WQK.pdb
     RDKit          3D

 33 34  0  0  1  0  0  0  0  0999 V2000
   27.8001  -21.6549  -14.7990 N   0  0  0  0  0  0  0  0  0  0  0  0
   26.7585  -21.2367  -13.8922 C   0  0  1  0  0  0  0  0  0  0  0  0
   27.1045  -19.9348  -13.2152 C   0  0  0  0  0  0  0  0  0  0  0  0
   27.8779  -20.1890  -11.9752 C   0  0  0  0  0  0  0  0  0  0  0  0
   29.2419  -20.2893  -11.8062 C   0  0  0  0  0  0  0  0  0  0  0  0
   29.4904  -20.5234  -10.5151 N   0  0  0  0  0  0  0  0  0  0  0  0
   28.3465  -20.5842   -9.8109 C   0  0  0  0  0  0  0  0  0  0  0  0
   28.0734  -20.7999   -8.4634 C   0  0  0  0  0  0  0  0  0  0  0  0
   26.7690  -20.8094   -8.0055 C   0  0  0  0  0  0  0  0  0  0  0  0
   25.7431  -20.6021   -8.9025 C   0  0  0  0  0  0  0  0  0  0  0  0
   26.0213  -20.3892  -10.2357 C   0  0  0  0  0  0  0  0  0  0  0  0
   27.3225  -20.3743  -10.7247 C   0  0  0  0  0  0  0  0  0  0  0  0
   25.4812  -21.1308  -14.6638 C   0  0  0  0  0  0  0  0  0  0  0  0
   25.5291  -20.4997  -15.7400 O   0  0  0  0  0  0  0  0  0  0  0  0
   23.4787  -25.4412  -14.0773 N   0  0  0  0  0  0  0  0  0  0  0  0
   23.8787  -25.0981  -15.3999 C   0  0  0  0  0  0  0  0  0  0  0  0
   24.6625  -25.8721  -15.9960 O   0  0  0  0  0  0  0  0  0  0  0  0
   23.3769  -23.8508  -16.0552 C   0  0  0  0  0  0  0  0  0  0  0  0
   22.5167  -23.1379  -15.0702 C   0  0  0  0  0  0  0  0  0  0  0  0
   22.9861  -21.6976  -14.7933 C   0  0  2  0  0  0  0  0  0  0  0  0
   24.2804  -21.6946  -14.2343 N   0  0  0  0  0  0  0  0  0  0  0  0
   21.9604  -20.9138  -14.1033 C   0  0  0  0  0  0  0  0  0  0  0  0
   21.8155  -20.9097  -12.8436 O   0  0  0  0  0  0  0  0  0  0  0  0
   21.0709  -20.1091  -14.8528 N   0  0  0  0  0  0  0  0  0  0  0  0
   20.0429  -19.3125  -14.1362 C   0  0  1  0  0  0  0  0  0  0  0  0
   19.5419  -18.2257  -15.0041 C   0  0  0  0  0  0  0  0  0  0  0  0
   18.4462  -17.3721  -14.5233 C   0  0  0  0  0  0  0  0  0  0  0  0
   17.9296  -16.2994  -15.3956 C   0  0  0  0  0  0  0  0  0  0  0  0
   16.7774  -15.5073  -14.8748 C   0  0  0  0  0  0  0  0  0  0  0  0
   16.1200  -14.6169  -15.7447 N   0  0  0  0  0  0  0  0  0  0  0  0
   19.0670  -20.2360  -13.6149 C   0  0  0  0  0  0  0  0  0  0  0  0
   18.7750  -21.2918  -14.2505 O   0  0  0  0  0  0  0  0  0  0  0  0
   18.4078  -20.0456  -12.4229 O   0  0  0  0  0  0  0  0  0  0  0  0
  2  1  1  6
  3  2  1  0
  4  3  1  0
  4  5  2  0
  6  5  1  0
  7  6  1  0
  8  7  2  0
  9  8  1  0
 10  9  2  0
 10 11  1  0
 11 12  2  0
 12  7  1  0
 12  4  1  0
 13  2  1  0
 13 14  2  0
 15 16  1  0
 16 17  2  0
 18 19  1  0
 18 16  1  0
 20 19  1  1
 20 21  1  0
 21 13  1  0
 22 23  2  0
 22 20  1  0
 24 22  1  0
 25 26  1  6
 25 24  1  0
 26 27  1  0
 27 28  1  0
 28 29  1  0
 29 30  1  0
 31 33  1  0
 31 25  1  0
 32 31  2  0
M  END
$$$$
