WQK.pdb
     RDKit          3D

 33 34  0  0  1  0  0  0  0  0999 V2000
   26.4253  -19.4262  -17.0018 N   0  0  0  0  0  0  0  0  0  0  0  0
   25.4490  -18.8471  -16.1109 C   0  0  1  0  0  0  0  0  0  0  0  0
   24.3992  -18.0742  -16.8682 C   0  0  0  0  0  0  0  0  0  0  0  0
   25.0071  -16.8958  -17.5332 C   0  0  0  0  0  0  0  0  0  0  0  0
   25.3251  -16.7150  -18.8618 C   0  0  0  0  0  0  0  0  0  0  0  0
   25.8526  -15.4967  -19.0068 N   0  0  0  0  0  0  0  0  0  0  0  0
   25.9013  -14.8528  -17.8273 C   0  0  0  0  0  0  0  0  0  0  0  0
   26.3515  -13.5897  -17.4549 C   0  0  0  0  0  0  0  0  0  0  0  0
   26.2776  -13.1799  -16.1366 C   0  0  0  0  0  0  0  0  0  0  0  0
   25.7516  -14.0400  -15.1967 C   0  0  0  0  0  0  0  0  0  0  0  0
   25.3077  -15.2895  -15.5729 C   0  0  0  0  0  0  0  0  0  0  0  0
   25.3694  -15.7287  -16.8904 C   0  0  0  0  0  0  0  0  0  0  0  0
   24.8414  -19.9495  -15.3024 C   0  0  0  0  0  0  0  0  0  0  0  0
   24.5999  -21.0163  -15.9044 O   0  0  0  0  0  0  0  0  0  0  0  0
   25.7176  -20.9762   -9.2379 N   0  0  0  0  0  0  0  0  0  0  0  0
   26.5508  -21.2736  -10.3534 C   0  0  0  0  0  0  0  0  0  0  0  0
   27.7260  -21.6429  -10.1268 O   0  0  0  0  0  0  0  0  0  0  0  0
   26.0361  -21.1479  -11.7521 C   0  0  0  0  0  0  0  0  0  0  0  0
   24.6243  -20.6797  -11.6734 C   0  0  0  0  0  0  0  0  0  0  0  0
   23.9081  -20.6969  -13.0366 C   0  0  2  0  0  0  0  0  0  0  0  0
   24.5461  -19.8278  -13.9451 N   0  0  0  0  0  0  0  0  0  0  0  0
   22.4579  -20.5616  -12.8915 C   0  0  0  0  0  0  0  0  0  0  0  0
   21.8766  -19.4510  -12.6999 O   0  0  0  0  0  0  0  0  0  0  0  0
   21.6360  -21.7103  -12.9649 N   0  0  0  0  0  0  0  0  0  0  0  0
   20.1677  -21.5564  -12.8053 C   0  0  1  0  0  0  0  0  0  0  0  0
   19.4624  -22.6813  -13.4555 C   0  0  0  0  0  0  0  0  0  0  0  0
   18.5727  -22.4076  -14.5930 C   0  0  0  0  0  0  0  0  0  0  0  0
   17.9003  -23.5327  -15.2717 C   0  0  0  0  0  0  0  0  0  0  0  0
   17.0219  -23.1906  -16.4282 C   0  0  0  0  0  0  0  0  0  0  0  0
   16.4370  -24.2368  -17.1664 N   0  0  0  0  0  0  0  0  0  0  0  0
   19.9058  -21.3419  -11.4045 C   0  0  0  0  0  0  0  0  0  0  0  0
   20.6885  -21.8072  -10.5241 O   0  0  0  0  0  0  0  0  0  0  0  0
   18.8236  -20.6328  -10.9381 O   0  0  0  0  0  0  0  0  0  0  0  0
  2  1  1  6
  3  2  1  0
  4  3  1  0
  4  5  2  0
  6  5  1  0
  7  6  1  0
  8  7  2  0
  9  8  1  0
 10  9  2  0
 10 11  1  0
 11 12  2  0
 12  7  1  0
 12  4  1  0
 13  2  1  0
 13 14  2  0
 15 16  1  0
 16 17  2  0
 18 19  1  0
 18 16  1  0
 20 19  1  1
 20 21  1  0
 21 13  1  0
 22 23  2  0
 22 20  1  0
 24 22  1  0
 25 26  1  1
 25 24  1  0
 26 27  1  0
 27 28  1  0
 28 29  1  0
 29 30  1  0
 31 33  1  0
 31 25  1  0
 32 31  2  0
M  END
$$$$
