WQK.pdb
     RDKit          3D

 33 34  0  0  1  0  0  0  0  0999 V2000
   25.8277  -22.6218  -11.2184 N   0  0  0  0  0  0  0  0  0  0  0  0
   25.8706  -21.1932  -11.4176 C   0  0  1  0  0  0  0  0  0  0  0  0
   27.2880  -20.6943  -11.5400 C   0  0  0  0  0  0  0  0  0  0  0  0
   28.0757  -21.0830  -10.3447 C   0  0  0  0  0  0  0  0  0  0  0  0
   29.1101  -21.9877  -10.2415 C   0  0  0  0  0  0  0  0  0  0  0  0
   29.5211  -22.0146   -8.9711 N   0  0  0  0  0  0  0  0  0  0  0  0
   28.8028  -21.1635   -8.2176 C   0  0  0  0  0  0  0  0  0  0  0  0
   28.8399  -20.8307   -6.8668 C   0  0  0  0  0  0  0  0  0  0  0  0
   27.9604  -19.8974   -6.3505 C   0  0  0  0  0  0  0  0  0  0  0  0
   27.0464  -19.3012   -7.1927 C   0  0  0  0  0  0  0  0  0  0  0  0
   27.0155  -19.6359   -8.5295 C   0  0  0  0  0  0  0  0  0  0  0  0
   27.8872  -20.5705   -9.0765 C   0  0  0  0  0  0  0  0  0  0  0  0
   25.0672  -20.8666  -12.6366 C   0  0  0  0  0  0  0  0  0  0  0  0
   25.6440  -20.2067  -13.5257 O   0  0  0  0  0  0  0  0  0  0  0  0
   25.7544  -21.3454  -16.4884 N   0  0  0  0  0  0  0  0  0  0  0  0
   25.6795  -22.4768  -15.6274 C   0  0  0  0  0  0  0  0  0  0  0  0
   26.7064  -23.1812  -15.4925 O   0  0  0  0  0  0  0  0  0  0  0  0
   24.4122  -22.8119  -14.9073 C   0  0  0  0  0  0  0  0  0  0  0  0
   23.4395  -21.7153  -15.1711 C   0  0  0  0  0  0  0  0  0  0  0  0
   22.8431  -21.1176  -13.8832 C   0  0  2  0  0  0  0  0  0  0  0  0
   23.7406  -21.2615  -12.8055 N   0  0  0  0  0  0  0  0  0  0  0  0
   21.4645  -21.5587  -13.6657 C   0  0  0  0  0  0  0  0  0  0  0  0
   21.1578  -22.5676  -12.9616 O   0  0  0  0  0  0  0  0  0  0  0  0
   20.3979  -20.8427  -14.2576 N   0  0  0  0  0  0  0  0  0  0  0  0
   19.0045  -21.1682  -13.8608 C   0  0  1  0  0  0  0  0  0  0  0  0
   18.1005  -20.0507  -14.2064 C   0  0  0  0  0  0  0  0  0  0  0  0
   16.6881  -20.1214  -13.8056 C   0  0  0  0  0  0  0  0  0  0  0  0
   15.7765  -19.0204  -14.1734 C   0  0  0  0  0  0  0  0  0  0  0  0
   14.3599  -19.1426  -13.7213 C   0  0  0  0  0  0  0  0  0  0  0  0
   13.4505  -18.1235  -14.0622 N   0  0  0  0  0  0  0  0  0  0  0  0
   18.6886  -22.4606  -14.4148 C   0  0  0  0  0  0  0  0  0  0  0  0
   19.1686  -22.8181  -15.5309 O   0  0  0  0  0  0  0  0  0  0  0  0
   17.8729  -23.3729  -13.7869 O   0  0  0  0  0  0  0  0  0  0  0  0
  2  1  1  6
  3  2  1  0
  4  3  1  0
  4  5  2  0
  6  5  1  0
  7  6  1  0
  8  7  2  0
  9  8  1  0
 10  9  2  0
 10 11  1  0
 11 12  2  0
 12  7  1  0
 12  4  1  0
 13  2  1  0
 13 14  2  0
 15 16  1  0
 16 17  2  0
 18 19  1  0
 18 16  1  0
 20 19  1  6
 20 21  1  0
 21 13  1  0
 22 23  2  0
 22 20  1  0
 24 22  1  0
 25 26  1  6
 25 24  1  0
 26 27  1  0
 27 28  1  0
 28 29  1  0
 29 30  1  0
 31 33  1  0
 31 25  1  0
 32 31  2  0
M  END
$$$$
