VGQ.pdb
     RDKit          3D

 21 20  0  0  1  0  0  0  0  0999 V2000
    8.0591  -12.4995   20.6318 C   0  0  0  0  0  0  0  0  0  0  0  0
    8.3520  -13.3334   19.4184 C   0  0  2  0  0  0  0  0  0  0  0  0
    7.4419  -13.0308   18.2721 C   0  0  0  0  0  0  0  0  0  0  0  0
    8.4270  -14.8124   19.7296 C   0  0  2  0  0  0  0  0  0  0  0  0
    7.0364  -15.2053   20.0255 N   0  0  0  0  0  0  0  0  0  0  0  0
    9.2513  -15.1496   20.8906 C   0  0  0  0  0  0  0  0  0  0  0  0
   10.4740  -15.4670   20.6908 O   0  0  0  0  0  0  0  0  0  0  0  0
    8.8191  -15.1581   22.2385 N   0  0  0  0  0  0  0  0  0  0  0  0
    9.7519  -15.3595   23.2867 C   0  0  0  0  0  0  0  0  0  0  0  0
    9.2460  -15.3311   24.6524 C   0  0  0  0  0  0  0  0  0  0  0  0
    7.9740  -15.2580   24.7683 O   0  0  0  0  0  0  0  0  0  0  0  0
   12.7633  -18.0117   29.6834 N   0  0  0  0  0  0  0  0  0  0  0  0
   11.4751  -17.5391   29.3683 C   0  0  0  0  0  0  0  0  0  0  0  0
   10.5469  -17.8408   30.1926 O   0  0  0  0  0  0  0  0  0  0  0  0
   11.1742  -16.7332   28.1564 C   0  0  0  0  0  0  0  0  0  0  0  0
    9.6720  -16.4940   28.0244 C   0  0  0  0  0  0  0  0  0  0  0  0
    9.3853  -15.2904   27.1687 C   0  0  2  0  0  0  0  0  0  0  0  0
    9.9634  -15.3709   25.8571 N   0  0  0  0  0  0  0  0  0  0  0  0
    9.7450  -14.0302   27.8616 C   0  0  0  0  0  0  0  0  0  0  0  0
   10.7746  -13.4166   27.4890 O   0  0  0  0  0  0  0  0  0  0  0  0
    9.0150  -13.4808   28.9005 O   0  0  0  0  0  0  0  0  0  0  0  0
  2  1  1  1
  2  3  1  0
  4  2  1  0
  4  5  1  1
  6  4  1  0
  6  7  2  0
  8  6  1  0
  9  8  1  0
  9 10  1  0
 10 18  1  0
 11 10  2  0
 13 15  1  0
 13 12  1  0
 14 13  2  0
 17 16  1  1
 16 15  1  0
 17 19  1  0
 18 17  1  0
 19 20  2  0
 19 21  1  0
M  END
$$$$
