VGQ.pdb
     RDKit          3D

 21 20  0  0  1  0  0  0  0  0999 V2000
    8.0717  -12.7045   18.4197 C   0  0  0  0  0  0  0  0  0  0  0  0
    7.8839  -13.5505   19.6455 C   0  0  2  0  0  0  0  0  0  0  0  0
    7.2574  -12.8021   20.7773 C   0  0  0  0  0  0  0  0  0  0  0  0
    9.1471  -14.2767   20.0540 C   0  0  2  0  0  0  0  0  0  0  0  0
    9.4196  -15.2099   18.9448 N   0  0  0  0  0  0  0  0  0  0  0  0
    9.0298  -15.0572   21.2861 C   0  0  0  0  0  0  0  0  0  0  0  0
    8.8691  -14.4264   22.3870 O   0  0  0  0  0  0  0  0  0  0  0  0
    9.0769  -16.4688   21.3797 N   0  0  0  0  0  0  0  0  0  0  0  0
    8.9841  -17.1048   22.6431 C   0  0  0  0  0  0  0  0  0  0  0  0
   10.0718  -16.8875   23.5874 C   0  0  0  0  0  0  0  0  0  0  0  0
   10.8494  -15.9081   23.3176 O   0  0  0  0  0  0  0  0  0  0  0  0
   10.6741  -12.8158   28.3023 N   0  0  0  0  0  0  0  0  0  0  0  0
   10.2026  -14.1417   28.2617 C   0  0  0  0  0  0  0  0  0  0  0  0
    9.0435  -14.3431   28.7597 O   0  0  0  0  0  0  0  0  0  0  0  0
   10.9796  -15.2678   27.6813 C   0  0  0  0  0  0  0  0  0  0  0  0
   10.2708  -15.8399   26.4559 C   0  0  0  0  0  0  0  0  0  0  0  0
   10.9868  -17.0539   25.9300 C   0  0  2  0  0  0  0  0  0  0  0  0
   10.3836  -17.6069   24.7505 N   0  0  0  0  0  0  0  0  0  0  0  0
   11.1820  -18.0733   26.9884 C   0  0  0  0  0  0  0  0  0  0  0  0
   10.3524  -19.0112   27.0746 O   0  0  0  0  0  0  0  0  0  0  0  0
   12.2269  -18.0595   27.8952 O   0  0  0  0  0  0  0  0  0  0  0  0
  2  1  1  6
  2  3  1  0
  4  2  1  0
  4  5  1  6
  6  4  1  0
  6  7  2  0
  8  6  1  0
  9  8  1  0
  9 10  1  0
 10 18  1  0
 11 10  2  0
 13 15  1  0
 13 12  1  0
 14 13  2  0
 17 16  1  1
 16 15  1  0
 17 19  1  0
 18 17  1  0
 19 20  2  0
 19 21  1  0
M  END
$$$$
