VGQ.pdb
     RDKit          3D

 21 20  0  0  1  0  0  0  0  0999 V2000
    8.1618  -11.9906   19.5105 C   0  0  0  0  0  0  0  0  0  0  0  0
    8.3245  -13.3117   18.8164 C   0  0  2  0  0  0  0  0  0  0  0  0
    7.0186  -13.9604   18.4887 C   0  0  0  0  0  0  0  0  0  0  0  0
    9.2721  -14.2412   19.5430 C   0  0  2  0  0  0  0  0  0  0  0  0
    9.4103  -15.4086   18.6522 N   0  0  0  0  0  0  0  0  0  0  0  0
    8.7867  -14.7140   20.8398 C   0  0  0  0  0  0  0  0  0  0  0  0
    8.7236  -13.8750   21.8030 O   0  0  0  0  0  0  0  0  0  0  0  0
    8.3717  -16.0342   21.1373 N   0  0  0  0  0  0  0  0  0  0  0  0
    7.9058  -16.3615   22.4355 C   0  0  0  0  0  0  0  0  0  0  0  0
    8.7086  -15.9226   23.5690 C   0  0  0  0  0  0  0  0  0  0  0  0
    9.8911  -15.5245   23.2866 O   0  0  0  0  0  0  0  0  0  0  0  0
    5.3363  -12.2455   26.7166 N   0  0  0  0  0  0  0  0  0  0  0  0
    6.7059  -12.5708   26.7320 C   0  0  0  0  0  0  0  0  0  0  0  0
    7.4673  -11.7733   27.3773 O   0  0  0  0  0  0  0  0  0  0  0  0
    7.2701  -13.7641   26.0489 C   0  0  0  0  0  0  0  0  0  0  0  0
    8.6049  -14.1644   26.6727 C   0  0  0  0  0  0  0  0  0  0  0  0
    9.1931  -15.3622   25.9782 C   0  0  2  0  0  0  0  0  0  0  0  0
    8.3623  -15.8788   24.9276 N   0  0  0  0  0  0  0  0  0  0  0  0
    9.5896  -16.4135   26.9452 C   0  0  0  0  0  0  0  0  0  0  0  0
   10.3876  -16.1088   27.8648 O   0  0  0  0  0  0  0  0  0  0  0  0
    9.1345  -17.7193   26.9010 O   0  0  0  0  0  0  0  0  0  0  0  0
  2  1  1  1
  2  3  1  0
  4  2  1  0
  4  5  1  6
  6  4  1  0
  6  7  2  0
  8  6  1  0
  9  8  1  0
  9 10  1  0
 10 18  1  0
 11 10  2  0
 13 15  1  0
 13 12  1  0
 14 13  2  0
 17 16  1  1
 16 15  1  0
 17 19  1  0
 18 17  1  0
 19 20  2  0
 19 21  1  0
M  END
$$$$
