VGQ.pdb
     RDKit          3D

 21 20  0  0  1  0  0  0  0  0999 V2000
    7.4442  -12.7132   20.9012 C   0  0  0  0  0  0  0  0  0  0  0  0
    7.9844  -13.5850   19.8049 C   0  0  2  0  0  0  0  0  0  0  0  0
    7.0980  -13.6219   18.6021 C   0  0  0  0  0  0  0  0  0  0  0  0
    8.3669  -14.9660   20.2909 C   0  0  2  0  0  0  0  0  0  0  0  0
    7.0948  -15.5816   20.7132 N   0  0  0  0  0  0  0  0  0  0  0  0
    9.2793  -14.9783   21.4348 C   0  0  0  0  0  0  0  0  0  0  0  0
   10.5204  -14.7570   21.2192 O   0  0  0  0  0  0  0  0  0  0  0  0
    8.9150  -15.2148   22.7821 N   0  0  0  0  0  0  0  0  0  0  0  0
    9.8959  -15.1771   23.8047 C   0  0  0  0  0  0  0  0  0  0  0  0
   10.7313  -16.3575   23.9797 C   0  0  0  0  0  0  0  0  0  0  0  0
   10.1377  -17.4808   23.8296 O   0  0  0  0  0  0  0  0  0  0  0  0
   17.1574  -17.3413   22.7585 N   0  0  0  0  0  0  0  0  0  0  0  0
   16.2684  -16.4208   23.3453 C   0  0  0  0  0  0  0  0  0  0  0  0
   16.7998  -15.4053   23.9096 O   0  0  0  0  0  0  0  0  0  0  0  0
   14.7916  -16.5871   23.3292 C   0  0  0  0  0  0  0  0  0  0  0  0
   14.3293  -17.4357   24.5114 C   0  0  0  0  0  0  0  0  0  0  0  0
   12.8397  -17.6436   24.4830 C   0  0  2  0  0  0  0  0  0  0  0  0
   12.0968  -16.4301   24.2920 N   0  0  0  0  0  0  0  0  0  0  0  0
   12.3724  -18.4047   25.6662 C   0  0  0  0  0  0  0  0  0  0  0  0
   11.6624  -17.8124   26.5150 O   0  0  0  0  0  0  0  0  0  0  0  0
   12.6695  -19.7357   25.8990 O   0  0  0  0  0  0  0  0  0  0  0  0
  2  1  1  1
  2  3  1  0
  4  2  1  0
  4  5  1  1
  6  4  1  0
  6  7  2  0
  8  6  1  0
  9  8  1  0
  9 10  1  0
 10 18  1  0
 11 10  2  0
 13 15  1  0
 13 12  1  0
 14 13  2  0
 17 16  1  1
 16 15  1  0
 17 19  1  0
 18 17  1  0
 19 20  2  0
 19 21  1  0
M  END
$$$$
