VGQ.pdb
     RDKit          3D

 21 20  0  0  1  0  0  0  0  0999 V2000
    7.9970  -12.0786   19.3949 C   0  0  0  0  0  0  0  0  0  0  0  0
    8.5470  -13.3384   18.7916 C   0  0  2  0  0  0  0  0  0  0  0  0
    7.4787  -14.2707   18.3190 C   0  0  0  0  0  0  0  0  0  0  0  0
    9.5630  -14.0186   19.6832 C   0  0  2  0  0  0  0  0  0  0  0  0
   10.1740  -15.0572   18.8325 N   0  0  0  0  0  0  0  0  0  0  0  0
    8.9968  -14.6729   20.8632 C   0  0  0  0  0  0  0  0  0  0  0  0
    8.5246  -13.9343   21.7944 O   0  0  0  0  0  0  0  0  0  0  0  0
    8.9186  -16.0698   21.0779 N   0  0  0  0  0  0  0  0  0  0  0  0
    8.1894  -16.5839   22.1794 C   0  0  0  0  0  0  0  0  0  0  0  0
    8.5656  -16.1237   23.5092 C   0  0  0  0  0  0  0  0  0  0  0  0
    9.7575  -16.4099   23.8756 O   0  0  0  0  0  0  0  0  0  0  0  0
    5.3568  -12.2223   27.2666 N   0  0  0  0  0  0  0  0  0  0  0  0
    6.3379  -11.7985   26.3503 C   0  0  0  0  0  0  0  0  0  0  0  0
    6.2725  -10.5778   25.9790 O   0  0  0  0  0  0  0  0  0  0  0  0
    7.4034  -12.6905   25.8231 C   0  0  0  0  0  0  0  0  0  0  0  0
    7.3058  -14.0794   26.4497 C   0  0  0  0  0  0  0  0  0  0  0  0
    8.2274  -15.0516   25.7651 C   0  0  2  0  0  0  0  0  0  0  0  0
    7.7988  -15.4114   24.4431 N   0  0  0  0  0  0  0  0  0  0  0  0
    8.4913  -16.2407   26.6101 C   0  0  0  0  0  0  0  0  0  0  0  0
    7.9196  -17.3193   26.3186 O   0  0  0  0  0  0  0  0  0  0  0  0
    9.3332  -16.2404   27.7081 O   0  0  0  0  0  0  0  0  0  0  0  0
  2  1  1  1
  2  3  1  0
  4  2  1  0
  4  5  1  6
  6  4  1  0
  6  7  2  0
  8  6  1  0
  9  8  1  0
  9 10  1  0
 10 18  1  0
 11 10  2  0
 13 15  1  0
 13 12  1  0
 14 13  2  0
 17 16  1  1
 16 15  1  0
 17 19  1  0
 18 17  1  0
 19 20  2  0
 19 21  1  0
M  END
$$$$
