VGQ.pdb
     RDKit          3D

 21 20  0  0  1  0  0  0  0  0999 V2000
    9.3052  -12.4181   19.7450 C   0  0  0  0  0  0  0  0  0  0  0  0
    8.1987  -13.2941   19.2333 C   0  0  2  0  0  0  0  0  0  0  0  0
    6.9181  -13.1087   19.9811 C   0  0  0  0  0  0  0  0  0  0  0  0
    8.6062  -14.7474   19.1245 C   0  0  2  0  0  0  0  0  0  0  0  0
    7.4919  -15.3977   18.4097 N   0  0  0  0  0  0  0  0  0  0  0  0
    8.7820  -15.4284   20.4076 C   0  0  0  0  0  0  0  0  0  0  0  0
    9.9593  -15.4857   20.9041 O   0  0  0  0  0  0  0  0  0  0  0  0
    7.7565  -16.0407   21.1674 N   0  0  0  0  0  0  0  0  0  0  0  0
    8.0421  -16.5871   22.4439 C   0  0  0  0  0  0  0  0  0  0  0  0
    8.6543  -15.7078   23.4307 C   0  0  0  0  0  0  0  0  0  0  0  0
    9.8665  -15.3734   23.1953 O   0  0  0  0  0  0  0  0  0  0  0  0
    5.4751  -11.0067   25.9012 N   0  0  0  0  0  0  0  0  0  0  0  0
    6.1643  -12.1500   26.3482 C   0  0  0  0  0  0  0  0  0  0  0  0
    5.5795  -12.8455   27.2462 O   0  0  0  0  0  0  0  0  0  0  0  0
    7.4964  -12.5561   25.8290 C   0  0  0  0  0  0  0  0  0  0  0  0
    8.0383  -13.7535   26.6060 C   0  0  0  0  0  0  0  0  0  0  0  0
    8.8425  -14.6614   25.7160 C   0  0  2  0  0  0  0  0  0  0  0  0
    8.0965  -15.1795   24.6043 N   0  0  0  0  0  0  0  0  0  0  0  0
    9.5087  -15.7352   26.4911 C   0  0  0  0  0  0  0  0  0  0  0  0
    9.1429  -16.9213   26.3047 O   0  0  0  0  0  0  0  0  0  0  0  0
   10.5155  -15.5148   27.4142 O   0  0  0  0  0  0  0  0  0  0  0  0
  2  1  1  1
  2  3  1  0
  4  2  1  0
  4  5  1  6
  6  4  1  0
  6  7  2  0
  8  6  1  0
  9  8  1  0
  9 10  1  0
 10 18  1  0
 11 10  2  0
 13 15  1  0
 13 12  1  0
 14 13  2  0
 17 16  1  1
 16 15  1  0
 17 19  1  0
 18 17  1  0
 19 20  2  0
 19 21  1  0
M  END
$$$$
