VGQ.pdb
     RDKit          3D

 21 20  0  0  1  0  0  0  0  0999 V2000
    7.9429  -13.7577   18.2165 C   0  0  0  0  0  0  0  0  0  0  0  0
    7.7876  -13.7607   19.7096 C   0  0  2  0  0  0  0  0  0  0  0  0
    7.7215  -12.3848   20.2895 C   0  0  0  0  0  0  0  0  0  0  0  0
    8.8082  -14.6376   20.4019 C   0  0  2  0  0  0  0  0  0  0  0  0
    8.4833  -16.0086   19.9659 N   0  0  0  0  0  0  0  0  0  0  0  0
    8.7519  -14.6003   21.8636 C   0  0  0  0  0  0  0  0  0  0  0  0
    9.1982  -13.5598   22.4584 O   0  0  0  0  0  0  0  0  0  0  0  0
    8.2413  -15.6227   22.6989 N   0  0  0  0  0  0  0  0  0  0  0  0
    8.3727  -15.5273   24.1071 C   0  0  0  0  0  0  0  0  0  0  0  0
    9.6976  -15.7372   24.6751 C   0  0  0  0  0  0  0  0  0  0  0  0
   10.5096  -14.7555   24.5590 O   0  0  0  0  0  0  0  0  0  0  0  0
   10.8616  -13.4568   27.9007 N   0  0  0  0  0  0  0  0  0  0  0  0
   10.2615  -14.6061   28.4492 C   0  0  0  0  0  0  0  0  0  0  0  0
    9.3735  -14.4051   29.3453 O   0  0  0  0  0  0  0  0  0  0  0  0
   10.6146  -15.9891   28.0349 C   0  0  0  0  0  0  0  0  0  0  0  0
   11.7527  -15.9755   27.0172 C   0  0  0  0  0  0  0  0  0  0  0  0
   11.5108  -16.9718   25.9164 C   0  0  2  0  0  0  0  0  0  0  0  0
   10.2045  -16.8694   25.3299 N   0  0  0  0  0  0  0  0  0  0  0  0
   11.8203  -18.3540   26.3538 C   0  0  0  0  0  0  0  0  0  0  0  0
   10.8967  -19.2039   26.3458 O   0  0  0  0  0  0  0  0  0  0  0  0
   13.0702  -18.7730   26.7737 O   0  0  0  0  0  0  0  0  0  0  0  0
  2  1  1  6
  2  3  1  0
  4  2  1  0
  4  5  1  6
  6  4  1  0
  6  7  2  0
  8  6  1  0
  9  8  1  0
  9 10  1  0
 10 18  1  0
 11 10  2  0
 13 15  1  0
 13 12  1  0
 14 13  2  0
 17 16  1  1
 16 15  1  0
 17 19  1  0
 18 17  1  0
 19 20  2  0
 19 21  1  0
M  END
$$$$
