HTH.pdb
     RDKit          3D

 28 29  0  0  1  0  0  0  0  0999 V2000
    9.3640  -15.6069   18.7601 N   0  0  0  0  0  0  0  0  0  0  0  0
    8.4867  -14.8078   19.5574 C   0  0  1  0  0  0  0  0  0  0  0  0
    7.1879  -14.5565   18.8211 C   0  0  0  0  0  0  0  0  0  0  0  0
    7.4506  -14.1104   17.4358 C   0  0  0  0  0  0  0  0  0  0  0  0
    7.6732  -12.8232   16.9723 C   0  0  0  0  0  0  0  0  0  0  0  0
    7.8609  -12.9268   15.6529 N   0  0  0  0  0  0  0  0  0  0  0  0
    7.7654  -14.2141   15.2781 C   0  0  0  0  0  0  0  0  0  0  0  0
    7.5140  -14.9411   16.3692 N   0  0  0  0  0  0  0  0  0  0  0  0
    8.1697  -15.4578   20.8696 C   0  0  0  0  0  0  0  0  0  0  0  0
    7.3730  -14.8721   21.6472 O   0  0  0  0  0  0  0  0  0  0  0  0
    7.4765  -19.2616   21.5253 C   0  0  0  0  0  0  0  0  0  0  0  0
    8.5110  -18.7572   22.5180 C   0  0  1  0  0  0  0  0  0  0  0  0
    9.7628  -19.1770   22.1032 O   0  0  0  0  0  0  0  0  0  0  0  0
    8.4874  -17.2213   22.5765 C   0  0  2  0  0  0  0  0  0  0  0  0
    8.7427  -16.6978   21.2400 N   0  0  0  0  0  0  0  0  0  0  0  0
    9.4255  -16.6881   23.5600 C   0  0  0  0  0  0  0  0  0  0  0  0
   10.6116  -16.3297   23.2828 O   0  0  0  0  0  0  0  0  0  0  0  0
    9.0282  -16.5451   24.9101 N   0  0  0  0  0  0  0  0  0  0  0  0
    9.9696  -16.0671   25.9351 C   0  0  1  0  0  0  0  0  0  0  0  0
    9.1051  -15.3313   26.9333 C   0  0  0  0  0  0  0  0  0  0  0  0
    9.8599  -14.8759   28.1349 C   0  0  0  0  0  0  0  0  0  0  0  0
   10.2811  -13.6054   28.3792 C   0  0  0  0  0  0  0  0  0  0  0  0
   10.9292  -13.6022   29.5516 N   0  0  0  0  0  0  0  0  0  0  0  0
   10.9197  -14.8407   30.0392 C   0  0  0  0  0  0  0  0  0  0  0  0
   10.2646  -15.6318   29.1755 N   0  0  0  0  0  0  0  0  0  0  0  0
   10.5312  -17.2682   26.5926 C   0  0  0  0  0  0  0  0  0  0  0  0
    9.9270  -18.3780   26.6330 O   0  0  0  0  0  0  0  0  0  0  0  0
   11.7757  -17.2528   27.2161 O   0  0  0  0  0  0  0  0  0  0  0  0
  2  1  1  6
  2  9  1  0
  3  2  1  0
  3  4  1  0
  4  5  2  0
  5  6  1  0
  7  6  1  0
  8  4  1  0
  8  7  2  0
  9 10  2  0
 12 11  1  6
 12 14  1  0
 13 12  1  0
 14 16  1  0
 14 15  1  6
 15  9  1  0
 16 17  2  0
 16 18  1  0
 18 19  1  0
 19 26  1  0
 19 20  1  1
 21 20  1  0
 21 22  2  0
 23 22  1  0
 24 23  1  0
 25 24  2  0
 25 21  1  0
 26 27  2  0
 26 28  1  0
M  END
$$$$
