HTH.pdb
     RDKit          3D

 28 29  0  0  1  0  0  0  0  0999 V2000
    8.8509  -16.6254   19.2660 N   0  0  0  0  0  0  0  0  0  0  0  0
    9.4864  -15.8267   20.2670 C   0  0  1  0  0  0  0  0  0  0  0  0
    9.1474  -14.3646   20.0683 C   0  0  0  0  0  0  0  0  0  0  0  0
    8.6156  -14.1320   18.7081 C   0  0  0  0  0  0  0  0  0  0  0  0
    8.4705  -15.0413   17.6720 C   0  0  0  0  0  0  0  0  0  0  0  0
    7.9487  -14.3613   16.6463 N   0  0  0  0  0  0  0  0  0  0  0  0
    7.7642  -13.0769   16.9970 C   0  0  0  0  0  0  0  0  0  0  0  0
    8.1723  -12.9342   18.2602 N   0  0  0  0  0  0  0  0  0  0  0  0
    9.0735  -16.2252   21.6512 C   0  0  0  0  0  0  0  0  0  0  0  0
    7.8530  -16.1632   21.9495 O   0  0  0  0  0  0  0  0  0  0  0  0
    9.2377  -19.4534   23.0723 C   0  0  0  0  0  0  0  0  0  0  0  0
    9.9406  -18.5842   24.1021 C   0  0  1  0  0  0  0  0  0  0  0  0
   11.3077  -18.7133   23.9300 O   0  0  0  0  0  0  0  0  0  0  0  0
    9.5450  -17.1107   23.9133 C   0  0  2  0  0  0  0  0  0  0  0  0
   10.0188  -16.6620   22.6096 N   0  0  0  0  0  0  0  0  0  0  0  0
   10.0353  -16.2609   24.9946 C   0  0  0  0  0  0  0  0  0  0  0  0
   11.0763  -15.5390   24.9088 O   0  0  0  0  0  0  0  0  0  0  0  0
    9.3377  -16.2091   26.2241 N   0  0  0  0  0  0  0  0  0  0  0  0
    9.7880  -15.3360   27.3197 C   0  0  1  0  0  0  0  0  0  0  0  0
    8.5131  -14.7849   27.9164 C   0  0  0  0  0  0  0  0  0  0  0  0
    7.7936  -13.8562   26.9995 C   0  0  0  0  0  0  0  0  0  0  0  0
    8.0736  -12.5372   26.8178 C   0  0  0  0  0  0  0  0  0  0  0  0
    7.2026  -12.0481   25.9252 N   0  0  0  0  0  0  0  0  0  0  0  0
    6.3895  -13.0328   25.5498 C   0  0  0  0  0  0  0  0  0  0  0  0
    6.7445  -14.1491   26.2047 N   0  0  0  0  0  0  0  0  0  0  0  0
   10.4388  -16.2094   28.3218 C   0  0  0  0  0  0  0  0  0  0  0  0
   10.9165  -15.7746   29.4085 O   0  0  0  0  0  0  0  0  0  0  0  0
   10.5681  -17.5820   28.1295 O   0  0  0  0  0  0  0  0  0  0  0  0
  2  1  1  6
  2  9  1  0
  3  2  1  0
  3  4  1  0
  4  5  2  0
  5  6  1  0
  7  6  1  0
  8  4  1  0
  8  7  2  0
  9 10  2  0
 12 11  1  6
 12 14  1  0
 13 12  1  0
 14 16  1  0
 14 15  1  6
 15  9  1  0
 16 17  2  0
 16 18  1  0
 18 19  1  0
 19 26  1  0
 19 20  1  1
 21 20  1  0
 21 22  2  0
 23 22  1  0
 24 23  1  0
 25 24  2  0
 25 21  1  0
 26 27  2  0
 26 28  1  0
M  END
$$$$
