HTH.pdb
     RDKit          3D

 28 29  0  0  1  0  0  0  0  0999 V2000
   10.2546  -16.3849   16.0297 N   0  0  0  0  0  0  0  0  0  0  0  0
    9.2707  -16.7767   16.9902 C   0  0  1  0  0  0  0  0  0  0  0  0
    9.3307  -18.2710   17.2264 C   0  0  0  0  0  0  0  0  0  0  0  0
    8.0192  -18.7809   17.6815 C   0  0  0  0  0  0  0  0  0  0  0  0
    6.8071  -18.7635   17.0094 C   0  0  0  0  0  0  0  0  0  0  0  0
    5.9172  -19.3365   17.8259 N   0  0  0  0  0  0  0  0  0  0  0  0
    6.5192  -19.7070   18.9691 C   0  0  0  0  0  0  0  0  0  0  0  0
    7.8075  -19.3674   18.8827 N   0  0  0  0  0  0  0  0  0  0  0  0
    9.4582  -16.0812   18.3040 C   0  0  0  0  0  0  0  0  0  0  0  0
   10.6058  -16.0810   18.8192 O   0  0  0  0  0  0  0  0  0  0  0  0
    7.4301  -12.7233   19.5026 C   0  0  0  0  0  0  0  0  0  0  0  0
    7.4694  -13.8287   20.5450 C   0  0  1  0  0  0  0  0  0  0  0  0
    6.2725  -14.5219   20.4991 O   0  0  0  0  0  0  0  0  0  0  0  0
    8.6256  -14.7978   20.2492 C   0  0  2  0  0  0  0  0  0  0  0  0
    8.3832  -15.4367   18.9614 N   0  0  0  0  0  0  0  0  0  0  0  0
    8.8180  -15.7755   21.3162 C   0  0  0  0  0  0  0  0  0  0  0  0
    8.4458  -16.9870   21.2394 O   0  0  0  0  0  0  0  0  0  0  0  0
    9.4531  -15.3913   22.5203 N   0  0  0  0  0  0  0  0  0  0  0  0
    9.6121  -16.3395   23.6344 C   0  0  1  0  0  0  0  0  0  0  0  0
   10.9659  -16.0131   24.2226 C   0  0  0  0  0  0  0  0  0  0  0  0
   12.0965  -16.5792   23.4339 C   0  0  0  0  0  0  0  0  0  0  0  0
   11.9873  -17.4438   22.3890 C   0  0  0  0  0  0  0  0  0  0  0  0
   13.2225  -17.7258   21.9539 N   0  0  0  0  0  0  0  0  0  0  0  0
   14.0943  -17.0565   22.7047 C   0  0  0  0  0  0  0  0  0  0  0  0
   13.4122  -16.3483   23.6179 N   0  0  0  0  0  0  0  0  0  0  0  0
    8.5713  -16.0048   24.6319 C   0  0  0  0  0  0  0  0  0  0  0  0
    8.3815  -16.6806   25.6833 O   0  0  0  0  0  0  0  0  0  0  0  0
    7.7245  -14.9112   24.4744 O   0  0  0  0  0  0  0  0  0  0  0  0
  2  1  1  6
  2  9  1  0
  3  2  1  0
  3  4  1  0
  4  5  2  0
  5  6  1  0
  7  6  1  0
  8  4  1  0
  8  7  2  0
  9 10  2  0
 12 11  1  6
 12 14  1  0
 13 12  1  0
 14 16  1  0
 14 15  1  6
 15  9  1  0
 16 17  2  0
 16 18  1  0
 18 19  1  0
 19 26  1  0
 19 20  1  1
 21 20  1  0
 21 22  2  0
 23 22  1  0
 24 23  1  0
 25 24  2  0
 25 21  1  0
 26 27  2  0
 26 28  1  0
M  END
$$$$
