HTH.pdb
     RDKit          3D

 28 29  0  0  1  0  0  0  0  0999 V2000
    9.8306  -15.1396   19.9418 N   0  0  0  0  0  0  0  0  0  0  0  0
    8.5487  -14.7982   20.4747 C   0  0  1  0  0  0  0  0  0  0  0  0
    7.4582  -15.1320   19.4788 C   0  0  0  0  0  0  0  0  0  0  0  0
    7.6627  -14.3942   18.2136 C   0  0  0  0  0  0  0  0  0  0  0  0
    8.7328  -13.5936   17.8458 C   0  0  0  0  0  0  0  0  0  0  0  0
    8.4624  -13.1481   16.6149 N   0  0  0  0  0  0  0  0  0  0  0  0
    7.2783  -13.6337   16.2037 C   0  0  0  0  0  0  0  0  0  0  0  0
    6.7866  -14.3976   17.1820 N   0  0  0  0  0  0  0  0  0  0  0  0
    8.2599  -15.5223   21.7543 C   0  0  0  0  0  0  0  0  0  0  0  0
    7.1306  -15.3652   22.2856 O   0  0  0  0  0  0  0  0  0  0  0  0
    8.4312  -19.1882   22.4344 C   0  0  0  0  0  0  0  0  0  0  0  0
    9.2634  -18.5110   23.5109 C   0  0  1  0  0  0  0  0  0  0  0  0
   10.6000  -18.6170   23.1681 O   0  0  0  0  0  0  0  0  0  0  0  0
    8.8862  -17.0246   23.6184 C   0  0  2  0  0  0  0  0  0  0  0  0
    9.2211  -16.3645   22.3624 N   0  0  0  0  0  0  0  0  0  0  0  0
    9.5163  -16.3727   24.7628 C   0  0  0  0  0  0  0  0  0  0  0  0
   10.5848  -15.6911   24.6871 O   0  0  0  0  0  0  0  0  0  0  0  0
    8.9331  -16.4812   26.0469 N   0  0  0  0  0  0  0  0  0  0  0  0
    9.5001  -15.7706   27.2040 C   0  0  1  0  0  0  0  0  0  0  0  0
    8.3093  -15.1267   27.8769 C   0  0  0  0  0  0  0  0  0  0  0  0
    7.7125  -14.0220   27.0743 C   0  0  0  0  0  0  0  0  0  0  0  0
    8.3310  -12.8598   26.7314 C   0  0  0  0  0  0  0  0  0  0  0  0
    7.4658  -12.1241   26.0209 N   0  0  0  0  0  0  0  0  0  0  0  0
    6.3258  -12.8030   25.9159 C   0  0  0  0  0  0  0  0  0  0  0  0
    6.4669  -13.9716   26.5603 N   0  0  0  0  0  0  0  0  0  0  0  0
   10.0529  -16.8023   28.1098 C   0  0  0  0  0  0  0  0  0  0  0  0
    9.9084  -18.0425   27.9118 O   0  0  0  0  0  0  0  0  0  0  0  0
   10.7762  -16.4690   29.2515 O   0  0  0  0  0  0  0  0  0  0  0  0
  2  1  1  6
  2  9  1  0
  3  2  1  0
  3  4  1  0
  4  5  2  0
  5  6  1  0
  7  6  1  0
  8  4  1  0
  8  7  2  0
  9 10  2  0
 12 11  1  6
 12 14  1  0
 13 12  1  0
 14 16  1  0
 14 15  1  6
 15  9  1  0
 16 17  2  0
 16 18  1  0
 18 19  1  0
 19 26  1  0
 19 20  1  1
 21 20  1  0
 21 22  2  0
 23 22  1  0
 24 23  1  0
 25 24  2  0
 25 21  1  0
 26 27  2  0
 26 28  1  0
M  END
$$$$
