HTH.pdb
     RDKit          3D

 28 29  0  0  1  0  0  0  0  0999 V2000
   12.4055  -16.4353   19.5147 N   0  0  0  0  0  0  0  0  0  0  0  0
   11.2969  -17.1104   20.1140 C   0  0  1  0  0  0  0  0  0  0  0  0
   11.7547  -18.3959   20.7698 C   0  0  0  0  0  0  0  0  0  0  0  0
   11.5952  -19.5394   19.8456 C   0  0  0  0  0  0  0  0  0  0  0  0
   12.5107  -20.0484   18.9379 C   0  0  0  0  0  0  0  0  0  0  0  0
   11.9087  -21.0788   18.3356 N   0  0  0  0  0  0  0  0  0  0  0  0
   10.6666  -21.2317   18.8260 C   0  0  0  0  0  0  0  0  0  0  0  0
   10.4724  -20.2893   19.7515 N   0  0  0  0  0  0  0  0  0  0  0  0
   10.6162  -16.2668   21.1484 C   0  0  0  0  0  0  0  0  0  0  0  0
   11.3294  -15.5429   21.8898 O   0  0  0  0  0  0  0  0  0  0  0  0
    7.3442  -14.1062   20.7140 C   0  0  0  0  0  0  0  0  0  0  0  0
    7.2226  -15.0122   21.9282 C   0  0  1  0  0  0  0  0  0  0  0  0
    6.4537  -16.1105   21.5847 O   0  0  0  0  0  0  0  0  0  0  0  0
    8.6132  -15.4900   22.3767 C   0  0  2  0  0  0  0  0  0  0  0  0
    9.2091  -16.2724   21.3005 N   0  0  0  0  0  0  0  0  0  0  0  0
    8.5671  -16.2342   23.6319 C   0  0  0  0  0  0  0  0  0  0  0  0
    8.9023  -17.4538   23.7425 O   0  0  0  0  0  0  0  0  0  0  0  0
    8.1312  -15.5954   24.8163 N   0  0  0  0  0  0  0  0  0  0  0  0
    7.9191  -16.3554   26.0584 C   0  0  1  0  0  0  0  0  0  0  0  0
    7.6155  -15.3041   27.1015 C   0  0  0  0  0  0  0  0  0  0  0  0
    8.8414  -14.7245   27.7196 C   0  0  0  0  0  0  0  0  0  0  0  0
   10.0706  -15.3068   27.7532 C   0  0  0  0  0  0  0  0  0  0  0  0
   10.9024  -14.4813   28.4022 N   0  0  0  0  0  0  0  0  0  0  0  0
   10.2175  -13.4015   28.7717 C   0  0  0  0  0  0  0  0  0  0  0  0
    8.9489  -13.5411   28.3569 N   0  0  0  0  0  0  0  0  0  0  0  0
    6.7073  -17.1798   25.8530 C   0  0  0  0  0  0  0  0  0  0  0  0
    6.2947  -18.0220   26.7009 O   0  0  0  0  0  0  0  0  0  0  0  0
    5.9349  -17.0795   24.6993 O   0  0  0  0  0  0  0  0  0  0  0  0
  2  1  1  1
  2  9  1  0
  3  2  1  0
  3  4  1  0
  4  5  2  0
  5  6  1  0
  7  6  1  0
  8  4  1  0
  8  7  2  0
  9 10  2  0
 12 11  1  6
 12 14  1  0
 13 12  1  0
 14 16  1  0
 14 15  1  6
 15  9  1  0
 16 17  2  0
 16 18  1  0
 18 19  1  0
 19 26  1  0
 19 20  1  1
 21 20  1  0
 21 22  2  0
 23 22  1  0
 24 23  1  0
 25 24  2  0
 25 21  1  0
 26 27  2  0
 26 28  1  0
M  END
$$$$
