HTH.pdb
     RDKit          3D

 28 29  0  0  1  0  0  0  0  0999 V2000
    9.4441  -15.5096   14.2488 N   0  0  0  0  0  0  0  0  0  0  0  0
    9.1331  -16.1147   15.5062 C   0  0  1  0  0  0  0  0  0  0  0  0
    9.6068  -17.5525   15.5304 C   0  0  0  0  0  0  0  0  0  0  0  0
    9.2962  -18.1828   16.8317 C   0  0  0  0  0  0  0  0  0  0  0  0
   10.1747  -18.7039   17.7687 C   0  0  0  0  0  0  0  0  0  0  0  0
    9.4226  -19.1601   18.7752 N   0  0  0  0  0  0  0  0  0  0  0  0
    8.1229  -18.9469   18.5067 C   0  0  0  0  0  0  0  0  0  0  0  0
    8.0433  -18.3480   17.3161 N   0  0  0  0  0  0  0  0  0  0  0  0
    9.7666  -15.3875   16.6529 C   0  0  0  0  0  0  0  0  0  0  0  0
   10.9939  -15.1208   16.5839 O   0  0  0  0  0  0  0  0  0  0  0  0
    7.7650  -12.5188   18.2888 C   0  0  0  0  0  0  0  0  0  0  0  0
    8.5421  -13.2268   19.3864 C   0  0  1  0  0  0  0  0  0  0  0  0
    7.6646  -14.0138   20.1117 O   0  0  0  0  0  0  0  0  0  0  0  0
    9.6332  -14.1201   18.7742 C   0  0  2  0  0  0  0  0  0  0  0  0
    9.0181  -15.0036   17.7911 N   0  0  0  0  0  0  0  0  0  0  0  0
   10.3759  -14.8638   19.7875 C   0  0  0  0  0  0  0  0  0  0  0  0
    9.8496  -15.7227   20.5604 O   0  0  0  0  0  0  0  0  0  0  0  0
   11.7642  -14.6452   19.9483 N   0  0  0  0  0  0  0  0  0  0  0  0
   12.5231  -15.3167   21.0153 C   0  0  1  0  0  0  0  0  0  0  0  0
   12.3834  -16.7912   20.7125 C   0  0  0  0  0  0  0  0  0  0  0  0
   12.9459  -17.6624   21.7828 C   0  0  0  0  0  0  0  0  0  0  0  0
   13.2068  -17.2860   23.0639 C   0  0  0  0  0  0  0  0  0  0  0  0
   13.7125  -18.3440   23.7116 N   0  0  0  0  0  0  0  0  0  0  0  0
   13.7713  -19.3668   22.8619 C   0  0  0  0  0  0  0  0  0  0  0  0
   13.3022  -18.9582   21.6728 N   0  0  0  0  0  0  0  0  0  0  0  0
   13.9410  -14.9311   20.8385 C   0  0  0  0  0  0  0  0  0  0  0  0
   14.8748  -15.3899   21.5567 O   0  0  0  0  0  0  0  0  0  0  0  0
   14.3420  -14.0278   19.8582 O   0  0  0  0  0  0  0  0  0  0  0  0
  2  1  1  6
  2  9  1  0
  3  2  1  0
  3  4  1  0
  4  5  2  0
  5  6  1  0
  7  6  1  0
  8  4  1  0
  8  7  2  0
  9 10  2  0
 12 11  1  6
 12 14  1  0
 13 12  1  0
 14 16  1  0
 14 15  1  6
 15  9  1  0
 16 17  2  0
 16 18  1  0
 18 19  1  0
 19 26  1  0
 19 20  1  6
 21 20  1  0
 21 22  2  0
 23 22  1  0
 24 23  1  0
 25 24  2  0
 25 21  1  0
 26 27  2  0
 26 28  1  0
M  END
$$$$
