YCE.pdb
     RDKit          3D

 28 28  0  0  1  0  0  0  0  0999 V2000
   20.0968  -14.7278  -19.4710 O   0  0  0  0  0  0  0  0  0  0  0  0
   20.1201  -13.6221  -18.6011 C   0  0  0  0  0  0  0  0  0  0  0  0
   20.0695  -12.3296  -19.0836 C   0  0  0  0  0  0  0  0  0  0  0  0
   20.0910  -11.2497  -18.2226 C   0  0  0  0  0  0  0  0  0  0  0  0
   20.1636  -11.4058  -16.8478 C   0  0  0  0  0  0  0  0  0  0  0  0
   20.1876  -10.2513  -15.9141 C   0  0  0  0  0  0  0  0  0  0  0  0
   21.5034   -9.5281  -15.8800 C   0  0  2  0  0  0  0  0  0  0  0  0
   22.6146  -10.3312  -15.4694 N   0  0  0  0  0  0  0  0  0  0  0  0
   21.3528   -8.3649  -14.9567 C   0  0  0  0  0  0  0  0  0  0  0  0
   21.7658   -8.4462  -13.7459 O   0  0  0  0  0  0  0  0  0  0  0  0
   20.2133  -12.7056  -16.3832 C   0  0  0  0  0  0  0  0  0  0  0  0
   20.1920  -13.7898  -17.2388 C   0  0  0  0  0  0  0  0  0  0  0  0
   20.7715   -7.1470  -15.3309 N   0  0  0  0  0  0  0  0  0  0  0  0
   20.9065   -5.8977  -14.6443 C   0  0  1  0  0  0  0  0  0  0  0  0
   22.3791   -5.5639  -14.4260 C   0  0  0  0  0  0  0  0  0  0  0  0
   22.6153   -3.9786  -13.5930 S   0  0  0  0  0  0  0  0  0  0  0  0
   20.2660   -4.7736  -15.3197 C   0  0  0  0  0  0  0  0  0  0  0  0
   20.6192   -4.3754  -16.4499 O   0  0  0  0  0  0  0  0  0  0  0  0
   19.1963   -4.0925  -14.6811 N   0  0  0  0  0  0  0  0  0  0  0  0
   18.4648   -2.9974  -15.3386 C   0  0  1  0  0  0  0  0  0  0  0  0
   17.0525   -2.9422  -14.7901 C   0  0  0  0  0  0  0  0  0  0  0  0
   16.2214   -1.8521  -15.4002 C   0  0  0  0  0  0  0  0  0  0  0  0
   14.8601   -1.9226  -14.7766 C   0  0  0  0  0  0  0  0  0  0  0  0
   14.6669   -2.9620  -14.0713 O   0  0  0  0  0  0  0  0  0  0  0  0
   19.1309   -1.7142  -15.0915 C   0  0  0  0  0  0  0  0  0  0  0  0
   18.8552   -0.7253  -15.8071 O   0  0  0  0  0  0  0  0  0  0  0  0
   13.9012   -0.9609  -14.9459 O   0  0  0  0  0  0  0  0  0  0  0  0
   20.0536   -1.5693  -14.0881 O   0  0  0  0  0  0  0  0  0  0  0  0
  2  1  1  0
  3  2  2  0
  4  3  1  0
  5 11  1  0
  5  4  2  0
  6  7  1  0
  6  5  1  0
  7  8  1  1
  9  7  1  0
  9 10  2  0
 11 12  2  0
 12  2  1  0
 13 14  1  0
 13  9  1  0
 14 15  1  6
 16 15  1  0
 17 18  2  0
 17 14  1  0
 19 17  1  0
 20 19  1  0
 20 25  1  0
 20 21  1  1
 22 21  1  0
 23 22  1  0
 24 23  2  0
 25 28  1  0
 26 25  2  0
 27 23  1  0
M  END
$$$$
