YCE.pdb
     RDKit          3D

 28 28  0  0  1  0  0  0  0  0999 V2000
   31.7992  -21.3810   -9.8675 O   0  0  0  0  0  0  0  0  0  0  0  0
   30.5382  -21.0992  -10.4244 C   0  0  0  0  0  0  0  0  0  0  0  0
   29.4089  -21.0137   -9.6347 C   0  0  0  0  0  0  0  0  0  0  0  0
   28.1751  -20.7348  -10.1894 C   0  0  0  0  0  0  0  0  0  0  0  0
   28.0088  -20.5291  -11.5494 C   0  0  0  0  0  0  0  0  0  0  0  0
   26.6866  -20.2290  -12.1550 C   0  0  0  0  0  0  0  0  0  0  0  0
   25.7868  -21.4262  -12.2670 C   0  0  2  0  0  0  0  0  0  0  0  0
   26.3306  -22.5120  -13.0244 N   0  0  0  0  0  0  0  0  0  0  0  0
   24.5072  -20.9702  -12.8858 C   0  0  0  0  0  0  0  0  0  0  0  0
   24.3154  -21.1100  -14.1454 O   0  0  0  0  0  0  0  0  0  0  0  0
   29.1491  -20.6183  -12.3237 C   0  0  0  0  0  0  0  0  0  0  0  0
   30.3860  -20.8968  -11.7754 C   0  0  0  0  0  0  0  0  0  0  0  0
   23.4632  -20.3787  -12.1636 N   0  0  0  0  0  0  0  0  0  0  0  0
   22.0626  -20.5409  -12.4132 C   0  0  1  0  0  0  0  0  0  0  0  0
   21.2977  -20.6768  -11.1001 C   0  0  0  0  0  0  0  0  0  0  0  0
   21.9910  -19.6521   -9.7839 S   0  0  0  0  0  0  0  0  0  0  0  0
   21.4668  -19.4609  -13.1933 C   0  0  0  0  0  0  0  0  0  0  0  0
   21.2824  -18.3157  -12.7295 O   0  0  0  0  0  0  0  0  0  0  0  0
   21.0741  -19.7036  -14.5361 N   0  0  0  0  0  0  0  0  0  0  0  0
   19.6849  -19.5231  -14.9881 C   0  0  1  0  0  0  0  0  0  0  0  0
   19.0402  -20.8829  -15.1712 C   0  0  0  0  0  0  0  0  0  0  0  0
   17.6536  -20.8102  -15.7397 C   0  0  0  0  0  0  0  0  0  0  0  0
   16.7452  -20.3296  -14.6484 C   0  0  0  0  0  0  0  0  0  0  0  0
   16.8626  -20.9706  -13.5573 O   0  0  0  0  0  0  0  0  0  0  0  0
   18.9201  -18.7532  -14.0013 C   0  0  0  0  0  0  0  0  0  0  0  0
   18.4287  -17.6483  -14.3235 O   0  0  0  0  0  0  0  0  0  0  0  0
   15.8622  -19.2953  -14.8016 O   0  0  0  0  0  0  0  0  0  0  0  0
   18.7272  -19.2175  -12.7260 O   0  0  0  0  0  0  0  0  0  0  0  0
  2  1  1  0
  3  2  2  0
  4  3  1  0
  5 11  1  0
  5  4  2  0
  6  7  1  0
  6  5  1  0
  7  8  1  6
  9  7  1  0
  9 10  2  0
 11 12  2  0
 12  2  1  0
 13 14  1  0
 13  9  1  0
 14 15  1  1
 16 15  1  0
 17 18  2  0
 17 14  1  0
 19 17  1  0
 20 19  1  0
 20 25  1  0
 20 21  1  1
 22 21  1  0
 23 22  1  0
 24 23  2  0
 25 28  1  0
 26 25  2  0
 27 23  1  0
M  END
$$$$
