YCE.pdb
     RDKit          3D

 28 28  0  0  1  0  0  0  0  0999 V2000
   16.5901  -14.4498  -22.5005 O   0  0  0  0  0  0  0  0  0  0  0  0
   17.1247  -13.8250  -21.3587 C   0  0  0  0  0  0  0  0  0  0  0  0
   17.9565  -12.7282  -21.4653 C   0  0  0  0  0  0  0  0  0  0  0  0
   18.4755  -12.1197  -20.3391 C   0  0  0  0  0  0  0  0  0  0  0  0
   18.1921  -12.5727  -19.0608 C   0  0  0  0  0  0  0  0  0  0  0  0
   18.7455  -11.9255  -17.8442 C   0  0  0  0  0  0  0  0  0  0  0  0
   20.0896  -12.4560  -17.4350 C   0  0  2  0  0  0  0  0  0  0  0  0
   20.1011  -13.8430  -17.0828 N   0  0  0  0  0  0  0  0  0  0  0  0
   20.5627  -11.6378  -16.2795 C   0  0  0  0  0  0  0  0  0  0  0  0
   20.1523  -11.9002  -15.0939 O   0  0  0  0  0  0  0  0  0  0  0  0
   17.3585  -13.6706  -18.9735 C   0  0  0  0  0  0  0  0  0  0  0  0
   16.8360  -14.2837  -20.0956 C   0  0  0  0  0  0  0  0  0  0  0  0
   21.4544  -10.5649  -16.4015 N   0  0  0  0  0  0  0  0  0  0  0  0
   21.9739   -9.7694  -15.3302 C   0  0  1  0  0  0  0  0  0  0  0  0
   23.4122  -10.1694  -15.0159 C   0  0  0  0  0  0  0  0  0  0  0  0
   24.4952  -10.0545  -16.4571 S   0  0  0  0  0  0  0  0  0  0  0  0
   21.9307   -8.3320  -15.5794 C   0  0  0  0  0  0  0  0  0  0  0  0
   21.8848   -7.8477  -16.7300 O   0  0  0  0  0  0  0  0  0  0  0  0
   21.9410   -7.4321  -14.4811 N   0  0  0  0  0  0  0  0  0  0  0  0
   21.8061   -5.9775  -14.6623 C   0  0  1  0  0  0  0  0  0  0  0  0
   20.4231   -5.6691  -15.2014 C   0  0  0  0  0  0  0  0  0  0  0  0
   20.1775   -4.2024  -15.4003 C   0  0  0  0  0  0  0  0  0  0  0  0
   18.7908   -4.0492  -15.9484 C   0  0  0  0  0  0  0  0  0  0  0  0
   18.1848   -5.1500  -16.1386 O   0  0  0  0  0  0  0  0  0  0  0  0
   21.9945   -5.2816  -13.3851 C   0  0  0  0  0  0  0  0  0  0  0  0
   21.9737   -5.9322  -12.3162 O   0  0  0  0  0  0  0  0  0  0  0  0
   18.2178   -2.8377  -16.2257 O   0  0  0  0  0  0  0  0  0  0  0  0
   22.1959   -3.9267  -13.3320 O   0  0  0  0  0  0  0  0  0  0  0  0
  2  1  1  0
  3  2  2  0
  4  3  1  0
  5 11  1  0
  5  4  2  0
  6  7  1  0
  6  5  1  0
  7  8  1  1
  9  7  1  0
  9 10  2  0
 11 12  2  0
 12  2  1  0
 13 14  1  0
 13  9  1  0
 14 15  1  6
 16 15  1  0
 17 18  2  0
 17 14  1  0
 19 17  1  0
 20 19  1  0
 20 25  1  0
 20 21  1  1
 22 21  1  0
 23 22  1  0
 24 23  2  0
 25 28  1  0
 26 25  2  0
 27 23  1  0
M  END
$$$$
