YCE.pdb
     RDKit          3D

 28 28  0  0  1  0  0  0  0  0999 V2000
   19.5167  -20.3814  -14.8584 O   0  0  0  0  0  0  0  0  0  0  0  0
   19.9658  -19.1145  -15.2746 C   0  0  0  0  0  0  0  0  0  0  0  0
   19.1876  -18.3076  -16.0805 C   0  0  0  0  0  0  0  0  0  0  0  0
   19.6354  -17.0645  -16.4831 C   0  0  0  0  0  0  0  0  0  0  0  0
   20.8726  -16.5694  -16.1041 C   0  0  0  0  0  0  0  0  0  0  0  0
   21.3628  -15.2346  -16.5320 C   0  0  0  0  0  0  0  0  0  0  0  0
   21.8196  -15.1877  -17.9618 C   0  0  2  0  0  0  0  0  0  0  0  0
   22.9399  -16.0277  -18.2576 N   0  0  0  0  0  0  0  0  0  0  0  0
   22.1551  -13.7683  -18.2800 C   0  0  0  0  0  0  0  0  0  0  0  0
   23.3091  -13.2970  -17.9813 O   0  0  0  0  0  0  0  0  0  0  0  0
   21.6372  -17.3901  -15.2981 C   0  0  0  0  0  0  0  0  0  0  0  0
   21.1954  -18.6342  -14.8918 C   0  0  0  0  0  0  0  0  0  0  0  0
   21.2680  -12.8820  -18.9034 N   0  0  0  0  0  0  0  0  0  0  0  0
   21.5572  -11.5395  -19.3089 C   0  0  1  0  0  0  0  0  0  0  0  0
   21.3820  -11.3868  -20.8167 C   0  0  0  0  0  0  0  0  0  0  0  0
   22.5182  -12.4302  -21.7566 S   0  0  0  0  0  0  0  0  0  0  0  0
   20.7488  -10.5265  -18.6379 C   0  0  0  0  0  0  0  0  0  0  0  0
   19.7828  -10.8142  -17.8998 O   0  0  0  0  0  0  0  0  0  0  0  0
   21.0579   -9.1527  -18.8201 N   0  0  0  0  0  0  0  0  0  0  0  0
   20.3337   -8.0881  -18.1067 C   0  0  1  0  0  0  0  0  0  0  0  0
   20.6158   -8.2031  -16.6216 C   0  0  0  0  0  0  0  0  0  0  0  0
   19.9740   -7.1164  -15.8101 C   0  0  0  0  0  0  0  0  0  0  0  0
   20.3675   -7.3317  -14.3798 C   0  0  0  0  0  0  0  0  0  0  0  0
   21.3362   -6.6049  -13.9943 O   0  0  0  0  0  0  0  0  0  0  0  0
   20.7636   -6.7684  -18.5808 C   0  0  0  0  0  0  0  0  0  0  0  0
   20.1300   -5.7477  -18.2302 O   0  0  0  0  0  0  0  0  0  0  0  0
   19.7481   -8.2294  -13.5530 O   0  0  0  0  0  0  0  0  0  0  0  0
   21.8508   -6.6234  -19.4030 O   0  0  0  0  0  0  0  0  0  0  0  0
  2  1  1  0
  3  2  2  0
  4  3  1  0
  5 11  1  0
  5  4  2  0
  6  7  1  0
  6  5  1  0
  7  8  1  1
  9  7  1  0
  9 10  2  0
 11 12  2  0
 12  2  1  0
 13 14  1  0
 13  9  1  0
 14 15  1  6
 16 15  1  0
 17 18  2  0
 17 14  1  0
 19 17  1  0
 20 19  1  0
 20 25  1  0
 20 21  1  1
 22 21  1  0
 23 22  1  0
 24 23  2  0
 25 28  1  0
 26 25  2  0
 27 23  1  0
M  END
$$$$
