YCE.pdb
     RDKit          3D

 28 28  0  0  1  0  0  0  0  0999 V2000
   17.2245  -14.1429  -22.5860 O   0  0  0  0  0  0  0  0  0  0  0  0
   17.4729  -13.1624  -21.6078 C   0  0  0  0  0  0  0  0  0  0  0  0
   16.4538  -12.6559  -20.8260 C   0  0  0  0  0  0  0  0  0  0  0  0
   16.7066  -11.6948  -19.8667 C   0  0  0  0  0  0  0  0  0  0  0  0
   17.9795  -11.1956  -19.6423 C   0  0  0  0  0  0  0  0  0  0  0  0
   18.2611  -10.1623  -18.6137 C   0  0  0  0  0  0  0  0  0  0  0  0
   18.8675  -10.7116  -17.3544 C   0  0  2  0  0  0  0  0  0  0  0  0
   18.0493  -11.6612  -16.6637 N   0  0  0  0  0  0  0  0  0  0  0  0
   19.1656   -9.5558  -16.4580 C   0  0  0  0  0  0  0  0  0  0  0  0
   18.2725   -9.1230  -15.6468 O   0  0  0  0  0  0  0  0  0  0  0  0
   18.9862  -11.7138  -20.4334 C   0  0  0  0  0  0  0  0  0  0  0  0
   18.7402  -12.6751  -21.3943 C   0  0  0  0  0  0  0  0  0  0  0  0
   20.3950   -8.8854  -16.4387 N   0  0  0  0  0  0  0  0  0  0  0  0
   20.7476   -7.7873  -15.5901 C   0  0  1  0  0  0  0  0  0  0  0  0
   22.0443   -8.0838  -14.8430 C   0  0  0  0  0  0  0  0  0  0  0  0
   21.7810   -9.0979  -13.3714 S   0  0  0  0  0  0  0  0  0  0  0  0
   20.8901   -6.5145  -16.2898 C   0  0  0  0  0  0  0  0  0  0  0  0
   21.5381   -6.3969  -17.3514 O   0  0  0  0  0  0  0  0  0  0  0  0
   20.2742   -5.3515  -15.7567 N   0  0  0  0  0  0  0  0  0  0  0  0
   20.3126   -4.0571  -16.4566 C   0  0  1  0  0  0  0  0  0  0  0  0
   19.0224   -3.3076  -16.1884 C   0  0  0  0  0  0  0  0  0  0  0  0
   18.9839   -1.9476  -16.8211 C   0  0  0  0  0  0  0  0  0  0  0  0
   17.6891   -1.3044  -16.4252 C   0  0  0  0  0  0  0  0  0  0  0  0
   16.9446   -2.0401  -15.7044 O   0  0  0  0  0  0  0  0  0  0  0  0
   21.4463   -3.2534  -15.9874 C   0  0  0  0  0  0  0  0  0  0  0  0
   21.8851   -3.4194  -14.8272 O   0  0  0  0  0  0  0  0  0  0  0  0
   17.3283   -0.0390  -16.8017 O   0  0  0  0  0  0  0  0  0  0  0  0
   22.0429   -2.3193  -16.7940 O   0  0  0  0  0  0  0  0  0  0  0  0
  2  1  1  0
  3  2  2  0
  4  3  1  0
  5 11  1  0
  5  4  2  0
  6  7  1  0
  6  5  1  0
  7  8  1  1
  9  7  1  0
  9 10  2  0
 11 12  2  0
 12  2  1  0
 13 14  1  0
 13  9  1  0
 14 15  1  6
 16 15  1  0
 17 18  2  0
 17 14  1  0
 19 17  1  0
 20 19  1  0
 20 25  1  0
 20 21  1  1
 22 21  1  0
 23 22  1  0
 24 23  2  0
 25 28  1  0
 26 25  2  0
 27 23  1  0
M  END
$$$$
