YCE.pdb
     RDKit          3D

 28 28  0  0  1  0  0  0  0  0999 V2000
   15.7224  -13.0237  -23.6602 O   0  0  0  0  0  0  0  0  0  0  0  0
   16.2433  -12.4363  -22.4925 C   0  0  0  0  0  0  0  0  0  0  0  0
   15.4579  -12.2502  -21.3724 C   0  0  0  0  0  0  0  0  0  0  0  0
   15.9777  -11.6744  -20.2294 C   0  0  0  0  0  0  0  0  0  0  0  0
   17.2970  -11.2591  -20.1490 C   0  0  0  0  0  0  0  0  0  0  0  0
   17.8648  -10.6389  -18.9250 C   0  0  0  0  0  0  0  0  0  0  0  0
   18.6138  -11.6027  -18.0501 C   0  0  2  0  0  0  0  0  0  0  0  0
   17.8178  -12.6654  -17.5159 N   0  0  0  0  0  0  0  0  0  0  0  0
   19.2218  -10.8181  -16.9352 C   0  0  0  0  0  0  0  0  0  0  0  0
   18.5361  -10.5540  -15.8849 O   0  0  0  0  0  0  0  0  0  0  0  0
   18.0676  -11.4532  -21.2787 C   0  0  0  0  0  0  0  0  0  0  0  0
   17.5541  -12.0284  -22.4248 C   0  0  0  0  0  0  0  0  0  0  0  0
   20.5349  -10.3314  -16.9544 N   0  0  0  0  0  0  0  0  0  0  0  0
   21.1860   -9.6095  -15.9033 C   0  0  1  0  0  0  0  0  0  0  0  0
   22.4852  -10.3024  -15.5038 C   0  0  0  0  0  0  0  0  0  0  0  0
   23.3553   -9.4354  -14.1792 S   0  0  0  0  0  0  0  0  0  0  0  0
   21.4779   -8.2169  -16.2280 C   0  0  0  0  0  0  0  0  0  0  0  0
   22.0549   -7.8766  -17.2825 O   0  0  0  0  0  0  0  0  0  0  0  0
   21.0983   -7.1935  -15.3199 N   0  0  0  0  0  0  0  0  0  0  0  0
   21.3463   -5.7698  -15.6000 C   0  0  1  0  0  0  0  0  0  0  0  0
   20.0370   -5.0103  -15.5154 C   0  0  0  0  0  0  0  0  0  0  0  0
   20.1768   -3.5501  -15.8310 C   0  0  0  0  0  0  0  0  0  0  0  0
   18.8169   -2.9317  -15.7085 C   0  0  0  0  0  0  0  0  0  0  0  0
   17.9064   -3.7477  -15.3615 O   0  0  0  0  0  0  0  0  0  0  0  0
   22.2931   -5.2129  -14.6279 C   0  0  0  0  0  0  0  0  0  0  0  0
   22.4915   -5.8087  -13.5454 O   0  0  0  0  0  0  0  0  0  0  0  0
   18.5648   -1.6081  -15.9485 O   0  0  0  0  0  0  0  0  0  0  0  0
   22.9722   -4.0487  -14.8776 O   0  0  0  0  0  0  0  0  0  0  0  0
  2  1  1  0
  3  2  2  0
  4  3  1  0
  5 11  1  0
  5  4  2  0
  6  7  1  0
  6  5  1  0
  7  8  1  1
  9  7  1  0
  9 10  2  0
 11 12  2  0
 12  2  1  0
 13 14  1  0
 13  9  1  0
 14 15  1  6
 16 15  1  0
 17 18  2  0
 17 14  1  0
 19 17  1  0
 20 19  1  0
 20 25  1  0
 20 21  1  1
 22 21  1  0
 23 22  1  0
 24 23  2  0
 25 28  1  0
 26 25  2  0
 27 23  1  0
M  END
$$$$
