YCE.pdb
     RDKit          3D

 28 28  0  0  1  0  0  0  0  0999 V2000
   29.5709  -19.9970   -3.6702 O   0  0  0  0  0  0  0  0  0  0  0  0
   28.8567  -19.9336   -4.8809 C   0  0  0  0  0  0  0  0  0  0  0  0
   27.7902  -20.7747   -5.1286 C   0  0  0  0  0  0  0  0  0  0  0  0
   27.0934  -20.7047   -6.3191 C   0  0  0  0  0  0  0  0  0  0  0  0
   27.4243  -19.7985   -7.3136 C   0  0  0  0  0  0  0  0  0  0  0  0
   26.6815  -19.7158   -8.5967 C   0  0  0  0  0  0  0  0  0  0  0  0
   26.9330  -20.8755   -9.5172 C   0  0  2  0  0  0  0  0  0  0  0  0
   28.3096  -21.0883   -9.8456 N   0  0  0  0  0  0  0  0  0  0  0  0
   26.1474  -20.6380  -10.7641 C   0  0  0  0  0  0  0  0  0  0  0  0
   26.4653  -19.6786  -11.5524 O   0  0  0  0  0  0  0  0  0  0  0  0
   28.4935  -18.9653   -7.0484 C   0  0  0  0  0  0  0  0  0  0  0  0
   29.1945  -19.0301   -5.8600 C   0  0  0  0  0  0  0  0  0  0  0  0
   25.0480  -21.4154  -11.1488 N   0  0  0  0  0  0  0  0  0  0  0  0
   24.2692  -21.2506  -12.3390 C   0  0  1  0  0  0  0  0  0  0  0  0
   24.4166  -22.4675  -13.2473 C   0  0  0  0  0  0  0  0  0  0  0  0
   26.1099  -22.6943  -13.8343 S   0  0  0  0  0  0  0  0  0  0  0  0
   22.8494  -21.0168  -12.0952 C   0  0  0  0  0  0  0  0  0  0  0  0
   22.2700  -21.4043  -11.0585 O   0  0  0  0  0  0  0  0  0  0  0  0
   22.0791  -20.3225  -13.0651 N   0  0  0  0  0  0  0  0  0  0  0  0
   20.6821  -19.9302  -12.8178 C   0  0  1  0  0  0  0  0  0  0  0  0
   20.2044  -19.0471  -13.9538 C   0  0  0  0  0  0  0  0  0  0  0  0
   18.8151  -18.5183  -13.7501 C   0  0  0  0  0  0  0  0  0  0  0  0
   18.4807  -17.6651  -14.9364 C   0  0  0  0  0  0  0  0  0  0  0  0
   18.8536  -16.4552  -14.8255 O   0  0  0  0  0  0  0  0  0  0  0  0
   19.8234  -21.1162  -12.7322 C   0  0  0  0  0  0  0  0  0  0  0  0
   20.0846  -22.1216  -13.4301 O   0  0  0  0  0  0  0  0  0  0  0  0
   17.8300  -18.1348  -16.0450 O   0  0  0  0  0  0  0  0  0  0  0  0
   18.7350  -21.1522  -11.8997 O   0  0  0  0  0  0  0  0  0  0  0  0
  2  1  1  0
  3  2  2  0
  4  3  1  0
  5 11  1  0
  5  4  2  0
  6  7  1  0
  6  5  1  0
  7  8  1  6
  9  7  1  0
  9 10  2  0
 11 12  2  0
 12  2  1  0
 13 14  1  0
 13  9  1  0
 14 15  1  6
 16 15  1  0
 17 18  2  0
 17 14  1  0
 19 17  1  0
 20 19  1  0
 20 25  1  0
 20 21  1  6
 22 21  1  0
 23 22  1  0
 24 23  2  0
 25 28  1  0
 26 25  2  0
 27 23  1  0
M  END
$$$$
