YCE.pdb
     RDKit          3D

 28 28  0  0  1  0  0  0  0  0999 V2000
   28.9062  -16.6044  -19.2366 O   0  0  0  0  0  0  0  0  0  0  0  0
   27.9678  -15.5890  -18.9755 C   0  0  0  0  0  0  0  0  0  0  0  0
   26.9835  -15.7510  -18.0211 C   0  0  0  0  0  0  0  0  0  0  0  0
   26.0673  -14.7483  -17.7698 C   0  0  0  0  0  0  0  0  0  0  0  0
   26.0883  -13.5436  -18.4539 C   0  0  0  0  0  0  0  0  0  0  0  0
   25.1076  -12.4600  -18.1912 C   0  0  0  0  0  0  0  0  0  0  0  0
   23.7757  -12.6765  -18.8504 C   0  0  2  0  0  0  0  0  0  0  0  0
   23.8207  -12.7379  -20.2795 N   0  0  0  0  0  0  0  0  0  0  0  0
   22.8759  -11.5655  -18.4210 C   0  0  0  0  0  0  0  0  0  0  0  0
   22.8822  -10.4508  -19.0538 O   0  0  0  0  0  0  0  0  0  0  0  0
   27.0797  -13.3993  -19.4047 C   0  0  0  0  0  0  0  0  0  0  0  0
   27.9990  -14.3979  -19.6608 C   0  0  0  0  0  0  0  0  0  0  0  0
   21.9937  -11.6558  -17.3371 N   0  0  0  0  0  0  0  0  0  0  0  0
   21.0342  -10.6694  -16.9416 C   0  0  1  0  0  0  0  0  0  0  0  0
   19.8422  -11.3283  -16.2542 C   0  0  0  0  0  0  0  0  0  0  0  0
   18.7260  -10.1265  -15.4974 S   0  0  0  0  0  0  0  0  0  0  0  0
   21.5698   -9.6352  -16.0621 C   0  0  0  0  0  0  0  0  0  0  0  0
   22.3485   -9.8885  -15.1188 O   0  0  0  0  0  0  0  0  0  0  0  0
   21.2013   -8.2801  -16.2721 N   0  0  0  0  0  0  0  0  0  0  0  0
   21.7413   -7.1873  -15.4468 C   0  0  1  0  0  0  0  0  0  0  0  0
   21.7410   -5.9053  -16.2561 C   0  0  0  0  0  0  0  0  0  0  0  0
   22.2325   -4.7164  -15.4841 C   0  0  0  0  0  0  0  0  0  0  0  0
   22.1011   -3.5172  -16.3738 C   0  0  0  0  0  0  0  0  0  0  0  0
   21.7108   -3.7876  -17.5528 O   0  0  0  0  0  0  0  0  0  0  0  0
   20.9237   -7.0008  -14.2435 C   0  0  0  0  0  0  0  0  0  0  0  0
   21.4789   -6.9074  -13.1258 O   0  0  0  0  0  0  0  0  0  0  0  0
   22.3759   -2.2402  -15.9656 O   0  0  0  0  0  0  0  0  0  0  0  0
   19.5568   -6.9241  -14.3127 O   0  0  0  0  0  0  0  0  0  0  0  0
  2  1  1  0
  3  2  2  0
  4  3  1  0
  5 11  1  0
  5  4  2  0
  6  7  1  0
  6  5  1  0
  7  8  1  6
  9  7  1  0
  9 10  2  0
 11 12  2  0
 12  2  1  0
 13 14  1  0
 13  9  1  0
 14 15  1  1
 16 15  1  0
 17 18  2  0
 17 14  1  0
 19 17  1  0
 20 19  1  0
 20 25  1  0
 20 21  1  6
 22 21  1  0
 23 22  1  0
 24 23  2  0
 25 28  1  0
 26 25  2  0
 27 23  1  0
M  END
$$$$
