TDS.pdb
     RDKit          3D

 22 21  0  0  1  0  0  0  0  0999 V2000
    8.8042  -12.5723   20.9031 C   0  0  0  0  0  0  0  0  0  0  0  0
    7.7595  -13.2588   20.0886 C   0  0  1  0  0  0  0  0  0  0  0  0
    7.8130  -12.7129   18.8027 O   0  0  0  0  0  0  0  0  0  0  0  0
    7.9743  -14.7475   20.0564 C   0  0  2  0  0  0  0  0  0  0  0  0
    7.0102  -15.3893   19.2326 N   0  0  0  0  0  0  0  0  0  0  0  0
    7.9007  -15.2934   21.4581 C   0  0  0  0  0  0  0  0  0  0  0  0
    6.8011  -15.5520   22.0175 O   0  0  0  0  0  0  0  0  0  0  0  0
    9.1078  -15.5224   22.1667 N   0  0  0  0  0  0  0  0  0  0  0  0
    9.0381  -16.1445   23.4923 C   0  0  1  0  0  0  0  0  0  0  0  0
    9.9643  -17.3276   23.5567 C   0  0  0  0  0  0  0  0  0  0  0  0
   10.0362  -17.9798   24.8703 C   0  0  0  0  0  0  0  0  0  0  0  0
    9.0293  -17.9799   25.6333 O   0  0  0  0  0  0  0  0  0  0  0  0
    9.3644  -15.1036   24.5119 C   0  0  0  0  0  0  0  0  0  0  0  0
   10.4766  -14.5595   24.5216 O   0  0  0  0  0  0  0  0  0  0  0  0
   11.1764  -18.6055   25.3250 O   0  0  0  0  0  0  0  0  0  0  0  0
    6.8697  -12.4327   25.6495 O   0  0  0  0  0  0  0  0  0  0  0  0
    7.3981  -12.9888   26.8137 C   0  0  0  0  0  0  0  0  0  0  0  0
    8.6757  -13.7125   26.4885 C   0  0  2  0  0  0  0  0  0  0  0  0
    8.4105  -14.7244   25.4806 N   0  0  0  0  0  0  0  0  0  0  0  0
    9.2494  -14.3659   27.6872 C   0  0  0  0  0  0  0  0  0  0  0  0
    9.4438  -15.6114   27.7445 O   0  0  0  0  0  0  0  0  0  0  0  0
    9.5773  -13.5713   28.7699 O   0  0  0  0  0  0  0  0  0  0  0  0
  2  1  1  1
  2  4  1  0
  3  2  1  0
  4  5  1  6
  4  6  1  0
  6  8  1  0
  7  6  2  0
  8  9  1  0
  9 13  1  0
 10 11  1  0
  9 10  1  6
 11 15  1  0
 12 11  2  0
 13 14  2  0
 13 19  1  0
 16 17  1  0
 18 17  1  1
 18 20  1  0
 19 18  1  0
 20 22  1  0
 21 20  2  0
M  END
$$$$
