TDS.pdb
     RDKit          3D

 22 21  0  0  1  0  0  0  0  0999 V2000
   10.4310  -16.2905   14.0205 C   0  0  0  0  0  0  0  0  0  0  0  0
    9.6423  -16.1551   15.2798 C   0  0  1  0  0  0  0  0  0  0  0  0
    9.2628  -14.8140   15.3877 O   0  0  0  0  0  0  0  0  0  0  0  0
    8.4415  -17.0615   15.2793 C   0  0  2  0  0  0  0  0  0  0  0  0
    7.5827  -16.7780   14.1829 N   0  0  0  0  0  0  0  0  0  0  0  0
    7.6931  -16.9000   16.5762 C   0  0  0  0  0  0  0  0  0  0  0  0
    6.5466  -16.3784   16.6255 O   0  0  0  0  0  0  0  0  0  0  0  0
    8.3002  -17.3501   17.7765 N   0  0  0  0  0  0  0  0  0  0  0  0
    7.5189  -17.3141   19.0163 C   0  0  1  0  0  0  0  0  0  0  0  0
    7.0628  -18.7005   19.3795 C   0  0  0  0  0  0  0  0  0  0  0  0
    8.0880  -19.5364   20.0170 C   0  0  0  0  0  0  0  0  0  0  0  0
    8.9234  -19.0189   20.8108 O   0  0  0  0  0  0  0  0  0  0  0  0
    8.3621  -16.6902   20.0790 C   0  0  0  0  0  0  0  0  0  0  0  0
    9.5941  -16.8122   20.0569 O   0  0  0  0  0  0  0  0  0  0  0  0
    8.1885  -20.8909   19.7851 O   0  0  0  0  0  0  0  0  0  0  0  0
    8.3551  -13.7173   23.9290 O   0  0  0  0  0  0  0  0  0  0  0  0
    7.6204  -14.3757   22.9437 C   0  0  0  0  0  0  0  0  0  0  0  0
    8.5459  -15.2110   22.1024 C   0  0  2  0  0  0  0  0  0  0  0  0
    7.7679  -15.9525   21.1253 N   0  0  0  0  0  0  0  0  0  0  0  0
    9.3166  -16.1672   22.9299 C   0  0  0  0  0  0  0  0  0  0  0  0
    8.8512  -17.2909   23.2662 O   0  0  0  0  0  0  0  0  0  0  0  0
   10.5857  -15.8016   23.3386 O   0  0  0  0  0  0  0  0  0  0  0  0
  2  1  1  6
  2  4  1  0
  3  2  1  0
  4  5  1  6
  4  6  1  0
  6  8  1  0
  7  6  2  0
  8  9  1  0
  9 13  1  0
 10 11  1  0
  9 10  1  1
 11 15  1  0
 12 11  2  0
 13 14  2  0
 13 19  1  0
 16 17  1  0
 18 17  1  1
 18 20  1  0
 19 18  1  0
 20 22  1  0
 21 20  2  0
M  END
$$$$
