TDS.pdb
     RDKit          3D

 22 21  0  0  1  0  0  0  0  0999 V2000
    7.7207  -12.3373   19.1308 C   0  0  0  0  0  0  0  0  0  0  0  0
    8.2725  -13.3388   20.0892 C   0  0  1  0  0  0  0  0  0  0  0  0
    7.8602  -12.9568   21.3692 O   0  0  0  0  0  0  0  0  0  0  0  0
    7.8073  -14.7315   19.7613 C   0  0  2  0  0  0  0  0  0  0  0  0
    6.3885  -14.8033   19.7163 N   0  0  0  0  0  0  0  0  0  0  0  0
    8.3401  -15.6919   20.7919 C   0  0  0  0  0  0  0  0  0  0  0  0
    7.5977  -16.2107   21.6685 O   0  0  0  0  0  0  0  0  0  0  0  0
    9.7198  -16.0201   20.7716 N   0  0  0  0  0  0  0  0  0  0  0  0
   10.2262  -16.9907   21.7465 C   0  0  1  0  0  0  0  0  0  0  0  0
   11.4930  -17.6212   21.2370 C   0  0  0  0  0  0  0  0  0  0  0  0
   12.0576  -18.6569   22.1112 C   0  0  0  0  0  0  0  0  0  0  0  0
   13.2144  -19.1129   21.8877 O   0  0  0  0  0  0  0  0  0  0  0  0
   10.4194  -16.2847   23.0480 C   0  0  0  0  0  0  0  0  0  0  0  0
   11.2731  -15.3948   23.1600 O   0  0  0  0  0  0  0  0  0  0  0  0
   11.3707  -19.1712   23.1893 O   0  0  0  0  0  0  0  0  0  0  0  0
    8.4207  -14.4124   26.7890 O   0  0  0  0  0  0  0  0  0  0  0  0
    8.3654  -15.1683   25.6187 C   0  0  0  0  0  0  0  0  0  0  0  0
    9.6788  -15.8717   25.4138 C   0  0  2  0  0  0  0  0  0  0  0  0
    9.6326  -16.6212   24.1703 N   0  0  0  0  0  0  0  0  0  0  0  0
    9.9749  -16.8031   26.5264 C   0  0  0  0  0  0  0  0  0  0  0  0
   10.0221  -18.0532   26.3608 O   0  0  0  0  0  0  0  0  0  0  0  0
   10.2048  -16.2694   27.7808 O   0  0  0  0  0  0  0  0  0  0  0  0
  2  1  1  6
  2  4  1  0
  3  2  1  0
  4  5  1  1
  4  6  1  0
  6  8  1  0
  7  6  2  0
  8  9  1  0
  9 13  1  0
 10 11  1  0
  9 10  1  6
 11 15  1  0
 12 11  2  0
 13 14  2  0
 13 19  1  0
 16 17  1  0
 18 17  1  1
 18 20  1  0
 19 18  1  0
 20 22  1  0
 21 20  2  0
M  END
$$$$
