TDS.pdb
     RDKit          3D

 22 21  0  0  1  0  0  0  0  0999 V2000
    8.2031  -12.9414   19.4945 C   0  0  0  0  0  0  0  0  0  0  0  0
    7.5449  -13.3185   18.2096 C   0  0  1  0  0  0  0  0  0  0  0  0
    7.2865  -12.1336   17.5143 O   0  0  0  0  0  0  0  0  0  0  0  0
    8.4074  -14.2473   17.3992 C   0  0  2  0  0  0  0  0  0  0  0  0
    7.7942  -14.5677   16.1577 N   0  0  0  0  0  0  0  0  0  0  0  0
    8.6652  -15.5047   18.1871 C   0  0  0  0  0  0  0  0  0  0  0  0
    8.2548  -16.6318   17.7997 O   0  0  0  0  0  0  0  0  0  0  0  0
    9.3927  -15.4135   19.4013 N   0  0  0  0  0  0  0  0  0  0  0  0
    9.8041  -16.6517   20.0694 C   0  0  1  0  0  0  0  0  0  0  0  0
   10.6303  -17.4924   19.1353 C   0  0  0  0  0  0  0  0  0  0  0  0
   11.0676  -18.7788   19.6920 C   0  0  0  0  0  0  0  0  0  0  0  0
   10.2132  -19.6455   20.0307 O   0  0  0  0  0  0  0  0  0  0  0  0
   10.5408  -16.2849   21.3154 C   0  0  0  0  0  0  0  0  0  0  0  0
   11.4582  -15.4539   21.2820 O   0  0  0  0  0  0  0  0  0  0  0  0
   12.3967  -19.0953   19.8701 O   0  0  0  0  0  0  0  0  0  0  0  0
    9.4779  -15.1110   25.6384 O   0  0  0  0  0  0  0  0  0  0  0  0
    9.2009  -15.8081   24.4631 C   0  0  0  0  0  0  0  0  0  0  0  0
   10.4899  -16.2517   23.8278 C   0  0  2  0  0  0  0  0  0  0  0  0
   10.2033  -16.8800   22.5498 N   0  0  0  0  0  0  0  0  0  0  0  0
   11.2141  -17.2164   24.6867 C   0  0  0  0  0  0  0  0  0  0  0  0
   11.3349  -18.4334   24.3755 O   0  0  0  0  0  0  0  0  0  0  0  0
   11.7703  -16.7525   25.8643 O   0  0  0  0  0  0  0  0  0  0  0  0
  2  1  1  1
  2  4  1  0
  3  2  1  0
  4  5  1  6
  4  6  1  0
  6  8  1  0
  7  6  2  0
  8  9  1  0
  9 13  1  0
 10 11  1  0
  9 10  1  6
 11 15  1  0
 12 11  2  0
 13 14  2  0
 13 19  1  0
 16 17  1  0
 18 17  1  1
 18 20  1  0
 19 18  1  0
 20 22  1  0
 21 20  2  0
M  END
$$$$
