TDS.pdb
     RDKit          3D

 22 21  0  0  1  0  0  0  0  0999 V2000
    7.9296  -11.9865   18.7920 C   0  0  0  0  0  0  0  0  0  0  0  0
    8.6274  -13.0770   19.5337 C   0  0  1  0  0  0  0  0  0  0  0  0
    8.2617  -12.9621   20.8781 O   0  0  0  0  0  0  0  0  0  0  0  0
    8.2705  -14.4325   18.9872 C   0  0  2  0  0  0  0  0  0  0  0  0
    6.8646  -14.6404   19.0032 N   0  0  0  0  0  0  0  0  0  0  0  0
    8.9587  -15.4965   19.8012 C   0  0  0  0  0  0  0  0  0  0  0  0
    8.3349  -16.2097   20.6325 O   0  0  0  0  0  0  0  0  0  0  0  0
   10.3513  -15.6991   19.6237 N   0  0  0  0  0  0  0  0  0  0  0  0
   11.0217  -16.7226   20.4311 C   0  0  1  0  0  0  0  0  0  0  0  0
   12.3319  -17.1031   19.7982 C   0  0  0  0  0  0  0  0  0  0  0  0
   13.0687  -18.1606   20.5014 C   0  0  0  0  0  0  0  0  0  0  0  0
   12.4850  -18.8703   21.3683 O   0  0  0  0  0  0  0  0  0  0  0  0
   11.1866  -16.1882   21.8156 C   0  0  0  0  0  0  0  0  0  0  0  0
   11.9916  -15.2761   22.0459 O   0  0  0  0  0  0  0  0  0  0  0  0
   14.3995  -18.4231   20.2586 O   0  0  0  0  0  0  0  0  0  0  0  0
    8.2507  -16.5423   24.4930 O   0  0  0  0  0  0  0  0  0  0  0  0
    9.3016  -15.6584   24.7349 C   0  0  0  0  0  0  0  0  0  0  0  0
   10.5900  -16.2684   24.2556 C   0  0  2  0  0  0  0  0  0  0  0  0
   10.4279  -16.7148   22.8829 N   0  0  0  0  0  0  0  0  0  0  0  0
   10.9884  -17.4228   25.0933 C   0  0  0  0  0  0  0  0  0  0  0  0
   11.0562  -18.5954   24.6318 O   0  0  0  0  0  0  0  0  0  0  0  0
   11.2928  -17.1912   26.4218 O   0  0  0  0  0  0  0  0  0  0  0  0
  2  1  1  6
  2  4  1  0
  3  2  1  0
  4  5  1  1
  4  6  1  0
  6  8  1  0
  7  6  2  0
  8  9  1  0
  9 13  1  0
 10 11  1  0
  9 10  1  6
 11 15  1  0
 12 11  2  0
 13 14  2  0
 13 19  1  0
 16 17  1  0
 18 17  1  1
 18 20  1  0
 19 18  1  0
 20 22  1  0
 21 20  2  0
M  END
$$$$
