CFS.pdb
     RDKit          3D

 24 24  0  0  1  0  0  0  0  0999 V2000
   28.3535  -18.9558  -15.5924 N   0  0  0  0  0  0  0  0  0  0  0  0
   27.3792  -18.6789  -14.5874 C   0  0  1  0  0  0  0  0  0  0  0  0
   26.5961  -17.4113  -14.8771 C   0  0  0  0  0  0  0  0  0  0  0  0
   27.5626  -15.9948  -14.2916 S   0  0  0  0  0  0  0  0  0  0  0  0
   26.4121  -19.7843  -14.3843 C   0  0  0  0  0  0  0  0  0  0  0  0
   25.8240  -20.2357  -15.3986 O   0  0  0  0  0  0  0  0  0  0  0  0
   26.1532  -20.3192  -13.0979 N   0  0  0  0  0  0  0  0  0  0  0  0
   25.2239  -21.4166  -12.8723 C   0  0  1  0  0  0  0  0  0  0  0  0
   25.5650  -22.1918  -11.6469 C   0  0  0  0  0  0  0  0  0  0  0  0
   25.9084  -21.2965  -10.5232 C   0  0  0  0  0  0  0  0  0  0  0  0
   27.2439  -21.0279  -10.2132 C   0  0  0  0  0  0  0  0  0  0  0  0
   27.5604  -20.1823   -9.1886 C   0  0  0  0  0  0  0  0  0  0  0  0
   26.6127  -19.5591   -8.4189 C   0  0  0  0  0  0  0  0  0  0  0  0
   25.2952  -19.8178   -8.7175 C   0  0  0  0  0  0  0  0  0  0  0  0
   24.9650  -20.6578   -9.7352 C   0  0  0  0  0  0  0  0  0  0  0  0
   23.8646  -20.8434  -12.7435 C   0  0  0  0  0  0  0  0  0  0  0  0
   23.5798  -19.8227  -12.0623 O   0  0  0  0  0  0  0  0  0  0  0  0
   21.1376  -21.6725  -15.5084 O   0  0  0  0  0  0  0  0  0  0  0  0
   20.8369  -20.6139  -14.6740 C   0  0  0  0  0  0  0  0  0  0  0  0
   21.4038  -20.8867  -13.2958 C   0  0  2  0  0  0  0  0  0  0  0  0
   22.7371  -21.4375  -13.4136 N   0  0  0  0  0  0  0  0  0  0  0  0
   20.5288  -21.8111  -12.5441 C   0  0  0  0  0  0  0  0  0  0  0  0
   20.9428  -22.9372  -12.1943 O   0  0  0  0  0  0  0  0  0  0  0  0
   19.2478  -21.4206  -12.2306 O   0  0  0  0  0  0  0  0  0  0  0  0
  2  5  1  0
  2  1  1  6
  3  2  1  0
  4  3  1  0
  5  6  2  0
  7  8  1  0
  7  5  1  0
  9 10  1  0
  8  9  1  1
 10 11  2  0
 11 12  1  0
 13 12  2  0
 14 13  1  0
 15 14  2  0
 15 10  1  0
 16  8  1  0
 16 17  2  0
 18 19  1  0
 20 19  1  6
 20 22  1  0
 21 20  1  0
 21 16  1  0
 22 23  2  0
 22 24  1  0
M  END
$$$$
