CFS.pdb
     RDKit          3D

 24 24  0  0  1  0  0  0  0  0999 V2000
   22.1892  -12.1995  -17.8919 N   0  0  0  0  0  0  0  0  0  0  0  0
   21.8740  -10.8519  -18.2396 C   0  0  1  0  0  0  0  0  0  0  0  0
   20.7158  -10.7645  -19.2167 C   0  0  0  0  0  0  0  0  0  0  0  0
   21.2156  -11.5539  -20.7692 S   0  0  0  0  0  0  0  0  0  0  0  0
   21.5567  -10.0003  -17.0681 C   0  0  0  0  0  0  0  0  0  0  0  0
   20.7974  -10.4798  -16.1895 O   0  0  0  0  0  0  0  0  0  0  0  0
   22.0850   -8.6922  -16.9345 N   0  0  0  0  0  0  0  0  0  0  0  0
   21.8473   -7.8612  -15.7633 C   0  0  1  0  0  0  0  0  0  0  0  0
   23.1130   -7.3032  -15.2106 C   0  0  0  0  0  0  0  0  0  0  0  0
   24.1232   -8.3617  -15.0077 C   0  0  0  0  0  0  0  0  0  0  0  0
   23.9475   -9.3285  -14.0145 C   0  0  0  0  0  0  0  0  0  0  0  0
   24.8705  -10.3201  -13.8424 C   0  0  0  0  0  0  0  0  0  0  0  0
   25.9991  -10.4276  -14.6130 C   0  0  0  0  0  0  0  0  0  0  0  0
   26.1798   -9.4799  -15.5934 C   0  0  0  0  0  0  0  0  0  0  0  0
   25.2687   -8.4865  -15.7764 C   0  0  0  0  0  0  0  0  0  0  0  0
   20.9429   -6.7588  -16.1628 C   0  0  0  0  0  0  0  0  0  0  0  0
   21.2211   -5.8806  -17.0221 O   0  0  0  0  0  0  0  0  0  0  0  0
   17.0738   -6.6442  -14.6754 O   0  0  0  0  0  0  0  0  0  0  0  0
   17.2920   -6.1152  -15.9323 C   0  0  0  0  0  0  0  0  0  0  0  0
   18.7114   -5.5921  -16.0152 C   0  0  2  0  0  0  0  0  0  0  0  0
   19.6374   -6.6130  -15.5733 N   0  0  0  0  0  0  0  0  0  0  0  0
   18.8661   -4.3683  -15.2006 C   0  0  0  0  0  0  0  0  0  0  0  0
   19.6319   -4.3530  -14.2132 O   0  0  0  0  0  0  0  0  0  0  0  0
   18.1567   -3.2397  -15.5393 O   0  0  0  0  0  0  0  0  0  0  0  0
  2  5  1  0
  2  1  1  1
  3  2  1  0
  4  3  1  0
  5  6  2  0
  7  8  1  0
  7  5  1  0
  9 10  1  0
  8  9  1  6
 10 11  2  0
 11 12  1  0
 13 12  2  0
 14 13  1  0
 15 14  2  0
 15 10  1  0
 16  8  1  0
 16 17  2  0
 18 19  1  0
 20 19  1  1
 20 22  1  0
 21 20  1  0
 21 16  1  0
 22 23  2  0
 22 24  1  0
M  END
$$$$
