CFS.pdb
     RDKit          3D

 24 24  0  0  1  0  0  0  0  0999 V2000
   29.0853  -13.0763  -21.1605 N   0  0  0  0  0  0  0  0  0  0  0  0
   27.8132  -12.5004  -21.4538 C   0  0  1  0  0  0  0  0  0  0  0  0
   27.0477  -13.2939  -22.4970 C   0  0  0  0  0  0  0  0  0  0  0  0
   27.6249  -12.7880  -24.1384 S   0  0  0  0  0  0  0  0  0  0  0  0
   26.9466  -12.3478  -20.2604 C   0  0  0  0  0  0  0  0  0  0  0  0
   26.8656  -13.3229  -19.4724 O   0  0  0  0  0  0  0  0  0  0  0  0
   26.2317  -11.1506  -20.0084 N   0  0  0  0  0  0  0  0  0  0  0  0
   25.4190  -10.9529  -18.8171 C   0  0  1  0  0  0  0  0  0  0  0  0
   25.9492   -9.8584  -17.9569 C   0  0  0  0  0  0  0  0  0  0  0  0
   27.2638  -10.2141  -17.3847 C   0  0  0  0  0  0  0  0  0  0  0  0
   27.3799  -11.2703  -16.4776 C   0  0  0  0  0  0  0  0  0  0  0  0
   28.5989  -11.6131  -15.9663 C   0  0  0  0  0  0  0  0  0  0  0  0
   29.7565  -10.9599  -16.3017 C   0  0  0  0  0  0  0  0  0  0  0  0
   29.6512   -9.9188  -17.1944 C   0  0  0  0  0  0  0  0  0  0  0  0
   28.4436   -9.5662  -17.7119 C   0  0  0  0  0  0  0  0  0  0  0  0
   24.0418  -10.6280  -19.2538 C   0  0  0  0  0  0  0  0  0  0  0  0
   23.7473   -9.7218  -20.0778 O   0  0  0  0  0  0  0  0  0  0  0  0
   19.3754  -11.9654  -19.3123 O   0  0  0  0  0  0  0  0  0  0  0  0
   20.6573  -12.2479  -18.8829 C   0  0  0  0  0  0  0  0  0  0  0  0
   21.5593  -11.0709  -19.1930 C   0  0  2  0  0  0  0  0  0  0  0  0
   22.9066  -11.3539  -18.7462 N   0  0  0  0  0  0  0  0  0  0  0  0
   21.0515   -9.8397  -18.5516 C   0  0  0  0  0  0  0  0  0  0  0  0
   21.1502   -9.6777  -17.3164 O   0  0  0  0  0  0  0  0  0  0  0  0
   20.4658   -8.8678  -19.3288 O   0  0  0  0  0  0  0  0  0  0  0  0
  2  5  1  0
  2  1  1  1
  3  2  1  0
  4  3  1  0
  5  6  2  0
  7  8  1  0
  7  5  1  0
  9 10  1  0
  8  9  1  6
 10 11  2  0
 11 12  1  0
 13 12  2  0
 14 13  1  0
 15 14  2  0
 15 10  1  0
 16  8  1  0
 16 17  2  0
 18 19  1  0
 20 19  1  1
 20 22  1  0
 21 20  1  0
 21 16  1  0
 22 23  2  0
 22 24  1  0
M  END
$$$$
