CFS.pdb
     RDKit          3D

 24 24  0  0  1  0  0  0  0  0999 V2000
   28.5980  -23.8490  -17.1787 N   0  0  0  0  0  0  0  0  0  0  0  0
   28.0354  -22.5634  -16.9202 C   0  0  1  0  0  0  0  0  0  0  0  0
   27.3383  -21.9837  -18.1375 C   0  0  0  0  0  0  0  0  0  0  0  0
   28.5979  -21.5456  -19.3641 S   0  0  0  0  0  0  0  0  0  0  0  0
   27.0755  -22.5571  -15.7902 C   0  0  0  0  0  0  0  0  0  0  0  0
   26.4046  -23.6006  -15.5916 O   0  0  0  0  0  0  0  0  0  0  0  0
   26.9128  -21.4213  -14.9586 N   0  0  0  0  0  0  0  0  0  0  0  0
   26.0403  -21.4150  -13.7935 C   0  0  1  0  0  0  0  0  0  0  0  0
   26.4645  -20.4032  -12.7859 C   0  0  0  0  0  0  0  0  0  0  0  0
   25.6211  -20.4650  -11.5748 C   0  0  0  0  0  0  0  0  0  0  0  0
   24.3424  -19.9022  -11.5717 C   0  0  0  0  0  0  0  0  0  0  0  0
   23.5545  -19.9796  -10.4590 C   0  0  0  0  0  0  0  0  0  0  0  0
   23.9572  -20.5983   -9.3040 C   0  0  0  0  0  0  0  0  0  0  0  0
   25.2149  -21.1553   -9.2984 C   0  0  0  0  0  0  0  0  0  0  0  0
   26.0107  -21.0861  -10.3995 C   0  0  0  0  0  0  0  0  0  0  0  0
   24.6649  -21.1194  -14.2559 C   0  0  0  0  0  0  0  0  0  0  0  0
   24.3458  -20.1287  -14.9655 O   0  0  0  0  0  0  0  0  0  0  0  0
   21.5715  -23.9617  -13.9871 O   0  0  0  0  0  0  0  0  0  0  0  0
   21.6385  -23.0008  -14.9769 C   0  0  0  0  0  0  0  0  0  0  0  0
   22.2211  -21.7273  -14.3990 C   0  0  2  0  0  0  0  0  0  0  0  0
   23.5609  -21.9773  -13.9118 N   0  0  0  0  0  0  0  0  0  0  0  0
   21.3657  -21.2077  -13.3111 C   0  0  0  0  0  0  0  0  0  0  0  0
   21.7899  -21.1558  -12.1367 O   0  0  0  0  0  0  0  0  0  0  0  0
   20.0916  -20.7792  -13.6024 O   0  0  0  0  0  0  0  0  0  0  0  0
  2  5  1  0
  2  1  1  6
  3  2  1  0
  4  3  1  0
  5  6  2  0
  7  8  1  0
  7  5  1  0
  9 10  1  0
  8  9  1  1
 10 11  2  0
 11 12  1  0
 13 12  2  0
 14 13  1  0
 15 14  2  0
 15 10  1  0
 16  8  1  0
 16 17  2  0
 18 19  1  0
 20 19  1  1
 20 22  1  0
 21 20  1  0
 21 16  1  0
 22 23  2  0
 22 24  1  0
M  END
$$$$
