CFS.pdb
     RDKit          3D

 24 24  0  0  1  0  0  0  0  0999 V2000
   23.9411  -12.1999  -18.6216 N   0  0  0  0  0  0  0  0  0  0  0  0
   23.2735  -11.0150  -19.0536 C   0  0  1  0  0  0  0  0  0  0  0  0
   21.9433  -11.3134  -19.7208 C   0  0  0  0  0  0  0  0  0  0  0  0
   22.2692  -12.0334  -21.3513 S   0  0  0  0  0  0  0  0  0  0  0  0
   23.0354  -10.0416  -17.9607 C   0  0  0  0  0  0  0  0  0  0  0  0
   22.4623  -10.4603  -16.9242 O   0  0  0  0  0  0  0  0  0  0  0  0
   23.4355   -8.6868  -18.0712 N   0  0  0  0  0  0  0  0  0  0  0  0
   23.3577   -7.7483  -16.9613 C   0  0  1  0  0  0  0  0  0  0  0  0
   24.6936   -7.1917  -16.6083 C   0  0  0  0  0  0  0  0  0  0  0  0
   25.6464   -8.2644  -16.2566 C   0  0  0  0  0  0  0  0  0  0  0  0
   26.7264   -8.5560  -17.0936 C   0  0  0  0  0  0  0  0  0  0  0  0
   27.6196   -9.5325  -16.7567 C   0  0  0  0  0  0  0  0  0  0  0  0
   27.5165  -10.2698  -15.6058 C   0  0  0  0  0  0  0  0  0  0  0  0
   26.4562   -9.9891  -14.7758 C   0  0  0  0  0  0  0  0  0  0  0  0
   25.5588   -9.0191  -15.0983 C   0  0  0  0  0  0  0  0  0  0  0  0
   22.4434   -6.6519  -17.3548 C   0  0  0  0  0  0  0  0  0  0  0  0
   22.6211   -5.8920  -18.3437 O   0  0  0  0  0  0  0  0  0  0  0  0
   18.6381   -6.4063  -15.7614 O   0  0  0  0  0  0  0  0  0  0  0  0
   18.9138   -5.8342  -16.9878 C   0  0  0  0  0  0  0  0  0  0  0  0
   20.3367   -5.3140  -16.9885 C   0  0  2  0  0  0  0  0  0  0  0  0
   21.2465   -6.3723  -16.6049 N   0  0  0  0  0  0  0  0  0  0  0  0
   20.4722   -4.1609  -16.0735 C   0  0  0  0  0  0  0  0  0  0  0  0
   21.2201   -4.2250  -15.0744 O   0  0  0  0  0  0  0  0  0  0  0  0
   19.7650   -3.0098  -16.3314 O   0  0  0  0  0  0  0  0  0  0  0  0
  2  5  1  0
  2  1  1  1
  3  2  1  0
  4  3  1  0
  5  6  2  0
  7  8  1  0
  7  5  1  0
  9 10  1  0
  8  9  1  6
 10 11  2  0
 11 12  1  0
 13 12  2  0
 14 13  1  0
 15 14  2  0
 15 10  1  0
 16  8  1  0
 16 17  2  0
 18 19  1  0
 20 19  1  1
 20 22  1  0
 21 20  1  0
 21 16  1  0
 22 23  2  0
 22 24  1  0
M  END
$$$$
