CFS.pdb
     RDKit          3D

 24 24  0  0  1  0  0  0  0  0999 V2000
   28.7789  -20.7783  -14.6408 N   0  0  0  0  0  0  0  0  0  0  0  0
   27.7466  -19.9402  -14.1231 C   0  0  1  0  0  0  0  0  0  0  0  0
   27.1591  -19.0271  -15.1838 C   0  0  0  0  0  0  0  0  0  0  0  0
   28.3976  -17.7754  -15.6115 S   0  0  0  0  0  0  0  0  0  0  0  0
   26.6355  -20.6945  -13.4946 C   0  0  0  0  0  0  0  0  0  0  0  0
   26.3861  -21.8418  -13.9414 O   0  0  0  0  0  0  0  0  0  0  0  0
   25.8766  -20.1506  -12.4287 N   0  0  0  0  0  0  0  0  0  0  0  0
   24.8092  -20.8849  -11.7652 C   0  0  1  0  0  0  0  0  0  0  0  0
   24.5744  -20.3939  -10.3785 C   0  0  0  0  0  0  0  0  0  0  0  0
   25.7858  -20.5380   -9.5455 C   0  0  0  0  0  0  0  0  0  0  0  0
   26.0186  -19.6692   -8.4764 C   0  0  0  0  0  0  0  0  0  0  0  0
   27.1272  -19.8170   -7.6928 C   0  0  0  0  0  0  0  0  0  0  0  0
   28.0582  -20.8016   -7.8995 C   0  0  0  0  0  0  0  0  0  0  0  0
   27.8367  -21.6616   -8.9499 C   0  0  0  0  0  0  0  0  0  0  0  0
   26.7368  -21.5265   -9.7387 C   0  0  0  0  0  0  0  0  0  0  0  0
   23.5773  -20.7256  -12.5712 C   0  0  0  0  0  0  0  0  0  0  0  0
   23.1646  -19.6312  -13.0392 O   0  0  0  0  0  0  0  0  0  0  0  0
   21.2244  -24.0553  -13.5646 O   0  0  0  0  0  0  0  0  0  0  0  0
   21.3323  -23.0229  -14.4756 C   0  0  0  0  0  0  0  0  0  0  0  0
   21.5738  -21.7244  -13.7336 C   0  0  2  0  0  0  0  0  0  0  0  0
   22.7389  -21.8535  -12.8845 N   0  0  0  0  0  0  0  0  0  0  0  0
   20.3895  -21.3529  -12.9307 C   0  0  0  0  0  0  0  0  0  0  0  0
   20.4776  -21.2147  -11.6918 O   0  0  0  0  0  0  0  0  0  0  0  0
   19.1824  -21.1592  -13.5609 O   0  0  0  0  0  0  0  0  0  0  0  0
  2  5  1  0
  2  1  1  6
  3  2  1  0
  4  3  1  0
  5  6  2  0
  7  8  1  0
  7  5  1  0
  9 10  1  0
  8  9  1  1
 10 11  2  0
 11 12  1  0
 13 12  2  0
 14 13  1  0
 15 14  2  0
 15 10  1  0
 16  8  1  0
 16 17  2  0
 18 19  1  0
 20 19  1  1
 20 22  1  0
 21 20  1  0
 21 16  1  0
 22 23  2  0
 22 24  1  0
M  END
$$$$
