CFS.pdb
     RDKit          3D

 24 24  0  0  1  0  0  0  0  0999 V2000
   20.9323  -10.9010  -18.1493 N   0  0  0  0  0  0  0  0  0  0  0  0
   20.9153   -9.5262  -18.5311 C   0  0  1  0  0  0  0  0  0  0  0  0
   19.7881   -9.2100  -19.4971 C   0  0  0  0  0  0  0  0  0  0  0  0
   20.2186   -9.8885  -21.1212 S   0  0  0  0  0  0  0  0  0  0  0  0
   20.8133   -8.5967  -17.3804 C   0  0  0  0  0  0  0  0  0  0  0  0
   19.9784   -8.8722  -16.4830 O   0  0  0  0  0  0  0  0  0  0  0  0
   21.6229   -7.4376  -17.2865 N   0  0  0  0  0  0  0  0  0  0  0  0
   21.5002   -6.4754  -16.2012 C   0  0  1  0  0  0  0  0  0  0  0  0
   22.7794   -6.3108  -15.4559 C   0  0  0  0  0  0  0  0  0  0  0  0
   23.2446   -7.5967  -14.8971 C   0  0  0  0  0  0  0  0  0  0  0  0
   22.6418   -8.1338  -13.7568 C   0  0  0  0  0  0  0  0  0  0  0  0
   23.0572   -9.3335  -13.2539 C   0  0  0  0  0  0  0  0  0  0  0  0
   24.0658  -10.0685  -13.8208 C   0  0  0  0  0  0  0  0  0  0  0  0
   24.6647   -9.5471  -14.9440 C   0  0  0  0  0  0  0  0  0  0  0  0
   24.2613   -8.3533  -15.4562 C   0  0  0  0  0  0  0  0  0  0  0  0
   21.0877   -5.1790  -16.7861 C   0  0  0  0  0  0  0  0  0  0  0  0
   21.4005   -4.7826  -17.9402 O   0  0  0  0  0  0  0  0  0  0  0  0
   18.1343   -2.4713  -18.3747 O   0  0  0  0  0  0  0  0  0  0  0  0
   18.7642   -3.5665  -17.8171 C   0  0  0  0  0  0  0  0  0  0  0  0
   19.6535   -3.1068  -16.6800 C   0  0  2  0  0  0  0  0  0  0  0  0
   20.2714   -4.2519  -16.0462 N   0  0  0  0  0  0  0  0  0  0  0  0
   18.8779   -2.3271  -15.6922 C   0  0  0  0  0  0  0  0  0  0  0  0
   18.1647   -2.9040  -14.8435 O   0  0  0  0  0  0  0  0  0  0  0  0
   18.9473   -0.9536  -15.7140 O   0  0  0  0  0  0  0  0  0  0  0  0
  2  5  1  0
  2  1  1  1
  3  2  1  0
  4  3  1  0
  5  6  2  0
  7  8  1  0
  7  5  1  0
  9 10  1  0
  8  9  1  6
 10 11  2  0
 11 12  1  0
 13 12  2  0
 14 13  1  0
 15 14  2  0
 15 10  1  0
 16  8  1  0
 16 17  2  0
 18 19  1  0
 20 19  1  6
 20 22  1  0
 21 20  1  0
 21 16  1  0
 22 23  2  0
 22 24  1  0
M  END
$$$$
