CFS.pdb
     RDKit          3D

 24 24  0  0  1  0  0  0  0  0999 V2000
   18.0295  -13.8147  -18.1458 N   0  0  0  0  0  0  0  0  0  0  0  0
   18.4478  -12.4958  -18.4946 C   0  0  1  0  0  0  0  0  0  0  0  0
   17.2969  -11.5062  -18.4917 C   0  0  0  0  0  0  0  0  0  0  0  0
   16.1473  -11.9613  -19.8164 S   0  0  0  0  0  0  0  0  0  0  0  0
   19.5168  -11.9651  -17.6148 C   0  0  0  0  0  0  0  0  0  0  0  0
   19.3839  -12.1269  -16.3761 O   0  0  0  0  0  0  0  0  0  0  0  0
   20.6509  -11.2983  -18.1414 N   0  0  0  0  0  0  0  0  0  0  0  0
   21.7595  -10.8513  -17.3107 C   0  0  1  0  0  0  0  0  0  0  0  0
   23.0714  -11.0190  -17.9961 C   0  0  0  0  0  0  0  0  0  0  0  0
   24.1922  -10.6447  -17.1096 C   0  0  0  0  0  0  0  0  0  0  0  0
   24.8788   -9.4435  -17.3033 C   0  0  0  0  0  0  0  0  0  0  0  0
   25.9001   -9.0875  -16.4695 C   0  0  0  0  0  0  0  0  0  0  0  0
   26.3063   -9.8656  -15.4167 C   0  0  0  0  0  0  0  0  0  0  0  0
   25.6355  -11.0500  -15.2186 C   0  0  0  0  0  0  0  0  0  0  0  0
   24.6162  -11.4175  -16.0410 C   0  0  0  0  0  0  0  0  0  0  0  0
   21.5393   -9.4233  -16.9868 C   0  0  0  0  0  0  0  0  0  0  0  0
   21.3163   -8.5223  -17.8386 O   0  0  0  0  0  0  0  0  0  0  0  0
   20.7642   -8.4855  -13.1646 O   0  0  0  0  0  0  0  0  0  0  0  0
   20.3543   -7.5346  -14.0784 C   0  0  0  0  0  0  0  0  0  0  0  0
   21.2648   -7.5786  -15.2885 C   0  0  2  0  0  0  0  0  0  0  0  0
   21.5666   -8.9533  -15.6261 N   0  0  0  0  0  0  0  0  0  0  0  0
   22.5107   -6.8252  -15.0329 C   0  0  0  0  0  0  0  0  0  0  0  0
   23.6192   -7.4020  -15.0517 O   0  0  0  0  0  0  0  0  0  0  0  0
   22.4408   -5.4764  -14.7728 O   0  0  0  0  0  0  0  0  0  0  0  0
  2  5  1  0
  2  1  1  1
  3  2  1  0
  4  3  1  0
  5  6  2  0
  7  8  1  0
  7  5  1  0
  9 10  1  0
  8  9  1  6
 10 11  2  0
 11 12  1  0
 13 12  2  0
 14 13  1  0
 15 14  2  0
 15 10  1  0
 16  8  1  0
 16 17  2  0
 18 19  1  0
 20 19  1  1
 20 22  1  0
 21 20  1  0
 21 16  1  0
 22 23  2  0
 22 24  1  0
M  END
$$$$
