CFS.pdb
     RDKit          3D

 24 24  0  0  1  0  0  0  0  0999 V2000
   29.4574  -21.9627  -18.6473 N   0  0  0  0  0  0  0  0  0  0  0  0
   28.6780  -20.8955  -18.1091 C   0  0  1  0  0  0  0  0  0  0  0  0
   27.6591  -20.3677  -19.1026 C   0  0  0  0  0  0  0  0  0  0  0  0
   28.5400  -19.8118  -20.5853 S   0  0  0  0  0  0  0  0  0  0  0  0
   27.9632  -21.2592  -16.8619 C   0  0  0  0  0  0  0  0  0  0  0  0
   27.5557  -22.4422  -16.7494 O   0  0  0  0  0  0  0  0  0  0  0  0
   27.7424  -20.3148  -15.8288 N   0  0  0  0  0  0  0  0  0  0  0  0
   27.0334  -20.6410  -14.6001 C   0  0  1  0  0  0  0  0  0  0  0  0
   27.4302  -19.7492  -13.4749 C   0  0  0  0  0  0  0  0  0  0  0  0
   26.7669  -20.1455  -12.2159 C   0  0  0  0  0  0  0  0  0  0  0  0
   27.3021  -21.1632  -11.4223 C   0  0  0  0  0  0  0  0  0  0  0  0
   26.7010  -21.5136  -10.2473 C   0  0  0  0  0  0  0  0  0  0  0  0
   25.5638  -20.9051   -9.7832 C   0  0  0  0  0  0  0  0  0  0  0  0
   25.0302  -19.9018  -10.5583 C   0  0  0  0  0  0  0  0  0  0  0  0
   25.6182  -19.5420  -11.7309 C   0  0  0  0  0  0  0  0  0  0  0  0
   25.5821  -20.5062  -14.8619 C   0  0  0  0  0  0  0  0  0  0  0  0
   25.0276  -19.4628  -15.2986 O   0  0  0  0  0  0  0  0  0  0  0  0
   23.0527  -23.6967  -14.0852 O   0  0  0  0  0  0  0  0  0  0  0  0
   22.6701  -22.8681  -15.1218 C   0  0  0  0  0  0  0  0  0  0  0  0
   23.2598  -21.4897  -14.9038 C   0  0  2  0  0  0  0  0  0  0  0  0
   24.6759  -21.5998  -14.6257 N   0  0  0  0  0  0  0  0  0  0  0  0
   22.5695  -20.7949  -13.7965 C   0  0  0  0  0  0  0  0  0  0  0  0
   23.1844  -20.4958  -12.7505 O   0  0  0  0  0  0  0  0  0  0  0  0
   21.2375  -20.4779  -13.9267 O   0  0  0  0  0  0  0  0  0  0  0  0
  2  5  1  0
  2  1  1  6
  3  2  1  0
  4  3  1  0
  5  6  2  0
  7  8  1  0
  7  5  1  0
  9 10  1  0
  8  9  1  1
 10 11  2  0
 11 12  1  0
 13 12  2  0
 14 13  1  0
 15 14  2  0
 15 10  1  0
 16  8  1  0
 16 17  2  0
 18 19  1  0
 20 19  1  1
 20 22  1  0
 21 20  1  0
 21 16  1  0
 22 23  2  0
 22 24  1  0
M  END
$$$$
