IGE.pdb
     RDKit          3D

 22 21  0  0  1  0  0  0  0  0999 V2000
    9.1173  -12.7331   27.1684 C   0  0  0  0  0  0  0  0  0  0  0  0
    7.9515  -13.5761   26.7400 C   0  0  0  0  0  0  0  0  0  0  0  0
    7.1125  -12.8183   25.7007 C   0  0  2  0  0  0  0  0  0  0  0  0
    6.6113  -11.5882   26.3762 C   0  0  0  0  0  0  0  0  0  0  0  0
    6.0314  -13.7908   25.2806 C   0  0  2  0  0  0  0  0  0  0  0  0
    5.4565  -14.2892   26.5351 N   0  0  0  0  0  0  0  0  0  0  0  0
    6.5081  -14.9067   24.4591 C   0  0  0  0  0  0  0  0  0  0  0  0
    6.9479  -14.6628   23.2928 O   0  0  0  0  0  0  0  0  0  0  0  0
    6.5147  -16.2562   24.8770 N   0  0  0  0  0  0  0  0  0  0  0  0
    6.9574  -17.2761   23.9650 C   0  0  0  0  0  0  0  0  0  0  0  0
    8.2570  -17.8734   24.3923 C   0  0  0  0  0  0  0  0  0  0  0  0
    8.4412  -19.1141   24.3022 O   0  0  0  0  0  0  0  0  0  0  0  0
    9.3141  -17.0833   24.9061 N   0  0  0  0  0  0  0  0  0  0  0  0
   10.6658  -17.6026   25.0957 C   0  0  1  0  0  0  0  0  0  0  0  0
   11.5811  -16.6821   24.2965 C   0  0  0  0  0  0  0  0  0  0  0  0
   13.0031  -17.1263   24.5481 C   0  0  0  0  0  0  0  0  0  0  0  0
   13.9129  -16.5909   23.4970 C   0  0  0  0  0  0  0  0  0  0  0  0
   13.6383  -15.5524   22.8242 O   0  0  0  0  0  0  0  0  0  0  0  0
   11.0313  -17.6422   26.5152 C   0  0  0  0  0  0  0  0  0  0  0  0
   12.0803  -18.4189   26.9507 O   0  0  0  0  0  0  0  0  0  0  0  0
   15.1017  -17.2358   23.2325 O   0  0  0  0  0  0  0  0  0  0  0  0
   10.3856  -16.9647   27.3418 O   0  0  0  0  0  0  0  0  0  0  0  0
  2  3  1  0
  2  1  1  0
  3  5  1  0
  3  4  1  1
  5  7  1  0
  5  6  1  1
  7  8  2  0
  9 10  1  0
  9  7  1  0
 10 11  1  0
 11 12  2  0
 11 13  1  0
 13 14  1  0
 14 15  1  6
 15 16  1  0
 17 21  1  0
 17 16  1  0
 18 17  2  0
 19 20  1  0
 19 14  1  0
 22 19  2  0
M  END
$$$$
