IGE.pdb
     RDKit          3D

 22 21  0  0  1  0  0  0  0  0999 V2000
    6.9478  -11.4156   27.6954 C   0  0  0  0  0  0  0  0  0  0  0  0
    6.2308  -12.4594   26.8894 C   0  0  0  0  0  0  0  0  0  0  0  0
    7.2372  -13.2387   26.0301 C   0  0  2  0  0  0  0  0  0  0  0  0
    7.9932  -12.2262   25.2402 C   0  0  0  0  0  0  0  0  0  0  0  0
    6.3978  -14.1861   25.2002 C   0  0  2  0  0  0  0  0  0  0  0  0
    5.7943  -15.1098   26.1672 N   0  0  0  0  0  0  0  0  0  0  0  0
    7.1498  -14.9293   24.1856 C   0  0  0  0  0  0  0  0  0  0  0  0
    7.7421  -14.2816   23.2675 O   0  0  0  0  0  0  0  0  0  0  0  0
    7.2662  -16.3368   24.1540 N   0  0  0  0  0  0  0  0  0  0  0  0
    8.0329  -16.9590   23.1085 C   0  0  0  0  0  0  0  0  0  0  0  0
    9.0838  -17.8654   23.6584 C   0  0  0  0  0  0  0  0  0  0  0  0
    9.0578  -19.0948   23.3947 O   0  0  0  0  0  0  0  0  0  0  0  0
   10.1317  -17.3877   24.4826 N   0  0  0  0  0  0  0  0  0  0  0  0
   11.1689  -18.2615   25.0244 C   0  0  1  0  0  0  0  0  0  0  0  0
   12.4139  -17.9997   24.1849 C   0  0  0  0  0  0  0  0  0  0  0  0
   12.8035  -16.5543   24.3895 C   0  0  0  0  0  0  0  0  0  0  0  0
   14.0239  -16.2241   23.6017 C   0  0  0  0  0  0  0  0  0  0  0  0
   14.6220  -17.0801   22.8832 O   0  0  0  0  0  0  0  0  0  0  0  0
   11.4020  -17.9990   26.4481 C   0  0  0  0  0  0  0  0  0  0  0  0
   10.7672  -16.9577   27.0853 O   0  0  0  0  0  0  0  0  0  0  0  0
   14.5361  -14.9454   23.6435 O   0  0  0  0  0  0  0  0  0  0  0  0
   12.1850  -18.7267   27.0936 O   0  0  0  0  0  0  0  0  0  0  0  0
  2  3  1  0
  2  1  1  0
  3  5  1  0
  3  4  1  6
  5  7  1  0
  5  6  1  1
  7  8  2  0
  9 10  1  0
  9  7  1  0
 10 11  1  0
 11 12  2  0
 11 13  1  0
 13 14  1  0
 14 15  1  6
 15 16  1  0
 17 21  1  0
 17 16  1  0
 18 17  2  0
 19 20  1  0
 19 14  1  0
 22 19  2  0
M  END
$$$$
