IGE.pdb
     RDKit          3D

 22 21  0  0  1  0  0  0  0  0999 V2000
    6.2893  -10.8279   26.1591 C   0  0  0  0  0  0  0  0  0  0  0  0
    7.2021  -11.8312   25.5162 C   0  0  0  0  0  0  0  0  0  0  0  0
    6.6606  -13.2505   25.7418 C   0  0  2  0  0  0  0  0  0  0  0  0
    6.6232  -13.4602   27.2167 C   0  0  0  0  0  0  0  0  0  0  0  0
    7.6162  -14.1604   25.0004 C   0  0  2  0  0  0  0  0  0  0  0  0
    7.7137  -13.5946   23.6503 N   0  0  0  0  0  0  0  0  0  0  0  0
    7.1906  -15.5612   24.9370 C   0  0  0  0  0  0  0  0  0  0  0  0
    6.7548  -16.0182   23.8350 O   0  0  0  0  0  0  0  0  0  0  0  0
    7.2310  -16.4552   26.0300 N   0  0  0  0  0  0  0  0  0  0  0  0
    7.0468  -17.8625   25.7989 C   0  0  0  0  0  0  0  0  0  0  0  0
    8.2935  -18.6358   26.0749 C   0  0  0  0  0  0  0  0  0  0  0  0
    8.2274  -19.7629   26.6289 O   0  0  0  0  0  0  0  0  0  0  0  0
    9.5755  -18.1420   25.7311 N   0  0  0  0  0  0  0  0  0  0  0  0
   10.8109  -18.8053   26.1391 C   0  0  1  0  0  0  0  0  0  0  0  0
   11.9447  -17.9543   25.5787 C   0  0  0  0  0  0  0  0  0  0  0  0
   11.7180  -17.8190   24.0911 C   0  0  0  0  0  0  0  0  0  0  0  0
   12.7021  -16.8727   23.4952 C   0  0  0  0  0  0  0  0  0  0  0  0
   13.5934  -16.2938   24.1859 O   0  0  0  0  0  0  0  0  0  0  0  0
   10.8930  -18.9373   27.5972 C   0  0  0  0  0  0  0  0  0  0  0  0
   10.2859  -18.0190   28.4226 O   0  0  0  0  0  0  0  0  0  0  0  0
   12.6569  -16.6046   22.1442 O   0  0  0  0  0  0  0  0  0  0  0  0
   11.5202  -19.8929   28.0998 O   0  0  0  0  0  0  0  0  0  0  0  0
  2  3  1  0
  2  1  1  0
  3  5  1  0
  3  4  1  1
  5  7  1  0
  5  6  1  6
  7  8  2  0
  9 10  1  0
  9  7  1  0
 10 11  1  0
 11 12  2  0
 11 13  1  0
 13 14  1  0
 14 15  1  1
 15 16  1  0
 17 21  1  0
 17 16  1  0
 18 17  2  0
 19 20  1  0
 19 14  1  0
 22 19  2  0
M  END
$$$$
