IGE.pdb
     RDKit          3D

 22 21  0  0  1  0  0  0  0  0999 V2000
    7.3627  -11.5858   27.1700 C   0  0  0  0  0  0  0  0  0  0  0  0
    7.5764  -13.0569   26.9618 C   0  0  0  0  0  0  0  0  0  0  0  0
    6.7328  -13.5447   25.7749 C   0  0  2  0  0  0  0  0  0  0  0  0
    5.3065  -13.4081   26.1844 C   0  0  0  0  0  0  0  0  0  0  0  0
    7.1836  -14.9685   25.5286 C   0  0  2  0  0  0  0  0  0  0  0  0
    7.0533  -15.6410   26.8260 N   0  0  0  0  0  0  0  0  0  0  0  0
    8.5548  -15.0901   25.0264 C   0  0  0  0  0  0  0  0  0  0  0  0
    9.5151  -15.0563   25.8570 O   0  0  0  0  0  0  0  0  0  0  0  0
    8.8919  -15.2454   23.6633 N   0  0  0  0  0  0  0  0  0  0  0  0
   10.2702  -15.1589   23.2621 C   0  0  0  0  0  0  0  0  0  0  0  0
   11.0582  -16.3355   23.7343 C   0  0  0  0  0  0  0  0  0  0  0  0
   10.4694  -17.3910   24.0820 O   0  0  0  0  0  0  0  0  0  0  0  0
   12.4723  -16.3118   23.8087 N   0  0  0  0  0  0  0  0  0  0  0  0
   13.2576  -17.4615   24.2490 C   0  0  1  0  0  0  0  0  0  0  0  0
   14.7123  -17.1051   23.9653 C   0  0  0  0  0  0  0  0  0  0  0  0
   14.7868  -16.6011   22.5429 C   0  0  0  0  0  0  0  0  0  0  0  0
   16.1882  -16.2424   22.1870 C   0  0  0  0  0  0  0  0  0  0  0  0
   16.8429  -16.8606   21.2949 O   0  0  0  0  0  0  0  0  0  0  0  0
   13.0312  -17.7544   25.6679 C   0  0  0  0  0  0  0  0  0  0  0  0
   12.3708  -16.8572   26.4754 O   0  0  0  0  0  0  0  0  0  0  0  0
   16.8122  -15.2026   22.8416 O   0  0  0  0  0  0  0  0  0  0  0  0
   13.4410  -18.8296   26.1531 O   0  0  0  0  0  0  0  0  0  0  0  0
  2  3  1  0
  2  1  1  0
  3  5  1  0
  3  4  1  1
  5  7  1  0
  5  6  1  1
  7  8  2  0
  9 10  1  0
  9  7  1  0
 10 11  1  0
 11 12  2  0
 11 13  1  0
 13 14  1  0
 14 15  1  1
 15 16  1  0
 17 21  1  0
 17 16  1  0
 18 17  2  0
 19 20  1  0
 19 14  1  0
 22 19  2  0
M  END
$$$$
