IGE.pdb
     RDKit          3D

 22 21  0  0  1  0  0  0  0  0999 V2000
    7.2810  -12.3365   19.8987 C   0  0  0  0  0  0  0  0  0  0  0  0
    7.6812  -13.7467   19.5756 C   0  0  0  0  0  0  0  0  0  0  0  0
    7.8041  -14.5647   20.8696 C   0  0  2  0  0  0  0  0  0  0  0  0
    8.9285  -13.9668   21.6434 C   0  0  0  0  0  0  0  0  0  0  0  0
    8.0394  -15.9893   20.4156 C   0  0  2  0  0  0  0  0  0  0  0  0
    7.0067  -16.2444   19.4052 N   0  0  0  0  0  0  0  0  0  0  0  0
    7.9620  -16.9858   21.4871 C   0  0  0  0  0  0  0  0  0  0  0  0
    6.9822  -16.9406   22.2941 O   0  0  0  0  0  0  0  0  0  0  0  0
    8.9130  -18.0103   21.6910 N   0  0  0  0  0  0  0  0  0  0  0  0
    8.8542  -18.8004   22.8910 C   0  0  0  0  0  0  0  0  0  0  0  0
   10.1344  -18.7395   23.6563 C   0  0  0  0  0  0  0  0  0  0  0  0
   10.3141  -19.4932   24.6467 O   0  0  0  0  0  0  0  0  0  0  0  0
   11.1778  -17.8485   23.3053 N   0  0  0  0  0  0  0  0  0  0  0  0
   12.4100  -17.7335   24.0805 C   0  0  1  0  0  0  0  0  0  0  0  0
   13.2083  -16.6101   23.4290 C   0  0  0  0  0  0  0  0  0  0  0  0
   14.0666  -17.2296   22.3509 C   0  0  0  0  0  0  0  0  0  0  0  0
   14.8462  -16.1813   21.6351 C   0  0  0  0  0  0  0  0  0  0  0  0
   14.2920  -15.2108   21.0371 O   0  0  0  0  0  0  0  0  0  0  0  0
   12.1314  -17.4602   25.4940 C   0  0  0  0  0  0  0  0  0  0  0  0
   10.8800  -17.0568   25.8997 O   0  0  0  0  0  0  0  0  0  0  0  0
   16.2222  -16.2531   21.6116 O   0  0  0  0  0  0  0  0  0  0  0  0
   13.0375  -17.5939   26.3427 O   0  0  0  0  0  0  0  0  0  0  0  0
  2  3  1  0
  2  1  1  0
  3  5  1  0
  3  4  1  1
  5  7  1  0
  5  6  1  6
  7  8  2  0
  9 10  1  0
  9  7  1  0
 10 11  1  0
 11 12  2  0
 11 13  1  0
 13 14  1  0
 14 15  1  6
 15 16  1  0
 17 21  1  0
 17 16  1  0
 18 17  2  0
 19 20  1  0
 19 14  1  0
 22 19  2  0
M  END
$$$$
