IGE.pdb
     RDKit          3D

 22 21  0  0  1  0  0  0  0  0999 V2000
    7.7529  -11.4133   26.4622 C   0  0  0  0  0  0  0  0  0  0  0  0
    7.6893  -12.9079   26.3374 C   0  0  0  0  0  0  0  0  0  0  0  0
    6.3495  -13.3236   25.7125 C   0  0  2  0  0  0  0  0  0  0  0  0
    5.2922  -12.9643   26.6992 C   0  0  0  0  0  0  0  0  0  0  0  0
    6.4822  -14.8073   25.4441 C   0  0  2  0  0  0  0  0  0  0  0  0
    7.1309  -15.3559   26.6402 N   0  0  0  0  0  0  0  0  0  0  0  0
    7.2584  -15.1378   24.2459 C   0  0  0  0  0  0  0  0  0  0  0  0
    6.8752  -16.1049   23.5170 O   0  0  0  0  0  0  0  0  0  0  0  0
    8.4204  -14.4474   23.8352 N   0  0  0  0  0  0  0  0  0  0  0  0
    9.1003  -14.8589   22.6368 C   0  0  0  0  0  0  0  0  0  0  0  0
   10.2824  -15.7188   22.9395 C   0  0  0  0  0  0  0  0  0  0  0  0
   11.1094  -15.9963   22.0337 O   0  0  0  0  0  0  0  0  0  0  0  0
   10.5160  -16.2466   24.2328 N   0  0  0  0  0  0  0  0  0  0  0  0
   11.7557  -16.9290   24.5933 C   0  0  1  0  0  0  0  0  0  0  0  0
   11.7204  -17.0828   26.1094 C   0  0  0  0  0  0  0  0  0  0  0  0
   11.1141  -15.8218   26.6794 C   0  0  0  0  0  0  0  0  0  0  0  0
   10.9224  -15.9515   28.1510 C   0  0  0  0  0  0  0  0  0  0  0  0
   11.4569  -15.1549   28.9795 O   0  0  0  0  0  0  0  0  0  0  0  0
   11.8737  -18.2227   23.9131 C   0  0  0  0  0  0  0  0  0  0  0  0
   13.1052  -18.8017   23.7101 O   0  0  0  0  0  0  0  0  0  0  0  0
   10.1380  -16.9696   28.6483 O   0  0  0  0  0  0  0  0  0  0  0  0
   10.8469  -18.8092   23.5119 O   0  0  0  0  0  0  0  0  0  0  0  0
  2  3  1  0
  2  1  1  0
  3  5  1  0
  3  4  1  1
  5  7  1  0
  5  6  1  1
  7  8  2  0
  9 10  1  0
  9  7  1  0
 10 11  1  0
 11 12  2  0
 11 13  1  0
 13 14  1  0
 14 15  1  1
 15 16  1  0
 17 21  1  0
 17 16  1  0
 18 17  2  0
 19 20  1  0
 19 14  1  0
 22 19  2  0
M  END
$$$$
