IGE.pdb
     RDKit          3D

 22 21  0  0  1  0  0  0  0  0999 V2000
    7.5932  -11.4506   27.2116 C   0  0  0  0  0  0  0  0  0  0  0  0
    7.5457  -12.9080   26.8553 C   0  0  0  0  0  0  0  0  0  0  0  0
    6.5381  -13.1357   25.7190 C   0  0  2  0  0  0  0  0  0  0  0  0
    5.1896  -12.8497   26.2849 C   0  0  0  0  0  0  0  0  0  0  0  0
    6.7481  -14.5710   25.2866 C   0  0  2  0  0  0  0  0  0  0  0  0
    6.7751  -15.3458   26.5322 N   0  0  0  0  0  0  0  0  0  0  0  0
    7.9751  -14.7976   24.5182 C   0  0  0  0  0  0  0  0  0  0  0  0
    9.0829  -14.8502   25.1373 O   0  0  0  0  0  0  0  0  0  0  0  0
    8.0162  -14.9650   23.1162 N   0  0  0  0  0  0  0  0  0  0  0  0
    9.2837  -15.1562   22.4643 C   0  0  0  0  0  0  0  0  0  0  0  0
    9.9799  -16.3809   22.9581 C   0  0  0  0  0  0  0  0  0  0  0  0
    9.4426  -17.5099   22.8236 O   0  0  0  0  0  0  0  0  0  0  0  0
   11.2483  -16.3226   23.5854 N   0  0  0  0  0  0  0  0  0  0  0  0
   11.9583  -17.5151   24.0397 C   0  0  1  0  0  0  0  0  0  0  0  0
   13.3175  -17.4780   23.3507 C   0  0  0  0  0  0  0  0  0  0  0  0
   13.9324  -16.1271   23.6326 C   0  0  0  0  0  0  0  0  0  0  0  0
   15.3022  -16.0438   23.0530 C   0  0  0  0  0  0  0  0  0  0  0  0
   16.2574  -16.7724   23.4573 O   0  0  0  0  0  0  0  0  0  0  0  0
   12.0842  -17.5409   25.5005 C   0  0  0  0  0  0  0  0  0  0  0  0
   12.5884  -18.6475   26.1443 O   0  0  0  0  0  0  0  0  0  0  0  0
   15.5590  -15.1470   22.0386 O   0  0  0  0  0  0  0  0  0  0  0  0
   11.7310  -16.5490   26.1718 O   0  0  0  0  0  0  0  0  0  0  0  0
  2  3  1  0
  2  1  1  0
  3  5  1  0
  3  4  1  1
  5  7  1  0
  5  6  1  1
  7  8  2  0
  9 10  1  0
  9  7  1  0
 10 11  1  0
 11 12  2  0
 11 13  1  0
 13 14  1  0
 14 15  1  6
 15 16  1  0
 17 21  1  0
 17 16  1  0
 18 17  2  0
 19 20  1  0
 19 14  1  0
 22 19  2  0
M  END
$$$$
