IGE.pdb
     RDKit          3D

 22 21  0  0  1  0  0  0  0  0999 V2000
    7.1765  -11.0131   27.3420 C   0  0  0  0  0  0  0  0  0  0  0  0
    6.7566  -12.4196   27.0274 C   0  0  0  0  0  0  0  0  0  0  0  0
    7.2871  -12.8265   25.6449 C   0  0  2  0  0  0  0  0  0  0  0  0
    6.6946  -11.8717   24.6660 C   0  0  0  0  0  0  0  0  0  0  0  0
    6.8531  -14.2651   25.4630 C   0  0  2  0  0  0  0  0  0  0  0  0
    7.4465  -14.9895   26.5924 N   0  0  0  0  0  0  0  0  0  0  0  0
    7.2718  -14.8670   24.1942 C   0  0  0  0  0  0  0  0  0  0  0  0
    6.5038  -14.7672   23.1875 O   0  0  0  0  0  0  0  0  0  0  0  0
    8.4877  -15.5611   24.0060 N   0  0  0  0  0  0  0  0  0  0  0  0
    8.8624  -15.9840   22.6836 C   0  0  0  0  0  0  0  0  0  0  0  0
   10.2012  -16.6442   22.6731 C   0  0  0  0  0  0  0  0  0  0  0  0
   10.6077  -17.2302   21.6373 O   0  0  0  0  0  0  0  0  0  0  0  0
   11.0509  -16.6379   23.8061 N   0  0  0  0  0  0  0  0  0  0  0  0
   11.9183  -17.7623   24.1468 C   0  0  1  0  0  0  0  0  0  0  0  0
   13.3126  -17.1729   24.3260 C   0  0  0  0  0  0  0  0  0  0  0  0
   13.5191  -16.1546   23.2292 C   0  0  0  0  0  0  0  0  0  0  0  0
   14.8935  -15.5839   23.2962 C   0  0  0  0  0  0  0  0  0  0  0  0
   15.6015  -15.3918   22.2626 O   0  0  0  0  0  0  0  0  0  0  0  0
   11.4543  -18.4511   25.3554 C   0  0  0  0  0  0  0  0  0  0  0  0
   10.4455  -17.9194   26.1254 O   0  0  0  0  0  0  0  0  0  0  0  0
   15.4316  -15.2462   24.5192 O   0  0  0  0  0  0  0  0  0  0  0  0
   11.9781  -19.5330   25.6933 O   0  0  0  0  0  0  0  0  0  0  0  0
  2  3  1  0
  2  1  1  0
  3  5  1  0
  3  4  1  6
  5  7  1  0
  5  6  1  1
  7  8  2  0
  9 10  1  0
  9  7  1  0
 10 11  1  0
 11 12  2  0
 11 13  1  0
 13 14  1  0
 14 15  1  1
 15 16  1  0
 17 21  1  0
 17 16  1  0
 18 17  2  0
 19 20  1  0
 19 14  1  0
 22 19  2  0
M  END
$$$$
