FML.pdb
     RDKit          3D

 28 28  0  0  1  0  0  0  0  0999 V2000
   25.8076  -18.4147  -17.5293 N   0  0  0  0  0  0  0  0  0  0  0  0
   25.8571  -18.3701  -16.0693 C   0  0  1  0  0  0  0  0  0  0  0  0
   24.4831  -18.1669  -15.5275 C   0  0  0  0  0  0  0  0  0  0  0  0
   23.8520  -16.9036  -15.9013 C   0  0  0  0  0  0  0  0  0  0  0  0
   24.4906  -15.6966  -15.6022 C   0  0  0  0  0  0  0  0  0  0  0  0
   23.8917  -14.5128  -15.9714 C   0  0  0  0  0  0  0  0  0  0  0  0
   22.6664  -14.5288  -16.6336 C   0  0  0  0  0  0  0  0  0  0  0  0
   22.0233  -15.7186  -16.9358 C   0  0  0  0  0  0  0  0  0  0  0  0
   22.6392  -16.8939  -16.5578 C   0  0  0  0  0  0  0  0  0  0  0  0
   26.4231  -19.6272  -15.5467 C   0  0  0  0  0  0  0  0  0  0  0  0
   26.2836  -20.6814  -16.2015 O   0  0  0  0  0  0  0  0  0  0  0  0
   30.3341  -20.3485   -9.8425 C   0  0  0  0  0  0  0  0  0  0  0  0
   31.0406  -20.8256  -11.4246 S   0  0  0  0  0  0  0  0  0  0  0  0
   29.8124  -21.5836  -12.5176 C   0  0  0  0  0  0  0  0  0  0  0  0
   28.9736  -20.5433  -13.1256 C   0  0  0  0  0  0  0  0  0  0  0  0
   27.6617  -20.8746  -13.7109 C   0  0  2  0  0  0  0  0  0  0  0  0
   27.1115  -19.6263  -14.3214 N   0  0  0  0  0  0  0  0  0  0  0  0
   26.6027  -21.4141  -12.8934 C   0  0  0  0  0  0  0  0  0  0  0  0
   26.6190  -22.6239  -12.4435 O   0  0  0  0  0  0  0  0  0  0  0  0
   26.0739  -18.9655   -8.5873 C   0  0  0  0  0  0  0  0  0  0  0  0
   25.8841  -20.0684   -9.5490 C   0  0  1  0  0  0  0  0  0  0  0  0
   26.0131  -21.3761   -8.7254 C   0  0  0  0  0  0  0  0  0  0  0  0
   24.6859  -20.1533  -10.3592 C   0  0  0  0  0  0  0  0  0  0  0  0
   24.5506  -21.1775  -11.4485 C   0  0  2  0  0  0  0  0  0  0  0  0
   25.4680  -20.6726  -12.5029 N   0  0  0  0  0  0  0  0  0  0  0  0
   23.2493  -21.3307  -12.0507 C   0  0  0  0  0  0  0  0  0  0  0  0
   23.0514  -21.0110  -13.3857 O   0  0  0  0  0  0  0  0  0  0  0  0
   22.2637  -21.7407  -11.4236 O   0  0  0  0  0  0  0  0  0  0  0  0
  2  3  1  0
  2  1  1  6
  4  3  1  0
  4  5  2  0
  6  5  1  0
  7  6  2  0
  8  9  2  0
  8  7  1  0
  9  4  1  0
 10  2  1  0
 11 10  2  0
 13 12  1  0
 13 14  1  0
 16 15  1  1
 15 14  1  0
 16 17  1  0
 17 10  1  0
 18 25  1  0
 18 16  1  0
 19 18  2  0
 21 20  1  1
 21 23  1  0
 21 22  1  0
 24 23  1  1
 24 26  1  0
 24 25  1  0
 26 27  1  0
 28 26  2  0
M  END
$$$$
