FML.pdb
     RDKit          3D

 28 28  0  0  1  0  0  0  0  0999 V2000
   28.5432  -21.0352   -9.5604 N   0  0  0  0  0  0  0  0  0  0  0  0
   27.0930  -20.9336   -9.7111 C   0  0  1  0  0  0  0  0  0  0  0  0
   26.5593  -19.9239   -8.7528 C   0  0  0  0  0  0  0  0  0  0  0  0
   27.2231  -19.8954   -7.4518 C   0  0  0  0  0  0  0  0  0  0  0  0
   27.4274  -18.6724   -6.8066 C   0  0  0  0  0  0  0  0  0  0  0  0
   28.0426  -18.6598   -5.5746 C   0  0  0  0  0  0  0  0  0  0  0  0
   28.4518  -19.8551   -4.9880 C   0  0  0  0  0  0  0  0  0  0  0  0
   28.2549  -21.0739   -5.6174 C   0  0  0  0  0  0  0  0  0  0  0  0
   27.6370  -21.0658   -6.8509 C   0  0  0  0  0  0  0  0  0  0  0  0
   26.7571  -20.5429  -11.0924 C   0  0  0  0  0  0  0  0  0  0  0  0
   27.3029  -19.5387  -11.5955 O   0  0  0  0  0  0  0  0  0  0  0  0
   27.9280  -23.7880  -15.7226 C   0  0  0  0  0  0  0  0  0  0  0  0
   26.3747  -24.5176  -15.1892 S   0  0  0  0  0  0  0  0  0  0  0  0
   25.4564  -23.4248  -14.0755 C   0  0  0  0  0  0  0  0  0  0  0  0
   26.0596  -22.0862  -14.0781 C   0  0  0  0  0  0  0  0  0  0  0  0
   25.4984  -21.0014  -13.2525 C   0  0  2  0  0  0  0  0  0  0  0  0
   25.8295  -21.3020  -11.8264 N   0  0  0  0  0  0  0  0  0  0  0  0
   24.0860  -20.7093  -13.2766 C   0  0  0  0  0  0  0  0  0  0  0  0
   23.5562  -19.9080  -14.1389 O   0  0  0  0  0  0  0  0  0  0  0  0
   20.6558  -24.5708  -13.8066 C   0  0  0  0  0  0  0  0  0  0  0  0
   21.2329  -23.2135  -13.7596 C   0  0  1  0  0  0  0  0  0  0  0  0
   20.6080  -22.4454  -14.9530 C   0  0  0  0  0  0  0  0  0  0  0  0
   21.1117  -22.3924  -12.5720 C   0  0  0  0  0  0  0  0  0  0  0  0
   21.7033  -21.0139  -12.5118 C   0  0  2  0  0  0  0  0  0  0  0  0
   23.1596  -21.2768  -12.3768 N   0  0  0  0  0  0  0  0  0  0  0  0
   21.3146  -20.1780  -11.4029 C   0  0  0  0  0  0  0  0  0  0  0  0
   20.0375  -19.6403  -11.3429 O   0  0  0  0  0  0  0  0  0  0  0  0
   22.0812  -19.8990  -10.4717 O   0  0  0  0  0  0  0  0  0  0  0  0
  2  3  1  0
  2  1  1  6
  4  3  1  0
  4  5  2  0
  6  5  1  0
  7  6  2  0
  8  9  2  0
  8  7  1  0
  9  4  1  0
 10  2  1  0
 11 10  2  0
 13 12  1  0
 13 14  1  0
 16 15  1  6
 15 14  1  0
 16 17  1  0
 17 10  1  0
 18 25  1  0
 18 16  1  0
 19 18  2  0
 21 20  1  1
 21 23  1  0
 21 22  1  0
 24 23  1  1
 24 26  1  0
 24 25  1  0
 26 27  1  0
 28 26  2  0
M  END
$$$$
