FML.pdb
     RDKit          3D

 28 28  0  0  1  0  0  0  0  0999 V2000
   26.1267  -18.1665  -18.1184 N   0  0  0  0  0  0  0  0  0  0  0  0
   26.0361  -18.1657  -16.6596 C   0  0  1  0  0  0  0  0  0  0  0  0
   24.6353  -17.8687  -16.2449 C   0  0  0  0  0  0  0  0  0  0  0  0
   24.1170  -16.5800  -16.6971 C   0  0  0  0  0  0  0  0  0  0  0  0
   22.9684  -16.5374  -17.4927 C   0  0  0  0  0  0  0  0  0  0  0  0
   22.4821  -15.3157  -17.9017 C   0  0  0  0  0  0  0  0  0  0  0  0
   23.1333  -14.1442  -17.5225 C   0  0  0  0  0  0  0  0  0  0  0  0
   24.2726  -14.1731  -16.7341 C   0  0  0  0  0  0  0  0  0  0  0  0
   24.7443  -15.4066  -16.3344 C   0  0  0  0  0  0  0  0  0  0  0  0
   26.4504  -19.4776  -16.1294 C   0  0  0  0  0  0  0  0  0  0  0  0
   26.2988  -20.4986  -16.8323 O   0  0  0  0  0  0  0  0  0  0  0  0
   30.8412  -19.2880  -11.8965 C   0  0  0  0  0  0  0  0  0  0  0  0
   30.7251  -21.0789  -11.8028 S   0  0  0  0  0  0  0  0  0  0  0  0
   29.3012  -21.7175  -12.7207 C   0  0  0  0  0  0  0  0  0  0  0  0
   28.6440  -20.6249  -13.4487 C   0  0  0  0  0  0  0  0  0  0  0  0
   27.4213  -20.8675  -14.2358 C   0  0  2  0  0  0  0  0  0  0  0  0
   27.0098  -19.5653  -14.8431 N   0  0  0  0  0  0  0  0  0  0  0  0
   26.2361  -21.4049  -13.6135 C   0  0  0  0  0  0  0  0  0  0  0  0
   26.1363  -22.6424  -13.2605 O   0  0  0  0  0  0  0  0  0  0  0  0
   25.4126  -20.1205   -9.1273 C   0  0  0  0  0  0  0  0  0  0  0  0
   25.2623  -20.7908  -10.4333 C   0  0  1  0  0  0  0  0  0  0  0  0
   25.4612  -22.3040  -10.1587 C   0  0  0  0  0  0  0  0  0  0  0  0
   24.0598  -20.6225  -11.2238 C   0  0  0  0  0  0  0  0  0  0  0  0
   23.9373  -21.2192  -12.5960 C   0  0  2  0  0  0  0  0  0  0  0  0
   25.0920  -20.6322  -13.3241 N   0  0  0  0  0  0  0  0  0  0  0  0
   22.7495  -20.9006  -13.3492 C   0  0  0  0  0  0  0  0  0  0  0  0
   21.5236  -21.4396  -12.9882 O   0  0  0  0  0  0  0  0  0  0  0  0
   22.7608  -20.1523  -14.3354 O   0  0  0  0  0  0  0  0  0  0  0  0
  2  3  1  0
  2  1  1  6
  4  3  1  0
  4  5  2  0
  6  5  1  0
  7  6  2  0
  8  9  2  0
  8  7  1  0
  9  4  1  0
 10  2  1  0
 11 10  2  0
 13 12  1  0
 13 14  1  0
 16 15  1  1
 15 14  1  0
 16 17  1  0
 17 10  1  0
 18 25  1  0
 18 16  1  0
 19 18  2  0
 21 20  1  1
 21 23  1  0
 21 22  1  0
 24 23  1  1
 24 26  1  0
 24 25  1  0
 26 27  1  0
 28 26  2  0
M  END
$$$$
