FML.pdb
     RDKit          3D

 28 28  0  0  1  0  0  0  0  0999 V2000
   25.3377  -19.5928  -17.0593 N   0  0  0  0  0  0  0  0  0  0  0  0
   25.3602  -19.1029  -15.6825 C   0  0  1  0  0  0  0  0  0  0  0  0
   24.0475  -18.4787  -15.3514 C   0  0  0  0  0  0  0  0  0  0  0  0
   23.6898  -17.3217  -16.1684 C   0  0  0  0  0  0  0  0  0  0  0  0
   24.4181  -16.1352  -16.0430 C   0  0  0  0  0  0  0  0  0  0  0  0
   24.0795  -15.0556  -16.8281 C   0  0  0  0  0  0  0  0  0  0  0  0
   23.0241  -15.1550  -17.7317 C   0  0  0  0  0  0  0  0  0  0  0  0
   22.2946  -16.3256  -17.8653 C   0  0  0  0  0  0  0  0  0  0  0  0
   22.6490  -17.3960  -17.0702 C   0  0  0  0  0  0  0  0  0  0  0  0
   25.6353  -20.2169  -14.7568 C   0  0  0  0  0  0  0  0  0  0  0  0
   25.2182  -21.3612  -15.0333 O   0  0  0  0  0  0  0  0  0  0  0  0
   31.1526  -20.3091  -11.8608 C   0  0  0  0  0  0  0  0  0  0  0  0
   30.4546  -20.2975  -13.5169 S   0  0  0  0  0  0  0  0  0  0  0  0
   28.9817  -21.3427  -13.6420 C   0  0  0  0  0  0  0  0  0  0  0  0
   28.1297  -21.1504  -12.4617 C   0  0  0  0  0  0  0  0  0  0  0  0
   26.6638  -21.0637  -12.5922 C   0  0  2  0  0  0  0  0  0  0  0  0
   26.3615  -19.9808  -13.5770 N   0  0  0  0  0  0  0  0  0  0  0  0
   25.8342  -20.7952  -11.4431 C   0  0  0  0  0  0  0  0  0  0  0  0
   25.5204  -19.5980  -11.0765 O   0  0  0  0  0  0  0  0  0  0  0  0
   27.0686  -19.3849   -7.2703 C   0  0  0  0  0  0  0  0  0  0  0  0
   26.4778  -20.4984   -8.0376 C   0  0  1  0  0  0  0  0  0  0  0  0
   26.2007  -21.6235   -7.0070 C   0  0  0  0  0  0  0  0  0  0  0  0
   25.2842  -20.3034   -8.8355 C   0  0  0  0  0  0  0  0  0  0  0  0
   24.5223  -21.4681   -9.3984 C   0  0  2  0  0  0  0  0  0  0  0  0
   25.2834  -21.8069  -10.6289 N   0  0  0  0  0  0  0  0  0  0  0  0
   23.1551  -21.2325   -9.7920 C   0  0  0  0  0  0  0  0  0  0  0  0
   22.1190  -21.4521   -8.8965 O   0  0  0  0  0  0  0  0  0  0  0  0
   22.8407  -20.8366  -10.9221 O   0  0  0  0  0  0  0  0  0  0  0  0
  2  3  1  0
  2  1  1  6
  4  3  1  0
  4  5  2  0
  6  5  1  0
  7  6  2  0
  8  9  2  0
  8  7  1  0
  9  4  1  0
 10  2  1  0
 11 10  2  0
 13 12  1  0
 13 14  1  0
 16 15  1  1
 15 14  1  0
 16 17  1  0
 17 10  1  0
 18 25  1  0
 18 16  1  0
 19 18  2  0
 21 20  1  1
 21 23  1  0
 21 22  1  0
 24 23  1  6
 24 26  1  0
 24 25  1  0
 26 27  1  0
 28 26  2  0
M  END
$$$$
