FML.pdb
     RDKit          3D

 28 28  0  0  1  0  0  0  0  0999 V2000
   28.4030  -20.7368  -14.6538 N   0  0  0  0  0  0  0  0  0  0  0  0
   27.5776  -19.8725  -13.8124 C   0  0  1  0  0  0  0  0  0  0  0  0
   26.5575  -19.1821  -14.6523 C   0  0  0  0  0  0  0  0  0  0  0  0
   27.0824  -18.1364  -15.5269 C   0  0  0  0  0  0  0  0  0  0  0  0
   27.3028  -16.8540  -15.0163 C   0  0  0  0  0  0  0  0  0  0  0  0
   27.8102  -15.8803  -15.8474 C   0  0  0  0  0  0  0  0  0  0  0  0
   28.0965  -16.1795  -17.1774 C   0  0  0  0  0  0  0  0  0  0  0  0
   27.8825  -17.4468  -17.6956 C   0  0  0  0  0  0  0  0  0  0  0  0
   27.3737  -18.4086  -16.8472 C   0  0  0  0  0  0  0  0  0  0  0  0
   26.9116  -20.6737  -12.7693 C   0  0  0  0  0  0  0  0  0  0  0  0
   26.4280  -21.7863  -13.0658 O   0  0  0  0  0  0  0  0  0  0  0  0
   28.3285  -19.8547   -6.8271 C   0  0  0  0  0  0  0  0  0  0  0  0
   26.6266  -20.2710   -6.4274 S   0  0  0  0  0  0  0  0  0  0  0  0
   25.6903  -20.7849   -7.8891 C   0  0  0  0  0  0  0  0  0  0  0  0
   26.4051  -20.3848   -9.1076 C   0  0  0  0  0  0  0  0  0  0  0  0
   25.8967  -20.7571  -10.4404 C   0  0  2  0  0  0  0  0  0  0  0  0
   26.8281  -20.1791  -11.4564 N   0  0  0  0  0  0  0  0  0  0  0  0
   24.5701  -20.3753  -10.8586 C   0  0  0  0  0  0  0  0  0  0  0  0
   24.3204  -19.2483  -11.4361 O   0  0  0  0  0  0  0  0  0  0  0  0
   21.4716  -21.5595  -15.1292 C   0  0  0  0  0  0  0  0  0  0  0  0
   21.2539  -21.1967  -13.7156 C   0  0  1  0  0  0  0  0  0  0  0  0
   20.0762  -22.0797  -13.2276 C   0  0  0  0  0  0  0  0  0  0  0  0
   22.3283  -21.2898  -12.7479 C   0  0  0  0  0  0  0  0  0  0  0  0
   22.1385  -20.8489  -11.3254 C   0  0  2  0  0  0  0  0  0  0  0  0
   23.4354  -21.1958  -10.6882 N   0  0  0  0  0  0  0  0  0  0  0  0
   21.1005  -21.5014  -10.5664 C   0  0  0  0  0  0  0  0  0  0  0  0
   21.3169  -22.7554  -10.0146 O   0  0  0  0  0  0  0  0  0  0  0  0
   19.9880  -20.9928  -10.3755 O   0  0  0  0  0  0  0  0  0  0  0  0
  2  3  1  0
  2  1  1  6
  4  3  1  0
  4  5  2  0
  6  5  1  0
  7  6  2  0
  8  9  2  0
  8  7  1  0
  9  4  1  0
 10  2  1  0
 11 10  2  0
 13 12  1  0
 13 14  1  0
 16 15  1  1
 15 14  1  0
 16 17  1  0
 17 10  1  0
 18 25  1  0
 18 16  1  0
 19 18  2  0
 21 20  1  6
 21 23  1  0
 21 22  1  0
 24 23  1  6
 24 26  1  0
 24 25  1  0
 26 27  1  0
 28 26  2  0
M  END
$$$$
