FML.pdb
     RDKit          3D

 28 28  0  0  1  0  0  0  0  0999 V2000
   28.3077  -20.7046  -11.2871 N   0  0  0  0  0  0  0  0  0  0  0  0
   27.0290  -21.2328  -10.8155 C   0  0  1  0  0  0  0  0  0  0  0  0
   26.5847  -20.4704   -9.6138 C   0  0  0  0  0  0  0  0  0  0  0  0
   27.5193  -20.4867   -8.4912 C   0  0  0  0  0  0  0  0  0  0  0  0
   28.4331  -21.5373   -8.3676 C   0  0  0  0  0  0  0  0  0  0  0  0
   29.3177  -21.5346   -7.3122 C   0  0  0  0  0  0  0  0  0  0  0  0
   29.2940  -20.4945   -6.3860 C   0  0  0  0  0  0  0  0  0  0  0  0
   28.3931  -19.4474   -6.4975 C   0  0  0  0  0  0  0  0  0  0  0  0
   27.5151  -19.4680   -7.5616 C   0  0  0  0  0  0  0  0  0  0  0  0
   26.0167  -21.1257  -11.8819 C   0  0  0  0  0  0  0  0  0  0  0  0
   25.9850  -20.1022  -12.5967 O   0  0  0  0  0  0  0  0  0  0  0  0
   25.4119  -25.5848  -15.8860 C   0  0  0  0  0  0  0  0  0  0  0  0
   23.6545  -25.5349  -15.5134 S   0  0  0  0  0  0  0  0  0  0  0  0
   23.1521  -23.9427  -14.8133 C   0  0  0  0  0  0  0  0  0  0  0  0
   24.0333  -23.5877  -13.6939 C   0  0  0  0  0  0  0  0  0  0  0  0
   24.1457  -22.1922  -13.2318 C   0  0  2  0  0  0  0  0  0  0  0  0
   25.1010  -22.1728  -12.0826 N   0  0  0  0  0  0  0  0  0  0  0  0
   22.9816  -21.4640  -12.7899 C   0  0  0  0  0  0  0  0  0  0  0  0
   22.5030  -21.5759  -11.5963 O   0  0  0  0  0  0  0  0  0  0  0  0
   19.7823  -16.8709  -12.5239 C   0  0  0  0  0  0  0  0  0  0  0  0
   19.9712  -17.6282  -13.7762 C   0  0  1  0  0  0  0  0  0  0  0  0
   20.1217  -16.5656  -14.8957 C   0  0  0  0  0  0  0  0  0  0  0  0
   21.0457  -18.5909  -13.9106 C   0  0  0  0  0  0  0  0  0  0  0  0
   21.0645  -19.8577  -13.1052 C   0  0  2  0  0  0  0  0  0  0  0  0
   22.2726  -20.5609  -13.6094 N   0  0  0  0  0  0  0  0  0  0  0  0
   19.9482  -20.7565  -13.2649 C   0  0  0  0  0  0  0  0  0  0  0  0
   18.8998  -20.7422  -12.3570 O   0  0  0  0  0  0  0  0  0  0  0  0
   19.8699  -21.5709  -14.1941 O   0  0  0  0  0  0  0  0  0  0  0  0
  2  3  1  0
  2  1  1  6
  4  3  1  0
  4  5  2  0
  6  5  1  0
  7  6  2  0
  8  9  2  0
  8  7  1  0
  9  4  1  0
 10  2  1  0
 11 10  2  0
 13 12  1  0
 13 14  1  0
 16 15  1  1
 15 14  1  0
 16 17  1  0
 17 10  1  0
 18 25  1  0
 18 16  1  0
 19 18  2  0
 21 20  1  1
 21 23  1  0
 21 22  1  0
 24 23  1  6
 24 26  1  0
 24 25  1  0
 26 27  1  0
 28 26  2  0
M  END
$$$$
