FML.pdb
     RDKit          3D

 28 28  0  0  1  0  0  0  0  0999 V2000
   27.3132  -18.0369  -14.1274 N   0  0  0  0  0  0  0  0  0  0  0  0
   26.4012  -19.1593  -14.3387 C   0  0  1  0  0  0  0  0  0  0  0  0
   26.3069  -19.4606  -15.7957 C   0  0  0  0  0  0  0  0  0  0  0  0
   25.7204  -18.3987  -16.6096 C   0  0  0  0  0  0  0  0  0  0  0  0
   24.3407  -18.1778  -16.5681 C   0  0  0  0  0  0  0  0  0  0  0  0
   23.8015  -17.1653  -17.3299 C   0  0  0  0  0  0  0  0  0  0  0  0
   24.6282  -16.3777  -18.1277 C   0  0  0  0  0  0  0  0  0  0  0  0
   25.9973  -16.5867  -18.1776 C   0  0  0  0  0  0  0  0  0  0  0  0
   26.5185  -17.6057  -17.4072 C   0  0  0  0  0  0  0  0  0  0  0  0
   26.8864  -20.3456  -13.6101 C   0  0  0  0  0  0  0  0  0  0  0  0
   26.4323  -21.4720  -13.9009 O   0  0  0  0  0  0  0  0  0  0  0  0
   33.1198  -22.6117   -9.3175 C   0  0  0  0  0  0  0  0  0  0  0  0
   32.1658  -21.4956  -10.3538 S   0  0  0  0  0  0  0  0  0  0  0  0
   30.4667  -22.0733  -10.5921 C   0  0  0  0  0  0  0  0  0  0  0  0
   29.7186  -21.1062  -11.4051 C   0  0  0  0  0  0  0  0  0  0  0  0
   28.3047  -21.3408  -11.7504 C   0  0  2  0  0  0  0  0  0  0  0  0
   27.8517  -20.1972  -12.5994 N   0  0  0  0  0  0  0  0  0  0  0  0
   27.3065  -21.4868  -10.7194 C   0  0  0  0  0  0  0  0  0  0  0  0
   27.0793  -22.6101  -10.1255 O   0  0  0  0  0  0  0  0  0  0  0  0
   27.4929  -17.9378   -6.9040 C   0  0  0  0  0  0  0  0  0  0  0  0
   27.1482  -19.2118   -7.5639 C   0  0  1  0  0  0  0  0  0  0  0  0
   27.2433  -20.2993   -6.4624 C   0  0  0  0  0  0  0  0  0  0  0  0
   25.8880  -19.3738   -8.2603 C   0  0  0  0  0  0  0  0  0  0  0  0
   25.6045  -20.5935   -9.0885 C   0  0  2  0  0  0  0  0  0  0  0  0
   26.5025  -20.4226  -10.2601 N   0  0  0  0  0  0  0  0  0  0  0  0
   24.2635  -20.7480   -9.5959 C   0  0  0  0  0  0  0  0  0  0  0  0
   23.2350  -21.1419   -8.7529 O   0  0  0  0  0  0  0  0  0  0  0  0
   23.9670  -20.5473  -10.7810 O   0  0  0  0  0  0  0  0  0  0  0  0
  2  3  1  0
  2  1  1  6
  4  3  1  0
  4  5  2  0
  6  5  1  0
  7  6  2  0
  8  9  2  0
  8  7  1  0
  9  4  1  0
 10  2  1  0
 11 10  2  0
 13 12  1  0
 13 14  1  0
 16 15  1  1
 15 14  1  0
 16 17  1  0
 17 10  1  0
 18 25  1  0
 18 16  1  0
 19 18  2  0
 21 20  1  1
 21 23  1  0
 21 22  1  0
 24 23  1  1
 24 26  1  0
 24 25  1  0
 26 27  1  0
 28 26  2  0
M  END
$$$$
