FML.pdb
     RDKit          3D

 28 28  0  0  1  0  0  0  0  0999 V2000
   26.5115  -20.6665  -17.4632 N   0  0  0  0  0  0  0  0  0  0  0  0
   27.0278  -21.0324  -16.1457 C   0  0  1  0  0  0  0  0  0  0  0  0
   28.4914  -20.7547  -16.0865 C   0  0  0  0  0  0  0  0  0  0  0  0
   29.3232  -21.6509  -16.8858 C   0  0  0  0  0  0  0  0  0  0  0  0
   29.5619  -22.9541  -16.4400 C   0  0  0  0  0  0  0  0  0  0  0  0
   30.3369  -23.7934  -17.2089 C   0  0  0  0  0  0  0  0  0  0  0  0
   30.8709  -23.3403  -18.4130 C   0  0  0  0  0  0  0  0  0  0  0  0
   30.6415  -22.0509  -18.8659 C   0  0  0  0  0  0  0  0  0  0  0  0
   29.8627  -21.2252  -18.0816 C   0  0  0  0  0  0  0  0  0  0  0  0
   26.3275  -20.2643  -15.1001 C   0  0  0  0  0  0  0  0  0  0  0  0
   25.7637  -19.1914  -15.4012 O   0  0  0  0  0  0  0  0  0  0  0  0
   21.6987  -20.1797  -15.3643 C   0  0  0  0  0  0  0  0  0  0  0  0
   21.4155  -19.7088  -13.6532 S   0  0  0  0  0  0  0  0  0  0  0  0
   22.7404  -20.2829  -12.5611 C   0  0  0  0  0  0  0  0  0  0  0  0
   23.9542  -20.5482  -13.3434 C   0  0  0  0  0  0  0  0  0  0  0  0
   25.2908  -20.2855  -12.7795 C   0  0  2  0  0  0  0  0  0  0  0  0
   26.3012  -20.7458  -13.7800 N   0  0  0  0  0  0  0  0  0  0  0  0
   25.6890  -20.8662  -11.5205 C   0  0  0  0  0  0  0  0  0  0  0  0
   25.7017  -22.1406  -11.3156 O   0  0  0  0  0  0  0  0  0  0  0  0
   28.6358  -21.0584   -6.7530 C   0  0  0  0  0  0  0  0  0  0  0  0
   27.7214  -19.9387   -7.0490 C   0  0  1  0  0  0  0  0  0  0  0  0
   28.4534  -18.6566   -6.5744 C   0  0  0  0  0  0  0  0  0  0  0  0
   27.2282  -19.7141   -8.3927 C   0  0  0  0  0  0  0  0  0  0  0  0
   26.4106  -20.7504   -9.1080 C   0  0  2  0  0  0  0  0  0  0  0  0
   26.1097  -20.1031  -10.4113 N   0  0  0  0  0  0  0  0  0  0  0  0
   25.1504  -21.1210   -8.5130 C   0  0  0  0  0  0  0  0  0  0  0  0
   23.9616  -20.6067   -9.0090 O   0  0  0  0  0  0  0  0  0  0  0  0
   25.0644  -21.8942   -7.5499 O   0  0  0  0  0  0  0  0  0  0  0  0
  2  3  1  0
  2  1  1  6
  4  3  1  0
  4  5  2  0
  6  5  1  0
  7  6  2  0
  8  9  2  0
  8  7  1  0
  9  4  1  0
 10  2  1  0
 11 10  2  0
 13 12  1  0
 13 14  1  0
 16 15  1  6
 15 14  1  0
 16 17  1  0
 17 10  1  0
 18 25  1  0
 18 16  1  0
 19 18  2  0
 21 20  1  6
 21 23  1  0
 21 22  1  0
 24 23  1  1
 24 26  1  0
 24 25  1  0
 26 27  1  0
 28 26  2  0
M  END
$$$$
