PES.pdb
     RDKit          3D

 23 23  0  0  1  0  0  0  0  0999 V2000
    9.5120  -13.7129   18.7864 N   0  0  0  0  0  0  0  0  0  0  0  0
    8.5688  -13.3553   17.7681 C   0  0  0  0  0  0  0  0  0  0  0  0
    7.2229  -13.2093   18.4246 C   0  0  0  0  0  0  0  0  0  0  0  0
    7.3587  -14.0276   19.6698 C   0  0  0  0  0  0  0  0  0  0  0  0
    8.8174  -13.9138   20.0174 C   0  0  1  0  0  0  0  0  0  0  0  0
    9.2910  -15.1857   20.6285 C   0  0  0  0  0  0  0  0  0  0  0  0
    8.6341  -15.7441   21.5429 O   0  0  0  0  0  0  0  0  0  0  0  0
   10.5155  -15.8106   20.1883 N   0  0  0  0  0  0  0  0  0  0  0  0
   10.9935  -16.9786   20.8772 C   0  0  1  0  0  0  0  0  0  0  0  0
   12.0584  -17.6663   20.1119 C   0  0  0  0  0  0  0  0  0  0  0  0
   11.6980  -18.3855   18.8760 C   0  0  0  0  0  0  0  0  0  0  0  0
   12.7097  -18.3659   17.8144 C   0  0  0  0  0  0  0  0  0  0  0  0
   13.4709  -19.3663   17.6637 O   0  0  0  0  0  0  0  0  0  0  0  0
   11.3680  -16.6849   22.2830 C   0  0  0  0  0  0  0  0  0  0  0  0
   12.0040  -15.6440   22.5609 O   0  0  0  0  0  0  0  0  0  0  0  0
   12.8859  -17.2999   16.9506 O   0  0  0  0  0  0  0  0  0  0  0  0
   10.4402  -16.8208   26.8362 O   0  0  0  0  0  0  0  0  0  0  0  0
   10.1296  -17.0762   25.5090 C   0  0  0  0  0  0  0  0  0  0  0  0
   11.3983  -17.2386   24.6975 C   0  0  2  0  0  0  0  0  0  0  0  0
   11.0285  -17.5540   23.3501 N   0  0  0  0  0  0  0  0  0  0  0  0
   12.2463  -18.3194   25.2835 C   0  0  0  0  0  0  0  0  0  0  0  0
   12.4954  -19.4804   24.5850 O   0  0  0  0  0  0  0  0  0  0  0  0
   12.7361  -18.1648   26.4258 O   0  0  0  0  0  0  0  0  0  0  0  0
  1  5  1  0
  1  2  1  0
  2  3  1  0
  4  3  1  0
  5  6  1  6
  5  4  1  0
  6  8  1  0
  6  7  2  0
  8  9  1  0
  9 14  1  0
  9 10  1  6
 11 10  1  0
 12 16  1  0
 12 11  1  0
 13 12  2  0
 14 15  2  0
 14 20  1  0
 17 18  1  0
 19 18  1  1
 19 21  1  0
 20 19  1  0
 21 22  1  0
 23 21  2  0
M  END
$$$$
