PES.pdb
     RDKit          3D

 23 23  0  0  1  0  0  0  0  0999 V2000
    9.4317  -13.7085   18.4784 N   0  0  0  0  0  0  0  0  0  0  0  0
    8.6326  -13.4363   17.3200 C   0  0  0  0  0  0  0  0  0  0  0  0
    7.2365  -13.1315   17.7908 C   0  0  0  0  0  0  0  0  0  0  0  0
    7.1781  -13.7853   19.1354 C   0  0  0  0  0  0  0  0  0  0  0  0
    8.5944  -13.7073   19.6348 C   0  0  1  0  0  0  0  0  0  0  0  0
    8.9087  -14.9120   20.4506 C   0  0  0  0  0  0  0  0  0  0  0  0
    8.0912  -15.3441   21.3017 O   0  0  0  0  0  0  0  0  0  0  0  0
   10.1587  -15.6150   20.2864 N   0  0  0  0  0  0  0  0  0  0  0  0
   10.4612  -16.7196   21.1556 C   0  0  1  0  0  0  0  0  0  0  0  0
   11.5619  -17.5517   20.6182 C   0  0  0  0  0  0  0  0  0  0  0  0
   11.4425  -18.0984   19.2539 C   0  0  0  0  0  0  0  0  0  0  0  0
   12.7087  -18.3183   18.5472 C   0  0  0  0  0  0  0  0  0  0  0  0
   13.5599  -19.1196   19.0332 O   0  0  0  0  0  0  0  0  0  0  0  0
   10.6758  -16.2852   22.5584 C   0  0  0  0  0  0  0  0  0  0  0  0
   11.4026  -15.2979   22.8077 O   0  0  0  0  0  0  0  0  0  0  0  0
   13.0357  -17.6914   17.3582 O   0  0  0  0  0  0  0  0  0  0  0  0
    8.1169  -15.6247   24.9799 O   0  0  0  0  0  0  0  0  0  0  0  0
    8.9864  -16.4226   25.7083 C   0  0  0  0  0  0  0  0  0  0  0  0
   10.3206  -16.5246   24.9985 C   0  0  2  0  0  0  0  0  0  0  0  0
   10.0789  -16.9571   23.6546 N   0  0  0  0  0  0  0  0  0  0  0  0
   11.2100  -17.4867   25.7154 C   0  0  0  0  0  0  0  0  0  0  0  0
   11.5230  -17.3052   27.0447 O   0  0  0  0  0  0  0  0  0  0  0  0
   11.6759  -18.4710   25.0966 O   0  0  0  0  0  0  0  0  0  0  0  0
  1  5  1  0
  1  2  1  0
  2  3  1  0
  4  3  1  0
  5  6  1  1
  5  4  1  0
  6  8  1  0
  6  7  2  0
  8  9  1  0
  9 14  1  0
  9 10  1  6
 11 10  1  0
 12 16  1  0
 12 11  1  0
 13 12  2  0
 14 15  2  0
 14 20  1  0
 17 18  1  0
 19 18  1  1
 19 21  1  0
 20 19  1  0
 21 22  1  0
 23 21  2  0
M  END
$$$$
