PES.pdb
     RDKit          3D

 23 23  0  0  1  0  0  0  0  0999 V2000
    7.8292  -14.5982   18.5467 N   0  0  0  0  0  0  0  0  0  0  0  0
    7.0460  -13.4185   18.3244 C   0  0  0  0  0  0  0  0  0  0  0  0
    7.7109  -12.2852   19.0574 C   0  0  0  0  0  0  0  0  0  0  0  0
    8.5190  -12.9828   20.1058 C   0  0  0  0  0  0  0  0  0  0  0  0
    8.8770  -14.2970   19.4685 C   0  0  1  0  0  0  0  0  0  0  0  0
    8.9203  -15.3648   20.5044 C   0  0  0  0  0  0  0  0  0  0  0  0
    7.8639  -15.9118   20.9095 O   0  0  0  0  0  0  0  0  0  0  0  0
   10.1748  -15.8001   21.0708 N   0  0  0  0  0  0  0  0  0  0  0  0
   10.1759  -16.8643   22.0375 C   0  0  1  0  0  0  0  0  0  0  0  0
   11.1915  -17.8927   21.7162 C   0  0  0  0  0  0  0  0  0  0  0  0
   12.6154  -17.5091   21.7005 C   0  0  0  0  0  0  0  0  0  0  0  0
   13.5580  -18.5877   21.3861 C   0  0  0  0  0  0  0  0  0  0  0  0
   14.4598  -18.3911   20.5194 O   0  0  0  0  0  0  0  0  0  0  0  0
   10.2652  -16.3561   23.4290 C   0  0  0  0  0  0  0  0  0  0  0  0
   10.9088  -15.3126   23.6781 O   0  0  0  0  0  0  0  0  0  0  0  0
   13.5212  -19.8312   21.9909 O   0  0  0  0  0  0  0  0  0  0  0  0
    7.3621  -16.4935   25.8639 O   0  0  0  0  0  0  0  0  0  0  0  0
    8.4791  -15.7232   26.1504 C   0  0  0  0  0  0  0  0  0  0  0  0
    9.7425  -16.5015   25.8462 C   0  0  2  0  0  0  0  0  0  0  0  0
    9.6382  -17.0181   24.5143 N   0  0  0  0  0  0  0  0  0  0  0  0
    9.9127  -17.6084   26.8345 C   0  0  0  0  0  0  0  0  0  0  0  0
   10.0757  -17.3403   28.1759 O   0  0  0  0  0  0  0  0  0  0  0  0
    9.9065  -18.7953   26.4348 O   0  0  0  0  0  0  0  0  0  0  0  0
  1  5  1  0
  1  2  1  0
  2  3  1  0
  4  3  1  0
  5  6  1  1
  5  4  1  0
  6  8  1  0
  6  7  2  0
  8  9  1  0
  9 14  1  0
  9 10  1  6
 11 10  1  0
 12 16  1  0
 12 11  1  0
 13 12  2  0
 14 15  2  0
 14 20  1  0
 17 18  1  0
 19 18  1  1
 19 21  1  0
 20 19  1  0
 21 22  1  0
 23 21  2  0
M  END
$$$$
