PES.pdb
     RDKit          3D

 23 23  0  0  1  0  0  0  0  0999 V2000
    9.4504  -13.7434   19.1062 N   0  0  0  0  0  0  0  0  0  0  0  0
    8.7979  -13.4279   17.8696 C   0  0  0  0  0  0  0  0  0  0  0  0
    7.3990  -12.9789   18.1942 C   0  0  0  0  0  0  0  0  0  0  0  0
    7.1470  -13.5875   19.5376 C   0  0  0  0  0  0  0  0  0  0  0  0
    8.5090  -13.6312   20.1736 C   0  0  1  0  0  0  0  0  0  0  0  0
    8.6238  -14.8378   21.0376 C   0  0  0  0  0  0  0  0  0  0  0  0
    7.7288  -15.1178   21.8741 O   0  0  0  0  0  0  0  0  0  0  0  0
    9.7643  -15.7171   20.9380 N   0  0  0  0  0  0  0  0  0  0  0  0
    9.8507  -16.8550   21.8125 C   0  0  1  0  0  0  0  0  0  0  0  0
   10.9515  -17.7638   21.4189 C   0  0  0  0  0  0  0  0  0  0  0  0
   11.1676  -19.0000   22.1933 C   0  0  0  0  0  0  0  0  0  0  0  0
   12.2414  -19.8723   21.7064 C   0  0  0  0  0  0  0  0  0  0  0  0
   13.4333  -19.6534   22.0728 O   0  0  0  0  0  0  0  0  0  0  0  0
    9.8895  -16.4600   23.2425 C   0  0  0  0  0  0  0  0  0  0  0  0
   10.6209  -15.5160   23.6154 O   0  0  0  0  0  0  0  0  0  0  0  0
   12.0267  -20.9408   20.8546 O   0  0  0  0  0  0  0  0  0  0  0  0
    6.8978  -16.1133   25.3867 O   0  0  0  0  0  0  0  0  0  0  0  0
    7.7927  -16.8046   26.1894 C   0  0  0  0  0  0  0  0  0  0  0  0
    9.1873  -16.7278   25.6032 C   0  0  2  0  0  0  0  0  0  0  0  0
    9.1154  -17.1224   24.2281 N   0  0  0  0  0  0  0  0  0  0  0  0
   10.1129  -17.6188   26.3649 C   0  0  0  0  0  0  0  0  0  0  0  0
   10.2883  -17.4622   27.7223 O   0  0  0  0  0  0  0  0  0  0  0  0
   10.7365  -18.5197   25.7581 O   0  0  0  0  0  0  0  0  0  0  0  0
  1  5  1  0
  1  2  1  0
  2  3  1  0
  4  3  1  0
  5  6  1  1
  5  4  1  0
  6  8  1  0
  6  7  2  0
  8  9  1  0
  9 14  1  0
  9 10  1  6
 11 10  1  0
 12 16  1  0
 12 11  1  0
 13 12  2  0
 14 15  2  0
 14 20  1  0
 17 18  1  0
 19 18  1  1
 19 21  1  0
 20 19  1  0
 21 22  1  0
 23 21  2  0
M  END
$$$$
