PES.pdb
     RDKit          3D

 23 23  0  0  1  0  0  0  0  0999 V2000
    7.9242  -14.6188   18.5840 N   0  0  0  0  0  0  0  0  0  0  0  0
    6.9700  -13.5646   18.4035 C   0  0  0  0  0  0  0  0  0  0  0  0
    7.4096  -12.4020   19.2515 C   0  0  0  0  0  0  0  0  0  0  0  0
    8.2742  -13.0436   20.2905 C   0  0  0  0  0  0  0  0  0  0  0  0
    8.8682  -14.2294   19.5816 C   0  0  1  0  0  0  0  0  0  0  0  0
    9.0397  -15.3557   20.5394 C   0  0  0  0  0  0  0  0  0  0  0  0
    8.0885  -16.1380   20.7899 O   0  0  0  0  0  0  0  0  0  0  0  0
   10.3009  -15.5794   21.2052 N   0  0  0  0  0  0  0  0  0  0  0  0
   10.4198  -16.6711   22.1332 C   0  0  1  0  0  0  0  0  0  0  0  0
   11.7611  -17.2955   22.0726 C   0  0  0  0  0  0  0  0  0  0  0  0
   12.0364  -18.4776   22.9101 C   0  0  0  0  0  0  0  0  0  0  0  0
   13.3629  -19.0793   22.7392 C   0  0  0  0  0  0  0  0  0  0  0  0
   13.5688  -19.8622   21.7658 O   0  0  0  0  0  0  0  0  0  0  0  0
   10.0054  -16.2866   23.5054 C   0  0  0  0  0  0  0  0  0  0  0  0
   10.4568  -15.2448   24.0309 O   0  0  0  0  0  0  0  0  0  0  0  0
   14.4238  -18.8384   23.5937 O   0  0  0  0  0  0  0  0  0  0  0  0
    6.7444  -17.8130   24.9049 O   0  0  0  0  0  0  0  0  0  0  0  0
    7.2099  -16.7717   25.6937 C   0  0  0  0  0  0  0  0  0  0  0  0
    8.7173  -16.6689   25.5868 C   0  0  2  0  0  0  0  0  0  0  0  0
    9.0989  -17.0679   24.2651 N   0  0  0  0  0  0  0  0  0  0  0  0
    9.3642  -17.5400   26.6132 C   0  0  0  0  0  0  0  0  0  0  0  0
    9.1395  -17.3365   27.9571 O   0  0  0  0  0  0  0  0  0  0  0  0
   10.1208  -18.4672   26.2437 O   0  0  0  0  0  0  0  0  0  0  0  0
  1  5  1  0
  1  2  1  0
  2  3  1  0
  4  3  1  0
  5  6  1  1
  5  4  1  0
  6  8  1  0
  6  7  2  0
  8  9  1  0
  9 14  1  0
  9 10  1  1
 11 10  1  0
 12 16  1  0
 12 11  1  0
 13 12  2  0
 14 15  2  0
 14 20  1  0
 17 18  1  0
 19 18  1  6
 19 21  1  0
 20 19  1  0
 21 22  1  0
 23 21  2  0
M  END
$$$$
