PES.pdb
     RDKit          3D

 23 23  0  0  1  0  0  0  0  0999 V2000
    8.6622  -13.4411   20.1083 N   0  0  0  0  0  0  0  0  0  0  0  0
    8.3801  -13.4051   18.7034 C   0  0  0  0  0  0  0  0  0  0  0  0
    7.0173  -14.0084   18.4967 C   0  0  0  0  0  0  0  0  0  0  0  0
    6.8301  -14.8570   19.7147 C   0  0  0  0  0  0  0  0  0  0  0  0
    7.6104  -14.1356   20.7788 C   0  0  1  0  0  0  0  0  0  0  0  0
    8.2138  -15.1209   21.7171 C   0  0  0  0  0  0  0  0  0  0  0  0
    7.5010  -15.9802   22.2941 O   0  0  0  0  0  0  0  0  0  0  0  0
    9.6315  -15.1158   21.9893 N   0  0  0  0  0  0  0  0  0  0  0  0
   10.1880  -16.1422   22.8284 C   0  0  1  0  0  0  0  0  0  0  0  0
   11.6656  -16.1776   22.7406 C   0  0  0  0  0  0  0  0  0  0  0  0
   12.4038  -17.1782   23.5335 C   0  0  0  0  0  0  0  0  0  0  0  0
   13.8624  -17.1545   23.3826 C   0  0  0  0  0  0  0  0  0  0  0  0
   14.5901  -16.9999   24.4070 O   0  0  0  0  0  0  0  0  0  0  0  0
    9.6776  -16.0651   24.2198 C   0  0  0  0  0  0  0  0  0  0  0  0
    9.6374  -14.9659   24.8158 O   0  0  0  0  0  0  0  0  0  0  0  0
   14.5040  -17.2938   22.1650 O   0  0  0  0  0  0  0  0  0  0  0  0
    7.0408  -18.5714   25.8060 O   0  0  0  0  0  0  0  0  0  0  0  0
    7.3786  -17.3776   26.4255 C   0  0  0  0  0  0  0  0  0  0  0  0
    8.8681  -17.1298   26.3052 C   0  0  2  0  0  0  0  0  0  0  0  0
    9.2232  -17.2109   24.9199 N   0  0  0  0  0  0  0  0  0  0  0  0
    9.6217  -18.1390   27.1078 C   0  0  0  0  0  0  0  0  0  0  0  0
    9.4687  -18.2132   28.4749 O   0  0  0  0  0  0  0  0  0  0  0  0
   10.4027  -18.9272   26.5267 O   0  0  0  0  0  0  0  0  0  0  0  0
  1  5  1  0
  1  2  1  0
  2  3  1  0
  4  3  1  0
  5  6  1  1
  5  4  1  0
  6  8  1  0
  6  7  2  0
  8  9  1  0
  9 14  1  0
  9 10  1  1
 11 10  1  0
 12 16  1  0
 12 11  1  0
 13 12  2  0
 14 15  2  0
 14 20  1  0
 17 18  1  0
 19 18  1  6
 19 21  1  0
 20 19  1  0
 21 22  1  0
 23 21  2  0
M  END
$$$$
