PES.pdb
     RDKit          3D

 23 23  0  0  1  0  0  0  0  0999 V2000
    9.2054  -14.5544   19.3124 N   0  0  0  0  0  0  0  0  0  0  0  0
    8.7429  -14.6792   17.9615 C   0  0  0  0  0  0  0  0  0  0  0  0
    7.7603  -13.5675   17.7117 C   0  0  0  0  0  0  0  0  0  0  0  0
    7.2962  -13.2052   19.0873 C   0  0  0  0  0  0  0  0  0  0  0  0
    8.4851  -13.5045   19.9582 C   0  0  1  0  0  0  0  0  0  0  0  0
    8.0265  -13.9906   21.2881 C   0  0  0  0  0  0  0  0  0  0  0  0
    7.2094  -13.3229   21.9707 O   0  0  0  0  0  0  0  0  0  0  0  0
    8.5073  -15.2398   21.8288 N   0  0  0  0  0  0  0  0  0  0  0  0
    8.0837  -15.6447   23.1417 C   0  0  1  0  0  0  0  0  0  0  0  0
    8.4995  -17.0330   23.4456 C   0  0  0  0  0  0  0  0  0  0  0  0
    9.8092  -17.2622   24.0833 C   0  0  0  0  0  0  0  0  0  0  0  0
   10.1184  -18.6581   24.4101 C   0  0  0  0  0  0  0  0  0  0  0  0
   10.7965  -18.9174   25.4473 O   0  0  0  0  0  0  0  0  0  0  0  0
    8.4790  -14.6649   24.1840 C   0  0  0  0  0  0  0  0  0  0  0  0
    9.6342  -14.1846   24.1911 O   0  0  0  0  0  0  0  0  0  0  0  0
    9.7057  -19.7298   23.6388 O   0  0  0  0  0  0  0  0  0  0  0  0
    5.6850  -13.0906   26.7652 O   0  0  0  0  0  0  0  0  0  0  0  0
    6.8043  -12.3464   26.4237 C   0  0  0  0  0  0  0  0  0  0  0  0
    7.9821  -13.2631   26.1653 C   0  0  2  0  0  0  0  0  0  0  0  0
    7.5829  -14.2399   25.1968 N   0  0  0  0  0  0  0  0  0  0  0  0
    8.4097  -13.9187   27.4374 C   0  0  0  0  0  0  0  0  0  0  0  0
    8.8707  -13.1710   28.4986 O   0  0  0  0  0  0  0  0  0  0  0  0
    8.3469  -15.1657   27.5372 O   0  0  0  0  0  0  0  0  0  0  0  0
  1  5  1  0
  1  2  1  0
  2  3  1  0
  4  3  1  0
  5  6  1  1
  5  4  1  0
  6  8  1  0
  6  7  2  0
  8  9  1  0
  9 14  1  0
  9 10  1  1
 11 10  1  0
 12 16  1  0
 12 11  1  0
 13 12  2  0
 14 15  2  0
 14 20  1  0
 17 18  1  0
 19 18  1  1
 19 21  1  0
 20 19  1  0
 21 22  1  0
 23 21  2  0
M  END
$$$$
