PES.pdb
     RDKit          3D

 23 23  0  0  1  0  0  0  0  0999 V2000
    7.9049  -14.4053   18.3842 N   0  0  0  0  0  0  0  0  0  0  0  0
    6.8303  -13.7546   19.0742 C   0  0  0  0  0  0  0  0  0  0  0  0
    7.3568  -12.4520   19.6125 C   0  0  0  0  0  0  0  0  0  0  0  0
    8.8336  -12.6822   19.6821 C   0  0  0  0  0  0  0  0  0  0  0  0
    9.1007  -13.6450   18.5582 C   0  0  1  0  0  0  0  0  0  0  0  0
   10.2020  -14.5712   18.9384 C   0  0  0  0  0  0  0  0  0  0  0  0
    9.9536  -15.6827   19.4696 O   0  0  0  0  0  0  0  0  0  0  0  0
   11.5826  -14.2182   18.7077 N   0  0  0  0  0  0  0  0  0  0  0  0
   12.6160  -15.1392   19.0963 C   0  0  1  0  0  0  0  0  0  0  0  0
   13.7933  -15.0474   18.2030 C   0  0  0  0  0  0  0  0  0  0  0  0
   14.9572  -15.9143   18.4650 C   0  0  0  0  0  0  0  0  0  0  0  0
   16.0999  -15.7289   17.5647 C   0  0  0  0  0  0  0  0  0  0  0  0
   17.2729  -15.7330   18.0413 O   0  0  0  0  0  0  0  0  0  0  0  0
   12.9537  -15.0256   20.5371 C   0  0  0  0  0  0  0  0  0  0  0  0
   13.2554  -13.9150   21.0275 O   0  0  0  0  0  0  0  0  0  0  0  0
   15.9716  -15.5464   16.1995 O   0  0  0  0  0  0  0  0  0  0  0  0
   12.2305  -16.5893   24.9134 O   0  0  0  0  0  0  0  0  0  0  0  0
   12.0607  -16.7176   23.5430 C   0  0  0  0  0  0  0  0  0  0  0  0
   13.1680  -15.9899   22.8090 C   0  0  2  0  0  0  0  0  0  0  0  0
   12.9497  -16.1485   21.4023 N   0  0  0  0  0  0  0  0  0  0  0  0
   14.4967  -16.5438   23.2072 C   0  0  0  0  0  0  0  0  0  0  0  0
   15.3018  -17.1807   22.2885 O   0  0  0  0  0  0  0  0  0  0  0  0
   14.8811  -16.4259   24.3934 O   0  0  0  0  0  0  0  0  0  0  0  0
  1  5  1  0
  1  2  1  0
  2  3  1  0
  4  3  1  0
  5  6  1  1
  5  4  1  0
  6  8  1  0
  6  7  2  0
  8  9  1  0
  9 14  1  0
  9 10  1  6
 11 10  1  0
 12 16  1  0
 12 11  1  0
 13 12  2  0
 14 15  2  0
 14 20  1  0
 17 18  1  0
 19 18  1  1
 19 21  1  0
 20 19  1  0
 21 22  1  0
 23 21  2  0
M  END
$$$$
