WIA.pdb
     RDKit          3D

 28 29  0  0  1  0  0  0  0  0999 V2000
    6.5735  -18.6291   25.1194 N   0  0  0  0  0  0  0  0  0  0  0  0
    6.9152  -17.2792   24.7379 C   0  0  1  0  0  0  0  0  0  0  0  0
    7.6920  -16.5324   25.7967 C   0  0  0  0  0  0  0  0  0  0  0  0
    7.0373  -15.2280   26.0667 C   0  0  0  0  0  0  0  0  0  0  0  0
    5.7032  -14.9299   25.9360 C   0  0  0  0  0  0  0  0  0  0  0  0
    5.5061  -13.6465   26.2436 N   0  0  0  0  0  0  0  0  0  0  0  0
    6.6633  -13.0768   26.5760 C   0  0  0  0  0  0  0  0  0  0  0  0
    6.9740  -11.7745   26.9753 C   0  0  0  0  0  0  0  0  0  0  0  0
    8.2596  -11.4496   27.2715 C   0  0  0  0  0  0  0  0  0  0  0  0
    9.2504  -12.4003   27.1784 C   0  0  0  0  0  0  0  0  0  0  0  0
    8.9398  -13.6960   26.7806 C   0  0  0  0  0  0  0  0  0  0  0  0
    7.6459  -14.0381   26.4773 C   0  0  0  0  0  0  0  0  0  0  0  0
    7.6228  -17.3283   23.4465 C   0  0  0  0  0  0  0  0  0  0  0  0
    8.1858  -18.3678   23.0535 O   0  0  0  0  0  0  0  0  0  0  0  0
    7.9664  -12.4059   20.4630 C   0  0  0  0  0  0  0  0  0  0  0  0
    8.4689  -13.6322   21.2367 C   0  0  0  0  0  0  0  0  0  0  0  0
    7.8519  -14.8681   20.6758 C   0  0  2  0  0  0  0  0  0  0  0  0
    6.3549  -14.7199   20.6625 C   0  0  0  0  0  0  0  0  0  0  0  0
    8.3103  -16.1450   21.3409 C   0  0  2  0  0  0  0  0  0  0  0  0
    7.6576  -16.1670   22.6403 N   0  0  0  0  0  0  0  0  0  0  0  0
    9.7674  -16.2942   21.4197 C   0  0  0  0  0  0  0  0  0  0  0  0
   10.4605  -16.4836   20.3770 O   0  0  0  0  0  0  0  0  0  0  0  0
   12.6513  -15.0878   22.8356 C   0  0  0  0  0  0  0  0  0  0  0  0
   11.9109  -16.3898   22.7582 C   0  0  2  0  0  0  0  0  0  0  0  0
   10.4759  -16.2351   22.6514 N   0  0  0  0  0  0  0  0  0  0  0  0
   12.2206  -17.2027   23.9855 C   0  0  0  0  0  0  0  0  0  0  0  0
   11.3133  -17.5825   24.7376 O   0  0  0  0  0  0  0  0  0  0  0  0
   13.5268  -17.5464   24.3048 O   0  0  0  0  0  0  0  0  0  0  0  0
  2  1  1  1
  3  2  1  0
  4  3  1  0
  4  5  2  0
  6  5  1  0
  7  6  1  0
  8  7  2  0
  9  8  1  0
 10  9  2  0
 10 11  1  0
 11 12  2  0
 12  7  1  0
 12  4  1  0
 13 20  1  0
 13  2  1  0
 14 13  2  0
 15 16  1  0
 16 17  1  0
 17 19  1  0
 17 18  1  1
 19 21  1  0
 19 20  1  1
 21 22  2  0
 24 23  1  1
 25 24  1  0
 25 21  1  0
 26 24  1  0
 26 28  1  0
 27 26  2  0
M  END
$$$$
