WIA.pdb
     RDKit          3D

 28 29  0  0  1  0  0  0  0  0999 V2000
    6.0940  -18.1432   24.7700 N   0  0  0  0  0  0  0  0  0  0  0  0
    6.9117  -16.9757   24.5400 C   0  0  1  0  0  0  0  0  0  0  0  0
    7.9912  -16.7822   25.5790 C   0  0  0  0  0  0  0  0  0  0  0  0
    7.6153  -15.6684   26.4851 C   0  0  0  0  0  0  0  0  0  0  0  0
    7.2005  -15.7685   27.7904 C   0  0  0  0  0  0  0  0  0  0  0  0
    6.9271  -14.5501   28.2608 N   0  0  0  0  0  0  0  0  0  0  0  0
    7.1458  -13.6389   27.3143 C   0  0  0  0  0  0  0  0  0  0  0  0
    7.0140  -12.2480   27.3191 C   0  0  0  0  0  0  0  0  0  0  0  0
    7.3169  -11.5390   26.2003 C   0  0  0  0  0  0  0  0  0  0  0  0
    7.7518  -12.1894   25.0681 C   0  0  0  0  0  0  0  0  0  0  0  0
    7.8822  -13.5738   25.0646 C   0  0  0  0  0  0  0  0  0  0  0  0
    7.5788  -14.3028   26.1870 C   0  0  0  0  0  0  0  0  0  0  0  0
    7.4514  -17.0512   23.1711 C   0  0  0  0  0  0  0  0  0  0  0  0
    7.7722  -18.1404   22.6586 O   0  0  0  0  0  0  0  0  0  0  0  0
    7.8274  -12.0904   20.2967 C   0  0  0  0  0  0  0  0  0  0  0  0
    8.3812  -13.3142   21.0387 C   0  0  0  0  0  0  0  0  0  0  0  0
    7.7952  -14.5586   20.4636 C   0  0  2  0  0  0  0  0  0  0  0  0
    6.2963  -14.4358   20.4247 C   0  0  0  0  0  0  0  0  0  0  0  0
    8.2636  -15.8297   21.1328 C   0  0  2  0  0  0  0  0  0  0  0  0
    7.6037  -15.8574   22.4283 N   0  0  0  0  0  0  0  0  0  0  0  0
    9.7218  -15.9629   21.2202 C   0  0  0  0  0  0  0  0  0  0  0  0
   10.4280  -16.0943   20.1773 O   0  0  0  0  0  0  0  0  0  0  0  0
   12.4524  -15.4405   23.7564 C   0  0  0  0  0  0  0  0  0  0  0  0
   11.8460  -16.1463   22.5800 C   0  0  2  0  0  0  0  0  0  0  0  0
   10.4169  -15.9515   22.4609 N   0  0  0  0  0  0  0  0  0  0  0  0
   12.1263  -17.6197   22.6956 C   0  0  0  0  0  0  0  0  0  0  0  0
   13.2901  -18.0404   22.7371 O   0  0  0  0  0  0  0  0  0  0  0  0
   11.0909  -18.5419   22.7586 O   0  0  0  0  0  0  0  0  0  0  0  0
  2  1  1  1
  3  2  1  0
  4  3  1  0
  4  5  2  0
  6  5  1  0
  7  6  1  0
  8  7  2  0
  9  8  1  0
 10  9  2  0
 10 11  1  0
 11 12  2  0
 12  7  1  0
 12  4  1  0
 13 20  1  0
 13  2  1  0
 14 13  2  0
 15 16  1  0
 16 17  1  0
 17 19  1  0
 17 18  1  1
 19 21  1  0
 19 20  1  1
 21 22  2  0
 24 23  1  1
 25 24  1  0
 25 21  1  0
 26 24  1  0
 26 28  1  0
 27 26  2  0
M  END
$$$$
