WIA.pdb
     RDKit          3D

 28 29  0  0  1  0  0  0  0  0999 V2000
    6.2554  -18.7037   24.6152 N   0  0  0  0  0  0  0  0  0  0  0  0
    6.7167  -17.3387   24.5224 C   0  0  1  0  0  0  0  0  0  0  0  0
    7.3260  -16.8203   25.8039 C   0  0  0  0  0  0  0  0  0  0  0  0
    6.8220  -15.4510   26.0759 C   0  0  0  0  0  0  0  0  0  0  0  0
    5.5121  -15.0664   26.2248 C   0  0  0  0  0  0  0  0  0  0  0  0
    5.4600  -13.7489   26.4300 N   0  0  0  0  0  0  0  0  0  0  0  0
    6.6908  -13.2399   26.4238 C   0  0  0  0  0  0  0  0  0  0  0  0
    7.1540  -11.9335   26.5987 C   0  0  0  0  0  0  0  0  0  0  0  0
    8.4883  -11.6804   26.5542 C   0  0  0  0  0  0  0  0  0  0  0  0
    9.3784  -12.7076   26.3379 C   0  0  0  0  0  0  0  0  0  0  0  0
    8.9159  -14.0073   26.1638 C   0  0  0  0  0  0  0  0  0  0  0  0
    7.5711  -14.2774   26.2052 C   0  0  0  0  0  0  0  0  0  0  0  0
    7.6382  -17.2385   23.3771 C   0  0  0  0  0  0  0  0  0  0  0  0
    8.2163  -18.2424   22.9190 O   0  0  0  0  0  0  0  0  0  0  0  0
    6.6430  -13.0210   20.0626 C   0  0  0  0  0  0  0  0  0  0  0  0
    7.0175  -14.4544   20.4626 C   0  0  0  0  0  0  0  0  0  0  0  0
    8.3914  -14.4722   21.0412 C   0  0  2  0  0  0  0  0  0  0  0  0
    9.3782  -14.0076   20.0050 C   0  0  0  0  0  0  0  0  0  0  0  0
    8.7792  -15.7884   21.6737 C   0  0  2  0  0  0  0  0  0  0  0  0
    7.8648  -15.9724   22.7893 N   0  0  0  0  0  0  0  0  0  0  0  0
   10.1918  -15.8791   22.0588 C   0  0  0  0  0  0  0  0  0  0  0  0
   11.1083  -15.8547   21.1854 O   0  0  0  0  0  0  0  0  0  0  0  0
   12.1884  -15.8621   25.3023 C   0  0  0  0  0  0  0  0  0  0  0  0
   11.9952  -16.0336   23.8248 C   0  0  2  0  0  0  0  0  0  0  0  0
   10.6081  -15.9971   23.4136 N   0  0  0  0  0  0  0  0  0  0  0  0
   12.5913  -17.3488   23.4027 C   0  0  0  0  0  0  0  0  0  0  0  0
   13.7764  -17.6126   23.6457 O   0  0  0  0  0  0  0  0  0  0  0  0
   11.8304  -18.2966   22.7326 O   0  0  0  0  0  0  0  0  0  0  0  0
  2  1  1  1
  3  2  1  0
  4  3  1  0
  4  5  2  0
  6  5  1  0
  7  6  1  0
  8  7  2  0
  9  8  1  0
 10  9  2  0
 10 11  1  0
 11 12  2  0
 12  7  1  0
 12  4  1  0
 13 20  1  0
 13  2  1  0
 14 13  2  0
 15 16  1  0
 16 17  1  0
 17 19  1  0
 17 18  1  6
 19 21  1  0
 19 20  1  1
 21 22  2  0
 24 23  1  1
 25 24  1  0
 25 21  1  0
 26 24  1  0
 26 28  1  0
 27 26  2  0
M  END
$$$$
