WIA.pdb
     RDKit          3D

 28 29  0  0  1  0  0  0  0  0999 V2000
    6.1704  -17.5920   23.9612 N   0  0  0  0  0  0  0  0  0  0  0  0
    6.8633  -16.3367   23.7910 C   0  0  1  0  0  0  0  0  0  0  0  0
    7.7723  -15.9890   24.9463 C   0  0  0  0  0  0  0  0  0  0  0  0
    7.0802  -15.0425   25.8563 C   0  0  0  0  0  0  0  0  0  0  0  0
    5.9967  -15.3082   26.6571 C   0  0  0  0  0  0  0  0  0  0  0  0
    5.6446  -14.1965   27.3057 N   0  0  0  0  0  0  0  0  0  0  0  0
    6.4565  -13.1968   26.9660 C   0  0  0  0  0  0  0  0  0  0  0  0
    6.5011  -11.8606   27.3717 C   0  0  0  0  0  0  0  0  0  0  0  0
    7.4562  -11.0354   26.8685 C   0  0  0  0  0  0  0  0  0  0  0  0
    8.3752  -11.5153   25.9634 C   0  0  0  0  0  0  0  0  0  0  0  0
    8.3296  -12.8453   25.5603 C   0  0  0  0  0  0  0  0  0  0  0  0
    7.3699  -13.6898   26.0594 C   0  0  0  0  0  0  0  0  0  0  0  0
    7.5757  -16.3725   22.5018 C   0  0  0  0  0  0  0  0  0  0  0  0
    7.7046  -17.4326   21.8602 O   0  0  0  0  0  0  0  0  0  0  0  0
    6.3292  -14.4510   19.3283 C   0  0  0  0  0  0  0  0  0  0  0  0
    7.0902  -13.3334   20.0539 C   0  0  0  0  0  0  0  0  0  0  0  0
    8.5284  -13.7049   20.1812 C   0  0  2  0  0  0  0  0  0  0  0  0
    9.2364  -13.4216   18.8843 C   0  0  0  0  0  0  0  0  0  0  0  0
    8.7622  -15.1105   20.6835 C   0  0  2  0  0  0  0  0  0  0  0  0
    8.1206  -15.1734   21.9870 N   0  0  0  0  0  0  0  0  0  0  0  0
   10.1720  -15.5148   20.7094 C   0  0  0  0  0  0  0  0  0  0  0  0
   10.8257  -15.6690   19.6358 O   0  0  0  0  0  0  0  0  0  0  0  0
   12.9908  -15.6418   23.1865 C   0  0  0  0  0  0  0  0  0  0  0  0
   12.2668  -16.1504   21.9754 C   0  0  2  0  0  0  0  0  0  0  0  0
   10.8763  -15.7527   21.9218 N   0  0  0  0  0  0  0  0  0  0  0  0
   12.3423  -17.6527   21.9552 C   0  0  0  0  0  0  0  0  0  0  0  0
   11.3118  -18.3380   21.9970 O   0  0  0  0  0  0  0  0  0  0  0  0
   13.5648  -18.3066   21.8891 O   0  0  0  0  0  0  0  0  0  0  0  0
  2  1  1  1
  3  2  1  0
  4  3  1  0
  4  5  2  0
  6  5  1  0
  7  6  1  0
  8  7  2  0
  9  8  1  0
 10  9  2  0
 10 11  1  0
 11 12  2  0
 12  7  1  0
 12  4  1  0
 13 20  1  0
 13  2  1  0
 14 13  2  0
 15 16  1  0
 16 17  1  0
 17 19  1  0
 17 18  1  6
 19 21  1  0
 19 20  1  1
 21 22  2  0
 24 23  1  1
 25 24  1  0
 25 21  1  0
 26 24  1  0
 26 28  1  0
 27 26  2  0
M  END
$$$$
