WIA.pdb
     RDKit          3D

 28 29  0  0  1  0  0  0  0  0999 V2000
    7.3146  -18.0313   23.2127 N   0  0  0  0  0  0  0  0  0  0  0  0
    7.1556  -16.6371   22.8727 C   0  0  1  0  0  0  0  0  0  0  0  0
    6.1421  -16.3956   21.7788 C   0  0  0  0  0  0  0  0  0  0  0  0
    6.8160  -15.7952   20.6004 C   0  0  0  0  0  0  0  0  0  0  0  0
    7.0846  -16.4072   19.4008 C   0  0  0  0  0  0  0  0  0  0  0  0
    7.7268  -15.5515   18.6033 N   0  0  0  0  0  0  0  0  0  0  0  0
    7.8960  -14.3879   19.2292 C   0  0  0  0  0  0  0  0  0  0  0  0
    8.4950  -13.1941   18.8196 C   0  0  0  0  0  0  0  0  0  0  0  0
    8.5273  -12.1318   19.6661 C   0  0  0  0  0  0  0  0  0  0  0  0
    7.9716  -12.2327   20.9212 C   0  0  0  0  0  0  0  0  0  0  0  0
    7.3760  -13.4216   21.3276 C   0  0  0  0  0  0  0  0  0  0  0  0
    7.3370  -14.5029   20.4836 C   0  0  0  0  0  0  0  0  0  0  0  0
    6.8450  -15.8927   24.1058 C   0  0  0  0  0  0  0  0  0  0  0  0
    5.9399  -15.0372   24.1374 O   0  0  0  0  0  0  0  0  0  0  0  0
    6.1810  -12.2200   25.9917 C   0  0  0  0  0  0  0  0  0  0  0  0
    7.0154  -13.3153   25.3142 C   0  0  0  0  0  0  0  0  0  0  0  0
    7.7931  -14.0635   26.3428 C   0  0  2  0  0  0  0  0  0  0  0  0
    8.6418  -13.1012   27.1282 C   0  0  0  0  0  0  0  0  0  0  0  0
    8.5813  -15.2302   25.7948 C   0  0  2  0  0  0  0  0  0  0  0  0
    7.5932  -16.1621   25.2751 N   0  0  0  0  0  0  0  0  0  0  0  0
    9.5049  -15.8394   26.7579 C   0  0  0  0  0  0  0  0  0  0  0  0
   10.4907  -15.1900   27.2160 O   0  0  0  0  0  0  0  0  0  0  0  0
    9.7114  -19.0223   28.8180 C   0  0  0  0  0  0  0  0  0  0  0  0
   10.2808  -17.8193   28.1265 C   0  0  2  0  0  0  0  0  0  0  0  0
    9.3494  -17.1730   27.2269 N   0  0  0  0  0  0  0  0  0  0  0  0
   11.4990  -18.2336   27.3473 C   0  0  0  0  0  0  0  0  0  0  0  0
   11.5566  -18.0567   26.1231 O   0  0  0  0  0  0  0  0  0  0  0  0
   12.5857  -18.8226   27.9787 O   0  0  0  0  0  0  0  0  0  0  0  0
  2  1  1  1
  3  2  1  0
  4  3  1  0
  4  5  2  0
  6  5  1  0
  7  6  1  0
  8  7  2  0
  9  8  1  0
 10  9  2  0
 10 11  1  0
 11 12  2  0
 12  7  1  0
 12  4  1  0
 13 20  1  0
 13  2  1  0
 14 13  2  0
 15 16  1  0
 16 17  1  0
 17 19  1  0
 17 18  1  6
 19 21  1  0
 19 20  1  1
 21 22  2  0
 24 23  1  6
 25 24  1  0
 25 21  1  0
 26 24  1  0
 26 28  1  0
 27 26  2  0
M  END
$$$$
