WIA.pdb
     RDKit          3D

 28 29  0  0  1  0  0  0  0  0999 V2000
    6.0678  -17.8815   24.8542 N   0  0  0  0  0  0  0  0  0  0  0  0
    6.7751  -16.6638   24.5354 C   0  0  1  0  0  0  0  0  0  0  0  0
    7.6354  -16.1530   25.6673 C   0  0  0  0  0  0  0  0  0  0  0  0
    6.9182  -15.0718   26.3882 C   0  0  0  0  0  0  0  0  0  0  0  0
    5.8904  -15.2179   27.2871 C   0  0  0  0  0  0  0  0  0  0  0  0
    5.4897  -14.0134   27.6983 N   0  0  0  0  0  0  0  0  0  0  0  0
    6.2153  -13.0670   27.1051 C   0  0  0  0  0  0  0  0  0  0  0  0
    6.1841  -11.6741   27.2087 C   0  0  0  0  0  0  0  0  0  0  0  0
    7.0577  -10.9253   26.4859 C   0  0  0  0  0  0  0  0  0  0  0  0
    7.9689  -11.5377   25.6560 C   0  0  0  0  0  0  0  0  0  0  0  0
    7.9987  -12.9241   25.5537 C   0  0  0  0  0  0  0  0  0  0  0  0
    7.1217  -13.6929   26.2769 C   0  0  0  0  0  0  0  0  0  0  0  0
    7.5425  -16.8852   23.2973 C   0  0  0  0  0  0  0  0  0  0  0  0
    8.1254  -17.9642   23.0785 O   0  0  0  0  0  0  0  0  0  0  0  0
    8.1998  -12.2858   19.9676 C   0  0  0  0  0  0  0  0  0  0  0  0
    8.6507  -13.4590   20.8480 C   0  0  0  0  0  0  0  0  0  0  0  0
    8.0930  -14.7334   20.3118 C   0  0  2  0  0  0  0  0  0  0  0  0
    6.6159  -14.5742   20.0747 C   0  0  0  0  0  0  0  0  0  0  0  0
    8.4273  -15.9520   21.1402 C   0  0  2  0  0  0  0  0  0  0  0  0
    7.6128  -15.8463   22.3403 N   0  0  0  0  0  0  0  0  0  0  0  0
    9.8577  -16.1161   21.4210 C   0  0  0  0  0  0  0  0  0  0  0  0
   10.4904  -15.2581   22.1044 O   0  0  0  0  0  0  0  0  0  0  0  0
   12.4472  -18.8531   21.1927 C   0  0  0  0  0  0  0  0  0  0  0  0
   12.0165  -17.4165   21.2130 C   0  0  2  0  0  0  0  0  0  0  0  0
   10.6054  -17.2307   20.9508 N   0  0  0  0  0  0  0  0  0  0  0  0
   12.8051  -16.6545   20.1832 C   0  0  0  0  0  0  0  0  0  0  0  0
   12.2819  -16.3074   19.1160 O   0  0  0  0  0  0  0  0  0  0  0  0
   14.1347  -16.3222   20.4026 O   0  0  0  0  0  0  0  0  0  0  0  0
  2  1  1  1
  3  2  1  0
  4  3  1  0
  4  5  2  0
  6  5  1  0
  7  6  1  0
  8  7  2  0
  9  8  1  0
 10  9  2  0
 10 11  1  0
 11 12  2  0
 12  7  1  0
 12  4  1  0
 13 20  1  0
 13  2  1  0
 14 13  2  0
 15 16  1  0
 16 17  1  0
 17 19  1  0
 17 18  1  1
 19 21  1  0
 19 20  1  1
 21 22  2  0
 24 23  1  6
 25 24  1  0
 25 21  1  0
 26 24  1  0
 26 28  1  0
 27 26  2  0
M  END
$$$$
