WIA.pdb
     RDKit          3D

 28 29  0  0  1  0  0  0  0  0999 V2000
    5.8776  -18.0367   24.4300 N   0  0  0  0  0  0  0  0  0  0  0  0
    6.5823  -16.7834   24.2982 C   0  0  1  0  0  0  0  0  0  0  0  0
    7.2583  -16.3355   25.5728 C   0  0  0  0  0  0  0  0  0  0  0  0
    6.5814  -15.1220   26.0948 C   0  0  0  0  0  0  0  0  0  0  0  0
    5.2665  -15.0072   26.4737 C   0  0  0  0  0  0  0  0  0  0  0  0
    5.0271  -13.7528   26.8607 N   0  0  0  0  0  0  0  0  0  0  0  0
    6.1378  -13.0254   26.7539 C   0  0  0  0  0  0  0  0  0  0  0  0
    6.3968  -11.6824   27.0386 C   0  0  0  0  0  0  0  0  0  0  0  0
    7.6449  -11.1815   26.8451 C   0  0  0  0  0  0  0  0  0  0  0  0
    8.6488  -11.9949   26.3710 C   0  0  0  0  0  0  0  0  0  0  0  0
    8.3896  -13.3313   26.0877 C   0  0  0  0  0  0  0  0  0  0  0  0
    7.1335  -13.8505   26.2773 C   0  0  0  0  0  0  0  0  0  0  0  0
    7.5225  -16.8977   23.1695 C   0  0  0  0  0  0  0  0  0  0  0  0
    7.9370  -18.0057   22.7792 O   0  0  0  0  0  0  0  0  0  0  0  0
    7.0772  -12.7992   19.6760 C   0  0  0  0  0  0  0  0  0  0  0  0
    7.2098  -14.1902   20.3103 C   0  0  0  0  0  0  0  0  0  0  0  0
    8.6387  -14.4581   20.6406 C   0  0  2  0  0  0  0  0  0  0  0  0
    9.4717  -14.3454   19.3929 C   0  0  0  0  0  0  0  0  0  0  0  0
    8.8692  -15.7518   21.3863 C   0  0  2  0  0  0  0  0  0  0  0  0
    7.9577  -15.7199   22.5189 N   0  0  0  0  0  0  0  0  0  0  0  0
   10.2655  -15.9857   21.7703 C   0  0  0  0  0  0  0  0  0  0  0  0
   10.8696  -15.1899   22.5483 O   0  0  0  0  0  0  0  0  0  0  0  0
   13.2561  -16.1244   21.0115 C   0  0  0  0  0  0  0  0  0  0  0  0
   12.4308  -17.2682   21.5217 C   0  0  2  0  0  0  0  0  0  0  0  0
   11.0103  -17.1022   21.2998 N   0  0  0  0  0  0  0  0  0  0  0  0
   12.6753  -17.4281   22.9974 C   0  0  0  0  0  0  0  0  0  0  0  0
   13.8254  -17.5597   23.4369 O   0  0  0  0  0  0  0  0  0  0  0  0
   11.6214  -17.4322   23.9006 O   0  0  0  0  0  0  0  0  0  0  0  0
  2  1  1  1
  3  2  1  0
  4  3  1  0
  4  5  2  0
  6  5  1  0
  7  6  1  0
  8  7  2  0
  9  8  1  0
 10  9  2  0
 10 11  1  0
 11 12  2  0
 12  7  1  0
 12  4  1  0
 13 20  1  0
 13  2  1  0
 14 13  2  0
 15 16  1  0
 16 17  1  0
 17 19  1  0
 17 18  1  6
 19 21  1  0
 19 20  1  1
 21 22  2  0
 24 23  1  1
 25 24  1  0
 25 21  1  0
 26 24  1  0
 26 28  1  0
 27 26  2  0
M  END
$$$$
