WIA.pdb
     RDKit          3D

 28 29  0  0  1  0  0  0  0  0999 V2000
   10.0872  -17.8884   21.8162 N   0  0  0  0  0  0  0  0  0  0  0  0
    9.2955  -16.7179   22.1126 C   0  0  1  0  0  0  0  0  0  0  0  0
    7.8504  -16.8457   21.6912 C   0  0  0  0  0  0  0  0  0  0  0  0
    7.5671  -15.8912   20.5903 C   0  0  0  0  0  0  0  0  0  0  0  0
    7.2033  -16.1989   19.3024 C   0  0  0  0  0  0  0  0  0  0  0  0
    7.0652  -15.0715   18.6020 N   0  0  0  0  0  0  0  0  0  0  0  0
    7.3238  -14.0206   19.3784 C   0  0  0  0  0  0  0  0  0  0  0  0
    7.3088  -12.6485   19.1157 C   0  0  0  0  0  0  0  0  0  0  0  0
    7.6098  -11.7696   20.1073 C   0  0  0  0  0  0  0  0  0  0  0  0
    7.9276  -12.2305   21.3646 C   0  0  0  0  0  0  0  0  0  0  0  0
    7.9425  -13.5964   21.6245 C   0  0  0  0  0  0  0  0  0  0  0  0
    7.6417  -14.4956   20.6325 C   0  0  0  0  0  0  0  0  0  0  0  0
    9.4414  -16.4114   23.5464 C   0  0  0  0  0  0  0  0  0  0  0  0
   10.1262  -17.1313   24.2980 O   0  0  0  0  0  0  0  0  0  0  0  0
    7.1408  -11.8322   27.0153 C   0  0  0  0  0  0  0  0  0  0  0  0
    8.0993  -13.0296   26.9684 C   0  0  0  0  0  0  0  0  0  0  0  0
    7.9540  -13.7394   25.6654 C   0  0  2  0  0  0  0  0  0  0  0  0
    6.5248  -14.1742   25.4877 C   0  0  0  0  0  0  0  0  0  0  0  0
    8.9406  -14.8652   25.4607 C   0  0  2  0  0  0  0  0  0  0  0  0
    8.7888  -15.2728   24.0731 N   0  0  0  0  0  0  0  0  0  0  0  0
    8.7967  -15.9732   26.4112 C   0  0  0  0  0  0  0  0  0  0  0  0
    7.6540  -16.4241   26.7184 O   0  0  0  0  0  0  0  0  0  0  0  0
   10.4346  -18.9698   27.4556 C   0  0  0  0  0  0  0  0  0  0  0  0
    9.8011  -17.7056   27.9555 C   0  0  2  0  0  0  0  0  0  0  0  0
    9.9138  -16.5965   27.0326 N   0  0  0  0  0  0  0  0  0  0  0  0
   10.4441  -17.3183   29.2592 C   0  0  0  0  0  0  0  0  0  0  0  0
   10.3956  -18.0759   30.2375 O   0  0  0  0  0  0  0  0  0  0  0  0
   11.1058  -16.1062   29.3980 O   0  0  0  0  0  0  0  0  0  0  0  0
  2  1  1  1
  3  2  1  0
  4  3  1  0
  4  5  2  0
  6  5  1  0
  7  6  1  0
  8  7  2  0
  9  8  1  0
 10  9  2  0
 10 11  1  0
 11 12  2  0
 12  7  1  0
 12  4  1  0
 13 20  1  0
 13  2  1  0
 14 13  2  0
 15 16  1  0
 16 17  1  0
 17 19  1  0
 17 18  1  1
 19 21  1  0
 19 20  1  6
 21 22  2  0
 24 23  1  6
 25 24  1  0
 25 21  1  0
 26 24  1  0
 26 28  1  0
 27 26  2  0
M  END
$$$$
