PQQ.pdb
     RDKit          3D

 26 26  0  0  1  0  0  0  0  0999 V2000
    8.2625  -14.8697   19.2216 N   0  0  0  0  0  0  0  0  0  0  0  0
    8.4118  -13.9255   18.1005 C   0  0  0  0  0  0  0  0  0  0  0  0
    7.6694  -12.6757   18.5691 C   0  0  0  0  0  0  0  0  0  0  0  0
    7.5499  -12.8485   20.0575 C   0  0  0  0  0  0  0  0  0  0  0  0
    8.5112  -13.9772   20.3402 C   0  0  1  0  0  0  0  0  0  0  0  0
    8.2474  -14.6317   21.6413 C   0  0  0  0  0  0  0  0  0  0  0  0
    8.3343  -13.9316   22.6833 O   0  0  0  0  0  0  0  0  0  0  0  0
    5.9072  -20.7531   22.0519 N   0  0  0  0  0  0  0  0  0  0  0  0
    5.2465  -19.8173   22.8918 C   0  0  0  0  0  0  0  0  0  0  0  0
    4.0350  -19.9813   23.1504 O   0  0  0  0  0  0  0  0  0  0  0  0
    5.9895  -18.6980   23.4353 C   0  0  0  0  0  0  0  0  0  0  0  0
    6.7345  -17.8156   22.5276 C   0  0  0  0  0  0  0  0  0  0  0  0
    7.4569  -16.6311   23.0084 C   0  0  2  0  0  0  0  0  0  0  0  0
    7.9120  -15.9826   21.7197 N   0  0  0  0  0  0  0  0  0  0  0  0
    8.6504  -16.7189   23.8084 C   0  0  0  0  0  0  0  0  0  0  0  0
    9.7765  -16.9255   23.2533 O   0  0  0  0  0  0  0  0  0  0  0  0
    9.6479  -14.5039   29.8071 N   0  0  0  0  0  0  0  0  0  0  0  0
    9.8282  -13.8595   28.5179 C   0  0  0  0  0  0  0  0  0  0  0  0
    9.8418  -12.5946   28.6045 O   0  0  0  0  0  0  0  0  0  0  0  0
    9.9592  -14.6164   27.2994 C   0  0  0  0  0  0  0  0  0  0  0  0
    9.9348  -16.0628   27.2217 C   0  0  0  0  0  0  0  0  0  0  0  0
   10.0636  -16.7441   25.9077 C   0  0  2  0  0  0  0  0  0  0  0  0
    8.7285  -16.5828   25.2280 N   0  0  0  0  0  0  0  0  0  0  0  0
   10.1539  -18.2060   26.0550 C   0  0  0  0  0  0  0  0  0  0  0  0
    9.0590  -19.0265   25.7619 O   0  0  0  0  0  0  0  0  0  0  0  0
   11.1678  -18.7935   26.4386 O   0  0  0  0  0  0  0  0  0  0  0  0
  2  1  1  0
  3  4  1  0
  3  2  1  0
  4  5  1  0
  5  1  1  0
  5  6  1  1
  7  6  2  0
  8  9  1  0
  9 10  2  0
  9 11  1  0
 11 12  1  0
 13 12  1  6
 13 15  1  0
 13 14  1  0
 14  6  1  0
 15 23  1  0
 16 15  2  0
 18 17  1  0
 19 18  2  0
 20 18  1  0
 21 20  1  0
 22 21  1  1
 23 22  1  0
 24 25  1  0
 24 22  1  0
 26 24  2  0
M  END
$$$$
