PQQ.pdb
     RDKit          3D

 26 26  0  0  1  0  0  0  0  0999 V2000
    7.1123  -14.7778   20.3679 N   0  0  0  0  0  0  0  0  0  0  0  0
    6.8457  -14.5371   18.9390 C   0  0  0  0  0  0  0  0  0  0  0  0
    7.4537  -13.1607   18.6768 C   0  0  0  0  0  0  0  0  0  0  0  0
    8.3851  -12.9372   19.8352 C   0  0  0  0  0  0  0  0  0  0  0  0
    8.4851  -14.3109   20.4523 C   0  0  1  0  0  0  0  0  0  0  0  0
    8.9716  -14.2687   21.8496 C   0  0  0  0  0  0  0  0  0  0  0  0
   10.1848  -13.9975   22.0449 O   0  0  0  0  0  0  0  0  0  0  0  0
    5.5284  -11.7635   25.9904 N   0  0  0  0  0  0  0  0  0  0  0  0
    6.5117  -12.2842   26.8734 C   0  0  0  0  0  0  0  0  0  0  0  0
    6.5164  -11.9123   28.0663 O   0  0  0  0  0  0  0  0  0  0  0  0
    7.4832  -13.2379   26.3763 C   0  0  0  0  0  0  0  0  0  0  0  0
    7.5853  -13.4795   24.9311 C   0  0  0  0  0  0  0  0  0  0  0  0
    8.5718  -14.4064   24.3620 C   0  0  2  0  0  0  0  0  0  0  0  0
    8.1187  -14.5203   22.9233 N   0  0  0  0  0  0  0  0  0  0  0  0
    8.7064  -15.7689   24.8063 C   0  0  0  0  0  0  0  0  0  0  0  0
    7.7864  -16.6132   24.5618 O   0  0  0  0  0  0  0  0  0  0  0  0
   13.2754  -19.5444   23.4961 N   0  0  0  0  0  0  0  0  0  0  0  0
   13.2259  -18.1679   23.9568 C   0  0  0  0  0  0  0  0  0  0  0  0
   14.2571  -17.5077   23.6275 O   0  0  0  0  0  0  0  0  0  0  0  0
   12.1119  -17.6574   24.7140 C   0  0  0  0  0  0  0  0  0  0  0  0
   10.8820  -18.3824   24.9600 C   0  0  0  0  0  0  0  0  0  0  0  0
    9.8276  -17.7953   25.8267 C   0  0  2  0  0  0  0  0  0  0  0  0
    9.8151  -16.3206   25.5178 N   0  0  0  0  0  0  0  0  0  0  0  0
   10.2174  -17.8043   27.2462 C   0  0  0  0  0  0  0  0  0  0  0  0
   10.3681  -19.0088   27.9421 O   0  0  0  0  0  0  0  0  0  0  0  0
   10.4287  -16.7830   27.9040 O   0  0  0  0  0  0  0  0  0  0  0  0
  2  1  1  0
  3  4  1  0
  3  2  1  0
  4  5  1  0
  5  1  1  0
  5  6  1  1
  7  6  2  0
  8  9  1  0
  9 10  2  0
  9 11  1  0
 11 12  1  0
 13 12  1  1
 13 15  1  0
 13 14  1  0
 14  6  1  0
 15 23  1  0
 16 15  2  0
 18 17  1  0
 19 18  2  0
 20 18  1  0
 21 20  1  0
 22 21  1  6
 23 22  1  0
 24 25  1  0
 24 22  1  0
 26 24  2  0
M  END
$$$$
