PQQ.pdb
     RDKit          3D

 26 26  0  0  1  0  0  0  0  0999 V2000
    7.3508  -15.3206   18.9376 N   0  0  0  0  0  0  0  0  0  0  0  0
    7.9825  -14.4949   17.8938 C   0  0  0  0  0  0  0  0  0  0  0  0
    8.0139  -13.0935   18.5004 C   0  0  0  0  0  0  0  0  0  0  0  0
    7.8149  -13.3195   19.9729 C   0  0  0  0  0  0  0  0  0  0  0  0
    8.0303  -14.8067   20.1140 C   0  0  1  0  0  0  0  0  0  0  0  0
    7.4542  -15.3449   21.3668 C   0  0  0  0  0  0  0  0  0  0  0  0
    6.4930  -14.7236   21.8897 O   0  0  0  0  0  0  0  0  0  0  0  0
    6.8525  -19.6953   26.5032 N   0  0  0  0  0  0  0  0  0  0  0  0
    7.5885  -19.5914   25.2926 C   0  0  0  0  0  0  0  0  0  0  0  0
    8.8360  -19.6500   25.3321 O   0  0  0  0  0  0  0  0  0  0  0  0
    6.8799  -19.4262   24.0393 C   0  0  0  0  0  0  0  0  0  0  0  0
    7.3941  -18.4840   23.0366 C   0  0  0  0  0  0  0  0  0  0  0  0
    7.4312  -17.0352   23.2729 C   0  0  2  0  0  0  0  0  0  0  0  0
    7.9550  -16.5045   21.9567 N   0  0  0  0  0  0  0  0  0  0  0  0
    8.2777  -16.4303   24.2677 C   0  0  0  0  0  0  0  0  0  0  0  0
    9.4911  -16.1617   23.9946 O   0  0  0  0  0  0  0  0  0  0  0  0
    5.1159  -11.7693   26.4732 N   0  0  0  0  0  0  0  0  0  0  0  0
    6.4316  -11.5821   27.0592 C   0  0  0  0  0  0  0  0  0  0  0  0
    6.5401  -10.4743   27.6664 O   0  0  0  0  0  0  0  0  0  0  0  0
    7.4722  -12.5694   26.9270 C   0  0  0  0  0  0  0  0  0  0  0  0
    7.3170  -13.8449   26.2580 C   0  0  0  0  0  0  0  0  0  0  0  0
    8.4529  -14.8005   26.1958 C   0  0  2  0  0  0  0  0  0  0  0  0
    7.8949  -16.0642   25.5941 N   0  0  0  0  0  0  0  0  0  0  0  0
    8.8594  -15.2565   27.5351 C   0  0  0  0  0  0  0  0  0  0  0  0
    9.8608  -14.5882   28.2483 O   0  0  0  0  0  0  0  0  0  0  0  0
    8.3646  -16.2315   28.1052 O   0  0  0  0  0  0  0  0  0  0  0  0
  2  1  1  0
  3  4  1  0
  3  2  1  0
  4  5  1  0
  5  1  1  0
  5  6  1  1
  7  6  2  0
  8  9  1  0
  9 10  2  0
  9 11  1  0
 11 12  1  0
 13 12  1  6
 13 15  1  0
 13 14  1  0
 14  6  1  0
 15 23  1  0
 16 15  2  0
 18 17  1  0
 19 18  2  0
 20 18  1  0
 21 20  1  0
 22 21  1  1
 23 22  1  0
 24 25  1  0
 24 22  1  0
 26 24  2  0
M  END
$$$$
