PQQ.pdb
     RDKit          3D

 26 26  0  0  1  0  0  0  0  0999 V2000
   10.2546  -15.6741   13.8250 N   0  0  0  0  0  0  0  0  0  0  0  0
   10.0599  -16.7826   12.8742 C   0  0  0  0  0  0  0  0  0  0  0  0
   10.1746  -18.0358   13.7398 C   0  0  0  0  0  0  0  0  0  0  0  0
    9.9804  -17.5382   15.1448 C   0  0  0  0  0  0  0  0  0  0  0  0
    9.4418  -16.1442   14.9332 C   0  0  1  0  0  0  0  0  0  0  0  0
    9.5937  -15.2915   16.1334 C   0  0  0  0  0  0  0  0  0  0  0  0
   10.6915  -14.7003   16.3030 O   0  0  0  0  0  0  0  0  0  0  0  0
    8.4163  -11.3161   19.7997 N   0  0  0  0  0  0  0  0  0  0  0  0
    7.9034  -12.4274   20.5207 C   0  0  0  0  0  0  0  0  0  0  0  0
    8.2905  -12.6236   21.6925 O   0  0  0  0  0  0  0  0  0  0  0  0
    6.9398  -13.3052   19.8872 C   0  0  0  0  0  0  0  0  0  0  0  0
    7.3066  -14.0102   18.6519 C   0  0  0  0  0  0  0  0  0  0  0  0
    8.7025  -14.3113   18.3096 C   0  0  2  0  0  0  0  0  0  0  0  0
    8.5573  -15.1418   17.0537 N   0  0  0  0  0  0  0  0  0  0  0  0
    9.5615  -15.0922   19.1607 C   0  0  0  0  0  0  0  0  0  0  0  0
    9.5900  -16.3593   19.0477 O   0  0  0  0  0  0  0  0  0  0  0  0
   15.5836  -14.0715   19.6207 N   0  0  0  0  0  0  0  0  0  0  0  0
   15.3349  -15.1451   20.5669 C   0  0  0  0  0  0  0  0  0  0  0  0
   16.4042  -15.6173   21.0582 O   0  0  0  0  0  0  0  0  0  0  0  0
   14.0022  -15.5987   20.8717 C   0  0  0  0  0  0  0  0  0  0  0  0
   12.7886  -14.9768   20.3828 C   0  0  0  0  0  0  0  0  0  0  0  0
   11.4608  -15.5125   20.7795 C   0  0  2  0  0  0  0  0  0  0  0  0
   10.4433  -14.5871   20.1642 N   0  0  0  0  0  0  0  0  0  0  0  0
   11.2044  -15.3315   22.2177 C   0  0  0  0  0  0  0  0  0  0  0  0
   11.7249  -16.2271   23.1585 O   0  0  0  0  0  0  0  0  0  0  0  0
   10.5308  -14.4088   22.6817 O   0  0  0  0  0  0  0  0  0  0  0  0
  2  1  1  0
  3  4  1  0
  3  2  1  0
  4  5  1  0
  5  1  1  0
  5  6  1  1
  7  6  2  0
  8  9  1  0
  9 10  2  0
  9 11  1  0
 11 12  1  0
 13 12  1  1
 13 15  1  0
 13 14  1  0
 14  6  1  0
 15 23  1  0
 16 15  2  0
 18 17  1  0
 19 18  2  0
 20 18  1  0
 21 20  1  0
 22 21  1  1
 23 22  1  0
 24 25  1  0
 24 22  1  0
 26 24  2  0
M  END
$$$$
