PQQ.pdb
     RDKit          3D

 26 26  0  0  1  0  0  0  0  0999 V2000
    9.0608  -14.5319   18.7723 N   0  0  0  0  0  0  0  0  0  0  0  0
    9.0096  -13.5708   17.6568 C   0  0  0  0  0  0  0  0  0  0  0  0
    7.5960  -12.9967   17.7289 C   0  0  0  0  0  0  0  0  0  0  0  0
    7.1248  -13.3376   19.1149 C   0  0  0  0  0  0  0  0  0  0  0  0
    8.3993  -13.7559   19.8067 C   0  0  1  0  0  0  0  0  0  0  0  0
    8.1443  -14.5582   21.0242 C   0  0  0  0  0  0  0  0  0  0  0  0
    7.3548  -14.0905   21.8852 O   0  0  0  0  0  0  0  0  0  0  0  0
   10.1042  -20.5073   21.1587 N   0  0  0  0  0  0  0  0  0  0  0  0
    9.1510  -19.9015   20.2972 C   0  0  0  0  0  0  0  0  0  0  0  0
    8.8433  -20.4755   19.2308 O   0  0  0  0  0  0  0  0  0  0  0  0
    8.5518  -18.6368   20.6738 C   0  0  0  0  0  0  0  0  0  0  0  0
    8.9452  -17.9977   21.9364 C   0  0  0  0  0  0  0  0  0  0  0  0
    8.3868  -16.7097   22.3670 C   0  0  2  0  0  0  0  0  0  0  0  0
    8.7560  -15.7956   21.2197 N   0  0  0  0  0  0  0  0  0  0  0  0
    8.8456  -16.0164   23.5421 C   0  0  0  0  0  0  0  0  0  0  0  0
    9.9140  -15.3266   23.4991 O   0  0  0  0  0  0  0  0  0  0  0  0
    5.3455  -12.3994   27.1283 N   0  0  0  0  0  0  0  0  0  0  0  0
    6.6362  -11.9187   26.6672 C   0  0  0  0  0  0  0  0  0  0  0  0
    6.7033  -10.6527   26.6437 O   0  0  0  0  0  0  0  0  0  0  0  0
    7.6900  -12.8200   26.2770 C   0  0  0  0  0  0  0  0  0  0  0  0
    7.6057  -14.2645   26.3458 C   0  0  0  0  0  0  0  0  0  0  0  0
    8.7484  -15.1030   25.9002 C   0  0  2  0  0  0  0  0  0  0  0  0
    8.2039  -15.9989   24.8179 N   0  0  0  0  0  0  0  0  0  0  0  0
    9.1464  -16.0780   26.9288 C   0  0  0  0  0  0  0  0  0  0  0  0
   10.0645  -15.7344   27.9273 O   0  0  0  0  0  0  0  0  0  0  0  0
    8.7156  -17.2322   26.9805 O   0  0  0  0  0  0  0  0  0  0  0  0
  2  1  1  0
  3  4  1  0
  3  2  1  0
  4  5  1  0
  5  1  1  0
  5  6  1  1
  7  6  2  0
  8  9  1  0
  9 10  2  0
  9 11  1  0
 11 12  1  0
 13 12  1  6
 13 15  1  0
 13 14  1  0
 14  6  1  0
 15 23  1  0
 16 15  2  0
 18 17  1  0
 19 18  2  0
 20 18  1  0
 21 20  1  0
 22 21  1  1
 23 22  1  0
 24 25  1  0
 24 22  1  0
 26 24  2  0
M  END
$$$$
