MCP.pdb
     RDKit          3D

 22 22  0  0  1  0  0  0  0  0999 V2000
   10.8912  -14.5033   29.0710 C   0  0  0  0  0  0  0  0  0  0  0  0
   11.0706  -16.3064   29.0976 S   0  0  0  0  0  0  0  0  0  0  0  0
    9.5896  -17.1190   28.4454 C   0  0  0  0  0  0  0  0  0  0  0  0
    9.0499  -16.3879   27.2227 C   0  0  0  0  0  0  0  0  0  0  0  0
    7.7160  -17.0193   26.9020 C   0  0  2  0  0  0  0  0  0  0  0  0
    7.9800  -18.3918   26.5261 N   0  0  0  0  0  0  0  0  0  0  0  0
    6.9969  -16.3462   25.8230 C   0  0  0  0  0  0  0  0  0  0  0  0
    6.4999  -17.0474   24.9037 O   0  0  0  0  0  0  0  0  0  0  0  0
    6.8024  -14.9653   25.7094 N   0  0  0  0  0  0  0  0  0  0  0  0
    6.6465  -14.3127   24.4293 C   0  0  1  0  0  0  0  0  0  0  0  0
    6.6491  -12.8144   24.5597 C   0  0  0  0  0  0  0  0  0  0  0  0
    5.7264  -12.3235   26.0731 S   0  0  0  0  0  0  0  0  0  0  0  0
    7.7218  -14.7077   23.4942 C   0  0  0  0  0  0  0  0  0  0  0  0
    8.4883  -15.6484   23.9062 O   0  0  0  0  0  0  0  0  0  0  0  0
    7.9003  -14.1067   22.2428 N   0  0  0  0  0  0  0  0  0  0  0  0
    7.4066  -12.8679   21.7237 C   0  0  0  0  0  0  0  0  0  0  0  0
    7.2209  -13.1092   20.2123 C   0  0  0  0  0  0  0  0  0  0  0  0
    7.7209  -14.5205   19.9973 C   0  0  0  0  0  0  0  0  0  0  0  0
    8.6776  -14.6902   21.1590 C   0  0  1  0  0  0  0  0  0  0  0  0
    9.9044  -13.9336   20.8527 C   0  0  0  0  0  0  0  0  0  0  0  0
   10.6331  -14.3725   19.9174 O   0  0  0  0  0  0  0  0  0  0  0  0
   10.3362  -12.7941   21.4859 O   0  0  0  0  0  0  0  0  0  0  0  0
  2  1  1  0
  3  4  1  0
  3  2  1  0
  4  5  1  0
  5  7  1  0
  5  6  1  6
  7  8  2  0
  9  7  1  0
  9 10  1  0
 10 13  1  0
 10 11  1  1
 12 11  1  0
 13 14  2  0
 13 15  1  0
 15 16  1  0
 16 17  1  0
 18 17  1  0
 19 15  1  0
 19 18  1  0
 19 20  1  6
 21 20  2  0
 22 20  1  0
M  END
$$$$
