MCP.pdb
     RDKit          3D

 22 22  0  0  1  0  0  0  0  0999 V2000
   12.6145  -19.2616   24.5567 C   0  0  0  0  0  0  0  0  0  0  0  0
   13.4831  -17.9849   23.6082 S   0  0  0  0  0  0  0  0  0  0  0  0
   12.3688  -17.1730   22.4343 C   0  0  0  0  0  0  0  0  0  0  0  0
   11.3818  -18.1645   21.8314 C   0  0  0  0  0  0  0  0  0  0  0  0
   10.4654  -17.3642   20.9366 C   0  0  2  0  0  0  0  0  0  0  0  0
   11.2919  -16.7826   19.9006 N   0  0  0  0  0  0  0  0  0  0  0  0
    9.7438  -16.3055   21.6387 C   0  0  0  0  0  0  0  0  0  0  0  0
   10.2619  -15.1598   21.6932 O   0  0  0  0  0  0  0  0  0  0  0  0
    8.5037  -16.4445   22.2716 N   0  0  0  0  0  0  0  0  0  0  0  0
    7.8589  -15.3441   22.9513 C   0  0  1  0  0  0  0  0  0  0  0  0
    6.3889  -15.5921   23.1505 C   0  0  0  0  0  0  0  0  0  0  0  0
    6.1499  -17.0789   24.2064 S   0  0  0  0  0  0  0  0  0  0  0  0
    8.4791  -15.0942   24.2703 C   0  0  0  0  0  0  0  0  0  0  0  0
    9.6194  -15.6492   24.4537 O   0  0  0  0  0  0  0  0  0  0  0  0
    7.8755  -14.3068   25.2576 N   0  0  0  0  0  0  0  0  0  0  0  0
    6.6032  -13.6522   25.2807 C   0  0  0  0  0  0  0  0  0  0  0  0
    6.8153  -12.3880   26.1373 C   0  0  0  0  0  0  0  0  0  0  0  0
    8.2517  -12.4899   26.6003 C   0  0  0  0  0  0  0  0  0  0  0  0
    8.4924  -13.9837   26.5360 C   0  0  1  0  0  0  0  0  0  0  0  0
    7.8079  -14.6049   27.6835 C   0  0  0  0  0  0  0  0  0  0  0  0
    6.6805  -15.1336   27.4641 O   0  0  0  0  0  0  0  0  0  0  0  0
    8.2756  -14.6664   28.9733 O   0  0  0  0  0  0  0  0  0  0  0  0
  2  1  1  0
  3  4  1  0
  3  2  1  0
  4  5  1  0
  5  7  1  0
  5  6  1  6
  7  8  2  0
  9  7  1  0
  9 10  1  0
 10 13  1  0
 10 11  1  1
 12 11  1  0
 13 14  2  0
 13 15  1  0
 15 16  1  0
 16 17  1  0
 18 17  1  0
 19 15  1  0
 19 18  1  0
 19 20  1  1
 21 20  2  0
 22 20  1  0
M  END
$$$$
