MCP.pdb
     RDKit          3D

 22 22  0  0  1  0  0  0  0  0999 V2000
    8.0271  -11.9073   19.7383 C   0  0  0  0  0  0  0  0  0  0  0  0
    8.1020  -13.1616   18.4325 S   0  0  0  0  0  0  0  0  0  0  0  0
    8.8091  -14.7086   19.0538 C   0  0  0  0  0  0  0  0  0  0  0  0
    9.0013  -14.6623   20.5643 C   0  0  0  0  0  0  0  0  0  0  0  0
    8.2521  -15.8470   21.1265 C   0  0  2  0  0  0  0  0  0  0  0  0
    7.0817  -16.0368   20.2965 N   0  0  0  0  0  0  0  0  0  0  0  0
    7.8421  -15.6705   22.5176 C   0  0  0  0  0  0  0  0  0  0  0  0
    6.8869  -14.8901   22.7677 O   0  0  0  0  0  0  0  0  0  0  0  0
    8.4215  -16.2994   23.6251 N   0  0  0  0  0  0  0  0  0  0  0  0
    8.1560  -15.8711   24.9796 C   0  0  1  0  0  0  0  0  0  0  0  0
    7.0814  -16.6990   25.6290 C   0  0  0  0  0  0  0  0  0  0  0  0
    7.5810  -18.4690   25.6319 S   0  0  0  0  0  0  0  0  0  0  0  0
    9.3765  -15.9440   25.8115 C   0  0  0  0  0  0  0  0  0  0  0  0
   10.3846  -16.5086   25.2573 O   0  0  0  0  0  0  0  0  0  0  0  0
    9.4410  -15.4342   27.1135 N   0  0  0  0  0  0  0  0  0  0  0  0
    8.4394  -14.8080   27.9211 C   0  0  0  0  0  0  0  0  0  0  0  0
    9.2043  -13.8032   28.8055 C   0  0  0  0  0  0  0  0  0  0  0  0
   10.6565  -14.0184   28.4414 C   0  0  0  0  0  0  0  0  0  0  0  0
   10.6410  -15.4465   27.9376 C   0  0  1  0  0  0  0  0  0  0  0  0
   10.5336  -16.3398   29.1046 C   0  0  0  0  0  0  0  0  0  0  0  0
    9.4136  -16.8904   29.3071 O   0  0  0  0  0  0  0  0  0  0  0  0
   11.5342  -16.6342   29.9979 O   0  0  0  0  0  0  0  0  0  0  0  0
  2  1  1  0
  3  4  1  0
  3  2  1  0
  4  5  1  0
  5  7  1  0
  5  6  1  6
  7  8  2  0
  9  7  1  0
  9 10  1  0
 10 13  1  0
 10 11  1  1
 12 11  1  0
 13 14  2  0
 13 15  1  0
 15 16  1  0
 16 17  1  0
 18 17  1  0
 19 15  1  0
 19 18  1  0
 19 20  1  1
 21 20  2  0
 22 20  1  0
M  END
$$$$
