MCP.pdb
     RDKit          3D

 22 22  0  0  1  0  0  0  0  0999 V2000
    6.1315  -13.2551   27.4688 C   0  0  0  0  0  0  0  0  0  0  0  0
    7.8354  -13.8620   27.3581 S   0  0  0  0  0  0  0  0  0  0  0  0
    7.8886  -15.6711   27.4171 C   0  0  0  0  0  0  0  0  0  0  0  0
    6.6640  -16.2831   26.7490 C   0  0  0  0  0  0  0  0  0  0  0  0
    7.1495  -16.9183   25.4676 C   0  0  2  0  0  0  0  0  0  0  0  0
    8.5336  -17.2854   25.6784 N   0  0  0  0  0  0  0  0  0  0  0  0
    7.0482  -16.0382   24.3060 C   0  0  0  0  0  0  0  0  0  0  0  0
    5.9706  -16.0234   23.6559 O   0  0  0  0  0  0  0  0  0  0  0  0
    8.0562  -15.1901   23.8344 N   0  0  0  0  0  0  0  0  0  0  0  0
    7.8576  -14.3133   22.7028 C   0  0  1  0  0  0  0  0  0  0  0  0
    8.6454  -13.0391   22.8356 C   0  0  0  0  0  0  0  0  0  0  0  0
    8.4156  -12.3427   24.5223 S   0  0  0  0  0  0  0  0  0  0  0  0
    8.2425  -14.9775   21.4389 C   0  0  0  0  0  0  0  0  0  0  0  0
    8.2286  -16.2586   21.4666 O   0  0  0  0  0  0  0  0  0  0  0  0
    8.5971  -14.2693   20.2848 N   0  0  0  0  0  0  0  0  0  0  0  0
    8.6503  -12.8615   20.0334 C   0  0  0  0  0  0  0  0  0  0  0  0
    8.3055  -12.7053   18.5388 C   0  0  0  0  0  0  0  0  0  0  0  0
    8.1487  -14.1258   18.0434 C   0  0  0  0  0  0  0  0  0  0  0  0
    8.9991  -14.8944   19.0331 C   0  0  1  0  0  0  0  0  0  0  0  0
   10.4142  -14.6596   18.6961 C   0  0  0  0  0  0  0  0  0  0  0  0
   10.8662  -15.2435   17.6697 O   0  0  0  0  0  0  0  0  0  0  0  0
   11.2944  -13.8660   19.3899 O   0  0  0  0  0  0  0  0  0  0  0  0
  2  1  1  0
  3  4  1  0
  3  2  1  0
  4  5  1  0
  5  7  1  0
  5  6  1  1
  7  8  2  0
  9  7  1  0
  9 10  1  0
 10 13  1  0
 10 11  1  1
 12 11  1  0
 13 14  2  0
 13 15  1  0
 15 16  1  0
 16 17  1  0
 18 17  1  0
 19 15  1  0
 19 18  1  0
 19 20  1  6
 21 20  2  0
 22 20  1  0
M  END
$$$$
