MCP.pdb
     RDKit          3D

 22 22  0  0  1  0  0  0  0  0999 V2000
    9.0790  -14.0824   29.7699 C   0  0  0  0  0  0  0  0  0  0  0  0
   10.2477  -14.9376   28.6806 S   0  0  0  0  0  0  0  0  0  0  0  0
    9.6493  -16.5923   28.2525 C   0  0  0  0  0  0  0  0  0  0  0  0
    8.2397  -16.8251   28.7810 C   0  0  0  0  0  0  0  0  0  0  0  0
    7.5202  -17.6409   27.7332 C   0  0  2  0  0  0  0  0  0  0  0  0
    8.3265  -18.8180   27.4900 N   0  0  0  0  0  0  0  0  0  0  0  0
    7.3110  -16.9232   26.4781 C   0  0  0  0  0  0  0  0  0  0  0  0
    7.1635  -17.5912   25.4217 O   0  0  0  0  0  0  0  0  0  0  0  0
    7.2574  -15.5326   26.3324 N   0  0  0  0  0  0  0  0  0  0  0  0
    7.0826  -14.8997   25.0450 C   0  0  1  0  0  0  0  0  0  0  0  0
    7.1388  -13.4002   25.1450 C   0  0  0  0  0  0  0  0  0  0  0  0
    6.5506  -12.8684   26.8045 S   0  0  0  0  0  0  0  0  0  0  0  0
    8.1141  -15.3485   24.0850 C   0  0  0  0  0  0  0  0  0  0  0  0
    8.9174  -16.2455   24.5232 O   0  0  0  0  0  0  0  0  0  0  0  0
    8.2161  -14.8396   22.7851 N   0  0  0  0  0  0  0  0  0  0  0  0
    7.8211  -13.5749   22.2444 C   0  0  0  0  0  0  0  0  0  0  0  0
    7.4295  -13.8658   20.7820 C   0  0  0  0  0  0  0  0  0  0  0  0
    7.7224  -15.3391   20.6051 C   0  0  0  0  0  0  0  0  0  0  0  0
    8.7815  -15.5732   21.6620 C   0  0  1  0  0  0  0  0  0  0  0  0
   10.0474  -14.9991   21.1729 C   0  0  0  0  0  0  0  0  0  0  0  0
   10.3809  -13.8680   21.6291 O   0  0  0  0  0  0  0  0  0  0  0  0
   10.9042  -15.5736   20.2664 O   0  0  0  0  0  0  0  0  0  0  0  0
  2  1  1  0
  3  4  1  0
  3  2  1  0
  4  5  1  0
  5  7  1  0
  5  6  1  6
  7  8  2  0
  9  7  1  0
  9 10  1  0
 10 13  1  0
 10 11  1  1
 12 11  1  0
 13 14  2  0
 13 15  1  0
 15 16  1  0
 16 17  1  0
 18 17  1  0
 19 15  1  0
 19 18  1  0
 19 20  1  6
 21 20  2  0
 22 20  1  0
M  END
$$$$
