MCP.pdb
     RDKit          3D

 22 22  0  0  1  0  0  0  0  0999 V2000
    8.9074  -13.9549   28.1657 C   0  0  0  0  0  0  0  0  0  0  0  0
    9.7541  -15.5511   28.0276 S   0  0  0  0  0  0  0  0  0  0  0  0
    8.8178  -16.6983   26.9853 C   0  0  0  0  0  0  0  0  0  0  0  0
    7.4467  -16.1345   26.6348 C   0  0  0  0  0  0  0  0  0  0  0  0
    6.9325  -16.9531   25.4743 C   0  0  2  0  0  0  0  0  0  0  0  0
    7.8642  -18.0441   25.2838 N   0  0  0  0  0  0  0  0  0  0  0  0
    6.8099  -16.1920   24.2333 C   0  0  0  0  0  0  0  0  0  0  0  0
    6.0099  -16.6034   23.3531 O   0  0  0  0  0  0  0  0  0  0  0  0
    7.5117  -15.0227   23.9205 N   0  0  0  0  0  0  0  0  0  0  0  0
    7.3602  -14.3506   22.6501 C   0  0  1  0  0  0  0  0  0  0  0  0
    7.6614  -12.8808   22.7539 C   0  0  0  0  0  0  0  0  0  0  0  0
    9.2281  -12.6346   23.6853 S   0  0  0  0  0  0  0  0  0  0  0  0
    8.2447  -14.9431   21.6238 C   0  0  0  0  0  0  0  0  0  0  0  0
    8.7788  -16.0638   21.9413 O   0  0  0  0  0  0  0  0  0  0  0  0
    8.4888  -14.3347   20.3870 N   0  0  0  0  0  0  0  0  0  0  0  0
    8.0523  -13.0763   19.8638 C   0  0  0  0  0  0  0  0  0  0  0  0
    7.9174  -13.2962   18.3438 C   0  0  0  0  0  0  0  0  0  0  0  0
    8.3832  -14.7196   18.1317 C   0  0  0  0  0  0  0  0  0  0  0  0
    9.2893  -14.9301   19.3268 C   0  0  1  0  0  0  0  0  0  0  0  0
   10.5488  -14.2076   19.0761 C   0  0  0  0  0  0  0  0  0  0  0  0
   11.3429  -14.7111   18.2308 O   0  0  0  0  0  0  0  0  0  0  0  0
   10.9470  -13.0366   19.6727 O   0  0  0  0  0  0  0  0  0  0  0  0
  2  1  1  0
  3  4  1  0
  3  2  1  0
  4  5  1  0
  5  7  1  0
  5  6  1  6
  7  8  2  0
  9  7  1  0
  9 10  1  0
 10 13  1  0
 10 11  1  1
 12 11  1  0
 13 14  2  0
 13 15  1  0
 15 16  1  0
 16 17  1  0
 18 17  1  0
 19 15  1  0
 19 18  1  0
 19 20  1  6
 21 20  2  0
 22 20  1  0
M  END
$$$$
