MCP.pdb
     RDKit          3D

 22 22  0  0  1  0  0  0  0  0999 V2000
    6.9700  -11.8182   18.5736 C   0  0  0  0  0  0  0  0  0  0  0  0
    7.7268  -13.2745   17.8055 S   0  0  0  0  0  0  0  0  0  0  0  0
    8.0496  -14.5660   19.0331 C   0  0  0  0  0  0  0  0  0  0  0  0
    8.5689  -13.9733   20.3368 C   0  0  0  0  0  0  0  0  0  0  0  0
    8.6786  -15.1201   21.3134 C   0  0  2  0  0  0  0  0  0  0  0  0
    7.4352  -15.8571   21.2379 N   0  0  0  0  0  0  0  0  0  0  0  0
    8.9110  -14.6924   22.6908 C   0  0  0  0  0  0  0  0  0  0  0  0
    9.9460  -14.0231   22.9453 O   0  0  0  0  0  0  0  0  0  0  0  0
    8.0754  -14.9607   23.7806 N   0  0  0  0  0  0  0  0  0  0  0  0
    8.3580  -14.4640   25.1079 C   0  0  1  0  0  0  0  0  0  0  0  0
    7.0993  -14.1927   25.8850 C   0  0  0  0  0  0  0  0  0  0  0  0
    6.1361  -15.7491   26.0654 S   0  0  0  0  0  0  0  0  0  0  0  0
    9.1875  -15.4215   25.8709 C   0  0  0  0  0  0  0  0  0  0  0  0
    9.5998  -16.4383   25.2089 O   0  0  0  0  0  0  0  0  0  0  0  0
    9.5095  -15.2413   27.2211 N   0  0  0  0  0  0  0  0  0  0  0  0
    8.8933  -14.4316   28.2273 C   0  0  0  0  0  0  0  0  0  0  0  0
   10.0417  -14.0113   29.1662 C   0  0  0  0  0  0  0  0  0  0  0  0
   11.2558  -14.7204   28.6084 C   0  0  0  0  0  0  0  0  0  0  0  0
   10.6253  -15.8949   27.8897 C   0  0  1  0  0  0  0  0  0  0  0  0
   10.1996  -16.8745   28.9048 C   0  0  0  0  0  0  0  0  0  0  0  0
   11.1109  -17.4742   29.5440 O   0  0  0  0  0  0  0  0  0  0  0  0
    8.9053  -17.2019   29.2263 O   0  0  0  0  0  0  0  0  0  0  0  0
  2  1  1  0
  3  4  1  0
  3  2  1  0
  4  5  1  0
  5  7  1  0
  5  6  1  1
  7  8  2  0
  9  7  1  0
  9 10  1  0
 10 13  1  0
 10 11  1  1
 12 11  1  0
 13 14  2  0
 13 15  1  0
 15 16  1  0
 16 17  1  0
 18 17  1  0
 19 15  1  0
 19 18  1  0
 19 20  1  1
 21 20  2  0
 22 20  1  0
M  END
$$$$
