MCP.pdb
     RDKit          3D

 22 22  0  0  1  0  0  0  0  0999 V2000
   10.3470  -15.3394   30.5799 C   0  0  0  0  0  0  0  0  0  0  0  0
    9.8005  -14.8730   28.9163 S   0  0  0  0  0  0  0  0  0  0  0  0
   10.5057  -15.9756   27.6649 C   0  0  0  0  0  0  0  0  0  0  0  0
    9.9714  -17.3945   27.8128 C   0  0  0  0  0  0  0  0  0  0  0  0
    8.4653  -17.2836   27.8331 C   0  0  2  0  0  0  0  0  0  0  0  0
    7.9492  -18.6117   28.0870 N   0  0  0  0  0  0  0  0  0  0  0  0
    7.9019  -16.7697   26.5870 C   0  0  0  0  0  0  0  0  0  0  0  0
    7.7667  -17.5610   25.6177 O   0  0  0  0  0  0  0  0  0  0  0  0
    7.4882  -15.4523   26.3607 N   0  0  0  0  0  0  0  0  0  0  0  0
    7.1096  -14.9790   25.0487 C   0  0  1  0  0  0  0  0  0  0  0  0
    7.0201  -13.4786   24.9981 C   0  0  0  0  0  0  0  0  0  0  0  0
    6.0159  -12.8707   26.4139 S   0  0  0  0  0  0  0  0  0  0  0  0
    8.0717  -15.4302   24.0203 C   0  0  0  0  0  0  0  0  0  0  0  0
    8.8668  -16.3660   24.3865 O   0  0  0  0  0  0  0  0  0  0  0  0
    8.1201  -14.8841   22.7324 N   0  0  0  0  0  0  0  0  0  0  0  0
    7.5272  -13.6955   22.2000 C   0  0  0  0  0  0  0  0  0  0  0  0
    7.2328  -14.0188   20.7216 C   0  0  0  0  0  0  0  0  0  0  0  0
    7.7814  -15.4153   20.5305 C   0  0  0  0  0  0  0  0  0  0  0  0
    8.8352  -15.4851   21.6159 C   0  0  1  0  0  0  0  0  0  0  0  0
    9.9956  -14.6908   21.1756 C   0  0  0  0  0  0  0  0  0  0  0  0
   10.6579  -15.1343   20.1942 O   0  0  0  0  0  0  0  0  0  0  0  0
   10.4307  -13.5116   21.7287 O   0  0  0  0  0  0  0  0  0  0  0  0
  2  1  1  0
  3  4  1  0
  3  2  1  0
  4  5  1  0
  5  7  1  0
  5  6  1  6
  7  8  2  0
  9  7  1  0
  9 10  1  0
 10 13  1  0
 10 11  1  1
 12 11  1  0
 13 14  2  0
 13 15  1  0
 15 16  1  0
 16 17  1  0
 18 17  1  0
 19 15  1  0
 19 18  1  0
 19 20  1  6
 21 20  2  0
 22 20  1  0
M  END
$$$$
