MCP.pdb
     RDKit          3D

 22 22  0  0  1  0  0  0  0  0999 V2000
    9.0649  -14.2767   29.0573 C   0  0  0  0  0  0  0  0  0  0  0  0
   10.2942  -15.5611   29.4080 S   0  0  0  0  0  0  0  0  0  0  0  0
   10.9042  -16.3151   27.8788 C   0  0  0  0  0  0  0  0  0  0  0  0
   10.0862  -17.5439   27.5028 C   0  0  0  0  0  0  0  0  0  0  0  0
    8.6383  -17.1783   27.7283 C   0  0  2  0  0  0  0  0  0  0  0  0
    7.9676  -18.3776   28.1826 N   0  0  0  0  0  0  0  0  0  0  0  0
    7.9727  -16.6689   26.5317 C   0  0  0  0  0  0  0  0  0  0  0  0
    7.6052  -17.4914   25.6528 O   0  0  0  0  0  0  0  0  0  0  0  0
    7.6973  -15.3240   26.2611 N   0  0  0  0  0  0  0  0  0  0  0  0
    7.1649  -14.8879   24.9903 C   0  0  1  0  0  0  0  0  0  0  0  0
    7.0002  -13.3940   24.9343 C   0  0  0  0  0  0  0  0  0  0  0  0
    6.0707  -12.8183   26.4132 S   0  0  0  0  0  0  0  0  0  0  0  0
    8.0372  -15.3095   23.8731 C   0  0  0  0  0  0  0  0  0  0  0  0
    8.8695  -16.2436   24.1500 O   0  0  0  0  0  0  0  0  0  0  0  0
    7.9679  -14.7387   22.5969 N   0  0  0  0  0  0  0  0  0  0  0  0
    7.3263  -13.5429   22.1431 C   0  0  0  0  0  0  0  0  0  0  0  0
    6.9006  -13.8392   20.6913 C   0  0  0  0  0  0  0  0  0  0  0  0
    7.4335  -15.2295   20.4245 C   0  0  0  0  0  0  0  0  0  0  0  0
    8.5810  -15.3153   21.4091 C   0  0  1  0  0  0  0  0  0  0  0  0
    9.6949  -14.5077   20.8815 C   0  0  0  0  0  0  0  0  0  0  0  0
   10.2707  -14.9324   19.8391 O   0  0  0  0  0  0  0  0  0  0  0  0
   10.1715  -13.3345   21.4128 O   0  0  0  0  0  0  0  0  0  0  0  0
  2  1  1  0
  3  4  1  0
  3  2  1  0
  4  5  1  0
  5  7  1  0
  5  6  1  6
  7  8  2  0
  9  7  1  0
  9 10  1  0
 10 13  1  0
 10 11  1  1
 12 11  1  0
 13 14  2  0
 13 15  1  0
 15 16  1  0
 16 17  1  0
 18 17  1  0
 19 15  1  0
 19 18  1  0
 19 20  1  6
 21 20  2  0
 22 20  1  0
M  END
$$$$
