QNM.pdb
     RDKit          3D

 26 25  0  0  1  0  0  0  0  0999 V2000
    9.3201  -12.2922   19.0974 N   0  0  0  0  0  0  0  0  0  0  0  0
    8.3416  -12.2846   20.1391 C   0  0  0  0  0  0  0  0  0  0  0  0
    8.0491  -11.1994   20.6714 O   0  0  0  0  0  0  0  0  0  0  0  0
    7.7245  -13.5470   20.5316 C   0  0  0  0  0  0  0  0  0  0  0  0
    8.1871  -14.7686   19.8361 C   0  0  0  0  0  0  0  0  0  0  0  0
    7.5583  -16.0581   20.2236 C   0  0  2  0  0  0  0  0  0  0  0  0
    6.1374  -16.1237   20.1574 N   0  0  0  0  0  0  0  0  0  0  0  0
    7.9885  -16.4476   21.6279 C   0  0  0  0  0  0  0  0  0  0  0  0
    7.1404  -16.4062   22.5613 O   0  0  0  0  0  0  0  0  0  0  0  0
   11.4560  -19.7462   21.1203 N   0  0  0  0  0  0  0  0  0  0  0  0
   10.8238  -19.3996   22.3681 C   0  0  0  0  0  0  0  0  0  0  0  0
   10.0219  -20.2601   22.8014 O   0  0  0  0  0  0  0  0  0  0  0  0
   11.1416  -18.1090   23.0424 C   0  0  0  0  0  0  0  0  0  0  0  0
    9.8399  -17.3102   23.1588 C   0  0  2  0  0  0  0  0  0  0  0  0
    9.3060  -16.8540   21.9160 N   0  0  0  0  0  0  0  0  0  0  0  0
    9.9947  -16.2750   24.1692 C   0  0  0  0  0  0  0  0  0  0  0  0
   10.8002  -15.3448   23.9537 O   0  0  0  0  0  0  0  0  0  0  0  0
    6.8940  -10.7267   25.3182 C   0  0  0  0  0  0  0  0  0  0  0  0
    6.8797  -12.2556   26.2670 S   0  0  0  0  0  0  0  0  0  0  0  0
    8.3332  -13.2612   25.9248 C   0  0  0  0  0  0  0  0  0  0  0  0
    8.3645  -14.5230   26.7354 C   0  0  0  0  0  0  0  0  0  0  0  0
    9.5743  -15.3719   26.4791 C   0  0  2  0  0  0  0  0  0  0  0  0
    9.2745  -16.2884   25.3733 N   0  0  0  0  0  0  0  0  0  0  0  0
    9.9814  -16.1969   27.6326 C   0  0  0  0  0  0  0  0  0  0  0  0
   10.5663  -15.6333   28.7389 O   0  0  0  0  0  0  0  0  0  0  0  0
    9.8028  -17.4515   27.6353 O   0  0  0  0  0  0  0  0  0  0  0  0
  2  1  1  0
  2  4  1  0
  3  2  2  0
  5  4  1  0
  6  5  1  0
  6  7  1  1
  8  6  1  0
  8  9  2  0
 10 11  1  0
 11 12  2  0
 13 11  1  0
 14 13  1  6
 14 15  1  0
 15  8  1  0
 16 14  1  0
 16 23  1  0
 17 16  2  0
 19 20  1  0
 19 18  1  0
 20 21  1  0
 22 21  1  1
 22 23  1  0
 22 24  1  0
 24 26  2  0
 24 25  1  0
M  END
$$$$
