QNM.pdb
     RDKit          3D

 26 25  0  0  1  0  0  0  0  0999 V2000
    8.5784  -15.8698   14.8391 N   0  0  0  0  0  0  0  0  0  0  0  0
    8.6160  -14.4972   15.2357 C   0  0  0  0  0  0  0  0  0  0  0  0
    8.6157  -13.6231   14.3511 O   0  0  0  0  0  0  0  0  0  0  0  0
    8.6495  -14.1786   16.6590 C   0  0  0  0  0  0  0  0  0  0  0  0
    7.3741  -14.2799   17.4027 C   0  0  0  0  0  0  0  0  0  0  0  0
    7.4011  -13.9696   18.8558 C   0  0  2  0  0  0  0  0  0  0  0  0
    8.2384  -12.8934   19.2659 N   0  0  0  0  0  0  0  0  0  0  0  0
    7.7929  -15.2064   19.6466 C   0  0  0  0  0  0  0  0  0  0  0  0
    7.6456  -16.3427   19.1181 O   0  0  0  0  0  0  0  0  0  0  0  0
   10.5752  -19.1176   21.4900 N   0  0  0  0  0  0  0  0  0  0  0  0
   10.8654  -17.7367   21.7824 C   0  0  0  0  0  0  0  0  0  0  0  0
   11.6231  -17.5613   22.7655 O   0  0  0  0  0  0  0  0  0  0  0  0
   10.2842  -16.6494   20.9448 C   0  0  0  0  0  0  0  0  0  0  0  0
    9.0544  -16.1032   21.6764 C   0  0  2  0  0  0  0  0  0  0  0  0
    8.3162  -15.1197   20.9515 N   0  0  0  0  0  0  0  0  0  0  0  0
    9.4282  -15.7087   23.0259 C   0  0  0  0  0  0  0  0  0  0  0  0
   10.5885  -15.2918   23.2271 O   0  0  0  0  0  0  0  0  0  0  0  0
    6.3280  -10.4830   25.9412 C   0  0  0  0  0  0  0  0  0  0  0  0
    6.2557  -12.2470   26.2895 S   0  0  0  0  0  0  0  0  0  0  0  0
    7.6989  -13.1090   25.6453 C   0  0  0  0  0  0  0  0  0  0  0  0
    7.7120  -14.5637   26.0113 C   0  0  0  0  0  0  0  0  0  0  0  0
    8.8830  -15.3140   25.4497 C   0  0  2  0  0  0  0  0  0  0  0  0
    8.5336  -15.7833   24.1042 N   0  0  0  0  0  0  0  0  0  0  0  0
    9.2687  -16.4990   26.2396 C   0  0  0  0  0  0  0  0  0  0  0  0
   10.0041  -16.3769   27.3920 O   0  0  0  0  0  0  0  0  0  0  0  0
    8.9320  -17.6655   25.8765 O   0  0  0  0  0  0  0  0  0  0  0  0
  2  1  1  0
  2  4  1  0
  3  2  2  0
  5  4  1  0
  6  5  1  0
  6  7  1  6
  8  6  1  0
  8  9  2  0
 10 11  1  0
 11 12  2  0
 13 11  1  0
 14 13  1  6
 14 15  1  0
 15  8  1  0
 16 14  1  0
 16 23  1  0
 17 16  2  0
 19 20  1  0
 19 18  1  0
 20 21  1  0
 22 21  1  1
 22 23  1  0
 22 24  1  0
 24 26  2  0
 24 25  1  0
M  END
$$$$
