QNM.pdb
     RDKit          3D

 26 25  0  0  1  0  0  0  0  0999 V2000
    7.1210  -14.8299   15.6441 N   0  0  0  0  0  0  0  0  0  0  0  0
    8.2443  -14.2832   16.3383 C   0  0  0  0  0  0  0  0  0  0  0  0
    9.3845  -14.6539   16.0083 O   0  0  0  0  0  0  0  0  0  0  0  0
    8.0078  -13.3118   17.4008 C   0  0  0  0  0  0  0  0  0  0  0  0
    7.6491  -13.8447   18.7339 C   0  0  0  0  0  0  0  0  0  0  0  0
    8.6838  -14.6246   19.4618 C   0  0  2  0  0  0  0  0  0  0  0  0
    9.1917  -15.7828   18.8074 N   0  0  0  0  0  0  0  0  0  0  0  0
    8.1610  -15.0391   20.8269 C   0  0  0  0  0  0  0  0  0  0  0  0
    7.7411  -14.1496   21.6173 O   0  0  0  0  0  0  0  0  0  0  0  0
    5.6947  -19.2386   24.0506 N   0  0  0  0  0  0  0  0  0  0  0  0
    7.0668  -18.8419   23.8588 C   0  0  0  0  0  0  0  0  0  0  0  0
    7.7645  -18.8628   24.8999 O   0  0  0  0  0  0  0  0  0  0  0  0
    7.5580  -18.4523   22.5066 C   0  0  0  0  0  0  0  0  0  0  0  0
    7.6899  -16.9266   22.4795 C   0  0  2  0  0  0  0  0  0  0  0  0
    8.1312  -16.3874   21.2336 N   0  0  0  0  0  0  0  0  0  0  0  0
    8.4535  -16.4851   23.6363 C   0  0  0  0  0  0  0  0  0  0  0  0
    9.6970  -16.6016   23.6119 O   0  0  0  0  0  0  0  0  0  0  0  0
    5.9867  -11.3833   26.1840 C   0  0  0  0  0  0  0  0  0  0  0  0
    7.3305  -11.5236   27.3727 S   0  0  0  0  0  0  0  0  0  0  0  0
    8.3337  -12.9872   27.0685 C   0  0  0  0  0  0  0  0  0  0  0  0
    7.7716  -13.8552   25.9818 C   0  0  0  0  0  0  0  0  0  0  0  0
    8.5713  -15.0994   25.7325 C   0  0  2  0  0  0  0  0  0  0  0  0
    7.8420  -15.9377   24.7744 N   0  0  0  0  0  0  0  0  0  0  0  0
    8.8012  -15.9147   26.9404 C   0  0  0  0  0  0  0  0  0  0  0  0
    9.7148  -15.5348   27.8916 O   0  0  0  0  0  0  0  0  0  0  0  0
    8.1612  -16.9910   27.1351 O   0  0  0  0  0  0  0  0  0  0  0  0
  2  1  1  0
  2  4  1  0
  3  2  2  0
  5  4  1  0
  6  5  1  0
  6  7  1  6
  8  6  1  0
  8  9  2  0
 10 11  1  0
 11 12  2  0
 13 11  1  0
 14 13  1  6
 14 15  1  0
 15  8  1  0
 16 14  1  0
 16 23  1  0
 17 16  2  0
 19 20  1  0
 19 18  1  0
 20 21  1  0
 22 21  1  1
 22 23  1  0
 22 24  1  0
 24 26  2  0
 24 25  1  0
M  END
$$$$
