QNM.pdb
     RDKit          3D

 26 25  0  0  1  0  0  0  0  0999 V2000
    9.4192  -15.5802   16.1347 N   0  0  0  0  0  0  0  0  0  0  0  0
    8.7967  -14.3004   16.2659 C   0  0  0  0  0  0  0  0  0  0  0  0
    9.0394  -13.4312   15.4103 O   0  0  0  0  0  0  0  0  0  0  0  0
    7.9009  -14.0681   17.3937 C   0  0  0  0  0  0  0  0  0  0  0  0
    7.6089  -15.2228   18.2719 C   0  0  0  0  0  0  0  0  0  0  0  0
    7.5078  -14.9657   19.7321 C   0  0  2  0  0  0  0  0  0  0  0  0
    7.4602  -13.6026   20.1410 N   0  0  0  0  0  0  0  0  0  0  0  0
    8.6557  -15.6425   20.4621 C   0  0  0  0  0  0  0  0  0  0  0  0
    8.8030  -16.8903   20.3472 O   0  0  0  0  0  0  0  0  0  0  0  0
   12.6118  -13.6216   19.6249 N   0  0  0  0  0  0  0  0  0  0  0  0
   12.3599  -14.7952   20.4223 C   0  0  0  0  0  0  0  0  0  0  0  0
   12.5027  -15.8800   19.8106 O   0  0  0  0  0  0  0  0  0  0  0  0
   11.9676  -14.6650   21.8543 C   0  0  0  0  0  0  0  0  0  0  0  0
   10.6444  -15.4123   22.0457 C   0  0  2  0  0  0  0  0  0  0  0  0
    9.5594  -14.9161   21.2620 N   0  0  0  0  0  0  0  0  0  0  0  0
   10.3591  -15.5374   23.4668 C   0  0  0  0  0  0  0  0  0  0  0  0
   11.3174  -15.5973   24.2660 O   0  0  0  0  0  0  0  0  0  0  0  0
    6.8171  -10.6157   26.4530 C   0  0  0  0  0  0  0  0  0  0  0  0
    6.4979  -12.3861   26.4987 S   0  0  0  0  0  0  0  0  0  0  0  0
    7.7896  -13.3140   25.6554 C   0  0  0  0  0  0  0  0  0  0  0  0
    7.5294  -14.7913   25.6527 C   0  0  0  0  0  0  0  0  0  0  0  0
    8.7566  -15.6171   25.4041 C   0  0  2  0  0  0  0  0  0  0  0  0
    9.0494  -15.5955   23.9667 N   0  0  0  0  0  0  0  0  0  0  0  0
    8.6163  -17.0314   25.8005 C   0  0  0  0  0  0  0  0  0  0  0  0
    8.9306  -17.4488   27.0696 O   0  0  0  0  0  0  0  0  0  0  0  0
    8.2012  -17.9030   24.9796 O   0  0  0  0  0  0  0  0  0  0  0  0
  2  1  1  0
  2  4  1  0
  3  2  2  0
  5  4  1  0
  6  5  1  0
  6  7  1  6
  8  6  1  0
  8  9  2  0
 10 11  1  0
 11 12  2  0
 13 11  1  0
 14 13  1  1
 14 15  1  0
 15  8  1  0
 16 14  1  0
 16 23  1  0
 17 16  2  0
 19 20  1  0
 19 18  1  0
 20 21  1  0
 22 21  1  6
 22 23  1  0
 22 24  1  0
 24 26  2  0
 24 25  1  0
M  END
$$$$
