QNM.pdb
     RDKit          3D

 26 25  0  0  1  0  0  0  0  0999 V2000
    9.9091  -19.0537   15.5246 N   0  0  0  0  0  0  0  0  0  0  0  0
    8.4887  -18.9561   15.6491 C   0  0  0  0  0  0  0  0  0  0  0  0
    7.7915  -19.1044   14.6300 O   0  0  0  0  0  0  0  0  0  0  0  0
    7.9160  -18.6909   16.9644 C   0  0  0  0  0  0  0  0  0  0  0  0
    8.8582  -18.3531   18.0544 C   0  0  0  0  0  0  0  0  0  0  0  0
    8.2786  -17.9835   19.3720 C   0  0  2  0  0  0  0  0  0  0  0  0
    6.9200  -17.5575   19.3777 N   0  0  0  0  0  0  0  0  0  0  0  0
    9.1202  -16.9016   20.0276 C   0  0  0  0  0  0  0  0  0  0  0  0
   10.3070  -17.1685   20.3629 O   0  0  0  0  0  0  0  0  0  0  0  0
    6.7780  -13.2348   18.6961 N   0  0  0  0  0  0  0  0  0  0  0  0
    8.1990  -13.3590   18.9014 C   0  0  0  0  0  0  0  0  0  0  0  0
    8.8479  -13.6673   17.8742 O   0  0  0  0  0  0  0  0  0  0  0  0
    8.7903  -13.1239   20.2492 C   0  0  0  0  0  0  0  0  0  0  0  0
    9.3049  -14.4676   20.7741 C   0  0  2  0  0  0  0  0  0  0  0  0
    8.6130  -15.6101   20.2703 N   0  0  0  0  0  0  0  0  0  0  0  0
    9.4114  -14.4134   22.2240 C   0  0  0  0  0  0  0  0  0  0  0  0
   10.2434  -13.6332   22.7336 O   0  0  0  0  0  0  0  0  0  0  0  0
    7.1281  -11.3065   27.3675 C   0  0  0  0  0  0  0  0  0  0  0  0
    6.2425  -12.8103   26.9289 S   0  0  0  0  0  0  0  0  0  0  0  0
    7.3723  -14.1316   26.4609 C   0  0  0  0  0  0  0  0  0  0  0  0
    7.4401  -14.3325   24.9759 C   0  0  0  0  0  0  0  0  0  0  0  0
    8.6556  -15.0877   24.5266 C   0  0  2  0  0  0  0  0  0  0  0  0
    8.6162  -15.2067   23.0648 N   0  0  0  0  0  0  0  0  0  0  0  0
    8.7470  -16.4546   25.0743 C   0  0  0  0  0  0  0  0  0  0  0  0
    8.9256  -16.6721   26.4176 O   0  0  0  0  0  0  0  0  0  0  0  0
    8.6631  -17.4690   24.3194 O   0  0  0  0  0  0  0  0  0  0  0  0
  2  1  1  0
  2  4  1  0
  3  2  2  0
  5  4  1  0
  6  5  1  0
  6  7  1  6
  8  6  1  0
  8  9  2  0
 10 11  1  0
 11 12  2  0
 13 11  1  0
 14 13  1  1
 14 15  1  0
 15  8  1  0
 16 14  1  0
 16 23  1  0
 17 16  2  0
 19 20  1  0
 19 18  1  0
 20 21  1  0
 22 21  1  1
 22 23  1  0
 22 24  1  0
 24 26  2  0
 24 25  1  0
M  END
$$$$
