QNM.pdb
     RDKit          3D

 26 25  0  0  1  0  0  0  0  0999 V2000
    7.7343  -20.1324   16.2499 N   0  0  0  0  0  0  0  0  0  0  0  0
    6.5007  -19.6487   16.7855 C   0  0  0  0  0  0  0  0  0  0  0  0
    5.4405  -19.9749   16.2232 O   0  0  0  0  0  0  0  0  0  0  0  0
    6.5355  -18.7972   17.9695 C   0  0  0  0  0  0  0  0  0  0  0  0
    7.8685  -18.4343   18.5001 C   0  0  0  0  0  0  0  0  0  0  0  0
    8.0346  -18.4066   19.9766 C   0  0  2  0  0  0  0  0  0  0  0  0
    6.8438  -18.3401   20.7544 N   0  0  0  0  0  0  0  0  0  0  0  0
    8.9323  -17.2488   20.3794 C   0  0  0  0  0  0  0  0  0  0  0  0
   10.1805  -17.4282   20.4216 O   0  0  0  0  0  0  0  0  0  0  0  0
    7.4904  -12.1587   18.8363 N   0  0  0  0  0  0  0  0  0  0  0  0
    8.2386  -13.2750   19.3567 C   0  0  0  0  0  0  0  0  0  0  0  0
    8.7650  -14.0017   18.4814 O   0  0  0  0  0  0  0  0  0  0  0  0
    8.3443  -13.4931   20.8274 C   0  0  0  0  0  0  0  0  0  0  0  0
    9.1215  -14.7936   21.0518 C   0  0  2  0  0  0  0  0  0  0  0  0
    8.4102  -15.9818   20.7057 N   0  0  0  0  0  0  0  0  0  0  0  0
    9.6890  -14.7946   22.3914 C   0  0  0  0  0  0  0  0  0  0  0  0
   10.5013  -13.8961   22.6972 O   0  0  0  0  0  0  0  0  0  0  0  0
    6.7626  -12.0575   28.0729 C   0  0  0  0  0  0  0  0  0  0  0  0
    7.4556  -12.4145   26.4510 S   0  0  0  0  0  0  0  0  0  0  0  0
    7.2291  -14.1425   25.9998 C   0  0  0  0  0  0  0  0  0  0  0  0
    7.8111  -14.4681   24.6561 C   0  0  0  0  0  0  0  0  0  0  0  0
    8.9654  -15.4240   24.7169 C   0  0  2  0  0  0  0  0  0  0  0  0
    9.3577  -15.7683   23.3458 N   0  0  0  0  0  0  0  0  0  0  0  0
    8.6595  -16.6876   25.4145 C   0  0  0  0  0  0  0  0  0  0  0  0
    8.6056  -16.7485   26.7846 O   0  0  0  0  0  0  0  0  0  0  0  0
    8.4375  -17.7548   24.7682 O   0  0  0  0  0  0  0  0  0  0  0  0
  2  1  1  0
  2  4  1  0
  3  2  2  0
  5  4  1  0
  6  5  1  0
  6  7  1  1
  8  6  1  0
  8  9  2  0
 10 11  1  0
 11 12  2  0
 13 11  1  0
 14 13  1  1
 14 15  1  0
 15  8  1  0
 16 14  1  0
 16 23  1  0
 17 16  2  0
 19 20  1  0
 19 18  1  0
 20 21  1  0
 22 21  1  6
 22 23  1  0
 22 24  1  0
 24 26  2  0
 24 25  1  0
M  END
$$$$
