QNM.pdb
     RDKit          3D

 26 25  0  0  1  0  0  0  0  0999 V2000
    8.7458  -12.4480   18.4387 N   0  0  0  0  0  0  0  0  0  0  0  0
    7.7480  -13.1844   17.7282 C   0  0  0  0  0  0  0  0  0  0  0  0
    6.7101  -12.5946   17.3797 O   0  0  0  0  0  0  0  0  0  0  0  0
    7.9892  -14.5937   17.4383 C   0  0  0  0  0  0  0  0  0  0  0  0
    9.2734  -15.1667   17.8994 C   0  0  0  0  0  0  0  0  0  0  0  0
    9.2177  -16.4142   18.7051 C   0  0  2  0  0  0  0  0  0  0  0  0
    8.0838  -16.5814   19.5500 N   0  0  0  0  0  0  0  0  0  0  0  0
   10.4696  -16.5419   19.5567 C   0  0  0  0  0  0  0  0  0  0  0  0
   11.5528  -16.8806   19.0053 O   0  0  0  0  0  0  0  0  0  0  0  0
   12.9881  -15.5455   18.9743 N   0  0  0  0  0  0  0  0  0  0  0  0
   13.3328  -15.1090   20.3038 C   0  0  0  0  0  0  0  0  0  0  0  0
   14.5544  -15.1822   20.5749 O   0  0  0  0  0  0  0  0  0  0  0  0
   12.2773  -14.6172   21.2343 C   0  0  0  0  0  0  0  0  0  0  0  0
   11.5237  -15.8374   21.7721 C   0  0  2  0  0  0  0  0  0  0  0  0
   10.4545  -16.2922   20.9429 N   0  0  0  0  0  0  0  0  0  0  0  0
   11.1588  -15.6084   23.1617 C   0  0  0  0  0  0  0  0  0  0  0  0
   12.0388  -15.2080   23.9528 O   0  0  0  0  0  0  0  0  0  0  0  0
    6.7043  -11.7980   24.8180 C   0  0  0  0  0  0  0  0  0  0  0  0
    6.3988  -12.9560   26.1611 S   0  0  0  0  0  0  0  0  0  0  0  0
    7.6946  -14.2010   26.2698 C   0  0  0  0  0  0  0  0  0  0  0  0
    8.2722  -14.5497   24.9300 C   0  0  0  0  0  0  0  0  0  0  0  0
    9.4541  -15.4700   25.0063 C   0  0  2  0  0  0  0  0  0  0  0  0
    9.8578  -15.8240   23.6409 N   0  0  0  0  0  0  0  0  0  0  0  0
    9.1850  -16.7310   25.7234 C   0  0  0  0  0  0  0  0  0  0  0  0
    9.0184  -16.7529   27.0856 O   0  0  0  0  0  0  0  0  0  0  0  0
    9.0998  -17.8321   25.1018 O   0  0  0  0  0  0  0  0  0  0  0  0
  2  1  1  0
  2  4  1  0
  3  2  2  0
  5  4  1  0
  6  5  1  0
  6  7  1  1
  8  6  1  0
  8  9  2  0
 10 11  1  0
 11 12  2  0
 13 11  1  0
 14 13  1  6
 14 15  1  0
 15  8  1  0
 16 14  1  0
 16 23  1  0
 17 16  2  0
 19 20  1  0
 19 18  1  0
 20 21  1  0
 22 21  1  6
 22 23  1  0
 22 24  1  0
 24 26  2  0
 24 25  1  0
M  END
$$$$
