FEQ.pdb
     RDKit          3D

 30 30  0  0  1  0  0  0  0  0999 V2000
   26.9654  -22.4155  -10.6337 N   0  0  0  0  0  0  0  0  0  0  0  0
   26.1080  -21.2832  -10.4025 C   0  0  1  0  0  0  0  0  0  0  0  0
   26.9736  -20.0530  -10.3046 C   0  0  0  0  0  0  0  0  0  0  0  0
   27.4715  -19.9831   -8.9161 C   0  0  0  0  0  0  0  0  0  0  0  0
   26.7939  -19.3074   -7.9313 C   0  0  0  0  0  0  0  0  0  0  0  0
   27.2865  -19.2538   -6.6226 C   0  0  0  0  0  0  0  0  0  0  0  0
   28.4783  -19.8888   -6.2971 C   0  0  0  0  0  0  0  0  0  0  0  0
   29.1538  -20.5646   -7.2865 C   0  0  0  0  0  0  0  0  0  0  0  0
   28.6462  -20.6029   -8.5727 C   0  0  0  0  0  0  0  0  0  0  0  0
   25.0326  -21.1696  -11.4064 C   0  0  0  0  0  0  0  0  0  0  0  0
   25.2036  -21.6547  -12.5637 O   0  0  0  0  0  0  0  0  0  0  0  0
   23.7874  -20.5375  -11.1569 N   0  0  0  0  0  0  0  0  0  0  0  0
   22.7162  -20.4343  -12.1398 C   0  0  1  0  0  0  0  0  0  0  0  0
   21.4528  -19.9550  -11.5243 C   0  0  0  0  0  0  0  0  0  0  0  0
   20.7568  -20.8679  -10.5894 C   0  0  0  0  0  0  0  0  0  0  0  0
   19.9063  -21.8963  -11.1695 C   0  0  0  0  0  0  0  0  0  0  0  0
   19.7543  -22.0071  -12.4097 O   0  0  0  0  0  0  0  0  0  0  0  0
   23.1276  -19.7802  -13.3813 C   0  0  0  0  0  0  0  0  0  0  0  0
   23.7789  -18.7129  -13.3491 O   0  0  0  0  0  0  0  0  0  0  0  0
   19.2267  -22.7993  -10.3658 O   0  0  0  0  0  0  0  0  0  0  0  0
   27.6460  -20.2603  -16.0213 N   0  0  0  0  0  0  0  0  0  0  0  0
   26.8507  -21.4339  -15.7973 C   0  0  0  0  0  0  0  0  0  0  0  0
   27.4922  -22.5021  -15.6718 O   0  0  0  0  0  0  0  0  0  0  0  0
   25.3794  -21.3238  -15.7303 C   0  0  0  0  0  0  0  0  0  0  0  0
   24.8450  -19.9378  -15.7876 C   0  0  0  0  0  0  0  0  0  0  0  0
   23.3571  -19.8487  -15.8499 C   0  0  2  0  0  0  0  0  0  0  0  0
   22.7826  -20.3649  -14.6244 N   0  0  0  0  0  0  0  0  0  0  0  0
   22.7424  -20.4524  -17.0486 C   0  0  0  0  0  0  0  0  0  0  0  0
   21.9786  -21.4618  -16.8886 O   0  0  0  0  0  0  0  0  0  0  0  0
   22.9322  -20.0040  -18.3383 O   0  0  0  0  0  0  0  0  0  0  0  0
  2  3  1  0
  2  1  1  6
  4  3  1  0
  4  9  2  0
  5  4  1  0
  6  5  2  0
  6  7  1  0
  7  8  2  0
  8  9  1  0
 10  2  1  0
 11 10  2  0
 12 10  1  0
 13 12  1  0
 14 15  1  0
 13 14  1  1
 15 16  1  0
 16 17  2  0
 18 27  1  0
 18 13  1  0
 19 18  2  0
 20 16  1  0
 22 24  1  0
 22 21  1  0
 23 22  2  0
 26 25  1  1
 25 24  1  0
 26 27  1  0
 28 26  1  0
 29 28  2  0
 30 28  1  0
M  END
$$$$
