FEQ.pdb
     RDKit          3D

 30 30  0  0  1  0  0  0  0  0999 V2000
   26.6146  -12.5133  -19.9526 N   0  0  0  0  0  0  0  0  0  0  0  0
   25.9774  -12.8240  -18.7004 C   0  0  1  0  0  0  0  0  0  0  0  0
   25.7335  -11.5306  -17.9657 C   0  0  0  0  0  0  0  0  0  0  0  0
   27.0566  -10.9552  -17.6510 C   0  0  0  0  0  0  0  0  0  0  0  0
   27.4548   -9.7335  -18.1353 C   0  0  0  0  0  0  0  0  0  0  0  0
   28.7146   -9.2095  -17.8244 C   0  0  0  0  0  0  0  0  0  0  0  0
   29.5886   -9.9230  -17.0142 C   0  0  0  0  0  0  0  0  0  0  0  0
   29.1858  -11.1462  -16.5310 C   0  0  0  0  0  0  0  0  0  0  0  0
   27.9354  -11.6427  -16.8528 C   0  0  0  0  0  0  0  0  0  0  0  0
   24.7631  -13.6452  -18.8685 C   0  0  0  0  0  0  0  0  0  0  0  0
   24.0189  -13.4622  -19.8768 O   0  0  0  0  0  0  0  0  0  0  0  0
   24.3618  -14.6522  -17.9536 N   0  0  0  0  0  0  0  0  0  0  0  0
   23.1769  -15.4830  -18.1267 C   0  0  1  0  0  0  0  0  0  0  0  0
   23.4958  -16.9268  -17.9889 C   0  0  0  0  0  0  0  0  0  0  0  0
   22.3905  -17.8935  -18.1771 C   0  0  0  0  0  0  0  0  0  0  0  0
   22.7323  -19.3079  -18.1709 C   0  0  0  0  0  0  0  0  0  0  0  0
   21.8573  -20.1994  -18.0565 O   0  0  0  0  0  0  0  0  0  0  0  0
   22.0131  -14.9973  -17.3863 C   0  0  0  0  0  0  0  0  0  0  0  0
   22.1414  -14.5573  -16.2226 O   0  0  0  0  0  0  0  0  0  0  0  0
   24.0491  -19.7259  -18.2922 O   0  0  0  0  0  0  0  0  0  0  0  0
   18.2581  -10.8935  -18.7320 N   0  0  0  0  0  0  0  0  0  0  0  0
   17.3580  -11.5949  -17.8614 C   0  0  0  0  0  0  0  0  0  0  0  0
   16.4140  -10.9126  -17.4013 O   0  0  0  0  0  0  0  0  0  0  0  0
   17.5843  -13.0242  -17.5662 C   0  0  0  0  0  0  0  0  0  0  0  0
   18.7983  -13.6148  -18.1886 C   0  0  0  0  0  0  0  0  0  0  0  0
   19.5832  -14.5100  -17.2896 C   0  0  2  0  0  0  0  0  0  0  0  0
   20.7358  -15.0284  -17.9976 N   0  0  0  0  0  0  0  0  0  0  0  0
   18.8052  -15.5809  -16.6362 C   0  0  0  0  0  0  0  0  0  0  0  0
   18.4845  -16.6009  -17.3322 O   0  0  0  0  0  0  0  0  0  0  0  0
   18.3964  -15.5624  -15.3197 O   0  0  0  0  0  0  0  0  0  0  0  0
  2  3  1  0
  2  1  1  6
  4  3  1  0
  4  9  2  0
  5  4  1  0
  6  5  2  0
  6  7  1  0
  7  8  2  0
  8  9  1  0
 10  2  1  0
 11 10  2  0
 12 10  1  0
 13 12  1  0
 14 15  1  0
 13 14  1  1
 15 16  1  0
 16 17  2  0
 18 27  1  0
 18 13  1  0
 19 18  2  0
 20 16  1  0
 22 24  1  0
 22 21  1  0
 23 22  2  0
 26 25  1  6
 25 24  1  0
 26 27  1  0
 28 26  1  0
 29 28  2  0
 30 28  1  0
M  END
$$$$
