FEQ.pdb
     RDKit          3D

 30 30  0  0  1  0  0  0  0  0999 V2000
   24.0996  -11.7889  -15.7113 N   0  0  0  0  0  0  0  0  0  0  0  0
   23.8823  -10.4328  -15.2817 C   0  0  1  0  0  0  0  0  0  0  0  0
   25.0405  -10.0280  -14.4061 C   0  0  0  0  0  0  0  0  0  0  0  0
   26.2510  -10.0496  -15.2517 C   0  0  0  0  0  0  0  0  0  0  0  0
   26.6063   -8.9862  -16.0444 C   0  0  0  0  0  0  0  0  0  0  0  0
   27.7576   -9.0308  -16.8385 C   0  0  0  0  0  0  0  0  0  0  0  0
   28.5654  -10.1607  -16.8369 C   0  0  0  0  0  0  0  0  0  0  0  0
   28.2060  -11.2237  -16.0413 C   0  0  0  0  0  0  0  0  0  0  0  0
   27.0630  -11.1553  -15.2653 C   0  0  0  0  0  0  0  0  0  0  0  0
   23.6439   -9.5105  -16.4085 C   0  0  0  0  0  0  0  0  0  0  0  0
   24.1387   -9.7705  -17.5450 O   0  0  0  0  0  0  0  0  0  0  0  0
   22.8781   -8.3211  -16.3029 N   0  0  0  0  0  0  0  0  0  0  0  0
   22.5877   -7.4383  -17.4255 C   0  0  1  0  0  0  0  0  0  0  0  0
   21.5679   -8.0235  -18.3325 C   0  0  0  0  0  0  0  0  0  0  0  0
   21.2510   -7.2837  -19.5751 C   0  0  0  0  0  0  0  0  0  0  0  0
   20.0563   -6.4530  -19.5713 C   0  0  0  0  0  0  0  0  0  0  0  0
   18.9770   -6.8487  -19.0692 O   0  0  0  0  0  0  0  0  0  0  0  0
   22.3893   -6.0438  -17.0323 C   0  0  0  0  0  0  0  0  0  0  0  0
   21.9570   -5.7627  -15.8928 O   0  0  0  0  0  0  0  0  0  0  0  0
   20.0670   -5.1825  -20.1272 O   0  0  0  0  0  0  0  0  0  0  0  0
   23.8436    1.0136  -18.9775 N   0  0  0  0  0  0  0  0  0  0  0  0
   23.8234   -0.4043  -19.1991 C   0  0  0  0  0  0  0  0  0  0  0  0
   24.2863   -0.7831  -20.2994 O   0  0  0  0  0  0  0  0  0  0  0  0
   23.2798   -1.3034  -18.1612 C   0  0  0  0  0  0  0  0  0  0  0  0
   23.3143   -2.7513  -18.4965 C   0  0  0  0  0  0  0  0  0  0  0  0
   22.5580   -3.6248  -17.5528 C   0  0  2  0  0  0  0  0  0  0  0  0
   22.6908   -5.0106  -17.9529 N   0  0  0  0  0  0  0  0  0  0  0  0
   21.1488   -3.2420  -17.3365 C   0  0  0  0  0  0  0  0  0  0  0  0
   20.2892   -3.5957  -18.2104 O   0  0  0  0  0  0  0  0  0  0  0  0
   20.6875   -2.5260  -16.2525 O   0  0  0  0  0  0  0  0  0  0  0  0
  2  3  1  0
  2  1  1  6
  4  3  1  0
  4  9  2  0
  5  4  1  0
  6  5  2  0
  6  7  1  0
  7  8  2  0
  8  9  1  0
 10  2  1  0
 11 10  2  0
 12 10  1  0
 13 12  1  0
 14 15  1  0
 13 14  1  1
 15 16  1  0
 16 17  2  0
 18 27  1  0
 18 13  1  0
 19 18  2  0
 20 16  1  0
 22 24  1  0
 22 21  1  0
 23 22  2  0
 26 25  1  6
 25 24  1  0
 26 27  1  0
 28 26  1  0
 29 28  2  0
 30 28  1  0
M  END
$$$$
