FEQ.pdb
     RDKit          3D

 30 30  0  0  1  0  0  0  0  0999 V2000
   17.6154  -12.9065  -16.5075 N   0  0  0  0  0  0  0  0  0  0  0  0
   16.7000  -11.7995  -16.4227 C   0  0  1  0  0  0  0  0  0  0  0  0
   16.1569  -11.7478  -15.0176 C   0  0  0  0  0  0  0  0  0  0  0  0
   15.1548  -12.8262  -14.9007 C   0  0  0  0  0  0  0  0  0  0  0  0
   15.4872  -14.0877  -14.4720 C   0  0  0  0  0  0  0  0  0  0  0  0
   14.5199  -15.0939  -14.3708 C   0  0  0  0  0  0  0  0  0  0  0  0
   13.1979  -14.8298  -14.7052 C   0  0  0  0  0  0  0  0  0  0  0  0
   12.8692  -13.5648  -15.1341 C   0  0  0  0  0  0  0  0  0  0  0  0
   13.8435  -12.5872  -15.2257 C   0  0  0  0  0  0  0  0  0  0  0  0
   17.3016  -10.5285  -16.8699 C   0  0  0  0  0  0  0  0  0  0  0  0
   18.5519  -10.3568  -16.7638 O   0  0  0  0  0  0  0  0  0  0  0  0
   16.5552   -9.4576  -17.4252 N   0  0  0  0  0  0  0  0  0  0  0  0
   17.1285   -8.1664  -17.7835 C   0  0  1  0  0  0  0  0  0  0  0  0
   16.4266   -7.5585  -18.9424 C   0  0  0  0  0  0  0  0  0  0  0  0
   16.9831   -6.3048  -19.4995 C   0  0  0  0  0  0  0  0  0  0  0  0
   16.3033   -5.7252  -20.6481 C   0  0  0  0  0  0  0  0  0  0  0  0
   15.3010   -6.2711  -21.1686 O   0  0  0  0  0  0  0  0  0  0  0  0
   17.3648   -7.2958  -16.6326 C   0  0  0  0  0  0  0  0  0  0  0  0
   16.5499   -7.2646  -15.6843 O   0  0  0  0  0  0  0  0  0  0  0  0
   16.7421   -4.5378  -21.2144 O   0  0  0  0  0  0  0  0  0  0  0  0
   22.8071   -6.2304  -13.9679 N   0  0  0  0  0  0  0  0  0  0  0  0
   21.9348   -5.3346  -13.2631 C   0  0  0  0  0  0  0  0  0  0  0  0
   22.4275   -4.7925  -12.2474 O   0  0  0  0  0  0  0  0  0  0  0  0
   20.5596   -5.1100  -13.7527 C   0  0  0  0  0  0  0  0  0  0  0  0
   20.1982   -5.8528  -14.9886 C   0  0  0  0  0  0  0  0  0  0  0  0
   18.7919   -5.6519  -15.4443 C   0  0  2  0  0  0  0  0  0  0  0  0
   18.5261   -6.4857  -16.5986 N   0  0  0  0  0  0  0  0  0  0  0  0
   18.4014   -4.2468  -15.6726 C   0  0  0  0  0  0  0  0  0  0  0  0
   17.8376   -3.6169  -14.7169 O   0  0  0  0  0  0  0  0  0  0  0  0
   18.6021   -3.5577  -16.8496 O   0  0  0  0  0  0  0  0  0  0  0  0
  2  3  1  0
  2  1  1  1
  4  3  1  0
  4  9  2  0
  5  4  1  0
  6  5  2  0
  6  7  1  0
  7  8  2  0
  8  9  1  0
 10  2  1  0
 11 10  2  0
 12 10  1  0
 13 12  1  0
 14 15  1  0
 13 14  1  6
 15 16  1  0
 16 17  2  0
 18 27  1  0
 18 13  1  0
 19 18  2  0
 20 16  1  0
 22 24  1  0
 22 21  1  0
 23 22  2  0
 26 25  1  6
 25 24  1  0
 26 27  1  0
 28 26  1  0
 29 28  2  0
 30 28  1  0
M  END
$$$$
