FEQ.pdb
     RDKit          3D

 30 30  0  0  1  0  0  0  0  0999 V2000
   25.5279  -10.8063  -18.1982 N   0  0  0  0  0  0  0  0  0  0  0  0
   25.0362  -10.7362  -16.8477 C   0  0  1  0  0  0  0  0  0  0  0  0
   26.2125  -10.5119  -15.9323 C   0  0  0  0  0  0  0  0  0  0  0  0
   27.1022  -11.6818  -16.0758 C   0  0  0  0  0  0  0  0  0  0  0  0
   26.7468  -12.9285  -15.6229 C   0  0  0  0  0  0  0  0  0  0  0  0
   27.6077  -14.0220  -15.7689 C   0  0  0  0  0  0  0  0  0  0  0  0
   28.8451  -13.8617  -16.3793 C   0  0  0  0  0  0  0  0  0  0  0  0
   29.1971  -12.6113  -16.8316 C   0  0  0  0  0  0  0  0  0  0  0  0
   28.3286  -11.5461  -16.6754 C   0  0  0  0  0  0  0  0  0  0  0  0
   23.9626   -9.7373  -16.6844 C   0  0  0  0  0  0  0  0  0  0  0  0
   23.9918   -8.6705  -17.3664 O   0  0  0  0  0  0  0  0  0  0  0  0
   22.8711   -9.8945  -15.7921 N   0  0  0  0  0  0  0  0  0  0  0  0
   21.8330   -8.8912  -15.5921 C   0  0  1  0  0  0  0  0  0  0  0  0
   20.5429   -9.5101  -15.1950 C   0  0  0  0  0  0  0  0  0  0  0  0
   19.9170  -10.4581  -16.1443 C   0  0  0  0  0  0  0  0  0  0  0  0
   18.6672  -11.0829  -15.7376 C   0  0  0  0  0  0  0  0  0  0  0  0
   17.7323  -11.2821  -16.5498 O   0  0  0  0  0  0  0  0  0  0  0  0
   22.2779   -7.7438  -14.8022 C   0  0  0  0  0  0  0  0  0  0  0  0
   23.4472   -7.6941  -14.3609 O   0  0  0  0  0  0  0  0  0  0  0  0
   18.4622  -11.4843  -14.4261 O   0  0  0  0  0  0  0  0  0  0  0  0
   23.1865   -1.2046  -15.8921 N   0  0  0  0  0  0  0  0  0  0  0  0
   22.7886   -2.5684  -16.0963 C   0  0  0  0  0  0  0  0  0  0  0  0
   21.8821   -2.7429  -16.9427 O   0  0  0  0  0  0  0  0  0  0  0  0
   23.4417   -3.6481  -15.3289 C   0  0  0  0  0  0  0  0  0  0  0  0
   22.8094   -4.9874  -15.4568 C   0  0  0  0  0  0  0  0  0  0  0  0
   21.8721   -5.3391  -14.3507 C   0  0  2  0  0  0  0  0  0  0  0  0
   21.3735   -6.6860  -14.5393 N   0  0  0  0  0  0  0  0  0  0  0  0
   20.7821   -4.3707  -14.1208 C   0  0  0  0  0  0  0  0  0  0  0  0
   19.7161   -4.4906  -14.8115 O   0  0  0  0  0  0  0  0  0  0  0  0
   20.8288   -3.3385  -13.2081 O   0  0  0  0  0  0  0  0  0  0  0  0
  2  3  1  0
  2  1  1  6
  4  3  1  0
  4  9  2  0
  5  4  1  0
  6  5  2  0
  6  7  1  0
  7  8  2  0
  8  9  1  0
 10  2  1  0
 11 10  2  0
 12 10  1  0
 13 12  1  0
 14 15  1  0
 13 14  1  1
 15 16  1  0
 16 17  2  0
 18 27  1  0
 18 13  1  0
 19 18  2  0
 20 16  1  0
 22 24  1  0
 22 21  1  0
 23 22  2  0
 26 25  1  6
 25 24  1  0
 26 27  1  0
 28 26  1  0
 29 28  2  0
 30 28  1  0
M  END
$$$$
