FEQ.pdb
     RDKit          3D

 30 30  0  0  1  0  0  0  0  0999 V2000
   25.1814  -35.4076  -10.5651 N   0  0  0  0  0  0  0  0  0  0  0  0
   25.9710  -34.5170   -9.7564 C   0  0  1  0  0  0  0  0  0  0  0  0
   25.4019  -33.1283   -9.8974 C   0  0  0  0  0  0  0  0  0  0  0  0
   25.5792  -32.7288  -11.3080 C   0  0  0  0  0  0  0  0  0  0  0  0
   24.5150  -32.5772  -12.1626 C   0  0  0  0  0  0  0  0  0  0  0  0
   24.7083  -32.1992  -13.4960 C   0  0  0  0  0  0  0  0  0  0  0  0
   25.9900  -31.9695  -13.9794 C   0  0  0  0  0  0  0  0  0  0  0  0
   27.0531  -32.1223  -13.1201 C   0  0  0  0  0  0  0  0  0  0  0  0
   26.8361  -32.4968  -11.8063 C   0  0  0  0  0  0  0  0  0  0  0  0
   26.0837  -34.9691   -8.3564 C   0  0  0  0  0  0  0  0  0  0  0  0
   25.1346  -35.6238   -7.8322 O   0  0  0  0  0  0  0  0  0  0  0  0
   27.2123  -34.7138   -7.5359 N   0  0  0  0  0  0  0  0  0  0  0  0
   27.3183  -35.1344   -6.1445 C   0  0  1  0  0  0  0  0  0  0  0  0
   28.7206  -35.0746   -5.6598 C   0  0  0  0  0  0  0  0  0  0  0  0
   28.9907  -35.5492   -4.2838 C   0  0  0  0  0  0  0  0  0  0  0  0
   28.7649  -34.6085   -3.1967 C   0  0  0  0  0  0  0  0  0  0  0  0
   28.2508  -34.9650   -2.1095 O   0  0  0  0  0  0  0  0  0  0  0  0
   26.3015  -34.5393   -5.2782 C   0  0  0  0  0  0  0  0  0  0  0  0
   25.6384  -33.5522   -5.6658 O   0  0  0  0  0  0  0  0  0  0  0  0
   29.1127  -33.2721   -3.3238 O   0  0  0  0  0  0  0  0  0  0  0  0
   22.8063  -32.2880   -4.1958 N   0  0  0  0  0  0  0  0  0  0  0  0
   22.0033  -33.2105   -3.4447 C   0  0  0  0  0  0  0  0  0  0  0  0
   20.9958  -32.7168   -2.8883 O   0  0  0  0  0  0  0  0  0  0  0  0
   22.3922  -34.6334   -3.3707 C   0  0  0  0  0  0  0  0  0  0  0  0
   23.6690  -34.9769   -4.0502 C   0  0  0  0  0  0  0  0  0  0  0  0
   24.8939  -34.7054   -3.2430 C   0  0  2  0  0  0  0  0  0  0  0  0
   26.0716  -35.0898   -3.9936 N   0  0  0  0  0  0  0  0  0  0  0  0
   24.8894  -35.2811   -1.8837 C   0  0  0  0  0  0  0  0  0  0  0  0
   24.4241  -34.5705   -0.9317 O   0  0  0  0  0  0  0  0  0  0  0  0
   25.3531  -36.5390   -1.5627 O   0  0  0  0  0  0  0  0  0  0  0  0
  2  3  1  0
  2  1  1  6
  4  3  1  0
  4  9  2  0
  5  4  1  0
  6  5  2  0
  6  7  1  0
  7  8  2  0
  8  9  1  0
 10  2  1  0
 11 10  2  0
 12 10  1  0
 13 12  1  0
 14 15  1  0
 13 14  1  1
 15 16  1  0
 16 17  2  0
 18 27  1  0
 18 13  1  0
 19 18  2  0
 20 16  1  0
 22 24  1  0
 22 21  1  0
 23 22  2  0
 26 25  1  6
 25 24  1  0
 26 27  1  0
 28 26  1  0
 29 28  2  0
 30 28  1  0
M  END
$$$$
