FEQ.pdb
     RDKit          3D

 30 30  0  0  1  0  0  0  0  0999 V2000
   26.3276  -10.6249  -18.4596 N   0  0  0  0  0  0  0  0  0  0  0  0
   25.6301  -10.9034  -17.2322 C   0  0  1  0  0  0  0  0  0  0  0  0
   26.4957  -10.4430  -16.0872 C   0  0  0  0  0  0  0  0  0  0  0  0
   27.7084  -11.2858  -16.0951 C   0  0  0  0  0  0  0  0  0  0  0  0
   28.9193  -10.8174  -16.5422 C   0  0  0  0  0  0  0  0  0  0  0  0
   30.0546  -11.6357  -16.5414 C   0  0  0  0  0  0  0  0  0  0  0  0
   29.9732  -12.9448  -16.0844 C   0  0  0  0  0  0  0  0  0  0  0  0
   28.7583  -13.4099  -15.6373 C   0  0  0  0  0  0  0  0  0  0  0  0
   27.6506  -12.5815  -15.6482 C   0  0  0  0  0  0  0  0  0  0  0  0
   24.2693  -10.3334  -17.2093 C   0  0  0  0  0  0  0  0  0  0  0  0
   24.0307   -9.2587  -17.8354 O   0  0  0  0  0  0  0  0  0  0  0  0
   23.1813  -10.9227  -16.5155 N   0  0  0  0  0  0  0  0  0  0  0  0
   21.8071  -10.4449  -16.6014 C   0  0  1  0  0  0  0  0  0  0  0  0
   20.8321  -11.5594  -16.4906 C   0  0  0  0  0  0  0  0  0  0  0  0
   20.8768  -12.6143  -17.5283 C   0  0  0  0  0  0  0  0  0  0  0  0
   19.9597  -13.7345  -17.3814 C   0  0  0  0  0  0  0  0  0  0  0  0
   19.1877  -13.8329  -16.3976 O   0  0  0  0  0  0  0  0  0  0  0  0
   21.5489   -9.2661  -15.7754 C   0  0  0  0  0  0  0  0  0  0  0  0
   21.9506   -9.2220  -14.5918 O   0  0  0  0  0  0  0  0  0  0  0  0
   19.9049  -14.7431  -18.3317 O   0  0  0  0  0  0  0  0  0  0  0  0
   22.8067   -3.7674  -17.5989 N   0  0  0  0  0  0  0  0  0  0  0  0
   21.4166   -3.9723  -17.8917 C   0  0  0  0  0  0  0  0  0  0  0  0
   20.9213   -3.1827  -18.7280 O   0  0  0  0  0  0  0  0  0  0  0  0
   20.6752   -5.0579  -17.2185 C   0  0  0  0  0  0  0  0  0  0  0  0
   21.4637   -5.8496  -16.2379 C   0  0  0  0  0  0  0  0  0  0  0  0
   20.7021   -6.9441  -15.5688 C   0  0  2  0  0  0  0  0  0  0  0  0
   20.8388   -8.1713  -16.3262 N   0  0  0  0  0  0  0  0  0  0  0  0
   19.2913   -6.6324  -15.2666 C   0  0  0  0  0  0  0  0  0  0  0  0
   18.3872   -7.3426  -15.8198 O   0  0  0  0  0  0  0  0  0  0  0  0
   18.8732   -5.6243  -14.4244 O   0  0  0  0  0  0  0  0  0  0  0  0
  2  3  1  0
  2  1  1  6
  4  3  1  0
  4  9  2  0
  5  4  1  0
  6  5  2  0
  6  7  1  0
  7  8  2  0
  8  9  1  0
 10  2  1  0
 11 10  2  0
 12 10  1  0
 13 12  1  0
 14 15  1  0
 13 14  1  1
 15 16  1  0
 16 17  2  0
 18 27  1  0
 18 13  1  0
 19 18  2  0
 20 16  1  0
 22 24  1  0
 22 21  1  0
 23 22  2  0
 26 25  1  6
 25 24  1  0
 26 27  1  0
 28 26  1  0
 29 28  2  0
 30 28  1  0
M  END
$$$$
