FEQ.pdb
     RDKit          3D

 30 30  0  0  1  0  0  0  0  0999 V2000
   24.6938  -19.6635   -8.3451 N   0  0  0  0  0  0  0  0  0  0  0  0
   25.8946  -20.0628   -9.0302 C   0  0  1  0  0  0  0  0  0  0  0  0
   26.4878  -21.2346   -8.2906 C   0  0  0  0  0  0  0  0  0  0  0  0
   27.2484  -20.6865   -7.1496 C   0  0  0  0  0  0  0  0  0  0  0  0
   28.5898  -20.4054   -7.2346 C   0  0  0  0  0  0  0  0  0  0  0  0
   29.2897  -19.8878   -6.1390 C   0  0  0  0  0  0  0  0  0  0  0  0
   28.6327  -19.6483   -4.9388 C   0  0  0  0  0  0  0  0  0  0  0  0
   27.2890  -19.9311   -4.8579 C   0  0  0  0  0  0  0  0  0  0  0  0
   26.6194  -20.4424   -5.9551 C   0  0  0  0  0  0  0  0  0  0  0  0
   25.6709  -20.3228  -10.4653 C   0  0  0  0  0  0  0  0  0  0  0  0
   24.4876  -20.4126  -10.9077 O   0  0  0  0  0  0  0  0  0  0  0  0
   26.7186  -20.4832  -11.4082 N   0  0  0  0  0  0  0  0  0  0  0  0
   26.5451  -20.3434  -12.8485 C   0  0  1  0  0  0  0  0  0  0  0  0
   27.8458  -20.1605  -13.5413 C   0  0  0  0  0  0  0  0  0  0  0  0
   27.8279  -20.0685  -15.0187 C   0  0  0  0  0  0  0  0  0  0  0  0
   27.6492  -18.7479  -15.6033 C   0  0  0  0  0  0  0  0  0  0  0  0
   28.5453  -17.8721  -15.5457 O   0  0  0  0  0  0  0  0  0  0  0  0
   25.6321  -21.3309  -13.4226 C   0  0  0  0  0  0  0  0  0  0  0  0
   25.7138  -22.5350  -13.0943 O   0  0  0  0  0  0  0  0  0  0  0  0
   26.4715  -18.4063  -16.2511 O   0  0  0  0  0  0  0  0  0  0  0  0
   20.3638  -22.1391  -11.2977 N   0  0  0  0  0  0  0  0  0  0  0  0
   20.4518  -21.1048  -12.2889 C   0  0  0  0  0  0  0  0  0  0  0  0
   19.3576  -20.7109  -12.7535 O   0  0  0  0  0  0  0  0  0  0  0  0
   21.7732  -20.5826  -12.6919 C   0  0  0  0  0  0  0  0  0  0  0  0
   22.7979  -21.6168  -12.9924 C   0  0  0  0  0  0  0  0  0  0  0  0
   23.3534  -21.5561  -14.3757 C   0  0  2  0  0  0  0  0  0  0  0  0
   24.6515  -20.9136  -14.3556 N   0  0  0  0  0  0  0  0  0  0  0  0
   22.4559  -20.9630  -15.3864 C   0  0  0  0  0  0  0  0  0  0  0  0
   21.4418  -21.6405  -15.7611 O   0  0  0  0  0  0  0  0  0  0  0  0
   22.6315  -19.7219  -15.9602 O   0  0  0  0  0  0  0  0  0  0  0  0
  2  3  1  0
  2  1  1  1
  4  3  1  0
  4  9  2  0
  5  4  1  0
  6  5  2  0
  6  7  1  0
  7  8  2  0
  8  9  1  0
 10  2  1  0
 11 10  2  0
 12 10  1  0
 13 12  1  0
 14 15  1  0
 13 14  1  6
 15 16  1  0
 16 17  2  0
 18 27  1  0
 18 13  1  0
 19 18  2  0
 20 16  1  0
 22 24  1  0
 22 21  1  0
 23 22  2  0
 26 25  1  1
 25 24  1  0
 26 27  1  0
 28 26  1  0
 29 28  2  0
 30 28  1  0
M  END
$$$$
