FEQ.pdb
     RDKit          3D

 30 30  0  0  1  0  0  0  0  0999 V2000
   35.0156  -26.1334    3.9147 N   0  0  0  0  0  0  0  0  0  0  0  0
   35.1621  -24.9690    4.7474 C   0  0  1  0  0  0  0  0  0  0  0  0
   33.8582  -24.7425    5.4690 C   0  0  0  0  0  0  0  0  0  0  0  0
   33.3633  -23.4121    5.0618 C   0  0  0  0  0  0  0  0  0  0  0  0
   33.5983  -22.2856    5.8110 C   0  0  0  0  0  0  0  0  0  0  0  0
   33.1176  -21.0356    5.4052 C   0  0  0  0  0  0  0  0  0  0  0  0
   32.3895  -20.9142    4.2286 C   0  0  0  0  0  0  0  0  0  0  0  0
   32.1565  -22.0451    3.4810 C   0  0  0  0  0  0  0  0  0  0  0  0
   32.6422  -23.2694    3.9034 C   0  0  0  0  0  0  0  0  0  0  0  0
   36.3274  -25.0569    5.6482 C   0  0  0  0  0  0  0  0  0  0  0  0
   36.5207  -26.1132    6.3196 O   0  0  0  0  0  0  0  0  0  0  0  0
   37.2709  -24.0113    5.8180 N   0  0  0  0  0  0  0  0  0  0  0  0
   38.4074  -24.0809    6.7278 C   0  0  1  0  0  0  0  0  0  0  0  0
   39.4780  -23.1277    6.3403 C   0  0  0  0  0  0  0  0  0  0  0  0
   40.6971  -23.0887    7.1793 C   0  0  0  0  0  0  0  0  0  0  0  0
   41.7443  -22.1553    6.7924 C   0  0  0  0  0  0  0  0  0  0  0  0
   42.9602  -22.4312    6.9299 O   0  0  0  0  0  0  0  0  0  0  0  0
   38.0227  -24.0935    8.1385 C   0  0  0  0  0  0  0  0  0  0  0  0
   37.1154  -23.3397    8.5542 O   0  0  0  0  0  0  0  0  0  0  0  0
   41.4339  -20.9160    6.2529 O   0  0  0  0  0  0  0  0  0  0  0  0
   38.1595  -29.2646   10.6009 N   0  0  0  0  0  0  0  0  0  0  0  0
   36.9468  -28.5798   10.2541 C   0  0  0  0  0  0  0  0  0  0  0  0
   35.9988  -29.3144    9.8934 O   0  0  0  0  0  0  0  0  0  0  0  0
   36.8843  -27.1065   10.3370 C   0  0  0  0  0  0  0  0  0  0  0  0
   38.1173  -26.4481   10.8431 C   0  0  0  0  0  0  0  0  0  0  0  0
   38.2783  -25.0258   10.4226 C   0  0  2  0  0  0  0  0  0  0  0  0
   38.6864  -24.9676    9.0339 N   0  0  0  0  0  0  0  0  0  0  0  0
   39.1486  -24.2096   11.2917 C   0  0  0  0  0  0  0  0  0  0  0  0
   40.2833  -24.6880   11.6253 O   0  0  0  0  0  0  0  0  0  0  0  0
   38.8257  -22.9590   11.7736 O   0  0  0  0  0  0  0  0  0  0  0  0
  2  3  1  0
  2  1  1  1
  4  3  1  0
  4  9  2  0
  5  4  1  0
  6  5  2  0
  6  7  1  0
  7  8  2  0
  8  9  1  0
 10  2  1  0
 11 10  2  0
 12 10  1  0
 13 12  1  0
 14 15  1  0
 13 14  1  1
 15 16  1  0
 16 17  2  0
 18 27  1  0
 18 13  1  0
 19 18  2  0
 20 16  1  0
 22 24  1  0
 22 21  1  0
 23 22  2  0
 26 25  1  1
 25 24  1  0
 26 27  1  0
 28 26  1  0
 29 28  2  0
 30 28  1  0
M  END
$$$$
