FEQ.pdb
     RDKit          3D

 30 30  0  0  1  0  0  0  0  0999 V2000
   27.5725  -21.4762  -14.4630 N   0  0  0  0  0  0  0  0  0  0  0  0
   26.7206  -21.0135  -13.3996 C   0  0  1  0  0  0  0  0  0  0  0  0
   27.3618  -19.7973  -12.7817 C   0  0  0  0  0  0  0  0  0  0  0  0
   28.2442  -20.2760  -11.6987 C   0  0  0  0  0  0  0  0  0  0  0  0
   27.7522  -20.6843  -10.4834 C   0  0  0  0  0  0  0  0  0  0  0  0
   28.6086  -21.1326   -9.4717 C   0  0  0  0  0  0  0  0  0  0  0  0
   29.9809  -21.1720   -9.6830 C   0  0  0  0  0  0  0  0  0  0  0  0
   30.4696  -20.7622  -10.9017 C   0  0  0  0  0  0  0  0  0  0  0  0
   29.6025  -20.3231  -11.8859 C   0  0  0  0  0  0  0  0  0  0  0  0
   25.3310  -20.7877  -13.8414 C   0  0  0  0  0  0  0  0  0  0  0  0
   25.1016  -20.4676  -15.0451 O   0  0  0  0  0  0  0  0  0  0  0  0
   24.2048  -20.9080  -12.9873 N   0  0  0  0  0  0  0  0  0  0  0  0
   22.8276  -20.7206  -13.4259 C   0  0  1  0  0  0  0  0  0  0  0  0
   21.8606  -21.2798  -12.4475 C   0  0  0  0  0  0  0  0  0  0  0  0
   20.4233  -21.2266  -12.7980 C   0  0  0  0  0  0  0  0  0  0  0  0
   19.4897  -21.8729  -11.8878 C   0  0  0  0  0  0  0  0  0  0  0  0
   19.8759  -22.4456  -10.8408 O   0  0  0  0  0  0  0  0  0  0  0  0
   22.5527  -19.3714  -13.9182 C   0  0  0  0  0  0  0  0  0  0  0  0
   22.8538  -18.3722  -13.2288 O   0  0  0  0  0  0  0  0  0  0  0  0
   18.1273  -21.8795  -12.1467 O   0  0  0  0  0  0  0  0  0  0  0  0
   22.5220  -15.7149  -18.9230 N   0  0  0  0  0  0  0  0  0  0  0  0
   22.3680  -17.1218  -19.1614 C   0  0  0  0  0  0  0  0  0  0  0  0
   22.2050  -17.4495  -20.3590 O   0  0  0  0  0  0  0  0  0  0  0  0
   22.4077  -18.0686  -18.0285 C   0  0  0  0  0  0  0  0  0  0  0  0
   22.6052  -17.4486  -16.6919 C   0  0  0  0  0  0  0  0  0  0  0  0
   21.6161  -17.8733  -15.6589 C   0  0  2  0  0  0  0  0  0  0  0  0
   21.9416  -19.2029  -15.1848 N   0  0  0  0  0  0  0  0  0  0  0  0
   20.2006  -17.7586  -16.0614 C   0  0  0  0  0  0  0  0  0  0  0  0
   19.5514  -18.8331  -16.2885 O   0  0  0  0  0  0  0  0  0  0  0  0
   19.5212  -16.5684  -16.2110 O   0  0  0  0  0  0  0  0  0  0  0  0
  2  3  1  0
  2  1  1  6
  4  3  1  0
  4  9  2  0
  5  4  1  0
  6  5  2  0
  6  7  1  0
  7  8  2  0
  8  9  1  0
 10  2  1  0
 11 10  2  0
 12 10  1  0
 13 12  1  0
 14 15  1  0
 13 14  1  1
 15 16  1  0
 16 17  2  0
 18 27  1  0
 18 13  1  0
 19 18  2  0
 20 16  1  0
 22 24  1  0
 22 21  1  0
 23 22  2  0
 26 25  1  6
 25 24  1  0
 26 27  1  0
 28 26  1  0
 29 28  2  0
 30 28  1  0
M  END
$$$$
