FEQ.pdb
     RDKit          3D

 30 30  0  0  1  0  0  0  0  0999 V2000
   21.6129   -8.2912  -16.2878 N   0  0  0  0  0  0  0  0  0  0  0  0
   21.0831   -8.9322  -15.1135 C   0  0  1  0  0  0  0  0  0  0  0  0
   22.0831   -8.7657  -13.9979 C   0  0  0  0  0  0  0  0  0  0  0  0
   22.0977   -7.3331  -13.6398 C   0  0  0  0  0  0  0  0  0  0  0  0
   21.4455   -6.8514  -12.5316 C   0  0  0  0  0  0  0  0  0  0  0  0
   21.4725   -5.4889  -12.2135 C   0  0  0  0  0  0  0  0  0  0  0  0
   22.1654   -4.5956  -13.0205 C   0  0  0  0  0  0  0  0  0  0  0  0
   22.8174   -5.0822  -14.1296 C   0  0  0  0  0  0  0  0  0  0  0  0
   22.7758   -6.4334  -14.4228 C   0  0  0  0  0  0  0  0  0  0  0  0
   19.7294   -8.4576  -14.7682 C   0  0  0  0  0  0  0  0  0  0  0  0
   19.3379   -7.3271  -15.1839 O   0  0  0  0  0  0  0  0  0  0  0  0
   18.8122   -9.2008  -13.9816 N   0  0  0  0  0  0  0  0  0  0  0  0
   17.4643   -8.7494  -13.6598 C   0  0  1  0  0  0  0  0  0  0  0  0
   16.5027   -9.8803  -13.6225 C   0  0  0  0  0  0  0  0  0  0  0  0
   15.5065   -9.9686  -14.7141 C   0  0  0  0  0  0  0  0  0  0  0  0
   14.5091  -11.0243  -14.6239 C   0  0  0  0  0  0  0  0  0  0  0  0
   14.8266  -12.2377  -14.6423 O   0  0  0  0  0  0  0  0  0  0  0  0
   17.4171   -7.8141  -12.5367 C   0  0  0  0  0  0  0  0  0  0  0  0
   18.4652   -7.4966  -11.9326 O   0  0  0  0  0  0  0  0  0  0  0  0
   13.1594  -10.7253  -14.5133 O   0  0  0  0  0  0  0  0  0  0  0  0
   18.6297   -2.8779  -12.1810 N   0  0  0  0  0  0  0  0  0  0  0  0
   18.0417   -2.9120  -10.8722 C   0  0  0  0  0  0  0  0  0  0  0  0
   18.3225   -1.9422  -10.1312 O   0  0  0  0  0  0  0  0  0  0  0  0
   17.1735   -4.0424  -10.4850 C   0  0  0  0  0  0  0  0  0  0  0  0
   17.1248   -5.1653  -11.4578 C   0  0  0  0  0  0  0  0  0  0  0  0
   16.1308   -6.2282  -11.1290 C   0  0  2  0  0  0  0  0  0  0  0  0
   16.1729   -7.2683  -12.1364 N   0  0  0  0  0  0  0  0  0  0  0  0
   14.7567   -5.7476  -10.8843 C   0  0  0  0  0  0  0  0  0  0  0  0
   14.5497   -5.0151   -9.8604 O   0  0  0  0  0  0  0  0  0  0  0  0
   13.6714   -6.0320  -11.6855 O   0  0  0  0  0  0  0  0  0  0  0  0
  2  3  1  0
  2  1  1  6
  4  3  1  0
  4  9  2  0
  5  4  1  0
  6  5  2  0
  6  7  1  0
  7  8  2  0
  8  9  1  0
 10  2  1  0
 11 10  2  0
 12 10  1  0
 13 12  1  0
 14 15  1  0
 13 14  1  1
 15 16  1  0
 16 17  2  0
 18 27  1  0
 18 13  1  0
 19 18  2  0
 20 16  1  0
 22 24  1  0
 22 21  1  0
 23 22  2  0
 26 25  1  6
 25 24  1  0
 26 27  1  0
 28 26  1  0
 29 28  2  0
 30 28  1  0
M  END
$$$$
