FEQ.pdb
     RDKit          3D

 30 30  0  0  1  0  0  0  0  0999 V2000
   22.4981   -8.4556  -14.3694 N   0  0  0  0  0  0  0  0  0  0  0  0
   22.9107   -8.5223  -15.7463 C   0  0  1  0  0  0  0  0  0  0  0  0
   23.3199   -9.9422  -16.0440 C   0  0  0  0  0  0  0  0  0  0  0  0
   24.7958   -9.9828  -16.0145 C   0  0  0  0  0  0  0  0  0  0  0  0
   25.5622   -9.3437  -16.9577 C   0  0  0  0  0  0  0  0  0  0  0  0
   26.9597   -9.3978  -16.9097 C   0  0  0  0  0  0  0  0  0  0  0  0
   27.5982  -10.1046  -15.8988 C   0  0  0  0  0  0  0  0  0  0  0  0
   26.8268  -10.7433  -14.9558 C   0  0  0  0  0  0  0  0  0  0  0  0
   25.4469  -10.6749  -15.0250 C   0  0  0  0  0  0  0  0  0  0  0  0
   21.8894   -7.9961  -16.6723 C   0  0  0  0  0  0  0  0  0  0  0  0
   20.6822   -8.3563  -16.5421 O   0  0  0  0  0  0  0  0  0  0  0  0
   22.1751   -7.0905  -17.7260 N   0  0  0  0  0  0  0  0  0  0  0  0
   21.1814   -6.6109  -18.6782 C   0  0  1  0  0  0  0  0  0  0  0  0
   21.3113   -5.1509  -18.9163 C   0  0  0  0  0  0  0  0  0  0  0  0
   20.8504   -4.2386  -17.8453 C   0  0  0  0  0  0  0  0  0  0  0  0
   21.7664   -3.9863  -16.7431 C   0  0  0  0  0  0  0  0  0  0  0  0
   22.7592   -3.2298  -16.8680 O   0  0  0  0  0  0  0  0  0  0  0  0
   21.0562   -7.4577  -19.8638 C   0  0  0  0  0  0  0  0  0  0  0  0
   22.0766   -7.8828  -20.4489 O   0  0  0  0  0  0  0  0  0  0  0  0
   21.5738   -4.5778  -15.5037 O   0  0  0  0  0  0  0  0  0  0  0  0
   16.6383  -11.6360  -20.6625 N   0  0  0  0  0  0  0  0  0  0  0  0
   17.2492  -11.6326  -21.9613 C   0  0  0  0  0  0  0  0  0  0  0  0
   16.9797  -12.6187  -22.6848 O   0  0  0  0  0  0  0  0  0  0  0  0
   18.1272  -10.5133  -22.3584 C   0  0  0  0  0  0  0  0  0  0  0  0
   18.3493   -9.4810  -21.3121 C   0  0  0  0  0  0  0  0  0  0  0  0
   19.6296   -8.7269  -21.4465 C   0  0  2  0  0  0  0  0  0  0  0  0
   19.7680   -7.7946  -20.3466 N   0  0  0  0  0  0  0  0  0  0  0  0
   19.8400   -8.0771  -22.7551 C   0  0  0  0  0  0  0  0  0  0  0  0
   20.6650   -8.6139  -23.5669 O   0  0  0  0  0  0  0  0  0  0  0  0
   19.2069   -6.9250  -23.1701 O   0  0  0  0  0  0  0  0  0  0  0  0
  2  3  1  0
  2  1  1  1
  4  3  1  0
  4  9  2  0
  5  4  1  0
  6  5  2  0
  6  7  1  0
  7  8  2  0
  8  9  1  0
 10  2  1  0
 11 10  2  0
 12 10  1  0
 13 12  1  0
 14 15  1  0
 13 14  1  6
 15 16  1  0
 16 17  2  0
 18 27  1  0
 18 13  1  0
 19 18  2  0
 20 16  1  0
 22 24  1  0
 22 21  1  0
 23 22  2  0
 26 25  1  6
 25 24  1  0
 26 27  1  0
 28 26  1  0
 29 28  2  0
 30 28  1  0
M  END
$$$$
