WMR.pdb
     RDKit          3D

 34 35  0  0  1  0  0  0  0  0999 V2000
   27.3342  -20.0334  -16.4210 N   0  0  0  0  0  0  0  0  0  0  0  0
   26.6943  -19.3513  -15.3039 C   0  0  1  0  0  0  0  0  0  0  0  0
   25.5581  -18.4998  -15.8445 C   0  0  0  0  0  0  0  0  0  0  0  0
   26.0005  -17.3340  -16.6140 C   0  0  0  0  0  0  0  0  0  0  0  0
   25.7656  -17.0405  -17.9370 C   0  0  0  0  0  0  0  0  0  0  0  0
   26.3394  -15.8716  -18.2511 N   0  0  0  0  0  0  0  0  0  0  0  0
   26.9559  -15.3890  -17.1339 C   0  0  0  0  0  0  0  0  0  0  0  0
   27.6862  -14.2464  -16.8876 C   0  0  0  0  0  0  0  0  0  0  0  0
   28.2220  -13.9697  -15.6509 C   0  0  0  0  0  0  0  0  0  0  0  0
   28.0105  -14.8863  -14.6228 C   0  0  0  0  0  0  0  0  0  0  0  0
   27.2816  -16.0325  -14.8590 C   0  0  0  0  0  0  0  0  0  0  0  0
   26.7495  -16.2918  -16.1146 C   0  0  0  0  0  0  0  0  0  0  0  0
   26.0832  -20.3605  -14.3822 C   0  0  0  0  0  0  0  0  0  0  0  0
   25.5747  -21.4309  -14.7836 O   0  0  0  0  0  0  0  0  0  0  0  0
   26.7509  -20.7060   -7.5347 C   0  0  0  0  0  0  0  0  0  0  0  0
   25.1872  -21.4621   -7.9272 S   0  0  0  0  0  0  0  0  0  0  0  0
   24.8906  -21.6812   -9.6395 C   0  0  0  0  0  0  0  0  0  0  0  0
   25.5403  -20.8358  -10.6322 C   0  0  0  0  0  0  0  0  0  0  0  0
   25.3466  -20.8966  -12.0694 C   0  0  2  0  0  0  0  0  0  0  0  0
   26.0855  -20.0743  -12.9478 N   0  0  0  0  0  0  0  0  0  0  0  0
   23.8602  -20.6570  -12.3345 C   0  0  0  0  0  0  0  0  0  0  0  0
   23.4952  -19.4671  -12.4016 O   0  0  0  0  0  0  0  0  0  0  0  0
   21.5664  -26.9161  -12.5838 N   0  0  0  0  0  0  0  0  0  0  0  0
   20.1575  -26.9190  -12.5062 C   0  0  0  0  0  0  0  0  0  0  0  0
   19.5737  -27.7990  -11.7709 N   0  0  0  0  0  0  0  0  0  0  0  0
   19.4082  -25.9585  -13.2346 N   0  0  0  0  0  0  0  0  0  0  0  0
   20.0881  -24.8727  -13.9004 C   0  0  0  0  0  0  0  0  0  0  0  0
   20.4146  -23.7327  -12.9492 C   0  0  0  0  0  0  0  0  0  0  0  0
   21.0963  -22.5975  -13.6757 C   0  0  0  0  0  0  0  0  0  0  0  0
   21.5087  -21.4763  -12.7513 C   0  0  2  0  0  0  0  0  0  0  0  0
   22.9415  -21.6951  -12.4966 N   0  0  0  0  0  0  0  0  0  0  0  0
   20.7550  -21.3924  -11.5073 C   0  0  0  0  0  0  0  0  0  0  0  0
   19.4886  -20.8271  -11.4528 O   0  0  0  0  0  0  0  0  0  0  0  0
   21.2286  -21.8319  -10.4380 O   0  0  0  0  0  0  0  0  0  0  0  0
  2  1  1  6
  3  2  1  0
  4  5  2  0
  4  3  1  0
  6  5  1  0
  7 12  2  0
  7  6  1  0
  8  7  1  0
  9 10  1  0
  9  8  2  0
 10 11  2  0
 11 12  1  0
 12  4  1  0
 13  2  1  0
 14 13  2  0
 16 15  1  0
 17 16  1  0
 17 18  1  0
 19 18  1  1
 19 20  1  0
 20 13  1  0
 21 19  1  0
 22 21  2  0
 23 24  1  0
 24 25  2  0
 24 26  1  0
 26 27  1  0
 27 28  1  0
 29 28  1  0
 30 29  1  6
 30 31  1  0
 31 21  1  0
 32 30  1  0
 32 33  1  0
 34 32  2  0
M  END
$$$$
