WMR.pdb
     RDKit          3D

 34 35  0  0  1  0  0  0  0  0999 V2000
   25.1173  -22.0111  -11.4107 N   0  0  0  0  0  0  0  0  0  0  0  0
   25.2359  -20.5712  -11.5988 C   0  0  1  0  0  0  0  0  0  0  0  0
   24.8798  -19.8823  -10.2923 C   0  0  0  0  0  0  0  0  0  0  0  0
   23.6686  -20.4043   -9.6538 C   0  0  0  0  0  0  0  0  0  0  0  0
   23.5258  -20.9403   -8.3952 C   0  0  0  0  0  0  0  0  0  0  0  0
   22.2490  -21.2920   -8.1943 N   0  0  0  0  0  0  0  0  0  0  0  0
   21.5438  -20.9885   -9.3219 C   0  0  0  0  0  0  0  0  0  0  0  0
   20.2165  -21.1339   -9.6633 C   0  0  0  0  0  0  0  0  0  0  0  0
   19.7267  -20.7459  -10.8891 C   0  0  0  0  0  0  0  0  0  0  0  0
   20.6161  -20.1889  -11.8060 C   0  0  0  0  0  0  0  0  0  0  0  0
   21.9460  -20.0394  -11.4744 C   0  0  0  0  0  0  0  0  0  0  0  0
   22.4189  -20.4374  -10.2315 C   0  0  0  0  0  0  0  0  0  0  0  0
   26.6590  -20.2197  -11.9037 C   0  0  0  0  0  0  0  0  0  0  0  0
   27.0495  -19.0433  -12.0739 O   0  0  0  0  0  0  0  0  0  0  0  0
   32.3844  -22.6040   -9.6735 C   0  0  0  0  0  0  0  0  0  0  0  0
   32.8108  -22.1084  -11.3298 S   0  0  0  0  0  0  0  0  0  0  0  0
   31.4898  -21.4165  -12.2487 C   0  0  0  0  0  0  0  0  0  0  0  0
   30.1034  -21.6326  -11.8567 C   0  0  0  0  0  0  0  0  0  0  0  0
   28.9338  -21.0399  -12.4793 C   0  0  2  0  0  0  0  0  0  0  0  0
   27.6312  -21.3078  -12.0047 N   0  0  0  0  0  0  0  0  0  0  0  0
   28.9807  -21.4027  -13.9636 C   0  0  0  0  0  0  0  0  0  0  0  0
   28.7732  -22.5985  -14.2476 O   0  0  0  0  0  0  0  0  0  0  0  0
   23.7004  -19.9548  -19.9626 N   0  0  0  0  0  0  0  0  0  0  0  0
   24.4078  -21.1480  -20.2213 C   0  0  0  0  0  0  0  0  0  0  0  0
   23.8552  -22.0582  -20.9438 N   0  0  0  0  0  0  0  0  0  0  0  0
   25.7098  -21.3272  -19.6853 N   0  0  0  0  0  0  0  0  0  0  0  0
   26.2732  -20.3208  -18.8171 C   0  0  0  0  0  0  0  0  0  0  0  0
   27.6832  -20.6735  -18.3714 C   0  0  0  0  0  0  0  0  0  0  0  0
   27.8753  -20.3880  -16.9007 C   0  0  0  0  0  0  0  0  0  0  0  0
   29.2413  -20.7947  -16.4003 C   0  0  2  0  0  0  0  0  0  0  0  0
   29.2388  -20.4662  -14.9657 N   0  0  0  0  0  0  0  0  0  0  0  0
   30.3627  -20.1674  -17.0868 C   0  0  0  0  0  0  0  0  0  0  0  0
   31.0254  -20.7926  -18.1337 O   0  0  0  0  0  0  0  0  0  0  0  0
   30.7683  -19.0339  -16.7525 O   0  0  0  0  0  0  0  0  0  0  0  0
  2  1  1  1
  3  2  1  0
  4  5  2  0
  4  3  1  0
  6  5  1  0
  7 12  2  0
  7  6  1  0
  8  7  1  0
  9 10  1  0
  9  8  2  0
 10 11  2  0
 11 12  1  0
 12  4  1  0
 13  2  1  0
 14 13  2  0
 16 15  1  0
 17 16  1  0
 17 18  1  0
 19 18  1  1
 19 20  1  0
 20 13  1  0
 21 19  1  0
 22 21  2  0
 23 24  1  0
 24 25  2  0
 24 26  1  0
 26 27  1  0
 27 28  1  0
 29 28  1  0
 30 29  1  6
 30 31  1  0
 31 21  1  0
 32 30  1  0
 32 33  1  0
 34 32  2  0
M  END
$$$$
