WMR.pdb
     RDKit          3D

 34 35  0  0  1  0  0  0  0  0999 V2000
   26.1432  -21.7683  -13.5448 N   0  0  0  0  0  0  0  0  0  0  0  0
   25.8267  -20.5760  -12.7696 C   0  0  1  0  0  0  0  0  0  0  0  0
   24.4823  -20.0411  -13.2331 C   0  0  0  0  0  0  0  0  0  0  0  0
   24.5125  -19.4222  -14.5610 C   0  0  0  0  0  0  0  0  0  0  0  0
   23.6792  -19.6487  -15.6316 C   0  0  0  0  0  0  0  0  0  0  0  0
   24.0412  -18.8711  -16.6604 N   0  0  0  0  0  0  0  0  0  0  0  0
   25.1167  -18.1275  -16.2712 C   0  0  0  0  0  0  0  0  0  0  0  0
   25.8823  -17.1802  -16.9160 C   0  0  0  0  0  0  0  0  0  0  0  0
   26.9424  -16.5520  -16.3039 C   0  0  0  0  0  0  0  0  0  0  0  0
   27.2394  -16.8967  -14.9868 C   0  0  0  0  0  0  0  0  0  0  0  0
   26.4798  -17.8434  -14.3330 C   0  0  0  0  0  0  0  0  0  0  0  0
   25.4142  -18.4649  -14.9694 C   0  0  0  0  0  0  0  0  0  0  0  0
   25.6768  -20.9407  -11.3253 C   0  0  0  0  0  0  0  0  0  0  0  0
   25.1755  -22.0215  -10.9433 O   0  0  0  0  0  0  0  0  0  0  0  0
   27.8026  -21.7083   -4.7016 C   0  0  0  0  0  0  0  0  0  0  0  0
   27.9360  -20.1388   -5.5322 S   0  0  0  0  0  0  0  0  0  0  0  0
   26.5346  -19.6942   -6.4842 C   0  0  0  0  0  0  0  0  0  0  0  0
   26.6341  -19.4885   -7.9230 C   0  0  0  0  0  0  0  0  0  0  0  0
   25.9711  -20.2721   -8.9493 C   0  0  2  0  0  0  0  0  0  0  0  0
   26.1412  -19.9840  -10.3211 N   0  0  0  0  0  0  0  0  0  0  0  0
   24.4739  -20.2433   -8.6417 C   0  0  0  0  0  0  0  0  0  0  0  0
   23.8633  -19.2050   -8.9621 O   0  0  0  0  0  0  0  0  0  0  0  0
   17.4005  -25.4874   -7.8622 N   0  0  0  0  0  0  0  0  0  0  0  0
   18.0953  -25.1010   -9.0279 C   0  0  0  0  0  0  0  0  0  0  0  0
   17.5910  -25.3815  -10.1781 N   0  0  0  0  0  0  0  0  0  0  0  0
   19.3319  -24.4132   -8.9174 N   0  0  0  0  0  0  0  0  0  0  0  0
   19.9377  -24.2300   -7.6199 C   0  0  0  0  0  0  0  0  0  0  0  0
   20.4226  -22.8045   -7.4106 C   0  0  0  0  0  0  0  0  0  0  0  0
   21.8735  -22.6609   -7.8054 C   0  0  0  0  0  0  0  0  0  0  0  0
   22.3877  -21.2505   -7.6377 C   0  0  2  0  0  0  0  0  0  0  0  0
   23.8031  -21.3072   -8.0366 N   0  0  0  0  0  0  0  0  0  0  0  0
   22.2347  -20.6920   -6.3008 C   0  0  0  0  0  0  0  0  0  0  0  0
   21.1730  -19.8622   -5.9688 O   0  0  0  0  0  0  0  0  0  0  0  0
   23.0626  -20.9451   -5.3999 O   0  0  0  0  0  0  0  0  0  0  0  0
  2  1  1  6
  3  2  1  0
  4  5  2  0
  4  3  1  0
  6  5  1  0
  7 12  2  0
  7  6  1  0
  8  7  1  0
  9 10  1  0
  9  8  2  0
 10 11  2  0
 11 12  1  0
 12  4  1  0
 13  2  1  0
 14 13  2  0
 16 15  1  0
 17 16  1  0
 17 18  1  0
 19 18  1  1
 19 20  1  0
 20 13  1  0
 21 19  1  0
 22 21  2  0
 23 24  1  0
 24 25  2  0
 24 26  1  0
 26 27  1  0
 27 28  1  0
 29 28  1  0
 30 29  1  1
 30 31  1  0
 31 21  1  0
 32 30  1  0
 32 33  1  0
 34 32  2  0
M  END
$$$$
