WMR.pdb
     RDKit          3D

 34 35  0  0  1  0  0  0  0  0999 V2000
   24.9040  -19.6694   -8.5754 N   0  0  0  0  0  0  0  0  0  0  0  0
   26.2311  -20.0066   -9.0733 C   0  0  1  0  0  0  0  0  0  0  0  0
   26.9182  -20.8977   -8.0524 C   0  0  0  0  0  0  0  0  0  0  0  0
   27.1732  -20.2440   -6.7660 C   0  0  0  0  0  0  0  0  0  0  0  0
   26.3319  -19.4430   -6.0297 C   0  0  0  0  0  0  0  0  0  0  0  0
   26.9467  -19.0518   -4.9058 N   0  0  0  0  0  0  0  0  0  0  0  0
   28.1982  -19.5947   -4.8969 C   0  0  0  0  0  0  0  0  0  0  0  0
   29.2426  -19.5242   -4.0004 C   0  0  0  0  0  0  0  0  0  0  0  0
   30.4378  -20.1717   -4.2130 C   0  0  0  0  0  0  0  0  0  0  0  0
   30.5815  -20.9200   -5.3797 C   0  0  0  0  0  0  0  0  0  0  0  0
   29.5429  -20.9966   -6.2831 C   0  0  0  0  0  0  0  0  0  0  0  0
   28.3450  -20.3355   -6.0485 C   0  0  0  0  0  0  0  0  0  0  0  0
   26.1073  -20.8033  -10.3348 C   0  0  0  0  0  0  0  0  0  0  0  0
   25.1084  -21.5080  -10.6011 O   0  0  0  0  0  0  0  0  0  0  0  0
   26.8222  -17.7235  -16.9777 C   0  0  0  0  0  0  0  0  0  0  0  0
   26.9209  -18.1427  -15.2499 S   0  0  0  0  0  0  0  0  0  0  0  0
   27.9402  -19.5207  -14.8892 C   0  0  0  0  0  0  0  0  0  0  0  0
   28.0627  -20.0340  -13.5312 C   0  0  0  0  0  0  0  0  0  0  0  0
   26.9717  -20.2809  -12.6061 C   0  0  2  0  0  0  0  0  0  0  0  0
   27.2091  -20.7489  -11.2953 N   0  0  0  0  0  0  0  0  0  0  0  0
   26.0125  -21.2552  -13.2901 C   0  0  0  0  0  0  0  0  0  0  0  0
   26.4586  -22.3941  -13.5297 O   0  0  0  0  0  0  0  0  0  0  0  0
   19.2375  -24.8559  -13.2401 N   0  0  0  0  0  0  0  0  0  0  0  0
   19.3754  -24.2721  -11.9630 C   0  0  0  0  0  0  0  0  0  0  0  0
   19.1593  -24.9932  -10.9193 N   0  0  0  0  0  0  0  0  0  0  0  0
   19.7481  -22.9074  -11.8470 N   0  0  0  0  0  0  0  0  0  0  0  0
   20.0363  -22.1388  -13.0346 C   0  0  0  0  0  0  0  0  0  0  0  0
   21.3395  -22.5659  -13.6906 C   0  0  0  0  0  0  0  0  0  0  0  0
   22.4526  -21.5970  -13.3684 C   0  0  0  0  0  0  0  0  0  0  0  0
   23.7197  -21.8860  -14.1385 C   0  0  2  0  0  0  0  0  0  0  0  0
   24.7044  -20.9140  -13.6372 N   0  0  0  0  0  0  0  0  0  0  0  0
   23.5919  -21.8132  -15.5879 C   0  0  0  0  0  0  0  0  0  0  0  0
   23.5624  -22.9521  -16.3804 O   0  0  0  0  0  0  0  0  0  0  0  0
   23.5031  -20.7118  -16.1708 O   0  0  0  0  0  0  0  0  0  0  0  0
  2  1  1  1
  3  2  1  0
  4  5  2  0
  4  3  1  0
  6  5  1  0
  7 12  2  0
  7  6  1  0
  8  7  1  0
  9 10  1  0
  9  8  2  0
 10 11  2  0
 11 12  1  0
 12  4  1  0
 13  2  1  0
 14 13  2  0
 16 15  1  0
 17 16  1  0
 17 18  1  0
 19 18  1  6
 19 20  1  0
 20 13  1  0
 21 19  1  0
 22 21  2  0
 23 24  1  0
 24 25  2  0
 24 26  1  0
 26 27  1  0
 27 28  1  0
 29 28  1  0
 30 29  1  1
 30 31  1  0
 31 21  1  0
 32 30  1  0
 32 33  1  0
 34 32  2  0
M  END
$$$$
