RGF.pdb
     RDKit          3D

 27 27  0  0  1  0  0  0  0  0999 V2000
    8.0542  -13.7061   15.7830 N   0  0  0  0  0  0  0  0  0  0  0  0
    8.1719  -13.5250   17.1861 C   0  0  0  0  0  0  0  0  0  0  0  0
    8.2165  -12.3295   17.6845 N   0  0  0  0  0  0  0  0  0  0  0  0
    8.2456  -14.6123   18.0959 N   0  0  0  0  0  0  0  0  0  0  0  0
    8.5129  -15.9620   17.6568 C   0  0  0  0  0  0  0  0  0  0  0  0
    8.5358  -16.8698   18.8711 C   0  0  0  0  0  0  0  0  0  0  0  0
    8.7755  -18.3005   18.5041 C   0  0  0  0  0  0  0  0  0  0  0  0
    8.8699  -19.1092   19.7830 C   0  0  2  0  0  0  0  0  0  0  0  0
    7.5933  -19.3723   20.3781 N   0  0  0  0  0  0  0  0  0  0  0  0
    9.6958  -18.3106   20.7320 C   0  0  0  0  0  0  0  0  0  0  0  0
   10.9358  -18.1603   20.5841 O   0  0  0  0  0  0  0  0  0  0  0  0
    8.3765  -12.1185   18.6732 N   0  0  0  0  0  0  0  0  0  0  0  0
    9.1161  -17.6567   21.8881 C   0  0  0  0  0  0  0  0  0  0  0  0
    9.8473  -16.6269   22.5578 C   0  0  0  0  0  0  0  0  0  0  0  0
   10.1231  -16.9457   23.9496 O   0  0  0  0  0  0  0  0  0  0  0  0
    9.7861  -18.1239   24.3326 N   0  0  0  0  0  0  0  0  0  0  0  0
   10.7174  -16.0626   24.8628 C   0  0  2  0  0  0  0  0  0  0  0  0
    9.8701  -15.3301   25.8236 C   0  0  0  0  0  0  0  0  0  0  0  0
    8.8976  -14.5227   25.0478 C   0  0  0  0  0  0  0  0  0  0  0  0
    8.0183  -13.6641   25.8725 C   0  0  0  0  0  0  0  0  0  0  0  0
    6.6518  -13.8182   25.6994 C   0  0  0  0  0  0  0  0  0  0  0  0
    5.7556  -13.0706   26.4163 C   0  0  0  0  0  0  0  0  0  0  0  0
    6.2407  -12.1612   27.3139 C   0  0  0  0  0  0  0  0  0  0  0  0
    7.5946  -11.9880   27.5054 C   0  0  0  0  0  0  0  0  0  0  0  0
    8.4720  -12.7532   26.7713 C   0  0  0  0  0  0  0  0  0  0  0  0
    9.3132  -16.2959   26.7662 O   0  0  0  0  0  0  0  0  0  0  0  0
    8.5375  -17.1928   26.3614 O   0  0  0  0  0  0  0  0  0  0  0  0
  2  3  2  0
  2  1  1  0
  4  2  1  0
  5  4  1  0
  6  5  1  0
  7  6  1  0
  8  7  1  0
  8  9  1  1
 10  8  1  0
 11 10  2  0
 12 10  1  0
 13 14  1  0
 13 12  1  0
 14 15  2  0
 16 17  1  0
 16 14  1  0
 17 18  1  6
 19 20  2  0
 19 18  1  0
 21 20  1  0
 22 21  2  0
 23 22  1  0
 23 24  2  0
 24 19  1  0
 25 17  1  0
 26 25  2  0
 27 25  1  0
M  END
$$$$
