RGF.pdb
     RDKit          3D

 27 27  0  0  1  0  0  0  0  0999 V2000
    7.1788  -13.9659   15.0944 N   0  0  0  0  0  0  0  0  0  0  0  0
    8.4076  -14.3292   15.7054 C   0  0  0  0  0  0  0  0  0  0  0  0
    9.0742  -15.3498   15.2654 N   0  0  0  0  0  0  0  0  0  0  0  0
    8.9592  -13.6155   16.8018 N   0  0  0  0  0  0  0  0  0  0  0  0
    8.8507  -14.0943   18.1600 C   0  0  0  0  0  0  0  0  0  0  0  0
    7.5273  -13.6261   18.7333 C   0  0  0  0  0  0  0  0  0  0  0  0
    7.2920  -14.1495   20.1152 C   0  0  0  0  0  0  0  0  0  0  0  0
    8.6377  -14.3301   20.7900 C   0  0  2  0  0  0  0  0  0  0  0  0
    9.5478  -15.1304   20.0254 N   0  0  0  0  0  0  0  0  0  0  0  0
    8.3736  -15.0018   22.0937 C   0  0  0  0  0  0  0  0  0  0  0  0
    7.5020  -14.5876   22.9004 O   0  0  0  0  0  0  0  0  0  0  0  0
    9.9435  -15.6975   15.6792 N   0  0  0  0  0  0  0  0  0  0  0  0
    9.1100  -16.1779   22.5118 C   0  0  0  0  0  0  0  0  0  0  0  0
    8.7704  -16.8238   23.7411 C   0  0  0  0  0  0  0  0  0  0  0  0
    9.4298  -16.2273   24.8919 O   0  0  0  0  0  0  0  0  0  0  0  0
   10.4916  -15.5505   24.6415 N   0  0  0  0  0  0  0  0  0  0  0  0
    8.9806  -16.3497   26.2149 C   0  0  1  0  0  0  0  0  0  0  0  0
    9.7007  -15.6489   27.2956 C   0  0  0  0  0  0  0  0  0  0  0  0
    8.7138  -14.8335   28.0444 C   0  0  0  0  0  0  0  0  0  0  0  0
    8.0267  -13.8048   27.2320 C   0  0  0  0  0  0  0  0  0  0  0  0
    8.6947  -12.6046   27.0463 C   0  0  0  0  0  0  0  0  0  0  0  0
    8.1429  -11.5904   26.3096 C   0  0  0  0  0  0  0  0  0  0  0  0
    6.9088  -11.7876   25.7563 C   0  0  0  0  0  0  0  0  0  0  0  0
    6.2229  -12.9711   25.9255 C   0  0  0  0  0  0  0  0  0  0  0  0
    6.8020  -13.9731   26.6707 C   0  0  0  0  0  0  0  0  0  0  0  0
   10.4450  -16.6424   28.0639 O   0  0  0  0  0  0  0  0  0  0  0  0
   10.2301  -17.8639   27.8857 O   0  0  0  0  0  0  0  0  0  0  0  0
  2  3  2  0
  2  1  1  0
  4  2  1  0
  5  4  1  0
  6  5  1  0
  7  6  1  0
  8  7  1  0
  8  9  1  6
 10  8  1  0
 11 10  2  0
 12 10  1  0
 13 14  1  0
 13 12  1  0
 14 15  2  0
 16 17  1  0
 16 14  1  0
 17 18  1  1
 19 20  2  0
 19 18  1  0
 21 20  1  0
 22 21  2  0
 23 22  1  0
 23 24  2  0
 24 19  1  0
 25 17  1  0
 26 25  2  0
 27 25  1  0
M  END
$$$$
