RGF.pdb
     RDKit          3D

 27 27  0  0  1  0  0  0  0  0999 V2000
    9.8522  -14.1157   15.7447 N   0  0  0  0  0  0  0  0  0  0  0  0
    8.6879  -13.6665   16.4213 C   0  0  0  0  0  0  0  0  0  0  0  0
    7.5365  -13.7066   15.8278 N   0  0  0  0  0  0  0  0  0  0  0  0
    8.7185  -13.1622   17.7481 N   0  0  0  0  0  0  0  0  0  0  0  0
    8.6331  -14.0297   18.8996 C   0  0  0  0  0  0  0  0  0  0  0  0
    7.1777  -14.1487   19.3081 C   0  0  0  0  0  0  0  0  0  0  0  0
    6.9944  -15.0371   20.4981 C   0  0  0  0  0  0  0  0  0  0  0  0
    8.3268  -15.1556   21.2117 C   0  0  2  0  0  0  0  0  0  0  0  0
    9.1989  -16.1254   20.6182 N   0  0  0  0  0  0  0  0  0  0  0  0
    8.0247  -15.5634   22.6128 C   0  0  0  0  0  0  0  0  0  0  0  0
    7.2473  -14.9073   23.3525 O   0  0  0  0  0  0  0  0  0  0  0  0
    6.6638  -13.3533   16.2293 N   0  0  0  0  0  0  0  0  0  0  0  0
    8.6126  -16.7460   23.2094 C   0  0  0  0  0  0  0  0  0  0  0  0
    8.3047  -17.0808   24.5648 C   0  0  0  0  0  0  0  0  0  0  0  0
    9.1573  -16.3943   25.5223 O   0  0  0  0  0  0  0  0  0  0  0  0
   10.1410  -15.7353   25.0259 N   0  0  0  0  0  0  0  0  0  0  0  0
    8.9662  -16.4148   26.9116 C   0  0  1  0  0  0  0  0  0  0  0  0
    9.8562  -15.6205   27.7803 C   0  0  0  0  0  0  0  0  0  0  0  0
    9.0376  -14.5657   28.4258 C   0  0  0  0  0  0  0  0  0  0  0  0
    8.3107  -13.6897   27.4800 C   0  0  0  0  0  0  0  0  0  0  0  0
    9.0019  -12.5967   26.9813 C   0  0  0  0  0  0  0  0  0  0  0  0
    8.4167  -11.7272   26.0996 C   0  0  0  0  0  0  0  0  0  0  0  0
    7.1253  -11.9613   25.7182 C   0  0  0  0  0  0  0  0  0  0  0  0
    6.4152  -13.0404   26.1989 C   0  0  0  0  0  0  0  0  0  0  0  0
    7.0289  -13.8979   27.0837 C   0  0  0  0  0  0  0  0  0  0  0  0
   10.5594  -16.5390   28.6711 O   0  0  0  0  0  0  0  0  0  0  0  0
   10.2096  -17.7404   28.7375 O   0  0  0  0  0  0  0  0  0  0  0  0
  2  3  2  0
  2  1  1  0
  4  2  1  0
  5  4  1  0
  6  5  1  0
  7  6  1  0
  8  7  1  0
  8  9  1  6
 10  8  1  0
 11 10  2  0
 12 10  1  0
 13 14  1  0
 13 12  1  0
 14 15  2  0
 16 17  1  0
 16 14  1  0
 17 18  1  1
 19 20  2  0
 19 18  1  0
 21 20  1  0
 22 21  2  0
 23 22  1  0
 23 24  2  0
 24 19  1  0
 25 17  1  0
 26 25  2  0
 27 25  1  0
M  END
$$$$
