RGF.pdb
     RDKit          3D

 27 27  0  0  1  0  0  0  0  0999 V2000
    8.1020  -12.2392   20.9120 N   0  0  0  0  0  0  0  0  0  0  0  0
    8.1134  -12.9129   19.6625 C   0  0  0  0  0  0  0  0  0  0  0  0
    8.9801  -12.5852   18.7565 N   0  0  0  0  0  0  0  0  0  0  0  0
    7.2016  -13.9537   19.3443 N   0  0  0  0  0  0  0  0  0  0  0  0
    6.9122  -15.0270   20.2662 C   0  0  0  0  0  0  0  0  0  0  0  0
    8.1229  -15.9366   20.3445 C   0  0  0  0  0  0  0  0  0  0  0  0
    7.7417  -17.3816   20.4179 C   0  0  0  0  0  0  0  0  0  0  0  0
    7.5366  -17.7450   21.8755 C   0  0  2  0  0  0  0  0  0  0  0  0
    6.7591  -16.7783   22.5926 N   0  0  0  0  0  0  0  0  0  0  0  0
    8.8925  -17.8324   22.4876 C   0  0  0  0  0  0  0  0  0  0  0  0
    9.8242  -18.4990   21.9685 O   0  0  0  0  0  0  0  0  0  0  0  0
    8.9627  -12.9186   17.7889 N   0  0  0  0  0  0  0  0  0  0  0  0
    9.2193  -17.1512   23.7243 C   0  0  0  0  0  0  0  0  0  0  0  0
   10.5588  -17.1944   24.2218 C   0  0  0  0  0  0  0  0  0  0  0  0
   10.7513  -16.3570   25.3951 O   0  0  0  0  0  0  0  0  0  0  0  0
   11.9137  -16.4100   25.9376 N   0  0  0  0  0  0  0  0  0  0  0  0
    9.7661  -15.5238   25.9450 C   0  0  1  0  0  0  0  0  0  0  0  0
    9.8532  -15.1331   27.3653 C   0  0  0  0  0  0  0  0  0  0  0  0
    8.5322  -14.5939   27.7698 C   0  0  0  0  0  0  0  0  0  0  0  0
    7.9712  -13.5868   26.8415 C   0  0  0  0  0  0  0  0  0  0  0  0
    8.7472  -12.4662   26.5903 C   0  0  0  0  0  0  0  0  0  0  0  0
    8.3165  -11.4780   25.7453 C   0  0  0  0  0  0  0  0  0  0  0  0
    7.0947  -11.6208   25.1496 C   0  0  0  0  0  0  0  0  0  0  0  0
    6.3031  -12.7249   25.3822 C   0  0  0  0  0  0  0  0  0  0  0  0
    6.7616  -13.7024   26.2359 C   0  0  0  0  0  0  0  0  0  0  0  0
   10.3512  -16.2783   28.1216 O   0  0  0  0  0  0  0  0  0  0  0  0
   10.2768  -17.4313   27.6367 O   0  0  0  0  0  0  0  0  0  0  0  0
  2  3  2  0
  2  1  1  0
  4  2  1  0
  5  4  1  0
  6  5  1  0
  7  6  1  0
  8  7  1  0
  8  9  1  1
 10  8  1  0
 11 10  2  0
 12 10  1  0
 13 14  1  0
 13 12  1  0
 14 15  2  0
 16 17  1  0
 16 14  1  0
 17 18  1  1
 19 20  2  0
 19 18  1  0
 21 20  1  0
 22 21  2  0
 23 22  1  0
 23 24  2  0
 24 19  1  0
 25 17  1  0
 26 25  2  0
 27 25  1  0
M  END
$$$$
