RGF.pdb
     RDKit          3D

 27 27  0  0  1  0  0  0  0  0999 V2000
    8.1918  -12.5319   14.4641 N   0  0  0  0  0  0  0  0  0  0  0  0
    8.1707  -13.8062   15.0894 C   0  0  0  0  0  0  0  0  0  0  0  0
    9.1425  -14.6410   14.8940 N   0  0  0  0  0  0  0  0  0  0  0  0
    7.1136  -14.2257   15.9392 N   0  0  0  0  0  0  0  0  0  0  0  0
    7.3424  -15.0771   17.0832 C   0  0  0  0  0  0  0  0  0  0  0  0
    7.4903  -14.2037   18.3138 C   0  0  0  0  0  0  0  0  0  0  0  0
    8.8587  -14.2956   18.9123 C   0  0  0  0  0  0  0  0  0  0  0  0
    8.9987  -15.6542   19.5705 C   0  0  2  0  0  0  0  0  0  0  0  0
    7.7716  -16.1371   20.1311 N   0  0  0  0  0  0  0  0  0  0  0  0
   10.0049  -15.4987   20.6586 C   0  0  0  0  0  0  0  0  0  0  0  0
   11.1870  -15.1315   20.4355 O   0  0  0  0  0  0  0  0  0  0  0  0
    9.2553  -15.5276   15.3929 N   0  0  0  0  0  0  0  0  0  0  0  0
    9.6793  -15.7634   22.0457 C   0  0  0  0  0  0  0  0  0  0  0  0
   10.6950  -15.6447   23.0447 C   0  0  0  0  0  0  0  0  0  0  0  0
   10.2003  -15.9132   24.3857 O   0  0  0  0  0  0  0  0  0  0  0  0
   11.0508  -15.7690   25.3366 N   0  0  0  0  0  0  0  0  0  0  0  0
    8.8876  -16.3080   24.6824 C   0  0  1  0  0  0  0  0  0  0  0  0
    8.4972  -16.5397   26.0865 C   0  0  0  0  0  0  0  0  0  0  0  0
    7.1703  -15.9121   26.2983 C   0  0  0  0  0  0  0  0  0  0  0  0
    7.1632  -14.4373   26.1742 C   0  0  0  0  0  0  0  0  0  0  0  0
    6.8170  -13.9147   24.9380 C   0  0  0  0  0  0  0  0  0  0  0  0
    6.7805  -12.5626   24.7227 C   0  0  0  0  0  0  0  0  0  0  0  0
    7.0954  -11.7315   25.7610 C   0  0  0  0  0  0  0  0  0  0  0  0
    7.4432  -12.2249   27.0002 C   0  0  0  0  0  0  0  0  0  0  0  0
    7.4712  -13.5882   27.1878 C   0  0  0  0  0  0  0  0  0  0  0  0
    8.5932  -17.9716   26.3542 O   0  0  0  0  0  0  0  0  0  0  0  0
    8.7788  -18.7756   25.4112 O   0  0  0  0  0  0  0  0  0  0  0  0
  2  3  2  0
  2  1  1  0
  4  2  1  0
  5  4  1  0
  6  5  1  0
  7  6  1  0
  8  7  1  0
  8  9  1  1
 10  8  1  0
 11 10  2  0
 12 10  1  0
 13 14  1  0
 13 12  1  0
 14 15  2  0
 16 17  1  0
 16 14  1  0
 17 18  1  1
 19 20  2  0
 19 18  1  0
 21 20  1  0
 22 21  2  0
 23 22  1  0
 23 24  2  0
 24 19  1  0
 25 17  1  0
 26 25  2  0
 27 25  1  0
M  END
$$$$
