RGF.pdb
     RDKit          3D

 27 27  0  0  1  0  0  0  0  0999 V2000
    7.3209  -16.5958   15.0988 N   0  0  0  0  0  0  0  0  0  0  0  0
    6.5827  -17.6703   15.6609 C   0  0  0  0  0  0  0  0  0  0  0  0
    5.3180  -17.7922   15.4056 N   0  0  0  0  0  0  0  0  0  0  0  0
    7.1717  -18.6436   16.5103 N   0  0  0  0  0  0  0  0  0  0  0  0
    8.5129  -18.4992   17.0261 C   0  0  0  0  0  0  0  0  0  0  0  0
    8.4681  -17.5952   18.2427 C   0  0  0  0  0  0  0  0  0  0  0  0
    9.7972  -17.4946   18.9226 C   0  0  0  0  0  0  0  0  0  0  0  0
    9.6668  -18.0906   20.3106 C   0  0  2  0  0  0  0  0  0  0  0  0
    8.7068  -19.1522   20.3793 N   0  0  0  0  0  0  0  0  0  0  0  0
    9.2361  -16.9838   21.2107 C   0  0  0  0  0  0  0  0  0  0  0  0
   10.0370  -16.1138   21.6393 O   0  0  0  0  0  0  0  0  0  0  0  0
    4.7176  -18.5292   15.7853 N   0  0  0  0  0  0  0  0  0  0  0  0
    7.8617  -16.8440   21.6482 C   0  0  0  0  0  0  0  0  0  0  0  0
    7.5392  -17.0175   23.0301 C   0  0  0  0  0  0  0  0  0  0  0  0
    8.4169  -16.2650   23.9123 O   0  0  0  0  0  0  0  0  0  0  0  0
    9.4507  -15.7402   23.3607 N   0  0  0  0  0  0  0  0  0  0  0  0
    8.1992  -16.0896   25.2867 C   0  0  1  0  0  0  0  0  0  0  0  0
    9.2550  -15.4811   26.1189 C   0  0  0  0  0  0  0  0  0  0  0  0
    8.5936  -14.6858   27.1817 C   0  0  0  0  0  0  0  0  0  0  0  0
    7.7473  -13.5792   26.6819 C   0  0  0  0  0  0  0  0  0  0  0  0
    8.3905  -12.3928   26.3659 C   0  0  0  0  0  0  0  0  0  0  0  0
    7.6953  -11.3107   25.8951 C   0  0  0  0  0  0  0  0  0  0  0  0
    6.3420  -11.4256   25.7420 C   0  0  0  0  0  0  0  0  0  0  0  0
    5.6777  -12.5937   26.0488 C   0  0  0  0  0  0  0  0  0  0  0  0
    6.4021  -13.6651   26.5198 C   0  0  0  0  0  0  0  0  0  0  0  0
   10.1536  -16.5434   26.5609 O   0  0  0  0  0  0  0  0  0  0  0  0
    9.8055  -17.7428   26.4596 O   0  0  0  0  0  0  0  0  0  0  0  0
  2  3  2  0
  2  1  1  0
  4  2  1  0
  5  4  1  0
  6  5  1  0
  7  6  1  0
  8  7  1  0
  8  9  1  6
 10  8  1  0
 11 10  2  0
 12 10  1  0
 13 14  1  0
 13 12  1  0
 14 15  2  0
 16 17  1  0
 16 14  1  0
 17 18  1  1
 19 20  2  0
 19 18  1  0
 21 20  1  0
 22 21  2  0
 23 22  1  0
 23 24  2  0
 24 19  1  0
 25 17  1  0
 26 25  2  0
 27 25  1  0
M  END
$$$$
