ECD.pdb
     RDKit          3D

 24 23  0  0  1  0  0  0  0  0999 V2000
    7.8373  -12.2227   19.4635 N   0  0  0  0  0  0  0  0  0  0  0  0
    7.4341  -13.4702   20.1532 C   0  0  1  0  0  0  0  0  0  0  0  0
    7.9603  -14.6488   19.3758 C   0  0  0  0  0  0  0  0  0  0  0  0
    7.6854  -15.9323   20.0903 C   0  0  0  0  0  0  0  0  0  0  0  0
    8.2702  -17.1052   19.3783 C   0  0  0  0  0  0  0  0  0  0  0  0
    7.5060  -17.9240   18.7912 O   0  0  0  0  0  0  0  0  0  0  0  0
    7.9401  -13.3652   21.5336 C   0  0  0  0  0  0  0  0  0  0  0  0
    9.1286  -12.9628   21.7375 O   0  0  0  0  0  0  0  0  0  0  0  0
    9.6241  -17.3727   19.3089 O   0  0  0  0  0  0  0  0  0  0  0  0
    7.2070  -13.6768   22.7056 N   0  0  0  0  0  0  0  0  0  0  0  0
    7.8020  -13.5445   24.0392 C   0  0  1  0  0  0  0  0  0  0  0  0
    6.7379  -12.9608   24.9837 C   0  0  0  0  0  0  0  0  0  0  0  0
    7.2789  -12.9955   26.6929 S   0  0  0  0  0  0  0  0  0  0  0  0
    8.0566  -14.9134   24.5335 C   0  0  0  0  0  0  0  0  0  0  0  0
    7.2250  -15.8237   24.3567 O   0  0  0  0  0  0  0  0  0  0  0  0
    9.2599  -15.2586   25.2332 N   0  0  0  0  0  0  0  0  0  0  0  0
    9.5561  -16.5888   25.6632 C   0  0  1  0  0  0  0  0  0  0  0  0
   10.4734  -17.2408   24.6561 C   0  0  0  0  0  0  0  0  0  0  0  0
   10.8933  -18.5726   25.1011 C   0  0  0  0  0  0  0  0  0  0  0  0
   10.1229  -19.3244   25.7060 O   0  0  0  0  0  0  0  0  0  0  0  0
   10.2233  -16.6444   26.9748 C   0  0  0  0  0  0  0  0  0  0  0  0
   10.4972  -15.4617   27.6382 O   0  0  0  0  0  0  0  0  0  0  0  0
   12.1916  -19.0333   24.8503 O   0  0  0  0  0  0  0  0  0  0  0  0
   10.5611  -17.7231   27.5276 O   0  0  0  0  0  0  0  0  0  0  0  0
  2  1  1  6
  3  4  1  0
  3  2  1  0
  4  5  1  0
  5  6  2  0
  5  9  1  0
  7  8  2  0
  7  2  1  0
 10  7  1  0
 11 10  1  0
 11 14  1  0
 11 12  1  1
 13 12  1  0
 14 16  1  0
 15 14  2  0
 16 17  1  0
 17 21  1  0
 17 18  1  6
 19 18  1  0
 20 19  2  0
 21 24  2  0
 21 22  1  0
 23 19  1  0
M  END
$$$$
