ECD.pdb
     RDKit          3D

 24 23  0  0  1  0  0  0  0  0999 V2000
    7.9184  -12.7437   19.6431 N   0  0  0  0  0  0  0  0  0  0  0  0
    7.3529  -13.7955   20.5199 C   0  0  1  0  0  0  0  0  0  0  0  0
    7.4567  -15.1239   19.8165 C   0  0  0  0  0  0  0  0  0  0  0  0
    8.0585  -14.9689   18.4573 C   0  0  0  0  0  0  0  0  0  0  0  0
    8.1024  -16.2614   17.7143 C   0  0  0  0  0  0  0  0  0  0  0  0
    7.0974  -16.6289   17.0405 O   0  0  0  0  0  0  0  0  0  0  0  0
    8.0866  -13.7131   21.7955 C   0  0  0  0  0  0  0  0  0  0  0  0
    9.3402  -13.5027   21.7862 O   0  0  0  0  0  0  0  0  0  0  0  0
    9.1905  -17.1130   17.7058 O   0  0  0  0  0  0  0  0  0  0  0  0
    7.5144  -13.8471   23.0851 N   0  0  0  0  0  0  0  0  0  0  0  0
    8.3477  -13.9157   24.2896 C   0  0  1  0  0  0  0  0  0  0  0  0
    7.5935  -13.2199   25.4351 C   0  0  0  0  0  0  0  0  0  0  0  0
    5.8766  -13.7322   25.5051 S   0  0  0  0  0  0  0  0  0  0  0  0
    8.4242  -15.3391   24.6782 C   0  0  0  0  0  0  0  0  0  0  0  0
    7.8855  -16.2227   23.9849 O   0  0  0  0  0  0  0  0  0  0  0  0
    9.1149  -15.7698   25.8590 N   0  0  0  0  0  0  0  0  0  0  0  0
    9.8710  -16.9807   25.9206 C   0  0  1  0  0  0  0  0  0  0  0  0
   10.9970  -16.9116   24.9164 C   0  0  0  0  0  0  0  0  0  0  0  0
   11.8325  -18.1146   24.9684 C   0  0  0  0  0  0  0  0  0  0  0  0
   11.3816  -19.1984   25.3514 O   0  0  0  0  0  0  0  0  0  0  0  0
   10.4685  -17.2303   27.2432 C   0  0  0  0  0  0  0  0  0  0  0  0
   10.9989  -18.4789   27.5143 O   0  0  0  0  0  0  0  0  0  0  0  0
   13.1775  -18.0676   24.5820 O   0  0  0  0  0  0  0  0  0  0  0  0
   10.5208  -16.3577   28.1482 O   0  0  0  0  0  0  0  0  0  0  0  0
  2  1  1  6
  3  4  1  0
  3  2  1  0
  4  5  1  0
  5  6  2  0
  5  9  1  0
  7  8  2  0
  7  2  1  0
 10  7  1  0
 11 10  1  0
 11 14  1  0
 11 12  1  1
 13 12  1  0
 14 16  1  0
 15 14  2  0
 16 17  1  0
 17 21  1  0
 17 18  1  6
 19 18  1  0
 20 19  2  0
 21 24  2  0
 21 22  1  0
 23 19  1  0
M  END
$$$$
