ECD.pdb
     RDKit          3D

 24 23  0  0  1  0  0  0  0  0999 V2000
   10.5495  -15.8145   21.1344 N   0  0  0  0  0  0  0  0  0  0  0  0
    9.7616  -16.5031   22.1830 C   0  0  1  0  0  0  0  0  0  0  0  0
   10.0047  -17.9866   22.0798 C   0  0  0  0  0  0  0  0  0  0  0  0
    9.3982  -18.5471   20.8342 C   0  0  0  0  0  0  0  0  0  0  0  0
    9.6218  -20.0169   20.7157 C   0  0  0  0  0  0  0  0  0  0  0  0
   10.3238  -20.6137   21.5817 O   0  0  0  0  0  0  0  0  0  0  0  0
   10.1603  -15.8998   23.4672 C   0  0  0  0  0  0  0  0  0  0  0  0
   11.3934  -15.7278   23.7240 O   0  0  0  0  0  0  0  0  0  0  0  0
    9.1042  -20.7995   19.7013 O   0  0  0  0  0  0  0  0  0  0  0  0
    9.2739  -15.4712   24.4865 N   0  0  0  0  0  0  0  0  0  0  0  0
    9.7701  -14.9557   25.7663 C   0  0  1  0  0  0  0  0  0  0  0  0
    8.7366  -13.9576   26.3147 C   0  0  0  0  0  0  0  0  0  0  0  0
    9.1720  -13.3898   27.9589 S   0  0  0  0  0  0  0  0  0  0  0  0
    9.7647  -16.0874   26.7162 C   0  0  0  0  0  0  0  0  0  0  0  0
    8.7071  -16.6812   26.9996 O   0  0  0  0  0  0  0  0  0  0  0  0
   10.9629  -16.5535   27.3516 N   0  0  0  0  0  0  0  0  0  0  0  0
   10.9682  -17.5812   28.3446 C   0  0  1  0  0  0  0  0  0  0  0  0
   12.2422  -18.3825   28.2193 C   0  0  0  0  0  0  0  0  0  0  0  0
   12.4634  -18.8200   26.8380 C   0  0  0  0  0  0  0  0  0  0  0  0
   13.5323  -18.6092   26.2569 O   0  0  0  0  0  0  0  0  0  0  0  0
   10.9011  -17.0641   29.7217 C   0  0  0  0  0  0  0  0  0  0  0  0
   10.9701  -15.6980   29.9289 O   0  0  0  0  0  0  0  0  0  0  0  0
   11.4595  -19.4948   26.1328 O   0  0  0  0  0  0  0  0  0  0  0  0
   10.7839  -17.8087   30.7293 O   0  0  0  0  0  0  0  0  0  0  0  0
  2  1  1  6
  3  4  1  0
  3  2  1  0
  4  5  1  0
  5  6  2  0
  5  9  1  0
  7  8  2  0
  7  2  1  0
 10  7  1  0
 11 10  1  0
 11 14  1  0
 11 12  1  1
 13 12  1  0
 14 16  1  0
 15 14  2  0
 16 17  1  0
 17 21  1  0
 17 18  1  1
 19 18  1  0
 20 19  2  0
 21 24  2  0
 21 22  1  0
 23 19  1  0
M  END
$$$$
