ECD.pdb
     RDKit          3D

 24 23  0  0  1  0  0  0  0  0999 V2000
    7.6603  -18.4716   18.9423 N   0  0  0  0  0  0  0  0  0  0  0  0
    9.1117  -18.1747   18.9382 C   0  0  1  0  0  0  0  0  0  0  0  0
    9.6294  -18.2936   17.5281 C   0  0  0  0  0  0  0  0  0  0  0  0
    8.6305  -17.7807   16.5419 C   0  0  0  0  0  0  0  0  0  0  0  0
    9.1062  -17.9281   15.1360 C   0  0  0  0  0  0  0  0  0  0  0  0
    9.3731  -16.8962   14.4556 O   0  0  0  0  0  0  0  0  0  0  0  0
    9.2653  -16.8390   19.5419 C   0  0  0  0  0  0  0  0  0  0  0  0
   10.1303  -16.0340   19.0734 O   0  0  0  0  0  0  0  0  0  0  0  0
    9.2830  -19.1429   14.5018 O   0  0  0  0  0  0  0  0  0  0  0  0
    8.5148  -16.3376   20.6346 N   0  0  0  0  0  0  0  0  0  0  0  0
    9.0351  -15.2714   21.4963 C   0  0  1  0  0  0  0  0  0  0  0  0
    7.8988  -14.2688   21.7584 C   0  0  0  0  0  0  0  0  0  0  0  0
    6.4217  -15.0855   22.3638 S   0  0  0  0  0  0  0  0  0  0  0  0
    9.3278  -15.8843   22.8084 C   0  0  0  0  0  0  0  0  0  0  0  0
    8.8889  -15.3844   23.8615 O   0  0  0  0  0  0  0  0  0  0  0  0
   10.1224  -17.0716   22.9337 N   0  0  0  0  0  0  0  0  0  0  0  0
   11.4101  -17.0847   23.5531 C   0  0  1  0  0  0  0  0  0  0  0  0
   12.3354  -16.1683   22.7884 C   0  0  0  0  0  0  0  0  0  0  0  0
   13.6671  -16.1245   23.3989 C   0  0  0  0  0  0  0  0  0  0  0  0
   13.9124  -16.7116   24.4571 O   0  0  0  0  0  0  0  0  0  0  0  0
   11.3901  -16.6299   24.9535 C   0  0  0  0  0  0  0  0  0  0  0  0
   12.5361  -16.7610   25.7173 O   0  0  0  0  0  0  0  0  0  0  0  0
   14.7075  -15.4090   22.7936 O   0  0  0  0  0  0  0  0  0  0  0  0
   10.3737  -16.1242   25.4962 O   0  0  0  0  0  0  0  0  0  0  0  0
  2  1  1  6
  3  4  1  0
  3  2  1  0
  4  5  1  0
  5  6  2  0
  5  9  1  0
  7  8  2  0
  7  2  1  0
 10  7  1  0
 11 10  1  0
 11 14  1  0
 11 12  1  1
 13 12  1  0
 14 16  1  0
 15 14  2  0
 16 17  1  0
 17 21  1  0
 17 18  1  6
 19 18  1  0
 20 19  2  0
 21 24  2  0
 21 22  1  0
 23 19  1  0
M  END
$$$$
