ECD.pdb
     RDKit          3D

 24 23  0  0  1  0  0  0  0  0999 V2000
    9.4716  -18.8818   19.8755 N   0  0  0  0  0  0  0  0  0  0  0  0
   10.8115  -18.2500   19.8705 C   0  0  1  0  0  0  0  0  0  0  0  0
   11.0031  -17.5241   18.5641 C   0  0  0  0  0  0  0  0  0  0  0  0
    9.7318  -17.4812   17.7796 C   0  0  0  0  0  0  0  0  0  0  0  0
    9.9025  -16.7763   16.4762 C   0  0  0  0  0  0  0  0  0  0  0  0
    8.9171  -16.6674   15.6913 O   0  0  0  0  0  0  0  0  0  0  0  0
   10.8723  -17.3929   21.0680 C   0  0  0  0  0  0  0  0  0  0  0  0
   11.8985  -16.6710   21.2718 O   0  0  0  0  0  0  0  0  0  0  0  0
   11.0911  -16.2159   16.0488 O   0  0  0  0  0  0  0  0  0  0  0  0
    9.8614  -17.2840   22.0552 N   0  0  0  0  0  0  0  0  0  0  0  0
   10.0949  -16.5719   23.3155 C   0  0  1  0  0  0  0  0  0  0  0  0
    8.7659  -15.9411   23.7638 C   0  0  0  0  0  0  0  0  0  0  0  0
    8.9011  -15.1970   25.3896 S   0  0  0  0  0  0  0  0  0  0  0  0
   10.4072  -17.5946   24.3351 C   0  0  0  0  0  0  0  0  0  0  0  0
    9.7086  -18.6194   24.4498 O   0  0  0  0  0  0  0  0  0  0  0  0
   11.5174  -17.4603   25.2329 N   0  0  0  0  0  0  0  0  0  0  0  0
   11.8364  -18.4352   26.2278 C   0  0  1  0  0  0  0  0  0  0  0  0
   13.3365  -18.5044   26.3885 C   0  0  0  0  0  0  0  0  0  0  0  0
   13.9971  -18.7895   25.1116 C   0  0  0  0  0  0  0  0  0  0  0  0
   13.5694  -19.6551   24.3420 O   0  0  0  0  0  0  0  0  0  0  0  0
   11.2605  -18.1326   27.5488 C   0  0  0  0  0  0  0  0  0  0  0  0
   11.4524  -19.0288   28.5850 O   0  0  0  0  0  0  0  0  0  0  0  0
   15.1420  -18.0817   24.7259 O   0  0  0  0  0  0  0  0  0  0  0  0
   10.5955  -17.0908   27.7851 O   0  0  0  0  0  0  0  0  0  0  0  0
  2  1  1  6
  3  4  1  0
  3  2  1  0
  4  5  1  0
  5  6  2  0
  5  9  1  0
  7  8  2  0
  7  2  1  0
 10  7  1  0
 11 10  1  0
 11 14  1  0
 11 12  1  1
 13 12  1  0
 14 16  1  0
 15 14  2  0
 16 17  1  0
 17 21  1  0
 17 18  1  1
 19 18  1  0
 20 19  2  0
 21 24  2  0
 21 22  1  0
 23 19  1  0
M  END
$$$$
