ECD.pdb
     RDKit          3D

 24 23  0  0  1  0  0  0  0  0999 V2000
    7.7537  -13.2636   17.2481 N   0  0  0  0  0  0  0  0  0  0  0  0
    8.0373  -14.5745   17.8771 C   0  0  1  0  0  0  0  0  0  0  0  0
    9.0192  -15.3260   17.0159 C   0  0  0  0  0  0  0  0  0  0  0  0
    8.4049  -16.5680   16.4559 C   0  0  0  0  0  0  0  0  0  0  0  0
    9.3871  -17.3749   15.6757 C   0  0  0  0  0  0  0  0  0  0  0  0
    9.3171  -17.3939   14.4132 O   0  0  0  0  0  0  0  0  0  0  0  0
    8.5080  -14.2874   19.2440 C   0  0  0  0  0  0  0  0  0  0  0  0
    9.3034  -13.3160   19.4429 O   0  0  0  0  0  0  0  0  0  0  0  0
   10.3982  -18.1254   16.2447 O   0  0  0  0  0  0  0  0  0  0  0  0
    8.1481  -15.0111   20.4081 N   0  0  0  0  0  0  0  0  0  0  0  0
    8.5557  -14.5648   21.7440 C   0  0  1  0  0  0  0  0  0  0  0  0
    7.2859  -14.2613   22.5568 C   0  0  0  0  0  0  0  0  0  0  0  0
    7.6617  -13.9577   24.2836 S   0  0  0  0  0  0  0  0  0  0  0  0
    9.1809  -15.7250   22.4121 C   0  0  0  0  0  0  0  0  0  0  0  0
    8.6339  -16.8440   22.3982 O   0  0  0  0  0  0  0  0  0  0  0  0
   10.4342  -15.6220   23.1016 N   0  0  0  0  0  0  0  0  0  0  0  0
   11.0176  -16.7092   23.8226 C   0  0  1  0  0  0  0  0  0  0  0  0
   12.4567  -16.3769   24.1382 C   0  0  0  0  0  0  0  0  0  0  0  0
   13.2203  -16.1012   22.9180 C   0  0  0  0  0  0  0  0  0  0  0  0
   12.7812  -16.3924   21.8013 O   0  0  0  0  0  0  0  0  0  0  0  0
   10.3376  -16.9980   25.0964 C   0  0  0  0  0  0  0  0  0  0  0  0
   10.7517  -18.0843   25.8461 O   0  0  0  0  0  0  0  0  0  0  0  0
   14.4805  -15.4946   22.9855 O   0  0  0  0  0  0  0  0  0  0  0  0
    9.3892  -16.3008   25.5414 O   0  0  0  0  0  0  0  0  0  0  0  0
  2  1  1  6
  3  4  1  0
  3  2  1  0
  4  5  1  0
  5  6  2  0
  5  9  1  0
  7  8  2  0
  7  2  1  0
 10  7  1  0
 11 10  1  0
 11 14  1  0
 11 12  1  1
 13 12  1  0
 14 16  1  0
 15 14  2  0
 16 17  1  0
 17 21  1  0
 17 18  1  1
 19 18  1  0
 20 19  2  0
 21 24  2  0
 21 22  1  0
 23 19  1  0
M  END
$$$$
