NLT.pdb
     RDKit          3D

 24 23  0  0  1  0  0  0  0  0999 V2000
   28.9412  -20.0286  -17.8624 N   0  0  0  0  0  0  0  0  0  0  0  0
   29.0655  -21.4089  -17.5537 C   0  0  0  0  0  0  0  0  0  0  0  0
   29.7687  -22.1606  -18.2526 O   0  0  0  0  0  0  0  0  0  0  0  0
   28.3241  -21.9244  -16.3638 C   0  0  0  0  0  0  0  0  0  0  0  0
   27.5641  -20.7831  -15.7506 C   0  0  2  0  0  0  0  0  0  0  0  0
   28.4847  -19.7860  -15.2438 N   0  0  0  0  0  0  0  0  0  0  0  0
   26.6081  -21.1853  -14.7213 C   0  0  0  0  0  0  0  0  0  0  0  0
   25.8019  -22.1277  -14.9953 O   0  0  0  0  0  0  0  0  0  0  0  0
   25.7872  -19.8259   -8.7603 C   0  0  0  0  0  0  0  0  0  0  0  0
   25.2126  -20.5352   -9.9361 C   0  0  2  0  0  0  0  0  0  0  0  0
   24.9267  -21.9849   -9.4888 C   0  0  0  0  0  0  0  0  0  0  0  0
   26.0114  -20.5620  -11.1630 C   0  0  0  0  0  0  0  0  0  0  0  0
   25.4640  -21.0588  -12.4517 C   0  0  2  0  0  0  0  0  0  0  0  0
   26.4962  -20.6229  -13.4471 N   0  0  0  0  0  0  0  0  0  0  0  0
   24.1680  -20.4822  -12.8362 C   0  0  0  0  0  0  0  0  0  0  0  0
   23.9862  -19.2354  -12.9191 O   0  0  0  0  0  0  0  0  0  0  0  0
   22.4033  -20.2513  -15.8836 C   0  0  0  0  0  0  0  0  0  0  0  0
   21.4351  -20.9121  -14.9574 C   0  0  1  0  0  0  0  0  0  0  0  0
   21.5176  -22.3020  -15.1831 O   0  0  0  0  0  0  0  0  0  0  0  0
   21.7998  -20.7013  -13.5035 C   0  0  2  0  0  0  0  0  0  0  0  0
   23.0293  -21.3222  -13.1401 N   0  0  0  0  0  0  0  0  0  0  0  0
   20.7112  -21.1997  -12.6302 C   0  0  0  0  0  0  0  0  0  0  0  0
   20.8610  -22.2054  -11.8908 O   0  0  0  0  0  0  0  0  0  0  0  0
   19.4994  -20.5404  -12.6296 O   0  0  0  0  0  0  0  0  0  0  0  0
  1  2  1  0
  2  3  2  0
  4  2  1  0
  4  5  1  0
  5  6  1  1
  7  5  1  0
  7  8  2  0
 10  9  1  1
 10 11  1  0
 10 12  1  0
 13 12  1  1
 13 14  1  0
 14  7  1  0
 15 13  1  0
 16 15  2  0
 18 17  1  6
 19 18  1  0
 20 18  1  0
 20 21  1  1
 21 15  1  0
 22 24  1  0
 22 20  1  0
 23 22  2  0
M  END
$$$$
