NLT.pdb
     RDKit          3D

 24 23  0  0  1  0  0  0  0  0999 V2000
   19.3863  -22.3125  -13.0344 N   0  0  0  0  0  0  0  0  0  0  0  0
   20.1797  -22.3064  -14.2119 C   0  0  0  0  0  0  0  0  0  0  0  0
   19.8147  -22.9164  -15.2330 O   0  0  0  0  0  0  0  0  0  0  0  0
   21.4638  -21.5438  -14.1807 C   0  0  0  0  0  0  0  0  0  0  0  0
   21.7372  -21.1380  -12.7606 C   0  0  2  0  0  0  0  0  0  0  0  0
   20.7195  -20.2153  -12.3009 N   0  0  0  0  0  0  0  0  0  0  0  0
   23.0756  -20.5944  -12.5408 C   0  0  0  0  0  0  0  0  0  0  0  0
   23.3431  -19.4561  -13.0367 O   0  0  0  0  0  0  0  0  0  0  0  0
   25.6121  -19.1748   -8.8489 C   0  0  0  0  0  0  0  0  0  0  0  0
   25.3939  -20.6150   -9.1554 C   0  0  2  0  0  0  0  0  0  0  0  0
   25.9780  -21.4178   -7.9731 C   0  0  0  0  0  0  0  0  0  0  0  0
   25.9545  -21.1298  -10.4063 C   0  0  0  0  0  0  0  0  0  0  0  0
   25.4887  -20.6558  -11.7351 C   0  0  2  0  0  0  0  0  0  0  0  0
   24.1022  -21.2177  -11.8267 N   0  0  0  0  0  0  0  0  0  0  0  0
   26.2717  -21.1492  -12.8768 C   0  0  0  0  0  0  0  0  0  0  0  0
   26.9032  -22.2417  -12.8355 O   0  0  0  0  0  0  0  0  0  0  0  0
   25.8944  -22.9737  -15.6708 C   0  0  0  0  0  0  0  0  0  0  0  0
   26.4173  -21.6795  -16.2033 C   0  0  1  0  0  0  0  0  0  0  0  0
   25.3039  -20.8834  -16.5440 O   0  0  0  0  0  0  0  0  0  0  0  0
   27.1858  -20.8997  -15.1580 C   0  0  2  0  0  0  0  0  0  0  0  0
   26.3573  -20.4003  -14.1123 N   0  0  0  0  0  0  0  0  0  0  0  0
   27.9152  -19.7786  -15.7961 C   0  0  0  0  0  0  0  0  0  0  0  0
   27.6444  -18.5783  -15.5385 O   0  0  0  0  0  0  0  0  0  0  0  0
   28.9198  -20.0617  -16.6982 O   0  0  0  0  0  0  0  0  0  0  0  0
  1  2  1  0
  2  3  2  0
  4  2  1  0
  4  5  1  0
  5  6  1  6
  7  5  1  0
  7  8  2  0
 10  9  1  1
 10 11  1  0
 10 12  1  0
 13 12  1  1
 13 14  1  0
 14  7  1  0
 15 13  1  0
 16 15  2  0
 18 17  1  1
 19 18  1  0
 20 18  1  0
 20 21  1  1
 21 15  1  0
 22 24  1  0
 22 20  1  0
 23 22  2  0
M  END
$$$$
