NLT.pdb
     RDKit          3D

 24 23  0  0  1  0  0  0  0  0999 V2000
   28.0663  -19.2220  -18.5317 N   0  0  0  0  0  0  0  0  0  0  0  0
   28.0099  -18.9149  -17.1466 C   0  0  0  0  0  0  0  0  0  0  0  0
   28.8430  -18.1518  -16.6255 O   0  0  0  0  0  0  0  0  0  0  0  0
   26.9182  -19.5390  -16.3403 C   0  0  0  0  0  0  0  0  0  0  0  0
   27.5289  -20.5773  -15.4429 C   0  0  2  0  0  0  0  0  0  0  0  0
   28.0446  -21.6773  -16.2319 N   0  0  0  0  0  0  0  0  0  0  0  0
   26.6359  -21.0594  -14.3917 C   0  0  0  0  0  0  0  0  0  0  0  0
   25.8372  -22.0045  -14.6781 O   0  0  0  0  0  0  0  0  0  0  0  0
   25.8224  -19.8298   -8.3818 C   0  0  0  0  0  0  0  0  0  0  0  0
   25.2632  -20.5187   -9.5770 C   0  0  2  0  0  0  0  0  0  0  0  0
   25.0307  -21.9916   -9.1769 C   0  0  0  0  0  0  0  0  0  0  0  0
   26.0528  -20.4768  -10.8094 C   0  0  0  0  0  0  0  0  0  0  0  0
   25.5356  -21.0064  -12.0976 C   0  0  2  0  0  0  0  0  0  0  0  0
   26.5775  -20.5717  -13.0835 N   0  0  0  0  0  0  0  0  0  0  0  0
   24.2371  -20.4588  -12.5145 C   0  0  0  0  0  0  0  0  0  0  0  0
   24.1083  -19.2686  -12.9157 O   0  0  0  0  0  0  0  0  0  0  0  0
   20.3672  -20.6905  -15.0835 C   0  0  0  0  0  0  0  0  0  0  0  0
   21.6648  -21.1657  -14.5157 C   0  0  1  0  0  0  0  0  0  0  0  0
   22.6978  -20.5372  -15.2420 O   0  0  0  0  0  0  0  0  0  0  0  0
   21.8479  -20.7413  -13.0743 C   0  0  2  0  0  0  0  0  0  0  0  0
   23.0346  -21.2636  -12.4844 N   0  0  0  0  0  0  0  0  0  0  0  0
   20.6702  -21.1486  -12.2722 C   0  0  0  0  0  0  0  0  0  0  0  0
   20.7239  -22.0968  -11.4485 O   0  0  0  0  0  0  0  0  0  0  0  0
   19.4819  -20.4671  -12.4351 O   0  0  0  0  0  0  0  0  0  0  0  0
  1  2  1  0
  2  3  2  0
  4  2  1  0
  4  5  1  0
  5  6  1  6
  7  5  1  0
  7  8  2  0
 10  9  1  1
 10 11  1  0
 10 12  1  0
 13 12  1  1
 13 14  1  0
 14  7  1  0
 15 13  1  0
 16 15  2  0
 18 17  1  6
 19 18  1  0
 20 18  1  0
 20 21  1  1
 21 15  1  0
 22 24  1  0
 22 20  1  0
 23 22  2  0
M  END
$$$$
