NLT.pdb
     RDKit          3D

 24 23  0  0  1  0  0  0  0  0999 V2000
   28.0112  -16.5302  -17.9795 N   0  0  0  0  0  0  0  0  0  0  0  0
   26.6789  -16.7629  -18.4115 C   0  0  0  0  0  0  0  0  0  0  0  0
   26.1568  -16.0518  -19.2888 O   0  0  0  0  0  0  0  0  0  0  0  0
   25.9292  -17.8884  -17.7770 C   0  0  0  0  0  0  0  0  0  0  0  0
   26.7840  -18.4698  -16.6873 C   0  0  2  0  0  0  0  0  0  0  0  0
   27.9666  -19.0841  -17.2554 N   0  0  0  0  0  0  0  0  0  0  0  0
   26.0808  -19.4006  -15.8075 C   0  0  0  0  0  0  0  0  0  0  0  0
   25.4826  -20.3857  -16.3414 O   0  0  0  0  0  0  0  0  0  0  0  0
   25.7968  -20.2953   -9.7068 C   0  0  0  0  0  0  0  0  0  0  0  0
   25.2818  -20.7402  -11.0306 C   0  0  2  0  0  0  0  0  0  0  0  0
   25.5383  -22.2598  -11.1232 C   0  0  0  0  0  0  0  0  0  0  0  0
   25.8323  -20.0890  -12.2210 C   0  0  0  0  0  0  0  0  0  0  0  0
   25.2516  -20.2930  -13.5732 C   0  0  2  0  0  0  0  0  0  0  0  0
   26.0037  -19.3074  -14.4155 N   0  0  0  0  0  0  0  0  0  0  0  0
   23.8150  -20.0016  -13.6795 C   0  0  0  0  0  0  0  0  0  0  0  0
   23.3559  -18.8326  -13.5492 O   0  0  0  0  0  0  0  0  0  0  0  0
   19.4231  -20.7627  -15.4772 C   0  0  0  0  0  0  0  0  0  0  0  0
   20.8945  -21.0147  -15.4183 C   0  0  1  0  0  0  0  0  0  0  0  0
   21.5108  -20.1250  -16.3229 O   0  0  0  0  0  0  0  0  0  0  0  0
   21.4750  -20.6971  -14.0569 C   0  0  2  0  0  0  0  0  0  0  0  0
   22.8505  -21.0486  -13.9402 N   0  0  0  0  0  0  0  0  0  0  0  0
   20.6930  -21.3809  -13.0001 C   0  0  0  0  0  0  0  0  0  0  0  0
   20.9576  -22.5536  -12.6322 O   0  0  0  0  0  0  0  0  0  0  0  0
   19.6453  -20.7103  -12.4037 O   0  0  0  0  0  0  0  0  0  0  0  0
  1  2  1  0
  2  3  2  0
  4  2  1  0
  4  5  1  0
  5  6  1  6
  7  5  1  0
  7  8  2  0
 10  9  1  1
 10 11  1  0
 10 12  1  0
 13 12  1  1
 13 14  1  0
 14  7  1  0
 15 13  1  0
 16 15  2  0
 18 17  1  1
 19 18  1  0
 20 18  1  0
 20 21  1  6
 21 15  1  0
 22 24  1  0
 22 20  1  0
 23 22  2  0
M  END
$$$$
