NLT.pdb
     RDKit          3D

 24 23  0  0  1  0  0  0  0  0999 V2000
   17.0242  -11.4515  -17.6725 N   0  0  0  0  0  0  0  0  0  0  0  0
   17.8629  -11.9085  -16.6219 C   0  0  0  0  0  0  0  0  0  0  0  0
   17.7326  -13.0524  -16.1503 O   0  0  0  0  0  0  0  0  0  0  0  0
   18.9035  -10.9698  -16.1051 C   0  0  0  0  0  0  0  0  0  0  0  0
   20.1793  -11.2187  -16.8578 C   0  0  2  0  0  0  0  0  0  0  0  0
   20.6965  -12.5343  -16.5411 N   0  0  0  0  0  0  0  0  0  0  0  0
   21.2004  -10.1924  -16.6606 C   0  0  0  0  0  0  0  0  0  0  0  0
   21.8429  -10.1967  -15.5649 O   0  0  0  0  0  0  0  0  0  0  0  0
   25.6314   -7.5959  -18.0585 C   0  0  0  0  0  0  0  0  0  0  0  0
   24.5983   -8.2501  -18.9073 C   0  0  2  0  0  0  0  0  0  0  0  0
   24.9216   -7.8802  -20.3710 C   0  0  0  0  0  0  0  0  0  0  0  0
   23.1968   -7.9281  -18.6311 C   0  0  0  0  0  0  0  0  0  0  0  0
   22.5826   -8.1526  -17.2971 C   0  0  2  0  0  0  0  0  0  0  0  0
   21.5409   -9.1935  -17.5763 N   0  0  0  0  0  0  0  0  0  0  0  0
   21.9250   -6.9751  -16.7131 C   0  0  0  0  0  0  0  0  0  0  0  0
   21.1512   -6.2367  -17.3842 O   0  0  0  0  0  0  0  0  0  0  0  0
   20.4508   -7.1154  -12.9933 C   0  0  0  0  0  0  0  0  0  0  0  0
   20.0932   -6.1298  -14.0576 C   0  0  1  0  0  0  0  0  0  0  0  0
   19.4842   -5.0271  -13.4231 O   0  0  0  0  0  0  0  0  0  0  0  0
   21.3149   -5.5840  -14.7653 C   0  0  2  0  0  0  0  0  0  0  0  0
   22.1348   -6.6024  -15.3305 N   0  0  0  0  0  0  0  0  0  0  0  0
   22.1160   -4.7588  -13.8307 C   0  0  0  0  0  0  0  0  0  0  0  0
   23.2757   -5.0921  -13.4780 O   0  0  0  0  0  0  0  0  0  0  0  0
   21.5724   -3.5921  -13.3344 O   0  0  0  0  0  0  0  0  0  0  0  0
  1  2  1  0
  2  3  2  0
  4  2  1  0
  4  5  1  0
  5  6  1  1
  7  5  1  0
  7  8  2  0
 10  9  1  1
 10 11  1  0
 10 12  1  0
 13 12  1  6
 13 14  1  0
 14  7  1  0
 15 13  1  0
 16 15  2  0
 18 17  1  1
 19 18  1  0
 20 18  1  0
 20 21  1  1
 21 15  1  0
 22 24  1  0
 22 20  1  0
 23 22  2  0
M  END
$$$$
