NLT.pdb
     RDKit          3D

 24 23  0  0  1  0  0  0  0  0999 V2000
   17.4041  -11.7945  -19.0106 N   0  0  0  0  0  0  0  0  0  0  0  0
   18.4970  -10.9590  -18.6593 C   0  0  0  0  0  0  0  0  0  0  0  0
   19.1488  -10.3569  -19.5314 O   0  0  0  0  0  0  0  0  0  0  0  0
   18.8349  -10.8294  -17.2100 C   0  0  0  0  0  0  0  0  0  0  0  0
   20.2304  -11.3451  -17.0029 C   0  0  2  0  0  0  0  0  0  0  0  0
   20.1908  -12.7084  -16.5147 N   0  0  0  0  0  0  0  0  0  0  0  0
   21.0576  -10.5035  -16.1413 C   0  0  0  0  0  0  0  0  0  0  0  0
   20.6826  -10.3338  -14.9397 O   0  0  0  0  0  0  0  0  0  0  0  0
   25.3045  -10.5477  -14.0499 C   0  0  0  0  0  0  0  0  0  0  0  0
   25.1264  -10.3758  -15.5177 C   0  0  2  0  0  0  0  0  0  0  0  0
   26.5376  -10.3829  -16.1438 C   0  0  0  0  0  0  0  0  0  0  0  0
   24.4068   -9.1850  -15.9740 C   0  0  0  0  0  0  0  0  0  0  0  0
   22.9882   -8.9320  -15.6124 C   0  0  2  0  0  0  0  0  0  0  0  0
   22.2382   -9.8593  -16.5203 N   0  0  0  0  0  0  0  0  0  0  0  0
   22.5235   -7.5591  -15.8557 C   0  0  0  0  0  0  0  0  0  0  0  0
   22.9586   -6.5761  -15.1934 O   0  0  0  0  0  0  0  0  0  0  0  0
   22.4482   -5.4258  -19.1092 C   0  0  0  0  0  0  0  0  0  0  0  0
   21.0832   -5.4939  -18.5059 C   0  0  1  0  0  0  0  0  0  0  0  0
   20.3713   -6.5032  -19.1872 O   0  0  0  0  0  0  0  0  0  0  0  0
   21.1207   -5.9157  -17.0526 C   0  0  2  0  0  0  0  0  0  0  0  0
   21.5371   -7.2661  -16.8733 N   0  0  0  0  0  0  0  0  0  0  0  0
   19.7896   -5.7167  -16.4323 C   0  0  0  0  0  0  0  0  0  0  0  0
   19.3010   -4.5709  -16.2623 O   0  0  0  0  0  0  0  0  0  0  0  0
   19.0672   -6.8211  -16.0304 O   0  0  0  0  0  0  0  0  0  0  0  0
  1  2  1  0
  2  3  2  0
  4  2  1  0
  4  5  1  0
  5  6  1  1
  7  5  1  0
  7  8  2  0
 10  9  1  1
 10 11  1  0
 10 12  1  0
 13 12  1  6
 13 14  1  0
 14  7  1  0
 15 13  1  0
 16 15  2  0
 18 17  1  6
 19 18  1  0
 20 18  1  0
 20 21  1  6
 21 15  1  0
 22 24  1  0
 22 20  1  0
 23 22  2  0
M  END
$$$$
