NLT.pdb
     RDKit          3D

 24 23  0  0  1  0  0  0  0  0999 V2000
   28.7391  -21.3607  -20.2617 N   0  0  0  0  0  0  0  0  0  0  0  0
   27.5760  -21.2656  -19.4530 C   0  0  0  0  0  0  0  0  0  0  0  0
   26.5404  -20.7256  -19.8818 O   0  0  0  0  0  0  0  0  0  0  0  0
   27.6402  -21.8351  -18.0735 C   0  0  0  0  0  0  0  0  0  0  0  0
   27.3174  -20.7414  -17.0959 C   0  0  2  0  0  0  0  0  0  0  0  0
   28.1575  -19.5875  -17.3433 N   0  0  0  0  0  0  0  0  0  0  0  0
   27.3881  -21.1509  -15.6951 C   0  0  0  0  0  0  0  0  0  0  0  0
   26.7342  -22.1816  -15.3439 O   0  0  0  0  0  0  0  0  0  0  0  0
   31.2003  -20.3624  -10.9762 C   0  0  0  0  0  0  0  0  0  0  0  0
   29.8615  -20.8622  -11.3927 C   0  0  2  0  0  0  0  0  0  0  0  0
   29.8698  -22.3919  -11.1839 C   0  0  0  0  0  0  0  0  0  0  0  0
   29.4285  -20.5686  -12.7604 C   0  0  0  0  0  0  0  0  0  0  0  0
   28.0742  -20.9276  -13.2547 C   0  0  2  0  0  0  0  0  0  0  0  0
   28.1174  -20.5064  -14.6925 N   0  0  0  0  0  0  0  0  0  0  0  0
   26.9674  -20.2233  -12.5922 C   0  0  0  0  0  0  0  0  0  0  0  0
   26.5714  -19.0866  -12.9734 O   0  0  0  0  0  0  0  0  0  0  0  0
   23.8346  -22.0806  -12.6337 C   0  0  0  0  0  0  0  0  0  0  0  0
   23.9884  -20.6254  -12.3330 C   0  0  1  0  0  0  0  0  0  0  0  0
   22.7316  -20.1482  -11.9061 O   0  0  0  0  0  0  0  0  0  0  0  0
   24.9431  -20.3764  -11.1850 C   0  0  2  0  0  0  0  0  0  0  0  0
   26.2736  -20.8031  -11.4622 N   0  0  0  0  0  0  0  0  0  0  0  0
   24.4484  -21.0469   -9.9595 C   0  0  0  0  0  0  0  0  0  0  0  0
   25.1219  -21.9276   -9.3667 O   0  0  0  0  0  0  0  0  0  0  0  0
   23.2136  -20.6936   -9.4559 O   0  0  0  0  0  0  0  0  0  0  0  0
  1  2  1  0
  2  3  2  0
  4  2  1  0
  4  5  1  0
  5  6  1  1
  7  5  1  0
  7  8  2  0
 10  9  1  6
 10 11  1  0
 10 12  1  0
 13 12  1  1
 13 14  1  0
 14  7  1  0
 15 13  1  0
 16 15  2  0
 18 17  1  1
 19 18  1  0
 20 18  1  0
 20 21  1  6
 21 15  1  0
 22 24  1  0
 22 20  1  0
 23 22  2  0
M  END
$$$$
