NLT.pdb
     RDKit          3D

 24 23  0  0  1  0  0  0  0  0999 V2000
   13.1727   -5.5771   -8.0464 N   0  0  0  0  0  0  0  0  0  0  0  0
   14.4914   -5.2601   -7.6262 C   0  0  0  0  0  0  0  0  0  0  0  0
   14.6998   -4.3521   -6.8017 O   0  0  0  0  0  0  0  0  0  0  0  0
   15.6156   -6.0533   -8.2079 C   0  0  0  0  0  0  0  0  0  0  0  0
   15.0318   -7.1635   -9.0343 C   0  0  2  0  0  0  0  0  0  0  0  0
   14.5093   -8.2045   -8.1730 N   0  0  0  0  0  0  0  0  0  0  0  0
   15.9497   -7.7163  -10.0276 C   0  0  0  0  0  0  0  0  0  0  0  0
   16.8194   -8.5532   -9.6319 O   0  0  0  0  0  0  0  0  0  0  0  0
   15.7754   -9.3991  -15.7816 C   0  0  0  0  0  0  0  0  0  0  0  0
   16.7151   -8.9742  -14.7082 C   0  0  2  0  0  0  0  0  0  0  0  0
   17.6066  -10.1927  -14.3854 C   0  0  0  0  0  0  0  0  0  0  0  0
   16.1321   -8.4656  -13.4650 C   0  0  0  0  0  0  0  0  0  0  0  0
   16.9711   -7.9666  -12.3450 C   0  0  2  0  0  0  0  0  0  0  0  0
   15.9606   -7.4067  -11.3901 N   0  0  0  0  0  0  0  0  0  0  0  0
   17.9157   -6.9005  -12.7074 C   0  0  0  0  0  0  0  0  0  0  0  0
   17.5414   -5.7110  -12.9057 O   0  0  0  0  0  0  0  0  0  0  0  0
   22.2312   -7.5157  -12.8184 C   0  0  0  0  0  0  0  0  0  0  0  0
   21.5585   -6.2508  -12.3946 C   0  0  1  0  0  0  0  0  0  0  0  0
   22.3629   -5.1784  -12.8331 O   0  0  0  0  0  0  0  0  0  0  0  0
   20.2133   -6.0666  -13.0638 C   0  0  2  0  0  0  0  0  0  0  0  0
   19.3307   -7.1652  -12.8560 N   0  0  0  0  0  0  0  0  0  0  0  0
   20.3965   -5.8408  -14.5169 C   0  0  0  0  0  0  0  0  0  0  0  0
   20.9005   -4.7801  -14.9656 O   0  0  0  0  0  0  0  0  0  0  0  0
   20.0022   -6.8233  -15.4014 O   0  0  0  0  0  0  0  0  0  0  0  0
  1  2  1  0
  2  3  2  0
  4  2  1  0
  4  5  1  0
  5  6  1  1
  7  5  1  0
  7  8  2  0
 10  9  1  6
 10 11  1  0
 10 12  1  0
 13 12  1  6
 13 14  1  0
 14  7  1  0
 15 13  1  0
 16 15  2  0
 18 17  1  6
 19 18  1  0
 20 18  1  0
 20 21  1  6
 21 15  1  0
 22 24  1  0
 22 20  1  0
 23 22  2  0
M  END
$$$$
