NLT.pdb
     RDKit          3D

 24 23  0  0  1  0  0  0  0  0999 V2000
   15.4704   -9.1898  -19.1777 N   0  0  0  0  0  0  0  0  0  0  0  0
   16.5025   -9.7542  -18.3826 C   0  0  0  0  0  0  0  0  0  0  0  0
   16.8856  -10.9236  -18.5665 O   0  0  0  0  0  0  0  0  0  0  0  0
   17.1097   -8.8965  -17.3210 C   0  0  0  0  0  0  0  0  0  0  0  0
   17.8306   -9.7872  -16.3498 C   0  0  2  0  0  0  0  0  0  0  0  0
   16.8845  -10.6360  -15.6547 N   0  0  0  0  0  0  0  0  0  0  0  0
   18.6869   -9.0733  -15.4052 C   0  0  0  0  0  0  0  0  0  0  0  0
   18.1568   -8.6342  -14.3378 O   0  0  0  0  0  0  0  0  0  0  0  0
   21.6074   -9.8210  -12.0795 C   0  0  0  0  0  0  0  0  0  0  0  0
   22.0578  -10.0474  -13.4801 C   0  0  2  0  0  0  0  0  0  0  0  0
   23.4845  -10.6323  -13.4027 C   0  0  0  0  0  0  0  0  0  0  0  0
   22.0625   -8.8930  -14.3810 C   0  0  0  0  0  0  0  0  0  0  0  0
   20.8618   -8.0411  -14.5801 C   0  0  2  0  0  0  0  0  0  0  0  0
   20.0522   -8.8250  -15.5684 N   0  0  0  0  0  0  0  0  0  0  0  0
   21.1335   -6.7119  -15.1451 C   0  0  0  0  0  0  0  0  0  0  0  0
   21.7126   -6.5608  -16.2569 O   0  0  0  0  0  0  0  0  0  0  0  0
   18.6726   -4.1063  -16.1482 C   0  0  0  0  0  0  0  0  0  0  0  0
   19.6536   -3.4530  -15.2301 C   0  0  1  0  0  0  0  0  0  0  0  0
   19.0757   -3.4297  -13.9437 O   0  0  0  0  0  0  0  0  0  0  0  0
   20.9337   -4.2503  -15.1001 C   0  0  2  0  0  0  0  0  0  0  0  0
   20.7479   -5.5033  -14.4486 N   0  0  0  0  0  0  0  0  0  0  0  0
   21.9540   -3.4567  -14.3752 C   0  0  0  0  0  0  0  0  0  0  0  0
   22.3794   -3.7985  -13.2426 O   0  0  0  0  0  0  0  0  0  0  0  0
   22.4501   -2.3105  -14.9611 O   0  0  0  0  0  0  0  0  0  0  0  0
  1  2  1  0
  2  3  2  0
  4  2  1  0
  4  5  1  0
  5  6  1  1
  7  5  1  0
  7  8  2  0
 10  9  1  1
 10 11  1  0
 10 12  1  0
 13 12  1  6
 13 14  1  0
 14  7  1  0
 15 13  1  0
 16 15  2  0
 18 17  1  6
 19 18  1  0
 20 18  1  0
 20 21  1  1
 21 15  1  0
 22 24  1  0
 22 20  1  0
 23 22  2  0
M  END
$$$$
