NLT.pdb
     RDKit          3D

 24 23  0  0  1  0  0  0  0  0999 V2000
   19.9752  -15.2076  -18.3295 N   0  0  0  0  0  0  0  0  0  0  0  0
   20.0886  -15.4305  -16.9318 C   0  0  0  0  0  0  0  0  0  0  0  0
   19.8215  -16.5402  -16.4366 O   0  0  0  0  0  0  0  0  0  0  0  0
   20.5386  -14.2886  -16.0803 C   0  0  0  0  0  0  0  0  0  0  0  0
   20.6329  -13.0639  -16.9448 C   0  0  2  0  0  0  0  0  0  0  0  0
   21.6067  -13.2702  -17.9973 N   0  0  0  0  0  0  0  0  0  0  0  0
   20.9092  -11.8321  -16.2090 C   0  0  0  0  0  0  0  0  0  0  0  0
   20.1265  -11.5196  -15.2587 O   0  0  0  0  0  0  0  0  0  0  0  0
   24.4846  -10.1635  -13.3726 C   0  0  0  0  0  0  0  0  0  0  0  0
   24.5773  -10.3649  -14.8445 C   0  0  2  0  0  0  0  0  0  0  0  0
   26.0407  -10.0785  -15.2443 C   0  0  0  0  0  0  0  0  0  0  0  0
   23.6858   -9.5690  -15.6907 C   0  0  0  0  0  0  0  0  0  0  0  0
   22.2085   -9.7185  -15.6424 C   0  0  2  0  0  0  0  0  0  0  0  0
   21.9677  -10.9540  -16.4560 N   0  0  0  0  0  0  0  0  0  0  0  0
   21.4548   -8.6079  -16.2409 C   0  0  0  0  0  0  0  0  0  0  0  0
   21.5290   -8.3323  -17.4709 O   0  0  0  0  0  0  0  0  0  0  0  0
   17.7252   -5.4695  -16.2903 C   0  0  0  0  0  0  0  0  0  0  0  0
   18.4133   -6.6660  -15.7186 C   0  0  1  0  0  0  0  0  0  0  0  0
   17.8306   -7.8081  -16.3066 O   0  0  0  0  0  0  0  0  0  0  0  0
   19.8817   -6.7099  -16.0834 C   0  0  2  0  0  0  0  0  0  0  0  0
   20.5852   -7.7702  -15.4431 N   0  0  0  0  0  0  0  0  0  0  0  0
   20.5243   -5.4151  -15.7569 C   0  0  0  0  0  0  0  0  0  0  0  0
   20.3435   -4.3884  -16.4595 O   0  0  0  0  0  0  0  0  0  0  0  0
   21.3440   -5.3356  -14.6502 O   0  0  0  0  0  0  0  0  0  0  0  0
  1  2  1  0
  2  3  2  0
  4  2  1  0
  4  5  1  0
  5  6  1  6
  7  5  1  0
  7  8  2  0
 10  9  1  1
 10 11  1  0
 10 12  1  0
 13 12  1  6
 13 14  1  0
 14  7  1  0
 15 13  1  0
 16 15  2  0
 18 17  1  6
 19 18  1  0
 20 18  1  0
 20 21  1  1
 21 15  1  0
 22 24  1  0
 22 20  1  0
 23 22  2  0
M  END
$$$$
