NLT.pdb
     RDKit          3D

 24 23  0  0  1  0  0  0  0  0999 V2000
   14.0965  -19.8699    1.1754 N   0  0  0  0  0  0  0  0  0  0  0  0
   13.6377  -20.0244    2.5102 C   0  0  0  0  0  0  0  0  0  0  0  0
   12.5861  -20.6412    2.7584 O   0  0  0  0  0  0  0  0  0  0  0  0
   14.4601  -19.4218    3.6019 C   0  0  0  0  0  0  0  0  0  0  0  0
   15.5696  -18.6278    2.9734 C   0  0  2  0  0  0  0  0  0  0  0  0
   16.4095  -19.4932    2.1710 N   0  0  0  0  0  0  0  0  0  0  0  0
   16.3676  -17.8578    3.9250 C   0  0  0  0  0  0  0  0  0  0  0  0
   17.4591  -18.3644    4.3315 O   0  0  0  0  0  0  0  0  0  0  0  0
   19.0819  -13.8979    3.9100 C   0  0  0  0  0  0  0  0  0  0  0  0
   17.6033  -13.9054    3.7386 C   0  0  2  0  0  0  0  0  0  0  0  0
   17.1783  -12.4490    3.4528 C   0  0  0  0  0  0  0  0  0  0  0  0
   16.7997  -14.4298    4.8446 C   0  0  0  0  0  0  0  0  0  0  0  0
   16.9487  -15.8230    5.3385 C   0  0  2  0  0  0  0  0  0  0  0  0
   16.0382  -16.5999    4.4363 N   0  0  0  0  0  0  0  0  0  0  0  0
   16.5238  -16.0347    6.7295 C   0  0  0  0  0  0  0  0  0  0  0  0
   15.3268  -15.8735    7.0975 O   0  0  0  0  0  0  0  0  0  0  0  0
   16.0763  -18.9149    8.8573 C   0  0  0  0  0  0  0  0  0  0  0  0
   17.0578  -18.0393    9.5657 C   0  0  1  0  0  0  0  0  0  0  0  0
   18.3490  -18.5035    9.2391 O   0  0  0  0  0  0  0  0  0  0  0  0
   16.9945  -16.6049    9.0863 C   0  0  2  0  0  0  0  0  0  0  0  0
   17.4645  -16.4405    7.7517 N   0  0  0  0  0  0  0  0  0  0  0  0
   17.7674  -15.7304    9.9995 C   0  0  0  0  0  0  0  0  0  0  0  0
   18.8190  -15.1490    9.6300 O   0  0  0  0  0  0  0  0  0  0  0  0
   17.3190  -15.5501   11.2916 O   0  0  0  0  0  0  0  0  0  0  0  0
  1  2  1  0
  2  3  2  0
  4  2  1  0
  4  5  1  0
  5  6  1  1
  7  5  1  0
  7  8  2  0
 10  9  1  1
 10 11  1  0
 10 12  1  0
 13 12  1  6
 13 14  1  0
 14  7  1  0
 15 13  1  0
 16 15  2  0
 18 17  1  6
 19 18  1  0
 20 18  1  0
 20 21  1  6
 21 15  1  0
 22 24  1  0
 22 20  1  0
 23 22  2  0
M  END
$$$$
