VCT.pdb
     RDKit          3D

 21 20  0  0  1  0  0  0  0  0999 V2000
   18.9762  -10.6826  -17.8869 C   0  0  0  0  0  0  0  0  0  0  0  0
   19.4150  -11.4646  -16.6378 C   0  0  2  0  0  0  0  0  0  0  0  0
   19.4111  -12.9135  -17.0685 C   0  0  0  0  0  0  0  0  0  0  0  0
   18.4132  -11.1923  -15.5273 C   0  0  2  0  0  0  0  0  0  0  0  0
   17.1311  -11.6950  -16.0310 N   0  0  0  0  0  0  0  0  0  0  0  0
   18.2498   -9.7746  -15.2083 C   0  0  0  0  0  0  0  0  0  0  0  0
   17.4850   -9.0675  -15.9464 O   0  0  0  0  0  0  0  0  0  0  0  0
   18.8565   -9.0685  -14.1443 N   0  0  0  0  0  0  0  0  0  0  0  0
   18.7758   -7.6291  -13.9793 C   0  0  1  0  0  0  0  0  0  0  0  0
   17.8433   -7.3991  -12.7824 C   0  0  0  0  0  0  0  0  0  0  0  0
   18.4075   -8.4945  -11.4469 S   0  0  0  0  0  0  0  0  0  0  0  0
   20.0895   -7.0509  -13.5863 C   0  0  0  0  0  0  0  0  0  0  0  0
   20.8849   -7.6345  -12.8061 O   0  0  0  0  0  0  0  0  0  0  0  0
   22.8294   -6.6232  -15.5784 C   0  0  0  0  0  0  0  0  0  0  0  0
   22.4441   -5.2059  -15.2750 C   0  0  1  0  0  0  0  0  0  0  0  0
   21.6068   -4.7471  -16.2887 O   0  0  0  0  0  0  0  0  0  0  0  0
   21.7142   -5.1565  -13.9257 C   0  0  2  0  0  0  0  0  0  0  0  0
   20.4310   -5.7865  -14.1311 N   0  0  0  0  0  0  0  0  0  0  0  0
   21.4772   -3.7167  -13.6096 C   0  0  0  0  0  0  0  0  0  0  0  0
   22.4892   -2.9216  -13.0891 O   0  0  0  0  0  0  0  0  0  0  0  0
   20.3626   -3.1731  -13.8004 O   0  0  0  0  0  0  0  0  0  0  0  0
  2  4  1  0
  2  1  1  6
  3  2  1  0
  4  5  1  6
  6  7  2  0
  6  4  1  0
  8  6  1  0
  9 12  1  0
  9  8  1  0
 10 11  1  0
  9 10  1  1
 12 18  1  0
 13 12  2  0
 15 14  1  6
 15 16  1  0
 17 19  1  0
 17 15  1  0
 17 18  1  6
 19 20  1  0
 21 19  2  0
M  END
$$$$
