VCT.pdb
     RDKit          3D

 21 20  0  0  1  0  0  0  0  0999 V2000
   17.7576  -14.5133  -16.4233 C   0  0  0  0  0  0  0  0  0  0  0  0
   17.0782  -13.2502  -15.8687 C   0  0  2  0  0  0  0  0  0  0  0  0
   15.9908  -12.9268  -16.8675 C   0  0  0  0  0  0  0  0  0  0  0  0
   18.1211  -12.1478  -15.7773 C   0  0  2  0  0  0  0  0  0  0  0  0
   19.1505  -12.6633  -14.8691 N   0  0  0  0  0  0  0  0  0  0  0  0
   17.6137  -10.8940  -15.2215 C   0  0  0  0  0  0  0  0  0  0  0  0
   16.7598  -10.2284  -15.8978 O   0  0  0  0  0  0  0  0  0  0  0  0
   17.9660  -10.3104  -13.9830 N   0  0  0  0  0  0  0  0  0  0  0  0
   17.4551   -9.0351  -13.5157 C   0  0  1  0  0  0  0  0  0  0  0  0
   17.4462   -9.1267  -11.9838 C   0  0  0  0  0  0  0  0  0  0  0  0
   15.7477   -9.5329  -11.4824 S   0  0  0  0  0  0  0  0  0  0  0  0
   18.3830   -7.9207  -13.8495 C   0  0  0  0  0  0  0  0  0  0  0  0
   19.5899   -7.9095  -13.4952 O   0  0  0  0  0  0  0  0  0  0  0  0
   19.1381   -6.8821  -17.2255 C   0  0  0  0  0  0  0  0  0  0  0  0
   18.4664   -5.6942  -16.6033 C   0  0  1  0  0  0  0  0  0  0  0  0
   17.1097   -5.7383  -16.9141 O   0  0  0  0  0  0  0  0  0  0  0  0
   18.6602   -5.7415  -15.0815 C   0  0  2  0  0  0  0  0  0  0  0  0
   17.8546   -6.8392  -14.6000 N   0  0  0  0  0  0  0  0  0  0  0  0
   18.0938   -4.4752  -14.5292 C   0  0  0  0  0  0  0  0  0  0  0  0
   18.8021   -3.2833  -14.5993 O   0  0  0  0  0  0  0  0  0  0  0  0
   16.9642   -4.4391  -13.9844 O   0  0  0  0  0  0  0  0  0  0  0  0
  2  4  1  0
  2  1  1  6
  3  2  1  0
  4  5  1  1
  6  7  2  0
  6  4  1  0
  8  6  1  0
  9 12  1  0
  9  8  1  0
 10 11  1  0
  9 10  1  1
 12 18  1  0
 13 12  2  0
 15 14  1  6
 15 16  1  0
 17 19  1  0
 17 15  1  0
 17 18  1  1
 19 20  1  0
 21 19  2  0
M  END
$$$$
