VCT.pdb
     RDKit          3D

 21 20  0  0  1  0  0  0  0  0999 V2000
   13.2062  -24.6280   -2.0345 C   0  0  0  0  0  0  0  0  0  0  0  0
   13.9059  -23.5161   -2.8335 C   0  0  2  0  0  0  0  0  0  0  0  0
   13.9007  -24.0066   -4.2632 C   0  0  0  0  0  0  0  0  0  0  0  0
   15.3151  -23.3502   -2.2879 C   0  0  2  0  0  0  0  0  0  0  0  0
   15.9594  -24.6537   -2.4775 N   0  0  0  0  0  0  0  0  0  0  0  0
   15.3666  -23.0226   -0.8637 C   0  0  0  0  0  0  0  0  0  0  0  0
   15.4666  -23.9768   -0.0216 O   0  0  0  0  0  0  0  0  0  0  0  0
   15.3182  -21.7327   -0.2870 N   0  0  0  0  0  0  0  0  0  0  0  0
   15.2230  -21.4881    1.1401 C   0  0  1  0  0  0  0  0  0  0  0  0
   16.3920  -20.5542    1.4810 C   0  0  0  0  0  0  0  0  0  0  0  0
   16.7403  -20.7583    3.2526 S   0  0  0  0  0  0  0  0  0  0  0  0
   13.9876  -20.7325    1.4826 C   0  0  0  0  0  0  0  0  0  0  0  0
   13.4639  -19.8942    0.7047 O   0  0  0  0  0  0  0  0  0  0  0  0
   10.0591  -20.7081    4.3389 C   0  0  0  0  0  0  0  0  0  0  0  0
   11.3659  -21.3331    3.9503 C   0  0  1  0  0  0  0  0  0  0  0  0
   11.1093  -22.4047    3.0988 O   0  0  0  0  0  0  0  0  0  0  0  0
   12.2350  -20.2889    3.2362 C   0  0  2  0  0  0  0  0  0  0  0  0
   13.3989  -20.9903    2.7471 N   0  0  0  0  0  0  0  0  0  0  0  0
   12.6851  -19.3126    4.2723 C   0  0  0  0  0  0  0  0  0  0  0  0
   12.0261  -18.1039    4.4517 O   0  0  0  0  0  0  0  0  0  0  0  0
   13.6688  -19.5445    5.0157 O   0  0  0  0  0  0  0  0  0  0  0  0
  2  4  1  0
  2  1  1  1
  3  2  1  0
  4  5  1  1
  6  7  2  0
  6  4  1  0
  8  6  1  0
  9 12  1  0
  9  8  1  0
 10 11  1  0
  9 10  1  6
 12 18  1  0
 13 12  2  0
 15 14  1  6
 15 16  1  0
 17 19  1  0
 17 15  1  0
 17 18  1  1
 19 20  1  0
 21 19  2  0
M  END
$$$$
