VCT.pdb
     RDKit          3D

 21 20  0  0  1  0  0  0  0  0999 V2000
   17.4132  -11.8230  -17.4125 C   0  0  0  0  0  0  0  0  0  0  0  0
   17.6353  -12.4159  -16.0112 C   0  0  2  0  0  0  0  0  0  0  0  0
   17.1808  -13.8531  -16.1239 C   0  0  0  0  0  0  0  0  0  0  0  0
   16.7981  -11.6244  -15.0194 C   0  0  2  0  0  0  0  0  0  0  0  0
   15.4105  -11.7945  -15.4619 N   0  0  0  0  0  0  0  0  0  0  0  0
   17.0949  -10.1926  -15.0001 C   0  0  0  0  0  0  0  0  0  0  0  0
   16.6970   -9.4740  -15.9774 O   0  0  0  0  0  0  0  0  0  0  0  0
   17.7921   -9.4836  -13.9952 N   0  0  0  0  0  0  0  0  0  0  0  0
   18.1241   -8.0738  -14.0828 C   0  0  1  0  0  0  0  0  0  0  0  0
   17.3507   -7.3928  -12.9457 C   0  0  0  0  0  0  0  0  0  0  0  0
   17.7755   -8.2681  -11.4111 S   0  0  0  0  0  0  0  0  0  0  0  0
   19.5640   -7.8337  -13.7938 C   0  0  0  0  0  0  0  0  0  0  0  0
   20.2738   -8.6458  -13.1466 O   0  0  0  0  0  0  0  0  0  0  0  0
   23.5458   -5.8008  -15.4841 C   0  0  0  0  0  0  0  0  0  0  0  0
   22.1128   -6.2378  -15.5551 C   0  0  1  0  0  0  0  0  0  0  0  0
   22.0621   -7.4978  -16.1458 O   0  0  0  0  0  0  0  0  0  0  0  0
   21.5297   -6.2968  -14.1367 C   0  0  2  0  0  0  0  0  0  0  0  0
   20.1318   -6.6290  -14.2821 N   0  0  0  0  0  0  0  0  0  0  0  0
   21.6208   -4.9188  -13.5690 C   0  0  0  0  0  0  0  0  0  0  0  0
   20.6334   -3.9752  -13.8175 O   0  0  0  0  0  0  0  0  0  0  0  0
   22.5859   -4.5625  -12.8509 O   0  0  0  0  0  0  0  0  0  0  0  0
  2  4  1  0
  2  1  1  6
  3  2  1  0
  4  5  1  6
  6  7  2  0
  6  4  1  0
  8  6  1  0
  9 12  1  0
  9  8  1  0
 10 11  1  0
  9 10  1  1
 12 18  1  0
 13 12  2  0
 15 14  1  1
 15 16  1  0
 17 19  1  0
 17 15  1  0
 17 18  1  6
 19 20  1  0
 21 19  2  0
M  END
$$$$
