VCT.pdb
     RDKit          3D

 21 20  0  0  1  0  0  0  0  0999 V2000
   18.7101  -11.7237  -16.0804 C   0  0  0  0  0  0  0  0  0  0  0  0
   17.6697  -10.9603  -16.9166 C   0  0  2  0  0  0  0  0  0  0  0  0
   17.4666  -11.8107  -18.1497 C   0  0  0  0  0  0  0  0  0  0  0  0
   18.2372   -9.5901  -17.2504 C   0  0  2  0  0  0  0  0  0  0  0  0
   19.3627   -9.8472  -18.1546 N   0  0  0  0  0  0  0  0  0  0  0  0
   18.7460   -8.8586  -16.0908 C   0  0  0  0  0  0  0  0  0  0  0  0
   17.9229   -8.5143  -15.1778 O   0  0  0  0  0  0  0  0  0  0  0  0
   20.0851   -8.4745  -15.8501 N   0  0  0  0  0  0  0  0  0  0  0  0
   20.4950   -7.6133  -14.7565 C   0  0  1  0  0  0  0  0  0  0  0  0
   21.6913   -8.3155  -14.1000 C   0  0  0  0  0  0  0  0  0  0  0  0
   22.2047   -7.2908  -12.6900 S   0  0  0  0  0  0  0  0  0  0  0  0
   21.0131   -6.3099  -15.2537 C   0  0  0  0  0  0  0  0  0  0  0  0
   21.8373   -6.2204  -16.1996 O   0  0  0  0  0  0  0  0  0  0  0  0
   18.9492   -3.4866  -16.3903 C   0  0  0  0  0  0  0  0  0  0  0  0
   19.6815   -2.9824  -15.1824 C   0  0  1  0  0  0  0  0  0  0  0  0
   18.8511   -3.1153  -14.0726 O   0  0  0  0  0  0  0  0  0  0  0  0
   20.9613   -3.8062  -14.9848 C   0  0  2  0  0  0  0  0  0  0  0  0
   20.5388   -5.1364  -14.6135 N   0  0  0  0  0  0  0  0  0  0  0  0
   21.6891   -3.2115  -13.8246 C   0  0  0  0  0  0  0  0  0  0  0  0
   21.7999   -3.8956  -12.6217 O   0  0  0  0  0  0  0  0  0  0  0  0
   22.2249   -2.0790  -13.8910 O   0  0  0  0  0  0  0  0  0  0  0  0
  2  4  1  0
  2  1  1  1
  3  2  1  0
  4  5  1  6
  6  7  2  0
  6  4  1  0
  8  6  1  0
  9 12  1  0
  9  8  1  0
 10 11  1  0
  9 10  1  6
 12 18  1  0
 13 12  2  0
 15 14  1  6
 15 16  1  0
 17 19  1  0
 17 15  1  0
 17 18  1  1
 19 20  1  0
 21 19  2  0
M  END
$$$$
