VCT.pdb
     RDKit          3D

 21 20  0  0  1  0  0  0  0  0999 V2000
   18.2251  -24.1320  -10.2732 C   0  0  0  0  0  0  0  0  0  0  0  0
   17.4772  -24.7266   -9.0683 C   0  0  2  0  0  0  0  0  0  0  0  0
   16.9464  -23.5289   -8.3143 C   0  0  0  0  0  0  0  0  0  0  0  0
   18.4665  -25.5334   -8.2427 C   0  0  2  0  0  0  0  0  0  0  0  0
   18.8384  -26.6720   -9.0885 N   0  0  0  0  0  0  0  0  0  0  0  0
   17.9117  -26.0579   -6.9955 C   0  0  0  0  0  0  0  0  0  0  0  0
   17.0851  -27.0289   -7.0564 O   0  0  0  0  0  0  0  0  0  0  0  0
   18.1903  -25.6047   -5.6857 N   0  0  0  0  0  0  0  0  0  0  0  0
   17.5592  -26.1400   -4.4936 C   0  0  1  0  0  0  0  0  0  0  0  0
   18.6824  -26.2862   -3.4582 C   0  0  0  0  0  0  0  0  0  0  0  0
   19.6253  -27.7757   -3.8990 S   0  0  0  0  0  0  0  0  0  0  0  0
   16.5917  -25.1729   -3.9079 C   0  0  0  0  0  0  0  0  0  0  0  0
   16.7683  -23.9280   -3.9405 O   0  0  0  0  0  0  0  0  0  0  0  0
   12.8441  -26.3282   -4.1631 C   0  0  0  0  0  0  0  0  0  0  0  0
   13.2663  -24.9116   -3.9095 C   0  0  1  0  0  0  0  0  0  0  0  0
   12.1523  -24.1830   -3.5007 O   0  0  0  0  0  0  0  0  0  0  0  0
   14.3407  -24.8911   -2.8137 C   0  0  2  0  0  0  0  0  0  0  0  0
   15.4306  -25.7082   -3.2936 N   0  0  0  0  0  0  0  0  0  0  0  0
   13.7546  -25.5599   -1.6144 C   0  0  0  0  0  0  0  0  0  0  0  0
   12.8440  -24.9005   -0.8000 O   0  0  0  0  0  0  0  0  0  0  0  0
   14.0598  -26.7351   -1.2981 O   0  0  0  0  0  0  0  0  0  0  0  0
  2  4  1  0
  2  1  1  6
  3  2  1  0
  4  5  1  6
  6  7  2  0
  6  4  1  0
  8  6  1  0
  9 12  1  0
  9  8  1  0
 10 11  1  0
  9 10  1  1
 12 18  1  0
 13 12  2  0
 15 14  1  1
 15 16  1  0
 17 19  1  0
 17 15  1  0
 17 18  1  6
 19 20  1  0
 21 19  2  0
M  END
$$$$
