VCT.pdb
     RDKit          3D

 21 20  0  0  1  0  0  0  0  0999 V2000
   19.6023  -12.2341  -16.3830 C   0  0  0  0  0  0  0  0  0  0  0  0
   18.4369  -11.8861  -17.3238 C   0  0  2  0  0  0  0  0  0  0  0  0
   18.6569  -12.7480  -18.5458 C   0  0  0  0  0  0  0  0  0  0  0  0
   18.5099  -10.4022  -17.6462 C   0  0  2  0  0  0  0  0  0  0  0  0
   19.7359  -10.2373  -18.4336 N   0  0  0  0  0  0  0  0  0  0  0  0
   18.6094   -9.5419  -16.4679 C   0  0  0  0  0  0  0  0  0  0  0  0
   17.6271   -9.5073  -15.6533 O   0  0  0  0  0  0  0  0  0  0  0  0
   19.6996   -8.7164  -16.1092 N   0  0  0  0  0  0  0  0  0  0  0  0
   19.6938   -7.8201  -14.9680 C   0  0  1  0  0  0  0  0  0  0  0  0
   20.3515   -8.6012  -13.8223 C   0  0  0  0  0  0  0  0  0  0  0  0
   22.0661   -8.9383  -14.3202 S   0  0  0  0  0  0  0  0  0  0  0  0
   20.5627   -6.6348  -15.2013 C   0  0  0  0  0  0  0  0  0  0  0  0
   21.5407   -6.6518  -15.9920 O   0  0  0  0  0  0  0  0  0  0  0  0
   20.7662   -1.7830  -14.2179 C   0  0  0  0  0  0  0  0  0  0  0  0
   20.1173   -3.1172  -13.9984 C   0  0  1  0  0  0  0  0  0  0  0  0
   18.8489   -3.0934  -14.5724 O   0  0  0  0  0  0  0  0  0  0  0  0
   20.9720   -4.2107  -14.6537 C   0  0  2  0  0  0  0  0  0  0  0  0
   20.2495   -5.4500  -14.4869 N   0  0  0  0  0  0  0  0  0  0  0  0
   22.2386   -4.3046  -13.8687 C   0  0  0  0  0  0  0  0  0  0  0  0
   22.3061   -5.0599  -12.7058 O   0  0  0  0  0  0  0  0  0  0  0  0
   23.2834   -3.7093  -14.2265 O   0  0  0  0  0  0  0  0  0  0  0  0
  2  4  1  0
  2  1  1  1
  3  2  1  0
  4  5  1  6
  6  7  2  0
  6  4  1  0
  8  6  1  0
  9 12  1  0
  9  8  1  0
 10 11  1  0
  9 10  1  1
 12 18  1  0
 13 12  2  0
 15 14  1  6
 15 16  1  0
 17 19  1  0
 17 15  1  0
 17 18  1  1
 19 20  1  0
 21 19  2  0
M  END
$$$$
