KKQ.pdb
     RDKit          3D

 28 27  0  0  1  0  0  0  0  0999 V2000
    4.8900  -21.3198   21.1272 N   0  0  0  0  0  0  0  0  0  0  0  0
    4.5016  -20.1505   21.8897 C   0  0  1  0  0  0  0  0  0  0  0  0
    4.0000  -20.5471   23.2388 C   0  0  0  0  0  0  0  0  0  0  0  0
    3.9152  -22.0368   23.4561 C   0  0  0  0  0  0  0  0  0  0  0  0
    2.6265  -22.3791   24.1407 C   0  0  0  0  0  0  0  0  0  0  0  0
    2.4567  -23.8511   24.3731 C   0  0  0  0  0  0  0  0  0  0  0  0
    1.2927  -24.1609   25.1676 N   0  0  0  0  0  0  0  0  0  0  0  0
    5.6370  -19.2174   22.0908 C   0  0  0  0  0  0  0  0  0  0  0  0
    6.7653  -19.7074   22.2993 O   0  0  0  0  0  0  0  0  0  0  0  0
    5.4890  -17.8119   22.0553 N   0  0  0  0  0  0  0  0  0  0  0  0
    6.6170  -16.9123   22.0904 C   0  0  1  0  0  0  0  0  0  0  0  0
    6.2534  -15.6306   21.4167 C   0  0  0  0  0  0  0  0  0  0  0  0
    7.4393  -14.7350   21.2997 C   0  0  0  0  0  0  0  0  0  0  0  0
    7.1557  -13.5249   20.4693 C   0  0  0  0  0  0  0  0  0  0  0  0
    8.4265  -12.6988   20.2496 C   0  0  0  0  0  0  0  0  0  0  0  0
    8.2149  -11.6109   19.3446 N   0  0  0  0  0  0  0  0  0  0  0  0
    6.9285  -16.6768   23.5527 C   0  0  0  0  0  0  0  0  0  0  0  0
    6.0292  -16.4809   24.4062 O   0  0  0  0  0  0  0  0  0  0  0  0
    8.8680  -20.3313   27.2698 N   0  0  0  0  0  0  0  0  0  0  0  0
    9.1662  -19.2070   28.0788 C   0  0  0  0  0  0  0  0  0  0  0  0
    9.5237  -19.4243   29.2642 O   0  0  0  0  0  0  0  0  0  0  0  0
    9.0555  -17.8303   27.5322 C   0  0  0  0  0  0  0  0  0  0  0  0
    8.6847  -17.9441   26.0686 C   0  0  0  0  0  0  0  0  0  0  0  0
    8.5585  -16.5716   25.4263 C   0  0  2  0  0  0  0  0  0  0  0  0
    8.2680  -16.6690   24.0172 N   0  0  0  0  0  0  0  0  0  0  0  0
    9.8756  -15.9197   25.5922 C   0  0  0  0  0  0  0  0  0  0  0  0
   10.6790  -15.7223   24.6425 O   0  0  0  0  0  0  0  0  0  0  0  0
   10.2542  -15.5011   26.8533 O   0  0  0  0  0  0  0  0  0  0  0  0
  2  1  1  1
  3  2  1  0
  4  3  1  0
  4  5  1  0
  5  6  1  0
  6  7  1  0
  8  9  2  0
  8  2  1  0
 10  8  1  0
 11 10  1  0
 11 12  1  1
 13 12  1  0
 14 13  1  0
 15 14  1  0
 16 15  1  0
 17 11  1  0
 18 17  2  0
 19 20  1  0
 20 21  2  0
 22 20  1  0
 22 23  1  0
 24 23  1  6
 24 25  1  0
 24 26  1  0
 25 17  1  0
 26 28  1  0
 27 26  2  0
M  END
$$$$
