KKQ.pdb
     RDKit          3D

 28 27  0  0  1  0  0  0  0  0999 V2000
    2.7255  -19.0820   21.2808 N   0  0  0  0  0  0  0  0  0  0  0  0
    2.9687  -20.5066   21.1770 C   0  0  1  0  0  0  0  0  0  0  0  0
    4.0419  -20.7838   20.1767 C   0  0  0  0  0  0  0  0  0  0  0  0
    3.6772  -20.4220   18.7591 C   0  0  0  0  0  0  0  0  0  0  0  0
    4.8181  -20.7438   17.8418 C   0  0  0  0  0  0  0  0  0  0  0  0
    4.4976  -20.5012   16.3967 C   0  0  0  0  0  0  0  0  0  0  0  0
    5.6194  -20.7547   15.5253 N   0  0  0  0  0  0  0  0  0  0  0  0
    3.4004  -21.0911   22.4702 C   0  0  0  0  0  0  0  0  0  0  0  0
    4.1850  -20.4274   23.1777 O   0  0  0  0  0  0  0  0  0  0  0  0
    2.9608  -22.3558   22.9240 N   0  0  0  0  0  0  0  0  0  0  0  0
    3.4556  -22.9587   24.1383 C   0  0  1  0  0  0  0  0  0  0  0  0
    2.5402  -24.0618   24.5557 C   0  0  0  0  0  0  0  0  0  0  0  0
    3.0243  -24.7109   25.8073 C   0  0  0  0  0  0  0  0  0  0  0  0
    2.1217  -25.8134   26.2594 C   0  0  0  0  0  0  0  0  0  0  0  0
    2.6364  -26.4490   27.5543 C   0  0  0  0  0  0  0  0  0  0  0  0
    1.8398  -27.5652   27.9629 N   0  0  0  0  0  0  0  0  0  0  0  0
    4.8313  -23.5006   23.8148 C   0  0  0  0  0  0  0  0  0  0  0  0
    5.1226  -23.9565   22.6822 O   0  0  0  0  0  0  0  0  0  0  0  0
    9.3315  -20.5736   22.8942 N   0  0  0  0  0  0  0  0  0  0  0  0
   10.0515  -21.7879   23.0148 C   0  0  0  0  0  0  0  0  0  0  0  0
   11.2531  -21.7884   22.6455 O   0  0  0  0  0  0  0  0  0  0  0  0
    9.3969  -23.0053   23.5588 C   0  0  0  0  0  0  0  0  0  0  0  0
    7.9683  -22.6440   23.9065 C   0  0  0  0  0  0  0  0  0  0  0  0
    7.2115  -23.8504   24.4396 C   0  0  2  0  0  0  0  0  0  0  0  0
    5.8555  -23.5125   24.7951 N   0  0  0  0  0  0  0  0  0  0  0  0
    7.9276  -24.2750   25.6620 C   0  0  0  0  0  0  0  0  0  0  0  0
    8.2473  -25.4694   25.9019 O   0  0  0  0  0  0  0  0  0  0  0  0
    8.2686  -23.3170   26.5973 O   0  0  0  0  0  0  0  0  0  0  0  0
  2  1  1  1
  3  2  1  0
  4  3  1  0
  4  5  1  0
  5  6  1  0
  6  7  1  0
  8  9  2  0
  8  2  1  0
 10  8  1  0
 11 10  1  0
 11 12  1  6
 13 12  1  0
 14 13  1  0
 15 14  1  0
 16 15  1  0
 17 11  1  0
 18 17  2  0
 19 20  1  0
 20 21  2  0
 22 20  1  0
 22 23  1  0
 24 23  1  1
 24 25  1  0
 24 26  1  0
 25 17  1  0
 26 28  1  0
 27 26  2  0
M  END
$$$$
