KKQ.pdb
     RDKit          3D

 28 27  0  0  1  0  0  0  0  0999 V2000
    9.5718  -16.7465   18.7080 N   0  0  0  0  0  0  0  0  0  0  0  0
   10.2074  -17.4053   19.8311 C   0  0  1  0  0  0  0  0  0  0  0  0
   11.6124  -17.7800   19.4927 C   0  0  0  0  0  0  0  0  0  0  0  0
   11.7335  -18.8084   18.3966 C   0  0  0  0  0  0  0  0  0  0  0  0
   12.6888  -19.8859   18.8125 C   0  0  0  0  0  0  0  0  0  0  0  0
   12.9423  -20.8962   17.7332 C   0  0  0  0  0  0  0  0  0  0  0  0
   13.8638  -21.9293   18.1401 N   0  0  0  0  0  0  0  0  0  0  0  0
   10.2529  -16.5348   21.0312 C   0  0  0  0  0  0  0  0  0  0  0  0
   11.3220  -15.9424   21.2824 O   0  0  0  0  0  0  0  0  0  0  0  0
    9.1440  -16.3543   21.8893 N   0  0  0  0  0  0  0  0  0  0  0  0
    9.1609  -15.4251   22.9933 C   0  0  1  0  0  0  0  0  0  0  0  0
    7.7608  -15.0485   23.3493 C   0  0  0  0  0  0  0  0  0  0  0  0
    7.7435  -14.0242   24.4322 C   0  0  0  0  0  0  0  0  0  0  0  0
    6.3591  -13.5576   24.7486 C   0  0  0  0  0  0  0  0  0  0  0  0
    6.3832  -12.4216   25.7756 C   0  0  0  0  0  0  0  0  0  0  0  0
    5.0688  -11.9612   26.1041 N   0  0  0  0  0  0  0  0  0  0  0  0
    9.8292  -16.1444   24.1452 C   0  0  0  0  0  0  0  0  0  0  0  0
   10.0762  -17.3747   24.1140 O   0  0  0  0  0  0  0  0  0  0  0  0
   11.7113  -15.5747   31.3345 N   0  0  0  0  0  0  0  0  0  0  0  0
   11.2008  -15.1606   30.0794 C   0  0  0  0  0  0  0  0  0  0  0  0
   10.6136  -14.0502   30.0303 O   0  0  0  0  0  0  0  0  0  0  0  0
   11.3614  -16.0175   28.8768 C   0  0  0  0  0  0  0  0  0  0  0  0
   10.7576  -15.2790   27.7009 C   0  0  0  0  0  0  0  0  0  0  0  0
   10.7588  -16.1443   26.4504 C   0  0  2  0  0  0  0  0  0  0  0  0
   10.2056  -15.4430   25.3184 N   0  0  0  0  0  0  0  0  0  0  0  0
    9.8937  -17.3045   26.7550 C   0  0  0  0  0  0  0  0  0  0  0  0
    8.6438  -17.3003   26.5999 O   0  0  0  0  0  0  0  0  0  0  0  0
   10.4787  -18.4599   27.2363 O   0  0  0  0  0  0  0  0  0  0  0  0
  2  1  1  6
  3  2  1  0
  4  3  1  0
  4  5  1  0
  5  6  1  0
  6  7  1  0
  8  9  2  0
  8  2  1  0
 10  8  1  0
 11 10  1  0
 11 12  1  1
 13 12  1  0
 14 13  1  0
 15 14  1  0
 16 15  1  0
 17 11  1  0
 18 17  2  0
 19 20  1  0
 20 21  2  0
 22 20  1  0
 22 23  1  0
 24 23  1  1
 24 25  1  0
 24 26  1  0
 25 17  1  0
 26 28  1  0
 27 26  2  0
M  END
$$$$
