KKQ.pdb
     RDKit          3D

 28 27  0  0  1  0  0  0  0  0999 V2000
    5.6680  -20.1520   22.0797 N   0  0  0  0  0  0  0  0  0  0  0  0
    5.7097  -18.9764   22.9257 C   0  0  1  0  0  0  0  0  0  0  0  0
    6.1648  -19.3361   24.3013 C   0  0  0  0  0  0  0  0  0  0  0  0
    6.4826  -20.7984   24.4873 C   0  0  0  0  0  0  0  0  0  0  0  0
    7.9463  -20.9708   24.7600 C   0  0  0  0  0  0  0  0  0  0  0  0
    8.3564  -22.4082   24.8833 C   0  0  0  0  0  0  0  0  0  0  0  0
    9.7686  -22.5670   25.1335 N   0  0  0  0  0  0  0  0  0  0  0  0
    6.6412  -17.9483   22.4006 C   0  0  0  0  0  0  0  0  0  0  0  0
    7.7000  -18.3378   21.8675 O   0  0  0  0  0  0  0  0  0  0  0  0
    6.3765  -16.5619   22.4811 N   0  0  0  0  0  0  0  0  0  0  0  0
    7.2901  -15.5673   21.9727 C   0  0  1  0  0  0  0  0  0  0  0  0
    6.5760  -14.2646   21.8234 C   0  0  0  0  0  0  0  0  0  0  0  0
    7.4545  -13.2460   21.1808 C   0  0  0  0  0  0  0  0  0  0  0  0
    7.7115  -13.5477   19.7395 C   0  0  0  0  0  0  0  0  0  0  0  0
    8.5239  -12.4292   19.0802 C   0  0  0  0  0  0  0  0  0  0  0  0
    8.7818  -12.6908   17.6973 N   0  0  0  0  0  0  0  0  0  0  0  0
    8.4037  -15.4515   22.9912 C   0  0  0  0  0  0  0  0  0  0  0  0
    8.2318  -14.9174   24.1141 O   0  0  0  0  0  0  0  0  0  0  0  0
   11.7367  -18.1226   28.1047 N   0  0  0  0  0  0  0  0  0  0  0  0
   11.1652  -18.1395   26.8084 C   0  0  0  0  0  0  0  0  0  0  0  0
   10.3339  -19.0472   26.5532 O   0  0  0  0  0  0  0  0  0  0  0  0
   11.5443  -17.1164   25.8005 C   0  0  0  0  0  0  0  0  0  0  0  0
   10.4259  -17.0352   24.7832 C   0  0  0  0  0  0  0  0  0  0  0  0
   10.7178  -15.9778   23.7300 C   0  0  2  0  0  0  0  0  0  0  0  0
    9.7004  -15.9501   22.7085 N   0  0  0  0  0  0  0  0  0  0  0  0
   12.0017  -16.3653   23.1064 C   0  0  0  0  0  0  0  0  0  0  0  0
   13.0953  -16.4018   23.7301 O   0  0  0  0  0  0  0  0  0  0  0  0
   12.0122  -16.7074   21.7679 O   0  0  0  0  0  0  0  0  0  0  0  0
  2  1  1  6
  3  2  1  0
  4  3  1  0
  4  5  1  0
  5  6  1  0
  6  7  1  0
  8  9  2  0
  8  2  1  0
 10  8  1  0
 11 10  1  0
 11 12  1  1
 13 12  1  0
 14 13  1  0
 15 14  1  0
 16 15  1  0
 17 11  1  0
 18 17  2  0
 19 20  1  0
 20 21  2  0
 22 20  1  0
 22 23  1  0
 24 23  1  1
 24 25  1  0
 24 26  1  0
 25 17  1  0
 26 28  1  0
 27 26  2  0
M  END
$$$$
