KKQ.pdb
     RDKit          3D

 28 27  0  0  1  0  0  0  0  0999 V2000
    8.1205  -20.2714   17.5141 N   0  0  0  0  0  0  0  0  0  0  0  0
    7.1529  -21.2781   17.9011 C   0  0  1  0  0  0  0  0  0  0  0  0
    7.2800  -22.4878   17.0353 C   0  0  0  0  0  0  0  0  0  0  0  0
    8.6190  -22.6267   16.3559 C   0  0  0  0  0  0  0  0  0  0  0  0
    8.6573  -23.8968   15.5609 C   0  0  0  0  0  0  0  0  0  0  0  0
    9.9580  -24.1023   14.8428 C   0  0  0  0  0  0  0  0  0  0  0  0
    9.9961  -25.3377   14.0982 N   0  0  0  0  0  0  0  0  0  0  0  0
    7.3372  -21.7127   19.3073 C   0  0  0  0  0  0  0  0  0  0  0  0
    7.9629  -22.7723   19.5135 O   0  0  0  0  0  0  0  0  0  0  0  0
    6.8362  -20.9798   20.4075 N   0  0  0  0  0  0  0  0  0  0  0  0
    5.7699  -21.4719   21.2462 C   0  0  1  0  0  0  0  0  0  0  0  0
    4.8388  -22.3064   20.4302 C   0  0  0  0  0  0  0  0  0  0  0  0
    3.5234  -22.4608   21.1142 C   0  0  0  0  0  0  0  0  0  0  0  0
    3.3224  -23.8414   21.6508 C   0  0  0  0  0  0  0  0  0  0  0  0
    1.9319  -23.9915   22.2750 C   0  0  0  0  0  0  0  0  0  0  0  0
    1.7034  -25.3123   22.7759 N   0  0  0  0  0  0  0  0  0  0  0  0
    6.4269  -22.3056   22.3252 C   0  0  0  0  0  0  0  0  0  0  0  0
    6.4636  -23.5592   22.2741 O   0  0  0  0  0  0  0  0  0  0  0  0
   11.8037  -21.6960   24.6977 N   0  0  0  0  0  0  0  0  0  0  0  0
   11.2452  -21.7312   23.3960 C   0  0  0  0  0  0  0  0  0  0  0  0
   12.0219  -21.5373   22.4267 O   0  0  0  0  0  0  0  0  0  0  0  0
    9.7954  -21.9887   23.2008 C   0  0  0  0  0  0  0  0  0  0  0  0
    9.1663  -22.1415   24.5696 C   0  0  0  0  0  0  0  0  0  0  0  0
    7.6889  -22.4839   24.4592 C   0  0  2  0  0  0  0  0  0  0  0  0
    7.0335  -21.6902   23.4492 N   0  0  0  0  0  0  0  0  0  0  0  0
    7.0943  -22.1587   25.7737 C   0  0  0  0  0  0  0  0  0  0  0  0
    6.2592  -21.2326   25.9498 O   0  0  0  0  0  0  0  0  0  0  0  0
    7.4689  -22.9056   26.8740 O   0  0  0  0  0  0  0  0  0  0  0  0
  2  1  1  6
  3  2  1  0
  4  3  1  0
  4  5  1  0
  5  6  1  0
  6  7  1  0
  8  9  2  0
  8  2  1  0
 10  8  1  0
 11 10  1  0
 11 12  1  6
 13 12  1  0
 14 13  1  0
 15 14  1  0
 16 15  1  0
 17 11  1  0
 18 17  2  0
 19 20  1  0
 20 21  2  0
 22 20  1  0
 22 23  1  0
 24 23  1  1
 24 25  1  0
 24 26  1  0
 25 17  1  0
 26 28  1  0
 27 26  2  0
M  END
$$$$
