KKQ.pdb
     RDKit          3D

 28 27  0  0  1  0  0  0  0  0999 V2000
    6.2782  -16.8052   25.4078 N   0  0  0  0  0  0  0  0  0  0  0  0
    6.8842  -15.7971   24.5617 C   0  0  1  0  0  0  0  0  0  0  0  0
    7.2777  -14.6035   25.3676 C   0  0  0  0  0  0  0  0  0  0  0  0
    6.1164  -13.7792   25.8632 C   0  0  0  0  0  0  0  0  0  0  0  0
    6.6229  -12.5466   26.5493 C   0  0  0  0  0  0  0  0  0  0  0  0
    5.5236  -11.6744   27.0791 C   0  0  0  0  0  0  0  0  0  0  0  0
    6.0181  -10.5486   27.8340 N   0  0  0  0  0  0  0  0  0  0  0  0
    8.1037  -16.3017   23.8844 C   0  0  0  0  0  0  0  0  0  0  0  0
    8.6572  -17.3149   24.3576 O   0  0  0  0  0  0  0  0  0  0  0  0
    8.6540  -15.6846   22.7377 N   0  0  0  0  0  0  0  0  0  0  0  0
    9.7961  -16.2241   22.0396 C   0  0  1  0  0  0  0  0  0  0  0  0
   10.0974  -15.3770   20.8477 C   0  0  0  0  0  0  0  0  0  0  0  0
    9.2497  -15.7706   19.6863 C   0  0  0  0  0  0  0  0  0  0  0  0
    9.2683  -17.2457   19.4455 C   0  0  0  0  0  0  0  0  0  0  0  0
    8.4692  -17.6078   18.1901 C   0  0  0  0  0  0  0  0  0  0  0  0
    8.3248  -19.0223   18.0299 N   0  0  0  0  0  0  0  0  0  0  0  0
   10.9483  -16.1938   23.0207 C   0  0  0  0  0  0  0  0  0  0  0  0
   11.5669  -15.1366   23.2951 O   0  0  0  0  0  0  0  0  0  0  0  0
    9.7306  -17.3442   28.3209 N   0  0  0  0  0  0  0  0  0  0  0  0
   11.1274  -17.2488   28.5380 C   0  0  0  0  0  0  0  0  0  0  0  0
   11.5261  -17.1870   29.7286 O   0  0  0  0  0  0  0  0  0  0  0  0
   12.0718  -17.2238   27.3917 C   0  0  0  0  0  0  0  0  0  0  0  0
   11.2521  -17.2471   26.1189 C   0  0  0  0  0  0  0  0  0  0  0  0
   12.1470  -17.3085   24.8910 C   0  0  2  0  0  0  0  0  0  0  0  0
   11.3760  -17.3769   23.6744 N   0  0  0  0  0  0  0  0  0  0  0  0
   12.9345  -18.5536   25.0208 C   0  0  0  0  0  0  0  0  0  0  0  0
   12.7093  -19.5930   24.3460 O   0  0  0  0  0  0  0  0  0  0  0  0
   13.9754  -18.5885   25.9286 O   0  0  0  0  0  0  0  0  0  0  0  0
  2  1  1  1
  3  2  1  0
  4  3  1  0
  4  5  1  0
  5  6  1  0
  6  7  1  0
  8  9  2  0
  8  2  1  0
 10  8  1  0
 11 10  1  0
 11 12  1  6
 13 12  1  0
 14 13  1  0
 15 14  1  0
 16 15  1  0
 17 11  1  0
 18 17  2  0
 19 20  1  0
 20 21  2  0
 22 20  1  0
 22 23  1  0
 24 23  1  1
 24 25  1  0
 24 26  1  0
 25 17  1  0
 26 28  1  0
 27 26  2  0
M  END
$$$$
