KKQ.pdb
     RDKit          3D

 28 27  0  0  1  0  0  0  0  0999 V2000
   10.9399  -17.8701   15.5791 N   0  0  0  0  0  0  0  0  0  0  0  0
   10.1811  -18.3679   16.7087 C   0  0  1  0  0  0  0  0  0  0  0  0
   10.5199  -19.7965   16.9794 C   0  0  0  0  0  0  0  0  0  0  0  0
   11.9227  -20.1866   16.5874 C   0  0  0  0  0  0  0  0  0  0  0  0
   12.1186  -21.6582   16.7937 C   0  0  0  0  0  0  0  0  0  0  0  0
   13.5247  -22.1076   16.5274 C   0  0  0  0  0  0  0  0  0  0  0  0
   13.7325  -23.5027   16.8312 N   0  0  0  0  0  0  0  0  0  0  0  0
   10.4605  -17.5994   17.9463 C   0  0  0  0  0  0  0  0  0  0  0  0
   11.6463  -17.2977   18.1908 O   0  0  0  0  0  0  0  0  0  0  0  0
    9.4458  -17.2016   18.8466 N   0  0  0  0  0  0  0  0  0  0  0  0
    9.7061  -16.3471   19.9801 C   0  0  1  0  0  0  0  0  0  0  0  0
    8.4477  -15.6487   20.3771 C   0  0  0  0  0  0  0  0  0  0  0  0
    8.1077  -14.5703   19.4057 C   0  0  0  0  0  0  0  0  0  0  0  0
    6.8119  -13.9008   19.7332 C   0  0  0  0  0  0  0  0  0  0  0  0
    6.5007  -12.7855   18.7307 C   0  0  0  0  0  0  0  0  0  0  0  0
    5.2489  -12.1478   19.0022 N   0  0  0  0  0  0  0  0  0  0  0  0
   10.1883  -17.2518   21.0936 C   0  0  0  0  0  0  0  0  0  0  0  0
   10.0211  -18.4955   21.0662 O   0  0  0  0  0  0  0  0  0  0  0  0
   16.5652  -17.3286   23.6249 N   0  0  0  0  0  0  0  0  0  0  0  0
   15.5171  -17.9399   22.8933 C   0  0  0  0  0  0  0  0  0  0  0  0
   15.7842  -18.3598   21.7390 O   0  0  0  0  0  0  0  0  0  0  0  0
   14.1598  -18.0718   23.4821 C   0  0  0  0  0  0  0  0  0  0  0  0
   13.2153  -17.2234   22.6570 C   0  0  0  0  0  0  0  0  0  0  0  0
   11.7648  -17.5305   22.9949 C   0  0  2  0  0  0  0  0  0  0  0  0
   10.8562  -16.7179   22.2245 N   0  0  0  0  0  0  0  0  0  0  0  0
   11.5986  -17.1962   24.4260 C   0  0  0  0  0  0  0  0  0  0  0  0
   12.2591  -17.7416   25.3493 O   0  0  0  0  0  0  0  0  0  0  0  0
   10.6712  -16.2350   24.7791 O   0  0  0  0  0  0  0  0  0  0  0  0
  2  1  1  6
  3  2  1  0
  4  3  1  0
  4  5  1  0
  5  6  1  0
  6  7  1  0
  8  9  2  0
  8  2  1  0
 10  8  1  0
 11 10  1  0
 11 12  1  1
 13 12  1  0
 14 13  1  0
 15 14  1  0
 16 15  1  0
 17 11  1  0
 18 17  2  0
 19 20  1  0
 20 21  2  0
 22 20  1  0
 22 23  1  0
 24 23  1  6
 24 25  1  0
 24 26  1  0
 25 17  1  0
 26 28  1  0
 27 26  2  0
M  END
$$$$
