KKQ.pdb
     RDKit          3D

 28 27  0  0  1  0  0  0  0  0999 V2000
    8.1080  -13.0324   18.8012 N   0  0  0  0  0  0  0  0  0  0  0  0
    8.8859  -14.1620   19.2685 C   0  0  1  0  0  0  0  0  0  0  0  0
   10.3072  -13.7634   19.4919 C   0  0  0  0  0  0  0  0  0  0  0  0
   11.3035  -14.5198   18.6498 C   0  0  0  0  0  0  0  0  0  0  0  0
   12.6871  -14.0082   18.9154 C   0  0  0  0  0  0  0  0  0  0  0  0
   13.7353  -14.6896   18.0868 C   0  0  0  0  0  0  0  0  0  0  0  0
   15.0289  -14.0592   18.1933 N   0  0  0  0  0  0  0  0  0  0  0  0
    8.3658  -14.7018   20.5485 C   0  0  0  0  0  0  0  0  0  0  0  0
    7.8004  -13.9096   21.3292 O   0  0  0  0  0  0  0  0  0  0  0  0
    8.4859  -16.0629   20.9111 N   0  0  0  0  0  0  0  0  0  0  0  0
    7.8702  -16.6065   22.0977 C   0  0  1  0  0  0  0  0  0  0  0  0
    7.3827  -17.9895   21.8174 C   0  0  0  0  0  0  0  0  0  0  0  0
    6.8107  -18.6119   23.0452 C   0  0  0  0  0  0  0  0  0  0  0  0
    6.3663  -20.0199   22.8121 C   0  0  0  0  0  0  0  0  0  0  0  0
    5.7159  -20.6062   24.0687 C   0  0  0  0  0  0  0  0  0  0  0  0
    5.2342  -21.9370   23.8581 N   0  0  0  0  0  0  0  0  0  0  0  0
    8.9441  -16.6253   23.1642 C   0  0  0  0  0  0  0  0  0  0  0  0
   10.1041  -17.0489   22.9395 O   0  0  0  0  0  0  0  0  0  0  0  0
    9.0195  -13.2476   28.4495 N   0  0  0  0  0  0  0  0  0  0  0  0
   10.0684  -14.1674   28.6973 C   0  0  0  0  0  0  0  0  0  0  0  0
   10.7071  -14.0421   29.7728 O   0  0  0  0  0  0  0  0  0  0  0  0
   10.3886  -15.2334   27.7138 C   0  0  0  0  0  0  0  0  0  0  0  0
    9.4046  -15.1149   26.5692 C   0  0  0  0  0  0  0  0  0  0  0  0
    9.7122  -16.1245   25.4745 C   0  0  2  0  0  0  0  0  0  0  0  0
    8.6733  -16.1577   24.4750 N   0  0  0  0  0  0  0  0  0  0  0  0
    9.7690  -17.4443   26.1395 C   0  0  0  0  0  0  0  0  0  0  0  0
    8.7475  -18.1190   26.4354 O   0  0  0  0  0  0  0  0  0  0  0  0
   11.0047  -17.9741   26.4574 O   0  0  0  0  0  0  0  0  0  0  0  0
  2  1  1  1
  3  2  1  0
  4  3  1  0
  4  5  1  0
  5  6  1  0
  6  7  1  0
  8  9  2  0
  8  2  1  0
 10  8  1  0
 11 10  1  0
 11 12  1  6
 13 12  1  0
 14 13  1  0
 15 14  1  0
 16 15  1  0
 17 11  1  0
 18 17  2  0
 19 20  1  0
 20 21  2  0
 22 20  1  0
 22 23  1  0
 24 23  1  1
 24 25  1  0
 24 26  1  0
 25 17  1  0
 26 28  1  0
 27 26  2  0
M  END
$$$$
