KKQ.pdb
     RDKit          3D

 28 27  0  0  1  0  0  0  0  0999 V2000
   10.8648  -18.5477   17.1457 N   0  0  0  0  0  0  0  0  0  0  0  0
    9.8140  -18.5473   18.1434 C   0  0  1  0  0  0  0  0  0  0  0  0
    9.6214  -19.9181   18.7027 C   0  0  0  0  0  0  0  0  0  0  0  0
   10.8366  -20.8053   18.6029 C   0  0  0  0  0  0  0  0  0  0  0  0
   10.4964  -22.1890   19.0680 C   0  0  0  0  0  0  0  0  0  0  0  0
   10.7927  -22.4106   20.5215 C   0  0  0  0  0  0  0  0  0  0  0  0
   10.5531  -23.7707   20.9397 N   0  0  0  0  0  0  0  0  0  0  0  0
   10.1251  -17.6413   19.2759 C   0  0  0  0  0  0  0  0  0  0  0  0
   11.3140  -17.5547   19.6445 O   0  0  0  0  0  0  0  0  0  0  0  0
    9.1368  -16.8826   19.9440 N   0  0  0  0  0  0  0  0  0  0  0  0
    9.4584  -15.9316   20.9806 C   0  0  1  0  0  0  0  0  0  0  0  0
    8.3578  -14.9294   21.0965 C   0  0  0  0  0  0  0  0  0  0  0  0
    8.2896  -14.0700   19.8804 C   0  0  0  0  0  0  0  0  0  0  0  0
    7.1357  -13.1207   19.9216 C   0  0  0  0  0  0  0  0  0  0  0  0
    6.9815  -12.3847   18.5873 C   0  0  0  0  0  0  0  0  0  0  0  0
    5.8328  -11.5317   18.5695 N   0  0  0  0  0  0  0  0  0  0  0  0
    9.5928  -16.7268   22.2614 C   0  0  0  0  0  0  0  0  0  0  0  0
    8.6875  -17.4929   22.6725 O   0  0  0  0  0  0  0  0  0  0  0  0
   14.9058  -18.6276   24.7921 N   0  0  0  0  0  0  0  0  0  0  0  0
   14.3538  -18.8557   23.5073 C   0  0  0  0  0  0  0  0  0  0  0  0
   15.0936  -19.3952   22.6460 O   0  0  0  0  0  0  0  0  0  0  0  0
   12.9524  -18.4664   23.2054 C   0  0  0  0  0  0  0  0  0  0  0  0
   12.3665  -17.8472   24.4567 C   0  0  0  0  0  0  0  0  0  0  0  0
   10.9178  -17.4389   24.2401 C   0  0  2  0  0  0  0  0  0  0  0  0
   10.7644  -16.6330   23.0542 N   0  0  0  0  0  0  0  0  0  0  0  0
   10.5425  -16.6240   25.4158 C   0  0  0  0  0  0  0  0  0  0  0  0
   10.5464  -17.0625   26.5965 O   0  0  0  0  0  0  0  0  0  0  0  0
   10.1657  -15.3094   25.2186 O   0  0  0  0  0  0  0  0  0  0  0  0
  2  1  1  6
  3  2  1  0
  4  3  1  0
  4  5  1  0
  5  6  1  0
  6  7  1  0
  8  9  2  0
  8  2  1  0
 10  8  1  0
 11 10  1  0
 11 12  1  1
 13 12  1  0
 14 13  1  0
 15 14  1  0
 16 15  1  0
 17 11  1  0
 18 17  2  0
 19 20  1  0
 20 21  2  0
 22 20  1  0
 22 23  1  0
 24 23  1  1
 24 25  1  0
 24 26  1  0
 25 17  1  0
 26 28  1  0
 27 26  2  0
M  END
$$$$
