LIN.pdb
     RDKit          3D

 25 24  0  0  1  0  0  0  0  0999 V2000
    8.2391  -14.8835   18.6020 C   0  0  0  0  0  0  0  0  0  0  0  0
    7.5561  -13.7367   19.2887 C   0  0  2  0  0  0  0  0  0  0  0  0
    7.6373  -12.4615   18.4914 C   0  0  0  0  0  0  0  0  0  0  0  0
    8.1947  -13.4785   20.6524 C   0  0  0  0  0  0  0  0  0  0  0  0
    8.0708  -14.7670   21.4482 C   0  0  2  0  0  0  0  0  0  0  0  0
    6.6743  -15.1302   21.6046 N   0  0  0  0  0  0  0  0  0  0  0  0
    8.6590  -14.6232   22.8003 C   0  0  0  0  0  0  0  0  0  0  0  0
    9.9007  -14.4009   22.9566 O   0  0  0  0  0  0  0  0  0  0  0  0
    5.8744  -11.8895   26.2868 C   0  0  0  0  0  0  0  0  0  0  0  0
    7.0741  -12.4442   25.4974 C   0  0  0  0  0  0  0  0  0  0  0  0
    7.5179  -13.7335   26.1067 C   0  0  2  0  0  0  0  0  0  0  0  0
    7.8916  -13.5774   27.5746 C   0  0  0  0  0  0  0  0  0  0  0  0
    8.4948  -14.5372   25.3277 C   0  0  2  0  0  0  0  0  0  0  0  0
    7.9006  -14.7201   23.9939 N   0  0  0  0  0  0  0  0  0  0  0  0
    8.9217  -15.8102   25.8480 C   0  0  0  0  0  0  0  0  0  0  0  0
    8.0413  -16.7172   25.9625 O   0  0  0  0  0  0  0  0  0  0  0  0
   11.4949  -18.3862   23.8841 N   0  0  0  0  0  0  0  0  0  0  0  0
   12.2947  -17.8316   24.8935 C   0  0  0  0  0  0  0  0  0  0  0  0
   13.3341  -17.2127   24.5722 O   0  0  0  0  0  0  0  0  0  0  0  0
   11.9435  -17.9594   26.3052 C   0  0  0  0  0  0  0  0  0  0  0  0
   10.5858  -17.5057   26.7036 C   0  0  2  0  0  0  0  0  0  0  0  0
   10.2183  -16.1833   26.2531 N   0  0  0  0  0  0  0  0  0  0  0  0
   10.4148  -17.6473   28.1649 C   0  0  0  0  0  0  0  0  0  0  0  0
   10.4684  -18.8471   28.8535 O   0  0  0  0  0  0  0  0  0  0  0  0
   10.2054  -16.5823   28.8222 O   0  0  0  0  0  0  0  0  0  0  0  0
  2  1  1  6
  2  3  1  0
  4  2  1  0
  4  5  1  0
  5  7  1  0
  5  6  1  1
  7  8  2  0
  9 10  1  0
 10 11  1  0
 11 12  1  1
 13 11  1  0
 13 14  1  6
 14  7  1  0
 15 16  2  0
 15 13  1  0
 18 17  1  0
 18 20  1  0
 19 18  2  0
 21 20  1  1
 21 22  1  0
 22 15  1  0
 23 21  1  0
 23 24  1  0
 25 23  2  0
M  END
$$$$
