LIN.pdb
     RDKit          3D

 25 24  0  0  1  0  0  0  0  0999 V2000
    5.6821  -18.6615   20.6919 C   0  0  0  0  0  0  0  0  0  0  0  0
    4.9190  -17.3865   20.9049 C   0  0  2  0  0  0  0  0  0  0  0  0
    4.4498  -16.7772   19.6099 C   0  0  0  0  0  0  0  0  0  0  0  0
    5.7944  -16.3571   21.6175 C   0  0  0  0  0  0  0  0  0  0  0  0
    6.3592  -17.0383   22.8528 C   0  0  2  0  0  0  0  0  0  0  0  0
    5.2966  -17.3306   23.7972 N   0  0  0  0  0  0  0  0  0  0  0  0
    7.3525  -16.1769   23.5357 C   0  0  0  0  0  0  0  0  0  0  0  0
    8.4472  -15.8618   22.9719 O   0  0  0  0  0  0  0  0  0  0  0  0
    5.8503  -12.1260   26.6089 C   0  0  0  0  0  0  0  0  0  0  0  0
    6.7157  -12.9288   25.6206 C   0  0  0  0  0  0  0  0  0  0  0  0
    7.5614  -13.9013   26.3755 C   0  0  2  0  0  0  0  0  0  0  0  0
    8.4869  -13.2098   27.3674 C   0  0  0  0  0  0  0  0  0  0  0  0
    8.2310  -14.9609   25.5782 C   0  0  2  0  0  0  0  0  0  0  0  0
    7.1625  -15.6510   24.8383 N   0  0  0  0  0  0  0  0  0  0  0  0
    9.0543  -15.9279   26.2571 C   0  0  0  0  0  0  0  0  0  0  0  0
    8.4623  -16.8678   26.8711 O   0  0  0  0  0  0  0  0  0  0  0  0
   12.0553  -18.5679   24.0455 N   0  0  0  0  0  0  0  0  0  0  0  0
   12.4422  -17.4139   24.7415 C   0  0  0  0  0  0  0  0  0  0  0  0
   12.7544  -16.3903   24.0923 O   0  0  0  0  0  0  0  0  0  0  0  0
   12.4888  -17.3796   26.2007 C   0  0  0  0  0  0  0  0  0  0  0  0
   11.2244  -17.0442   26.9056 C   0  0  2  0  0  0  0  0  0  0  0  0
   10.4609  -15.9634   26.3263 N   0  0  0  0  0  0  0  0  0  0  0  0
   11.4931  -16.8098   28.3400 C   0  0  0  0  0  0  0  0  0  0  0  0
   12.0582  -17.7366   29.1993 O   0  0  0  0  0  0  0  0  0  0  0  0
   11.1781  -15.6708   28.8023 O   0  0  0  0  0  0  0  0  0  0  0  0
  2  1  1  6
  2  3  1  0
  4  2  1  0
  4  5  1  0
  5  7  1  0
  5  6  1  1
  7  8  2  0
  9 10  1  0
 10 11  1  0
 11 12  1  6
 13 11  1  0
 13 14  1  1
 14  7  1  0
 15 16  2  0
 15 13  1  0
 18 17  1  0
 18 20  1  0
 19 18  2  0
 21 20  1  6
 21 22  1  0
 22 15  1  0
 23 21  1  0
 23 24  1  0
 25 23  2  0
M  END
$$$$
