LIN.pdb
     RDKit          3D

 25 24  0  0  1  0  0  0  0  0999 V2000
    5.8860  -16.5816   19.2509 C   0  0  0  0  0  0  0  0  0  0  0  0
    7.0878  -17.4137   19.5925 C   0  0  2  0  0  0  0  0  0  0  0  0
    6.7896  -18.8896   19.5621 C   0  0  0  0  0  0  0  0  0  0  0  0
    7.5933  -17.0661   20.9916 C   0  0  0  0  0  0  0  0  0  0  0  0
    7.8028  -15.5614   21.0234 C   0  0  2  0  0  0  0  0  0  0  0  0
    8.7032  -15.1555   19.9599 N   0  0  0  0  0  0  0  0  0  0  0  0
    8.3928  -15.1273   22.3113 C   0  0  0  0  0  0  0  0  0  0  0  0
    9.6424  -15.2172   22.5252 O   0  0  0  0  0  0  0  0  0  0  0  0
    6.6950  -11.6117   27.0498 C   0  0  0  0  0  0  0  0  0  0  0  0
    7.7572  -12.6163   26.5675 C   0  0  0  0  0  0  0  0  0  0  0  0
    7.2971  -13.2568   25.2990 C   0  0  2  0  0  0  0  0  0  0  0  0
    5.8551  -13.7380   25.3879 C   0  0  0  0  0  0  0  0  0  0  0  0
    8.2162  -14.2468   24.6810 C   0  0  2  0  0  0  0  0  0  0  0  0
    7.6273  -14.5915   23.3773 N   0  0  0  0  0  0  0  0  0  0  0  0
    8.5318  -15.4510   25.4050 C   0  0  0  0  0  0  0  0  0  0  0  0
    7.6743  -16.3863   25.3811 O   0  0  0  0  0  0  0  0  0  0  0  0
   11.9587  -19.7222   24.7365 N   0  0  0  0  0  0  0  0  0  0  0  0
   11.9854  -18.7307   25.7277 C   0  0  0  0  0  0  0  0  0  0  0  0
   12.5331  -18.9841   26.8242 O   0  0  0  0  0  0  0  0  0  0  0  0
   11.3910  -17.4146   25.5100 C   0  0  0  0  0  0  0  0  0  0  0  0
   10.2327  -17.0505   26.3665 C   0  0  2  0  0  0  0  0  0  0  0  0
    9.6950  -15.7273   26.1501 N   0  0  0  0  0  0  0  0  0  0  0  0
   10.5668  -17.2737   27.7889 C   0  0  0  0  0  0  0  0  0  0  0  0
   10.4945  -16.3076   28.7779 O   0  0  0  0  0  0  0  0  0  0  0  0
   10.9449  -18.4413   28.1113 O   0  0  0  0  0  0  0  0  0  0  0  0
  2  1  1  1
  2  3  1  0
  4  2  1  0
  4  5  1  0
  5  7  1  0
  5  6  1  6
  7  8  2  0
  9 10  1  0
 10 11  1  0
 11 12  1  1
 13 11  1  0
 13 14  1  6
 14  7  1  0
 15 16  2  0
 15 13  1  0
 18 17  1  0
 18 20  1  0
 19 18  2  0
 21 20  1  6
 21 22  1  0
 22 15  1  0
 23 21  1  0
 23 24  1  0
 25 23  2  0
M  END
$$$$
