LIN.pdb
     RDKit          3D

 25 24  0  0  1  0  0  0  0  0999 V2000
    8.4928  -14.6272   18.5208 C   0  0  0  0  0  0  0  0  0  0  0  0
    7.5653  -13.6336   19.1578 C   0  0  2  0  0  0  0  0  0  0  0  0
    7.5592  -12.3118   18.4360 C   0  0  0  0  0  0  0  0  0  0  0  0
    7.9782  -13.3751   20.6058 C   0  0  0  0  0  0  0  0  0  0  0  0
    8.0164  -14.7257   21.3011 C   0  0  2  0  0  0  0  0  0  0  0  0
    6.6793  -15.2824   21.3944 N   0  0  0  0  0  0  0  0  0  0  0  0
    8.5588  -14.6088   22.6748 C   0  0  0  0  0  0  0  0  0  0  0  0
    9.7965  -14.4025   22.8774 O   0  0  0  0  0  0  0  0  0  0  0  0
    5.8373  -11.7807   26.1770 C   0  0  0  0  0  0  0  0  0  0  0  0
    6.9180  -12.4548   25.3123 C   0  0  0  0  0  0  0  0  0  0  0  0
    7.3365  -13.7390   25.9499 C   0  0  2  0  0  0  0  0  0  0  0  0
    7.6967  -13.5612   27.4187 C   0  0  0  0  0  0  0  0  0  0  0  0
    8.3099  -14.5707   25.1965 C   0  0  2  0  0  0  0  0  0  0  0  0
    7.7584  -14.7153   23.8399 N   0  0  0  0  0  0  0  0  0  0  0  0
    8.6686  -15.8652   25.7155 C   0  0  0  0  0  0  0  0  0  0  0  0
    7.7215  -16.6553   26.0146 O   0  0  0  0  0  0  0  0  0  0  0  0
   10.9499  -20.5100   26.6746 N   0  0  0  0  0  0  0  0  0  0  0  0
   11.6097  -19.7900   25.6683 C   0  0  0  0  0  0  0  0  0  0  0  0
   12.5210  -20.3512   25.0195 O   0  0  0  0  0  0  0  0  0  0  0  0
   11.2585  -18.4060   25.3617 C   0  0  0  0  0  0  0  0  0  0  0  0
   10.2567  -17.7554   26.2454 C   0  0  2  0  0  0  0  0  0  0  0  0
    9.9630  -16.3752   25.9367 N   0  0  0  0  0  0  0  0  0  0  0  0
   10.6481  -17.9226   27.6609 C   0  0  0  0  0  0  0  0  0  0  0  0
   10.7827  -16.8875   28.5704 O   0  0  0  0  0  0  0  0  0  0  0  0
   10.8729  -19.1072   28.0562 O   0  0  0  0  0  0  0  0  0  0  0  0
  2  1  1  6
  2  3  1  0
  4  2  1  0
  4  5  1  0
  5  7  1  0
  5  6  1  1
  7  8  2  0
  9 10  1  0
 10 11  1  0
 11 12  1  1
 13 11  1  0
 13 14  1  6
 14  7  1  0
 15 16  2  0
 15 13  1  0
 18 17  1  0
 18 20  1  0
 19 18  2  0
 21 20  1  6
 21 22  1  0
 22 15  1  0
 23 21  1  0
 23 24  1  0
 25 23  2  0
M  END
$$$$
