LIN.pdb
     RDKit          3D

 25 24  0  0  1  0  0  0  0  0999 V2000
    6.0839  -17.5323   20.0109 C   0  0  0  0  0  0  0  0  0  0  0  0
    7.4056  -18.1601   20.3459 C   0  0  2  0  0  0  0  0  0  0  0  0
    7.3043  -19.6535   20.5120 C   0  0  0  0  0  0  0  0  0  0  0  0
    7.9537  -17.5795   21.6484 C   0  0  0  0  0  0  0  0  0  0  0  0
    7.9613  -16.0684   21.4886 C   0  0  2  0  0  0  0  0  0  0  0  0
    8.7579  -15.6876   20.3367 N   0  0  0  0  0  0  0  0  0  0  0  0
    8.5370  -15.4040   22.6812 C   0  0  0  0  0  0  0  0  0  0  0  0
    9.7948  -15.3231   22.8454 O   0  0  0  0  0  0  0  0  0  0  0  0
    6.6642  -11.4096   26.9344 C   0  0  0  0  0  0  0  0  0  0  0  0
    7.7687  -12.4291   26.6014 C   0  0  0  0  0  0  0  0  0  0  0  0
    7.3588  -13.2374   25.4142 C   0  0  2  0  0  0  0  0  0  0  0  0
    5.9409  -13.7763   25.5472 C   0  0  0  0  0  0  0  0  0  0  0  0
    8.3340  -14.2463   24.9263 C   0  0  2  0  0  0  0  0  0  0  0  0
    7.7484  -14.8220   23.7052 N   0  0  0  0  0  0  0  0  0  0  0  0
    8.7447  -15.3038   25.8132 C   0  0  0  0  0  0  0  0  0  0  0  0
    7.9171  -16.2432   26.0216 O   0  0  0  0  0  0  0  0  0  0  0  0
   12.6428  -17.4149   24.6742 N   0  0  0  0  0  0  0  0  0  0  0  0
   11.6250  -17.7878   25.5636 C   0  0  0  0  0  0  0  0  0  0  0  0
   10.7417  -18.5846   25.1746 O   0  0  0  0  0  0  0  0  0  0  0  0
   11.5728  -17.2695   26.9279 C   0  0  0  0  0  0  0  0  0  0  0  0
   10.3348  -16.5513   27.3270 C   0  0  2  0  0  0  0  0  0  0  0  0
    9.9732  -15.4301   26.4910 N   0  0  0  0  0  0  0  0  0  0  0  0
   10.4135  -16.1624   28.7508 C   0  0  0  0  0  0  0  0  0  0  0  0
   10.2216  -14.8779   29.2303 O   0  0  0  0  0  0  0  0  0  0  0  0
   10.6760  -17.0846   29.5820 O   0  0  0  0  0  0  0  0  0  0  0  0
  2  1  1  1
  2  3  1  0
  4  2  1  0
  4  5  1  0
  5  7  1  0
  5  6  1  6
  7  8  2  0
  9 10  1  0
 10 11  1  0
 11 12  1  1
 13 11  1  0
 13 14  1  6
 14  7  1  0
 15 16  2  0
 15 13  1  0
 18 17  1  0
 18 20  1  0
 19 18  2  0
 21 20  1  6
 21 22  1  0
 22 15  1  0
 23 21  1  0
 23 24  1  0
 25 23  2  0
M  END
$$$$
