LIN.pdb
     RDKit          3D

 25 24  0  0  1  0  0  0  0  0999 V2000
    7.7557  -13.3855   18.3464 C   0  0  0  0  0  0  0  0  0  0  0  0
    7.5585  -14.0580   19.6739 C   0  0  2  0  0  0  0  0  0  0  0  0
    6.9245  -13.1445   20.6897 C   0  0  0  0  0  0  0  0  0  0  0  0
    8.8998  -14.5254   20.2362 C   0  0  0  0  0  0  0  0  0  0  0  0
    8.5928  -15.5588   21.3071 C   0  0  2  0  0  0  0  0  0  0  0  0
    7.1825  -15.9009   21.2876 N   0  0  0  0  0  0  0  0  0  0  0  0
    8.9194  -15.0467   22.6585 C   0  0  0  0  0  0  0  0  0  0  0  0
   10.0859  -14.6260   22.9377 O   0  0  0  0  0  0  0  0  0  0  0  0
    6.4487  -11.5622   26.7268 C   0  0  0  0  0  0  0  0  0  0  0  0
    7.5590  -12.6203   26.5928 C   0  0  0  0  0  0  0  0  0  0  0  0
    7.2933  -13.4718   25.3949 C   0  0  2  0  0  0  0  0  0  0  0  0
    5.8726  -14.0197   25.3823 C   0  0  0  0  0  0  0  0  0  0  0  0
    8.3240  -14.4870   25.0573 C   0  0  2  0  0  0  0  0  0  0  0  0
    7.9790  -14.9884   23.7175 N   0  0  0  0  0  0  0  0  0  0  0  0
    8.5291  -15.5959   25.9529 C   0  0  0  0  0  0  0  0  0  0  0  0
    7.5458  -15.9536   26.6712 O   0  0  0  0  0  0  0  0  0  0  0  0
    6.4261  -19.2604   26.1623 N   0  0  0  0  0  0  0  0  0  0  0  0
    7.6893  -19.1302   26.7568 C   0  0  0  0  0  0  0  0  0  0  0  0
    7.8222  -19.4184   27.9675 O   0  0  0  0  0  0  0  0  0  0  0  0
    8.8484  -18.6680   25.9981 C   0  0  0  0  0  0  0  0  0  0  0  0
    9.7441  -17.6904   26.6689 C   0  0  2  0  0  0  0  0  0  0  0  0
    9.7058  -16.3487   26.1352 N   0  0  0  0  0  0  0  0  0  0  0  0
   11.1244  -18.2174   26.7117 C   0  0  0  0  0  0  0  0  0  0  0  0
   11.5782  -19.1706   27.6073 O   0  0  0  0  0  0  0  0  0  0  0  0
   11.9407  -17.7529   25.8585 O   0  0  0  0  0  0  0  0  0  0  0  0
  2  1  1  6
  2  3  1  0
  4  2  1  0
  4  5  1  0
  5  7  1  0
  5  6  1  1
  7  8  2  0
  9 10  1  0
 10 11  1  0
 11 12  1  1
 13 11  1  0
 13 14  1  6
 14  7  1  0
 15 16  2  0
 15 13  1  0
 18 17  1  0
 18 20  1  0
 19 18  2  0
 21 20  1  6
 21 22  1  0
 22 15  1  0
 23 21  1  0
 23 24  1  0
 25 23  2  0
M  END
$$$$
