WMV.pdb
     RDKit          3D

 30 31  0  0  1  0  0  0  0  0999 V2000
    5.6536  -17.4701   23.8041 N   0  0  0  0  0  0  0  0  0  0  0  0
    6.6865  -16.5044   23.9564 C   0  0  1  0  0  0  0  0  0  0  0  0
    6.9240  -15.9930   25.3337 C   0  0  0  0  0  0  0  0  0  0  0  0
    6.0929  -14.8146   25.5929 C   0  0  0  0  0  0  0  0  0  0  0  0
    4.7153  -14.8943   25.8392 C   0  0  0  0  0  0  0  0  0  0  0  0
    4.3121  -13.6440   26.0470 N   0  0  0  0  0  0  0  0  0  0  0  0
    5.3260  -12.7807   25.9510 C   0  0  0  0  0  0  0  0  0  0  0  0
    5.3969  -11.4053   26.0796 C   0  0  0  0  0  0  0  0  0  0  0  0
    6.6138  -10.7866   25.9147 C   0  0  0  0  0  0  0  0  0  0  0  0
    7.7482  -11.5175   25.6259 C   0  0  0  0  0  0  0  0  0  0  0  0
    7.6793  -12.8685   25.4995 C   0  0  0  0  0  0  0  0  0  0  0  0
    6.4752  -13.5053   25.6608 C   0  0  0  0  0  0  0  0  0  0  0  0
    7.9991  -16.9912   23.3919 C   0  0  0  0  0  0  0  0  0  0  0  0
    7.9340  -17.6943   22.3508 O   0  0  0  0  0  0  0  0  0  0  0  0
    8.1076  -12.8406   20.7583 C   0  0  0  0  0  0  0  0  0  0  0  0
    8.8200  -14.2892   19.9643 S   0  0  0  0  0  0  0  0  0  0  0  0
    8.9079  -15.6971   21.1540 C   0  0  0  0  0  0  0  0  0  0  0  0
    9.8654  -15.2872   22.2048 C   0  0  0  0  0  0  0  0  0  0  0  0
   10.3744  -16.3803   23.1153 C   0  0  2  0  0  0  0  0  0  0  0  0
    9.2240  -16.6813   23.9881 N   0  0  0  0  0  0  0  0  0  0  0  0
   11.5119  -15.9173   23.9018 C   0  0  0  0  0  0  0  0  0  0  0  0
   12.6994  -16.1636   23.4778 O   0  0  0  0  0  0  0  0  0  0  0  0
   11.3865  -15.9507   28.7754 C   0  0  0  0  0  0  0  0  0  0  0  0
   10.8193  -15.6232   27.4349 C   0  0  1  0  0  0  0  0  0  0  0  0
   10.3110  -14.1923   27.4365 C   0  0  0  0  0  0  0  0  0  0  0  0
   11.9095  -15.7797   26.3808 C   0  0  2  0  0  0  0  0  0  0  0  0
   11.4824  -15.1961   25.1216 N   0  0  0  0  0  0  0  0  0  0  0  0
   12.1181  -17.2224   26.1788 C   0  0  0  0  0  0  0  0  0  0  0  0
   13.2369  -17.7398   26.3918 O   0  0  0  0  0  0  0  0  0  0  0  0
   11.1209  -18.0947   25.7496 O   0  0  0  0  0  0  0  0  0  0  0  0
  2  1  1  1
  3  4  1  0
  3  2  1  0
  4  5  2  0
  6  5  1  0
  7  6  1  0
  8  7  2  0
  9  8  1  0
 10 11  1  0
 10  9  2  0
 11 12  2  0
 12  7  1  0
 12  4  1  0
 13  2  1  0
 13 14  2  0
 16 15  1  0
 16 17  1  0
 17 18  1  0
 19 18  1  6
 19 20  1  0
 20 13  1  0
 21 19  1  0
 22 21  2  0
 24 23  1  1
 24 25  1  0
 24 26  1  0
 26 27  1  6
 26 28  1  0
 27 21  1  0
 28 30  1  0
 29 28  2  0
M  END
$$$$
