WMV.pdb
     RDKit          3D

 30 31  0  0  1  0  0  0  0  0999 V2000
    5.9757  -18.4098   24.6301 N   0  0  0  0  0  0  0  0  0  0  0  0
    6.5694  -17.1178   24.6609 C   0  0  1  0  0  0  0  0  0  0  0  0
    6.7074  -16.4787   25.9979 C   0  0  0  0  0  0  0  0  0  0  0  0
    5.9635  -15.2173   26.0418 C   0  0  0  0  0  0  0  0  0  0  0  0
    4.5631  -15.1601   26.0616 C   0  0  0  0  0  0  0  0  0  0  0  0
    4.2547  -13.8676   26.1210 N   0  0  0  0  0  0  0  0  0  0  0  0
    5.3496  -13.1039   26.1399 C   0  0  0  0  0  0  0  0  0  0  0  0
    5.5317  -11.7337   26.1919 C   0  0  0  0  0  0  0  0  0  0  0  0
    6.8133  -11.2354   26.1919 C   0  0  0  0  0  0  0  0  0  0  0  0
    7.9032  -12.0805   26.1409 C   0  0  0  0  0  0  0  0  0  0  0  0
    7.7251  -13.4264   26.0898 C   0  0  0  0  0  0  0  0  0  0  0  0
    6.4548  -13.9440   26.0896 C   0  0  0  0  0  0  0  0  0  0  0  0
    7.9163  -17.1015   23.9795 C   0  0  0  0  0  0  0  0  0  0  0  0
    8.6063  -18.1485   24.0789 O   0  0  0  0  0  0  0  0  0  0  0  0
    7.8394  -12.2398   19.2560 C   0  0  0  0  0  0  0  0  0  0  0  0
    9.2262  -12.8237   20.2420 S   0  0  0  0  0  0  0  0  0  0  0  0
    8.8198  -14.4426   21.0290 C   0  0  0  0  0  0  0  0  0  0  0  0
    9.8922  -14.7002   22.0151 C   0  0  0  0  0  0  0  0  0  0  0  0
    9.7792  -15.9776   22.8142 C   0  0  2  0  0  0  0  0  0  0  0  0
    8.3779  -15.9871   23.2745 N   0  0  0  0  0  0  0  0  0  0  0  0
   10.6952  -15.9663   23.9491 C   0  0  0  0  0  0  0  0  0  0  0  0
   11.9601  -15.9812   23.7242 O   0  0  0  0  0  0  0  0  0  0  0  0
   11.8411  -15.1423   28.6744 C   0  0  0  0  0  0  0  0  0  0  0  0
   10.7820  -15.2210   27.6266 C   0  0  1  0  0  0  0  0  0  0  0  0
   10.2747  -13.8242   27.3142 C   0  0  0  0  0  0  0  0  0  0  0  0
   11.3721  -15.8465   26.3677 C   0  0  2  0  0  0  0  0  0  0  0  0
   10.3635  -15.9342   25.3266 N   0  0  0  0  0  0  0  0  0  0  0  0
   11.8009  -17.2101   26.7172 C   0  0  0  0  0  0  0  0  0  0  0  0
   11.0339  -18.1829   26.5433 O   0  0  0  0  0  0  0  0  0  0  0  0
   13.0510  -17.5142   27.2505 O   0  0  0  0  0  0  0  0  0  0  0  0
  2  1  1  1
  3  4  1  0
  3  2  1  0
  4  5  2  0
  6  5  1  0
  7  6  1  0
  8  7  2  0
  9  8  1  0
 10 11  1  0
 10  9  2  0
 11 12  2  0
 12  7  1  0
 12  4  1  0
 13  2  1  0
 13 14  2  0
 16 15  1  0
 16 17  1  0
 17 18  1  0
 19 18  1  6
 19 20  1  0
 20 13  1  0
 21 19  1  0
 22 21  2  0
 24 23  1  1
 24 25  1  0
 24 26  1  0
 26 27  1  6
 26 28  1  0
 27 21  1  0
 28 30  1  0
 29 28  2  0
M  END
$$$$
