WMV.pdb
     RDKit          3D

 30 31  0  0  1  0  0  0  0  0999 V2000
    6.7466  -18.0077   25.5200 N   0  0  0  0  0  0  0  0  0  0  0  0
    7.2439  -16.7938   24.9707 C   0  0  1  0  0  0  0  0  0  0  0  0
    8.5220  -16.2805   25.5346 C   0  0  0  0  0  0  0  0  0  0  0  0
    8.2592  -15.2660   26.5584 C   0  0  0  0  0  0  0  0  0  0  0  0
    8.6527  -15.4146   27.8955 C   0  0  0  0  0  0  0  0  0  0  0  0
    8.2666  -14.3011   28.5120 N   0  0  0  0  0  0  0  0  0  0  0  0
    7.6600  -13.4611   27.6702 C   0  0  0  0  0  0  0  0  0  0  0  0
    7.0958  -12.2101   27.8438 C   0  0  0  0  0  0  0  0  0  0  0  0
    6.5275  -11.5836   26.7597 C   0  0  0  0  0  0  0  0  0  0  0  0
    6.5160  -12.1854   25.5179 C   0  0  0  0  0  0  0  0  0  0  0  0
    7.0700  -13.4140   25.3465 C   0  0  0  0  0  0  0  0  0  0  0  0
    7.6427  -14.0559   26.4149 C   0  0  0  0  0  0  0  0  0  0  0  0
    7.3776  -16.8693   23.4690 C   0  0  0  0  0  0  0  0  0  0  0  0
    7.4722  -18.0214   22.9730 O   0  0  0  0  0  0  0  0  0  0  0  0
    8.4432  -11.5470   19.5294 C   0  0  0  0  0  0  0  0  0  0  0  0
    7.2072  -12.6222   18.7858 S   0  0  0  0  0  0  0  0  0  0  0  0
    7.5682  -14.3879   19.1822 C   0  0  0  0  0  0  0  0  0  0  0  0
    7.4334  -14.5147   20.6501 C   0  0  0  0  0  0  0  0  0  0  0  0
    7.7323  -15.8739   21.2386 C   0  0  2  0  0  0  0  0  0  0  0  0
    7.3957  -15.7255   22.6670 N   0  0  0  0  0  0  0  0  0  0  0  0
    9.1402  -16.2164   21.0729 C   0  0  0  0  0  0  0  0  0  0  0  0
    9.7120  -15.9606   19.9512 O   0  0  0  0  0  0  0  0  0  0  0  0
   13.5807  -15.8480   21.5467 C   0  0  0  0  0  0  0  0  0  0  0  0
   12.1026  -15.6480   21.5811 C   0  0  1  0  0  0  0  0  0  0  0  0
   11.6441  -15.0368   20.2689 C   0  0  0  0  0  0  0  0  0  0  0  0
   11.4220  -16.9969   21.7849 C   0  0  2  0  0  0  0  0  0  0  0  0
   10.0016  -16.8148   22.0262 N   0  0  0  0  0  0  0  0  0  0  0  0
   12.0223  -17.6133   22.9787 C   0  0  0  0  0  0  0  0  0  0  0  0
   13.2326  -17.9290   22.9919 O   0  0  0  0  0  0  0  0  0  0  0  0
   11.3145  -17.8842   24.1472 O   0  0  0  0  0  0  0  0  0  0  0  0
  2  1  1  1
  3  4  1  0
  3  2  1  0
  4  5  2  0
  6  5  1  0
  7  6  1  0
  8  7  2  0
  9  8  1  0
 10 11  1  0
 10  9  2  0
 11 12  2  0
 12  7  1  0
 12  4  1  0
 13  2  1  0
 13 14  2  0
 16 15  1  0
 16 17  1  0
 17 18  1  0
 19 18  1  6
 19 20  1  0
 20 13  1  0
 21 19  1  0
 22 21  2  0
 24 23  1  6
 24 25  1  0
 24 26  1  0
 26 27  1  1
 26 28  1  0
 27 21  1  0
 28 30  1  0
 29 28  2  0
M  END
$$$$
