WMV.pdb
     RDKit          3D

 30 31  0  0  1  0  0  0  0  0999 V2000
    5.7830  -18.4981   24.5434 N   0  0  0  0  0  0  0  0  0  0  0  0
    6.4128  -17.2229   24.5431 C   0  0  1  0  0  0  0  0  0  0  0  0
    6.7992  -16.6693   25.8694 C   0  0  0  0  0  0  0  0  0  0  0  0
    6.1273  -15.3889   26.1054 C   0  0  0  0  0  0  0  0  0  0  0  0
    4.7461  -15.2825   26.3193 C   0  0  0  0  0  0  0  0  0  0  0  0
    4.5089  -13.9883   26.5138 N   0  0  0  0  0  0  0  0  0  0  0  0
    5.6309  -13.2688   26.4393 C   0  0  0  0  0  0  0  0  0  0  0  0
    5.8819  -11.9144   26.5655 C   0  0  0  0  0  0  0  0  0  0  0  0
    7.1741  -11.4647   26.4277 C   0  0  0  0  0  0  0  0  0  0  0  0
    8.2070  -12.3422   26.1679 C   0  0  0  0  0  0  0  0  0  0  0  0
    7.9612  -13.6726   26.0439 C   0  0  0  0  0  0  0  0  0  0  0  0
    6.6794  -14.1420   26.1785 C   0  0  0  0  0  0  0  0  0  0  0  0
    7.6216  -17.1930   23.6395 C   0  0  0  0  0  0  0  0  0  0  0  0
    8.3101  -18.2446   23.5911 O   0  0  0  0  0  0  0  0  0  0  0  0
   10.0628  -12.6834   19.3459 C   0  0  0  0  0  0  0  0  0  0  0  0
    8.3252  -12.9682   19.7149 S   0  0  0  0  0  0  0  0  0  0  0  0
    8.1075  -14.5838   20.5797 C   0  0  0  0  0  0  0  0  0  0  0  0
    9.2821  -14.7361   21.4664 C   0  0  0  0  0  0  0  0  0  0  0  0
    9.3212  -15.9794   22.3242 C   0  0  2  0  0  0  0  0  0  0  0  0
    7.9632  -16.0618   22.8940 N   0  0  0  0  0  0  0  0  0  0  0  0
   10.3178  -15.8531   23.3814 C   0  0  0  0  0  0  0  0  0  0  0  0
   11.5621  -15.8430   23.0616 O   0  0  0  0  0  0  0  0  0  0  0  0
   11.7488  -15.2023   28.0886 C   0  0  0  0  0  0  0  0  0  0  0  0
   10.6143  -15.3450   27.1303 C   0  0  1  0  0  0  0  0  0  0  0  0
    9.7820  -14.0750   27.1388 C   0  0  0  0  0  0  0  0  0  0  0  0
   11.1711  -15.5847   25.7314 C   0  0  2  0  0  0  0  0  0  0  0  0
   10.0883  -15.7292   24.7745 N   0  0  0  0  0  0  0  0  0  0  0  0
   11.9280  -16.8459   25.7726 C   0  0  0  0  0  0  0  0  0  0  0  0
   13.1651  -16.8403   25.9580 O   0  0  0  0  0  0  0  0  0  0  0  0
   11.3467  -18.1016   25.6139 O   0  0  0  0  0  0  0  0  0  0  0  0
  2  1  1  1
  3  4  1  0
  3  2  1  0
  4  5  2  0
  6  5  1  0
  7  6  1  0
  8  7  2  0
  9  8  1  0
 10 11  1  0
 10  9  2  0
 11 12  2  0
 12  7  1  0
 12  4  1  0
 13  2  1  0
 13 14  2  0
 16 15  1  0
 16 17  1  0
 17 18  1  0
 19 18  1  6
 19 20  1  0
 20 13  1  0
 21 19  1  0
 22 21  2  0
 24 23  1  1
 24 25  1  0
 24 26  1  0
 26 27  1  6
 26 28  1  0
 27 21  1  0
 28 30  1  0
 29 28  2  0
M  END
$$$$
