WMV.pdb
     RDKit          3D

 30 31  0  0  1  0  0  0  0  0999 V2000
    7.5394  -17.4710   21.1160 N   0  0  0  0  0  0  0  0  0  0  0  0
    8.9612  -17.4538   21.1439 C   0  0  1  0  0  0  0  0  0  0  0  0
    9.6472  -16.9822   19.9102 C   0  0  0  0  0  0  0  0  0  0  0  0
    9.2670  -15.5996   19.6095 C   0  0  0  0  0  0  0  0  0  0  0  0
    9.7937  -14.8843   18.5252 C   0  0  0  0  0  0  0  0  0  0  0  0
    9.2082  -13.6906   18.5607 N   0  0  0  0  0  0  0  0  0  0  0  0
    8.3536  -13.5952   19.5819 C   0  0  0  0  0  0  0  0  0  0  0  0
    7.5336  -12.5714   20.0210 C   0  0  0  0  0  0  0  0  0  0  0  0
    6.7540  -12.7786   21.1346 C   0  0  0  0  0  0  0  0  0  0  0  0
    6.7838  -13.9830   21.8075 C   0  0  0  0  0  0  0  0  0  0  0  0
    7.5889  -14.9891   21.3769 C   0  0  0  0  0  0  0  0  0  0  0  0
    8.3740  -14.8032   20.2676 C   0  0  0  0  0  0  0  0  0  0  0  0
    9.4911  -16.6674   22.3185 C   0  0  0  0  0  0  0  0  0  0  0  0
   10.7279  -16.4380   22.3259 O   0  0  0  0  0  0  0  0  0  0  0  0
    7.2443  -11.4439   25.8319 C   0  0  0  0  0  0  0  0  0  0  0  0
    7.1333  -12.9651   26.7859 S   0  0  0  0  0  0  0  0  0  0  0  0
    8.5618  -14.0693   26.4048 C   0  0  0  0  0  0  0  0  0  0  0  0
    8.2316  -14.7420   25.1291 C   0  0  0  0  0  0  0  0  0  0  0  0
    9.2812  -15.6724   24.5673 C   0  0  2  0  0  0  0  0  0  0  0  0
    8.6586  -16.2155   23.3454 N   0  0  0  0  0  0  0  0  0  0  0  0
    9.5884  -16.7425   25.5095 C   0  0  0  0  0  0  0  0  0  0  0  0
    8.6837  -17.6166   25.7704 O   0  0  0  0  0  0  0  0  0  0  0  0
   12.6967  -19.6936   27.9239 C   0  0  0  0  0  0  0  0  0  0  0  0
   12.4856  -18.5539   26.9845 C   0  0  1  0  0  0  0  0  0  0  0  0
   12.8338  -18.9909   25.5726 C   0  0  0  0  0  0  0  0  0  0  0  0
   11.0242  -18.1239   27.0434 C   0  0  2  0  0  0  0  0  0  0  0  0
   10.8055  -16.9605   26.2022 N   0  0  0  0  0  0  0  0  0  0  0  0
   10.7339  -17.7523   28.4373 C   0  0  0  0  0  0  0  0  0  0  0  0
   10.8814  -16.5724   28.8256 O   0  0  0  0  0  0  0  0  0  0  0  0
   10.2875  -18.6539   29.4004 O   0  0  0  0  0  0  0  0  0  0  0  0
  2  1  1  6
  3  4  1  0
  3  2  1  0
  4  5  2  0
  6  5  1  0
  7  6  1  0
  8  7  2  0
  9  8  1  0
 10 11  1  0
 10  9  2  0
 11 12  2  0
 12  7  1  0
 12  4  1  0
 13  2  1  0
 13 14  2  0
 16 15  1  0
 16 17  1  0
 17 18  1  0
 19 18  1  1
 19 20  1  0
 20 13  1  0
 21 19  1  0
 22 21  2  0
 24 23  1  1
 24 25  1  0
 24 26  1  0
 26 27  1  6
 26 28  1  0
 27 21  1  0
 28 30  1  0
 29 28  2  0
M  END
$$$$
