WMV.pdb
     RDKit          3D

 30 31  0  0  1  0  0  0  0  0999 V2000
    5.9191  -19.4498   24.6262 N   0  0  0  0  0  0  0  0  0  0  0  0
    6.2174  -18.0648   24.7503 C   0  0  1  0  0  0  0  0  0  0  0  0
    6.3348  -17.5290   26.1339 C   0  0  0  0  0  0  0  0  0  0  0  0
    6.1045  -16.0821   26.1440 C   0  0  0  0  0  0  0  0  0  0  0  0
    4.8622  -15.5073   25.8421 C   0  0  0  0  0  0  0  0  0  0  0  0
    5.0299  -14.1943   25.9726 N   0  0  0  0  0  0  0  0  0  0  0  0
    6.2800  -13.8943   26.3327 C   0  0  0  0  0  0  0  0  0  0  0  0
    6.9178  -12.6919   26.5794 C   0  0  0  0  0  0  0  0  0  0  0  0
    8.2460  -12.7075   26.9350 C   0  0  0  0  0  0  0  0  0  0  0  0
    8.9370  -13.8970   27.0457 C   0  0  0  0  0  0  0  0  0  0  0  0
    8.3113  -15.0783   26.8035 C   0  0  0  0  0  0  0  0  0  0  0  0
    6.9865  -15.0849   26.4482 C   0  0  0  0  0  0  0  0  0  0  0  0
    7.4600  -17.6860   23.9815 C   0  0  0  0  0  0  0  0  0  0  0  0
    8.4356  -18.4749   24.0713 O   0  0  0  0  0  0  0  0  0  0  0  0
    9.0059  -11.6721   20.3957 C   0  0  0  0  0  0  0  0  0  0  0  0
    8.7451  -13.2840   19.6407 S   0  0  0  0  0  0  0  0  0  0  0  0
    9.5025  -14.6100   20.6767 C   0  0  0  0  0  0  0  0  0  0  0  0
    8.4329  -15.0847   21.5820 C   0  0  0  0  0  0  0  0  0  0  0  0
    8.7954  -16.2138   22.5184 C   0  0  2  0  0  0  0  0  0  0  0  0
    7.5298  -16.5236   23.2096 N   0  0  0  0  0  0  0  0  0  0  0  0
    9.8153  -15.7938   23.4725 C   0  0  0  0  0  0  0  0  0  0  0  0
   10.9889  -15.5042   23.0371 O   0  0  0  0  0  0  0  0  0  0  0  0
   11.2930  -14.0470   27.8480 C   0  0  0  0  0  0  0  0  0  0  0  0
   10.1712  -14.4960   26.9730 C   0  0  1  0  0  0  0  0  0  0  0  0
    9.3134  -13.3007   26.5970 C   0  0  0  0  0  0  0  0  0  0  0  0
   10.7464  -15.1320   25.7125 C   0  0  2  0  0  0  0  0  0  0  0  0
    9.6788  -15.6508   24.8759 N   0  0  0  0  0  0  0  0  0  0  0  0
   11.5934  -16.2575   26.1385 C   0  0  0  0  0  0  0  0  0  0  0  0
   11.2422  -17.4377   25.9180 O   0  0  0  0  0  0  0  0  0  0  0  0
   12.8104  -16.1025   26.7977 O   0  0  0  0  0  0  0  0  0  0  0  0
  2  1  1  1
  3  4  1  0
  3  2  1  0
  4  5  2  0
  6  5  1  0
  7  6  1  0
  8  7  2  0
  9  8  1  0
 10 11  1  0
 10  9  2  0
 11 12  2  0
 12  7  1  0
 12  4  1  0
 13  2  1  0
 13 14  2  0
 16 15  1  0
 16 17  1  0
 17 18  1  0
 19 18  1  6
 19 20  1  0
 20 13  1  0
 21 19  1  0
 22 21  2  0
 24 23  1  1
 24 25  1  0
 24 26  1  0
 26 27  1  6
 26 28  1  0
 27 21  1  0
 28 30  1  0
 29 28  2  0
M  END
$$$$
