WMV.pdb
     RDKit          3D

 30 31  0  0  1  0  0  0  0  0999 V2000
    5.6572  -18.6244   24.6921 N   0  0  0  0  0  0  0  0  0  0  0  0
    6.2995  -17.3594   24.5933 C   0  0  1  0  0  0  0  0  0  0  0  0
    7.0805  -16.9132   25.7791 C   0  0  0  0  0  0  0  0  0  0  0  0
    6.7442  -15.5293   26.1227 C   0  0  0  0  0  0  0  0  0  0  0  0
    5.4952  -15.1551   26.6374 C   0  0  0  0  0  0  0  0  0  0  0  0
    5.5671  -13.8430   26.8429 N   0  0  0  0  0  0  0  0  0  0  0  0
    6.7625  -13.3587   26.4984 C   0  0  0  0  0  0  0  0  0  0  0  0
    7.2968  -12.0831   26.5262 C   0  0  0  0  0  0  0  0  0  0  0  0
    8.5872  -11.8959   26.0897 C   0  0  0  0  0  0  0  0  0  0  0  0
    9.3418  -12.9561   25.6305 C   0  0  0  0  0  0  0  0  0  0  0  0
    8.8178  -14.2093   25.6028 C   0  0  0  0  0  0  0  0  0  0  0  0
    7.5327  -14.4178   26.0345 C   0  0  0  0  0  0  0  0  0  0  0  0
    7.1853  -17.2721   23.3742 C   0  0  0  0  0  0  0  0  0  0  0  0
    7.8801  -18.2879   23.1136 O   0  0  0  0  0  0  0  0  0  0  0  0
    8.1465  -11.6441   19.8377 C   0  0  0  0  0  0  0  0  0  0  0  0
    7.8517  -13.0328   18.7326 S   0  0  0  0  0  0  0  0  0  0  0  0
    8.5640  -14.5809   19.4406 C   0  0  0  0  0  0  0  0  0  0  0  0
    7.8091  -14.8484   20.6846 C   0  0  0  0  0  0  0  0  0  0  0  0
    8.1747  -16.1071   21.4363 C   0  0  2  0  0  0  0  0  0  0  0  0
    7.2358  -16.1282   22.5737 N   0  0  0  0  0  0  0  0  0  0  0  0
    9.5541  -16.0523   21.9067 C   0  0  0  0  0  0  0  0  0  0  0  0
    9.8771  -15.1633   22.7763 O   0  0  0  0  0  0  0  0  0  0  0  0
   13.8829  -18.0015   22.9968 C   0  0  0  0  0  0  0  0  0  0  0  0
   12.4586  -18.1265   22.5707 C   0  0  1  0  0  0  0  0  0  0  0  0
   11.6200  -18.6042   23.7431 C   0  0  0  0  0  0  0  0  0  0  0  0
   11.9575  -16.7652   22.1018 C   0  0  2  0  0  0  0  0  0  0  0  0
   10.6323  -16.8874   21.5207 N   0  0  0  0  0  0  0  0  0  0  0  0
   12.8824  -16.2950   21.0583 C   0  0  0  0  0  0  0  0  0  0  0  0
   12.7617  -16.6873   19.8767 O   0  0  0  0  0  0  0  0  0  0  0  0
   13.9285  -15.4068   21.2960 O   0  0  0  0  0  0  0  0  0  0  0  0
  2  1  1  1
  3  4  1  0
  3  2  1  0
  4  5  2  0
  6  5  1  0
  7  6  1  0
  8  7  2  0
  9  8  1  0
 10 11  1  0
 10  9  2  0
 11 12  2  0
 12  7  1  0
 12  4  1  0
 13  2  1  0
 13 14  2  0
 16 15  1  0
 16 17  1  0
 17 18  1  0
 19 18  1  6
 19 20  1  0
 20 13  1  0
 21 19  1  0
 22 21  2  0
 24 23  1  1
 24 25  1  0
 24 26  1  0
 26 27  1  6
 26 28  1  0
 27 21  1  0
 28 30  1  0
 29 28  2  0
M  END
$$$$
