WMV.pdb
     RDKit          3D

 30 31  0  0  1  0  0  0  0  0999 V2000
    6.6075  -18.0061   25.1475 N   0  0  0  0  0  0  0  0  0  0  0  0
    6.6587  -17.5923   23.7878 C   0  0  1  0  0  0  0  0  0  0  0  0
    5.9255  -16.3441   23.4422 C   0  0  0  0  0  0  0  0  0  0  0  0
    5.8801  -15.4409   24.5950 C   0  0  0  0  0  0  0  0  0  0  0  0
    5.3924  -15.8323   25.8495 C   0  0  0  0  0  0  0  0  0  0  0  0
    5.5259  -14.7689   26.6372 N   0  0  0  0  0  0  0  0  0  0  0  0
    6.0590  -13.7368   25.9794 C   0  0  0  0  0  0  0  0  0  0  0  0
    6.3774  -12.4472   26.3655 C   0  0  0  0  0  0  0  0  0  0  0  0
    6.9223  -11.5930   25.4358 C   0  0  0  0  0  0  0  0  0  0  0  0
    7.1501  -12.0072   24.1392 C   0  0  0  0  0  0  0  0  0  0  0  0
    6.8377  -13.2736   23.7593 C   0  0  0  0  0  0  0  0  0  0  0  0
    6.2939  -14.1418   24.6715 C   0  0  0  0  0  0  0  0  0  0  0  0
    8.0787  -17.4684   23.2908 C   0  0  0  0  0  0  0  0  0  0  0  0
    8.3810  -18.1581   22.2833 O   0  0  0  0  0  0  0  0  0  0  0  0
    9.0117  -13.1828   19.4560 C   0  0  0  0  0  0  0  0  0  0  0  0
    9.5606  -13.3722   21.1588 S   0  0  0  0  0  0  0  0  0  0  0  0
    8.9040  -14.9406   21.8759 C   0  0  0  0  0  0  0  0  0  0  0  0
   10.0508  -15.8730   21.9424 C   0  0  0  0  0  0  0  0  0  0  0  0
   10.3427  -16.4857   23.2924 C   0  0  2  0  0  0  0  0  0  0  0  0
    9.0121  -16.6343   23.9114 N   0  0  0  0  0  0  0  0  0  0  0  0
   11.1889  -15.6075   24.0923 C   0  0  0  0  0  0  0  0  0  0  0  0
   12.4087  -15.4262   23.7321 O   0  0  0  0  0  0  0  0  0  0  0  0
   10.9858  -14.9671   28.9850 C   0  0  0  0  0  0  0  0  0  0  0  0
   10.3187  -14.9669   27.6506 C   0  0  1  0  0  0  0  0  0  0  0  0
    9.6583  -13.6199   27.4153 C   0  0  0  0  0  0  0  0  0  0  0  0
   11.3643  -15.2217   26.5708 C   0  0  2  0  0  0  0  0  0  0  0  0
   10.8295  -14.8917   25.2617 N   0  0  0  0  0  0  0  0  0  0  0  0
   11.6781  -16.6592   26.5972 C   0  0  0  0  0  0  0  0  0  0  0  0
   12.8650  -17.0509   26.6494 O   0  0  0  0  0  0  0  0  0  0  0  0
   10.7119  -17.6618   26.5671 O   0  0  0  0  0  0  0  0  0  0  0  0
  2  1  1  1
  3  4  1  0
  3  2  1  0
  4  5  2  0
  6  5  1  0
  7  6  1  0
  8  7  2  0
  9  8  1  0
 10 11  1  0
 10  9  2  0
 11 12  2  0
 12  7  1  0
 12  4  1  0
 13  2  1  0
 13 14  2  0
 16 15  1  0
 16 17  1  0
 17 18  1  0
 19 18  1  6
 19 20  1  0
 20 13  1  0
 21 19  1  0
 22 21  2  0
 24 23  1  1
 24 25  1  0
 24 26  1  0
 26 27  1  6
 26 28  1  0
 27 21  1  0
 28 30  1  0
 29 28  2  0
M  END
$$$$
