WMV.pdb
     RDKit          3D

 30 31  0  0  1  0  0  0  0  0999 V2000
    5.6403  -18.4223   23.9351 N   0  0  0  0  0  0  0  0  0  0  0  0
    6.2640  -17.1891   24.2708 C   0  0  1  0  0  0  0  0  0  0  0  0
    6.3650  -16.8652   25.7200 C   0  0  0  0  0  0  0  0  0  0  0  0
    5.9580  -15.4792   25.9646 C   0  0  0  0  0  0  0  0  0  0  0  0
    4.6289  -15.1087   26.2112 C   0  0  0  0  0  0  0  0  0  0  0  0
    4.6500  -13.7928   26.4037 N   0  0  0  0  0  0  0  0  0  0  0  0
    5.8873  -13.3028   26.2978 C   0  0  0  0  0  0  0  0  0  0  0  0
    6.3972  -12.0218   26.4098 C   0  0  0  0  0  0  0  0  0  0  0  0
    7.7479  -11.8293   26.2381 C   0  0  0  0  0  0  0  0  0  0  0  0
    8.5858  -12.8896   25.9586 C   0  0  0  0  0  0  0  0  0  0  0  0
    8.0857  -14.1480   25.8484 C   0  0  0  0  0  0  0  0  0  0  0  0
    6.7413  -14.3618   26.0169 C   0  0  0  0  0  0  0  0  0  0  0  0
    7.6367  -17.0671   23.6547 C   0  0  0  0  0  0  0  0  0  0  0  0
    8.3963  -18.0619   23.7795 O   0  0  0  0  0  0  0  0  0  0  0  0
   10.4167  -12.5998   19.6225 C   0  0  0  0  0  0  0  0  0  0  0  0
    8.6623  -12.6995   20.0080 S   0  0  0  0  0  0  0  0  0  0  0  0
    8.2942  -14.2526   20.9341 C   0  0  0  0  0  0  0  0  0  0  0  0
    9.5032  -14.5500   21.7334 C   0  0  0  0  0  0  0  0  0  0  0  0
    9.4618  -15.8040   22.5753 C   0  0  2  0  0  0  0  0  0  0  0  0
    8.0478  -15.9146   22.9804 N   0  0  0  0  0  0  0  0  0  0  0  0
   10.3251  -15.6770   23.7439 C   0  0  0  0  0  0  0  0  0  0  0  0
   11.5739  -15.4318   23.5675 O   0  0  0  0  0  0  0  0  0  0  0  0
   11.1600  -14.4310   28.3796 C   0  0  0  0  0  0  0  0  0  0  0  0
   10.2394  -14.5837   27.2155 C   0  0  1  0  0  0  0  0  0  0  0  0
    9.9872  -13.2239   26.5884 C   0  0  0  0  0  0  0  0  0  0  0  0
   10.8824  -15.5107   26.1901 C   0  0  2  0  0  0  0  0  0  0  0  0
    9.9549  -15.7874   25.1075 N   0  0  0  0  0  0  0  0  0  0  0  0
   11.1884  -16.7760   26.8764 C   0  0  0  0  0  0  0  0  0  0  0  0
   11.9862  -16.8010   27.8395 O   0  0  0  0  0  0  0  0  0  0  0  0
   10.6331  -18.0024   26.5199 O   0  0  0  0  0  0  0  0  0  0  0  0
  2  1  1  1
  3  4  1  0
  3  2  1  0
  4  5  2  0
  6  5  1  0
  7  6  1  0
  8  7  2  0
  9  8  1  0
 10 11  1  0
 10  9  2  0
 11 12  2  0
 12  7  1  0
 12  4  1  0
 13  2  1  0
 13 14  2  0
 16 15  1  0
 16 17  1  0
 17 18  1  0
 19 18  1  6
 19 20  1  0
 20 13  1  0
 21 19  1  0
 22 21  2  0
 24 23  1  1
 24 25  1  0
 24 26  1  0
 26 27  1  6
 26 28  1  0
 27 21  1  0
 28 30  1  0
 29 28  2  0
M  END
$$$$
