WVC.pdb
     RDKit          3D

 28 29  0  0  1  0  0  0  0  0999 V2000
    6.2167  -17.6912   24.4053 N   0  0  0  0  0  0  0  0  0  0  0  0
    6.7675  -16.3955   24.0630 C   0  0  1  0  0  0  0  0  0  0  0  0
    7.6711  -15.9344   25.1804 C   0  0  0  0  0  0  0  0  0  0  0  0
    6.9768  -14.9057   26.0321 C   0  0  0  0  0  0  0  0  0  0  0  0
    5.9422  -15.1490   26.8971 C   0  0  0  0  0  0  0  0  0  0  0  0
    5.6108  -13.9752   27.4610 N   0  0  0  0  0  0  0  0  0  0  0  0
    6.3795  -12.9903   27.0026 C   0  0  0  0  0  0  0  0  0  0  0  0
    6.4043  -11.6352   27.2913 C   0  0  0  0  0  0  0  0  0  0  0  0
    7.3199  -10.8408   26.6590 C   0  0  0  0  0  0  0  0  0  0  0  0
    8.2037  -11.3783   25.7493 C   0  0  0  0  0  0  0  0  0  0  0  0
    8.1630  -12.7431   25.4723 C   0  0  0  0  0  0  0  0  0  0  0  0
    7.2445  -13.5604   26.1021 C   0  0  0  0  0  0  0  0  0  0  0  0
    7.4203  -16.3861   22.7484 C   0  0  0  0  0  0  0  0  0  0  0  0
    8.0050  -17.4594   22.3950 O   0  0  0  0  0  0  0  0  0  0  0  0
    6.7450  -13.5810   19.7596 C   0  0  0  0  0  0  0  0  0  0  0  0
    8.1937  -13.8594   20.0228 C   0  0  2  0  0  0  0  0  0  0  0  0
    8.9235  -13.8853   18.6969 C   0  0  0  0  0  0  0  0  0  0  0  0
    8.3780  -15.2000   20.7399 C   0  0  2  0  0  0  0  0  0  0  0  0
    7.4636  -15.3154   21.8460 N   0  0  0  0  0  0  0  0  0  0  0  0
    9.7852  -15.3608   21.1082 C   0  0  0  0  0  0  0  0  0  0  0  0
   10.2773  -14.6777   22.0215 O   0  0  0  0  0  0  0  0  0  0  0  0
   10.5987  -16.2939   20.4302 N   0  0  0  0  0  0  0  0  0  0  0  0
   11.9475  -16.6469   20.8041 C   0  0  1  0  0  0  0  0  0  0  0  0
   12.0450  -17.8111   21.7283 C   0  0  0  0  0  0  0  0  0  0  0  0
   11.2676  -17.4859   23.3320 S   0  0  0  0  0  0  0  0  0  0  0  0
   12.7971  -16.8379   19.5854 C   0  0  0  0  0  0  0  0  0  0  0  0
   12.2464  -16.8193   18.4670 O   0  0  0  0  0  0  0  0  0  0  0  0
   14.1628  -17.0318   19.6756 O   0  0  0  0  0  0  0  0  0  0  0  0
  2  1  1  1
  2  3  1  0
  2 13  1  0
  3  4  1  0
  4  5  2  0
  5  6  1  0
  7  6  1  0
  8  7  2  0
  9  8  1  0
 10 11  1  0
 10  9  2  0
 11 12  2  0
 12  4  1  0
 12  7  1  0
 13 19  1  0
 13 14  2  0
 16 15  1  6
 16 17  1  0
 18 16  1  0
 18 19  1  1
 20 18  1  0
 20 21  2  0
 22 20  1  0
 23 22  1  0
 23 24  1  6
 24 25  1  0
 26 23  1  0
 27 26  2  0
 28 26  1  0
M  END
$$$$
