WVC.pdb
     RDKit          3D

 28 29  0  0  1  0  0  0  0  0999 V2000
    6.2801  -17.5483   25.3302 N   0  0  0  0  0  0  0  0  0  0  0  0
    6.9473  -16.3643   24.8280 C   0  0  1  0  0  0  0  0  0  0  0  0
    8.2153  -16.1427   25.6161 C   0  0  0  0  0  0  0  0  0  0  0  0
    8.0081  -15.0830   26.6648 C   0  0  0  0  0  0  0  0  0  0  0  0
    8.3543  -15.1865   27.9867 C   0  0  0  0  0  0  0  0  0  0  0  0
    8.0052  -14.0329   28.5808 N   0  0  0  0  0  0  0  0  0  0  0  0
    7.4524  -13.1937   27.7083 C   0  0  0  0  0  0  0  0  0  0  0  0
    6.9485  -11.9119   27.8608 C   0  0  0  0  0  0  0  0  0  0  0  0
    6.4295  -11.2710   26.7703 C   0  0  0  0  0  0  0  0  0  0  0  0
    6.4077  -11.8892   25.5395 C   0  0  0  0  0  0  0  0  0  0  0  0
    6.9190  -13.1783   25.4063 C   0  0  0  0  0  0  0  0  0  0  0  0
    7.4472  -13.8405   26.4977 C   0  0  0  0  0  0  0  0  0  0  0  0
    7.1669  -16.4092   23.3774 C   0  0  0  0  0  0  0  0  0  0  0  0
    7.3640  -17.5576   22.8664 O   0  0  0  0  0  0  0  0  0  0  0  0
    8.0920  -13.9815   19.0991 C   0  0  0  0  0  0  0  0  0  0  0  0
    7.5459  -13.9683   20.4946 C   0  0  2  0  0  0  0  0  0  0  0  0
    8.2263  -12.8557   21.2629 C   0  0  0  0  0  0  0  0  0  0  0  0
    7.7916  -15.3065   21.1975 C   0  0  2  0  0  0  0  0  0  0  0  0
    7.1811  -15.3160   22.5014 N   0  0  0  0  0  0  0  0  0  0  0  0
    9.2273  -15.5899   21.2075 C   0  0  0  0  0  0  0  0  0  0  0  0
   10.0105  -14.8436   21.8179 O   0  0  0  0  0  0  0  0  0  0  0  0
    9.7381  -16.7142   20.5241 N   0  0  0  0  0  0  0  0  0  0  0  0
   11.1247  -17.1146   20.5025 C   0  0  1  0  0  0  0  0  0  0  0  0
   11.3840  -18.4656   21.0742 C   0  0  0  0  0  0  0  0  0  0  0  0
   10.8049  -18.6137   22.7843 S   0  0  0  0  0  0  0  0  0  0  0  0
   11.6874  -16.9836   19.1205 C   0  0  0  0  0  0  0  0  0  0  0  0
   10.9161  -16.6764   18.1904 O   0  0  0  0  0  0  0  0  0  0  0  0
   13.0285  -17.1940   18.8598 O   0  0  0  0  0  0  0  0  0  0  0  0
  2  1  1  1
  2  3  1  0
  2 13  1  0
  3  4  1  0
  4  5  2  0
  5  6  1  0
  7  6  1  0
  8  7  2  0
  9  8  1  0
 10 11  1  0
 10  9  2  0
 11 12  2  0
 12  4  1  0
 12  7  1  0
 13 19  1  0
 13 14  2  0
 16 15  1  6
 16 17  1  0
 18 16  1  0
 18 19  1  1
 20 18  1  0
 20 21  2  0
 22 20  1  0
 23 22  1  0
 23 24  1  6
 24 25  1  0
 26 23  1  0
 27 26  2  0
 28 26  1  0
M  END
$$$$
