WVC.pdb
     RDKit          3D

 28 29  0  0  1  0  0  0  0  0999 V2000
    6.5147  -18.4622   24.2140 N   0  0  0  0  0  0  0  0  0  0  0  0
    6.7563  -17.0446   24.0366 C   0  0  1  0  0  0  0  0  0  0  0  0
    7.5558  -16.5314   25.2094 C   0  0  0  0  0  0  0  0  0  0  0  0
    6.8735  -15.3453   25.8364 C   0  0  0  0  0  0  0  0  0  0  0  0
    5.6108  -15.3373   26.3689 C   0  0  0  0  0  0  0  0  0  0  0  0
    5.3792  -14.0946   26.8246 N   0  0  0  0  0  0  0  0  0  0  0  0
    6.4283  -13.3039   26.6122 C   0  0  0  0  0  0  0  0  0  0  0  0
    6.6447  -11.9673   26.9072 C   0  0  0  0  0  0  0  0  0  0  0  0
    7.8419  -11.4005   26.5684 C   0  0  0  0  0  0  0  0  0  0  0  0
    8.8176  -12.1457   25.9437 C   0  0  0  0  0  0  0  0  0  0  0  0
    8.5811  -13.4881   25.6555 C   0  0  0  0  0  0  0  0  0  0  0  0
    7.3772  -14.0769   25.9908 C   0  0  0  0  0  0  0  0  0  0  0  0
    7.3653  -16.7312   22.7384 C   0  0  0  0  0  0  0  0  0  0  0  0
    8.0370  -17.6594   22.1853 O   0  0  0  0  0  0  0  0  0  0  0  0
    8.1853  -13.5317   18.9764 C   0  0  0  0  0  0  0  0  0  0  0  0
    7.5532  -13.8252   20.3030 C   0  0  2  0  0  0  0  0  0  0  0  0
    8.0158  -12.7789   21.2942 C   0  0  0  0  0  0  0  0  0  0  0  0
    7.9416  -15.2190   20.8046 C   0  0  2  0  0  0  0  0  0  0  0  0
    7.2807  -15.5144   22.0492 N   0  0  0  0  0  0  0  0  0  0  0  0
    9.4003  -15.3217   20.8632 C   0  0  0  0  0  0  0  0  0  0  0  0
   10.1126  -14.4726   20.3024 O   0  0  0  0  0  0  0  0  0  0  0  0
   10.0139  -16.3863   21.5576 N   0  0  0  0  0  0  0  0  0  0  0  0
   11.3688  -16.3826   22.0554 C   0  0  1  0  0  0  0  0  0  0  0  0
   11.6540  -15.3159   23.0553 C   0  0  0  0  0  0  0  0  0  0  0  0
   11.9722  -15.9865   24.7078 S   0  0  0  0  0  0  0  0  0  0  0  0
   11.7414  -17.7377   22.5735 C   0  0  0  0  0  0  0  0  0  0  0  0
   12.9306  -17.9512   22.8810 O   0  0  0  0  0  0  0  0  0  0  0  0
   10.8038  -18.7436   22.7155 O   0  0  0  0  0  0  0  0  0  0  0  0
  2  1  1  1
  2  3  1  0
  2 13  1  0
  3  4  1  0
  4  5  2  0
  5  6  1  0
  7  6  1  0
  8  7  2  0
  9  8  1  0
 10 11  1  0
 10  9  2  0
 11 12  2  0
 12  4  1  0
 12  7  1  0
 13 19  1  0
 13 14  2  0
 16 15  1  6
 16 17  1  0
 18 16  1  0
 18 19  1  1
 20 18  1  0
 20 21  2  0
 22 20  1  0
 23 22  1  0
 23 24  1  1
 24 25  1  0
 26 23  1  0
 27 26  2  0
 28 26  1  0
M  END
$$$$
