WVC.pdb
     RDKit          3D

 28 29  0  0  1  0  0  0  0  0999 V2000
    6.5479  -18.2690   24.4287 N   0  0  0  0  0  0  0  0  0  0  0  0
    6.7977  -16.8678   24.1568 C   0  0  1  0  0  0  0  0  0  0  0  0
    7.6132  -16.2855   25.2854 C   0  0  0  0  0  0  0  0  0  0  0  0
    6.9396  -15.0632   25.8491 C   0  0  0  0  0  0  0  0  0  0  0  0
    5.6395  -14.9911   26.2767 C   0  0  0  0  0  0  0  0  0  0  0  0
    5.4312  -13.7350   26.7062 N   0  0  0  0  0  0  0  0  0  0  0  0
    6.5307  -12.9965   26.5764 C   0  0  0  0  0  0  0  0  0  0  0  0
    6.7859  -11.6692   26.8819 C   0  0  0  0  0  0  0  0  0  0  0  0
    8.0324  -11.1625   26.6393 C   0  0  0  0  0  0  0  0  0  0  0  0
    9.0190  -11.9582   26.0999 C   0  0  0  0  0  0  0  0  0  0  0  0
    8.7429  -13.2903   25.7995 C   0  0  0  0  0  0  0  0  0  0  0  0
    7.4889  -13.8187   26.0382 C   0  0  0  0  0  0  0  0  0  0  0  0
    7.3950  -16.6443   22.8348 C   0  0  0  0  0  0  0  0  0  0  0  0
    8.0283  -17.6220   22.3232 O   0  0  0  0  0  0  0  0  0  0  0  0
    8.1835  -13.7049   18.8604 C   0  0  0  0  0  0  0  0  0  0  0  0
    7.6105  -13.8885   20.2328 C   0  0  2  0  0  0  0  0  0  0  0  0
    8.1803  -12.8154   21.1356 C   0  0  0  0  0  0  0  0  0  0  0  0
    7.9529  -15.2713   20.7947 C   0  0  2  0  0  0  0  0  0  0  0  0
    7.3372  -15.4643   22.0818 N   0  0  0  0  0  0  0  0  0  0  0  0
    9.4059  -15.4460   20.7948 C   0  0  0  0  0  0  0  0  0  0  0  0
   10.0441  -15.3992   19.7301 O   0  0  0  0  0  0  0  0  0  0  0  0
   10.0983  -15.6692   22.0042 N   0  0  0  0  0  0  0  0  0  0  0  0
   11.5275  -15.8309   22.1261 C   0  0  1  0  0  0  0  0  0  0  0  0
   12.0336  -15.7938   23.5267 C   0  0  0  0  0  0  0  0  0  0  0  0
   13.8181  -16.0906   23.6235 S   0  0  0  0  0  0  0  0  0  0  0  0
   11.9790  -17.0662   21.4093 C   0  0  0  0  0  0  0  0  0  0  0  0
   11.1764  -18.0129   21.2912 O   0  0  0  0  0  0  0  0  0  0  0  0
   13.2525  -17.1754   20.8828 O   0  0  0  0  0  0  0  0  0  0  0  0
  2  1  1  1
  2  3  1  0
  2 13  1  0
  3  4  1  0
  4  5  2  0
  5  6  1  0
  7  6  1  0
  8  7  2  0
  9  8  1  0
 10 11  1  0
 10  9  2  0
 11 12  2  0
 12  4  1  0
 12  7  1  0
 13 19  1  0
 13 14  2  0
 16 15  1  6
 16 17  1  0
 18 16  1  0
 18 19  1  1
 20 18  1  0
 20 21  2  0
 22 20  1  0
 23 22  1  0
 23 24  1  1
 24 25  1  0
 26 23  1  0
 27 26  2  0
 28 26  1  0
M  END
$$$$
