WVC.pdb
     RDKit          3D

 28 29  0  0  1  0  0  0  0  0999 V2000
    5.5722  -18.0581   23.9876 N   0  0  0  0  0  0  0  0  0  0  0  0
    6.2664  -16.7935   23.8522 C   0  0  1  0  0  0  0  0  0  0  0  0
    7.2996  -16.6801   24.9465 C   0  0  0  0  0  0  0  0  0  0  0  0
    6.9515  -15.5591   25.8888 C   0  0  0  0  0  0  0  0  0  0  0  0
    6.2499  -15.6860   27.0591 C   0  0  0  0  0  0  0  0  0  0  0  0
    6.1548  -14.4599   27.6007 N   0  0  0  0  0  0  0  0  0  0  0  0
    6.7593  -13.5519   26.8383 C   0  0  0  0  0  0  0  0  0  0  0  0
    6.9159  -12.1835   26.9903 C   0  0  0  0  0  0  0  0  0  0  0  0
    7.5968  -11.4851   26.0322 C   0  0  0  0  0  0  0  0  0  0  0  0
    8.1189  -12.1310   24.9333 C   0  0  0  0  0  0  0  0  0  0  0  0
    7.9510  -13.5074   24.7983 C   0  0  0  0  0  0  0  0  0  0  0  0
    7.2657  -14.2286   25.7568 C   0  0  0  0  0  0  0  0  0  0  0  0
    6.8210  -16.5919   22.5083 C   0  0  0  0  0  0  0  0  0  0  0  0
    7.0238  -17.6379   21.8130 O   0  0  0  0  0  0  0  0  0  0  0  0
    8.1638  -13.6388   18.7250 C   0  0  0  0  0  0  0  0  0  0  0  0
    7.5149  -13.8114   20.0646 C   0  0  2  0  0  0  0  0  0  0  0  0
    8.0699  -12.7612   21.0028 C   0  0  0  0  0  0  0  0  0  0  0  0
    7.7846  -15.2071   20.6342 C   0  0  2  0  0  0  0  0  0  0  0  0
    7.1485  -15.3652   21.9162 N   0  0  0  0  0  0  0  0  0  0  0  0
    9.2273  -15.4520   20.6484 C   0  0  0  0  0  0  0  0  0  0  0  0
    9.9039  -15.2785   19.6212 O   0  0  0  0  0  0  0  0  0  0  0  0
    9.8662  -15.8876   21.8292 N   0  0  0  0  0  0  0  0  0  0  0  0
   11.2906  -16.0588   21.9889 C   0  0  1  0  0  0  0  0  0  0  0  0
   11.7510  -16.0938   23.4052 C   0  0  0  0  0  0  0  0  0  0  0  0
   10.5212  -15.4123   24.5475 S   0  0  0  0  0  0  0  0  0  0  0  0
   11.7640  -17.2574   21.2255 C   0  0  0  0  0  0  0  0  0  0  0  0
   10.9154  -17.9837   20.6715 O   0  0  0  0  0  0  0  0  0  0  0  0
   13.1068  -17.5700   21.1245 O   0  0  0  0  0  0  0  0  0  0  0  0
  2  1  1  6
  2  3  1  0
  2 13  1  0
  3  4  1  0
  4  5  2  0
  5  6  1  0
  7  6  1  0
  8  7  2  0
  9  8  1  0
 10 11  1  0
 10  9  2  0
 11 12  2  0
 12  4  1  0
 12  7  1  0
 13 19  1  0
 13 14  2  0
 16 15  1  6
 16 17  1  0
 18 16  1  0
 18 19  1  1
 20 18  1  0
 20 21  2  0
 22 20  1  0
 23 22  1  0
 23 24  1  1
 24 25  1  0
 26 23  1  0
 27 26  2  0
 28 26  1  0
M  END
$$$$
