MDF.pdb
     RDKit          3D

 28 28  0  0  1  0  0  0  0  0999 V2000
    7.4442  -11.8539   21.8989 C   0  0  0  0  0  0  0  0  0  0  0  0
    8.3318  -12.7448   20.5905 S   0  0  0  0  0  0  0  0  0  0  0  0
    7.8429  -14.4821   20.6841 C   0  0  0  0  0  0  0  0  0  0  0  0
    8.6367  -15.3308   19.6936 C   0  0  0  0  0  0  0  0  0  0  0  0
    8.2372  -16.7729   19.9666 C   0  0  2  0  0  0  0  0  0  0  0  0
    6.8552  -16.9176   19.6581 N   0  0  0  0  0  0  0  0  0  0  0  0
    8.6022  -17.2006   21.3235 C   0  0  0  0  0  0  0  0  0  0  0  0
    7.7568  -17.2968   22.2473 O   0  0  0  0  0  0  0  0  0  0  0  0
    9.9528  -17.5247   21.6350 N   0  0  0  0  0  0  0  0  0  0  0  0
   10.3532  -18.0638   22.9149 C   0  0  1  0  0  0  0  0  0  0  0  0
   11.5054  -19.0293   22.8114 C   0  0  0  0  0  0  0  0  0  0  0  0
   12.6034  -18.5480   21.9400 C   0  0  0  0  0  0  0  0  0  0  0  0
   12.5699  -18.6924   20.6941 O   0  0  0  0  0  0  0  0  0  0  0  0
   10.6562  -16.9363   23.8268 C   0  0  0  0  0  0  0  0  0  0  0  0
   11.3017  -15.9583   23.3761 O   0  0  0  0  0  0  0  0  0  0  0  0
   13.7256  -17.9132   22.4523 O   0  0  0  0  0  0  0  0  0  0  0  0
   10.2279  -16.9495   25.1940 N   0  0  0  0  0  0  0  0  0  0  0  0
   10.6418  -15.8682   26.0529 C   0  0  1  0  0  0  0  0  0  0  0  0
   10.3473  -14.5346   25.3800 C   0  0  0  0  0  0  0  0  0  0  0  0
    9.0694  -13.9393   25.7907 C   0  0  0  0  0  0  0  0  0  0  0  0
    7.9172  -14.1799   25.0957 C   0  0  0  0  0  0  0  0  0  0  0  0
    6.7060  -13.6234   25.4830 C   0  0  0  0  0  0  0  0  0  0  0  0
    6.6543  -12.8070   26.5940 C   0  0  0  0  0  0  0  0  0  0  0  0
    7.8153  -12.5628   27.2964 C   0  0  0  0  0  0  0  0  0  0  0  0
    9.0190  -13.1262   26.8974 C   0  0  0  0  0  0  0  0  0  0  0  0
   10.0222  -15.9697   27.3745 C   0  0  0  0  0  0  0  0  0  0  0  0
    9.0639  -16.9807   27.5762 O   0  0  0  0  0  0  0  0  0  0  0  0
   10.2681  -15.2353   28.3471 O   0  0  0  0  0  0  0  0  0  0  0  0
  2  1  1  0
  3  2  1  0
  4  3  1  0
  4  5  1  0
  5  6  1  1
  7  5  1  0
  7  8  2  0
  9  7  1  0
 10  9  1  0
 10 11  1  6
 12 11  1  0
 12 16  1  0
 13 12  2  0
 14 10  1  0
 15 14  2  0
 17 14  1  0
 18 17  1  0
 18 26  1  0
 19 20  1  0
 18 19  1  6
 20 25  2  0
 21 22  2  0
 21 20  1  0
 22 23  1  0
 23 24  2  0
 25 24  1  0
 26 27  1  0
 28 26  2  0
M  END
$$$$
