MDF.pdb
     RDKit          3D

 28 28  0  0  1  0  0  0  0  0999 V2000
    8.8018  -11.7634   20.1096 C   0  0  0  0  0  0  0  0  0  0  0  0
    7.3210  -12.4246   19.2951 S   0  0  0  0  0  0  0  0  0  0  0  0
    7.4265  -14.2279   19.3498 C   0  0  0  0  0  0  0  0  0  0  0  0
    7.6222  -14.7240   20.7807 C   0  0  0  0  0  0  0  0  0  0  0  0
    7.8896  -16.2173   20.6710 C   0  0  2  0  0  0  0  0  0  0  0  0
    6.6433  -16.8801   20.4883 N   0  0  0  0  0  0  0  0  0  0  0  0
    8.6832  -16.7215   21.7994 C   0  0  0  0  0  0  0  0  0  0  0  0
    8.1743  -17.3917   22.7317 O   0  0  0  0  0  0  0  0  0  0  0  0
   10.0805  -16.4587   21.8686 N   0  0  0  0  0  0  0  0  0  0  0  0
   10.9103  -16.9177   22.9592 C   0  0  1  0  0  0  0  0  0  0  0  0
   12.3837  -16.7956   22.6684 C   0  0  0  0  0  0  0  0  0  0  0  0
   12.8323  -17.6297   21.5284 C   0  0  0  0  0  0  0  0  0  0  0  0
   13.5406  -17.1609   20.6050 O   0  0  0  0  0  0  0  0  0  0  0  0
   10.5255  -16.1816   24.1858 C   0  0  0  0  0  0  0  0  0  0  0  0
   10.2280  -14.9658   24.0864 O   0  0  0  0  0  0  0  0  0  0  0  0
   12.4948  -18.9710   21.4198 O   0  0  0  0  0  0  0  0  0  0  0  0
   10.4897  -16.8307   25.4627 N   0  0  0  0  0  0  0  0  0  0  0  0
    9.6855  -16.2464   26.5069 C   0  0  1  0  0  0  0  0  0  0  0  0
    8.2645  -16.0331   26.0037 C   0  0  0  0  0  0  0  0  0  0  0  0
    7.8105  -14.6400   26.1002 C   0  0  0  0  0  0  0  0  0  0  0  0
    6.5682  -14.2658   25.6697 C   0  0  0  0  0  0  0  0  0  0  0  0
    6.1329  -12.9511   25.7634 C   0  0  0  0  0  0  0  0  0  0  0  0
    6.9666  -11.9929   26.3020 C   0  0  0  0  0  0  0  0  0  0  0  0
    8.2201  -12.3681   26.7367 C   0  0  0  0  0  0  0  0  0  0  0  0
    8.6418  -13.6863   26.6367 C   0  0  0  0  0  0  0  0  0  0  0  0
    9.7253  -17.0545   27.7259 C   0  0  0  0  0  0  0  0  0  0  0  0
    9.9549  -18.4368   27.5922 O   0  0  0  0  0  0  0  0  0  0  0  0
    9.5729  -16.6262   28.8832 O   0  0  0  0  0  0  0  0  0  0  0  0
  2  1  1  0
  3  2  1  0
  4  3  1  0
  4  5  1  0
  5  6  1  1
  7  5  1  0
  7  8  2  0
  9  7  1  0
 10  9  1  0
 10 11  1  6
 12 11  1  0
 12 16  1  0
 13 12  2  0
 14 10  1  0
 15 14  2  0
 17 14  1  0
 18 17  1  0
 18 26  1  0
 19 20  1  0
 18 19  1  6
 20 25  2  0
 21 22  2  0
 21 20  1  0
 22 23  1  0
 23 24  2  0
 25 24  1  0
 26 27  1  0
 28 26  2  0
M  END
$$$$
