MDF.pdb
     RDKit          3D

 28 28  0  0  1  0  0  0  0  0999 V2000
    5.7613  -13.4489   18.6603 C   0  0  0  0  0  0  0  0  0  0  0  0
    7.1155  -12.4140   18.0369 S   0  0  0  0  0  0  0  0  0  0  0  0
    8.6135  -12.8738   18.9371 C   0  0  0  0  0  0  0  0  0  0  0  0
    8.2809  -13.7303   20.1567 C   0  0  0  0  0  0  0  0  0  0  0  0
    9.6062  -13.9926   20.8556 C   0  0  2  0  0  0  0  0  0  0  0  0
   10.6213  -14.0892   19.8625 N   0  0  0  0  0  0  0  0  0  0  0  0
    9.5348  -15.1463   21.7618 C   0  0  0  0  0  0  0  0  0  0  0  0
    8.4898  -15.4405   22.3932 O   0  0  0  0  0  0  0  0  0  0  0  0
   10.6724  -15.9803   21.9532 N   0  0  0  0  0  0  0  0  0  0  0  0
   10.6686  -17.1168   22.8461 C   0  0  1  0  0  0  0  0  0  0  0  0
   11.9449  -17.9154   22.7865 C   0  0  0  0  0  0  0  0  0  0  0  0
   12.2331  -18.4697   21.4425 C   0  0  0  0  0  0  0  0  0  0  0  0
   13.3135  -18.2359   20.8490 O   0  0  0  0  0  0  0  0  0  0  0  0
   10.3795  -16.6372   24.2176 C   0  0  0  0  0  0  0  0  0  0  0  0
   11.1262  -15.7588   24.7149 O   0  0  0  0  0  0  0  0  0  0  0  0
   11.3268  -19.2754   20.7685 O   0  0  0  0  0  0  0  0  0  0  0  0
    9.2758  -17.1558   24.9700 N   0  0  0  0  0  0  0  0  0  0  0  0
    9.0195  -16.6073   26.2783 C   0  0  1  0  0  0  0  0  0  0  0  0
    7.5950  -16.0734   26.3426 C   0  0  0  0  0  0  0  0  0  0  0  0
    7.5211  -14.6186   26.5272 C   0  0  0  0  0  0  0  0  0  0  0  0
    6.4132  -13.9102   26.1541 C   0  0  0  0  0  0  0  0  0  0  0  0
    6.3368  -12.5355   26.3313 C   0  0  0  0  0  0  0  0  0  0  0  0
    7.3989  -11.8602   26.8961 C   0  0  0  0  0  0  0  0  0  0  0  0
    8.5175  -12.5728   27.2731 C   0  0  0  0  0  0  0  0  0  0  0  0
    8.5797  -13.9469   27.0899 C   0  0  0  0  0  0  0  0  0  0  0  0
    9.2908  -17.5875   27.3300 C   0  0  0  0  0  0  0  0  0  0  0  0
    9.4991  -18.9253   26.9451 O   0  0  0  0  0  0  0  0  0  0  0  0
    9.3550  -17.3434   28.5475 O   0  0  0  0  0  0  0  0  0  0  0  0
  2  1  1  0
  3  2  1  0
  4  3  1  0
  4  5  1  0
  5  6  1  6
  7  5  1  0
  7  8  2  0
  9  7  1  0
 10  9  1  0
 10 11  1  1
 12 11  1  0
 12 16  1  0
 13 12  2  0
 14 10  1  0
 15 14  2  0
 17 14  1  0
 18 17  1  0
 18 26  1  0
 19 20  1  0
 18 19  1  6
 20 25  2  0
 21 22  2  0
 21 20  1  0
 22 23  1  0
 23 24  2  0
 25 24  1  0
 26 27  1  0
 28 26  2  0
M  END
$$$$
