MDF.pdb
     RDKit          3D

 28 28  0  0  1  0  0  0  0  0999 V2000
    8.0691  -11.7670   20.0727 C   0  0  0  0  0  0  0  0  0  0  0  0
    8.6409  -13.1322   21.1228 S   0  0  0  0  0  0  0  0  0  0  0  0
    7.1782  -13.9684   21.7764 C   0  0  0  0  0  0  0  0  0  0  0  0
    6.5523  -14.8829   20.7258 C   0  0  0  0  0  0  0  0  0  0  0  0
    7.6196  -15.9091   20.3775 C   0  0  2  0  0  0  0  0  0  0  0  0
    7.1256  -16.7233   19.3197 N   0  0  0  0  0  0  0  0  0  0  0  0
    8.0724  -16.6585   21.5568 C   0  0  0  0  0  0  0  0  0  0  0  0
    7.2996  -17.3878   22.2262 O   0  0  0  0  0  0  0  0  0  0  0  0
    9.4283  -16.5767   21.9822 N   0  0  0  0  0  0  0  0  0  0  0  0
    9.9759  -17.4222   23.0187 C   0  0  1  0  0  0  0  0  0  0  0  0
   11.3744  -17.8937   22.7149 C   0  0  0  0  0  0  0  0  0  0  0  0
   12.2441  -16.8367   22.1467 C   0  0  0  0  0  0  0  0  0  0  0  0
   12.2173  -15.6577   22.5750 O   0  0  0  0  0  0  0  0  0  0  0  0
    9.9051  -16.6939   24.3068 C   0  0  0  0  0  0  0  0  0  0  0  0
   10.5057  -15.5960   24.4080 O   0  0  0  0  0  0  0  0  0  0  0  0
   13.1335  -17.0919   21.1129 O   0  0  0  0  0  0  0  0  0  0  0  0
    9.1711  -17.2196   25.4194 N   0  0  0  0  0  0  0  0  0  0  0  0
    9.2652  -16.5387   26.6866 C   0  0  1  0  0  0  0  0  0  0  0  0
    7.8771  -16.1178   27.1491 C   0  0  0  0  0  0  0  0  0  0  0  0
    7.5075  -14.7583   26.7352 C   0  0  0  0  0  0  0  0  0  0  0  0
    8.3438  -13.6983   26.9486 C   0  0  0  0  0  0  0  0  0  0  0  0
    8.0008  -12.4122   26.5546 C   0  0  0  0  0  0  0  0  0  0  0  0
    6.7898  -12.1892   25.9326 C   0  0  0  0  0  0  0  0  0  0  0  0
    5.9447  -13.2569   25.7166 C   0  0  0  0  0  0  0  0  0  0  0  0
    6.3009  -14.5372   26.1158 C   0  0  0  0  0  0  0  0  0  0  0  0
    9.9552  -17.3587   27.6827 C   0  0  0  0  0  0  0  0  0  0  0  0
   10.3212  -18.6680   27.3181 O   0  0  0  0  0  0  0  0  0  0  0  0
   10.2513  -16.9998   28.8357 O   0  0  0  0  0  0  0  0  0  0  0  0
  2  1  1  0
  3  2  1  0
  4  3  1  0
  4  5  1  0
  5  6  1  6
  7  5  1  0
  7  8  2  0
  9  7  1  0
 10  9  1  0
 10 11  1  6
 12 11  1  0
 12 16  1  0
 13 12  2  0
 14 10  1  0
 15 14  2  0
 17 14  1  0
 18 17  1  0
 18 26  1  0
 19 20  1  0
 18 19  1  1
 20 25  2  0
 21 22  2  0
 21 20  1  0
 22 23  1  0
 23 24  2  0
 25 24  1  0
 26 27  1  0
 28 26  2  0
M  END
$$$$
