MDF.pdb
     RDKit          3D

 28 28  0  0  1  0  0  0  0  0999 V2000
    8.9116  -12.2021   20.4467 C   0  0  0  0  0  0  0  0  0  0  0  0
    7.6133  -12.4353   19.2002 S   0  0  0  0  0  0  0  0  0  0  0  0
    7.6501  -14.1687   18.6906 C   0  0  0  0  0  0  0  0  0  0  0  0
    7.7927  -15.0936   19.8973 C   0  0  0  0  0  0  0  0  0  0  0  0
    9.2524  -15.5206   19.9248 C   0  0  2  0  0  0  0  0  0  0  0  0
    9.5757  -16.0817   18.6573 N   0  0  0  0  0  0  0  0  0  0  0  0
    9.5518  -16.3939   21.0671 C   0  0  0  0  0  0  0  0  0  0  0  0
    8.7905  -16.4827   22.0621 O   0  0  0  0  0  0  0  0  0  0  0  0
   10.7382  -17.1804   21.0779 N   0  0  0  0  0  0  0  0  0  0  0  0
   11.1053  -18.0282   22.1893 C   0  0  1  0  0  0  0  0  0  0  0  0
   12.3429  -18.8450   21.9218 C   0  0  0  0  0  0  0  0  0  0  0  0
   12.7263  -19.7246   23.0513 C   0  0  0  0  0  0  0  0  0  0  0  0
   11.8901  -20.4597   23.6297 O   0  0  0  0  0  0  0  0  0  0  0  0
   11.2501  -17.1839   23.3979 C   0  0  0  0  0  0  0  0  0  0  0  0
   11.8882  -16.1067   23.3032 O   0  0  0  0  0  0  0  0  0  0  0  0
   14.0271  -19.7836   23.5300 O   0  0  0  0  0  0  0  0  0  0  0  0
   10.6798  -17.5763   24.6524 N   0  0  0  0  0  0  0  0  0  0  0  0
   10.7905  -16.6715   25.7693 C   0  0  1  0  0  0  0  0  0  0  0  0
    9.4850  -15.9078   25.9443 C   0  0  0  0  0  0  0  0  0  0  0  0
    9.5049  -14.9605   27.0660 C   0  0  0  0  0  0  0  0  0  0  0  0
    8.8780  -13.7485   26.9840 C   0  0  0  0  0  0  0  0  0  0  0  0
    8.8899  -12.8518   28.0435 C   0  0  0  0  0  0  0  0  0  0  0  0
    9.5474  -13.1829   29.2104 C   0  0  0  0  0  0  0  0  0  0  0  0
   10.1805  -14.4047   29.2951 C   0  0  0  0  0  0  0  0  0  0  0  0
   10.1601  -15.2912   28.2278 C   0  0  0  0  0  0  0  0  0  0  0  0
   11.1872  -17.3757   26.9888 C   0  0  0  0  0  0  0  0  0  0  0  0
   12.2142  -16.8128   27.7694 O   0  0  0  0  0  0  0  0  0  0  0  0
   10.6937  -18.4390   27.4034 O   0  0  0  0  0  0  0  0  0  0  0  0
  2  1  1  0
  3  2  1  0
  4  3  1  0
  4  5  1  0
  5  6  1  6
  7  5  1  0
  7  8  2  0
  9  7  1  0
 10  9  1  0
 10 11  1  6
 12 11  1  0
 12 16  1  0
 13 12  2  0
 14 10  1  0
 15 14  2  0
 17 14  1  0
 18 17  1  0
 18 26  1  0
 19 20  1  0
 18 19  1  1
 20 25  2  0
 21 22  2  0
 21 20  1  0
 22 23  1  0
 23 24  2  0
 25 24  1  0
 26 27  1  0
 28 26  2  0
M  END
$$$$
