MDF.pdb
     RDKit          3D

 28 28  0  0  1  0  0  0  0  0999 V2000
    7.3946  -11.2343   21.4002 C   0  0  0  0  0  0  0  0  0  0  0  0
    7.5412  -11.8721   19.7075 S   0  0  0  0  0  0  0  0  0  0  0  0
    7.2997  -13.6618   19.7753 C   0  0  0  0  0  0  0  0  0  0  0  0
    7.6815  -14.2166   21.1457 C   0  0  0  0  0  0  0  0  0  0  0  0
    7.4389  -15.7163   21.0704 C   0  0  2  0  0  0  0  0  0  0  0  0
    6.0332  -15.9393   21.0540 N   0  0  0  0  0  0  0  0  0  0  0  0
    8.1549  -16.4461   22.1250 C   0  0  0  0  0  0  0  0  0  0  0  0
    7.5554  -17.0644   23.0392 O   0  0  0  0  0  0  0  0  0  0  0  0
    9.5780  -16.4731   22.1399 N   0  0  0  0  0  0  0  0  0  0  0  0
   10.3367  -17.2070   23.1272 C   0  0  1  0  0  0  0  0  0  0  0  0
   11.7532  -17.4831   22.6938 C   0  0  0  0  0  0  0  0  0  0  0  0
   12.4958  -18.3633   23.6267 C   0  0  0  0  0  0  0  0  0  0  0  0
   13.6770  -18.1158   23.9698 O   0  0  0  0  0  0  0  0  0  0  0  0
   10.2846  -16.4649   24.4082 C   0  0  0  0  0  0  0  0  0  0  0  0
   10.9494  -15.4051   24.5140 O   0  0  0  0  0  0  0  0  0  0  0  0
   11.9275  -19.5061   24.1706 O   0  0  0  0  0  0  0  0  0  0  0  0
    9.4974  -16.9353   25.5092 N   0  0  0  0  0  0  0  0  0  0  0  0
    9.6331  -16.2726   26.7822 C   0  0  1  0  0  0  0  0  0  0  0  0
    8.2721  -15.7784   27.2529 C   0  0  0  0  0  0  0  0  0  0  0  0
    7.8541  -14.5201   26.6221 C   0  0  0  0  0  0  0  0  0  0  0  0
    8.3470  -13.3163   27.0422 C   0  0  0  0  0  0  0  0  0  0  0  0
    7.9586  -12.1247   26.4456 C   0  0  0  0  0  0  0  0  0  0  0  0
    7.0544  -12.1460   25.4039 C   0  0  0  0  0  0  0  0  0  0  0  0
    6.5558  -13.3591   24.9786 C   0  0  0  0  0  0  0  0  0  0  0  0
    6.9533  -14.5424   25.5845 C   0  0  0  0  0  0  0  0  0  0  0  0
   10.2783  -17.1395   27.7686 C   0  0  0  0  0  0  0  0  0  0  0  0
   10.5490  -16.6014   29.0407 O   0  0  0  0  0  0  0  0  0  0  0  0
   10.6134  -18.3223   27.5830 O   0  0  0  0  0  0  0  0  0  0  0  0
  2  1  1  0
  3  2  1  0
  4  3  1  0
  4  5  1  0
  5  6  1  1
  7  5  1  0
  7  8  2  0
  9  7  1  0
 10  9  1  0
 10 11  1  6
 12 11  1  0
 12 16  1  0
 13 12  2  0
 14 10  1  0
 15 14  2  0
 17 14  1  0
 18 17  1  0
 18 26  1  0
 19 20  1  0
 18 19  1  1
 20 25  2  0
 21 22  2  0
 21 20  1  0
 22 23  1  0
 23 24  2  0
 25 24  1  0
 26 27  1  0
 28 26  2  0
M  END
$$$$
