YRM.pdb
     RDKit          3D

 32 32  0  0  1  0  0  0  0  0999 V2000
   28.7141  -20.0624   -5.7171 O   0  0  0  0  0  0  0  0  0  0  0  0
   28.1556  -20.1127   -7.0077 C   0  0  0  0  0  0  0  0  0  0  0  0
   28.9434  -20.4261   -8.1023 C   0  0  0  0  0  0  0  0  0  0  0  0
   28.4202  -20.4797   -9.3719 C   0  0  0  0  0  0  0  0  0  0  0  0
   27.0577  -20.2146   -9.5878 C   0  0  0  0  0  0  0  0  0  0  0  0
   26.5339  -20.2799  -10.9659 C   0  0  0  0  0  0  0  0  0  0  0  0
   25.7790  -21.5650  -11.2668 C   0  0  2  0  0  0  0  0  0  0  0  0
   26.7346  -22.6425  -11.5081 N   0  0  0  0  0  0  0  0  0  0  0  0
   24.9092  -21.4652  -12.4543 C   0  0  0  0  0  0  0  0  0  0  0  0
   25.4712  -21.4863  -13.5975 O   0  0  0  0  0  0  0  0  0  0  0  0
   26.2918  -19.9080   -8.4984 C   0  0  0  0  0  0  0  0  0  0  0  0
   26.8191  -19.8522   -7.2061 C   0  0  0  0  0  0  0  0  0  0  0  0
   17.9780  -22.2180  -11.5115 N   0  0  0  0  0  0  0  0  0  0  0  0
   18.7451  -23.4139  -11.3164 C   0  0  0  0  0  0  0  0  0  0  0  0
   18.7572  -23.8928  -10.1404 N   0  0  0  0  0  0  0  0  0  0  0  0
   19.4617  -24.0317  -12.3737 N   0  0  0  0  0  0  0  0  0  0  0  0
   19.3891  -23.5578  -13.7346 C   0  0  0  0  0  0  0  0  0  0  0  0
   20.4512  -22.5676  -14.1030 C   0  0  0  0  0  0  0  0  0  0  0  0
   21.5220  -22.3562  -13.1081 C   0  0  0  0  0  0  0  0  0  0  0  0
   22.6674  -21.4663  -13.5322 C   0  0  2  0  0  0  0  0  0  0  0  0
   23.5175  -21.3502  -12.3289 N   0  0  0  0  0  0  0  0  0  0  0  0
   22.2589  -20.0831  -13.8466 C   0  0  0  0  0  0  0  0  0  0  0  0
   21.8794  -19.3068  -12.9013 O   0  0  0  0  0  0  0  0  0  0  0  0
   19.2503  -24.7130   -9.7860 C   0  0  0  0  0  0  0  0  0  0  0  0
   22.6109  -17.4118  -19.7666 S   0  0  0  0  0  0  0  0  0  0  0  0
   22.4648  -15.9220  -18.7424 C   0  0  0  0  0  0  0  0  0  0  0  0
   21.7968  -16.3708  -17.1406 C   0  0  0  0  0  0  0  0  0  0  0  0
   22.3253  -17.7024  -16.6887 C   0  0  1  0  0  0  0  0  0  0  0  0
   21.7838  -18.1217  -15.3355 N   0  0  0  0  0  0  0  0  0  0  0  0
   22.2481  -19.5045  -15.1465 C   0  0  0  0  0  0  0  0  0  0  0  0
   20.3096  -18.1407  -15.2910 O   0  0  0  0  0  0  0  0  0  0  0  0
   19.6557  -17.1710  -14.8293 O   0  0  0  0  0  0  0  0  0  0  0  0
  2  1  1  0
  3  2  2  0
  4  3  1  0
  5 11  1  0
  5  4  2  0
  6  7  1  0
  6  5  1  0
  7  9  1  0
  7  8  1  6
  9 21  1  0
 10  9  2  0
 11 12  2  0
 12  2  1  0
 13 14  1  0
 14 15  2  0
 16 14  1  0
 16 17  1  0
 18 17  1  0
 19 18  1  0
 20 19  1  1
 21 20  1  0
 22 20  1  0
 22 29  1  0
 23 22  2  0
 25 24  1  0
 25 26  1  0
 26 27  1  0
 28 27  1  1
 28 29  1  0
 28 30  1  0
 30 31  2  0
 30 32  1  0
M  END
$$$$
