YRM.pdb
     RDKit          3D

 32 32  0  0  1  0  0  0  0  0999 V2000
   21.1558  -22.2765   -6.8937 O   0  0  0  0  0  0  0  0  0  0  0  0
   21.8344  -21.7447   -8.0058 C   0  0  0  0  0  0  0  0  0  0  0  0
   23.0555  -21.1118   -7.8468 C   0  0  0  0  0  0  0  0  0  0  0  0
   23.7356  -20.5838   -8.9179 C   0  0  0  0  0  0  0  0  0  0  0  0
   23.1990  -20.6770  -10.2128 C   0  0  0  0  0  0  0  0  0  0  0  0
   23.9582  -20.0957  -11.3368 C   0  0  0  0  0  0  0  0  0  0  0  0
   24.6917  -21.1324  -12.1728 C   0  0  2  0  0  0  0  0  0  0  0  0
   25.8384  -21.6365  -11.4221 N   0  0  0  0  0  0  0  0  0  0  0  0
   25.1956  -20.5983  -13.4524 C   0  0  0  0  0  0  0  0  0  0  0  0
   26.1224  -19.7256  -13.4005 O   0  0  0  0  0  0  0  0  0  0  0  0
   21.9939  -21.3053  -10.3551 C   0  0  0  0  0  0  0  0  0  0  0  0
   21.2989  -21.8435   -9.2695 C   0  0  0  0  0  0  0  0  0  0  0  0
   29.9509  -24.1285  -16.0311 N   0  0  0  0  0  0  0  0  0  0  0  0
   29.7637  -23.4178  -17.2626 C   0  0  0  0  0  0  0  0  0  0  0  0
   30.2761  -23.9398  -18.3006 N   0  0  0  0  0  0  0  0  0  0  0  0
   29.0519  -22.1921  -17.3259 N   0  0  0  0  0  0  0  0  0  0  0  0
   28.3802  -21.6304  -16.1790 C   0  0  0  0  0  0  0  0  0  0  0  0
   27.0316  -22.2206  -15.9008 C   0  0  0  0  0  0  0  0  0  0  0  0
   25.8922  -21.6176  -16.6214 C   0  0  0  0  0  0  0  0  0  0  0  0
   25.1989  -20.4628  -15.9363 C   0  0  2  0  0  0  0  0  0  0  0  0
   24.6733  -21.0339  -14.6785 N   0  0  0  0  0  0  0  0  0  0  0  0
   24.0094  -19.9717  -16.6595 C   0  0  0  0  0  0  0  0  0  0  0  0
   22.8730  -19.9574  -16.0690 O   0  0  0  0  0  0  0  0  0  0  0  0
   30.2799  -23.5912  -19.2598 C   0  0  0  0  0  0  0  0  0  0  0  0
   19.8478  -14.7658  -17.5704 S   0  0  0  0  0  0  0  0  0  0  0  0
   20.9128  -16.0996  -16.9562 C   0  0  0  0  0  0  0  0  0  0  0  0
   22.4615  -16.0804  -17.8587 C   0  0  0  0  0  0  0  0  0  0  0  0
   23.3031  -17.2757  -17.5129 C   0  0  1  0  0  0  0  0  0  0  0  0
   23.0295  -18.4672  -18.4105 N   0  0  0  0  0  0  0  0  0  0  0  0
   24.0020  -19.4910  -17.9987 C   0  0  0  0  0  0  0  0  0  0  0  0
   23.2714  -18.1761  -19.8361 O   0  0  0  0  0  0  0  0  0  0  0  0
   24.4290  -18.2162  -20.3254 O   0  0  0  0  0  0  0  0  0  0  0  0
  2  1  1  0
  3  2  2  0
  4  3  1  0
  5 11  1  0
  5  4  2  0
  6  7  1  0
  6  5  1  0
  7  9  1  0
  7  8  1  1
  9 21  1  0
 10  9  2  0
 11 12  2  0
 12  2  1  0
 13 14  1  0
 14 15  2  0
 16 14  1  0
 16 17  1  0
 18 17  1  0
 19 18  1  0
 20 19  1  6
 21 20  1  0
 22 20  1  0
 22 29  1  0
 23 22  2  0
 25 24  1  0
 25 26  1  0
 26 27  1  0
 28 27  1  1
 28 29  1  0
 28 30  1  0
 30 31  2  0
 30 32  1  0
M  END
$$$$
