YRM.pdb
     RDKit          3D

 32 32  0  0  1  0  0  0  0  0999 V2000
   15.7063  -18.8428  -11.4475 O   0  0  0  0  0  0  0  0  0  0  0  0
   16.9928  -19.3967  -11.5822 C   0  0  0  0  0  0  0  0  0  0  0  0
   18.1169  -18.6388  -11.3008 C   0  0  0  0  0  0  0  0  0  0  0  0
   19.3831  -19.1581  -11.4264 C   0  0  0  0  0  0  0  0  0  0  0  0
   19.5651  -20.4857  -11.8480 C   0  0  0  0  0  0  0  0  0  0  0  0
   20.9403  -21.0061  -11.9730 C   0  0  0  0  0  0  0  0  0  0  0  0
   21.6077  -20.6440  -13.2903 C   0  0  2  0  0  0  0  0  0  0  0  0
   20.7922  -21.1356  -14.3973 N   0  0  0  0  0  0  0  0  0  0  0  0
   22.9568  -21.2225  -13.4381 C   0  0  0  0  0  0  0  0  0  0  0  0
   23.0844  -22.2244  -14.2147 O   0  0  0  0  0  0  0  0  0  0  0  0
   18.4470  -21.2224  -12.1210 C   0  0  0  0  0  0  0  0  0  0  0  0
   17.1581  -20.6990  -11.9948 C   0  0  0  0  0  0  0  0  0  0  0  0
   29.2808  -22.7342  -16.6289 N   0  0  0  0  0  0  0  0  0  0  0  0
   28.1542  -22.6493  -17.5122 C   0  0  0  0  0  0  0  0  0  0  0  0
   28.0482  -23.5665  -18.3838 N   0  0  0  0  0  0  0  0  0  0  0  0
   27.2076  -21.5957  -17.4287 N   0  0  0  0  0  0  0  0  0  0  0  0
   27.2770  -20.5755  -16.4106 C   0  0  0  0  0  0  0  0  0  0  0  0
   27.0066  -21.0675  -15.0217 C   0  0  0  0  0  0  0  0  0  0  0  0
   25.6482  -20.8257  -14.4948 C   0  0  0  0  0  0  0  0  0  0  0  0
   25.4134  -21.1928  -13.0478 C   0  0  2  0  0  0  0  0  0  0  0  0
   24.0559  -20.6905  -12.7491 N   0  0  0  0  0  0  0  0  0  0  0  0
   26.2997  -20.4831  -12.1045 C   0  0  0  0  0  0  0  0  0  0  0  0
   25.9387  -19.3495  -11.6304 O   0  0  0  0  0  0  0  0  0  0  0  0
   27.3277  -23.6967  -19.0949 C   0  0  0  0  0  0  0  0  0  0  0  0
   27.6133  -19.3179   -5.5073 S   0  0  0  0  0  0  0  0  0  0  0  0
   26.7186  -19.6346   -7.0531 C   0  0  0  0  0  0  0  0  0  0  0  0
   27.4953  -21.0015   -7.9144 C   0  0  0  0  0  0  0  0  0  0  0  0
   27.0301  -21.0755   -9.3409 C   0  0  1  0  0  0  0  0  0  0  0  0
   28.0644  -20.5626  -10.3243 N   0  0  0  0  0  0  0  0  0  0  0  0
   27.5630  -20.9548  -11.6502 C   0  0  0  0  0  0  0  0  0  0  0  0
   29.3849  -21.1954  -10.1465 O   0  0  0  0  0  0  0  0  0  0  0  0
   30.2537  -20.6957   -9.3872 O   0  0  0  0  0  0  0  0  0  0  0  0
  2  1  1  0
  3  2  2  0
  4  3  1  0
  5 11  1  0
  5  4  2  0
  6  7  1  0
  6  5  1  0
  7  9  1  0
  7  8  1  6
  9 21  1  0
 10  9  2  0
 11 12  2  0
 12  2  1  0
 13 14  1  0
 14 15  2  0
 16 14  1  0
 16 17  1  0
 18 17  1  0
 19 18  1  0
 20 19  1  6
 21 20  1  0
 22 20  1  0
 22 29  1  0
 23 22  2  0
 25 24  1  0
 25 26  1  0
 26 27  1  0
 28 27  1  6
 28 29  1  0
 28 30  1  0
 30 31  2  0
 30 32  1  0
M  END
$$$$
