YRM.pdb
     RDKit          3D

 32 32  0  0  1  0  0  0  0  0999 V2000
   31.5596  -21.0822   -9.1403 O   0  0  0  0  0  0  0  0  0  0  0  0
   30.4149  -20.8707   -9.9310 C   0  0  0  0  0  0  0  0  0  0  0  0
   29.1769  -21.3266   -9.5108 C   0  0  0  0  0  0  0  0  0  0  0  0
   28.0457  -21.1329  -10.2668 C   0  0  0  0  0  0  0  0  0  0  0  0
   28.1234  -20.4593  -11.4971 C   0  0  0  0  0  0  0  0  0  0  0  0
   26.8870  -20.2730  -12.2809 C   0  0  0  0  0  0  0  0  0  0  0  0
   26.7450  -21.2570  -13.4313 C   0  0  2  0  0  0  0  0  0  0  0  0
   27.7863  -20.9975  -14.4216 N   0  0  0  0  0  0  0  0  0  0  0  0
   25.4426  -21.1658  -14.1184 C   0  0  0  0  0  0  0  0  0  0  0  0
   25.2261  -20.1329  -14.8321 O   0  0  0  0  0  0  0  0  0  0  0  0
   29.3512  -20.0138  -11.8987 C   0  0  0  0  0  0  0  0  0  0  0  0
   30.5037  -20.2083  -11.1338 C   0  0  0  0  0  0  0  0  0  0  0  0
   25.0531  -25.3763  -17.1089 N   0  0  0  0  0  0  0  0  0  0  0  0
   23.8272  -26.1196  -17.1450 C   0  0  0  0  0  0  0  0  0  0  0  0
   23.8843  -27.3247  -16.7488 N   0  0  0  0  0  0  0  0  0  0  0  0
   22.6121  -25.5492  -17.6046 N   0  0  0  0  0  0  0  0  0  0  0  0
   22.5092  -24.1634  -17.9931 C   0  0  0  0  0  0  0  0  0  0  0  0
   22.3002  -23.2146  -16.8528 C   0  0  0  0  0  0  0  0  0  0  0  0
   23.4525  -23.0105  -15.9518 C   0  0  0  0  0  0  0  0  0  0  0  0
   23.2289  -22.0932  -14.7719 C   0  0  2  0  0  0  0  0  0  0  0  0
   24.4799  -22.1769  -13.9895 N   0  0  0  0  0  0  0  0  0  0  0  0
   22.1712  -22.5566  -13.8523 C   0  0  0  0  0  0  0  0  0  0  0  0
   22.4827  -23.2932  -12.8521 O   0  0  0  0  0  0  0  0  0  0  0  0
   23.1624  -28.0454  -16.7784 C   0  0  0  0  0  0  0  0  0  0  0  0
   21.3942  -18.4222  -10.6021 S   0  0  0  0  0  0  0  0  0  0  0  0
   20.6182  -19.7007   -9.5758 C   0  0  0  0  0  0  0  0  0  0  0  0
   19.7783  -20.8779  -10.6351 C   0  0  0  0  0  0  0  0  0  0  0  0
   20.5628  -21.1301  -11.8911 C   0  0  1  0  0  0  0  0  0  0  0  0
   19.9372  -22.1948  -12.7716 N   0  0  0  0  0  0  0  0  0  0  0  0
   20.7866  -22.2506  -13.9711 C   0  0  0  0  0  0  0  0  0  0  0  0
   18.5739  -21.8435  -13.2117 O   0  0  0  0  0  0  0  0  0  0  0  0
   17.6099  -21.8239  -12.4047 O   0  0  0  0  0  0  0  0  0  0  0  0
  2  1  1  0
  3  2  2  0
  4  3  1  0
  5 11  1  0
  5  4  2  0
  6  7  1  0
  6  5  1  0
  7  9  1  0
  7  8  1  6
  9 21  1  0
 10  9  2  0
 11 12  2  0
 12  2  1  0
 13 14  1  0
 14 15  2  0
 16 14  1  0
 16 17  1  0
 18 17  1  0
 19 18  1  0
 20 19  1  6
 21 20  1  0
 22 20  1  0
 22 29  1  0
 23 22  2  0
 25 24  1  0
 25 26  1  0
 26 27  1  0
 28 27  1  1
 28 29  1  0
 28 30  1  0
 30 31  2  0
 30 32  1  0
M  END
$$$$
