YRM.pdb
     RDKit          3D

 32 32  0  0  1  0  0  0  0  0999 V2000
   26.3733  -12.1497  -17.3731 O   0  0  0  0  0  0  0  0  0  0  0  0
   26.1211  -13.4117  -16.8040 C   0  0  0  0  0  0  0  0  0  0  0  0
   27.1660  -14.2013  -16.3551 C   0  0  0  0  0  0  0  0  0  0  0  0
   26.9439  -15.4375  -15.7973 C   0  0  0  0  0  0  0  0  0  0  0  0
   25.6350  -15.9314  -15.6694 C   0  0  0  0  0  0  0  0  0  0  0  0
   25.4375  -17.2642  -15.0674 C   0  0  0  0  0  0  0  0  0  0  0  0
   25.8516  -18.4082  -15.9793 C   0  0  2  0  0  0  0  0  0  0  0  0
   25.0518  -18.3677  -17.2004 N   0  0  0  0  0  0  0  0  0  0  0  0
   25.6653  -19.7376  -15.3673 C   0  0  0  0  0  0  0  0  0  0  0  0
   24.4777  -20.0813  -15.0594 O   0  0  0  0  0  0  0  0  0  0  0  0
   24.6134  -15.1410  -16.1154 C   0  0  0  0  0  0  0  0  0  0  0  0
   24.8343  -13.8840  -16.6830 C   0  0  0  0  0  0  0  0  0  0  0  0
   30.0420  -26.2901  -15.5030 N   0  0  0  0  0  0  0  0  0  0  0  0
   29.3601  -25.5696  -16.5386 C   0  0  0  0  0  0  0  0  0  0  0  0
   28.8033  -26.2678  -17.4413 N   0  0  0  0  0  0  0  0  0  0  0  0
   29.3115  -24.1518  -16.5653 N   0  0  0  0  0  0  0  0  0  0  0  0
   29.9182  -23.3400  -15.5383 C   0  0  0  0  0  0  0  0  0  0  0  0
   28.9697  -22.4148  -14.8394 C   0  0  0  0  0  0  0  0  0  0  0  0
   27.5448  -22.8030  -14.8570 C   0  0  0  0  0  0  0  0  0  0  0  0
   26.5668  -21.7952  -14.2989 C   0  0  2  0  0  0  0  0  0  0  0  0
   26.7540  -20.5894  -15.1326 N   0  0  0  0  0  0  0  0  0  0  0  0
   26.8818  -21.3617  -12.9234 C   0  0  0  0  0  0  0  0  0  0  0  0
   28.0102  -21.6760  -12.4055 O   0  0  0  0  0  0  0  0  0  0  0  0
   28.3153  -25.9590  -18.2827 C   0  0  0  0  0  0  0  0  0  0  0  0
   28.7535  -19.4884   -7.6376 S   0  0  0  0  0  0  0  0  0  0  0  0
   26.9818  -19.3531   -7.2731 C   0  0  0  0  0  0  0  0  0  0  0  0
   26.0715  -20.4562   -8.3539 C   0  0  0  0  0  0  0  0  0  0  0  0
   26.5076  -20.2944   -9.7823 C   0  0  1  0  0  0  0  0  0  0  0  0
   25.6579  -21.0945  -10.7509 N   0  0  0  0  0  0  0  0  0  0  0  0
   26.0231  -20.5964  -12.0858 C   0  0  0  0  0  0  0  0  0  0  0  0
   24.2128  -20.8594  -10.5719 O   0  0  0  0  0  0  0  0  0  0  0  0
   23.5334  -20.2618  -11.4450 O   0  0  0  0  0  0  0  0  0  0  0  0
  2  1  1  0
  3  2  2  0
  4  3  1  0
  5 11  1  0
  5  4  2  0
  6  7  1  0
  6  5  1  0
  7  9  1  0
  7  8  1  6
  9 21  1  0
 10  9  2  0
 11 12  2  0
 12  2  1  0
 13 14  1  0
 14 15  2  0
 16 14  1  0
 16 17  1  0
 18 17  1  0
 19 18  1  0
 20 19  1  6
 21 20  1  0
 22 20  1  0
 22 29  1  0
 23 22  2  0
 25 24  1  0
 25 26  1  0
 26 27  1  0
 28 27  1  6
 28 29  1  0
 28 30  1  0
 30 31  2  0
 30 32  1  0
M  END
$$$$
