YRM.pdb
     RDKit          3D

 32 32  0  0  1  0  0  0  0  0999 V2000
   16.1656  -15.3468  -15.3934 O   0  0  0  0  0  0  0  0  0  0  0  0
   17.2362  -16.2453  -15.2308 C   0  0  0  0  0  0  0  0  0  0  0  0
   18.5391  -15.7813  -15.1665 C   0  0  0  0  0  0  0  0  0  0  0  0
   19.6005  -16.6401  -15.0095 C   0  0  0  0  0  0  0  0  0  0  0  0
   19.3822  -18.0242  -14.9093 C   0  0  0  0  0  0  0  0  0  0  0  0
   20.5477  -18.9141  -14.7438 C   0  0  0  0  0  0  0  0  0  0  0  0
   21.3743  -19.0716  -16.0101 C   0  0  2  0  0  0  0  0  0  0  0  0
   20.6507  -19.9133  -16.9590 N   0  0  0  0  0  0  0  0  0  0  0  0
   22.6901  -19.6953  -15.7731 C   0  0  0  0  0  0  0  0  0  0  0  0
   22.7246  -20.9622  -15.6424 O   0  0  0  0  0  0  0  0  0  0  0  0
   18.0913  -18.4680  -14.9731 C   0  0  0  0  0  0  0  0  0  0  0  0
   17.0094  -17.5990  -15.1326 C   0  0  0  0  0  0  0  0  0  0  0  0
   27.9213  -20.4863  -19.2499 N   0  0  0  0  0  0  0  0  0  0  0  0
   28.8319  -19.5235  -18.7017 C   0  0  0  0  0  0  0  0  0  0  0  0
   30.0533  -19.8665  -18.6481 N   0  0  0  0  0  0  0  0  0  0  0  0
   28.3987  -18.2558  -18.2347 N   0  0  0  0  0  0  0  0  0  0  0  0
   27.0257  -17.8241  -18.3372 C   0  0  0  0  0  0  0  0  0  0  0  0
   26.0462  -18.6991  -17.6168 C   0  0  0  0  0  0  0  0  0  0  0  0
   26.1741  -18.7520  -16.1464 C   0  0  0  0  0  0  0  0  0  0  0  0
   25.1488  -19.5844  -15.4120 C   0  0  2  0  0  0  0  0  0  0  0  0
   23.8575  -18.9229  -15.6934 N   0  0  0  0  0  0  0  0  0  0  0  0
   25.2896  -19.5389  -13.9432 C   0  0  0  0  0  0  0  0  0  0  0  0
   25.1128  -18.4306  -13.3263 O   0  0  0  0  0  0  0  0  0  0  0  0
   30.8539  -19.3388  -18.2984 C   0  0  0  0  0  0  0  0  0  0  0  0
   20.9054  -19.1604  -11.1600 S   0  0  0  0  0  0  0  0  0  0  0  0
   21.4661  -20.5748  -10.1723 C   0  0  0  0  0  0  0  0  0  0  0  0
   23.2573  -20.6409  -10.2010 C   0  0  0  0  0  0  0  0  0  0  0  0
   23.7778  -20.5770  -11.6087 C   0  0  1  0  0  0  0  0  0  0  0  0
   25.2924  -20.6153  -11.6781 N   0  0  0  0  0  0  0  0  0  0  0  0
   25.6114  -20.6491  -13.1135 C   0  0  0  0  0  0  0  0  0  0  0  0
   25.8615  -21.8327  -11.0702 O   0  0  0  0  0  0  0  0  0  0  0  0
   26.1408  -21.8841   -9.8453 O   0  0  0  0  0  0  0  0  0  0  0  0
  2  1  1  0
  3  2  2  0
  4  3  1  0
  5 11  1  0
  5  4  2  0
  6  7  1  0
  6  5  1  0
  7  9  1  0
  7  8  1  6
  9 21  1  0
 10  9  2  0
 11 12  2  0
 12  2  1  0
 13 14  1  0
 14 15  2  0
 16 14  1  0
 16 17  1  0
 18 17  1  0
 19 18  1  0
 20 19  1  6
 21 20  1  0
 22 20  1  0
 22 29  1  0
 23 22  2  0
 25 24  1  0
 25 26  1  0
 26 27  1  0
 28 27  1  6
 28 29  1  0
 28 30  1  0
 30 31  2  0
 30 32  1  0
M  END
$$$$
