YRM.pdb
     RDKit          3D

 32 32  0  0  1  0  0  0  0  0999 V2000
   28.1140  -11.5383  -17.9310 O   0  0  0  0  0  0  0  0  0  0  0  0
   27.5897  -12.7631  -17.4780 C   0  0  0  0  0  0  0  0  0  0  0  0
   26.8944  -13.5920  -18.3421 C   0  0  0  0  0  0  0  0  0  0  0  0
   26.3723  -14.7918  -17.9219 C   0  0  0  0  0  0  0  0  0  0  0  0
   26.5360  -15.2073  -16.5899 C   0  0  0  0  0  0  0  0  0  0  0  0
   25.9589  -16.5010  -16.1764 C   0  0  0  0  0  0  0  0  0  0  0  0
   26.9793  -17.6262  -16.1108 C   0  0  2  0  0  0  0  0  0  0  0  0
   27.4310  -17.9494  -17.4613 N   0  0  0  0  0  0  0  0  0  0  0  0
   26.4445  -18.8634  -15.5108 C   0  0  0  0  0  0  0  0  0  0  0  0
   25.9338  -19.7250  -16.2982 O   0  0  0  0  0  0  0  0  0  0  0  0
   27.2254  -14.3800  -15.7487 C   0  0  0  0  0  0  0  0  0  0  0  0
   27.7578  -13.1597  -16.1712 C   0  0  0  0  0  0  0  0  0  0  0  0
   22.3705  -21.6702   -9.3603 N   0  0  0  0  0  0  0  0  0  0  0  0
   23.6396  -21.8123   -8.7077 C   0  0  0  0  0  0  0  0  0  0  0  0
   23.6138  -21.9645   -7.4474 N   0  0  0  0  0  0  0  0  0  0  0  0
   24.8642  -21.7781   -9.4235 N   0  0  0  0  0  0  0  0  0  0  0  0
   24.9144  -21.6558  -10.8603 C   0  0  0  0  0  0  0  0  0  0  0  0
   26.2973  -21.6810  -11.4358 C   0  0  0  0  0  0  0  0  0  0  0  0
   26.6874  -20.5139  -12.2525 C   0  0  0  0  0  0  0  0  0  0  0  0
   25.9673  -20.3448  -13.5703 C   0  0  2  0  0  0  0  0  0  0  0  0
   26.4952  -19.0815  -14.1267 N   0  0  0  0  0  0  0  0  0  0  0  0
   24.5149  -20.1225  -13.4283 C   0  0  0  0  0  0  0  0  0  0  0  0
   24.0872  -18.9856  -13.0223 O   0  0  0  0  0  0  0  0  0  0  0  0
   24.3927  -22.0832   -6.7987 C   0  0  0  0  0  0  0  0  0  0  0  0
   21.5050  -18.6312  -17.5003 S   0  0  0  0  0  0  0  0  0  0  0  0
   20.0131  -18.6301  -16.4686 C   0  0  0  0  0  0  0  0  0  0  0  0
   20.3185  -19.5954  -14.9893 C   0  0  0  0  0  0  0  0  0  0  0  0
   21.7817  -19.8979  -14.8342 C   0  0  1  0  0  0  0  0  0  0  0  0
   22.0845  -20.7184  -13.5951 N   0  0  0  0  0  0  0  0  0  0  0  0
   23.5046  -21.0833  -13.7123 C   0  0  0  0  0  0  0  0  0  0  0  0
   21.3097  -21.9721  -13.5366 O   0  0  0  0  0  0  0  0  0  0  0  0
   21.8021  -23.0647  -13.9170 O   0  0  0  0  0  0  0  0  0  0  0  0
  2  1  1  0
  3  2  2  0
  4  3  1  0
  5 11  1  0
  5  4  2  0
  6  7  1  0
  6  5  1  0
  7  9  1  0
  7  8  1  6
  9 21  1  0
 10  9  2  0
 11 12  2  0
 12  2  1  0
 13 14  1  0
 14 15  2  0
 16 14  1  0
 16 17  1  0
 18 17  1  0
 19 18  1  0
 20 19  1  1
 21 20  1  0
 22 20  1  0
 22 29  1  0
 23 22  2  0
 25 24  1  0
 25 26  1  0
 26 27  1  0
 28 27  1  1
 28 29  1  0
 28 30  1  0
 30 31  2  0
 30 32  1  0
M  END
$$$$
