YRM.pdb
     RDKit          3D

 32 32  0  0  1  0  0  0  0  0999 V2000
   20.4880  -14.0848  -18.4800 O   0  0  0  0  0  0  0  0  0  0  0  0
   20.9180  -15.1666  -17.6895 C   0  0  0  0  0  0  0  0  0  0  0  0
   22.2687  -15.4048  -17.4997 C   0  0  0  0  0  0  0  0  0  0  0  0
   22.7118  -16.4558  -16.7331 C   0  0  0  0  0  0  0  0  0  0  0  0
   21.7915  -17.3210  -16.1183 C   0  0  0  0  0  0  0  0  0  0  0  0
   22.3065  -18.4394  -15.3049 C   0  0  0  0  0  0  0  0  0  0  0  0
   22.8300  -19.6010  -16.1346 C   0  0  2  0  0  0  0  0  0  0  0  0
   21.7174  -20.2340  -16.8375 N   0  0  0  0  0  0  0  0  0  0  0  0
   23.4968  -20.6399  -15.3268 C   0  0  0  0  0  0  0  0  0  0  0  0
   22.7807  -21.6053  -14.9044 O   0  0  0  0  0  0  0  0  0  0  0  0
   20.4619  -17.0733  -16.3131 C   0  0  0  0  0  0  0  0  0  0  0  0
   20.0067  -16.0064  -17.0913 C   0  0  0  0  0  0  0  0  0  0  0  0
   27.2957  -20.7328  -19.1156 N   0  0  0  0  0  0  0  0  0  0  0  0
   28.6584  -20.6357  -18.6793 C   0  0  0  0  0  0  0  0  0  0  0  0
   29.4031  -19.8343  -19.3241 N   0  0  0  0  0  0  0  0  0  0  0  0
   29.1585  -21.3964  -17.5911 N   0  0  0  0  0  0  0  0  0  0  0  0
   28.3113  -22.2482  -16.7919 C   0  0  0  0  0  0  0  0  0  0  0  0
   27.3252  -21.5135  -15.9363 C   0  0  0  0  0  0  0  0  0  0  0  0
   26.4242  -22.3463  -15.1141 C   0  0  0  0  0  0  0  0  0  0  0  0
   25.4853  -21.6082  -14.1882 C   0  0  2  0  0  0  0  0  0  0  0  0
   24.8661  -20.5666  -15.0343 N   0  0  0  0  0  0  0  0  0  0  0  0
   26.1735  -20.8677  -13.1125 C   0  0  0  0  0  0  0  0  0  0  0  0
   27.4040  -21.1185  -12.8609 O   0  0  0  0  0  0  0  0  0  0  0  0
   30.4035  -19.6619  -19.2193 C   0  0  0  0  0  0  0  0  0  0  0  0
   20.7696  -19.1182   -8.9268 S   0  0  0  0  0  0  0  0  0  0  0  0
   21.4611  -20.7125   -9.4467 C   0  0  0  0  0  0  0  0  0  0  0  0
   23.2502  -20.6024   -9.4617 C   0  0  0  0  0  0  0  0  0  0  0  0
   23.7619  -20.3099  -10.8435 C   0  0  2  0  0  0  0  0  0  0  0  0
   25.2685  -20.1413  -10.8893 N   0  0  0  0  0  0  0  0  0  0  0  0
   25.5820  -19.8614  -12.2988 C   0  0  0  0  0  0  0  0  0  0  0  0
   25.9925  -21.3695  -10.5112 O   0  0  0  0  0  0  0  0  0  0  0  0
   25.7812  -22.4613  -11.0981 O   0  0  0  0  0  0  0  0  0  0  0  0
  2  1  1  0
  3  2  2  0
  4  3  1  0
  5 11  1  0
  5  4  2  0
  6  7  1  0
  6  5  1  0
  7  9  1  0
  7  8  1  1
  9 21  1  0
 10  9  2  0
 11 12  2  0
 12  2  1  0
 13 14  1  0
 14 15  2  0
 16 14  1  0
 16 17  1  0
 18 17  1  0
 19 18  1  0
 20 19  1  6
 21 20  1  0
 22 20  1  0
 22 29  1  0
 23 22  2  0
 25 24  1  0
 25 26  1  0
 26 27  1  0
 28 27  1  1
 28 29  1  0
 28 30  1  0
 30 31  2  0
 30 32  1  0
M  END
$$$$
