YRM.pdb
     RDKit          3D

 32 32  0  0  1  0  0  0  0  0999 V2000
   28.6512  -13.7531  -19.1128 O   0  0  0  0  0  0  0  0  0  0  0  0
   27.9484  -14.5579  -18.1971 C   0  0  0  0  0  0  0  0  0  0  0  0
   27.7777  -14.1457  -16.8864 C   0  0  0  0  0  0  0  0  0  0  0  0
   27.0963  -14.9155  -15.9744 C   0  0  0  0  0  0  0  0  0  0  0  0
   26.5518  -16.1522  -16.3585 C   0  0  0  0  0  0  0  0  0  0  0  0
   25.8290  -16.9509  -15.3498 C   0  0  0  0  0  0  0  0  0  0  0  0
   26.7434  -17.7979  -14.4790 C   0  0  2  0  0  0  0  0  0  0  0  0
   27.5275  -18.6918  -15.3268 N   0  0  0  0  0  0  0  0  0  0  0  0
   26.0127  -18.6321  -13.5061 C   0  0  0  0  0  0  0  0  0  0  0  0
   25.0726  -18.0793  -12.8474 O   0  0  0  0  0  0  0  0  0  0  0  0
   26.7267  -16.5458  -17.6553 C   0  0  0  0  0  0  0  0  0  0  0  0
   27.4185  -15.7669  -18.5858 C   0  0  0  0  0  0  0  0  0  0  0  0
   23.2960  -26.5843  -14.8567 N   0  0  0  0  0  0  0  0  0  0  0  0
   23.1169  -25.2101  -15.2253 C   0  0  0  0  0  0  0  0  0  0  0  0
   22.5075  -24.9922  -16.3179 N   0  0  0  0  0  0  0  0  0  0  0  0
   23.5984  -24.1443  -14.4220 N   0  0  0  0  0  0  0  0  0  0  0  0
   24.1877  -24.3629  -13.1232 C   0  0  0  0  0  0  0  0  0  0  0  0
   24.5084  -23.1085  -12.3697 C   0  0  0  0  0  0  0  0  0  0  0  0
   25.2126  -22.0531  -13.1255 C   0  0  0  0  0  0  0  0  0  0  0  0
   25.5519  -20.7931  -12.3633 C   0  0  2  0  0  0  0  0  0  0  0  0
   26.3414  -19.9814  -13.3131 N   0  0  0  0  0  0  0  0  0  0  0  0
   26.4506  -21.0188  -11.2143 C   0  0  0  0  0  0  0  0  0  0  0  0
   27.0489  -22.1446  -11.0925 O   0  0  0  0  0  0  0  0  0  0  0  0
   22.2413  -24.1011  -16.7381 C   0  0  0  0  0  0  0  0  0  0  0  0
   28.7294  -19.7462   -4.0751 S   0  0  0  0  0  0  0  0  0  0  0  0
   28.7831  -19.4608   -5.8656 C   0  0  0  0  0  0  0  0  0  0  0  0
   27.1117  -19.4651   -6.5137 C   0  0  0  0  0  0  0  0  0  0  0  0
   27.1077  -19.2424   -7.9993 C   0  0  1  0  0  0  0  0  0  0  0  0
   26.6914  -20.4757   -8.7777 N   0  0  0  0  0  0  0  0  0  0  0  0
   26.7308  -20.0705  -10.1911 C   0  0  0  0  0  0  0  0  0  0  0  0
   25.3111  -20.9011   -8.4785 O   0  0  0  0  0  0  0  0  0  0  0  0
   24.3257  -20.3898   -9.0690 O   0  0  0  0  0  0  0  0  0  0  0  0
  2  1  1  0
  3  2  2  0
  4  3  1  0
  5 11  1  0
  5  4  2  0
  6  7  1  0
  6  5  1  0
  7  9  1  0
  7  8  1  6
  9 21  1  0
 10  9  2  0
 11 12  2  0
 12  2  1  0
 13 14  1  0
 14 15  2  0
 16 14  1  0
 16 17  1  0
 18 17  1  0
 19 18  1  0
 20 19  1  6
 21 20  1  0
 22 20  1  0
 22 29  1  0
 23 22  2  0
 25 24  1  0
 25 26  1  0
 26 27  1  0
 28 27  1  6
 28 29  1  0
 28 30  1  0
 30 31  2  0
 30 32  1  0
M  END
$$$$
