YRM.pdb
     RDKit          3D

 32 32  0  0  1  0  0  0  0  0999 V2000
   17.7867  -22.3169  -11.8498 O   0  0  0  0  0  0  0  0  0  0  0  0
   18.8633  -22.2421  -12.7528 C   0  0  0  0  0  0  0  0  0  0  0  0
   18.6870  -21.6943  -14.0121 C   0  0  0  0  0  0  0  0  0  0  0  0
   19.7234  -21.6121  -14.9110 C   0  0  0  0  0  0  0  0  0  0  0  0
   20.9992  -22.0880  -14.5658 C   0  0  0  0  0  0  0  0  0  0  0  0
   22.0856  -21.9842  -15.5591 C   0  0  0  0  0  0  0  0  0  0  0  0
   23.1493  -20.9627  -15.1890 C   0  0  2  0  0  0  0  0  0  0  0  0
   22.5491  -19.6320  -15.1485 N   0  0  0  0  0  0  0  0  0  0  0  0
   24.2715  -20.9176  -16.1456 C   0  0  0  0  0  0  0  0  0  0  0  0
   24.1843  -20.0954  -17.1149 O   0  0  0  0  0  0  0  0  0  0  0  0
   21.1590  -22.6249  -13.3194 C   0  0  0  0  0  0  0  0  0  0  0  0
   20.1088  -22.7106  -12.4025 C   0  0  0  0  0  0  0  0  0  0  0  0
   31.2301  -25.5701  -15.4159 N   0  0  0  0  0  0  0  0  0  0  0  0
   31.5689  -24.8100  -16.5838 C   0  0  0  0  0  0  0  0  0  0  0  0
   32.2420  -25.4131  -17.4757 N   0  0  0  0  0  0  0  0  0  0  0  0
   31.1833  -23.4535  -16.7394 N   0  0  0  0  0  0  0  0  0  0  0  0
   30.0921  -22.8718  -15.9959 C   0  0  0  0  0  0  0  0  0  0  0  0
   28.8672  -22.5913  -16.8115 C   0  0  0  0  0  0  0  0  0  0  0  0
   27.7470  -21.9368  -16.1059 C   0  0  0  0  0  0  0  0  0  0  0  0
   26.5233  -21.6212  -16.9345 C   0  0  2  0  0  0  0  0  0  0  0  0
   25.3904  -21.7488  -15.9940 N   0  0  0  0  0  0  0  0  0  0  0  0
   26.2532  -22.6120  -17.9948 C   0  0  0  0  0  0  0  0  0  0  0  0
   25.2190  -23.3625  -17.9088 O   0  0  0  0  0  0  0  0  0  0  0  0
   32.5890  -25.0589  -18.3678 C   0  0  0  0  0  0  0  0  0  0  0  0
   22.8934  -25.5806  -23.1277 S   0  0  0  0  0  0  0  0  0  0  0  0
   23.5551  -24.9322  -21.5682 C   0  0  0  0  0  0  0  0  0  0  0  0
   24.6569  -23.5625  -21.9194 C   0  0  0  0  0  0  0  0  0  0  0  0
   25.2311  -22.9927  -20.6536 C   0  0  1  0  0  0  0  0  0  0  0  0
   26.5511  -23.6314  -20.2668 N   0  0  0  0  0  0  0  0  0  0  0  0
   27.0584  -22.8207  -19.1493 C   0  0  0  0  0  0  0  0  0  0  0  0
   27.5534  -23.5707  -21.3472 O   0  0  0  0  0  0  0  0  0  0  0  0
   28.1807  -22.5105  -21.5998 O   0  0  0  0  0  0  0  0  0  0  0  0
  2  1  1  0
  3  2  2  0
  4  3  1  0
  5 11  1  0
  5  4  2  0
  6  7  1  0
  6  5  1  0
  7  9  1  0
  7  8  1  6
  9 21  1  0
 10  9  2  0
 11 12  2  0
 12  2  1  0
 13 14  1  0
 14 15  2  0
 16 14  1  0
 16 17  1  0
 18 17  1  0
 19 18  1  0
 20 19  1  1
 21 20  1  0
 22 20  1  0
 22 29  1  0
 23 22  2  0
 25 24  1  0
 25 26  1  0
 26 27  1  0
 28 27  1  1
 28 29  1  0
 28 30  1  0
 30 31  2  0
 30 32  1  0
M  END
$$$$
