YRM.pdb
     RDKit          3D

 32 32  0  0  1  0  0  0  0  0999 V2000
   27.4719  -19.9383   -5.2141 O   0  0  0  0  0  0  0  0  0  0  0  0
   27.0658  -19.8992   -6.5608 C   0  0  0  0  0  0  0  0  0  0  0  0
   27.7143  -19.0769   -7.4665 C   0  0  0  0  0  0  0  0  0  0  0  0
   27.3342  -19.0212   -8.7860 C   0  0  0  0  0  0  0  0  0  0  0  0
   26.2665  -19.8080   -9.2489 C   0  0  0  0  0  0  0  0  0  0  0  0
   25.8868  -19.7186  -10.6722 C   0  0  0  0  0  0  0  0  0  0  0  0
   26.2502  -20.9577  -11.4750 C   0  0  2  0  0  0  0  0  0  0  0  0
   27.7001  -21.1315  -11.4672 N   0  0  0  0  0  0  0  0  0  0  0  0
   25.8164  -20.8871  -12.8833 C   0  0  0  0  0  0  0  0  0  0  0  0
   26.5525  -20.2343  -13.6927 O   0  0  0  0  0  0  0  0  0  0  0  0
   25.6365  -20.6157   -8.3445 C   0  0  0  0  0  0  0  0  0  0  0  0
   26.0191  -20.6757   -7.0024 C   0  0  0  0  0  0  0  0  0  0  0  0
   24.8205  -25.8427  -15.0377 N   0  0  0  0  0  0  0  0  0  0  0  0
   25.0329  -25.9135  -16.4542 C   0  0  0  0  0  0  0  0  0  0  0  0
   25.9690  -26.6754  -16.8486 N   0  0  0  0  0  0  0  0  0  0  0  0
   24.2486  -25.1693  -17.3730 N   0  0  0  0  0  0  0  0  0  0  0  0
   23.1103  -24.3859  -16.9576 C   0  0  0  0  0  0  0  0  0  0  0  0
   23.4408  -22.9844  -16.5443 C   0  0  0  0  0  0  0  0  0  0  0  0
   23.9616  -22.8122  -15.1731 C   0  0  0  0  0  0  0  0  0  0  0  0
   24.2256  -21.3925  -14.7277 C   0  0  2  0  0  0  0  0  0  0  0  0
   24.6382  -21.5136  -13.3138 N   0  0  0  0  0  0  0  0  0  0  0  0
   23.0175  -20.5446  -14.7020 C   0  0  0  0  0  0  0  0  0  0  0  0
   22.2733  -20.5377  -13.6598 O   0  0  0  0  0  0  0  0  0  0  0  0
   26.2591  -26.8960  -17.8018 C   0  0  0  0  0  0  0  0  0  0  0  0
   19.4573  -14.0898  -17.3954 S   0  0  0  0  0  0  0  0  0  0  0  0
   20.9105  -15.1742  -17.3457 C   0  0  0  0  0  0  0  0  0  0  0  0
   20.5049  -16.6620  -16.4316 C   0  0  0  0  0  0  0  0  0  0  0  0
   21.6951  -17.5723  -16.3255 C   0  0  1  0  0  0  0  0  0  0  0  0
   21.3837  -18.8652  -15.5964 N   0  0  0  0  0  0  0  0  0  0  0  0
   22.5840  -19.6991  -15.7612 C   0  0  0  0  0  0  0  0  0  0  0  0
   20.2511  -19.5985  -16.1922 O   0  0  0  0  0  0  0  0  0  0  0  0
   19.0728  -19.4228  -15.7900 O   0  0  0  0  0  0  0  0  0  0  0  0
  2  1  1  0
  3  2  2  0
  4  3  1  0
  5 11  1  0
  5  4  2  0
  6  7  1  0
  6  5  1  0
  7  9  1  0
  7  8  1  6
  9 21  1  0
 10  9  2  0
 11 12  2  0
 12  2  1  0
 13 14  1  0
 14 15  2  0
 16 14  1  0
 16 17  1  0
 18 17  1  0
 19 18  1  0
 20 19  1  1
 21 20  1  0
 22 20  1  0
 22 29  1  0
 23 22  2  0
 25 24  1  0
 25 26  1  0
 26 27  1  0
 28 27  1  1
 28 29  1  0
 28 30  1  0
 30 31  2  0
 30 32  1  0
M  END
$$$$
