YRM.pdb
     RDKit          3D

 32 32  0  0  1  0  0  0  0  0999 V2000
   23.4637  -21.4381   -7.2876 O   0  0  0  0  0  0  0  0  0  0  0  0
   24.0454  -21.1675   -8.5400 C   0  0  0  0  0  0  0  0  0  0  0  0
   23.2992  -20.5835   -9.5496 C   0  0  0  0  0  0  0  0  0  0  0  0
   23.8455  -20.3113  -10.7809 C   0  0  0  0  0  0  0  0  0  0  0  0
   25.1897  -20.6237  -11.0435 C   0  0  0  0  0  0  0  0  0  0  0  0
   25.7393  -20.3181  -12.3786 C   0  0  0  0  0  0  0  0  0  0  0  0
   24.8283  -20.7415  -13.5200 C   0  0  2  0  0  0  0  0  0  0  0  0
   24.7054  -22.1966  -13.5270 N   0  0  0  0  0  0  0  0  0  0  0  0
   25.3260  -20.3289  -14.8461 C   0  0  0  0  0  0  0  0  0  0  0  0
   25.9102  -21.2118  -15.5550 O   0  0  0  0  0  0  0  0  0  0  0  0
   25.9145  -21.1984  -10.0377 C   0  0  0  0  0  0  0  0  0  0  0  0
   25.3636  -21.4770   -8.7847 C   0  0  0  0  0  0  0  0  0  0  0  0
   21.9698  -21.9818  -21.2542 N   0  0  0  0  0  0  0  0  0  0  0  0
   22.8032  -22.3752  -20.1554 C   0  0  0  0  0  0  0  0  0  0  0  0
   22.7150  -23.5862  -19.7837 N   0  0  0  0  0  0  0  0  0  0  0  0
   23.6769  -21.4646  -19.5071 N   0  0  0  0  0  0  0  0  0  0  0  0
   23.7287  -20.0652  -19.8548 C   0  0  0  0  0  0  0  0  0  0  0  0
   24.6581  -19.2507  -19.0081 C   0  0  0  0  0  0  0  0  0  0  0  0
   24.6287  -19.5226  -17.5567 C   0  0  0  0  0  0  0  0  0  0  0  0
   25.5422  -18.6805  -16.6965 C   0  0  2  0  0  0  0  0  0  0  0  0
   25.1633  -19.0151  -15.3077 N   0  0  0  0  0  0  0  0  0  0  0  0
   25.3014  -17.2293  -16.8194 C   0  0  0  0  0  0  0  0  0  0  0  0
   24.9546  -16.5573  -15.7857 O   0  0  0  0  0  0  0  0  0  0  0  0
   23.1981  -24.0605  -19.0200 C   0  0  0  0  0  0  0  0  0  0  0  0
   30.7996  -12.5918  -18.0624 S   0  0  0  0  0  0  0  0  0  0  0  0
   29.9681  -14.2037  -18.0878 C   0  0  0  0  0  0  0  0  0  0  0  0
   28.1957  -13.9545  -17.9884 C   0  0  0  0  0  0  0  0  0  0  0  0
   27.4670  -15.2675  -17.9476 C   0  0  1  0  0  0  0  0  0  0  0  0
   25.9594  -15.1046  -17.9779 N   0  0  0  0  0  0  0  0  0  0  0  0
   25.4248  -16.4742  -18.0191 C   0  0  0  0  0  0  0  0  0  0  0  0
   25.4843  -14.4084  -19.1884 O   0  0  0  0  0  0  0  0  0  0  0  0
   24.9928  -13.2525  -19.1287 O   0  0  0  0  0  0  0  0  0  0  0  0
  2  1  1  0
  3  2  2  0
  4  3  1  0
  5 11  1  0
  5  4  2  0
  6  7  1  0
  6  5  1  0
  7  9  1  0
  7  8  1  6
  9 21  1  0
 10  9  2  0
 11 12  2  0
 12  2  1  0
 13 14  1  0
 14 15  2  0
 16 14  1  0
 16 17  1  0
 18 17  1  0
 19 18  1  0
 20 19  1  6
 21 20  1  0
 22 20  1  0
 22 29  1  0
 23 22  2  0
 25 24  1  0
 25 26  1  0
 26 27  1  0
 28 27  1  1
 28 29  1  0
 28 30  1  0
 30 31  2  0
 30 32  1  0
M  END
$$$$
