YRM.pdb
     RDKit          3D

 32 32  0  0  1  0  0  0  0  0999 V2000
   19.9777  -22.1336   -7.9392 O   0  0  0  0  0  0  0  0  0  0  0  0
   20.9095  -21.6105   -8.8547 C   0  0  0  0  0  0  0  0  0  0  0  0
   20.9170  -22.0387  -10.1714 C   0  0  0  0  0  0  0  0  0  0  0  0
   21.8183  -21.5430  -11.0828 C   0  0  0  0  0  0  0  0  0  0  0  0
   22.7624  -20.5790  -10.6920 C   0  0  0  0  0  0  0  0  0  0  0  0
   23.7150  -20.0728  -11.6990 C   0  0  0  0  0  0  0  0  0  0  0  0
   24.8271  -21.0559  -12.0289 C   0  0  2  0  0  0  0  0  0  0  0  0
   25.7218  -21.1775  -10.8812 N   0  0  0  0  0  0  0  0  0  0  0  0
   25.6416  -20.6462  -13.1887 C   0  0  0  0  0  0  0  0  0  0  0  0
   26.4388  -19.6652  -13.0296 O   0  0  0  0  0  0  0  0  0  0  0  0
   22.7428  -20.1646   -9.3900 C   0  0  0  0  0  0  0  0  0  0  0  0
   21.8286  -20.6655   -8.4601 C   0  0  0  0  0  0  0  0  0  0  0  0
   30.8478  -25.9648  -16.5329 N   0  0  0  0  0  0  0  0  0  0  0  0
   29.4163  -25.8913  -16.5780 C   0  0  0  0  0  0  0  0  0  0  0  0
   28.7950  -26.9964  -16.6485 N   0  0  0  0  0  0  0  0  0  0  0  0
   28.7231  -24.6536  -16.5535 N   0  0  0  0  0  0  0  0  0  0  0  0
   29.4098  -23.3847  -16.5681 C   0  0  0  0  0  0  0  0  0  0  0  0
   28.5054  -22.1908  -16.5355 C   0  0  0  0  0  0  0  0  0  0  0  0
   27.4375  -22.2067  -15.5154 C   0  0  0  0  0  0  0  0  0  0  0  0
   26.5151  -21.0099  -15.4893 C   0  0  2  0  0  0  0  0  0  0  0  0
   25.5410  -21.3105  -14.4193 N   0  0  0  0  0  0  0  0  0  0  0  0
   25.7040  -20.8593  -16.7134 C   0  0  0  0  0  0  0  0  0  0  0  0
   24.7500  -21.6821  -16.9436 O   0  0  0  0  0  0  0  0  0  0  0  0
   27.7904  -27.1658  -16.7084 C   0  0  0  0  0  0  0  0  0  0  0  0
   21.0246  -17.6357  -17.3732 S   0  0  0  0  0  0  0  0  0  0  0  0
   22.1670  -18.3388  -18.5941 C   0  0  0  0  0  0  0  0  0  0  0  0
   23.8156  -17.7019  -18.2942 C   0  0  0  0  0  0  0  0  0  0  0  0
   24.8196  -18.3523  -19.2028 C   0  0  2  0  0  0  0  0  0  0  0  0
   25.0263  -19.8228  -18.8942 N   0  0  0  0  0  0  0  0  0  0  0  0
   25.8831  -19.8487  -17.6989 C   0  0  0  0  0  0  0  0  0  0  0  0
   25.7437  -20.5364  -19.9674 O   0  0  0  0  0  0  0  0  0  0  0  0
   26.9986  -20.6154  -19.9761 O   0  0  0  0  0  0  0  0  0  0  0  0
  2  1  1  0
  3  2  2  0
  4  3  1  0
  5 11  1  0
  5  4  2  0
  6  7  1  0
  6  5  1  0
  7  9  1  0
  7  8  1  1
  9 21  1  0
 10  9  2  0
 11 12  2  0
 12  2  1  0
 13 14  1  0
 14 15  2  0
 16 14  1  0
 16 17  1  0
 18 17  1  0
 19 18  1  0
 20 19  1  6
 21 20  1  0
 22 20  1  0
 22 29  1  0
 23 22  2  0
 25 24  1  0
 25 26  1  0
 26 27  1  0
 28 27  1  1
 28 29  1  0
 28 30  1  0
 30 31  2  0
 30 32  1  0
M  END
$$$$
