GYL.pdb
     RDKit          3D

 25 25  0  0  1  0  0  0  0  0999 V2000
   23.2867  -18.0337  -18.4732 N   0  0  0  0  0  0  0  0  0  0  0  0
   23.6789  -17.8129  -17.1116 C   0  0  0  0  0  0  0  0  0  0  0  0
   23.4204  -19.0460  -16.3281 C   0  0  0  0  0  0  0  0  0  0  0  0
   22.7605  -20.0034  -16.8149 O   0  0  0  0  0  0  0  0  0  0  0  0
   29.3719  -22.0858  -16.8958 O   0  0  0  0  0  0  0  0  0  0  0  0
   28.2974  -21.7664  -16.0750 C   0  0  0  0  0  0  0  0  0  0  0  0
   28.2002  -20.5655  -15.4076 C   0  0  0  0  0  0  0  0  0  0  0  0
   27.1518  -20.2168  -14.5880 C   0  0  0  0  0  0  0  0  0  0  0  0
   26.1261  -21.1083  -14.4106 C   0  0  0  0  0  0  0  0  0  0  0  0
   24.9861  -20.7575  -13.5581 C   0  0  0  0  0  0  0  0  0  0  0  0
   23.7418  -20.4611  -14.3101 C   0  0  2  0  0  0  0  0  0  0  0  0
   23.9099  -19.1679  -15.0219 N   0  0  0  0  0  0  0  0  0  0  0  0
   22.5906  -20.2430  -13.4244 C   0  0  0  0  0  0  0  0  0  0  0  0
   22.7580  -19.4595  -12.4135 O   0  0  0  0  0  0  0  0  0  0  0  0
   26.1869  -22.3379  -15.0697 C   0  0  0  0  0  0  0  0  0  0  0  0
   27.2421  -22.6515  -15.8754 C   0  0  0  0  0  0  0  0  0  0  0  0
   18.4454  -18.0240  -14.9659 C   0  0  0  0  0  0  0  0  0  0  0  0
   19.5115  -18.4732  -13.9694 C   0  0  1  0  0  0  0  0  0  0  0  0
   19.5133  -17.4749  -12.8023 C   0  0  0  0  0  0  0  0  0  0  0  0
   19.1545  -19.7949  -13.3789 C   0  0  0  0  0  0  0  0  0  0  0  0
   20.2851  -20.4416  -12.5882 C   0  0  2  0  0  0  0  0  0  0  0  0
   21.2894  -20.8031  -13.5692 N   0  0  0  0  0  0  0  0  0  0  0  0
   19.8399  -21.6248  -11.8552 C   0  0  0  0  0  0  0  0  0  0  0  0
   20.1338  -22.7945  -12.1593 O   0  0  0  0  0  0  0  0  0  0  0  0
   19.0213  -21.4938  -10.7189 O   0  0  0  0  0  0  0  0  0  0  0  0
  2  1  1  0
  3  2  1  0
  4  3  2  0
  6  5  1  0
  6 16  2  0
  7  6  1  0
  8  7  2  0
  8  9  1  0
  9 15  2  0
 10  9  1  0
 11 10  1  1
 11 12  1  0
 12  3  1  0
 13 22  1  0
 13 11  1  0
 14 13  2  0
 15 16  1  0
 18 17  1  6
 19 18  1  0
 20 18  1  0
 21 22  1  0
 21 20  1  6
 23 21  1  0
 23 25  1  0
 24 23  2  0
M  END
$$$$
