GYL.pdb
     RDKit          3D

 25 25  0  0  1  0  0  0  0  0999 V2000
   27.8646  -20.6936  -14.4488 N   0  0  0  0  0  0  0  0  0  0  0  0
   27.5491  -21.5731  -13.3610 C   0  0  0  0  0  0  0  0  0  0  0  0
   26.9123  -20.7887  -12.2744 C   0  0  0  0  0  0  0  0  0  0  0  0
   26.8697  -19.5296  -12.3158 O   0  0  0  0  0  0  0  0  0  0  0  0
   21.5449  -19.5950  -15.0923 O   0  0  0  0  0  0  0  0  0  0  0  0
   22.1856  -19.9546  -13.9131 C   0  0  0  0  0  0  0  0  0  0  0  0
   22.4554  -19.0539  -12.9066 C   0  0  0  0  0  0  0  0  0  0  0  0
   23.0872  -19.3753  -11.7276 C   0  0  0  0  0  0  0  0  0  0  0  0
   23.4818  -20.6714  -11.5206 C   0  0  0  0  0  0  0  0  0  0  0  0
   24.1404  -21.0481  -10.2661 C   0  0  0  0  0  0  0  0  0  0  0  0
   25.5657  -20.6431  -10.1902 C   0  0  2  0  0  0  0  0  0  0  0  0
   26.3425  -21.4407  -11.1740 N   0  0  0  0  0  0  0  0  0  0  0  0
   26.1730  -20.9713   -8.8938 C   0  0  0  0  0  0  0  0  0  0  0  0
   26.4015  -22.2156   -8.6421 O   0  0  0  0  0  0  0  0  0  0  0  0
   23.2269  -21.6156  -12.5174 C   0  0  0  0  0  0  0  0  0  0  0  0
   22.5982  -21.2623  -13.6752 C   0  0  0  0  0  0  0  0  0  0  0  0
   29.6148  -18.0156   -5.7824 C   0  0  0  0  0  0  0  0  0  0  0  0
   28.8836  -19.1181   -6.5449 C   0  0  1  0  0  0  0  0  0  0  0  0
   29.7749  -20.3688   -6.5311 C   0  0  0  0  0  0  0  0  0  0  0  0
   27.6276  -19.5008   -5.8385 C   0  0  0  0  0  0  0  0  0  0  0  0
   26.8233  -20.5795   -6.5533 C   0  0  2  0  0  0  0  0  0  0  0  0
   26.5509  -20.0506   -7.8753 N   0  0  0  0  0  0  0  0  0  0  0  0
   25.5741  -20.8872   -5.8605 C   0  0  0  0  0  0  0  0  0  0  0  0
   24.4400  -20.6467   -6.3115 O   0  0  0  0  0  0  0  0  0  0  0  0
   25.5928  -21.4980   -4.5936 O   0  0  0  0  0  0  0  0  0  0  0  0
  2  1  1  0
  3  2  1  0
  4  3  2  0
  6  5  1  0
  6 16  2  0
  7  6  1  0
  8  7  2  0
  8  9  1  0
  9 15  2  0
 10  9  1  0
 11 10  1  1
 11 12  1  0
 12  3  1  0
 13 22  1  0
 13 11  1  0
 14 13  2  0
 15 16  1  0
 18 17  1  1
 19 18  1  0
 20 18  1  0
 21 22  1  0
 21 20  1  1
 23 21  1  0
 23 25  1  0
 24 23  2  0
M  END
$$$$
