GYL.pdb
     RDKit          3D

 25 25  0  0  1  0  0  0  0  0999 V2000
   28.2002  -20.2849  -15.6781 N   0  0  0  0  0  0  0  0  0  0  0  0
   27.9094  -21.2343  -14.6434 C   0  0  0  0  0  0  0  0  0  0  0  0
   27.1517  -20.5553  -13.5635 C   0  0  0  0  0  0  0  0  0  0  0  0
   27.1195  -19.2981  -13.4786 O   0  0  0  0  0  0  0  0  0  0  0  0
   22.2637  -18.9377  -16.9797 O   0  0  0  0  0  0  0  0  0  0  0  0
   22.7128  -19.4518  -15.7697 C   0  0  0  0  0  0  0  0  0  0  0  0
   23.1879  -20.7378  -15.6364 C   0  0  0  0  0  0  0  0  0  0  0  0
   23.6398  -21.2786  -14.4550 C   0  0  0  0  0  0  0  0  0  0  0  0
   23.6255  -20.5038  -13.3246 C   0  0  0  0  0  0  0  0  0  0  0  0
   24.1184  -21.0463  -12.0549 C   0  0  0  0  0  0  0  0  0  0  0  0
   25.4956  -20.6144  -11.7109 C   0  0  2  0  0  0  0  0  0  0  0  0
   26.4530  -21.3074  -12.6113 N   0  0  0  0  0  0  0  0  0  0  0  0
   25.8940  -21.0355  -10.3614 C   0  0  0  0  0  0  0  0  0  0  0  0
   26.0577  -22.2985  -10.1565 O   0  0  0  0  0  0  0  0  0  0  0  0
   23.1507  -19.1937  -13.4174 C   0  0  0  0  0  0  0  0  0  0  0  0
   22.7095  -18.6892  -14.6055 C   0  0  0  0  0  0  0  0  0  0  0  0
   28.7044  -18.2645   -6.5476 C   0  0  0  0  0  0  0  0  0  0  0  0
   28.1079  -19.2908   -7.5079 C   0  0  1  0  0  0  0  0  0  0  0  0
   29.0349  -20.5153   -7.5213 C   0  0  0  0  0  0  0  0  0  0  0  0
   26.7915  -19.7776   -7.0048 C   0  0  0  0  0  0  0  0  0  0  0  0
   26.1169  -20.7888   -7.9234 C   0  0  2  0  0  0  0  0  0  0  0  0
   26.1317  -20.1874   -9.2424 N   0  0  0  0  0  0  0  0  0  0  0  0
   24.7453  -21.0799   -7.5118 C   0  0  0  0  0  0  0  0  0  0  0  0
   23.7300  -20.6667   -8.0996 O   0  0  0  0  0  0  0  0  0  0  0  0
   24.4942  -21.8774   -6.3807 O   0  0  0  0  0  0  0  0  0  0  0  0
  2  1  1  0
  3  2  1  0
  4  3  2  0
  6  5  1  0
  6 16  2  0
  7  6  1  0
  8  7  2  0
  8  9  1  0
  9 15  2  0
 10  9  1  0
 11 10  1  6
 11 12  1  0
 12  3  1  0
 13 22  1  0
 13 11  1  0
 14 13  2  0
 15 16  1  0
 18 17  1  1
 19 18  1  0
 20 18  1  0
 21 22  1  0
 21 20  1  1
 23 21  1  0
 23 25  1  0
 24 23  2  0
M  END
$$$$
