GYL.pdb
     RDKit          3D

 25 25  0  0  1  0  0  0  0  0999 V2000
   27.3756  -16.7440  -19.6246 N   0  0  0  0  0  0  0  0  0  0  0  0
   27.3831  -16.8443  -18.1941 C   0  0  0  0  0  0  0  0  0  0  0  0
   26.7065  -18.1027  -17.7942 C   0  0  0  0  0  0  0  0  0  0  0  0
   26.0932  -18.8114  -18.6372 O   0  0  0  0  0  0  0  0  0  0  0  0
   24.5766  -25.4373  -13.4572 O   0  0  0  0  0  0  0  0  0  0  0  0
   25.1470  -24.2374  -13.8635 C   0  0  0  0  0  0  0  0  0  0  0  0
   25.6981  -24.0593  -15.1132 C   0  0  0  0  0  0  0  0  0  0  0  0
   26.2704  -22.8863  -15.5479 C   0  0  0  0  0  0  0  0  0  0  0  0
   26.3043  -21.8119  -14.6976 C   0  0  0  0  0  0  0  0  0  0  0  0
   26.8906  -20.5428  -15.1392 C   0  0  0  0  0  0  0  0  0  0  0  0
   26.0406  -19.7870  -16.0918 C   0  0  2  0  0  0  0  0  0  0  0  0
   26.7384  -18.5282  -16.4606 N   0  0  0  0  0  0  0  0  0  0  0  0
   24.7797  -19.3407  -15.4850 C   0  0  0  0  0  0  0  0  0  0  0  0
   24.8481  -18.4332  -14.5708 O   0  0  0  0  0  0  0  0  0  0  0  0
   25.7561  -21.9517  -13.4208 C   0  0  0  0  0  0  0  0  0  0  0  0
   25.1964  -23.1300  -13.0220 C   0  0  0  0  0  0  0  0  0  0  0  0
   21.0549  -17.8137  -18.3371 C   0  0  0  0  0  0  0  0  0  0  0  0
   21.8683  -17.8007  -17.0450 C   0  0  1  0  0  0  0  0  0  0  0  0
   21.6691  -16.4313  -16.3788 C   0  0  0  0  0  0  0  0  0  0  0  0
   21.3388  -18.8075  -16.0811 C   0  0  0  0  0  0  0  0  0  0  0  0
   22.3596  -19.2665  -15.0473 C   0  0  2  0  0  0  0  0  0  0  0  0
   23.4715  -19.8010  -15.8084 N   0  0  0  0  0  0  0  0  0  0  0  0
   21.8182  -20.2865  -14.1518 C   0  0  0  0  0  0  0  0  0  0  0  0
   22.1108  -21.4945  -14.2003 O   0  0  0  0  0  0  0  0  0  0  0  0
   20.8993  -19.9374  -13.1457 O   0  0  0  0  0  0  0  0  0  0  0  0
  2  1  1  0
  3  2  1  0
  4  3  2  0
  6  5  1  0
  6 16  2  0
  7  6  1  0
  8  7  2  0
  8  9  1  0
  9 15  2  0
 10  9  1  0
 11 10  1  1
 11 12  1  0
 12  3  1  0
 13 22  1  0
 13 11  1  0
 14 13  2  0
 15 16  1  0
 18 17  1  6
 19 18  1  0
 20 18  1  0
 21 22  1  0
 21 20  1  6
 23 21  1  0
 23 25  1  0
 24 23  2  0
M  END
$$$$
