GYL.pdb
     RDKit          3D

 25 25  0  0  1  0  0  0  0  0999 V2000
   25.6152  -34.0045  -12.8109 N   0  0  0  0  0  0  0  0  0  0  0  0
   24.6509  -34.2280  -11.7732 C   0  0  0  0  0  0  0  0  0  0  0  0
   25.0650  -33.4817  -10.5596 C   0  0  0  0  0  0  0  0  0  0  0  0
   26.1100  -32.7768  -10.5507 O   0  0  0  0  0  0  0  0  0  0  0  0
   20.9616  -28.4454  -11.3122 O   0  0  0  0  0  0  0  0  0  0  0  0
   21.5663  -29.3261  -10.4239 C   0  0  0  0  0  0  0  0  0  0  0  0
   20.9694  -30.4971  -10.0124 C   0  0  0  0  0  0  0  0  0  0  0  0
   21.5389  -31.3908   -9.1352 C   0  0  0  0  0  0  0  0  0  0  0  0
   22.7816  -31.1174   -8.6261 C   0  0  0  0  0  0  0  0  0  0  0  0
   23.4222  -32.0601   -7.7039 C   0  0  0  0  0  0  0  0  0  0  0  0
   24.6573  -32.6819   -8.2418 C   0  0  2  0  0  0  0  0  0  0  0  0
   24.2942  -33.5487   -9.3926 N   0  0  0  0  0  0  0  0  0  0  0  0
   25.2880  -33.5966   -7.2811 C   0  0  0  0  0  0  0  0  0  0  0  0
   24.8015  -34.7874   -7.1861 O   0  0  0  0  0  0  0  0  0  0  0  0
   23.4209  -29.9394   -9.0183 C   0  0  0  0  0  0  0  0  0  0  0  0
   22.8269  -29.0747   -9.8901 C   0  0  0  0  0  0  0  0  0  0  0  0
   30.5602  -33.5466   -6.6432 C   0  0  0  0  0  0  0  0  0  0  0  0
   29.0887  -33.9048   -6.8376 C   0  0  1  0  0  0  0  0  0  0  0  0
   29.0267  -35.2497   -7.5766 C   0  0  0  0  0  0  0  0  0  0  0  0
   28.4244  -34.1281   -5.5216 C   0  0  0  0  0  0  0  0  0  0  0  0
   26.9263  -34.3866   -5.6240 C   0  0  2  0  0  0  0  0  0  0  0  0
   26.4000  -33.3094   -6.4391 N   0  0  0  0  0  0  0  0  0  0  0  0
   26.2772  -34.3984   -4.3148 C   0  0  0  0  0  0  0  0  0  0  0  0
   26.4059  -35.3044   -3.4722 O   0  0  0  0  0  0  0  0  0  0  0  0
   25.4380  -33.3390   -3.9251 O   0  0  0  0  0  0  0  0  0  0  0  0
  2  1  1  0
  3  2  1  0
  4  3  2  0
  6  5  1  0
  6 16  2  0
  7  6  1  0
  8  7  2  0
  8  9  1  0
  9 15  2  0
 10  9  1  0
 11 10  1  1
 11 12  1  0
 12  3  1  0
 13 22  1  0
 13 11  1  0
 14 13  2  0
 15 16  1  0
 18 17  1  1
 19 18  1  0
 20 18  1  0
 21 22  1  0
 21 20  1  1
 23 21  1  0
 23 25  1  0
 24 23  2  0
M  END
$$$$
