GYL.pdb
     RDKit          3D

 25 25  0  0  1  0  0  0  0  0999 V2000
   25.8799  -23.7075  -15.4301 N   0  0  0  0  0  0  0  0  0  0  0  0
   25.2320  -23.4318  -14.1808 C   0  0  0  0  0  0  0  0  0  0  0  0
   26.1038  -22.5473  -13.3691 C   0  0  0  0  0  0  0  0  0  0  0  0
   27.2855  -22.2895  -13.7244 O   0  0  0  0  0  0  0  0  0  0  0  0
   27.1449  -17.5243  -17.0182 O   0  0  0  0  0  0  0  0  0  0  0  0
   26.7824  -18.0220  -15.7727 C   0  0  0  0  0  0  0  0  0  0  0  0
   25.5052  -18.4487  -15.4833 C   0  0  0  0  0  0  0  0  0  0  0  0
   25.1122  -18.9464  -14.2626 C   0  0  0  0  0  0  0  0  0  0  0  0
   26.0368  -19.0324  -13.2545 C   0  0  0  0  0  0  0  0  0  0  0  0
   25.6524  -19.5761  -11.9485 C   0  0  0  0  0  0  0  0  0  0  0  0
   26.3571  -20.8313  -11.5888 C   0  0  2  0  0  0  0  0  0  0  0  0
   25.6237  -21.9787  -12.1831 N   0  0  0  0  0  0  0  0  0  0  0  0
   26.3335  -21.0926  -10.1437 C   0  0  0  0  0  0  0  0  0  0  0  0
   25.3925  -21.8501   -9.6914 O   0  0  0  0  0  0  0  0  0  0  0  0
   27.3435  -18.6094  -13.5074 C   0  0  0  0  0  0  0  0  0  0  0  0
   27.6991  -18.1204  -14.7302 C   0  0  0  0  0  0  0  0  0  0  0  0
   28.3108  -21.3365   -4.9471 C   0  0  0  0  0  0  0  0  0  0  0  0
   27.7232  -20.0465   -5.5146 C   0  0  1  0  0  0  0  0  0  0  0  0
   28.5172  -18.8706   -4.9267 C   0  0  0  0  0  0  0  0  0  0  0  0
   27.9256  -19.9821   -6.9904 C   0  0  0  0  0  0  0  0  0  0  0  0
   26.9873  -20.8859   -7.7806 C   0  0  2  0  0  0  0  0  0  0  0  0
   27.2559  -20.6009   -9.1764 N   0  0  0  0  0  0  0  0  0  0  0  0
   25.5825  -20.6304   -7.4697 C   0  0  0  0  0  0  0  0  0  0  0  0
   24.8995  -21.3102   -6.6833 O   0  0  0  0  0  0  0  0  0  0  0  0
   24.9032  -19.5552   -8.0705 O   0  0  0  0  0  0  0  0  0  0  0  0
  2  1  1  0
  3  2  1  0
  4  3  2  0
  6  5  1  0
  6 16  2  0
  7  6  1  0
  8  7  2  0
  8  9  1  0
  9 15  2  0
 10  9  1  0
 11 10  1  1
 11 12  1  0
 12  3  1  0
 13 22  1  0
 13 11  1  0
 14 13  2  0
 15 16  1  0
 18 17  1  1
 19 18  1  0
 20 18  1  0
 21 22  1  0
 21 20  1  1
 23 21  1  0
 23 25  1  0
 24 23  2  0
M  END
$$$$
