GYL.pdb
     RDKit          3D

 25 25  0  0  1  0  0  0  0  0999 V2000
   25.9618  -25.1245  -15.9216 N   0  0  0  0  0  0  0  0  0  0  0  0
   26.1388  -23.7043  -16.0129 C   0  0  0  0  0  0  0  0  0  0  0  0
   25.0342  -23.0319  -15.2855 C   0  0  0  0  0  0  0  0  0  0  0  0
   24.0518  -23.6846  -14.8408 O   0  0  0  0  0  0  0  0  0  0  0  0
   24.2841  -21.2540   -7.8270 O   0  0  0  0  0  0  0  0  0  0  0  0
   24.3749  -20.9566   -9.1811 C   0  0  0  0  0  0  0  0  0  0  0  0
   23.2751  -20.6555   -9.9536 C   0  0  0  0  0  0  0  0  0  0  0  0
   23.3286  -20.3567  -11.2954 C   0  0  0  0  0  0  0  0  0  0  0  0
   24.5465  -20.3522  -11.9239 C   0  0  0  0  0  0  0  0  0  0  0  0
   24.6375  -20.0190  -13.3487 C   0  0  0  0  0  0  0  0  0  0  0  0
   24.0083  -21.0226  -14.2422 C   0  0  2  0  0  0  0  0  0  0  0  0
   25.0652  -21.6474  -15.0788 N   0  0  0  0  0  0  0  0  0  0  0  0
   23.0894  -20.4117  -15.2116 C   0  0  0  0  0  0  0  0  0  0  0  0
   23.5791  -19.5422  -16.0289 O   0  0  0  0  0  0  0  0  0  0  0  0
   25.6867  -20.6528  -11.1756 C   0  0  0  0  0  0  0  0  0  0  0  0
   25.5974  -20.9450   -9.8462 C   0  0  0  0  0  0  0  0  0  0  0  0
   21.9440  -21.8942  -18.4433 C   0  0  0  0  0  0  0  0  0  0  0  0
   20.5274  -21.3245  -18.4498 C   0  0  1  0  0  0  0  0  0  0  0  0
   19.5796  -22.4290  -18.9403 C   0  0  0  0  0  0  0  0  0  0  0  0
   20.0888  -20.9921  -17.0641 C   0  0  0  0  0  0  0  0  0  0  0  0
   20.9675  -19.9578  -16.3716 C   0  0  2  0  0  0  0  0  0  0  0  0
   21.6996  -20.6868  -15.3546 N   0  0  0  0  0  0  0  0  0  0  0  0
   20.1833  -18.8849  -15.7639 C   0  0  0  0  0  0  0  0  0  0  0  0
   19.5799  -18.0041  -16.4021 O   0  0  0  0  0  0  0  0  0  0  0  0
   20.0662  -18.7912  -14.3653 O   0  0  0  0  0  0  0  0  0  0  0  0
  2  1  1  0
  3  2  1  0
  4  3  2  0
  6  5  1  0
  6 16  2  0
  7  6  1  0
  8  7  2  0
  8  9  1  0
  9 15  2  0
 10  9  1  0
 11 10  1  1
 11 12  1  0
 12  3  1  0
 13 22  1  0
 13 11  1  0
 14 13  2  0
 15 16  1  0
 18 17  1  1
 19 18  1  0
 20 18  1  0
 21 22  1  0
 21 20  1  1
 23 21  1  0
 23 25  1  0
 24 23  2  0
M  END
$$$$
