GYL.pdb
     RDKit          3D

 25 25  0  0  1  0  0  0  0  0999 V2000
   28.1920  -19.4921  -15.5557 N   0  0  0  0  0  0  0  0  0  0  0  0
   28.1402  -20.5055  -14.5424 C   0  0  0  0  0  0  0  0  0  0  0  0
   27.2155  -20.0676  -13.4678 C   0  0  0  0  0  0  0  0  0  0  0  0
   26.8935  -18.8560  -13.3361 O   0  0  0  0  0  0  0  0  0  0  0  0
   21.9741  -18.9117  -16.6634 O   0  0  0  0  0  0  0  0  0  0  0  0
   22.5463  -19.4797  -15.5319 C   0  0  0  0  0  0  0  0  0  0  0  0
   23.2817  -20.6435  -15.5726 C   0  0  0  0  0  0  0  0  0  0  0  0
   23.8616  -21.2329  -14.4731 C   0  0  0  0  0  0  0  0  0  0  0  0
   23.7102  -20.6389  -13.2472 C   0  0  0  0  0  0  0  0  0  0  0  0
   24.3324  -21.2332  -12.0602 C   0  0  0  0  0  0  0  0  0  0  0  0
   25.5970  -20.5742  -11.6506 C   0  0  2  0  0  0  0  0  0  0  0  0
   26.6801  -21.0023  -12.5733 N   0  0  0  0  0  0  0  0  0  0  0  0
   26.0530  -21.0121  -10.3249 C   0  0  0  0  0  0  0  0  0  0  0  0
   26.3916  -22.2496  -10.1912 O   0  0  0  0  0  0  0  0  0  0  0  0
   22.9709  -19.4571  -13.1632 C   0  0  0  0  0  0  0  0  0  0  0  0
   22.4089  -18.8997  -14.2742 C   0  0  0  0  0  0  0  0  0  0  0  0
   28.4952  -18.3051   -6.1838 C   0  0  0  0  0  0  0  0  0  0  0  0
   28.0785  -19.4144   -7.1468 C   0  0  1  0  0  0  0  0  0  0  0  0
   28.9656  -20.6366   -6.8668 C   0  0  0  0  0  0  0  0  0  0  0  0
   26.6796  -19.8505   -6.8717 C   0  0  0  0  0  0  0  0  0  0  0  0
   26.1446  -20.8694   -7.8702 C   0  0  2  0  0  0  0  0  0  0  0  0
   26.1727  -20.2045   -9.1581 N   0  0  0  0  0  0  0  0  0  0  0  0
   24.7851  -21.2976   -7.5476 C   0  0  0  0  0  0  0  0  0  0  0  0
   24.4984  -22.1352   -6.6740 O   0  0  0  0  0  0  0  0  0  0  0  0
   23.6849  -20.7596   -8.2393 O   0  0  0  0  0  0  0  0  0  0  0  0
  2  1  1  0
  3  2  1  0
  4  3  2  0
  6  5  1  0
  6 16  2  0
  7  6  1  0
  8  7  2  0
  8  9  1  0
  9 15  2  0
 10  9  1  0
 11 10  1  6
 11 12  1  0
 12  3  1  0
 13 22  1  0
 13 11  1  0
 14 13  2  0
 15 16  1  0
 18 17  1  1
 19 18  1  0
 20 18  1  0
 21 22  1  0
 21 20  1  1
 23 21  1  0
 23 25  1  0
 24 23  2  0
M  END
$$$$
