GYL.pdb
     RDKit          3D

 25 25  0  0  1  0  0  0  0  0999 V2000
   31.2906  -22.2277  -10.4277 N   0  0  0  0  0  0  0  0  0  0  0  0
   30.6160  -20.9680  -10.3071 C   0  0  0  0  0  0  0  0  0  0  0  0
   29.2284  -21.2057   -9.8387 C   0  0  0  0  0  0  0  0  0  0  0  0
   28.7813  -22.3744   -9.6861 O   0  0  0  0  0  0  0  0  0  0  0  0
   29.7810  -20.1480   -3.1780 O   0  0  0  0  0  0  0  0  0  0  0  0
   29.0382  -19.9599   -4.3369 C   0  0  0  0  0  0  0  0  0  0  0  0
   29.2736  -18.9238   -5.2133 C   0  0  0  0  0  0  0  0  0  0  0  0
   28.5584  -18.7080   -6.3685 C   0  0  0  0  0  0  0  0  0  0  0  0
   27.5409  -19.5692   -6.6871 C   0  0  0  0  0  0  0  0  0  0  0  0
   26.7733  -19.3760   -7.9212 C   0  0  0  0  0  0  0  0  0  0  0  0
   27.0475  -20.3938   -8.9653 C   0  0  2  0  0  0  0  0  0  0  0  0
   28.3842  -20.1251   -9.5558 N   0  0  0  0  0  0  0  0  0  0  0  0
   26.1209  -20.2953  -10.1006 C   0  0  0  0  0  0  0  0  0  0  0  0
   26.3418  -19.3683  -10.9699 O   0  0  0  0  0  0  0  0  0  0  0  0
   27.2699  -20.6330   -5.8240 C   0  0  0  0  0  0  0  0  0  0  0  0
   27.9990  -20.8174   -4.6860 C   0  0  0  0  0  0  0  0  0  0  0  0
   22.5394  -22.7535  -13.7274 C   0  0  0  0  0  0  0  0  0  0  0  0
   23.9335  -22.1337  -13.7905 C   0  0  1  0  0  0  0  0  0  0  0  0
   23.7717  -20.6509  -14.1564 C   0  0  0  0  0  0  0  0  0  0  0  0
   24.5798  -22.1573  -12.4471 C   0  0  0  0  0  0  0  0  0  0  0  0
   24.2724  -20.9327  -11.5943 C   0  0  2  0  0  0  0  0  0  0  0  0
   24.9956  -21.1305  -10.3535 N   0  0  0  0  0  0  0  0  0  0  0  0
   22.8422  -20.7868  -11.3325 C   0  0  0  0  0  0  0  0  0  0  0  0
   22.2296  -21.3686  -10.4195 O   0  0  0  0  0  0  0  0  0  0  0  0
   22.0524  -19.9439  -12.1351 O   0  0  0  0  0  0  0  0  0  0  0  0
  2  1  1  0
  3  2  1  0
  4  3  2  0
  6  5  1  0
  6 16  2  0
  7  6  1  0
  8  7  2  0
  8  9  1  0
  9 15  2  0
 10  9  1  0
 11 10  1  1
 11 12  1  0
 12  3  1  0
 13 22  1  0
 13 11  1  0
 14 13  2  0
 15 16  1  0
 18 17  1  1
 19 18  1  0
 20 18  1  0
 21 22  1  0
 21 20  1  6
 23 21  1  0
 23 25  1  0
 24 23  2  0
M  END
$$$$
