GYL.pdb
     RDKit          3D

 25 25  0  0  1  0  0  0  0  0999 V2000
   25.1289  -20.0556  -18.2466 N   0  0  0  0  0  0  0  0  0  0  0  0
   24.8944  -19.0423  -17.2593 C   0  0  0  0  0  0  0  0  0  0  0  0
   23.5093  -18.5322  -17.4098 C   0  0  0  0  0  0  0  0  0  0  0  0
   22.7559  -18.9485  -18.3307 O   0  0  0  0  0  0  0  0  0  0  0  0
   19.2074  -22.5072  -14.4138 O   0  0  0  0  0  0  0  0  0  0  0  0
   19.6103  -21.2023  -14.6692 C   0  0  0  0  0  0  0  0  0  0  0  0
   20.6989  -20.6243  -14.0544 C   0  0  0  0  0  0  0  0  0  0  0  0
   21.1253  -19.3366  -14.2835 C   0  0  0  0  0  0  0  0  0  0  0  0
   20.4361  -18.5610  -15.1790 C   0  0  0  0  0  0  0  0  0  0  0  0
   20.8778  -17.1912  -15.4581 C   0  0  0  0  0  0  0  0  0  0  0  0
   21.6344  -17.0502  -16.7265 C   0  0  2  0  0  0  0  0  0  0  0  0
   23.0111  -17.5704  -16.5225 N   0  0  0  0  0  0  0  0  0  0  0  0
   21.8284  -15.6457  -17.1098 C   0  0  0  0  0  0  0  0  0  0  0  0
   22.5318  -14.9057  -16.3215 O   0  0  0  0  0  0  0  0  0  0  0  0
   19.3256  -19.1100  -15.8237 C   0  0  0  0  0  0  0  0  0  0  0  0
   18.9299  -20.3911  -15.5725 C   0  0  0  0  0  0  0  0  0  0  0  0
   23.3977  -11.3765  -19.6143 C   0  0  0  0  0  0  0  0  0  0  0  0
   22.0867  -11.8963  -20.1996 C   0  0  1  0  0  0  0  0  0  0  0  0
   22.2000  -11.8373  -21.7301 C   0  0  0  0  0  0  0  0  0  0  0  0
   21.8924  -13.3343  -19.8571 C   0  0  0  0  0  0  0  0  0  0  0  0
   21.5140  -13.5747  -18.4008 C   0  0  2  0  0  0  0  0  0  0  0  0
   21.3251  -15.0069  -18.2788 N   0  0  0  0  0  0  0  0  0  0  0  0
   20.2932  -12.8660  -18.0232 C   0  0  0  0  0  0  0  0  0  0  0  0
   20.2365  -11.6526  -17.7552 O   0  0  0  0  0  0  0  0  0  0  0  0
   19.0673  -13.5508  -17.9409 O   0  0  0  0  0  0  0  0  0  0  0  0
  2  1  1  0
  3  2  1  0
  4  3  2  0
  6  5  1  0
  6 16  2  0
  7  6  1  0
  8  7  2  0
  8  9  1  0
  9 15  2  0
 10  9  1  0
 11 10  1  1
 11 12  1  0
 12  3  1  0
 13 22  1  0
 13 11  1  0
 14 13  2  0
 15 16  1  0
 18 17  1  1
 19 18  1  0
 20 18  1  0
 21 22  1  0
 21 20  1  6
 23 21  1  0
 23 25  1  0
 24 23  2  0
M  END
$$$$
