IWM.pdb
     RDKit          3D

 31 32  0  0  1  0  0  0  0  0999 V2000
   27.7374  -18.7259  -17.3754 C   0  0  0  0  0  0  0  0  0  0  0  0
   28.3515  -19.8249  -16.4948 C   0  0  0  0  0  0  0  0  0  0  0  0
   27.4472  -20.0300  -15.3251 C   0  0  2  0  0  0  0  0  0  0  0  0
   27.2178  -18.7399  -14.6092 C   0  0  0  0  0  0  0  0  0  0  0  0
   27.9598  -21.1476  -14.4370 C   0  0  2  0  0  0  0  0  0  0  0  0
   28.0547  -22.3928  -15.1850 N   0  0  0  0  0  0  0  0  0  0  0  0
   27.1827  -21.3138  -13.1962 C   0  0  0  0  0  0  0  0  0  0  0  0
   26.0567  -21.8543  -13.2180 O   0  0  0  0  0  0  0  0  0  0  0  0
   27.6487  -20.8824  -11.9216 N   0  0  0  0  0  0  0  0  0  0  0  0
   26.8151  -21.0310  -10.7099 C   0  0  1  0  0  0  0  0  0  0  0  0
   27.6539  -20.5457   -9.5800 C   0  0  0  0  0  0  0  0  0  0  0  0
   26.9537  -20.4661   -8.2814 C   0  0  0  0  0  0  0  0  0  0  0  0
   25.6145  -20.6116   -7.9823 C   0  0  0  0  0  0  0  0  0  0  0  0
   25.4022  -20.4419   -6.6636 N   0  0  0  0  0  0  0  0  0  0  0  0
   26.5814  -20.1819   -6.0579 C   0  0  0  0  0  0  0  0  0  0  0  0
   26.8700  -19.9398   -4.7313 C   0  0  0  0  0  0  0  0  0  0  0  0
   28.1827  -19.7007   -4.3874 C   0  0  0  0  0  0  0  0  0  0  0  0
   29.1681  -19.7112   -5.3832 C   0  0  0  0  0  0  0  0  0  0  0  0
   28.8503  -19.9558   -6.6985 C   0  0  0  0  0  0  0  0  0  0  0  0
   27.5445  -20.1936   -7.0407 C   0  0  0  0  0  0  0  0  0  0  0  0
   25.5486  -20.3543  -10.9425 C   0  0  0  0  0  0  0  0  0  0  0  0
   25.5919  -19.1957  -11.4966 O   0  0  0  0  0  0  0  0  0  0  0  0
   23.0713  -19.1832  -15.5862 C   0  0  0  0  0  0  0  0  0  0  0  0
   21.4768  -19.4369  -14.7830 S   0  0  0  0  0  0  0  0  0  0  0  0
   21.6548  -19.4859  -12.9724 C   0  0  0  0  0  0  0  0  0  0  0  0
   22.9808  -20.0737  -12.5676 C   0  0  0  0  0  0  0  0  0  0  0  0
   23.0870  -20.1447  -11.0615 C   0  0  2  0  0  0  0  0  0  0  0  0
   24.2668  -20.8393  -10.6244 N   0  0  0  0  0  0  0  0  0  0  0  0
   21.9018  -20.7782  -10.4541 C   0  0  0  0  0  0  0  0  0  0  0  0
   20.6252  -20.1877  -10.5461 O   0  0  0  0  0  0  0  0  0  0  0  0
   21.9306  -21.8628   -9.8245 O   0  0  0  0  0  0  0  0  0  0  0  0
  1  2  1  0
  2  3  1  0
  3  4  1  1
  5  6  1  6
  5  3  1  0
  7  5  1  0
  8  7  2  0
  9  7  1  0
 10  9  1  0
 10 11  1  1
 12 11  1  0
 12 13  2  0
 14 13  1  0
 15 14  1  0
 16 15  2  0
 17 16  1  0
 18 17  2  0
 18 19  1  0
 19 20  2  0
 20 15  1  0
 20 12  1  0
 21 10  1  0
 21 28  1  0
 22 21  2  0
 23 24  1  0
 24 25  1  0
 25 26  1  0
 27 26  1  6
 27 28  1  0
 27 29  1  0
 29 31  2  0
 29 30  1  0
M  END
$$$$
