IWM.pdb
     RDKit          3D

 31 32  0  0  1  0  0  0  0  0999 V2000
   30.2130  -20.1961  -17.8670 C   0  0  0  0  0  0  0  0  0  0  0  0
   29.3698  -21.4799  -17.9069 C   0  0  0  0  0  0  0  0  0  0  0  0
   28.7953  -21.6903  -16.5455 C   0  0  2  0  0  0  0  0  0  0  0  0
   29.0875  -23.0727  -16.0628 C   0  0  0  0  0  0  0  0  0  0  0  0
   27.3236  -21.3240  -16.5191 C   0  0  2  0  0  0  0  0  0  0  0  0
   27.1298  -19.9519  -16.9647 N   0  0  0  0  0  0  0  0  0  0  0  0
   26.6812  -21.5710  -15.2163 C   0  0  0  0  0  0  0  0  0  0  0  0
   26.7053  -22.7084  -14.7003 O   0  0  0  0  0  0  0  0  0  0  0  0
   26.0077  -20.5585  -14.4754 N   0  0  0  0  0  0  0  0  0  0  0  0
   25.3859  -20.8513  -13.1666 C   0  0  1  0  0  0  0  0  0  0  0  0
   25.9494  -19.8516  -12.2186 C   0  0  0  0  0  0  0  0  0  0  0  0
   27.0641  -20.3499  -11.3866 C   0  0  0  0  0  0  0  0  0  0  0  0
   28.3071  -20.8223  -11.7551 C   0  0  0  0  0  0  0  0  0  0  0  0
   29.0132  -21.1944  -10.6707 N   0  0  0  0  0  0  0  0  0  0  0  0
   28.2666  -20.9818   -9.5651 C   0  0  0  0  0  0  0  0  0  0  0  0
   28.5559  -21.2050   -8.2354 C   0  0  0  0  0  0  0  0  0  0  0  0
   27.5926  -20.8907   -7.3016 C   0  0  0  0  0  0  0  0  0  0  0  0
   26.3673  -20.3618   -7.7278 C   0  0  0  0  0  0  0  0  0  0  0  0
   26.1071  -20.1500   -9.0612 C   0  0  0  0  0  0  0  0  0  0  0  0
   27.0653  -20.4625   -9.9902 C   0  0  0  0  0  0  0  0  0  0  0  0
   23.9420  -20.8684  -13.3419 C   0  0  0  0  0  0  0  0  0  0  0  0
   23.4152  -19.8933  -13.9923 O   0  0  0  0  0  0  0  0  0  0  0  0
   19.8204  -25.8907  -13.4237 C   0  0  0  0  0  0  0  0  0  0  0  0
   18.6582  -24.5308  -13.6512 S   0  0  0  0  0  0  0  0  0  0  0  0
   19.4975  -22.9215  -13.5184 C   0  0  0  0  0  0  0  0  0  0  0  0
   20.9619  -23.0905  -13.2109 C   0  0  0  0  0  0  0  0  0  0  0  0
   21.6391  -21.7423  -13.1181 C   0  0  2  0  0  0  0  0  0  0  0  0
   23.0509  -21.8507  -12.8725 N   0  0  0  0  0  0  0  0  0  0  0  0
   21.0327  -20.8909  -12.0778 C   0  0  0  0  0  0  0  0  0  0  0  0
   19.9578  -20.0271  -12.3703 O   0  0  0  0  0  0  0  0  0  0  0  0
   21.4115  -20.8658  -10.8823 O   0  0  0  0  0  0  0  0  0  0  0  0
  1  2  1  0
  2  3  1  0
  3  4  1  6
  5  6  1  1
  5  3  1  0
  7  5  1  0
  8  7  2  0
  9  7  1  0
 10  9  1  0
 10 11  1  1
 12 11  1  0
 12 13  2  0
 14 13  1  0
 15 14  1  0
 16 15  2  0
 17 16  1  0
 18 17  2  0
 18 19  1  0
 19 20  2  0
 20 15  1  0
 20 12  1  0
 21 10  1  0
 21 28  1  0
 22 21  2  0
 23 24  1  0
 24 25  1  0
 25 26  1  0
 27 26  1  1
 27 28  1  0
 27 29  1  0
 29 31  2  0
 29 30  1  0
M  END
$$$$
