IWM.pdb
     RDKit          3D

 31 32  0  0  1  0  0  0  0  0999 V2000
   25.9475  -25.7375  -16.9188 C   0  0  0  0  0  0  0  0  0  0  0  0
   26.2597  -24.5042  -16.0575 C   0  0  0  0  0  0  0  0  0  0  0  0
   24.9683  -23.9882  -15.5153 C   0  0  2  0  0  0  0  0  0  0  0  0
   23.9820  -23.7861  -16.6180 C   0  0  0  0  0  0  0  0  0  0  0  0
   25.1969  -22.7588  -14.6570 C   0  0  2  0  0  0  0  0  0  0  0  0
   26.2535  -23.0022  -13.6857 N   0  0  0  0  0  0  0  0  0  0  0  0
   23.9700  -22.2556  -14.0147 C   0  0  0  0  0  0  0  0  0  0  0  0
   23.4736  -22.8520  -13.0358 O   0  0  0  0  0  0  0  0  0  0  0  0
   23.2846  -21.0868  -14.4527 N   0  0  0  0  0  0  0  0  0  0  0  0
   22.1003  -20.5763  -13.7301 C   0  0  1  0  0  0  0  0  0  0  0  0
   22.2093  -19.0924  -13.7727 C   0  0  0  0  0  0  0  0  0  0  0  0
   21.1861  -18.3755  -12.9838 C   0  0  0  0  0  0  0  0  0  0  0  0
   20.9239  -18.4068  -11.6294 C   0  0  0  0  0  0  0  0  0  0  0  0
   19.8820  -17.6081  -11.3299 N   0  0  0  0  0  0  0  0  0  0  0  0
   19.4291  -17.0314  -12.4645 C   0  0  0  0  0  0  0  0  0  0  0  0
   18.3914  -16.1453  -12.6635 C   0  0  0  0  0  0  0  0  0  0  0  0
   18.1474  -15.7120  -13.9485 C   0  0  0  0  0  0  0  0  0  0  0  0
   18.9507  -16.1794  -14.9969 C   0  0  0  0  0  0  0  0  0  0  0  0
   19.9790  -17.0631  -14.7680 C   0  0  0  0  0  0  0  0  0  0  0  0
   20.2218  -17.4943  -13.4897 C   0  0  0  0  0  0  0  0  0  0  0  0
   20.9135  -21.1777  -14.3183 C   0  0  0  0  0  0  0  0  0  0  0  0
   21.0894  -22.0064  -15.2845 O   0  0  0  0  0  0  0  0  0  0  0  0
   18.4243  -25.7666   -9.6047 C   0  0  0  0  0  0  0  0  0  0  0  0
   18.4830  -23.9978   -9.9510 S   0  0  0  0  0  0  0  0  0  0  0  0
   19.3507  -23.6642  -11.5155 C   0  0  0  0  0  0  0  0  0  0  0  0
   19.3608  -22.1925  -11.8339 C   0  0  0  0  0  0  0  0  0  0  0  0
   18.8323  -21.9524  -13.2296 C   0  0  2  0  0  0  0  0  0  0  0  0
   19.5790  -20.9484  -13.9364 N   0  0  0  0  0  0  0  0  0  0  0  0
   17.4062  -21.5766  -13.2224 C   0  0  0  0  0  0  0  0  0  0  0  0
   16.4122  -22.4576  -13.6945 O   0  0  0  0  0  0  0  0  0  0  0  0
   16.9725  -20.4751  -12.8076 O   0  0  0  0  0  0  0  0  0  0  0  0
  1  2  1  0
  2  3  1  0
  3  4  1  6
  5  6  1  1
  5  3  1  0
  7  5  1  0
  8  7  2  0
  9  7  1  0
 10  9  1  0
 10 11  1  6
 12 11  1  0
 12 13  2  0
 14 13  1  0
 15 14  1  0
 16 15  2  0
 17 16  1  0
 18 17  2  0
 18 19  1  0
 19 20  2  0
 20 15  1  0
 20 12  1  0
 21 10  1  0
 21 28  1  0
 22 21  2  0
 23 24  1  0
 24 25  1  0
 25 26  1  0
 27 26  1  1
 27 28  1  0
 27 29  1  0
 29 31  2  0
 29 30  1  0
M  END
$$$$
