IWM.pdb
     RDKit          3D

 31 32  0  0  1  0  0  0  0  0999 V2000
   27.5878  -17.9785  -16.7942 C   0  0  0  0  0  0  0  0  0  0  0  0
   28.1884  -19.1995  -16.0808 C   0  0  0  0  0  0  0  0  0  0  0  0
   27.3257  -19.5091  -14.9029 C   0  0  2  0  0  0  0  0  0  0  0  0
   27.1977  -18.3120  -14.0196 C   0  0  0  0  0  0  0  0  0  0  0  0
   27.8147  -20.7549  -14.1892 C   0  0  2  0  0  0  0  0  0  0  0  0
   27.7986  -21.8994  -15.0885 N   0  0  0  0  0  0  0  0  0  0  0  0
   27.0918  -21.0348  -12.9362 C   0  0  0  0  0  0  0  0  0  0  0  0
   26.0051  -21.6507  -12.9524 O   0  0  0  0  0  0  0  0  0  0  0  0
   27.5687  -20.6345  -11.6555 N   0  0  0  0  0  0  0  0  0  0  0  0
   26.8144  -20.9487  -10.4237 C   0  0  1  0  0  0  0  0  0  0  0  0
   27.7395  -20.6515   -9.2961 C   0  0  0  0  0  0  0  0  0  0  0  0
   27.1075  -20.6604   -7.9606 C   0  0  0  0  0  0  0  0  0  0  0  0
   25.8516  -21.0810   -7.5735 C   0  0  0  0  0  0  0  0  0  0  0  0
   25.6756  -20.8939   -6.2518 N   0  0  0  0  0  0  0  0  0  0  0  0
   26.7973  -20.3499   -5.7311 C   0  0  0  0  0  0  0  0  0  0  0  0
   27.0931  -19.9817   -4.4355 C   0  0  0  0  0  0  0  0  0  0  0  0
   28.3358  -19.4424   -4.1834 C   0  0  0  0  0  0  0  0  0  0  0  0
   29.2458  -19.2877   -5.2374 C   0  0  0  0  0  0  0  0  0  0  0  0
   28.9226  -19.6641   -6.5197 C   0  0  0  0  0  0  0  0  0  0  0  0
   27.6865  -20.2007   -6.7706 C   0  0  0  0  0  0  0  0  0  0  0  0
   25.5536  -20.2243  -10.4643 C   0  0  0  0  0  0  0  0  0  0  0  0
   25.6046  -18.9652  -10.7159 O   0  0  0  0  0  0  0  0  0  0  0  0
   21.8445  -22.6848  -15.1267 C   0  0  0  0  0  0  0  0  0  0  0  0
   21.6465  -21.2539  -14.0473 S   0  0  0  0  0  0  0  0  0  0  0  0
   23.0158  -21.1379  -12.8542 C   0  0  0  0  0  0  0  0  0  0  0  0
   23.0053  -19.8153  -12.1344 C   0  0  0  0  0  0  0  0  0  0  0  0
   23.0944  -20.0284  -10.6406 C   0  0  2  0  0  0  0  0  0  0  0  0
   24.2698  -20.7614  -10.2578 N   0  0  0  0  0  0  0  0  0  0  0  0
   21.9030  -20.7165  -10.1096 C   0  0  0  0  0  0  0  0  0  0  0  0
   22.0120  -21.9225   -9.3881 O   0  0  0  0  0  0  0  0  0  0  0  0
   20.7290  -20.2978  -10.2513 O   0  0  0  0  0  0  0  0  0  0  0  0
  1  2  1  0
  2  3  1  0
  3  4  1  1
  5  6  1  6
  5  3  1  0
  7  5  1  0
  8  7  2  0
  9  7  1  0
 10  9  1  0
 10 11  1  1
 12 11  1  0
 12 13  2  0
 14 13  1  0
 15 14  1  0
 16 15  2  0
 17 16  1  0
 18 17  2  0
 18 19  1  0
 19 20  2  0
 20 15  1  0
 20 12  1  0
 21 10  1  0
 21 28  1  0
 22 21  2  0
 23 24  1  0
 24 25  1  0
 25 26  1  0
 27 26  1  6
 27 28  1  0
 27 29  1  0
 29 31  2  0
 29 30  1  0
M  END
$$$$
