IWM.pdb
     RDKit          3D

 31 32  0  0  1  0  0  0  0  0999 V2000
   31.0406  -16.5231  -17.9056 C   0  0  0  0  0  0  0  0  0  0  0  0
   29.8140  -17.3399  -18.3402 C   0  0  0  0  0  0  0  0  0  0  0  0
   28.8626  -17.3799  -17.1908 C   0  0  2  0  0  0  0  0  0  0  0  0
   29.5338  -17.9298  -15.9756 C   0  0  0  0  0  0  0  0  0  0  0  0
   27.5857  -18.1036  -17.5731 C   0  0  2  0  0  0  0  0  0  0  0  0
   27.0137  -17.5283  -18.7817 N   0  0  0  0  0  0  0  0  0  0  0  0
   26.5996  -18.1699  -16.4803 C   0  0  0  0  0  0  0  0  0  0  0  0
   26.1337  -17.1248  -15.9792 O   0  0  0  0  0  0  0  0  0  0  0  0
   26.1221  -19.3957  -15.9352 N   0  0  0  0  0  0  0  0  0  0  0  0
   25.1722  -19.4129  -14.8027 C   0  0  1  0  0  0  0  0  0  0  0  0
   23.9237  -20.0272  -15.3315 C   0  0  0  0  0  0  0  0  0  0  0  0
   22.8327  -20.1558  -14.3435 C   0  0  0  0  0  0  0  0  0  0  0  0
   22.2379  -19.1999  -13.5455 C   0  0  0  0  0  0  0  0  0  0  0  0
   21.2873  -19.7547  -12.7699 N   0  0  0  0  0  0  0  0  0  0  0  0
   21.2258  -21.0792  -13.0288 C   0  0  0  0  0  0  0  0  0  0  0  0
   20.4169  -22.0579  -12.4906 C   0  0  0  0  0  0  0  0  0  0  0  0
   20.5707  -23.3486  -12.9477 C   0  0  0  0  0  0  0  0  0  0  0  0
   21.5309  -23.6210  -13.9309 C   0  0  0  0  0  0  0  0  0  0  0  0
   22.3236  -22.6241  -14.4492 C   0  0  0  0  0  0  0  0  0  0  0  0
   22.1706  -21.3400  -13.9946 C   0  0  0  0  0  0  0  0  0  0  0  0
   25.8173  -20.0706  -13.6770 C   0  0  0  0  0  0  0  0  0  0  0  0
   26.5771  -21.0739  -13.9363 O   0  0  0  0  0  0  0  0  0  0  0  0
   28.0226  -17.9528   -7.9000 C   0  0  0  0  0  0  0  0  0  0  0  0
   27.7169  -19.6900   -7.5253 S   0  0  0  0  0  0  0  0  0  0  0  0
   27.3004  -20.6225   -9.0316 C   0  0  0  0  0  0  0  0  0  0  0  0
   26.7338  -19.7204  -10.0958 C   0  0  0  0  0  0  0  0  0  0  0  0
   26.2967  -20.5308  -11.2946 C   0  0  2  0  0  0  0  0  0  0  0  0
   25.6990  -19.7199  -12.3196 N   0  0  0  0  0  0  0  0  0  0  0  0
   25.3580  -21.6053  -10.9215 C   0  0  0  0  0  0  0  0  0  0  0  0
   23.9701  -21.4731  -11.1296 O   0  0  0  0  0  0  0  0  0  0  0  0
   25.7064  -22.6935  -10.4038 O   0  0  0  0  0  0  0  0  0  0  0  0
  1  2  1  0
  2  3  1  0
  3  4  1  1
  5  6  1  6
  5  3  1  0
  7  5  1  0
  8  7  2  0
  9  7  1  0
 10  9  1  0
 10 11  1  6
 12 11  1  0
 12 13  2  0
 14 13  1  0
 15 14  1  0
 16 15  2  0
 17 16  1  0
 18 17  2  0
 18 19  1  0
 19 20  2  0
 20 15  1  0
 20 12  1  0
 21 10  1  0
 21 28  1  0
 22 21  2  0
 23 24  1  0
 24 25  1  0
 25 26  1  0
 27 26  1  1
 27 28  1  0
 27 29  1  0
 29 31  2  0
 29 30  1  0
M  END
$$$$
