CMM.pdb
     RDKit          3D

 23 22  0  0  1  0  0  0  0  0999 V2000
    7.7724  -14.3877   19.1765 N   0  0  0  0  0  0  0  0  0  0  0  0
    8.1986  -15.4451   20.0563 C   0  0  1  0  0  0  0  0  0  0  0  0
    9.4092  -16.1685   19.4676 C   0  0  0  0  0  0  0  0  0  0  0  0
    9.9004  -17.5487   20.5190 S   0  0  0  0  0  0  0  0  0  0  0  0
    8.5032  -14.8903   21.3898 C   0  0  0  0  0  0  0  0  0  0  0  0
    9.1949  -13.8415   21.5133 O   0  0  0  0  0  0  0  0  0  0  0  0
    7.3100  -11.5146   25.5362 C   0  0  0  0  0  0  0  0  0  0  0  0
    6.1709  -12.8798   25.9645 S   0  0  0  0  0  0  0  0  0  0  0  0
    6.0666  -13.9584   24.5009 C   0  0  0  0  0  0  0  0  0  0  0  0
    6.9462  -15.1812   24.6729 C   0  0  0  0  0  0  0  0  0  0  0  0
    8.2079  -15.0468   23.8820 C   0  0  2  0  0  0  0  0  0  0  0  0
    8.0084  -15.5505   22.5433 N   0  0  0  0  0  0  0  0  0  0  0  0
    9.3183  -15.7555   24.5784 C   0  0  0  0  0  0  0  0  0  0  0  0
    9.5577  -16.9601   24.3122 O   0  0  0  0  0  0  0  0  0  0  0  0
   10.7704  -13.5092   30.1827 C   0  0  0  0  0  0  0  0  0  0  0  0
   11.7321  -15.0383   30.4021 S   0  0  0  0  0  0  0  0  0  0  0  0
   11.6183  -16.0282   28.8694 C   0  0  0  0  0  0  0  0  0  0  0  0
   10.9988  -15.1665   27.8133 C   0  0  0  0  0  0  0  0  0  0  0  0
   10.8905  -15.9097   26.5158 C   0  0  2  0  0  0  0  0  0  0  0  0
   10.1209  -15.1150   25.5382 N   0  0  0  0  0  0  0  0  0  0  0  0
   10.2410  -17.2246   26.6191 C   0  0  0  0  0  0  0  0  0  0  0  0
   10.8969  -18.2814   26.5144 O   0  0  0  0  0  0  0  0  0  0  0  0
    8.8802  -17.3118   26.8359 O   0  0  0  0  0  0  0  0  0  0  0  0
  2  1  1  6
  3  2  1  0
  4  3  1  0
  5  2  1  0
  6  5  2  0
  8  7  1  0
  8  9  1  0
  9 10  1  0
 11 10  1  1
 11 13  1  0
 11 12  1  0
 12  5  1  0
 13 20  1  0
 14 13  2  0
 16 15  1  0
 17 16  1  0
 18 17  1  0
 19 21  1  0
 19 18  1  1
 20 19  1  0
 21 23  1  0
 22 21  2  0
M  END
$$$$
