CMM.pdb
     RDKit          3D

 23 22  0  0  1  0  0  0  0  0999 V2000
    6.5501  -20.4140   22.2217 N   0  0  0  0  0  0  0  0  0  0  0  0
    6.0651  -19.0762   22.4419 C   0  0  1  0  0  0  0  0  0  0  0  0
    5.5833  -18.9178   23.8835 C   0  0  0  0  0  0  0  0  0  0  0  0
    6.9797  -18.9017   25.0243 S   0  0  0  0  0  0  0  0  0  0  0  0
    7.1280  -18.1028   22.1231 C   0  0  0  0  0  0  0  0  0  0  0  0
    8.3166  -18.4811   21.9282 O   0  0  0  0  0  0  0  0  0  0  0  0
    7.7891  -11.7802   20.1369 C   0  0  0  0  0  0  0  0  0  0  0  0
    8.1749  -13.1167   18.9497 S   0  0  0  0  0  0  0  0  0  0  0  0
    7.2819  -14.5993   19.5162 C   0  0  0  0  0  0  0  0  0  0  0  0
    7.0780  -14.5606   21.0180 C   0  0  0  0  0  0  0  0  0  0  0  0
    7.7659  -15.7113   21.6800 C   0  0  2  0  0  0  0  0  0  0  0  0
    6.8014  -16.7255   22.0363 N   0  0  0  0  0  0  0  0  0  0  0  0
    8.5249  -15.2298   22.8685 C   0  0  0  0  0  0  0  0  0  0  0  0
    9.5414  -14.5076   22.7128 O   0  0  0  0  0  0  0  0  0  0  0  0
    6.7887  -12.2880   28.1417 C   0  0  0  0  0  0  0  0  0  0  0  0
    5.7955  -12.7641   26.6932 S   0  0  0  0  0  0  0  0  0  0  0  0
    6.8808  -13.6106   25.4901 C   0  0  0  0  0  0  0  0  0  0  0  0
    7.9685  -14.2954   26.2580 C   0  0  0  0  0  0  0  0  0  0  0  0
    8.8917  -15.0302   25.3332 C   0  0  2  0  0  0  0  0  0  0  0  0
    8.1385  -15.5596   24.1791 N   0  0  0  0  0  0  0  0  0  0  0  0
    9.5992  -16.1615   25.9504 C   0  0  0  0  0  0  0  0  0  0  0  0
    9.3900  -17.3356   25.5819 O   0  0  0  0  0  0  0  0  0  0  0  0
   10.5163  -15.9402   26.9586 O   0  0  0  0  0  0  0  0  0  0  0  0
  2  1  1  1
  3  2  1  0
  4  3  1  0
  5  2  1  0
  6  5  2  0
  8  7  1  0
  8  9  1  0
  9 10  1  0
 11 10  1  1
 11 13  1  0
 11 12  1  0
 12  5  1  0
 13 20  1  0
 14 13  2  0
 16 15  1  0
 17 16  1  0
 18 17  1  0
 19 21  1  0
 19 18  1  1
 20 19  1  0
 21 23  1  0
 22 21  2  0
M  END
$$$$
