CMM.pdb
     RDKit          3D

 23 22  0  0  1  0  0  0  0  0999 V2000
    7.2842  -18.9255   20.7038 N   0  0  0  0  0  0  0  0  0  0  0  0
    6.8929  -18.3374   21.9586 C   0  0  1  0  0  0  0  0  0  0  0  0
    7.0622  -19.3475   23.0928 C   0  0  0  0  0  0  0  0  0  0  0  0
    8.7997  -19.7792   23.3080 S   0  0  0  0  0  0  0  0  0  0  0  0
    7.6867  -17.1177   22.2055 C   0  0  0  0  0  0  0  0  0  0  0  0
    8.7438  -16.8891   21.5543 O   0  0  0  0  0  0  0  0  0  0  0  0
    6.0110  -12.7378   26.9340 C   0  0  0  0  0  0  0  0  0  0  0  0
    6.6857  -11.6756   25.6069 S   0  0  0  0  0  0  0  0  0  0  0  0
    7.7382  -12.7365   24.5661 C   0  0  0  0  0  0  0  0  0  0  0  0
    7.0439  -14.0504   24.2661 C   0  0  0  0  0  0  0  0  0  0  0  0
    7.9175  -14.9394   23.4401 C   0  0  2  0  0  0  0  0  0  0  0  0
    7.2491  -16.1949   23.1894 N   0  0  0  0  0  0  0  0  0  0  0  0
    9.2263  -15.1381   24.1242 C   0  0  0  0  0  0  0  0  0  0  0  0
   10.0044  -14.1644   24.2838 O   0  0  0  0  0  0  0  0  0  0  0  0
   10.3825  -13.0386   28.6026 C   0  0  0  0  0  0  0  0  0  0  0  0
   10.6045  -14.6892   29.3358 S   0  0  0  0  0  0  0  0  0  0  0  0
   11.1225  -15.8501   28.0221 C   0  0  0  0  0  0  0  0  0  0  0  0
   10.1452  -15.7300   26.8942 C   0  0  0  0  0  0  0  0  0  0  0  0
   10.6198  -16.4944   25.6950 C   0  0  2  0  0  0  0  0  0  0  0  0
    9.6286  -16.3960   24.6054 N   0  0  0  0  0  0  0  0  0  0  0  0
   10.8608  -17.9239   25.9398 C   0  0  0  0  0  0  0  0  0  0  0  0
   11.7478  -18.3054   26.7308 O   0  0  0  0  0  0  0  0  0  0  0  0
   10.1012  -18.8771   25.2911 O   0  0  0  0  0  0  0  0  0  0  0  0
  2  1  1  6
  3  2  1  0
  4  3  1  0
  5  2  1  0
  6  5  2  0
  8  7  1  0
  8  9  1  0
  9 10  1  0
 11 10  1  1
 11 13  1  0
 11 12  1  0
 12  5  1  0
 13 20  1  0
 14 13  2  0
 16 15  1  0
 17 16  1  0
 18 17  1  0
 19 21  1  0
 19 18  1  1
 20 19  1  0
 21 23  1  0
 22 21  2  0
M  END
$$$$
