CMM.pdb
     RDKit          3D

 23 22  0  0  1  0  0  0  0  0999 V2000
    9.1930  -15.7755   19.1213 N   0  0  0  0  0  0  0  0  0  0  0  0
    8.9462  -16.6329   20.2515 C   0  0  1  0  0  0  0  0  0  0  0  0
    9.6370  -17.9818   20.0541 C   0  0  0  0  0  0  0  0  0  0  0  0
    8.6447  -19.0582   19.0015 S   0  0  0  0  0  0  0  0  0  0  0  0
    9.4075  -15.9716   21.4879 C   0  0  0  0  0  0  0  0  0  0  0  0
   10.5166  -15.3698   21.5264 O   0  0  0  0  0  0  0  0  0  0  0  0
    6.7410  -12.4358   26.7919 C   0  0  0  0  0  0  0  0  0  0  0  0
    5.9482  -12.9478   25.2253 S   0  0  0  0  0  0  0  0  0  0  0  0
    7.2700  -13.5927   24.1514 C   0  0  0  0  0  0  0  0  0  0  0  0
    7.7308  -14.9558   24.6289 C   0  0  0  0  0  0  0  0  0  0  0  0
    8.9568  -15.3929   23.8931 C   0  0  2  0  0  0  0  0  0  0  0  0
    8.5876  -16.0172   22.6441 N   0  0  0  0  0  0  0  0  0  0  0  0
    9.7612  -16.3081   24.7508 C   0  0  0  0  0  0  0  0  0  0  0  0
    9.6073  -17.5518   24.6571 O   0  0  0  0  0  0  0  0  0  0  0  0
   10.3820  -12.8631   28.4101 C   0  0  0  0  0  0  0  0  0  0  0  0
   10.8950  -14.1952   29.5386 S   0  0  0  0  0  0  0  0  0  0  0  0
   10.6417  -15.8016   28.7038 C   0  0  0  0  0  0  0  0  0  0  0  0
   11.8287  -16.0536   27.8267 C   0  0  0  0  0  0  0  0  0  0  0  0
   11.4200  -16.7554   26.5666 C   0  0  2  0  0  0  0  0  0  0  0  0
   10.7013  -15.8227   25.6762 N   0  0  0  0  0  0  0  0  0  0  0  0
   10.5491  -17.9217   26.7736 C   0  0  0  0  0  0  0  0  0  0  0  0
   11.0093  -19.0820   26.7751 O   0  0  0  0  0  0  0  0  0  0  0  0
    9.1936  -17.7496   26.9716 O   0  0  0  0  0  0  0  0  0  0  0  0
  2  1  1  6
  3  2  1  0
  4  3  1  0
  5  2  1  0
  6  5  2  0
  8  7  1  0
  8  9  1  0
  9 10  1  0
 11 10  1  1
 11 13  1  0
 11 12  1  0
 12  5  1  0
 13 20  1  0
 14 13  2  0
 16 15  1  0
 17 16  1  0
 18 17  1  0
 19 21  1  0
 19 18  1  1
 20 19  1  0
 21 23  1  0
 22 21  2  0
M  END
$$$$
