CMM.pdb
     RDKit          3D

 23 22  0  0  1  0  0  0  0  0999 V2000
    8.4742  -20.1261   19.7557 N   0  0  0  0  0  0  0  0  0  0  0  0
    8.0162  -19.3038   20.8454 C   0  0  1  0  0  0  0  0  0  0  0  0
    8.1744  -20.0458   22.1721 C   0  0  0  0  0  0  0  0  0  0  0  0
    9.8774  -19.9499   22.7569 S   0  0  0  0  0  0  0  0  0  0  0  0
    8.7599  -18.0289   20.8535 C   0  0  0  0  0  0  0  0  0  0  0  0
    9.9380  -17.9625   20.4046 O   0  0  0  0  0  0  0  0  0  0  0  0
    8.2613  -11.8556   19.2941 C   0  0  0  0  0  0  0  0  0  0  0  0
    6.7747  -12.9069   19.1218 S   0  0  0  0  0  0  0  0  0  0  0  0
    7.2305  -14.5665   19.7170 C   0  0  0  0  0  0  0  0  0  0  0  0
    7.7561  -14.5005   21.1375 C   0  0  0  0  0  0  0  0  0  0  0  0
    8.7718  -15.5704   21.3812 C   0  0  2  0  0  0  0  0  0  0  0  0
    8.1356  -16.8669   21.3744 N   0  0  0  0  0  0  0  0  0  0  0  0
    9.4807  -15.3104   22.6658 C   0  0  0  0  0  0  0  0  0  0  0  0
   10.2175  -14.2991   22.7817 O   0  0  0  0  0  0  0  0  0  0  0  0
    6.7954  -11.8055   27.7840 C   0  0  0  0  0  0  0  0  0  0  0  0
    7.0630  -12.5598   26.1497 S   0  0  0  0  0  0  0  0  0  0  0  0
    7.3067  -14.3586   26.3664 C   0  0  0  0  0  0  0  0  0  0  0  0
    7.6706  -14.9348   25.0333 C   0  0  0  0  0  0  0  0  0  0  0  0
    8.9979  -15.6288   25.0978 C   0  0  2  0  0  0  0  0  0  0  0  0
    9.3529  -16.1697   23.7709 N   0  0  0  0  0  0  0  0  0  0  0  0
    9.0570  -16.7432   26.0549 C   0  0  0  0  0  0  0  0  0  0  0  0
    8.7635  -17.9073   25.7131 O   0  0  0  0  0  0  0  0  0  0  0  0
    9.4423  -16.5168   27.3613 O   0  0  0  0  0  0  0  0  0  0  0  0
  2  1  1  6
  3  2  1  0
  4  3  1  0
  5  2  1  0
  6  5  2  0
  8  7  1  0
  8  9  1  0
  9 10  1  0
 11 10  1  1
 11 13  1  0
 11 12  1  0
 12  5  1  0
 13 20  1  0
 14 13  2  0
 16 15  1  0
 17 16  1  0
 18 17  1  0
 19 21  1  0
 19 18  1  6
 20 19  1  0
 21 23  1  0
 22 21  2  0
M  END
$$$$
