CMM.pdb
     RDKit          3D

 23 22  0  0  1  0  0  0  0  0999 V2000
    9.0475  -17.5669   19.4398 N   0  0  0  0  0  0  0  0  0  0  0  0
    8.1626  -17.5152   20.5746 C   0  0  1  0  0  0  0  0  0  0  0  0
    8.0090  -18.9054   21.1905 C   0  0  0  0  0  0  0  0  0  0  0  0
    9.5783  -19.4794   21.8682 S   0  0  0  0  0  0  0  0  0  0  0  0
    8.6764  -16.5462   21.5624 C   0  0  0  0  0  0  0  0  0  0  0  0
    9.8789  -16.1634   21.5304 O   0  0  0  0  0  0  0  0  0  0  0  0
    6.4363  -11.3282   26.8456 C   0  0  0  0  0  0  0  0  0  0  0  0
    5.9286  -12.7600   25.8273 S   0  0  0  0  0  0  0  0  0  0  0  0
    7.4370  -13.7171   25.4737 C   0  0  0  0  0  0  0  0  0  0  0  0
    7.1274  -14.8871   24.5606 C   0  0  0  0  0  0  0  0  0  0  0  0
    8.2123  -15.0769   23.5496 C   0  0  2  0  0  0  0  0  0  0  0  0
    7.8007  -16.0429   22.5580 N   0  0  0  0  0  0  0  0  0  0  0  0
    9.4716  -15.4887   24.2315 C   0  0  0  0  0  0  0  0  0  0  0  0
   10.4857  -14.7487   24.1756 O   0  0  0  0  0  0  0  0  0  0  0  0
    9.7852  -13.3179   28.6428 C   0  0  0  0  0  0  0  0  0  0  0  0
   11.2243  -14.3071   29.1547 S   0  0  0  0  0  0  0  0  0  0  0  0
   11.1974  -15.8946   28.2487 C   0  0  0  0  0  0  0  0  0  0  0  0
   10.2917  -15.7320   27.0676 C   0  0  0  0  0  0  0  0  0  0  0  0
   10.5223  -16.8231   26.0657 C   0  0  2  0  0  0  0  0  0  0  0  0
    9.5679  -16.6949   24.9468 N   0  0  0  0  0  0  0  0  0  0  0  0
   10.3851  -18.1841   26.6045 C   0  0  0  0  0  0  0  0  0  0  0  0
    9.3391  -18.8446   26.4377 O   0  0  0  0  0  0  0  0  0  0  0  0
   11.4225  -18.7590   27.3112 O   0  0  0  0  0  0  0  0  0  0  0  0
  2  1  1  6
  3  2  1  0
  4  3  1  0
  5  2  1  0
  6  5  2  0
  8  7  1  0
  8  9  1  0
  9 10  1  0
 11 10  1  1
 11 13  1  0
 11 12  1  0
 12  5  1  0
 13 20  1  0
 14 13  2  0
 16 15  1  0
 17 16  1  0
 18 17  1  0
 19 21  1  0
 19 18  1  1
 20 19  1  0
 21 23  1  0
 22 21  2  0
M  END
$$$$
