CMM.pdb
     RDKit          3D

 23 22  0  0  1  0  0  0  0  0999 V2000
   10.2008  -16.3822   18.8682 N   0  0  0  0  0  0  0  0  0  0  0  0
    9.0997  -16.5764   19.7755 C   0  0  1  0  0  0  0  0  0  0  0  0
    8.7831  -18.0651   19.9135 C   0  0  0  0  0  0  0  0  0  0  0  0
   10.0120  -18.8851   20.9473 S   0  0  0  0  0  0  0  0  0  0  0  0
    9.4213  -15.9744   21.0843 C   0  0  0  0  0  0  0  0  0  0  0  0
   10.6106  -15.6789   21.3875 O   0  0  0  0  0  0  0  0  0  0  0  0
    6.3438  -11.8823   27.0079 C   0  0  0  0  0  0  0  0  0  0  0  0
    5.9356  -13.1261   25.7307 S   0  0  0  0  0  0  0  0  0  0  0  0
    7.5170  -13.7530   25.0806 C   0  0  0  0  0  0  0  0  0  0  0  0
    7.2941  -14.5633   23.8188 C   0  0  0  0  0  0  0  0  0  0  0  0
    8.5887  -15.0867   23.2847 C   0  0  2  0  0  0  0  0  0  0  0  0
    8.3742  -15.7275   22.0083 N   0  0  0  0  0  0  0  0  0  0  0  0
    9.2033  -16.0173   24.2729 C   0  0  0  0  0  0  0  0  0  0  0  0
    9.0819  -17.2592   24.1241 O   0  0  0  0  0  0  0  0  0  0  0  0
   10.0126  -13.4120   30.5858 C   0  0  0  0  0  0  0  0  0  0  0  0
   11.2502  -14.1319   29.4627 S   0  0  0  0  0  0  0  0  0  0  0  0
   10.4072  -15.2859   28.3227 C   0  0  0  0  0  0  0  0  0  0  0  0
   11.4104  -15.7423   27.3093 C   0  0  0  0  0  0  0  0  0  0  0  0
   10.7389  -16.4802   26.1903 C   0  0  2  0  0  0  0  0  0  0  0  0
    9.9258  -15.5486   25.3838 N   0  0  0  0  0  0  0  0  0  0  0  0
    9.8536  -17.5708   26.6244 C   0  0  0  0  0  0  0  0  0  0  0  0
    8.6117  -17.4504   26.5889 O   0  0  0  0  0  0  0  0  0  0  0  0
   10.3883  -18.7582   27.0833 O   0  0  0  0  0  0  0  0  0  0  0  0
  2  1  1  6
  3  2  1  0
  4  3  1  0
  5  2  1  0
  6  5  2  0
  8  7  1  0
  8  9  1  0
  9 10  1  0
 11 10  1  1
 11 13  1  0
 11 12  1  0
 12  5  1  0
 13 20  1  0
 14 13  2  0
 16 15  1  0
 17 16  1  0
 18 17  1  0
 19 21  1  0
 19 18  1  1
 20 19  1  0
 21 23  1  0
 22 21  2  0
M  END
$$$$
