CMM.pdb
     RDKit          3D

 23 22  0  0  1  0  0  0  0  0999 V2000
   10.4043  -15.4353   19.1323 N   0  0  0  0  0  0  0  0  0  0  0  0
    9.5964  -16.2210   20.0288 C   0  0  1  0  0  0  0  0  0  0  0  0
   10.1095  -17.6595   20.0816 C   0  0  0  0  0  0  0  0  0  0  0  0
   10.6122  -18.2176   18.4422 S   0  0  0  0  0  0  0  0  0  0  0  0
    9.5966  -15.6034   21.3694 C   0  0  0  0  0  0  0  0  0  0  0  0
   10.5330  -14.8376   21.7306 O   0  0  0  0  0  0  0  0  0  0  0  0
    7.2596  -11.7280   25.3254 C   0  0  0  0  0  0  0  0  0  0  0  0
    5.9214  -12.9525   25.0921 S   0  0  0  0  0  0  0  0  0  0  0  0
    6.3464  -13.9223   23.6105 C   0  0  0  0  0  0  0  0  0  0  0  0
    6.9895  -15.2392   23.9985 C   0  0  0  0  0  0  0  0  0  0  0  0
    8.4210  -15.2813   23.5687 C   0  0  2  0  0  0  0  0  0  0  0  0
    8.5264  -15.8790   22.2582 N   0  0  0  0  0  0  0  0  0  0  0  0
    9.2299  -16.0202   24.5788 C   0  0  0  0  0  0  0  0  0  0  0  0
    9.7368  -17.1318   24.2845 O   0  0  0  0  0  0  0  0  0  0  0  0
   11.4021  -13.4752   30.3168 C   0  0  0  0  0  0  0  0  0  0  0  0
   11.2882  -15.2613   30.6460 S   0  0  0  0  0  0  0  0  0  0  0  0
   11.3577  -16.1571   29.0540 C   0  0  0  0  0  0  0  0  0  0  0  0
   10.4585  -15.4472   28.0900 C   0  0  0  0  0  0  0  0  0  0  0  0
   10.4171  -16.1640   26.7739 C   0  0  2  0  0  0  0  0  0  0  0  0
    9.4500  -15.5104   25.8701 N   0  0  0  0  0  0  0  0  0  0  0  0
   10.0421  -17.5826   26.8643 C   0  0  0  0  0  0  0  0  0  0  0  0
   10.9078  -18.4817   26.8858 O   0  0  0  0  0  0  0  0  0  0  0  0
    8.7117  -17.9465   26.9273 O   0  0  0  0  0  0  0  0  0  0  0  0
  2  1  1  6
  3  2  1  0
  4  3  1  0
  5  2  1  0
  6  5  2  0
  8  7  1  0
  8  9  1  0
  9 10  1  0
 11 10  1  1
 11 13  1  0
 11 12  1  0
 12  5  1  0
 13 20  1  0
 14 13  2  0
 16 15  1  0
 17 16  1  0
 18 17  1  0
 19 21  1  0
 19 18  1  1
 20 19  1  0
 21 23  1  0
 22 21  2  0
M  END
$$$$
