CMM.pdb
     RDKit          3D

 23 22  0  0  1  0  0  0  0  0999 V2000
    9.1089  -16.2612   19.1144 N   0  0  0  0  0  0  0  0  0  0  0  0
    8.4185  -16.7355   20.2857 C   0  0  1  0  0  0  0  0  0  0  0  0
    8.6178  -18.2423   20.4445 C   0  0  0  0  0  0  0  0  0  0  0  0
    7.6307  -18.8751   21.8144 S   0  0  0  0  0  0  0  0  0  0  0  0
    8.8968  -16.0044   21.4754 C   0  0  0  0  0  0  0  0  0  0  0  0
   10.1191  -15.7207   21.6142 O   0  0  0  0  0  0  0  0  0  0  0  0
    6.5203  -10.9087   25.4517 C   0  0  0  0  0  0  0  0  0  0  0  0
    6.2279  -12.5448   26.2148 S   0  0  0  0  0  0  0  0  0  0  0  0
    7.5623  -13.6418   25.6381 C   0  0  0  0  0  0  0  0  0  0  0  0
    7.1722  -14.3241   24.3417 C   0  0  0  0  0  0  0  0  0  0  0  0
    8.3550  -14.9845   23.7090 C   0  0  2  0  0  0  0  0  0  0  0  0
    7.9642  -15.6186   22.4717 N   0  0  0  0  0  0  0  0  0  0  0  0
    8.9589  -15.9584   24.6614 C   0  0  0  0  0  0  0  0  0  0  0  0
    8.2309  -16.8049   25.2382 O   0  0  0  0  0  0  0  0  0  0  0  0
    9.9150  -12.9550   28.9782 C   0  0  0  0  0  0  0  0  0  0  0  0
   10.5080  -14.6155   29.4280 S   0  0  0  0  0  0  0  0  0  0  0  0
   11.3244  -15.3615   27.9724 C   0  0  0  0  0  0  0  0  0  0  0  0
   10.3629  -16.3286   27.3543 C   0  0  0  0  0  0  0  0  0  0  0  0
   10.8706  -16.8101   26.0285 C   0  0  2  0  0  0  0  0  0  0  0  0
   10.3361  -15.9647   24.9427 N   0  0  0  0  0  0  0  0  0  0  0  0
   10.5212  -18.2025   25.7114 C   0  0  0  0  0  0  0  0  0  0  0  0
    9.5715  -18.4748   24.9485 O   0  0  0  0  0  0  0  0  0  0  0  0
   11.2464  -19.2423   26.2587 O   0  0  0  0  0  0  0  0  0  0  0  0
  2  1  1  6
  3  2  1  0
  4  3  1  0
  5  2  1  0
  6  5  2  0
  8  7  1  0
  8  9  1  0
  9 10  1  0
 11 10  1  1
 11 13  1  0
 11 12  1  0
 12  5  1  0
 13 20  1  0
 14 13  2  0
 16 15  1  0
 17 16  1  0
 18 17  1  0
 19 21  1  0
 19 18  1  1
 20 19  1  0
 21 23  1  0
 22 21  2  0
M  END
$$$$
