CMM.pdb
     RDKit          3D

 23 22  0  0  1  0  0  0  0  0999 V2000
    5.6631  -19.2507   22.1808 N   0  0  0  0  0  0  0  0  0  0  0  0
    6.0190  -18.2232   23.1248 C   0  0  1  0  0  0  0  0  0  0  0  0
    6.2490  -18.8309   24.5080 C   0  0  0  0  0  0  0  0  0  0  0  0
    6.6174  -17.5443   25.7164 S   0  0  0  0  0  0  0  0  0  0  0  0
    7.2179  -17.5050   22.6499 C   0  0  0  0  0  0  0  0  0  0  0  0
    8.2303  -18.1356   22.2364 O   0  0  0  0  0  0  0  0  0  0  0  0
    6.5662  -12.9640   17.9140 C   0  0  0  0  0  0  0  0  0  0  0  0
    7.1766  -12.5961   19.5983 S   0  0  0  0  0  0  0  0  0  0  0  0
    7.6492  -14.1873   20.3473 C   0  0  0  0  0  0  0  0  0  0  0  0
    8.0545  -13.9982   21.7959 C   0  0  0  0  0  0  0  0  0  0  0  0
    8.4162  -15.3059   22.4241 C   0  0  2  0  0  0  0  0  0  0  0  0
    7.2247  -16.0869   22.6614 N   0  0  0  0  0  0  0  0  0  0  0  0
    9.1794  -15.0679   23.6816 C   0  0  0  0  0  0  0  0  0  0  0  0
    8.8920  -14.0877   24.4135 O   0  0  0  0  0  0  0  0  0  0  0  0
   10.7350  -13.8436   29.9991 C   0  0  0  0  0  0  0  0  0  0  0  0
   10.0403  -14.0758   28.3333 S   0  0  0  0  0  0  0  0  0  0  0  0
   10.2405  -15.8282   27.8530 C   0  0  0  0  0  0  0  0  0  0  0  0
    9.6998  -15.9870   26.4659 C   0  0  0  0  0  0  0  0  0  0  0  0
   10.7857  -15.8092   25.4477 C   0  0  2  0  0  0  0  0  0  0  0  0
   10.2265  -15.9142   24.0855 N   0  0  0  0  0  0  0  0  0  0  0  0
   11.8807  -16.7852   25.5478 C   0  0  0  0  0  0  0  0  0  0  0  0
   11.8642  -17.8472   24.8920 O   0  0  0  0  0  0  0  0  0  0  0  0
   12.9561  -16.5395   26.3782 O   0  0  0  0  0  0  0  0  0  0  0  0
  2  1  1  6
  3  2  1  0
  4  3  1  0
  5  2  1  0
  6  5  2  0
  8  7  1  0
  8  9  1  0
  9 10  1  0
 11 10  1  1
 11 13  1  0
 11 12  1  0
 12  5  1  0
 13 20  1  0
 14 13  2  0
 16 15  1  0
 17 16  1  0
 18 17  1  0
 19 21  1  0
 19 18  1  1
 20 19  1  0
 21 23  1  0
 22 21  2  0
M  END
$$$$
