GEN.pdb
     RDKit          3D

 22 21  0  0  1  0  0  0  0  0999 V2000
    8.1752  -15.3649   14.1886 N   0  0  0  0  0  0  0  0  0  0  0  0
    9.1128  -16.2486   14.8477 C   0  0  0  0  0  0  0  0  0  0  0  0
    8.5426  -16.6800   16.1622 C   0  0  0  0  0  0  0  0  0  0  0  0
    7.4684  -16.1951   16.5560 O   0  0  0  0  0  0  0  0  0  0  0  0
    9.2026  -17.6393   16.9775 N   0  0  0  0  0  0  0  0  0  0  0  0
    8.8051  -17.9693   18.3192 C   0  0  1  0  0  0  0  0  0  0  0  0
    9.3496  -19.3138   18.6523 C   0  0  0  0  0  0  0  0  0  0  0  0
    8.7317  -20.3667   17.7963 C   0  0  0  0  0  0  0  0  0  0  0  0
    9.1958  -21.7411   18.0546 C   0  0  0  0  0  0  0  0  0  0  0  0
    9.6633  -22.4187   17.1246 O   0  0  0  0  0  0  0  0  0  0  0  0
    9.3050  -16.9455   19.2904 C   0  0  0  0  0  0  0  0  0  0  0  0
   10.5226  -16.7949   19.5586 O   0  0  0  0  0  0  0  0  0  0  0  0
    9.1421  -22.3409   19.3064 O   0  0  0  0  0  0  0  0  0  0  0  0
    7.0517  -12.2212   19.2189 N   0  0  0  0  0  0  0  0  0  0  0  0
    8.1447  -13.0543   19.5810 C   0  0  0  0  0  0  0  0  0  0  0  0
    9.0965  -13.1254   18.7645 O   0  0  0  0  0  0  0  0  0  0  0  0
    8.1064  -13.7781   20.8676 C   0  0  0  0  0  0  0  0  0  0  0  0
    8.8889  -15.0586   20.8843 C   0  0  2  0  0  0  0  0  0  0  0  0
    8.4251  -16.0627   19.9822 N   0  0  0  0  0  0  0  0  0  0  0  0
    9.0490  -15.5485   22.2488 C   0  0  0  0  0  0  0  0  0  0  0  0
    9.5411  -14.8466   23.1671 O   0  0  0  0  0  0  0  0  0  0  0  0
    8.6206  -16.8688   22.4992 O   0  0  0  0  0  0  0  0  0  0  0  0
  1  2  1  0
  2  3  1  0
  3  5  1  0
  3  4  2  0
  5  6  1  0
  6 11  1  0
  6  7  1  1
  8  7  1  0
  9  8  1  0
 10  9  2  0
 11 19  1  0
 11 12  2  0
 13  9  1  0
 14 15  1  0
 15 17  1  0
 16 15  2  0
 18 17  1  1
 18 20  1  0
 19 18  1  0
 20 22  1  0
 21 20  2  0
M  END
$$$$
