GEN.pdb
     RDKit          3D

 22 21  0  0  1  0  0  0  0  0999 V2000
   11.1665  -21.1742   18.0884 N   0  0  0  0  0  0  0  0  0  0  0  0
    9.9720  -20.4407   18.4482 C   0  0  0  0  0  0  0  0  0  0  0  0
   10.3552  -19.0672   18.9017 C   0  0  0  0  0  0  0  0  0  0  0  0
   11.5527  -18.7916   19.0859 O   0  0  0  0  0  0  0  0  0  0  0  0
    9.3766  -18.0611   19.1270 N   0  0  0  0  0  0  0  0  0  0  0  0
    9.6758  -16.7315   19.5850 C   0  0  1  0  0  0  0  0  0  0  0  0
    8.6743  -15.7980   19.0012 C   0  0  0  0  0  0  0  0  0  0  0  0
    8.8837  -15.6407   17.5333 C   0  0  0  0  0  0  0  0  0  0  0  0
    7.9536  -14.7174   16.8598 C   0  0  0  0  0  0  0  0  0  0  0  0
    7.8353  -13.5520   17.2725 O   0  0  0  0  0  0  0  0  0  0  0  0
    9.6472  -16.6634   21.0802 C   0  0  0  0  0  0  0  0  0  0  0  0
    8.6594  -17.0320   21.7625 O   0  0  0  0  0  0  0  0  0  0  0  0
    7.1816  -15.0790   15.7630 O   0  0  0  0  0  0  0  0  0  0  0  0
   10.9877  -19.5866   25.0779 N   0  0  0  0  0  0  0  0  0  0  0  0
   11.8887  -18.8457   24.2661 C   0  0  0  0  0  0  0  0  0  0  0  0
   13.0690  -18.7399   24.6825 O   0  0  0  0  0  0  0  0  0  0  0  0
   11.4030  -18.2508   23.0048 C   0  0  0  0  0  0  0  0  0  0  0  0
   11.1719  -16.7691   23.0647 C   0  0  2  0  0  0  0  0  0  0  0  0
   10.7500  -16.1727   21.8386 N   0  0  0  0  0  0  0  0  0  0  0  0
   12.3163  -16.0916   23.6637 C   0  0  0  0  0  0  0  0  0  0  0  0
   13.2240  -15.5597   22.9772 O   0  0  0  0  0  0  0  0  0  0  0  0
   12.3626  -16.0580   25.0730 O   0  0  0  0  0  0  0  0  0  0  0  0
  1  2  1  0
  2  3  1  0
  3  5  1  0
  3  4  2  0
  5  6  1  0
  6 11  1  0
  6  7  1  6
  8  7  1  0
  9  8  1  0
 10  9  2  0
 11 19  1  0
 11 12  2  0
 13  9  1  0
 14 15  1  0
 15 17  1  0
 16 15  2  0
 18 17  1  6
 18 20  1  0
 19 18  1  0
 20 22  1  0
 21 20  2  0
M  END
$$$$
