GEN.pdb
     RDKit          3D

 22 21  0  0  1  0  0  0  0  0999 V2000
    1.0849  -21.2045   21.9499 N   0  0  0  0  0  0  0  0  0  0  0  0
    1.8482  -19.9986   22.1898 C   0  0  0  0  0  0  0  0  0  0  0  0
    3.2958  -20.3514   22.3287 C   0  0  0  0  0  0  0  0  0  0  0  0
    3.6262  -21.5358   22.5075 O   0  0  0  0  0  0  0  0  0  0  0  0
    4.3107  -19.3586   22.2588 N   0  0  0  0  0  0  0  0  0  0  0  0
    5.7079  -19.6149   22.4804 C   0  0  1  0  0  0  0  0  0  0  0  0
    6.4926  -18.8148   21.5009 C   0  0  0  0  0  0  0  0  0  0  0  0
    7.9493  -19.1118   21.6146 C   0  0  0  0  0  0  0  0  0  0  0  0
    8.8172  -18.3750   20.6792 C   0  0  0  0  0  0  0  0  0  0  0  0
    9.2163  -17.2367   20.9753 O   0  0  0  0  0  0  0  0  0  0  0  0
    6.0995  -19.2599   23.8811 C   0  0  0  0  0  0  0  0  0  0  0  0
    5.7277  -18.2027   24.4477 O   0  0  0  0  0  0  0  0  0  0  0  0
    9.2278  -18.8883   19.4555 O   0  0  0  0  0  0  0  0  0  0  0  0
    6.8969  -20.4598   29.2509 N   0  0  0  0  0  0  0  0  0  0  0  0
    7.9069  -20.7075   28.2823 C   0  0  0  0  0  0  0  0  0  0  0  0
    9.0975  -20.6413   28.6769 O   0  0  0  0  0  0  0  0  0  0  0  0
    7.5149  -21.0216   26.8936 C   0  0  0  0  0  0  0  0  0  0  0  0
    7.2471  -19.8194   26.0361 C   0  0  2  0  0  0  0  0  0  0  0  0
    6.9275  -20.1063   24.6750 N   0  0  0  0  0  0  0  0  0  0  0  0
    8.3162  -18.8370   26.1754 C   0  0  0  0  0  0  0  0  0  0  0  0
    9.3075  -18.8009   25.4046 O   0  0  0  0  0  0  0  0  0  0  0  0
    8.1887  -17.9115   27.2321 O   0  0  0  0  0  0  0  0  0  0  0  0
  1  2  1  0
  2  3  1  0
  3  5  1  0
  3  4  2  0
  5  6  1  0
  6 11  1  0
  6  7  1  6
  8  7  1  0
  9  8  1  0
 10  9  2  0
 11 19  1  0
 11 12  2  0
 13  9  1  0
 14 15  1  0
 15 17  1  0
 16 15  2  0
 18 17  1  6
 18 20  1  0
 19 18  1  0
 20 22  1  0
 21 20  2  0
M  END
$$$$
