GEN.pdb
     RDKit          3D

 22 21  0  0  1  0  0  0  0  0999 V2000
   15.0060  -19.4511   15.1133 N   0  0  0  0  0  0  0  0  0  0  0  0
   14.7478  -20.6410   15.8954 C   0  0  0  0  0  0  0  0  0  0  0  0
   14.1258  -20.2485   17.1986 C   0  0  0  0  0  0  0  0  0  0  0  0
   14.4572  -19.1814   17.7421 O   0  0  0  0  0  0  0  0  0  0  0  0
   13.1564  -21.0709   17.8347 N   0  0  0  0  0  0  0  0  0  0  0  0
   12.5476  -20.7692   19.1018 C   0  0  1  0  0  0  0  0  0  0  0  0
   11.0730  -20.9128   18.9595 C   0  0  0  0  0  0  0  0  0  0  0  0
   10.5115  -19.8285   18.1037 C   0  0  0  0  0  0  0  0  0  0  0  0
    9.0504  -19.8661   17.9172 C   0  0  0  0  0  0  0  0  0  0  0  0
    8.5688  -19.6893   16.7861 O   0  0  0  0  0  0  0  0  0  0  0  0
   13.0626  -21.6813   20.1714 C   0  0  0  0  0  0  0  0  0  0  0  0
   13.4381  -22.8579   19.9440 O   0  0  0  0  0  0  0  0  0  0  0  0
    8.1554  -20.0937   18.9548 O   0  0  0  0  0  0  0  0  0  0  0  0
   16.2991  -19.5393   23.0516 N   0  0  0  0  0  0  0  0  0  0  0  0
   15.8534  -20.8326   22.6661 C   0  0  0  0  0  0  0  0  0  0  0  0
   16.4366  -21.3639   21.6888 O   0  0  0  0  0  0  0  0  0  0  0  0
   14.7525  -21.4706   23.4155 C   0  0  0  0  0  0  0  0  0  0  0  0
   13.7034  -22.1109   22.5544 C   0  0  2  0  0  0  0  0  0  0  0  0
   13.1643  -21.2722   21.5331 N   0  0  0  0  0  0  0  0  0  0  0  0
   12.6756  -22.7416   23.3751 C   0  0  0  0  0  0  0  0  0  0  0  0
   12.9385  -23.6230   24.2307 O   0  0  0  0  0  0  0  0  0  0  0  0
   11.3486  -22.3128   23.1638 O   0  0  0  0  0  0  0  0  0  0  0  0
  1  2  1  0
  2  3  1  0
  3  5  1  0
  3  4  2  0
  5  6  1  0
  6 11  1  0
  6  7  1  6
  8  7  1  0
  9  8  1  0
 10  9  2  0
 11 19  1  0
 11 12  2  0
 13  9  1  0
 14 15  1  0
 15 17  1  0
 16 15  2  0
 18 17  1  1
 18 20  1  0
 19 18  1  0
 20 22  1  0
 21 20  2  0
M  END
$$$$
