GEN.pdb
     RDKit          3D

 22 21  0  0  1  0  0  0  0  0999 V2000
    8.1918  -11.8712   18.8507 N   0  0  0  0  0  0  0  0  0  0  0  0
    8.5002  -13.0997   18.1506 C   0  0  0  0  0  0  0  0  0  0  0  0
    8.5990  -14.2186   19.1392 C   0  0  0  0  0  0  0  0  0  0  0  0
    8.5759  -13.9685   20.3561 O   0  0  0  0  0  0  0  0  0  0  0  0
    8.7174  -15.5712   18.7184 N   0  0  0  0  0  0  0  0  0  0  0  0
    8.9782  -16.6729   19.6046 C   0  0  1  0  0  0  0  0  0  0  0  0
    8.6149  -17.9346   18.9037 C   0  0  0  0  0  0  0  0  0  0  0  0
    7.4085  -18.5584   19.5190 C   0  0  0  0  0  0  0  0  0  0  0  0
    7.3661  -20.0305   19.4699 C   0  0  0  0  0  0  0  0  0  0  0  0
    6.8532  -20.6000   18.4926 O   0  0  0  0  0  0  0  0  0  0  0  0
   10.4174  -16.6971   20.0160 C   0  0  0  0  0  0  0  0  0  0  0  0
   11.3459  -17.0233   19.2360 O   0  0  0  0  0  0  0  0  0  0  0  0
    7.8782  -20.8415   20.4747 O   0  0  0  0  0  0  0  0  0  0  0  0
   12.3725  -13.6828   19.4737 N   0  0  0  0  0  0  0  0  0  0  0  0
   13.1744  -14.6623   20.1197 C   0  0  0  0  0  0  0  0  0  0  0  0
   14.0861  -15.1885   19.4345 O   0  0  0  0  0  0  0  0  0  0  0  0
   12.9010  -15.0044   21.5299 C   0  0  0  0  0  0  0  0  0  0  0  0
   12.2075  -16.3206   21.7272 C   0  0  2  0  0  0  0  0  0  0  0  0
   10.8360  -16.3468   21.3329 N   0  0  0  0  0  0  0  0  0  0  0  0
   12.4206  -16.8191   23.0813 C   0  0  0  0  0  0  0  0  0  0  0  0
   13.5656  -17.0293   23.5532 O   0  0  0  0  0  0  0  0  0  0  0  0
   11.2653  -17.0605   23.8537 O   0  0  0  0  0  0  0  0  0  0  0  0
  1  2  1  0
  2  3  1  0
  3  5  1  0
  3  4  2  0
  5  6  1  0
  6 11  1  0
  6  7  1  6
  8  7  1  0
  9  8  1  0
 10  9  2  0
 11 19  1  0
 11 12  2  0
 13  9  1  0
 14 15  1  0
 15 17  1  0
 16 15  2  0
 18 17  1  1
 18 20  1  0
 19 18  1  0
 20 22  1  0
 21 20  2  0
M  END
$$$$
