GEN.pdb
     RDKit          3D

 22 21  0  0  1  0  0  0  0  0999 V2000
    6.9112  -12.4030   19.4784 N   0  0  0  0  0  0  0  0  0  0  0  0
    8.2039  -12.9934   19.2053 C   0  0  0  0  0  0  0  0  0  0  0  0
    8.3133  -14.2972   19.9314 C   0  0  0  0  0  0  0  0  0  0  0  0
    7.4049  -14.6506   20.7020 O   0  0  0  0  0  0  0  0  0  0  0  0
    9.4378  -15.1495   19.7591 N   0  0  0  0  0  0  0  0  0  0  0  0
    9.5339  -16.4788   20.2984 C   0  0  1  0  0  0  0  0  0  0  0  0
   10.1021  -17.3700   19.2505 C   0  0  0  0  0  0  0  0  0  0  0  0
    9.2283  -17.3977   18.0425 C   0  0  0  0  0  0  0  0  0  0  0  0
    9.7272  -18.2154   16.9229 C   0  0  0  0  0  0  0  0  0  0  0  0
    9.5596  -17.8285   15.7546 O   0  0  0  0  0  0  0  0  0  0  0  0
   10.3934  -16.4961   21.5241 C   0  0  0  0  0  0  0  0  0  0  0  0
   11.4308  -15.7982   21.6414 O   0  0  0  0  0  0  0  0  0  0  0  0
   10.3910  -19.4230   17.0978 O   0  0  0  0  0  0  0  0  0  0  0  0
   11.4576  -16.5108   26.9787 N   0  0  0  0  0  0  0  0  0  0  0  0
   10.9440  -17.6611   26.3207 C   0  0  0  0  0  0  0  0  0  0  0  0
   11.2428  -18.7763   26.8154 O   0  0  0  0  0  0  0  0  0  0  0  0
   10.1059  -17.4910   25.1168 C   0  0  0  0  0  0  0  0  0  0  0  0
   10.8777  -17.3118   23.8423 C   0  0  2  0  0  0  0  0  0  0  0  0
   10.0892  -17.3122   22.6525 N   0  0  0  0  0  0  0  0  0  0  0  0
   11.9996  -18.2420   23.7824 C   0  0  0  0  0  0  0  0  0  0  0  0
   11.9189  -19.3656   23.2266 O   0  0  0  0  0  0  0  0  0  0  0  0
   13.2021  -17.8195   24.3867 O   0  0  0  0  0  0  0  0  0  0  0  0
  1  2  1  0
  2  3  1  0
  3  5  1  0
  3  4  2  0
  5  6  1  0
  6 11  1  0
  6  7  1  6
  8  7  1  0
  9  8  1  0
 10  9  2  0
 11 19  1  0
 11 12  2  0
 13  9  1  0
 14 15  1  0
 15 17  1  0
 16 15  2  0
 18 17  1  1
 18 20  1  0
 19 18  1  0
 20 22  1  0
 21 20  2  0
M  END
$$$$
