GEN.pdb
     RDKit          3D

 22 21  0  0  1  0  0  0  0  0999 V2000
    7.9006  -17.1388   15.6205 N   0  0  0  0  0  0  0  0  0  0  0  0
    7.9131  -18.5439   15.9667 C   0  0  0  0  0  0  0  0  0  0  0  0
    7.3810  -18.7138   17.3549 C   0  0  0  0  0  0  0  0  0  0  0  0
    7.1368  -17.7115   18.0474 O   0  0  0  0  0  0  0  0  0  0  0  0
    7.1443  -20.0029   17.9053 N   0  0  0  0  0  0  0  0  0  0  0  0
    6.6937  -20.2364   19.2505 C   0  0  1  0  0  0  0  0  0  0  0  0
    5.5954  -21.2401   19.2095 C   0  0  0  0  0  0  0  0  0  0  0  0
    4.3356  -20.6757   19.7732 C   0  0  0  0  0  0  0  0  0  0  0  0
    3.1654  -21.5694   19.7186 C   0  0  0  0  0  0  0  0  0  0  0  0
    2.0273  -21.0876   19.5950 O   0  0  0  0  0  0  0  0  0  0  0  0
    7.8171  -20.7230   20.1122 C   0  0  0  0  0  0  0  0  0  0  0  0
    8.6940  -21.5241   19.7043 O   0  0  0  0  0  0  0  0  0  0  0  0
    3.2588  -22.9530   19.7982 O   0  0  0  0  0  0  0  0  0  0  0  0
   11.6735  -21.0960   23.4707 N   0  0  0  0  0  0  0  0  0  0  0  0
   10.7950  -20.1015   23.9797 C   0  0  0  0  0  0  0  0  0  0  0  0
   11.0510  -19.6530   25.1246 O   0  0  0  0  0  0  0  0  0  0  0  0
    9.6520  -19.6574   23.1569 C   0  0  0  0  0  0  0  0  0  0  0  0
    9.0588  -20.7273   22.2876 C   0  0  2  0  0  0  0  0  0  0  0  0
    7.9703  -20.3051   21.4664 N   0  0  0  0  0  0  0  0  0  0  0  0
    8.7525  -21.9188   23.0711 C   0  0  0  0  0  0  0  0  0  0  0  0
    7.6213  -22.1243   23.5773 O   0  0  0  0  0  0  0  0  0  0  0  0
    9.7995  -22.8486   23.2406 O   0  0  0  0  0  0  0  0  0  0  0  0
  1  2  1  0
  2  3  1  0
  3  5  1  0
  3  4  2  0
  5  6  1  0
  6 11  1  0
  6  7  1  6
  8  7  1  0
  9  8  1  0
 10  9  2  0
 11 19  1  0
 11 12  2  0
 13  9  1  0
 14 15  1  0
 15 17  1  0
 16 15  2  0
 18 17  1  1
 18 20  1  0
 19 18  1  0
 20 22  1  0
 21 20  2  0
M  END
$$$$
