MTI.pdb
     RDKit          3D

 24 23  0  0  1  0  0  0  0  0999 V2000
   20.4365  -19.0015  -10.1579 C   0  0  0  0  0  0  0  0  0  0  0  0
   19.9441  -19.8251  -11.7129 S   0  0  0  0  0  0  0  0  0  0  0  0
   21.4520  -20.1260  -12.7097 C   0  0  0  0  0  0  0  0  0  0  0  0
   22.5010  -20.7109  -11.8040 C   0  0  0  0  0  0  0  0  0  0  0  0
   23.8297  -20.8562  -12.4687 C   0  0  2  0  0  0  0  0  0  0  0  0
   23.7106  -21.5731  -13.6989 N   0  0  0  0  0  0  0  0  0  0  0  0
   24.8823  -21.3930  -11.5752 C   0  0  0  0  0  0  0  0  0  0  0  0
   24.8424  -22.6039  -11.2368 O   0  0  0  0  0  0  0  0  0  0  0  0
   29.4415  -21.4686  -10.0046 C   0  0  0  0  0  0  0  0  0  0  0  0
   28.2600  -20.9882  -10.8103 C   0  0  1  0  0  0  0  0  0  0  0  0
   28.1671  -21.7810  -11.9800 O   0  0  0  0  0  0  0  0  0  0  0  0
   26.9330  -21.1494  -10.1043 C   0  0  2  0  0  0  0  0  0  0  0  0
   25.9490  -20.6044  -11.0727 N   0  0  0  0  0  0  0  0  0  0  0  0
   26.8237  -20.4192   -8.8390 C   0  0  0  0  0  0  0  0  0  0  0  0
   25.9986  -19.4532   -8.7623 O   0  0  0  0  0  0  0  0  0  0  0  0
   28.7816  -22.1377   -3.7239 C   0  0  0  0  0  0  0  0  0  0  0  0
   27.7677  -21.5796   -4.7219 C   0  0  0  0  0  0  0  0  0  0  0  0
   28.3442  -20.3738   -5.4085 C   0  0  2  0  0  0  0  0  0  0  0  0
   28.6182  -19.3392   -4.3281 C   0  0  0  0  0  0  0  0  0  0  0  0
   27.4763  -19.8261   -6.4918 C   0  0  2  0  0  0  0  0  0  0  0  0
   27.5694  -20.7054   -7.6790 N   0  0  0  0  0  0  0  0  0  0  0  0
   27.9589  -18.4997   -6.8999 C   0  0  0  0  0  0  0  0  0  0  0  0
   28.9091  -18.3364   -7.6888 O   0  0  0  0  0  0  0  0  0  0  0  0
   27.3487  -17.3640   -6.4010 O   0  0  0  0  0  0  0  0  0  0  0  0
  1  2  1  0
  2  3  1  0
  4  3  1  0
  5  7  1  0
  5  4  1  0
  5  6  1  6
  7  8  2  0
 10 12  1  0
 10  9  1  1
 11 10  1  0
 12 13  1  6
 13  7  1  0
 14 12  1  0
 15 14  2  0
 16 17  1  0
 17 18  1  0
 18 20  1  0
 18 19  1  1
 20 21  1  6
 20 22  1  0
 21 14  1  0
 22 24  1  0
 23 22  2  0
M  END
$$$$
