MTI.pdb
     RDKit          3D

 24 23  0  0  1  0  0  0  0  0999 V2000
   31.2594  -20.8848   -9.2299 C   0  0  0  0  0  0  0  0  0  0  0  0
   32.0795  -22.2388  -10.1427 S   0  0  0  0  0  0  0  0  0  0  0  0
   31.6273  -22.0987  -11.9129 C   0  0  0  0  0  0  0  0  0  0  0  0
   30.3066  -21.3841  -12.0020 C   0  0  0  0  0  0  0  0  0  0  0  0
   29.8840  -21.1134  -13.4079 C   0  0  2  0  0  0  0  0  0  0  0  0
   30.9797  -20.6307  -14.1876 N   0  0  0  0  0  0  0  0  0  0  0  0
   28.6730  -20.2662  -13.5086 C   0  0  0  0  0  0  0  0  0  0  0  0
   28.6974  -19.1005  -13.0366 O   0  0  0  0  0  0  0  0  0  0  0  0
   27.0916  -18.7842  -16.2314 C   0  0  0  0  0  0  0  0  0  0  0  0
   25.9930  -19.5803  -15.5718 C   0  0  1  0  0  0  0  0  0  0  0  0
   25.9205  -20.8462  -16.2024 O   0  0  0  0  0  0  0  0  0  0  0  0
   26.2418  -19.8692  -14.1090 C   0  0  2  0  0  0  0  0  0  0  0  0
   27.4689  -20.7043  -14.1173 N   0  0  0  0  0  0  0  0  0  0  0  0
   25.1624  -20.6000  -13.4403 C   0  0  0  0  0  0  0  0  0  0  0  0
   25.1508  -21.8706  -13.5129 O   0  0  0  0  0  0  0  0  0  0  0  0
   24.3716  -20.6721   -8.4499 C   0  0  0  0  0  0  0  0  0  0  0  0
   24.3351  -21.1430   -9.9033 C   0  0  0  0  0  0  0  0  0  0  0  0
   23.1160  -20.5888  -10.5845 C   0  0  2  0  0  0  0  0  0  0  0  0
   21.9071  -21.1922   -9.8864 C   0  0  0  0  0  0  0  0  0  0  0  0
   23.0850  -20.8348  -12.0561 C   0  0  2  0  0  0  0  0  0  0  0  0
   24.1188  -20.0003  -12.7090 N   0  0  0  0  0  0  0  0  0  0  0  0
   21.7872  -20.4216  -12.6074 C   0  0  0  0  0  0  0  0  0  0  0  0
   20.8099  -21.1896  -12.6907 O   0  0  0  0  0  0  0  0  0  0  0  0
   21.6152  -19.1274  -13.0614 O   0  0  0  0  0  0  0  0  0  0  0  0
  1  2  1  0
  2  3  1  0
  4  3  1  0
  5  7  1  0
  5  4  1  0
  5  6  1  6
  7  8  2  0
 10 12  1  0
 10  9  1  6
 11 10  1  0
 12 13  1  6
 13  7  1  0
 14 12  1  0
 15 14  2  0
 16 17  1  0
 17 18  1  0
 18 20  1  0
 18 19  1  1
 20 21  1  6
 20 22  1  0
 21 14  1  0
 22 24  1  0
 23 22  2  0
M  END
$$$$
