MTI.pdb
     RDKit          3D

 24 23  0  0  1  0  0  0  0  0999 V2000
   11.3171  -13.3141  -12.3974 C   0  0  0  0  0  0  0  0  0  0  0  0
   11.4425  -12.7510  -14.1312 S   0  0  0  0  0  0  0  0  0  0  0  0
   13.2166  -12.6493  -14.5786 C   0  0  0  0  0  0  0  0  0  0  0  0
   13.9673  -12.1123  -13.3908 C   0  0  0  0  0  0  0  0  0  0  0  0
   15.4243  -11.9271  -13.6572 C   0  0  2  0  0  0  0  0  0  0  0  0
   16.1079  -13.1819  -13.6578 N   0  0  0  0  0  0  0  0  0  0  0  0
   16.0605  -10.9119  -12.7860 C   0  0  0  0  0  0  0  0  0  0  0  0
   16.5778  -11.2732  -11.6978 O   0  0  0  0  0  0  0  0  0  0  0  0
   18.4455   -6.6367  -12.6097 C   0  0  0  0  0  0  0  0  0  0  0  0
   17.7164   -7.8037  -13.2281 C   0  0  1  0  0  0  0  0  0  0  0  0
   18.6776   -8.7434  -13.6737 O   0  0  0  0  0  0  0  0  0  0  0  0
   16.8331   -8.5553  -12.2586 C   0  0  2  0  0  0  0  0  0  0  0  0
   16.1189   -9.5336  -13.1165 N   0  0  0  0  0  0  0  0  0  0  0  0
   15.8546   -7.7225  -11.5548 C   0  0  0  0  0  0  0  0  0  0  0  0
   14.7933   -7.3796  -12.1679 O   0  0  0  0  0  0  0  0  0  0  0  0
   12.5848   -6.8378   -6.7427 C   0  0  0  0  0  0  0  0  0  0  0  0
   13.4025   -6.0379   -7.7561 C   0  0  0  0  0  0  0  0  0  0  0  0
   14.3226   -6.9600   -8.5048 C   0  0  2  0  0  0  0  0  0  0  0  0
   15.3133   -7.5134   -7.4924 C   0  0  0  0  0  0  0  0  0  0  0  0
   15.0136   -6.3137   -9.6588 C   0  0  2  0  0  0  0  0  0  0  0  0
   15.9944   -7.2637  -10.2307 N   0  0  0  0  0  0  0  0  0  0  0  0
   15.7689   -5.1402   -9.1991 C   0  0  0  0  0  0  0  0  0  0  0  0
   15.2260   -4.0631   -8.8879 O   0  0  0  0  0  0  0  0  0  0  0  0
   17.1459   -5.2070   -9.0979 O   0  0  0  0  0  0  0  0  0  0  0  0
  1  2  1  0
  2  3  1  0
  4  3  1  0
  5  7  1  0
  5  4  1  0
  5  6  1  1
  7  8  2  0
 10 12  1  0
 10  9  1  1
 11 10  1  0
 12 13  1  6
 13  7  1  0
 14 12  1  0
 15 14  2  0
 16 17  1  0
 17 18  1  0
 18 20  1  0
 18 19  1  1
 20 21  1  1
 20 22  1  0
 21 14  1  0
 22 24  1  0
 23 22  2  0
M  END
$$$$
