MTI.pdb
     RDKit          3D

 24 23  0  0  1  0  0  0  0  0999 V2000
   22.3371  -15.1267  -17.1569 C   0  0  0  0  0  0  0  0  0  0  0  0
   22.6237  -15.4858  -18.9255 S   0  0  0  0  0  0  0  0  0  0  0  0
   24.2091  -16.3914  -19.0814 C   0  0  0  0  0  0  0  0  0  0  0  0
   24.2213  -17.4908  -18.0547 C   0  0  0  0  0  0  0  0  0  0  0  0
   25.5499  -18.1607  -17.9339 C   0  0  2  0  0  0  0  0  0  0  0  0
   26.0598  -18.5211  -19.2191 N   0  0  0  0  0  0  0  0  0  0  0  0
   25.5622  -19.2788  -16.9622 C   0  0  0  0  0  0  0  0  0  0  0  0
   25.3873  -20.4539  -17.3753 O   0  0  0  0  0  0  0  0  0  0  0  0
   27.0851  -21.3192  -16.5830 C   0  0  0  0  0  0  0  0  0  0  0  0
   27.1081  -20.9757  -15.1142 C   0  0  1  0  0  0  0  0  0  0  0  0
   28.1884  -20.0903  -14.8809 O   0  0  0  0  0  0  0  0  0  0  0  0
   25.8737  -20.2441  -14.6385 C   0  0  2  0  0  0  0  0  0  0  0  0
   25.7634  -19.0939  -15.5702 N   0  0  0  0  0  0  0  0  0  0  0  0
   25.9524  -19.7476  -13.2624 C   0  0  0  0  0  0  0  0  0  0  0  0
   25.7908  -18.5026  -13.0538 O   0  0  0  0  0  0  0  0  0  0  0  0
   21.8797  -20.0375  -12.1781 C   0  0  0  0  0  0  0  0  0  0  0  0
   23.3399  -19.6250  -11.9962 C   0  0  0  0  0  0  0  0  0  0  0  0
   24.0230  -20.5807  -11.0594 C   0  0  2  0  0  0  0  0  0  0  0  0
   23.2569  -20.5360   -9.7465 C   0  0  0  0  0  0  0  0  0  0  0  0
   25.4747  -20.2962  -10.8629 C   0  0  2  0  0  0  0  0  0  0  0  0
   26.1947  -20.5506  -12.1311 N   0  0  0  0  0  0  0  0  0  0  0  0
   26.0347  -21.2115   -9.8591 C   0  0  0  0  0  0  0  0  0  0  0  0
   26.2977  -22.4050  -10.1008 O   0  0  0  0  0  0  0  0  0  0  0  0
   26.2914  -20.7537   -8.5803 O   0  0  0  0  0  0  0  0  0  0  0  0
  1  2  1  0
  2  3  1  0
  4  3  1  0
  5  7  1  0
  5  4  1  0
  5  6  1  6
  7  8  2  0
 10 12  1  0
 10  9  1  6
 11 10  1  0
 12 13  1  6
 13  7  1  0
 14 12  1  0
 15 14  2  0
 16 17  1  0
 17 18  1  0
 18 20  1  0
 18 19  1  1
 20 21  1  6
 20 22  1  0
 21 14  1  0
 22 24  1  0
 23 22  2  0
M  END
$$$$
