MTI.pdb
     RDKit          3D

 24 23  0  0  1  0  0  0  0  0999 V2000
   33.0915  -23.5941  -13.4375 C   0  0  0  0  0  0  0  0  0  0  0  0
   32.6735  -24.9425  -14.5976 S   0  0  0  0  0  0  0  0  0  0  0  0
   31.3942  -24.3302  -15.7580 C   0  0  0  0  0  0  0  0  0  0  0  0
   30.6593  -23.2010  -15.0887 C   0  0  0  0  0  0  0  0  0  0  0  0
   29.6004  -22.6012  -15.9532 C   0  0  2  0  0  0  0  0  0  0  0  0
   30.1207  -22.2655  -17.2410 N   0  0  0  0  0  0  0  0  0  0  0  0
   28.8695  -21.4871  -15.3061 C   0  0  0  0  0  0  0  0  0  0  0  0
   28.9943  -20.3222  -15.7639 O   0  0  0  0  0  0  0  0  0  0  0  0
   27.3449  -19.3624  -15.7734 C   0  0  0  0  0  0  0  0  0  0  0  0
   26.5252  -19.9002  -14.6268 C   0  0  1  0  0  0  0  0  0  0  0  0
   25.7055  -20.9455  -15.1174 O   0  0  0  0  0  0  0  0  0  0  0  0
   27.3518  -20.5172  -13.5216 C   0  0  2  0  0  0  0  0  0  0  0  0
   28.0237  -21.6646  -14.1812 N   0  0  0  0  0  0  0  0  0  0  0  0
   26.5747  -21.0022  -12.3782 C   0  0  0  0  0  0  0  0  0  0  0  0
   26.2875  -22.2406  -12.3181 O   0  0  0  0  0  0  0  0  0  0  0  0
   27.8370  -19.5057   -7.5108 C   0  0  0  0  0  0  0  0  0  0  0  0
   27.3717  -20.3915   -8.6660 C   0  0  0  0  0  0  0  0  0  0  0  0
   25.9040  -20.1791   -8.9074 C   0  0  2  0  0  0  0  0  0  0  0  0
   25.1732  -20.7170   -7.6870 C   0  0  0  0  0  0  0  0  0  0  0  0
   25.4057  -20.8007  -10.1692 C   0  0  2  0  0  0  0  0  0  0  0  0
   26.1130  -20.1954  -11.3202 N   0  0  0  0  0  0  0  0  0  0  0  0
   23.9758  -20.5102  -10.3419 C   0  0  0  0  0  0  0  0  0  0  0  0
   23.0825  -21.0920   -9.6973 O   0  0  0  0  0  0  0  0  0  0  0  0
   23.5754  -19.5521  -11.2543 O   0  0  0  0  0  0  0  0  0  0  0  0
  1  2  1  0
  2  3  1  0
  4  3  1  0
  5  7  1  0
  5  4  1  0
  5  6  1  6
  7  8  2  0
 10 12  1  0
 10  9  1  6
 11 10  1  0
 12 13  1  6
 13  7  1  0
 14 12  1  0
 15 14  2  0
 16 17  1  0
 17 18  1  0
 18 20  1  0
 18 19  1  1
 20 21  1  6
 20 22  1  0
 21 14  1  0
 22 24  1  0
 23 22  2  0
M  END
$$$$
