MTI.pdb
     RDKit          3D

 24 23  0  0  1  0  0  0  0  0999 V2000
   26.5828  -26.4637  -15.9605 C   0  0  0  0  0  0  0  0  0  0  0  0
   26.2465  -26.1389  -17.7270 S   0  0  0  0  0  0  0  0  0  0  0  0
   26.1453  -24.3257  -17.9717 C   0  0  0  0  0  0  0  0  0  0  0  0
   26.8870  -23.6606  -16.8447 C   0  0  0  0  0  0  0  0  0  0  0  0
   26.8595  -22.1704  -16.9281 C   0  0  2  0  0  0  0  0  0  0  0  0
   27.4991  -21.7128  -18.1210 N   0  0  0  0  0  0  0  0  0  0  0  0
   27.3531  -21.5004  -15.7026 C   0  0  0  0  0  0  0  0  0  0  0  0
   28.3858  -20.7850  -15.7668 O   0  0  0  0  0  0  0  0  0  0  0  0
   27.5378  -18.9834  -15.0963 C   0  0  0  0  0  0  0  0  0  0  0  0
   26.7293  -19.3356  -13.8723 C   0  0  1  0  0  0  0  0  0  0  0  0
   25.3609  -19.3644  -14.2359 O   0  0  0  0  0  0  0  0  0  0  0  0
   27.0303  -20.7085  -13.3157 C   0  0  2  0  0  0  0  0  0  0  0  0
   26.7154  -21.6232  -14.4414 N   0  0  0  0  0  0  0  0  0  0  0  0
   26.2276  -21.0818  -12.1484 C   0  0  0  0  0  0  0  0  0  0  0  0
   25.3064  -21.9478  -12.2942 O   0  0  0  0  0  0  0  0  0  0  0  0
   26.6668  -18.6547   -6.9376 C   0  0  0  0  0  0  0  0  0  0  0  0
   26.1239  -19.0599   -8.3076 C   0  0  0  0  0  0  0  0  0  0  0  0
   26.1599  -20.5557   -8.4441 C   0  0  2  0  0  0  0  0  0  0  0  0
   27.6105  -20.9800   -8.2751 C   0  0  0  0  0  0  0  0  0  0  0  0
   25.5825  -21.0569   -9.7256 C   0  0  2  0  0  0  0  0  0  0  0  0
   26.3965  -20.5523  -10.8544 N   0  0  0  0  0  0  0  0  0  0  0  0
   24.2234  -20.5283   -9.9051 C   0  0  0  0  0  0  0  0  0  0  0  0
   23.9568  -19.5913  -10.6815 O   0  0  0  0  0  0  0  0  0  0  0  0
   23.1738  -21.0774   -9.1925 O   0  0  0  0  0  0  0  0  0  0  0  0
  1  2  1  0
  2  3  1  0
  4  3  1  0
  5  7  1  0
  5  4  1  0
  5  6  1  6
  7  8  2  0
 10 12  1  0
 10  9  1  6
 11 10  1  0
 12 13  1  6
 13  7  1  0
 14 12  1  0
 15 14  2  0
 16 17  1  0
 17 18  1  0
 18 20  1  0
 18 19  1  6
 20 21  1  6
 20 22  1  0
 21 14  1  0
 22 24  1  0
 23 22  2  0
M  END
$$$$
