MTI.pdb
     RDKit          3D

 24 23  0  0  1  0  0  0  0  0999 V2000
   19.9312  -16.8504  -12.6695 C   0  0  0  0  0  0  0  0  0  0  0  0
   18.4489  -17.9183  -12.6357 S   0  0  0  0  0  0  0  0  0  0  0  0
   17.1648  -17.1578  -13.6990 C   0  0  0  0  0  0  0  0  0  0  0  0
   17.8115  -16.0603  -14.4992 C   0  0  0  0  0  0  0  0  0  0  0  0
   16.8541  -15.3553  -15.4018 C   0  0  2  0  0  0  0  0  0  0  0  0
   16.1773  -16.2816  -16.2536 N   0  0  0  0  0  0  0  0  0  0  0  0
   17.4592  -14.2182  -16.1334 C   0  0  0  0  0  0  0  0  0  0  0  0
   17.4446  -14.2191  -17.3912 O   0  0  0  0  0  0  0  0  0  0  0  0
   17.0278  -12.3765  -18.1150 C   0  0  0  0  0  0  0  0  0  0  0  0
   17.5580  -11.4353  -17.0619 C   0  0  1  0  0  0  0  0  0  0  0  0
   16.5201  -11.1754  -16.1341 O   0  0  0  0  0  0  0  0  0  0  0  0
   18.6960  -12.0079  -16.2480 C   0  0  2  0  0  0  0  0  0  0  0  0
   18.0634  -13.1116  -15.4834 N   0  0  0  0  0  0  0  0  0  0  0  0
   19.3129  -11.0624  -15.3144 C   0  0  0  0  0  0  0  0  0  0  0  0
   18.7996  -10.9255  -14.1579 O   0  0  0  0  0  0  0  0  0  0  0  0
   24.3132  -11.6157  -14.3287 C   0  0  0  0  0  0  0  0  0  0  0  0
   22.8138  -11.3321  -14.2465 C   0  0  0  0  0  0  0  0  0  0  0  0
   22.5613   -9.8703  -14.4843 C   0  0  2  0  0  0  0  0  0  0  0  0
   23.3040   -9.1108  -13.3960 C   0  0  0  0  0  0  0  0  0  0  0  0
   21.1141   -9.5082  -14.5226 C   0  0  2  0  0  0  0  0  0  0  0  0
   20.4493  -10.2799  -15.5968 N   0  0  0  0  0  0  0  0  0  0  0  0
   20.9607   -8.0856  -14.8568 C   0  0  0  0  0  0  0  0  0  0  0  0
   20.9645   -7.6593  -16.0273 O   0  0  0  0  0  0  0  0  0  0  0  0
   20.8032   -7.1563  -13.8457 O   0  0  0  0  0  0  0  0  0  0  0  0
  1  2  1  0
  2  3  1  0
  4  3  1  0
  5  7  1  0
  5  4  1  0
  5  6  1  6
  7  8  2  0
 10 12  1  0
 10  9  1  6
 11 10  1  0
 12 13  1  1
 13  7  1  0
 14 12  1  0
 15 14  2  0
 16 17  1  0
 17 18  1  0
 18 20  1  0
 18 19  1  1
 20 21  1  6
 20 22  1  0
 21 14  1  0
 22 24  1  0
 23 22  2  0
M  END
$$$$
