MTI.pdb
     RDKit          3D

 24 23  0  0  1  0  0  0  0  0999 V2000
   25.3601  -20.1984   -7.0746 C   0  0  0  0  0  0  0  0  0  0  0  0
   26.0897  -19.9013   -8.7233 S   0  0  0  0  0  0  0  0  0  0  0  0
   25.1606  -20.8924   -9.9531 C   0  0  0  0  0  0  0  0  0  0  0  0
   25.8167  -20.7062  -11.2940 C   0  0  0  0  0  0  0  0  0  0  0  0
   25.1753  -21.5132  -12.3737 C   0  0  2  0  0  0  0  0  0  0  0  0
   25.7219  -22.8326  -12.4197 N   0  0  0  0  0  0  0  0  0  0  0  0
   25.1641  -20.8356  -13.6909 C   0  0  0  0  0  0  0  0  0  0  0  0
   26.1277  -21.0106  -14.4803 O   0  0  0  0  0  0  0  0  0  0  0  0
   22.8833  -21.4456  -16.3467 C   0  0  0  0  0  0  0  0  0  0  0  0
   22.8269  -19.9593  -16.0947 C   0  0  1  0  0  0  0  0  0  0  0  0
   21.7981  -19.7060  -15.1550 O   0  0  0  0  0  0  0  0  0  0  0  0
   24.0871  -19.3958  -15.4786 C   0  0  2  0  0  0  0  0  0  0  0  0
   24.1101  -19.9873  -14.1174 N   0  0  0  0  0  0  0  0  0  0  0  0
   24.1128  -17.9348  -15.3730 C   0  0  0  0  0  0  0  0  0  0  0  0
   23.4761  -17.3816  -14.4199 O   0  0  0  0  0  0  0  0  0  0  0  0
   27.6395  -13.1653  -15.5108 C   0  0  0  0  0  0  0  0  0  0  0  0
   26.2073  -13.5930  -15.8290 C   0  0  0  0  0  0  0  0  0  0  0  0
   26.1077  -15.0918  -15.7978 C   0  0  2  0  0  0  0  0  0  0  0  0
   27.1229  -15.6230  -16.7979 C   0  0  0  0  0  0  0  0  0  0  0  0
   24.7357  -15.6095  -16.0741 C   0  0  2  0  0  0  0  0  0  0  0  0
   24.7985  -17.0774  -16.2550 N   0  0  0  0  0  0  0  0  0  0  0  0
   24.2283  -15.0424  -17.3310 C   0  0  0  0  0  0  0  0  0  0  0  0
   23.8751  -13.8532  -17.4451 O   0  0  0  0  0  0  0  0  0  0  0  0
   24.1282  -15.8425  -18.4538 O   0  0  0  0  0  0  0  0  0  0  0  0
  1  2  1  0
  2  3  1  0
  4  3  1  0
  5  7  1  0
  5  4  1  0
  5  6  1  6
  7  8  2  0
 10 12  1  0
 10  9  1  1
 11 10  1  0
 12 13  1  1
 13  7  1  0
 14 12  1  0
 15 14  2  0
 16 17  1  0
 17 18  1  0
 18 20  1  0
 18 19  1  6
 20 21  1  6
 20 22  1  0
 21 14  1  0
 22 24  1  0
 23 22  2  0
M  END
$$$$
