MTI.pdb
     RDKit          3D

 24 23  0  0  1  0  0  0  0  0999 V2000
   26.9707  -16.0076  -15.5985 C   0  0  0  0  0  0  0  0  0  0  0  0
   28.4522  -17.0740  -15.5173 S   0  0  0  0  0  0  0  0  0  0  0  0
   27.9036  -18.8215  -15.4612 C   0  0  0  0  0  0  0  0  0  0  0  0
   26.5228  -18.8963  -16.0535 C   0  0  0  0  0  0  0  0  0  0  0  0
   25.9552  -20.2769  -16.0363 C   0  0  2  0  0  0  0  0  0  0  0  0
   26.8585  -21.2090  -16.6337 N   0  0  0  0  0  0  0  0  0  0  0  0
   24.5807  -20.3580  -16.5826 C   0  0  0  0  0  0  0  0  0  0  0  0
   24.3475  -21.1307  -17.5474 O   0  0  0  0  0  0  0  0  0  0  0  0
   22.7506  -22.0133  -17.4248 C   0  0  0  0  0  0  0  0  0  0  0  0
   21.8093  -21.1519  -16.6200 C   0  0  1  0  0  0  0  0  0  0  0  0
   21.9203  -21.5237  -15.2580 O   0  0  0  0  0  0  0  0  0  0  0  0
   22.1397  -19.6775  -16.6664 C   0  0  2  0  0  0  0  0  0  0  0  0
   23.4966  -19.6003  -16.0698 N   0  0  0  0  0  0  0  0  0  0  0  0
   21.2253  -18.8241  -15.9036 C   0  0  0  0  0  0  0  0  0  0  0  0
   21.4364  -18.6649  -14.6587 O   0  0  0  0  0  0  0  0  0  0  0  0
   20.7366  -13.9895  -17.3362 C   0  0  0  0  0  0  0  0  0  0  0  0
   20.7868  -15.2442  -16.4651 C   0  0  0  0  0  0  0  0  0  0  0  0
   19.4106  -15.8361  -16.3502 C   0  0  2  0  0  0  0  0  0  0  0  0
   18.5404  -14.7996  -15.6564 C   0  0  0  0  0  0  0  0  0  0  0  0
   19.3777  -17.1493  -15.6423 C   0  0  2  0  0  0  0  0  0  0  0  0
   20.1128  -18.1519  -16.4459 N   0  0  0  0  0  0  0  0  0  0  0  0
   17.9917  -17.6232  -15.5265 C   0  0  0  0  0  0  0  0  0  0  0  0
   17.3824  -18.1740  -16.4631 O   0  0  0  0  0  0  0  0  0  0  0  0
   17.3091  -17.4633  -14.3352 O   0  0  0  0  0  0  0  0  0  0  0  0
  1  2  1  0
  2  3  1  0
  4  3  1  0
  5  7  1  0
  5  4  1  0
  5  6  1  6
  7  8  2  0
 10 12  1  0
 10  9  1  6
 11 10  1  0
 12 13  1  1
 13  7  1  0
 14 12  1  0
 15 14  2  0
 16 17  1  0
 17 18  1  0
 18 20  1  0
 18 19  1  1
 20 21  1  6
 20 22  1  0
 21 14  1  0
 22 24  1  0
 23 22  2  0
M  END
$$$$
