QCG.pdb
     RDKit          3D

 20 19  0  0  1  0  0  0  0  0999 V2000
   14.6447  -22.0307    1.1898 N   0  0  0  0  0  0  0  0  0  0  0  0
   13.8314  -20.9194    0.7675 C   0  0  0  0  0  0  0  0  0  0  0  0
   12.8913  -21.1940    0.0086 O   0  0  0  0  0  0  0  0  0  0  0  0
   14.1195  -19.5531    1.2220 C   0  0  0  0  0  0  0  0  0  0  0  0
   15.2057  -19.4474    2.2349 C   0  0  0  0  0  0  0  0  0  0  0  0
   14.8200  -18.7776    3.5270 C   0  0  2  0  0  0  0  0  0  0  0  0
   14.8358  -17.3391    3.2470 N   0  0  0  0  0  0  0  0  0  0  0  0
   15.7703  -19.1213    4.5985 C   0  0  0  0  0  0  0  0  0  0  0  0
   16.8917  -18.5612    4.6454 O   0  0  0  0  0  0  0  0  0  0  0  0
   15.4840  -20.0816    5.6170 N   0  0  0  0  0  0  0  0  0  0  0  0
   16.4239  -20.2888    6.7006 C   0  0  1  0  0  0  0  0  0  0  0  0
   15.9951  -19.3847    7.8367 C   0  0  0  0  0  0  0  0  0  0  0  0
   17.0236  -17.8916    7.7600 S   0  0  0  0  0  0  0  0  0  0  0  0
   16.4884  -21.7091    7.1161 C   0  0  0  0  0  0  0  0  0  0  0  0
   15.3999  -22.3368    7.1716 O   0  0  0  0  0  0  0  0  0  0  0  0
   17.6699  -22.3957    7.4489 N   0  0  0  0  0  0  0  0  0  0  0  0
   17.7512  -23.7981    7.7315 C   0  0  0  0  0  0  0  0  0  0  0  0
   19.1305  -24.2617    7.9919 C   0  0  0  0  0  0  0  0  0  0  0  0
   20.0530  -23.4160    7.8955 O   0  0  0  0  0  0  0  0  0  0  0  0
   19.4667  -25.5492    8.3304 O   0  0  0  0  0  0  0  0  0  0  0  0
  2  1  1  0
  3  2  2  0
  4  2  1  0
  5  4  1  0
  6  5  1  0
  6  7  1  6
  8  6  1  0
  8 10  1  0
  9  8  2  0
 11 10  1  0
 11 14  1  0
 11 12  1  1
 13 12  1  0
 14 15  2  0
 14 16  1  0
 16 17  1  0
 18 17  1  0
 18 20  1  0
 19 18  2  0
M  END
$$$$
