QCG.pdb
     RDKit          3D

 20 19  0  0  1  0  0  0  0  0999 V2000
   19.5764  -14.3930  -16.0328 N   0  0  0  0  0  0  0  0  0  0  0  0
   20.2292  -15.1405  -17.0768 C   0  0  0  0  0  0  0  0  0  0  0  0
   19.5541  -16.0349  -17.6056 O   0  0  0  0  0  0  0  0  0  0  0  0
   21.6116  -14.8423  -17.4722 C   0  0  0  0  0  0  0  0  0  0  0  0
   22.2455  -13.7185  -16.7292 C   0  0  0  0  0  0  0  0  0  0  0  0
   22.5039  -12.4749  -17.5378 C   0  0  2  0  0  0  0  0  0  0  0  0
   23.5009  -12.8562  -18.5420 N   0  0  0  0  0  0  0  0  0  0  0  0
   23.0029  -11.3870  -16.6794 C   0  0  0  0  0  0  0  0  0  0  0  0
   22.3329  -11.0140  -15.6868 O   0  0  0  0  0  0  0  0  0  0  0  0
   24.2395  -10.7113  -16.9157 N   0  0  0  0  0  0  0  0  0  0  0  0
   24.6847   -9.6773  -16.0030 C   0  0  1  0  0  0  0  0  0  0  0  0
   26.1949   -9.6249  -16.0971 C   0  0  0  0  0  0  0  0  0  0  0  0
   26.8384  -11.1501  -15.3538 S   0  0  0  0  0  0  0  0  0  0  0  0
   24.0644   -8.3663  -16.3036 C   0  0  0  0  0  0  0  0  0  0  0  0
   24.1801   -7.9372  -17.4802 O   0  0  0  0  0  0  0  0  0  0  0  0
   23.3630   -7.5777  -15.3739 N   0  0  0  0  0  0  0  0  0  0  0  0
   22.7238   -6.3307  -15.6736 C   0  0  0  0  0  0  0  0  0  0  0  0
   22.0551   -5.7220  -14.5043 C   0  0  0  0  0  0  0  0  0  0  0  0
   21.9570   -6.4200  -13.4657 O   0  0  0  0  0  0  0  0  0  0  0  0
   21.5373   -4.4505  -14.4799 O   0  0  0  0  0  0  0  0  0  0  0  0
  2  1  1  0
  3  2  2  0
  4  2  1  0
  5  4  1  0
  6  5  1  0
  6  7  1  6
  8  6  1  0
  8 10  1  0
  9  8  2  0
 11 10  1  0
 11 14  1  0
 11 12  1  6
 13 12  1  0
 14 15  2  0
 14 16  1  0
 16 17  1  0
 18 17  1  0
 18 20  1  0
 19 18  2  0
M  END
$$$$
