QCG.pdb
     RDKit          3D

 20 19  0  0  1  0  0  0  0  0999 V2000
   22.9207  -24.4790  -14.6356 N   0  0  0  0  0  0  0  0  0  0  0  0
   21.6142  -24.0431  -15.0574 C   0  0  0  0  0  0  0  0  0  0  0  0
   20.8395  -24.9358  -15.4291 O   0  0  0  0  0  0  0  0  0  0  0  0
   21.2466  -22.6216  -15.0393 C   0  0  0  0  0  0  0  0  0  0  0  0
   22.3105  -21.7072  -14.5403 C   0  0  0  0  0  0  0  0  0  0  0  0
   22.3228  -21.4835  -13.0514 C   0  0  2  0  0  0  0  0  0  0  0  0
   21.1075  -20.7195  -12.7563 N   0  0  0  0  0  0  0  0  0  0  0  0
   23.5288  -20.7426  -12.6436 C   0  0  0  0  0  0  0  0  0  0  0  0
   23.5381  -19.4890  -12.6841 O   0  0  0  0  0  0  0  0  0  0  0  0
   24.7229  -21.3840  -12.1917 N   0  0  0  0  0  0  0  0  0  0  0  0
   25.9087  -20.5962  -11.9201 C   0  0  1  0  0  0  0  0  0  0  0  0
   26.5009  -21.1195  -10.6288 C   0  0  0  0  0  0  0  0  0  0  0  0
   25.3263  -20.7383   -9.2991 S   0  0  0  0  0  0  0  0  0  0  0  0
   26.8795  -20.6503  -13.0375 C   0  0  0  0  0  0  0  0  0  0  0  0
   27.3529  -21.7789  -13.3273 O   0  0  0  0  0  0  0  0  0  0  0  0
   27.3031  -19.5387  -13.7879 N   0  0  0  0  0  0  0  0  0  0  0  0
   28.1456  -19.6036  -14.9451 C   0  0  0  0  0  0  0  0  0  0  0  0
   27.6905  -18.7307  -16.0478 C   0  0  0  0  0  0  0  0  0  0  0  0
   26.5226  -18.8998  -16.4752 O   0  0  0  0  0  0  0  0  0  0  0  0
   28.4573  -17.7526  -16.6317 O   0  0  0  0  0  0  0  0  0  0  0  0
  2  1  1  0
  3  2  2  0
  4  2  1  0
  5  4  1  0
  6  5  1  0
  6  7  1  6
  8  6  1  0
  8 10  1  0
  9  8  2  0
 11 10  1  0
 11 14  1  0
 11 12  1  1
 13 12  1  0
 14 15  2  0
 14 16  1  0
 16 17  1  0
 18 17  1  0
 18 20  1  0
 19 18  2  0
M  END
$$$$
