QCG.pdb
     RDKit          3D

 20 19  0  0  1  0  0  0  0  0999 V2000
   20.4228  -22.6493  -13.1972 N   0  0  0  0  0  0  0  0  0  0  0  0
   20.7289  -21.2804  -12.8698 C   0  0  0  0  0  0  0  0  0  0  0  0
   19.7770  -20.4882  -12.9099 O   0  0  0  0  0  0  0  0  0  0  0  0
   22.0940  -20.8729  -12.5138 C   0  0  0  0  0  0  0  0  0  0  0  0
   23.0572  -20.8556  -13.6491 C   0  0  0  0  0  0  0  0  0  0  0  0
   22.9630  -19.6581  -14.5569 C   0  0  2  0  0  0  0  0  0  0  0  0
   21.7194  -19.8317  -15.3127 N   0  0  0  0  0  0  0  0  0  0  0  0
   24.1271  -19.5908  -15.4567 C   0  0  0  0  0  0  0  0  0  0  0  0
   24.0910  -20.1628  -16.5724 O   0  0  0  0  0  0  0  0  0  0  0  0
   25.3295  -18.8934  -15.1261 N   0  0  0  0  0  0  0  0  0  0  0  0
   26.4392  -18.8829  -16.0582 C   0  0  1  0  0  0  0  0  0  0  0  0
   27.0591  -17.5033  -15.9921 C   0  0  0  0  0  0  0  0  0  0  0  0
   27.3167  -17.1073  -14.2400 S   0  0  0  0  0  0  0  0  0  0  0  0
   27.4244  -19.9484  -15.7611 C   0  0  0  0  0  0  0  0  0  0  0  0
   27.4870  -20.3513  -14.5712 O   0  0  0  0  0  0  0  0  0  0  0  0
   28.2845  -20.5335  -16.7076 N   0  0  0  0  0  0  0  0  0  0  0  0
   29.2449  -21.5574  -16.4201 C   0  0  0  0  0  0  0  0  0  0  0  0
   28.7600  -22.9175  -16.7365 C   0  0  0  0  0  0  0  0  0  0  0  0
   27.5655  -23.0351  -17.1035 O   0  0  0  0  0  0  0  0  0  0  0  0
   29.5263  -24.0541  -16.6557 O   0  0  0  0  0  0  0  0  0  0  0  0
  2  1  1  0
  3  2  2  0
  4  2  1  0
  5  4  1  0
  6  5  1  0
  6  7  1  6
  8  6  1  0
  8 10  1  0
  9  8  2  0
 11 10  1  0
 11 14  1  0
 11 12  1  1
 13 12  1  0
 14 15  2  0
 14 16  1  0
 16 17  1  0
 18 17  1  0
 18 20  1  0
 19 18  2  0
M  END
$$$$
