QCG.pdb
     RDKit          3D

 20 19  0  0  1  0  0  0  0  0999 V2000
   16.1743  -12.9150  -16.5391 N   0  0  0  0  0  0  0  0  0  0  0  0
   16.7837  -13.0409  -17.8382 C   0  0  0  0  0  0  0  0  0  0  0  0
   16.0590  -13.4953  -18.7346 O   0  0  0  0  0  0  0  0  0  0  0  0
   18.1810  -12.6483  -18.0616 C   0  0  0  0  0  0  0  0  0  0  0  0
   18.8565  -12.0432  -16.8806 C   0  0  0  0  0  0  0  0  0  0  0  0
   20.2439  -11.5146  -17.1316 C   0  0  2  0  0  0  0  0  0  0  0  0
   21.0169  -12.6547  -17.6322 N   0  0  0  0  0  0  0  0  0  0  0  0
   20.8310  -10.9770  -15.8924 C   0  0  0  0  0  0  0  0  0  0  0  0
   21.3100  -11.7577  -15.0355 O   0  0  0  0  0  0  0  0  0  0  0  0
   20.8897   -9.5799  -15.5989 N   0  0  0  0  0  0  0  0  0  0  0  0
   21.6756   -9.1091  -14.4759 C   0  0  1  0  0  0  0  0  0  0  0  0
   23.1228   -9.4307  -14.7833 C   0  0  0  0  0  0  0  0  0  0  0  0
   23.6761  -10.6586  -13.5671 S   0  0  0  0  0  0  0  0  0  0  0  0
   21.4705   -7.6644  -14.2211 C   0  0  0  0  0  0  0  0  0  0  0  0
   21.8981   -7.2120  -13.1282 O   0  0  0  0  0  0  0  0  0  0  0  0
   20.8377   -6.7745  -15.1075 N   0  0  0  0  0  0  0  0  0  0  0  0
   20.6151   -5.3823  -14.8516 C   0  0  0  0  0  0  0  0  0  0  0  0
   21.8462   -4.5688  -14.9393 C   0  0  0  0  0  0  0  0  0  0  0  0
   22.9244   -5.1730  -15.1581 O   0  0  0  0  0  0  0  0  0  0  0  0
   21.8873   -3.2036  -14.7980 O   0  0  0  0  0  0  0  0  0  0  0  0
  2  1  1  0
  3  2  2  0
  4  2  1  0
  5  4  1  0
  6  5  1  0
  6  7  1  1
  8  6  1  0
  8 10  1  0
  9  8  2  0
 11 10  1  0
 11 14  1  0
 11 12  1  6
 13 12  1  0
 14 15  2  0
 14 16  1  0
 16 17  1  0
 18 17  1  0
 18 20  1  0
 19 18  2  0
M  END
$$$$
