QCG.pdb
     RDKit          3D

 20 19  0  0  1  0  0  0  0  0999 V2000
   15.4899  -10.5240  -15.2276 N   0  0  0  0  0  0  0  0  0  0  0  0
   15.7579  -10.9587  -16.5744 C   0  0  0  0  0  0  0  0  0  0  0  0
   14.7649  -11.2350  -17.2619 O   0  0  0  0  0  0  0  0  0  0  0  0
   17.1333  -11.0607  -17.0787 C   0  0  0  0  0  0  0  0  0  0  0  0
   18.1903  -10.7373  -16.0812 C   0  0  0  0  0  0  0  0  0  0  0  0
   19.6064  -10.8845  -16.5711 C   0  0  2  0  0  0  0  0  0  0  0  0
   19.8508  -12.3276  -16.6464 N   0  0  0  0  0  0  0  0  0  0  0  0
   20.5502  -10.2330  -15.6469 C   0  0  0  0  0  0  0  0  0  0  0  0
   20.4955  -10.4794  -14.4182 O   0  0  0  0  0  0  0  0  0  0  0  0
   21.5529   -9.3107  -16.0775 N   0  0  0  0  0  0  0  0  0  0  0  0
   22.4089   -8.6654  -15.1022 C   0  0  1  0  0  0  0  0  0  0  0  0
   23.8063   -9.2087  -15.3122 C   0  0  0  0  0  0  0  0  0  0  0  0
   23.9952  -10.6535  -14.2306 S   0  0  0  0  0  0  0  0  0  0  0  0
   22.3650   -7.1891  -15.2150 C   0  0  0  0  0  0  0  0  0  0  0  0
   22.4518   -6.7030  -16.3718 O   0  0  0  0  0  0  0  0  0  0  0  0
   22.2344   -6.3042  -14.1297 N   0  0  0  0  0  0  0  0  0  0  0  0
   22.1797   -4.8764  -14.2380 C   0  0  0  0  0  0  0  0  0  0  0  0
   20.8103   -4.3590  -14.4433 C   0  0  0  0  0  0  0  0  0  0  0  0
   19.8842   -5.1995  -14.5498 O   0  0  0  0  0  0  0  0  0  0  0  0
   20.4869   -3.0270  -14.5247 O   0  0  0  0  0  0  0  0  0  0  0  0
  2  1  1  0
  3  2  2  0
  4  2  1  0
  5  4  1  0
  6  5  1  0
  6  7  1  1
  8  6  1  0
  8 10  1  0
  9  8  2  0
 11 10  1  0
 11 14  1  0
 11 12  1  6
 13 12  1  0
 14 15  2  0
 14 16  1  0
 16 17  1  0
 18 17  1  0
 18 20  1  0
 19 18  2  0
M  END
$$$$
