QCG.pdb
     RDKit          3D

 20 19  0  0  1  0  0  0  0  0999 V2000
   21.7376  -28.3248  -14.2777 N   0  0  0  0  0  0  0  0  0  0  0  0
   20.6400  -27.4831  -13.8756 C   0  0  0  0  0  0  0  0  0  0  0  0
   20.3754  -27.4799  -12.6652 O   0  0  0  0  0  0  0  0  0  0  0  0
   19.8949  -26.6871  -14.8592 C   0  0  0  0  0  0  0  0  0  0  0  0
   19.7399  -25.2479  -14.5101 C   0  0  0  0  0  0  0  0  0  0  0  0
   20.9963  -24.4231  -14.6007 C   0  0  2  0  0  0  0  0  0  0  0  0
   21.9413  -25.0378  -13.6643 N   0  0  0  0  0  0  0  0  0  0  0  0
   20.7281  -23.0201  -14.2414 C   0  0  0  0  0  0  0  0  0  0  0  0
   19.5458  -22.6113  -14.1501 O   0  0  0  0  0  0  0  0  0  0  0  0
   21.7629  -22.0693  -13.9831 N   0  0  0  0  0  0  0  0  0  0  0  0
   21.4208  -20.7141  -13.6000 C   0  0  1  0  0  0  0  0  0  0  0  0
   22.2232  -20.3899  -12.3578 C   0  0  0  0  0  0  0  0  0  0  0  0
   21.4658  -21.2857  -10.9732 S   0  0  0  0  0  0  0  0  0  0  0  0
   21.6752  -19.7470  -14.6927 C   0  0  0  0  0  0  0  0  0  0  0  0
   22.6642  -19.9738  -15.4360 O   0  0  0  0  0  0  0  0  0  0  0  0
   20.8956  -18.6057  -14.9528 N   0  0  0  0  0  0  0  0  0  0  0  0
   21.1228  -17.6850  -16.0270 C   0  0  0  0  0  0  0  0  0  0  0  0
   20.1887  -17.8664  -17.1583 C   0  0  0  0  0  0  0  0  0  0  0  0
   20.2085  -18.9713  -17.7534 O   0  0  0  0  0  0  0  0  0  0  0  0
   19.3060  -16.9110  -17.5981 O   0  0  0  0  0  0  0  0  0  0  0  0
  2  1  1  0
  3  2  2  0
  4  2  1  0
  5  4  1  0
  6  5  1  0
  6  7  1  1
  8  6  1  0
  8 10  1  0
  9  8  2  0
 11 10  1  0
 11 14  1  0
 11 12  1  1
 13 12  1  0
 14 15  2  0
 14 16  1  0
 16 17  1  0
 18 17  1  0
 18 20  1  0
 19 18  2  0
M  END
$$$$
