QCG.pdb
     RDKit          3D

 20 19  0  0  1  0  0  0  0  0999 V2000
   24.2030  -25.0979  -13.8796 N   0  0  0  0  0  0  0  0  0  0  0  0
   23.1502  -24.3319  -14.4957 C   0  0  0  0  0  0  0  0  0  0  0  0
   21.9946  -24.6466  -14.1782 O   0  0  0  0  0  0  0  0  0  0  0  0
   23.4533  -23.2490  -15.4401 C   0  0  0  0  0  0  0  0  0  0  0  0
   23.3654  -21.8775  -14.8674 C   0  0  0  0  0  0  0  0  0  0  0  0
   23.0916  -21.8123  -13.3882 C   0  0  2  0  0  0  0  0  0  0  0  0
   21.7263  -21.2950  -13.2612 N   0  0  0  0  0  0  0  0  0  0  0  0
   24.0595  -20.9293  -12.7154 C   0  0  0  0  0  0  0  0  0  0  0  0
   23.9832  -19.6862  -12.8645 O   0  0  0  0  0  0  0  0  0  0  0  0
   25.1103  -21.4169  -11.8790 N   0  0  0  0  0  0  0  0  0  0  0  0
   26.2047  -20.5421  -11.5081 C   0  0  1  0  0  0  0  0  0  0  0  0
   26.3730  -20.6562  -10.0079 C   0  0  0  0  0  0  0  0  0  0  0  0
   24.8335  -20.0747   -9.2431 S   0  0  0  0  0  0  0  0  0  0  0  0
   27.4526  -20.8754  -12.2332 C   0  0  0  0  0  0  0  0  0  0  0  0
   28.2607  -21.6451  -11.6532 O   0  0  0  0  0  0  0  0  0  0  0  0
   27.7915  -20.3955  -13.5110 N   0  0  0  0  0  0  0  0  0  0  0  0
   27.5065  -19.0768  -13.9938 C   0  0  0  0  0  0  0  0  0  0  0  0
   27.2474  -19.0314  -15.4484 C   0  0  0  0  0  0  0  0  0  0  0  0
   26.1547  -19.4953  -15.8562 O   0  0  0  0  0  0  0  0  0  0  0  0
   28.1186  -18.5179  -16.3773 O   0  0  0  0  0  0  0  0  0  0  0  0
  2  1  1  0
  3  2  2  0
  4  2  1  0
  5  4  1  0
  6  5  1  0
  6  7  1  6
  8  6  1  0
  8 10  1  0
  9  8  2  0
 11 10  1  0
 11 14  1  0
 11 12  1  1
 13 12  1  0
 14 15  2  0
 14 16  1  0
 16 17  1  0
 18 17  1  0
 18 20  1  0
 19 18  2  0
M  END
$$$$
