CTM.pdb
     RDKit          3D

 22 21  0  0  1  0  0  0  0  0999 V2000
    8.0950  -14.5393   17.3837 N   0  0  0  0  0  0  0  0  0  0  0  0
    8.8814  -14.2574   18.5500 C   0  0  1  0  0  0  0  0  0  0  0  0
    8.6958  -12.7960   18.9032 C   0  0  0  0  0  0  0  0  0  0  0  0
    9.6770  -12.3449   20.3712 S   0  0  0  0  0  0  0  0  0  0  0  0
    8.4785  -15.0561   19.7236 C   0  0  0  0  0  0  0  0  0  0  0  0
    7.2489  -15.0700   20.0143 O   0  0  0  0  0  0  0  0  0  0  0  0
    9.2620  -18.6616   20.5433 C   0  0  0  0  0  0  0  0  0  0  0  0
    9.6670  -17.8543   21.7466 C   0  0  1  0  0  0  0  0  0  0  0  0
   11.0527  -17.7085   21.7349 O   0  0  0  0  0  0  0  0  0  0  0  0
    8.9771  -16.5130   21.7014 C   0  0  2  0  0  0  0  0  0  0  0  0
    9.3939  -15.7892   20.5165 N   0  0  0  0  0  0  0  0  0  0  0  0
    9.3734  -15.7332   22.9094 C   0  0  0  0  0  0  0  0  0  0  0  0
   10.3858  -14.9883   22.8850 O   0  0  0  0  0  0  0  0  0  0  0  0
    5.6926  -12.1948   26.0649 C   0  0  0  0  0  0  0  0  0  0  0  0
    7.0544  -11.9726   27.2494 S   0  0  0  0  0  0  0  0  0  0  0  0
    8.2789  -13.2779   26.8964 C   0  0  0  0  0  0  0  0  0  0  0  0
    7.9465  -14.0080   25.6277 C   0  0  0  0  0  0  0  0  0  0  0  0
    8.9458  -15.0449   25.3192 C   0  0  2  0  0  0  0  0  0  0  0  0
    8.6385  -15.7983   24.1133 N   0  0  0  0  0  0  0  0  0  0  0  0
    9.2474  -15.9834   26.3889 C   0  0  0  0  0  0  0  0  0  0  0  0
    9.6484  -15.6147   27.5138 O   0  0  0  0  0  0  0  0  0  0  0  0
    9.1038  -17.3834   26.2194 O   0  0  0  0  0  0  0  0  0  0  0  0
  2  1  1  6
  2  5  1  0
  3  2  1  0
  4  3  1  0
  5 11  1  0
  5  6  2  0
  8  7  1  6
  8 10  1  0
  8  9  1  0
 10 12  1  0
 10 11  1  6
 12 13  2  0
 14 15  1  0
 15 16  1  0
 18 17  1  1
 17 16  1  0
 18 20  1  0
 19 12  1  0
 19 18  1  0
 20 22  1  0
 21 20  2  0
M  END
$$$$
