CTM.pdb
     RDKit          3D

 22 21  0  0  1  0  0  0  0  0999 V2000
    8.1192  -15.0841   17.0172 N   0  0  0  0  0  0  0  0  0  0  0  0
    8.5309  -14.5685   18.2911 C   0  0  1  0  0  0  0  0  0  0  0  0
    7.8427  -13.2362   18.5065 C   0  0  0  0  0  0  0  0  0  0  0  0
    8.9691  -11.8491   18.1483 S   0  0  0  0  0  0  0  0  0  0  0  0
    8.1622  -15.4497   19.4159 C   0  0  0  0  0  0  0  0  0  0  0  0
    6.9584  -15.8288   19.4779 O   0  0  0  0  0  0  0  0  0  0  0  0
    9.0681  -18.7768   20.6100 C   0  0  0  0  0  0  0  0  0  0  0  0
    9.4248  -17.8584   21.7471 C   0  0  1  0  0  0  0  0  0  0  0  0
   10.7994  -17.6320   21.7177 O   0  0  0  0  0  0  0  0  0  0  0  0
    8.6563  -16.5676   21.6042 C   0  0  2  0  0  0  0  0  0  0  0  0
    9.0825  -15.8759   20.4036 N   0  0  0  0  0  0  0  0  0  0  0  0
    8.9471  -15.7074   22.7874 C   0  0  0  0  0  0  0  0  0  0  0  0
    9.9679  -14.9738   22.8084 O   0  0  0  0  0  0  0  0  0  0  0  0
    6.1396  -10.9751   28.2156 C   0  0  0  0  0  0  0  0  0  0  0  0
    5.7441  -12.0833   26.8289 S   0  0  0  0  0  0  0  0  0  0  0  0
    7.2341  -13.0878   26.5149 C   0  0  0  0  0  0  0  0  0  0  0  0
    7.0541  -13.9682   25.3124 C   0  0  0  0  0  0  0  0  0  0  0  0
    8.2519  -14.7846   25.0521 C   0  0  2  0  0  0  0  0  0  0  0  0
    8.1002  -15.6815   23.9169 N   0  0  0  0  0  0  0  0  0  0  0  0
    8.7667  -15.5458   26.1798 C   0  0  0  0  0  0  0  0  0  0  0  0
    8.6480  -16.7872   26.2635 O   0  0  0  0  0  0  0  0  0  0  0  0
    9.4393  -14.9214   27.2602 O   0  0  0  0  0  0  0  0  0  0  0  0
  2  1  1  6
  2  5  1  0
  3  2  1  0
  4  3  1  0
  5 11  1  0
  5  6  2  0
  8  7  1  6
  8 10  1  0
  8  9  1  0
 10 12  1  0
 10 11  1  6
 12 13  2  0
 14 15  1  0
 15 16  1  0
 18 17  1  1
 17 16  1  0
 18 20  1  0
 19 12  1  0
 19 18  1  0
 20 22  1  0
 21 20  2  0
M  END
$$$$
