CTM.pdb
     RDKit          3D

 22 21  0  0  1  0  0  0  0  0999 V2000
   11.6654  -16.5212   17.7777 N   0  0  0  0  0  0  0  0  0  0  0  0
   11.3361  -17.2692   18.9568 C   0  0  1  0  0  0  0  0  0  0  0  0
   12.6093  -17.8911   19.4928 C   0  0  0  0  0  0  0  0  0  0  0  0
   12.2565  -19.0178   20.8810 S   0  0  0  0  0  0  0  0  0  0  0  0
   10.7611  -16.4329   20.0280 C   0  0  0  0  0  0  0  0  0  0  0  0
   11.2619  -15.2843   20.1914 O   0  0  0  0  0  0  0  0  0  0  0  0
    6.9059  -15.8943   20.6375 C   0  0  0  0  0  0  0  0  0  0  0  0
    7.5937  -16.2948   21.9144 C   0  0  1  0  0  0  0  0  0  0  0  0
    7.3944  -17.6594   22.1144 O   0  0  0  0  0  0  0  0  0  0  0  0
    9.0631  -15.9674   21.8121 C   0  0  2  0  0  0  0  0  0  0  0  0
    9.6965  -16.8574   20.8590 N   0  0  0  0  0  0  0  0  0  0  0  0
    9.6893  -16.1672   23.1509 C   0  0  0  0  0  0  0  0  0  0  0  0
   10.5737  -17.0450   23.3179 O   0  0  0  0  0  0  0  0  0  0  0  0
   10.2887  -13.7081   30.6518 C   0  0  0  0  0  0  0  0  0  0  0  0
    9.4937  -13.3682   29.0519 S   0  0  0  0  0  0  0  0  0  0  0  0
   10.0054  -14.6999   27.9150 C   0  0  0  0  0  0  0  0  0  0  0  0
    9.4361  -14.4924   26.5416 C   0  0  0  0  0  0  0  0  0  0  0  0
    9.8526  -15.5575   25.6137 C   0  0  2  0  0  0  0  0  0  0  0  0
    9.3202  -15.3899   24.2704 N   0  0  0  0  0  0  0  0  0  0  0  0
    9.5970  -16.9223   26.0476 C   0  0  0  0  0  0  0  0  0  0  0  0
    8.5227  -17.5142   25.8074 O   0  0  0  0  0  0  0  0  0  0  0  0
   10.5576  -17.6693   26.7746 O   0  0  0  0  0  0  0  0  0  0  0  0
  2  1  1  6
  2  5  1  0
  3  2  1  0
  4  3  1  0
  5 11  1  0
  5  6  2  0
  8  7  1  6
  8 10  1  0
  8  9  1  0
 10 12  1  0
 10 11  1  6
 12 13  2  0
 14 15  1  0
 15 16  1  0
 18 17  1  1
 17 16  1  0
 18 20  1  0
 19 12  1  0
 19 18  1  0
 20 22  1  0
 21 20  2  0
M  END
$$$$
