CTM.pdb
     RDKit          3D

 22 21  0  0  1  0  0  0  0  0999 V2000
    7.8535  -15.0073   17.3240 N   0  0  0  0  0  0  0  0  0  0  0  0
    8.5579  -14.5570   18.4899 C   0  0  1  0  0  0  0  0  0  0  0  0
    8.0285  -13.1873   18.8623 C   0  0  0  0  0  0  0  0  0  0  0  0
    8.5835  -11.9226   17.6732 S   0  0  0  0  0  0  0  0  0  0  0  0
    8.3684  -15.4420   19.6554 C   0  0  0  0  0  0  0  0  0  0  0  0
    7.1957  -15.8574   19.8766 O   0  0  0  0  0  0  0  0  0  0  0  0
    9.7699  -18.6656   20.4533 C   0  0  0  0  0  0  0  0  0  0  0  0
   10.0804  -17.8498   21.6788 C   0  0  1  0  0  0  0  0  0  0  0  0
   11.4266  -17.4919   21.6419 O   0  0  0  0  0  0  0  0  0  0  0  0
    9.1923  -16.6301   21.7030 C   0  0  2  0  0  0  0  0  0  0  0  0
    9.4238  -15.8339   20.5137 N   0  0  0  0  0  0  0  0  0  0  0  0
    9.5349  -15.8159   22.9048 C   0  0  0  0  0  0  0  0  0  0  0  0
   10.0205  -14.6632   22.7781 O   0  0  0  0  0  0  0  0  0  0  0  0
    6.2597  -11.5358   27.7164 C   0  0  0  0  0  0  0  0  0  0  0  0
    6.3280  -12.5738   26.2247 S   0  0  0  0  0  0  0  0  0  0  0  0
    7.6771  -13.7751   26.4792 C   0  0  0  0  0  0  0  0  0  0  0  0
    7.8868  -14.6253   25.2600 C   0  0  0  0  0  0  0  0  0  0  0  0
    9.0902  -15.4653   25.3832 C   0  0  2  0  0  0  0  0  0  0  0  0
    9.3309  -16.2990   24.2157 N   0  0  0  0  0  0  0  0  0  0  0  0
    9.1720  -16.2979   26.5733 C   0  0  0  0  0  0  0  0  0  0  0  0
    8.9289  -17.5237   26.5544 O   0  0  0  0  0  0  0  0  0  0  0  0
    9.5352  -15.7657   27.8360 O   0  0  0  0  0  0  0  0  0  0  0  0
  2  1  1  6
  2  5  1  0
  3  2  1  0
  4  3  1  0
  5 11  1  0
  5  6  2  0
  8  7  1  6
  8 10  1  0
  8  9  1  0
 10 12  1  0
 10 11  1  6
 12 13  2  0
 14 15  1  0
 15 16  1  0
 18 17  1  6
 17 16  1  0
 18 20  1  0
 19 12  1  0
 19 18  1  0
 20 22  1  0
 21 20  2  0
M  END
$$$$
