CTM.pdb
     RDKit          3D

 22 21  0  0  1  0  0  0  0  0999 V2000
   11.7119  -17.9313   17.9968 N   0  0  0  0  0  0  0  0  0  0  0  0
   11.7669  -18.5327   19.2981 C   0  0  1  0  0  0  0  0  0  0  0  0
   13.1616  -18.3299   19.8538 C   0  0  0  0  0  0  0  0  0  0  0  0
   14.3702  -19.3938   19.0004 S   0  0  0  0  0  0  0  0  0  0  0  0
   10.8137  -17.9323   20.2512 C   0  0  0  0  0  0  0  0  0  0  0  0
   10.5491  -16.7056   20.1033 O   0  0  0  0  0  0  0  0  0  0  0  0
    7.3520  -19.4025   21.3968 C   0  0  0  0  0  0  0  0  0  0  0  0
    8.1977  -19.0664   22.5950 C   0  0  1  0  0  0  0  0  0  0  0  0
    8.7889  -20.2388   23.0615 O   0  0  0  0  0  0  0  0  0  0  0  0
    9.2404  -18.0500   22.1990 C   0  0  2  0  0  0  0  0  0  0  0  0
   10.1995  -18.6597   21.2990 N   0  0  0  0  0  0  0  0  0  0  0  0
    9.9518  -17.5946   23.4282 C   0  0  0  0  0  0  0  0  0  0  0  0
   11.1055  -18.0184   23.6926 O   0  0  0  0  0  0  0  0  0  0  0  0
    9.9859  -12.8521   29.7589 C   0  0  0  0  0  0  0  0  0  0  0  0
    9.0636  -13.2877   28.2533 S   0  0  0  0  0  0  0  0  0  0  0  0
    9.9336  -14.6986   27.4914 C   0  0  0  0  0  0  0  0  0  0  0  0
    9.2875  -15.1030   26.1982 C   0  0  0  0  0  0  0  0  0  0  0  0
    9.9548  -16.2711   25.5989 C   0  0  2  0  0  0  0  0  0  0  0  0
    9.3674  -16.6816   24.3330 N   0  0  0  0  0  0  0  0  0  0  0  0
   10.0857  -17.4424   26.4517 C   0  0  0  0  0  0  0  0  0  0  0  0
    9.1956  -18.3158   26.5358 O   0  0  0  0  0  0  0  0  0  0  0  0
   11.2390  -17.6661   27.2448 O   0  0  0  0  0  0  0  0  0  0  0  0
  2  1  1  6
  2  5  1  0
  3  2  1  0
  4  3  1  0
  5 11  1  0
  5  6  2  0
  8  7  1  6
  8 10  1  0
  8  9  1  0
 10 12  1  0
 10 11  1  6
 12 13  2  0
 14 15  1  0
 15 16  1  0
 18 17  1  1
 17 16  1  0
 18 20  1  0
 19 12  1  0
 19 18  1  0
 20 22  1  0
 21 20  2  0
M  END
$$$$
