CTM.pdb
     RDKit          3D

 22 21  0  0  1  0  0  0  0  0999 V2000
    4.4215  -19.3220   20.1201 N   0  0  0  0  0  0  0  0  0  0  0  0
    4.6568  -18.4060   21.1989 C   0  0  1  0  0  0  0  0  0  0  0  0
    4.4716  -19.1542   22.5030 C   0  0  0  0  0  0  0  0  0  0  0  0
    4.8928  -18.1019   23.9301 S   0  0  0  0  0  0  0  0  0  0  0  0
    6.0228  -17.8478   21.1934 C   0  0  0  0  0  0  0  0  0  0  0  0
    6.9802  -18.6716   21.2283 O   0  0  0  0  0  0  0  0  0  0  0  0
    6.9112  -13.8161   20.2341 C   0  0  0  0  0  0  0  0  0  0  0  0
    7.8816  -14.9591   20.1099 C   0  0  1  0  0  0  0  0  0  0  0  0
    9.1764  -14.4461   20.1527 O   0  0  0  0  0  0  0  0  0  0  0  0
    7.6450  -15.9374   21.2342 C   0  0  2  0  0  0  0  0  0  0  0  0
    6.2950  -16.4591   21.1515 N   0  0  0  0  0  0  0  0  0  0  0  0
    7.8079  -15.2196   22.5314 C   0  0  0  0  0  0  0  0  0  0  0  0
    7.1774  -14.1554   22.7561 O   0  0  0  0  0  0  0  0  0  0  0  0
    6.6497  -11.2798   26.6912 C   0  0  0  0  0  0  0  0  0  0  0  0
    6.8018  -12.9066   27.4896 S   0  0  0  0  0  0  0  0  0  0  0  0
    8.2442  -13.7312   26.7363 C   0  0  0  0  0  0  0  0  0  0  0  0
    7.8443  -14.5405   25.5370 C   0  0  0  0  0  0  0  0  0  0  0  0
    9.0161  -14.9680   24.7541 C   0  0  2  0  0  0  0  0  0  0  0  0
    8.6647  -15.6987   23.5463 N   0  0  0  0  0  0  0  0  0  0  0  0
   10.0287  -15.7232   25.4757 C   0  0  0  0  0  0  0  0  0  0  0  0
   10.2929  -16.9160   25.2121 O   0  0  0  0  0  0  0  0  0  0  0  0
   10.7827  -15.1481   26.5292 O   0  0  0  0  0  0  0  0  0  0  0  0
  2  1  1  6
  2  5  1  0
  3  2  1  0
  4  3  1  0
  5 11  1  0
  5  6  2  0
  8  7  1  1
  8 10  1  0
  8  9  1  0
 10 12  1  0
 10 11  1  6
 12 13  2  0
 14 15  1  0
 15 16  1  0
 18 17  1  1
 17 16  1  0
 18 20  1  0
 19 12  1  0
 19 18  1  0
 20 22  1  0
 21 20  2  0
M  END
$$$$
