CTM.pdb
     RDKit          3D

 22 21  0  0  1  0  0  0  0  0999 V2000
    7.8964  -14.5851   17.4125 N   0  0  0  0  0  0  0  0  0  0  0  0
    8.5744  -14.3130   18.6473 C   0  0  1  0  0  0  0  0  0  0  0  0
    8.2060  -12.9117   19.0898 C   0  0  0  0  0  0  0  0  0  0  0  0
    9.3256  -11.6751   18.3561 S   0  0  0  0  0  0  0  0  0  0  0  0
    8.1926  -15.2393   19.7307 C   0  0  0  0  0  0  0  0  0  0  0  0
    6.9710  -15.5511   19.8161 O   0  0  0  0  0  0  0  0  0  0  0  0
    9.0213  -18.6513   20.5602 C   0  0  0  0  0  0  0  0  0  0  0  0
    9.4017  -17.8903   21.8012 C   0  0  1  0  0  0  0  0  0  0  0  0
   10.7856  -17.7282   21.8133 O   0  0  0  0  0  0  0  0  0  0  0  0
    8.6963  -16.5564   21.8030 C   0  0  2  0  0  0  0  0  0  0  0  0
    9.1193  -15.7787   20.6549 N   0  0  0  0  0  0  0  0  0  0  0  0
    9.0678  -15.8234   23.0476 C   0  0  0  0  0  0  0  0  0  0  0  0
   10.0519  -15.0411   23.0585 O   0  0  0  0  0  0  0  0  0  0  0  0
    6.0673  -11.5782   26.0938 C   0  0  0  0  0  0  0  0  0  0  0  0
    6.5023  -12.4741   27.6155 S   0  0  0  0  0  0  0  0  0  0  0  0
    7.8222  -13.6535   27.1743 C   0  0  0  0  0  0  0  0  0  0  0  0
    7.5419  -14.3173   25.8575 C   0  0  0  0  0  0  0  0  0  0  0  0
    8.6118  -15.2578   25.4839 C   0  0  2  0  0  0  0  0  0  0  0  0
    8.3403  -15.9755   24.2481 N   0  0  0  0  0  0  0  0  0  0  0  0
    9.0051  -16.2192   26.5024 C   0  0  0  0  0  0  0  0  0  0  0  0
    8.7945  -17.4457   26.3864 O   0  0  0  0  0  0  0  0  0  0  0  0
    9.6557  -15.8206   27.6970 O   0  0  0  0  0  0  0  0  0  0  0  0
  2  1  1  6
  2  5  1  0
  3  2  1  0
  4  3  1  0
  5 11  1  0
  5  6  2  0
  8  7  1  6
  8 10  1  0
  8  9  1  0
 10 12  1  0
 10 11  1  6
 12 13  2  0
 14 15  1  0
 15 16  1  0
 18 17  1  1
 17 16  1  0
 18 20  1  0
 19 12  1  0
 19 18  1  0
 20 22  1  0
 21 20  2  0
M  END
$$$$
