RAR.pdb
     RDKit          3D

 28 27  0  0  1  0  0  0  0  0999 V2000
    7.5085  -12.5521   16.9609 N   0  0  0  0  0  0  0  0  0  0  0  0
    7.6604  -13.4417   15.8730 C   0  0  0  0  0  0  0  0  0  0  0  0
    6.9565  -13.2973   14.7889 N   0  0  0  0  0  0  0  0  0  0  0  0
    8.5985  -14.4997   15.9841 N   0  0  0  0  0  0  0  0  0  0  0  0
    8.9163  -15.0295   17.2914 C   0  0  0  0  0  0  0  0  0  0  0  0
    7.7240  -15.8888   17.7456 C   0  0  0  0  0  0  0  0  0  0  0  0
    8.0238  -16.3396   19.1548 C   0  0  0  0  0  0  0  0  0  0  0  0
    9.0584  -17.4001   19.2681 C   0  0  2  0  0  0  0  0  0  0  0  0
    8.6021  -18.5903   18.5359 N   0  0  0  0  0  0  0  0  0  0  0  0
    9.3811  -17.8572   20.6201 C   0  0  0  0  0  0  0  0  0  0  0  0
    8.4117  -18.0561   21.4144 O   0  0  0  0  0  0  0  0  0  0  0  0
    7.0631  -13.9618   14.0041 C   0  0  0  0  0  0  0  0  0  0  0  0
   12.3134  -19.1253   22.6238 C   0  0  1  0  0  0  0  0  0  0  0  0
   10.8973  -18.5611   22.4474 N   0  0  0  0  0  0  0  0  0  0  0  0
   10.6763  -18.0954   21.1154 C   0  0  0  0  0  0  0  0  0  0  0  0
   10.7628  -17.4834   23.4657 O   0  0  0  0  0  0  0  0  0  0  0  0
   11.1815  -16.3340   23.1710 N   0  0  0  0  0  0  0  0  0  0  0  0
    5.5116  -12.4759   26.5719 C   0  0  0  0  0  0  0  0  0  0  0  0
    6.8524  -12.1097   26.2492 N   0  0  0  0  0  0  0  0  0  0  0  0
    7.0993  -11.3418   25.2297 N   0  0  0  0  0  0  0  0  0  0  0  0
    7.9547  -12.5593   27.0123 C   0  0  0  0  0  0  0  0  0  0  0  0
    8.1609  -14.0176   27.1939 C   0  0  0  0  0  0  0  0  0  0  0  0
    8.4894  -14.5517   25.8618 C   0  0  0  0  0  0  0  0  0  0  0  0
    8.7677  -15.9525   25.5988 C   0  0  2  0  0  0  0  0  0  0  0  0
   10.0970  -16.5758   25.7459 N   0  0  0  0  0  0  0  0  0  0  0  0
   10.1932  -17.6865   24.7351 C   0  0  0  0  0  0  0  0  0  0  0  0
   10.2314  -17.2791   27.0443 O   0  0  0  0  0  0  0  0  0  0  0  0
    9.8435  -18.4122   27.3381 O   0  0  0  0  0  0  0  0  0  0  0  0
  2  1  1  0
  3  2  2  0
  4  2  1  0
  5  4  1  0
  6  5  1  0
  7  6  1  0
  8  9  1  6
  8  7  1  0
 10  8  1  0
 11 10  2  0
 13 12  1  6
 13 15  1  0
 13 14  1  0
 14 10  1  0
 15 16  2  0
 18 17  1  0
 18 19  2  0
 20 18  1  0
 21 22  1  0
 21 20  1  0
 23 22  1  0
 24 23  1  6
 25 24  1  0
 25 15  1  0
 26 28  1  0
 26 24  1  0
 27 26  2  0
M  END
$$$$
