RAR.pdb
     RDKit          3D

 28 27  0  0  1  0  0  0  0  0999 V2000
   12.2478  -21.5412   15.1373 N   0  0  0  0  0  0  0  0  0  0  0  0
   11.0148  -20.9078   15.4140 C   0  0  0  0  0  0  0  0  0  0  0  0
   10.3687  -20.2686   14.4837 N   0  0  0  0  0  0  0  0  0  0  0  0
   10.4913  -20.9817   16.7302 N   0  0  0  0  0  0  0  0  0  0  0  0
    9.2905  -20.2455   17.0568 C   0  0  0  0  0  0  0  0  0  0  0  0
    9.7039  -18.7949   17.3584 C   0  0  0  0  0  0  0  0  0  0  0  0
    9.3160  -18.5204   18.7912 C   0  0  0  0  0  0  0  0  0  0  0  0
    8.1726  -17.5875   18.9645 C   0  0  2  0  0  0  0  0  0  0  0  0
    7.8801  -16.9482   17.6736 N   0  0  0  0  0  0  0  0  0  0  0  0
    8.3577  -16.4967   19.9221 C   0  0  0  0  0  0  0  0  0  0  0  0
    8.9410  -16.7737   21.0145 O   0  0  0  0  0  0  0  0  0  0  0  0
    9.4881  -19.7739   14.7043 C   0  0  0  0  0  0  0  0  0  0  0  0
    7.5589  -12.8131   20.3145 C   0  0  2  0  0  0  0  0  0  0  0  0
    8.1022  -14.1787   20.7557 N   0  0  0  0  0  0  0  0  0  0  0  0
    7.9437  -15.1651   19.7350 C   0  0  0  0  0  0  0  0  0  0  0  0
    7.3698  -14.5191   22.0064 O   0  0  0  0  0  0  0  0  0  0  0  0
    6.2513  -15.0860   21.9026 N   0  0  0  0  0  0  0  0  0  0  0  0
    6.5271  -21.1893   25.1709 C   0  0  0  0  0  0  0  0  0  0  0  0
    7.0284  -20.6437   26.3903 N   0  0  0  0  0  0  0  0  0  0  0  0
    6.6729  -21.1488   27.5342 N   0  0  0  0  0  0  0  0  0  0  0  0
    7.9201  -19.5465   26.4078 C   0  0  0  0  0  0  0  0  0  0  0  0
    8.2186  -18.8380   25.1385 C   0  0  0  0  0  0  0  0  0  0  0  0
    7.7719  -17.4486   25.3325 C   0  0  0  0  0  0  0  0  0  0  0  0
    7.8917  -16.4126   24.3218 C   0  0  1  0  0  0  0  0  0  0  0  0
    7.4241  -15.0242   24.4980 N   0  0  0  0  0  0  0  0  0  0  0  0
    7.8650  -14.2391   23.2922 C   0  0  0  0  0  0  0  0  0  0  0  0
    8.1195  -14.3505   25.6208 O   0  0  0  0  0  0  0  0  0  0  0  0
    9.2110  -13.7767   25.6037 O   0  0  0  0  0  0  0  0  0  0  0  0
  2  1  1  0
  3  2  2  0
  4  2  1  0
  5  4  1  0
  6  5  1  0
  7  6  1  0
  8  9  1  6
  8  7  1  0
 10  8  1  0
 11 10  2  0
 13 12  1  6
 13 15  1  0
 13 14  1  0
 14 10  1  0
 15 16  2  0
 18 17  1  0
 18 19  2  0
 20 18  1  0
 21 22  1  0
 21 20  1  0
 23 22  1  0
 24 23  1  6
 25 24  1  0
 25 15  1  0
 26 28  1  0
 26 24  1  0
 27 26  2  0
M  END
$$$$
