RAR.pdb
     RDKit          3D

 28 27  0  0  1  0  0  0  0  0999 V2000
    8.0568  -12.3172   16.3161 N   0  0  0  0  0  0  0  0  0  0  0  0
    7.7897  -13.6977   16.1715 C   0  0  0  0  0  0  0  0  0  0  0  0
    8.5242  -14.4427   15.3989 N   0  0  0  0  0  0  0  0  0  0  0  0
    6.7014  -14.2595   16.8870 N   0  0  0  0  0  0  0  0  0  0  0  0
    6.9506  -14.9267   18.1453 C   0  0  0  0  0  0  0  0  0  0  0  0
    7.0528  -13.8430   19.2322 C   0  0  0  0  0  0  0  0  0  0  0  0
    7.6542  -14.5025   20.4496 C   0  0  0  0  0  0  0  0  0  0  0  0
    7.2139  -15.9015   20.6878 C   0  0  2  0  0  0  0  0  0  0  0  0
    5.9291  -15.8812   21.4016 N   0  0  0  0  0  0  0  0  0  0  0  0
    8.1066  -16.7410   21.4875 C   0  0  0  0  0  0  0  0  0  0  0  0
    8.0463  -16.6183   22.7490 O   0  0  0  0  0  0  0  0  0  0  0  0
    8.3135  -15.4489   15.2889 C   0  0  0  0  0  0  0  0  0  0  0  0
   10.4059  -19.7005   21.0708 C   0  0  1  0  0  0  0  0  0  0  0  0
    9.7975  -18.5169   21.8347 N   0  0  0  0  0  0  0  0  0  0  0  0
    9.0275  -17.6739   20.9764 C   0  0  0  0  0  0  0  0  0  0  0  0
   10.9468  -17.8076   22.4611 O   0  0  0  0  0  0  0  0  0  0  0  0
   11.4391  -16.8230   21.8516 N   0  0  0  0  0  0  0  0  0  0  0  0
   10.2060  -15.7056   30.4660 C   0  0  0  0  0  0  0  0  0  0  0  0
    9.8847  -14.9740   29.2839 N   0  0  0  0  0  0  0  0  0  0  0  0
    9.3332  -13.7996   29.3645 N   0  0  0  0  0  0  0  0  0  0  0  0
   10.1481  -15.4864   27.9925 C   0  0  0  0  0  0  0  0  0  0  0  0
   11.5211  -15.3803   27.4395 C   0  0  0  0  0  0  0  0  0  0  0  0
   11.4714  -15.9986   26.1042 C   0  0  0  0  0  0  0  0  0  0  0  0
   12.3007  -17.1208   25.7018 C   0  0  2  0  0  0  0  0  0  0  0  0
   12.6579  -17.4287   24.3036 N   0  0  0  0  0  0  0  0  0  0  0  0
   11.5065  -18.1827   23.6952 C   0  0  0  0  0  0  0  0  0  0  0  0
   13.7813  -18.3932   24.2251 O   0  0  0  0  0  0  0  0  0  0  0  0
   13.7294  -19.6018   23.9855 O   0  0  0  0  0  0  0  0  0  0  0  0
  2  1  1  0
  3  2  2  0
  4  2  1  0
  5  4  1  0
  6  5  1  0
  7  6  1  0
  8  9  1  1
  8  7  1  0
 10  8  1  0
 11 10  2  0
 13 12  1  1
 13 15  1  0
 13 14  1  0
 14 10  1  0
 15 16  2  0
 18 17  1  0
 18 19  2  0
 20 18  1  0
 21 22  1  0
 21 20  1  0
 23 22  1  0
 24 23  1  6
 25 24  1  0
 25 15  1  0
 26 28  1  0
 26 24  1  0
 27 26  2  0
M  END
$$$$
