RAR.pdb
     RDKit          3D

 28 27  0  0  1  0  0  0  0  0999 V2000
    7.5830  -14.3184   13.8006 N   0  0  0  0  0  0  0  0  0  0  0  0
    7.8880  -15.0657   14.9609 C   0  0  0  0  0  0  0  0  0  0  0  0
    8.8444  -15.9470   14.9555 N   0  0  0  0  0  0  0  0  0  0  0  0
    7.1294  -14.8370   16.1374 N   0  0  0  0  0  0  0  0  0  0  0  0
    7.5151  -15.4926   17.3670 C   0  0  0  0  0  0  0  0  0  0  0  0
    8.5647  -14.6042   18.0564 C   0  0  0  0  0  0  0  0  0  0  0  0
    8.3660  -14.7695   19.5437 C   0  0  0  0  0  0  0  0  0  0  0  0
    8.1224  -13.5072   20.2887 C   0  0  2  0  0  0  0  0  0  0  0  0
    9.0070  -12.4614   19.7554 N   0  0  0  0  0  0  0  0  0  0  0  0
    8.3633  -13.5424   21.7316 C   0  0  0  0  0  0  0  0  0  0  0  0
    9.5281  -13.8628   22.1197 O   0  0  0  0  0  0  0  0  0  0  0  0
    9.0772  -16.4711   15.8157 C   0  0  0  0  0  0  0  0  0  0  0  0
    6.6811  -12.7278   25.0088 C   0  0  1  0  0  0  0  0  0  0  0  0
    7.6858  -13.4639   24.1124 N   0  0  0  0  0  0  0  0  0  0  0  0
    7.4124  -13.2509   22.7267 C   0  0  0  0  0  0  0  0  0  0  0  0
    7.6007  -14.8977   24.5040 O   0  0  0  0  0  0  0  0  0  0  0  0
    6.8765  -15.6592   23.8120 N   0  0  0  0  0  0  0  0  0  0  0  0
   15.1289  -17.1704   23.9045 C   0  0  0  0  0  0  0  0  0  0  0  0
   14.5122  -18.4212   23.6026 N   0  0  0  0  0  0  0  0  0  0  0  0
   15.2258  -19.5040   23.5133 N   0  0  0  0  0  0  0  0  0  0  0  0
   13.1188  -18.5360   23.3902 C   0  0  0  0  0  0  0  0  0  0  0  0
   12.2924  -17.3046   23.3374 C   0  0  0  0  0  0  0  0  0  0  0  0
   11.2221  -17.4892   24.3315 C   0  0  0  0  0  0  0  0  0  0  0  0
   10.1409  -16.5423   24.5402 C   0  0  1  0  0  0  0  0  0  0  0  0
    9.0419  -16.7381   25.5051 N   0  0  0  0  0  0  0  0  0  0  0  0
    8.2872  -15.4399   25.6048 C   0  0  0  0  0  0  0  0  0  0  0  0
    9.5522  -16.9464   26.8815 O   0  0  0  0  0  0  0  0  0  0  0  0
   10.0276  -16.1077   27.6505 O   0  0  0  0  0  0  0  0  0  0  0  0
  2  1  1  0
  3  2  2  0
  4  2  1  0
  5  4  1  0
  6  5  1  0
  7  6  1  0
  8  9  1  6
  8  7  1  0
 10  8  1  0
 11 10  2  0
 13 12  1  1
 13 15  1  0
 13 14  1  0
 14 10  1  0
 15 16  2  0
 18 17  1  0
 18 19  2  0
 20 18  1  0
 21 22  1  0
 21 20  1  0
 23 22  1  0
 24 23  1  6
 25 24  1  0
 25 15  1  0
 26 28  1  0
 26 24  1  0
 27 26  2  0
M  END
$$$$
