RAR.pdb
     RDKit          3D

 28 27  0  0  1  0  0  0  0  0999 V2000
    6.9738  -13.7045   15.6590 N   0  0  0  0  0  0  0  0  0  0  0  0
    7.3244  -15.0738   15.6725 C   0  0  0  0  0  0  0  0  0  0  0  0
    8.1891  -15.5501   14.8258 N   0  0  0  0  0  0  0  0  0  0  0  0
    6.7142  -15.9238   16.6300 N   0  0  0  0  0  0  0  0  0  0  0  0
    7.1854  -15.9035   17.9968 C   0  0  0  0  0  0  0  0  0  0  0  0
    7.8420  -14.5340   18.2404 C   0  0  0  0  0  0  0  0  0  0  0  0
    8.3790  -14.5532   19.6511 C   0  0  0  0  0  0  0  0  0  0  0  0
    7.8656  -13.4733   20.5332 C   0  0  2  0  0  0  0  0  0  0  0  0
    8.5112  -12.2066   20.1599 N   0  0  0  0  0  0  0  0  0  0  0  0
    8.0966  -13.6362   21.9689 C   0  0  0  0  0  0  0  0  0  0  0  0
    9.2496  -14.0208   22.3331 O   0  0  0  0  0  0  0  0  0  0  0  0
    8.4635  -16.5462   14.8634 C   0  0  0  0  0  0  0  0  0  0  0  0
    6.3037  -13.1550   25.2709 C   0  0  1  0  0  0  0  0  0  0  0  0
    7.4625  -13.5869   24.3624 N   0  0  0  0  0  0  0  0  0  0  0  0
    7.1480  -13.4024   22.9814 C   0  0  0  0  0  0  0  0  0  0  0  0
    7.7368  -15.0090   24.7071 O   0  0  0  0  0  0  0  0  0  0  0  0
    6.9984  -15.8942   24.2027 N   0  0  0  0  0  0  0  0  0  0  0  0
   14.3635  -19.7303   27.4975 C   0  0  0  0  0  0  0  0  0  0  0  0
   14.0105  -20.2131   26.2021 N   0  0  0  0  0  0  0  0  0  0  0  0
   14.7853  -21.0481   25.5757 N   0  0  0  0  0  0  0  0  0  0  0  0
   12.8206  -19.8107   25.5527 C   0  0  0  0  0  0  0  0  0  0  0  0
   11.8713  -18.9232   26.2692 C   0  0  0  0  0  0  0  0  0  0  0  0
   10.7901  -18.6276   25.3146 C   0  0  0  0  0  0  0  0  0  0  0  0
   10.1842  -17.3168   25.1602 C   0  0  1  0  0  0  0  0  0  0  0  0
    9.0019  -16.8558   25.9133 N   0  0  0  0  0  0  0  0  0  0  0  0
    8.7763  -15.4093   25.5652 C   0  0  0  0  0  0  0  0  0  0  0  0
    9.2612  -16.8225   27.3728 O   0  0  0  0  0  0  0  0  0  0  0  0
    9.4730  -15.8379   28.0844 O   0  0  0  0  0  0  0  0  0  0  0  0
  2  1  1  0
  3  2  2  0
  4  2  1  0
  5  4  1  0
  6  5  1  0
  7  6  1  0
  8  9  1  6
  8  7  1  0
 10  8  1  0
 11 10  2  0
 13 12  1  1
 13 15  1  0
 13 14  1  0
 14 10  1  0
 15 16  2  0
 18 17  1  0
 18 19  2  0
 20 18  1  0
 21 22  1  0
 21 20  1  0
 23 22  1  0
 24 23  1  6
 25 24  1  0
 25 15  1  0
 26 28  1  0
 26 24  1  0
 27 26  2  0
M  END
$$$$
