QGD.pdb
     RDKit          3D

 22 21  0  0  1  0  0  0  0  0999 V2000
    8.2431  -13.2826   17.3890 N   0  0  0  0  0  0  0  0  0  0  0  0
    8.1900  -12.9588   18.7646 C   0  0  0  0  0  0  0  0  0  0  0  0
    9.2495  -12.6226   19.3635 O   0  0  0  0  0  0  0  0  0  0  0  0
    6.8892  -13.0205   19.4787 C   0  0  0  0  0  0  0  0  0  0  0  0
    7.0847  -13.4393   20.9135 C   0  0  0  0  0  0  0  0  0  0  0  0
    7.5706  -14.8658   21.0279 C   0  0  2  0  0  0  0  0  0  0  0  0
    6.6847  -15.8110   20.4281 N   0  0  0  0  0  0  0  0  0  0  0  0
    7.7503  -15.1394   22.4763 C   0  0  0  0  0  0  0  0  0  0  0  0
    8.5747  -14.4603   23.1384 O   0  0  0  0  0  0  0  0  0  0  0  0
    6.9900  -16.1624   23.0931 N   0  0  0  0  0  0  0  0  0  0  0  0
    7.0596  -16.5001   24.4756 C   0  0  0  0  0  0  0  0  0  0  0  0
    8.2445  -17.2889   24.8724 C   0  0  0  0  0  0  0  0  0  0  0  0
    8.5416  -18.3737   24.2526 O   0  0  0  0  0  0  0  0  0  0  0  0
    9.1273  -16.9359   25.9262 N   0  0  0  0  0  0  0  0  0  0  0  0
   10.2401  -17.7938   26.3158 C   0  0  1  0  0  0  0  0  0  0  0  0
   11.5659  -17.1323   25.9585 C   0  0  0  0  0  0  0  0  0  0  0  0
   11.7892  -17.0257   24.5057 C   0  0  0  0  0  0  0  0  0  0  0  0
   10.9189  -17.3935   23.6836 O   0  0  0  0  0  0  0  0  0  0  0  0
   10.1509  -18.1955   27.7260 C   0  0  0  0  0  0  0  0  0  0  0  0
    9.2989  -17.7304   28.5217 O   0  0  0  0  0  0  0  0  0  0  0  0
   12.9736  -16.5133   24.0094 O   0  0  0  0  0  0  0  0  0  0  0  0
   11.0282  -19.1434   28.2894 O   0  0  0  0  0  0  0  0  0  0  0  0
  2  4  1  0
  2  1  1  0
  3  2  2  0
  5  6  1  0
  5  4  1  0
  6  7  1  1
  8  6  1  0
  9  8  2  0
 10  8  1  0
 11 10  1  0
 11 12  1  0
 12 14  1  0
 13 12  2  0
 14 15  1  0
 15 19  1  0
 15 16  1  1
 16 17  1  0
 17 18  2  0
 17 21  1  0
 19 22  1  0
 20 19  2  0
M  END
$$$$
