QGD.pdb
     RDKit          3D

 22 21  0  0  1  0  0  0  0  0999 V2000
    8.5961  -12.6611   17.2500 N   0  0  0  0  0  0  0  0  0  0  0  0
    8.0671  -13.6566   18.1039 C   0  0  0  0  0  0  0  0  0  0  0  0
    8.2897  -14.8732   17.8498 O   0  0  0  0  0  0  0  0  0  0  0  0
    7.2596  -13.2522   19.2829 C   0  0  0  0  0  0  0  0  0  0  0  0
    8.0361  -13.4540   20.5592 C   0  0  0  0  0  0  0  0  0  0  0  0
    8.0182  -14.8953   21.0133 C   0  0  2  0  0  0  0  0  0  0  0  0
    6.6994  -15.4194   21.1681 N   0  0  0  0  0  0  0  0  0  0  0  0
    8.7727  -14.9484   22.2912 C   0  0  0  0  0  0  0  0  0  0  0  0
    9.9856  -14.6205   22.3096 O   0  0  0  0  0  0  0  0  0  0  0  0
    8.1153  -15.3679   23.4730 N   0  0  0  0  0  0  0  0  0  0  0  0
    8.6968  -15.3449   24.7737 C   0  0  0  0  0  0  0  0  0  0  0  0
    9.0826  -16.6649   25.3144 C   0  0  0  0  0  0  0  0  0  0  0  0
    8.2012  -17.5847   25.4766 O   0  0  0  0  0  0  0  0  0  0  0  0
   10.4044  -17.0247   25.6858 N   0  0  0  0  0  0  0  0  0  0  0  0
   10.7189  -18.3426   26.2248 C   0  0  1  0  0  0  0  0  0  0  0  0
   12.0313  -18.8517   25.6404 C   0  0  0  0  0  0  0  0  0  0  0  0
   12.1606  -18.5982   24.1943 C   0  0  0  0  0  0  0  0  0  0  0  0
   11.2213  -18.8431   23.4030 O   0  0  0  0  0  0  0  0  0  0  0  0
   10.6931  -18.3511   27.6935 C   0  0  0  0  0  0  0  0  0  0  0  0
   10.6003  -17.3087   28.3864 O   0  0  0  0  0  0  0  0  0  0  0  0
   13.3304  -18.0799   23.6706 O   0  0  0  0  0  0  0  0  0  0  0  0
   10.7721  -19.5468   28.4349 O   0  0  0  0  0  0  0  0  0  0  0  0
  2  4  1  0
  2  1  1  0
  3  2  2  0
  5  6  1  0
  5  4  1  0
  6  7  1  1
  8  6  1  0
  9  8  2  0
 10  8  1  0
 11 10  1  0
 11 12  1  0
 12 14  1  0
 13 12  2  0
 14 15  1  0
 15 19  1  0
 15 16  1  1
 16 17  1  0
 17 18  2  0
 17 21  1  0
 19 22  1  0
 20 19  2  0
M  END
$$$$
