QGD.pdb
     RDKit          3D

 22 21  0  0  1  0  0  0  0  0999 V2000
    6.9599  -14.4391   15.1891 N   0  0  0  0  0  0  0  0  0  0  0  0
    7.2387  -13.2531   15.9072 C   0  0  0  0  0  0  0  0  0  0  0  0
    7.1253  -12.1368   15.3280 O   0  0  0  0  0  0  0  0  0  0  0  0
    7.6598  -13.3430   17.3285 C   0  0  0  0  0  0  0  0  0  0  0  0
    7.6265  -14.7717   17.8081 C   0  0  0  0  0  0  0  0  0  0  0  0
    7.9761  -14.8874   19.2738 C   0  0  2  0  0  0  0  0  0  0  0  0
    8.8403  -13.8464   19.7292 N   0  0  0  0  0  0  0  0  0  0  0  0
    8.5973  -16.2234   19.4592 C   0  0  0  0  0  0  0  0  0  0  0  0
    7.8848  -17.2554   19.3794 O   0  0  0  0  0  0  0  0  0  0  0  0
    9.9853  -16.3172   19.7233 N   0  0  0  0  0  0  0  0  0  0  0  0
   10.7139  -17.5396   19.7962 C   0  0  0  0  0  0  0  0  0  0  0  0
   11.7937  -17.5699   20.8044 C   0  0  0  0  0  0  0  0  0  0  0  0
   12.7135  -16.6737   20.8003 O   0  0  0  0  0  0  0  0  0  0  0  0
   11.9088  -18.5467   21.8278 N   0  0  0  0  0  0  0  0  0  0  0  0
   12.3036  -18.1931   23.1861 C   0  0  1  0  0  0  0  0  0  0  0  0
   11.2055  -18.5765   24.1711 C   0  0  0  0  0  0  0  0  0  0  0  0
   10.7350  -17.4429   24.9870 C   0  0  0  0  0  0  0  0  0  0  0  0
   11.3391  -16.3458   24.9887 O   0  0  0  0  0  0  0  0  0  0  0  0
   13.6181  -18.7492   23.5339 C   0  0  0  0  0  0  0  0  0  0  0  0
   14.2091  -18.4964   24.6119 O   0  0  0  0  0  0  0  0  0  0  0  0
    9.6067  -17.5623   25.7770 O   0  0  0  0  0  0  0  0  0  0  0  0
   14.3148  -19.6162   22.6688 O   0  0  0  0  0  0  0  0  0  0  0  0
  2  4  1  0
  2  1  1  0
  3  2  2  0
  5  6  1  0
  5  4  1  0
  6  7  1  6
  8  6  1  0
  9  8  2  0
 10  8  1  0
 11 10  1  0
 11 12  1  0
 12 14  1  0
 13 12  2  0
 14 15  1  0
 15 19  1  0
 15 16  1  1
 16 17  1  0
 17 18  2  0
 17 21  1  0
 19 22  1  0
 20 19  2  0
M  END
$$$$
