QGD.pdb
     RDKit          3D

 22 21  0  0  1  0  0  0  0  0999 V2000
    8.3672  -14.3332   14.1780 N   0  0  0  0  0  0  0  0  0  0  0  0
    7.1542  -13.8345   14.7072 C   0  0  0  0  0  0  0  0  0  0  0  0
    6.1403  -13.7497   13.9594 O   0  0  0  0  0  0  0  0  0  0  0  0
    7.0961  -13.4198   16.1321 C   0  0  0  0  0  0  0  0  0  0  0  0
    8.4471  -13.5584   16.7863 C   0  0  0  0  0  0  0  0  0  0  0  0
    8.5791  -14.8572   17.5475 C   0  0  2  0  0  0  0  0  0  0  0  0
    7.5250  -15.7796   17.2722 N   0  0  0  0  0  0  0  0  0  0  0  0
    8.6228  -14.5032   18.9890 C   0  0  0  0  0  0  0  0  0  0  0  0
    9.5760  -13.8132   19.4299 O   0  0  0  0  0  0  0  0  0  0  0  0
    7.5890  -14.9477   19.8485 N   0  0  0  0  0  0  0  0  0  0  0  0
    7.5788  -14.7674   21.2620 C   0  0  0  0  0  0  0  0  0  0  0  0
    8.3429  -15.7719   22.0305 C   0  0  0  0  0  0  0  0  0  0  0  0
    8.6631  -16.8948   21.4959 O   0  0  0  0  0  0  0  0  0  0  0  0
    8.7777  -15.5966   23.3702 N   0  0  0  0  0  0  0  0  0  0  0  0
    9.9250  -16.3195   23.9061 C   0  0  1  0  0  0  0  0  0  0  0  0
   11.1563  -16.0682   23.0437 C   0  0  0  0  0  0  0  0  0  0  0  0
   12.3553  -16.7797   23.5213 C   0  0  0  0  0  0  0  0  0  0  0  0
   12.5142  -18.0039   23.3104 O   0  0  0  0  0  0  0  0  0  0  0  0
   10.1400  -16.0229   25.3288 C   0  0  0  0  0  0  0  0  0  0  0  0
   11.0381  -16.5660   26.0170 O   0  0  0  0  0  0  0  0  0  0  0  0
   13.3426  -16.1092   24.2193 O   0  0  0  0  0  0  0  0  0  0  0  0
    9.3413  -15.0958   26.0273 O   0  0  0  0  0  0  0  0  0  0  0  0
  2  4  1  0
  2  1  1  0
  3  2  2  0
  5  6  1  0
  5  4  1  0
  6  7  1  1
  8  6  1  0
  9  8  2  0
 10  8  1  0
 11 10  1  0
 11 12  1  0
 12 14  1  0
 13 12  2  0
 14 15  1  0
 15 19  1  0
 15 16  1  6
 16 17  1  0
 17 18  2  0
 17 21  1  0
 19 22  1  0
 20 19  2  0
M  END
$$$$
