QGD.pdb
     RDKit          3D

 22 21  0  0  1  0  0  0  0  0999 V2000
    4.7576  -14.3531   10.1046 N   0  0  0  0  0  0  0  0  0  0  0  0
    5.8089  -15.1121    9.5404 C   0  0  0  0  0  0  0  0  0  0  0  0
    6.3323  -14.7350    8.4550 O   0  0  0  0  0  0  0  0  0  0  0  0
    6.2772  -16.3385   10.2350 C   0  0  0  0  0  0  0  0  0  0  0  0
    5.4510  -16.6051   11.4674 C   0  0  0  0  0  0  0  0  0  0  0  0
    6.2385  -16.3838   12.7381 C   0  0  2  0  0  0  0  0  0  0  0  0
    7.3669  -15.5282   12.5582 N   0  0  0  0  0  0  0  0  0  0  0  0
    6.6512  -17.7256   13.2223 C   0  0  0  0  0  0  0  0  0  0  0  0
    5.7859  -18.6243   13.3724 O   0  0  0  0  0  0  0  0  0  0  0  0
    8.0153  -17.9752   13.5085 N   0  0  0  0  0  0  0  0  0  0  0  0
    8.5557  -19.2572   13.8166 C   0  0  0  0  0  0  0  0  0  0  0  0
    9.9871  -19.2657   14.1832 C   0  0  0  0  0  0  0  0  0  0  0  0
   10.5997  -20.3754   14.3891 O   0  0  0  0  0  0  0  0  0  0  0  0
   10.7841  -18.1008   14.3324 N   0  0  0  0  0  0  0  0  0  0  0  0
   12.1268  -18.1561   14.8983 C   0  0  1  0  0  0  0  0  0  0  0  0
   12.0773  -18.7012   16.3208 C   0  0  0  0  0  0  0  0  0  0  0  0
   13.3917  -18.7054   16.9875 C   0  0  0  0  0  0  0  0  0  0  0  0
   14.4267  -18.3298   16.3907 O   0  0  0  0  0  0  0  0  0  0  0  0
   13.0561  -18.8872   14.0265 C   0  0  0  0  0  0  0  0  0  0  0  0
   14.2942  -18.9355   14.2268 O   0  0  0  0  0  0  0  0  0  0  0  0
   13.5168  -19.1270   18.2983 O   0  0  0  0  0  0  0  0  0  0  0  0
   12.6146  -19.5936   12.8900 O   0  0  0  0  0  0  0  0  0  0  0  0
  2  4  1  0
  2  1  1  0
  3  2  2  0
  5  6  1  0
  5  4  1  0
  6  7  1  6
  8  6  1  0
  9  8  2  0
 10  8  1  0
 11 10  1  0
 11 12  1  0
 12 14  1  0
 13 12  2  0
 14 15  1  0
 15 19  1  0
 15 16  1  1
 16 17  1  0
 17 18  2  0
 17 21  1  0
 19 22  1  0
 20 19  2  0
M  END
$$$$
