QGD.pdb
     RDKit          3D

 22 21  0  0  1  0  0  0  0  0999 V2000
    6.7041  -15.1555   14.5600 N   0  0  0  0  0  0  0  0  0  0  0  0
    7.8913  -14.5617   15.0477 C   0  0  0  0  0  0  0  0  0  0  0  0
    8.8676  -14.3947   14.2646 O   0  0  0  0  0  0  0  0  0  0  0  0
    7.9673  -14.1460   16.4715 C   0  0  0  0  0  0  0  0  0  0  0  0
    9.2913  -14.5399   17.0750 C   0  0  0  0  0  0  0  0  0  0  0  0
    9.1218  -15.4238   18.2890 C   0  0  2  0  0  0  0  0  0  0  0  0
    8.0372  -16.3440   18.1672 N   0  0  0  0  0  0  0  0  0  0  0  0
    8.9331  -14.5191   19.4513 C   0  0  0  0  0  0  0  0  0  0  0  0
    9.8675  -13.7550   19.8009 O   0  0  0  0  0  0  0  0  0  0  0  0
    7.7020  -14.5289   20.1508 N   0  0  0  0  0  0  0  0  0  0  0  0
    7.4357  -13.7742   21.3298 C   0  0  0  0  0  0  0  0  0  0  0  0
    8.0543  -14.2974   22.5656 C   0  0  0  0  0  0  0  0  0  0  0  0
    7.3762  -14.3669   23.6540 O   0  0  0  0  0  0  0  0  0  0  0  0
    9.3947  -14.7544   22.6606 N   0  0  0  0  0  0  0  0  0  0  0  0
    9.7916  -15.7758   23.6226 C   0  0  1  0  0  0  0  0  0  0  0  0
    8.8774  -16.9901   23.5096 C   0  0  0  0  0  0  0  0  0  0  0  0
    9.0352  -17.9419   24.6237 C   0  0  0  0  0  0  0  0  0  0  0  0
    9.8859  -17.7565   25.5240 O   0  0  0  0  0  0  0  0  0  0  0  0
   11.2180  -16.1079   23.5077 C   0  0  0  0  0  0  0  0  0  0  0  0
   12.0742  -15.7703   24.3611 O   0  0  0  0  0  0  0  0  0  0  0  0
    8.2426  -19.0718   24.7042 O   0  0  0  0  0  0  0  0  0  0  0  0
   11.7292  -16.8380   22.4164 O   0  0  0  0  0  0  0  0  0  0  0  0
  2  4  1  0
  2  1  1  0
  3  2  2  0
  5  6  1  0
  5  4  1  0
  6  7  1  6
  8  6  1  0
  9  8  2  0
 10  8  1  0
 11 10  1  0
 11 12  1  0
 12 14  1  0
 13 12  2  0
 14 15  1  0
 15 19  1  0
 15 16  1  6
 16 17  1  0
 17 18  2  0
 17 21  1  0
 19 22  1  0
 20 19  2  0
M  END
$$$$
