QGD.pdb
     RDKit          3D

 22 21  0  0  1  0  0  0  0  0999 V2000
    6.9697  -12.0397   20.2638 N   0  0  0  0  0  0  0  0  0  0  0  0
    7.8614  -13.0054   19.7420 C   0  0  0  0  0  0  0  0  0  0  0  0
    8.4916  -12.7555   18.6768 O   0  0  0  0  0  0  0  0  0  0  0  0
    8.0393  -14.2951   20.4566 C   0  0  0  0  0  0  0  0  0  0  0  0
    8.1651  -15.4363   19.4797 C   0  0  0  0  0  0  0  0  0  0  0  0
    8.4275  -16.7526   20.1744 C   0  0  2  0  0  0  0  0  0  0  0  0
    7.4611  -17.0602   21.1791 N   0  0  0  0  0  0  0  0  0  0  0  0
    9.7938  -16.6654   20.7494 C   0  0  0  0  0  0  0  0  0  0  0  0
   10.6751  -15.9944   20.1560 O   0  0  0  0  0  0  0  0  0  0  0  0
   10.0860  -17.3398   21.9598 N   0  0  0  0  0  0  0  0  0  0  0  0
   11.0682  -16.9199   22.9028 C   0  0  0  0  0  0  0  0  0  0  0  0
   11.1079  -17.6970   24.1590 C   0  0  0  0  0  0  0  0  0  0  0  0
   10.0191  -18.0326   24.7515 O   0  0  0  0  0  0  0  0  0  0  0  0
   12.2994  -18.1286   24.7982 N   0  0  0  0  0  0  0  0  0  0  0  0
   12.2711  -18.9082   26.0301 C   0  0  1  0  0  0  0  0  0  0  0  0
   11.6714  -18.0830   27.1625 C   0  0  0  0  0  0  0  0  0  0  0  0
   11.6586  -18.7921   28.4545 C   0  0  0  0  0  0  0  0  0  0  0  0
   10.5915  -19.2152   28.9553 O   0  0  0  0  0  0  0  0  0  0  0  0
   11.6072  -20.2048   25.8395 C   0  0  0  0  0  0  0  0  0  0  0  0
   10.7205  -20.4034   24.9737 O   0  0  0  0  0  0  0  0  0  0  0  0
   12.8324  -19.0098   29.1517 O   0  0  0  0  0  0  0  0  0  0  0  0
   11.9252  -21.3294   26.6266 O   0  0  0  0  0  0  0  0  0  0  0  0
  2  4  1  0
  2  1  1  0
  3  2  2  0
  5  6  1  0
  5  4  1  0
  6  7  1  1
  8  6  1  0
  9  8  2  0
 10  8  1  0
 11 10  1  0
 11 12  1  0
 12 14  1  0
 13 12  2  0
 14 15  1  0
 15 19  1  0
 15 16  1  1
 16 17  1  0
 17 18  2  0
 17 21  1  0
 19 22  1  0
 20 19  2  0
M  END
$$$$
