QGD.pdb
     RDKit          3D

 22 21  0  0  1  0  0  0  0  0999 V2000
    8.3672  -14.7345   15.5721 N   0  0  0  0  0  0  0  0  0  0  0  0
    8.8346  -14.1676   16.7805 C   0  0  0  0  0  0  0  0  0  0  0  0
    9.8068  -14.7043   17.3815 O   0  0  0  0  0  0  0  0  0  0  0  0
    8.1731  -12.9521   17.3196 C   0  0  0  0  0  0  0  0  0  0  0  0
    7.2624  -13.3025   18.4687 C   0  0  0  0  0  0  0  0  0  0  0  0
    7.8777  -12.9604   19.8060 C   0  0  2  0  0  0  0  0  0  0  0  0
    9.3050  -12.9813   19.7897 N   0  0  0  0  0  0  0  0  0  0  0  0
    7.3356  -13.9356   20.7859 C   0  0  0  0  0  0  0  0  0  0  0  0
    6.0955  -13.9958   20.9802 O   0  0  0  0  0  0  0  0  0  0  0  0
    8.2234  -14.7856   21.4890 N   0  0  0  0  0  0  0  0  0  0  0  0
    7.8223  -15.7505   22.4577 C   0  0  0  0  0  0  0  0  0  0  0  0
    8.9192  -16.5505   23.0413 C   0  0  0  0  0  0  0  0  0  0  0  0
    8.6640  -17.5010   23.8663 O   0  0  0  0  0  0  0  0  0  0  0  0
   10.2955  -16.3542   22.7553 N   0  0  0  0  0  0  0  0  0  0  0  0
   11.3274  -17.2183   23.3162 C   0  0  1  0  0  0  0  0  0  0  0  0
   12.5374  -17.2640   22.3906 C   0  0  0  0  0  0  0  0  0  0  0  0
   12.2235  -17.7884   21.0494 C   0  0  0  0  0  0  0  0  0  0  0  0
   11.5376  -18.8253   20.8990 O   0  0  0  0  0  0  0  0  0  0  0  0
   11.6633  -16.8414   24.6958 C   0  0  0  0  0  0  0  0  0  0  0  0
   11.2224  -15.8071   25.2536 O   0  0  0  0  0  0  0  0  0  0  0  0
   12.6816  -17.1445   19.9149 O   0  0  0  0  0  0  0  0  0  0  0  0
   12.5154  -17.6263   25.4979 O   0  0  0  0  0  0  0  0  0  0  0  0
  2  4  1  0
  2  1  1  0
  3  2  2  0
  5  6  1  0
  5  4  1  0
  6  7  1  6
  8  6  1  0
  9  8  2  0
 10  8  1  0
 11 10  1  0
 11 12  1  0
 12 14  1  0
 13 12  2  0
 14 15  1  0
 15 19  1  0
 15 16  1  6
 16 17  1  0
 17 18  2  0
 17 21  1  0
 19 22  1  0
 20 19  2  0
M  END
$$$$
