QGD.pdb
     RDKit          3D

 22 21  0  0  1  0  0  0  0  0999 V2000
    8.1766  -12.1770   28.0207 N   0  0  0  0  0  0  0  0  0  0  0  0
    7.1343  -12.6971   27.2187 C   0  0  0  0  0  0  0  0  0  0  0  0
    5.9384  -12.3870   27.4792 O   0  0  0  0  0  0  0  0  0  0  0  0
    7.4662  -13.5980   26.0857 C   0  0  0  0  0  0  0  0  0  0  0  0
    6.8812  -13.0773   24.7976 C   0  0  0  0  0  0  0  0  0  0  0  0
    6.3597  -14.1911   23.9193 C   0  0  2  0  0  0  0  0  0  0  0  0
    6.0346  -15.3754   24.6471 N   0  0  0  0  0  0  0  0  0  0  0  0
    7.4068  -14.4552   22.9001 C   0  0  0  0  0  0  0  0  0  0  0  0
    8.0519  -13.4947   22.4099 O   0  0  0  0  0  0  0  0  0  0  0  0
    7.6651  -15.7868   22.4936 N   0  0  0  0  0  0  0  0  0  0  0  0
    8.5737  -16.1550   21.4595 C   0  0  0  0  0  0  0  0  0  0  0  0
    9.9247  -16.5416   21.9164 C   0  0  0  0  0  0  0  0  0  0  0  0
   10.7604  -17.0743   21.0997 O   0  0  0  0  0  0  0  0  0  0  0  0
   10.4049  -16.3657   23.2405 N   0  0  0  0  0  0  0  0  0  0  0  0
   11.7418  -16.7931   23.6357 C   0  0  1  0  0  0  0  0  0  0  0  0
   12.7320  -15.6463   23.4710 C   0  0  0  0  0  0  0  0  0  0  0  0
   14.1349  -16.0590   23.6545 C   0  0  0  0  0  0  0  0  0  0  0  0
   14.5662  -17.1334   23.1767 O   0  0  0  0  0  0  0  0  0  0  0  0
   11.7503  -17.3812   24.9819 C   0  0  0  0  0  0  0  0  0  0  0  0
   10.8721  -17.1378   25.8450 O   0  0  0  0  0  0  0  0  0  0  0  0
   15.0171  -15.2653   24.3639 O   0  0  0  0  0  0  0  0  0  0  0  0
   12.7590  -18.2709   25.4017 O   0  0  0  0  0  0  0  0  0  0  0  0
  2  4  1  0
  2  1  1  0
  3  2  2  0
  5  6  1  0
  5  4  1  0
  6  7  1  1
  8  6  1  0
  9  8  2  0
 10  8  1  0
 11 10  1  0
 11 12  1  0
 12 14  1  0
 13 12  2  0
 14 15  1  0
 15 19  1  0
 15 16  1  1
 16 17  1  0
 17 18  2  0
 17 21  1  0
 19 22  1  0
 20 19  2  0
M  END
$$$$
