GLG.pdb
     RDKit          3D

 17 16  0  0  1  0  0  0  0  0999 V2000
    8.5513  -19.2021   17.6386 N   0  0  0  0  0  0  0  0  0  0  0  0
    8.0719  -18.4955   18.7864 C   0  0  0  0  0  0  0  0  0  0  0  0
    8.9074  -17.3255   19.1378 C   0  0  0  0  0  0  0  0  0  0  0  0
    9.9202  -17.0073   18.4653 O   0  0  0  0  0  0  0  0  0  0  0  0
    8.4892  -12.8496   19.2643 C   0  0  0  0  0  0  0  0  0  0  0  0
    7.5621  -13.6445   20.2046 C   0  0  2  0  0  0  0  0  0  0  0  0
    6.5551  -12.6793   20.7369 C   0  0  0  0  0  0  0  0  0  0  0  0
    8.3974  -14.3160   21.2318 C   0  0  0  0  0  0  0  0  0  0  0  0
    9.2995  -15.3734   20.6989 C   0  0  2  0  0  0  0  0  0  0  0  0
    8.5607  -16.5474   20.2536 N   0  0  0  0  0  0  0  0  0  0  0  0
   10.4320  -15.7458   21.5714 C   0  0  0  0  0  0  0  0  0  0  0  0
   11.3288  -14.9427   21.9174 O   0  0  0  0  0  0  0  0  0  0  0  0
   10.5851  -17.0831   22.0935 N   0  0  0  0  0  0  0  0  0  0  0  0
   11.6609  -17.4519   22.9645 C   0  0  0  0  0  0  0  0  0  0  0  0
   11.6027  -18.8181   23.4616 C   0  0  0  0  0  0  0  0  0  0  0  0
   10.8397  -19.6613   22.9437 O   0  0  0  0  0  0  0  0  0  0  0  0
   12.3926  -19.2143   24.5211 O   0  0  0  0  0  0  0  0  0  0  0  0
  1  2  1  0
  2  3  1  0
  3  4  2  0
  3 10  1  0
  6  5  1  6
  7  6  1  0
  8  6  1  0
  9  8  1  1
 10  9  1  0
 11  9  1  0
 11 12  2  0
 13 11  1  0
 14 13  1  0
 14 15  1  0
 15 17  1  0
 16 15  2  0
M  END
$$$$
