GLG.pdb
     RDKit          3D

 17 16  0  0  1  0  0  0  0  0999 V2000
    5.5642  -19.0462   22.6237 N   0  0  0  0  0  0  0  0  0  0  0  0
    5.6097  -18.3983   23.8983 C   0  0  0  0  0  0  0  0  0  0  0  0
    6.3258  -17.1035   23.8655 C   0  0  0  0  0  0  0  0  0  0  0  0
    6.9064  -16.6924   22.8296 O   0  0  0  0  0  0  0  0  0  0  0  0
    6.6031  -12.0593   27.4341 C   0  0  0  0  0  0  0  0  0  0  0  0
    7.2316  -12.8455   26.2669 C   0  0  2  0  0  0  0  0  0  0  0  0
    7.1514  -11.9683   25.0616 C   0  0  0  0  0  0  0  0  0  0  0  0
    6.5317  -14.1491   26.1468 C   0  0  0  0  0  0  0  0  0  0  0  0
    7.1347  -15.0846   25.1583 C   0  0  2  0  0  0  0  0  0  0  0  0
    6.3587  -16.3102   25.0232 N   0  0  0  0  0  0  0  0  0  0  0  0
    8.5716  -15.3720   25.3452 C   0  0  0  0  0  0  0  0  0  0  0  0
    9.4562  -14.4853   25.3572 O   0  0  0  0  0  0  0  0  0  0  0  0
    9.0628  -16.7170   25.5301 N   0  0  0  0  0  0  0  0  0  0  0  0
   10.4566  -17.0160   25.6704 C   0  0  0  0  0  0  0  0  0  0  0  0
   10.8619  -17.4236   27.0070 C   0  0  0  0  0  0  0  0  0  0  0  0
   10.0177  -17.6026   27.9108 O   0  0  0  0  0  0  0  0  0  0  0  0
   12.1937  -17.6224   27.3073 O   0  0  0  0  0  0  0  0  0  0  0  0
  1  2  1  0
  2  3  1  0
  3  4  2  0
  3 10  1  0
  6  5  1  1
  7  6  1  0
  8  6  1  0
  9  8  1  1
 10  9  1  0
 11  9  1  0
 11 12  2  0
 13 11  1  0
 14 13  1  0
 14 15  1  0
 15 17  1  0
 16 15  2  0
M  END
$$$$
