GLG.pdb
     RDKit          3D

 17 16  0  0  1  0  0  0  0  0999 V2000
    9.8135  -19.0021   18.0111 N   0  0  0  0  0  0  0  0  0  0  0  0
    8.9829  -18.4245   19.0226 C   0  0  0  0  0  0  0  0  0  0  0  0
    9.5564  -17.1933   19.6106 C   0  0  0  0  0  0  0  0  0  0  0  0
   10.6950  -16.7714   19.2870 O   0  0  0  0  0  0  0  0  0  0  0  0
    8.5935  -12.8780   19.4206 C   0  0  0  0  0  0  0  0  0  0  0  0
    7.5678  -13.7835   20.1302 C   0  0  2  0  0  0  0  0  0  0  0  0
    6.3189  -12.9811   20.2886 C   0  0  0  0  0  0  0  0  0  0  0  0
    8.1687  -14.2727   21.3964 C   0  0  0  0  0  0  0  0  0  0  0  0
    9.2685  -15.2597   21.2168 C   0  0  2  0  0  0  0  0  0  0  0  0
    8.8090  -16.4746   20.5569 N   0  0  0  0  0  0  0  0  0  0  0  0
   10.0551  -15.5669   22.4289 C   0  0  0  0  0  0  0  0  0  0  0  0
   10.6440  -14.6947   23.1080 O   0  0  0  0  0  0  0  0  0  0  0  0
   10.2013  -16.9161   22.9218 N   0  0  0  0  0  0  0  0  0  0  0  0
   10.8904  -17.2211   24.1399 C   0  0  0  0  0  0  0  0  0  0  0  0
   12.3044  -17.5256   23.9815 C   0  0  0  0  0  0  0  0  0  0  0  0
   12.8399  -17.5345   22.8526 O   0  0  0  0  0  0  0  0  0  0  0  0
   13.0885  -17.8126   25.0797 O   0  0  0  0  0  0  0  0  0  0  0  0
  1  2  1  0
  2  3  1  0
  3  4  2  0
  3 10  1  0
  6  5  1  1
  7  6  1  0
  8  6  1  0
  9  8  1  1
 10  9  1  0
 11  9  1  0
 11 12  2  0
 13 11  1  0
 14 13  1  0
 14 15  1  0
 15 17  1  0
 16 15  2  0
M  END
$$$$
