GLG.pdb
     RDKit          3D

 17 16  0  0  1  0  0  0  0  0999 V2000
    5.9010  -18.2697   22.8040 N   0  0  0  0  0  0  0  0  0  0  0  0
    5.7755  -17.5371   24.0264 C   0  0  0  0  0  0  0  0  0  0  0  0
    6.8219  -16.5039   24.1933 C   0  0  0  0  0  0  0  0  0  0  0  0
    7.7198  -16.3238   23.3328 O   0  0  0  0  0  0  0  0  0  0  0  0
    7.1175  -11.9271   24.7585 C   0  0  0  0  0  0  0  0  0  0  0  0
    6.3505  -12.7028   25.8474 C   0  0  2  0  0  0  0  0  0  0  0  0
    5.7069  -11.6860   26.7309 C   0  0  0  0  0  0  0  0  0  0  0  0
    7.2987  -13.6205   26.5275 C   0  0  0  0  0  0  0  0  0  0  0  0
    7.8316  -14.7089   25.6630 C   0  0  2  0  0  0  0  0  0  0  0  0
    6.8133  -15.7010   25.3448 N   0  0  0  0  0  0  0  0  0  0  0  0
    9.0786  -15.3457   26.1340 C   0  0  0  0  0  0  0  0  0  0  0  0
   10.1298  -14.7086   26.3747 O   0  0  0  0  0  0  0  0  0  0  0  0
    9.1726  -16.7697   26.3528 N   0  0  0  0  0  0  0  0  0  0  0  0
   10.3314  -17.3866   26.9259 C   0  0  0  0  0  0  0  0  0  0  0  0
   11.3005  -17.8809   25.9597 C   0  0  0  0  0  0  0  0  0  0  0  0
   11.1360  -17.7061   24.7334 O   0  0  0  0  0  0  0  0  0  0  0  0
   12.4279  -18.5568   26.3785 O   0  0  0  0  0  0  0  0  0  0  0  0
  1  2  1  0
  2  3  1  0
  3  4  2  0
  3 10  1  0
  6  5  1  6
  7  6  1  0
  8  6  1  0
  9  8  1  1
 10  9  1  0
 11  9  1  0
 11 12  2  0
 13 11  1  0
 14 13  1  0
 14 15  1  0
 15 17  1  0
 16 15  2  0
M  END
$$$$
