GLG.pdb
     RDKit          3D

 17 16  0  0  1  0  0  0  0  0999 V2000
    5.4883  -19.6163   23.5070 N   0  0  0  0  0  0  0  0  0  0  0  0
    5.6392  -18.7912   24.6660 C   0  0  0  0  0  0  0  0  0  0  0  0
    6.2852  -17.4923   24.3730 C   0  0  0  0  0  0  0  0  0  0  0  0
    6.7583  -17.2272   23.2393 O   0  0  0  0  0  0  0  0  0  0  0  0
    6.7786  -11.9456   27.0345 C   0  0  0  0  0  0  0  0  0  0  0  0
    7.2640  -12.8887   25.9162 C   0  0  2  0  0  0  0  0  0  0  0  0
    7.0482  -12.1739   24.6235 C   0  0  0  0  0  0  0  0  0  0  0  0
    6.5491  -14.1829   26.0490 C   0  0  0  0  0  0  0  0  0  0  0  0
    7.1688  -15.3100   25.2995 C   0  0  2  0  0  0  0  0  0  0  0  0
    6.3733  -16.5273   25.3887 N   0  0  0  0  0  0  0  0  0  0  0  0
    8.5916  -15.5705   25.5994 C   0  0  0  0  0  0  0  0  0  0  0  0
    9.0609  -15.5798   26.7607 O   0  0  0  0  0  0  0  0  0  0  0  0
    9.5546  -15.8366   24.5572 N   0  0  0  0  0  0  0  0  0  0  0  0
   10.9115  -16.2009   24.8363 C   0  0  0  0  0  0  0  0  0  0  0  0
   11.8921  -15.6607   23.9069 C   0  0  0  0  0  0  0  0  0  0  0  0
   11.6857  -15.6684   22.6745 O   0  0  0  0  0  0  0  0  0  0  0  0
   13.0770  -15.1255   24.3683 O   0  0  0  0  0  0  0  0  0  0  0  0
  1  2  1  0
  2  3  1  0
  3  4  2  0
  3 10  1  0
  6  5  1  1
  7  6  1  0
  8  6  1  0
  9  8  1  1
 10  9  1  0
 11  9  1  0
 11 12  2  0
 13 11  1  0
 14 13  1  0
 14 15  1  0
 15 17  1  0
 16 15  2  0
M  END
$$$$
