GLG.pdb
     RDKit          3D

 17 16  0  0  1  0  0  0  0  0999 V2000
    6.0644  -18.1811   22.6439 N   0  0  0  0  0  0  0  0  0  0  0  0
    5.7712  -17.4763   23.8539 C   0  0  0  0  0  0  0  0  0  0  0  0
    6.8901  -16.6240   24.3141 C   0  0  0  0  0  0  0  0  0  0  0  0
    7.9898  -16.5875   23.7070 O   0  0  0  0  0  0  0  0  0  0  0  0
    7.4632  -12.1940   24.8758 C   0  0  0  0  0  0  0  0  0  0  0  0
    6.4519  -12.8691   25.8228 C   0  0  2  0  0  0  0  0  0  0  0  0
    5.7084  -11.7741   26.5135 C   0  0  0  0  0  0  0  0  0  0  0  0
    7.1910  -13.7933   26.7191 C   0  0  0  0  0  0  0  0  0  0  0  0
    7.7588  -14.9897   26.0393 C   0  0  2  0  0  0  0  0  0  0  0  0
    6.7207  -15.8329   25.4614 N   0  0  0  0  0  0  0  0  0  0  0  0
    8.7176  -15.7820   26.8364 C   0  0  0  0  0  0  0  0  0  0  0  0
    9.7500  -15.2972   27.3541 O   0  0  0  0  0  0  0  0  0  0  0  0
    8.5271  -17.1927   27.0773 N   0  0  0  0  0  0  0  0  0  0  0  0
    9.3723  -17.9458   27.9550 C   0  0  0  0  0  0  0  0  0  0  0  0
   10.4847  -18.6190   27.3021 C   0  0  0  0  0  0  0  0  0  0  0  0
   10.9555  -18.1924   26.2262 O   0  0  0  0  0  0  0  0  0  0  0  0
   11.0469  -19.7488   27.8597 O   0  0  0  0  0  0  0  0  0  0  0  0
  1  2  1  0
  2  3  1  0
  3  4  2  0
  3 10  1  0
  6  5  1  6
  7  6  1  0
  8  6  1  0
  9  8  1  1
 10  9  1  0
 11  9  1  0
 11 12  2  0
 13 11  1  0
 14 13  1  0
 14 15  1  0
 15 17  1  0
 16 15  2  0
M  END
$$$$
