WKI.pdb
     RDKit          3D

 32 33  0  0  1  0  0  0  0  0999 V2000
    5.7801  -17.2577   24.6019 N   0  0  0  0  0  0  0  0  0  0  0  0
    6.9484  -16.4167   24.4351 C   0  0  1  0  0  0  0  0  0  0  0  0
    7.4290  -15.9006   25.7731 C   0  0  0  0  0  0  0  0  0  0  0  0
    6.5513  -14.7635   26.1361 C   0  0  0  0  0  0  0  0  0  0  0  0
    5.2665  -14.8410   26.6122 C   0  0  0  0  0  0  0  0  0  0  0  0
    4.8530  -13.5775   26.8043 N   0  0  0  0  0  0  0  0  0  0  0  0
    5.8080  -12.6908   26.4755 C   0  0  0  0  0  0  0  0  0  0  0  0
    5.8188  -11.3099   26.5140 C   0  0  0  0  0  0  0  0  0  0  0  0
    6.9610  -10.6358   26.1101 C   0  0  0  0  0  0  0  0  0  0  0  0
    8.0482  -11.3721   25.6831 C   0  0  0  0  0  0  0  0  0  0  0  0
    8.0538  -12.7519   25.6384 C   0  0  0  0  0  0  0  0  0  0  0  0
    6.8978  -13.4219   26.0475 C   0  0  0  0  0  0  0  0  0  0  0  0
    7.9709  -17.2045   23.7075 C   0  0  0  0  0  0  0  0  0  0  0  0
    8.2766  -18.3587   24.0644 O   0  0  0  0  0  0  0  0  0  0  0  0
    8.6524  -16.6833   22.5680 N   0  0  0  0  0  0  0  0  0  0  0  0
   10.0846  -16.7213   22.3796 C   0  0  1  0  0  0  0  0  0  0  0  0
   10.5320  -16.1569   21.0797 C   0  0  0  0  0  0  0  0  0  0  0  0
   10.7054  -17.1552   19.9867 C   0  0  0  0  0  0  0  0  0  0  0  0
   10.0206  -16.7825   18.7007 C   0  0  0  0  0  0  0  0  0  0  0  0
   10.4266  -17.8419   17.6829 C   0  0  0  0  0  0  0  0  0  0  0  0
    9.7113  -17.6072   16.4287 N   0  0  0  0  0  0  0  0  0  0  0  0
   10.7357  -16.1398   23.5650 C   0  0  0  0  0  0  0  0  0  0  0  0
   10.9301  -14.9042   23.6084 O   0  0  0  0  0  0  0  0  0  0  0  0
    9.7103  -13.6377   27.4372 C   0  0  0  0  0  0  0  0  0  0  0  0
   10.4701  -14.3723   26.3932 C   0  0  0  0  0  0  0  0  0  0  0  0
   11.1768  -15.6194   26.8293 C   0  0  2  0  0  0  0  0  0  0  0  0
   12.0597  -15.3112   28.0406 C   0  0  0  0  0  0  0  0  0  0  0  0
   11.9158  -16.3729   25.7850 C   0  0  2  0  0  0  0  0  0  0  0  0
   11.1722  -16.8918   24.6938 N   0  0  0  0  0  0  0  0  0  0  0  0
   12.6196  -17.4990   26.4669 C   0  0  0  0  0  0  0  0  0  0  0  0
   12.2546  -18.6903   26.3516 O   0  0  0  0  0  0  0  0  0  0  0  0
   13.7247  -17.2467   27.2665 O   0  0  0  0  0  0  0  0  0  0  0  0
  2  1  1  1
  2 13  1  0
  2  3  1  0
  4  5  2  0
  4  3  1  0
  6  5  1  0
  7 12  2  0
  7  6  1  0
  8  7  1  0
  9 10  1  0
  9  8  2  0
 10 11  2  0
 11 12  1  0
 12  4  1  0
 13 14  2  0
 15 16  1  0
 15 13  1  0
 16 17  1  6
 18 17  1  0
 19 20  1  0
 19 18  1  0
 21 20  1  0
 22 16  1  0
 22 23  2  0
 24 25  1  0
 25 26  1  0
 26 28  1  0
 26 27  1  1
 28 29  1  6
 28 30  1  0
 29 22  1  0
 30 31  2  0
 30 32  1  0
M  END
$$$$
