WKI.pdb
     RDKit          3D

 32 33  0  0  1  0  0  0  0  0999 V2000
    6.2521  -17.3039   23.9904 N   0  0  0  0  0  0  0  0  0  0  0  0
    7.4374  -16.5036   24.2246 C   0  0  1  0  0  0  0  0  0  0  0  0
    7.5123  -16.0734   25.6727 C   0  0  0  0  0  0  0  0  0  0  0  0
    6.6221  -14.8981   25.8191 C   0  0  0  0  0  0  0  0  0  0  0  0
    5.2939  -14.9157   26.1638 C   0  0  0  0  0  0  0  0  0  0  0  0
    4.8851  -13.6361   26.1763 N   0  0  0  0  0  0  0  0  0  0  0  0
    5.8845  -12.7962   25.8566 C   0  0  0  0  0  0  0  0  0  0  0  0
    5.9158  -11.4193   25.7491 C   0  0  0  0  0  0  0  0  0  0  0  0
    7.1053  -10.8000   25.3974 C   0  0  0  0  0  0  0  0  0  0  0  0
    8.2175  -11.5850   25.1670 C   0  0  0  0  0  0  0  0  0  0  0  0
    8.2032  -12.9617   25.2701 C   0  0  0  0  0  0  0  0  0  0  0  0
    6.9996  -13.5762   25.6251 C   0  0  0  0  0  0  0  0  0  0  0  0
    8.6102  -17.2955   23.7854 C   0  0  0  0  0  0  0  0  0  0  0  0
    8.7592  -18.4828   24.1332 O   0  0  0  0  0  0  0  0  0  0  0  0
    9.6218  -16.7405   22.9468 N   0  0  0  0  0  0  0  0  0  0  0  0
   11.0273  -17.0648   23.0314 C   0  0  1  0  0  0  0  0  0  0  0  0
   11.8140  -16.6290   21.8483 C   0  0  0  0  0  0  0  0  0  0  0  0
   12.2280  -17.7265   20.9289 C   0  0  0  0  0  0  0  0  0  0  0  0
   11.6519  -17.6172   19.5440 C   0  0  0  0  0  0  0  0  0  0  0  0
   12.2069  -18.8009   18.7605 C   0  0  0  0  0  0  0  0  0  0  0  0
   11.1071  -19.6861   18.3776 N   0  0  0  0  0  0  0  0  0  0  0  0
   11.5462  -16.5975   24.3274 C   0  0  0  0  0  0  0  0  0  0  0  0
   12.4002  -15.6828   24.3473 O   0  0  0  0  0  0  0  0  0  0  0  0
    8.9871  -13.7074   27.4753 C   0  0  0  0  0  0  0  0  0  0  0  0
   10.0917  -14.4768   26.8470 C   0  0  0  0  0  0  0  0  0  0  0  0
   10.5304  -15.7221   27.5553 C   0  0  2  0  0  0  0  0  0  0  0  0
   10.9920  -15.3706   28.9714 C   0  0  0  0  0  0  0  0  0  0  0  0
   11.5138  -16.5839   26.8520 C   0  0  2  0  0  0  0  0  0  0  0  0
   11.1422  -17.1173   25.5910 N   0  0  0  0  0  0  0  0  0  0  0  0
   11.8509  -17.7109   27.7711 C   0  0  0  0  0  0  0  0  0  0  0  0
   12.8093  -17.6621   28.5740 O   0  0  0  0  0  0  0  0  0  0  0  0
   11.0905  -18.8711   27.7579 O   0  0  0  0  0  0  0  0  0  0  0  0
  2  1  1  1
  2 13  1  0
  2  3  1  0
  4  5  2  0
  4  3  1  0
  6  5  1  0
  7 12  2  0
  7  6  1  0
  8  7  1  0
  9 10  1  0
  9  8  2  0
 10 11  2  0
 11 12  1  0
 12  4  1  0
 13 14  2  0
 15 16  1  0
 15 13  1  0
 16 17  1  6
 18 17  1  0
 19 20  1  0
 19 18  1  0
 21 20  1  0
 22 16  1  0
 22 23  2  0
 24 25  1  0
 25 26  1  0
 26 28  1  0
 26 27  1  1
 28 29  1  6
 28 30  1  0
 29 22  1  0
 30 31  2  0
 30 32  1  0
M  END
$$$$
