WKI.pdb
     RDKit          3D

 32 33  0  0  1  0  0  0  0  0999 V2000
    6.4258  -17.1481   23.9606 N   0  0  0  0  0  0  0  0  0  0  0  0
    7.5806  -16.2851   24.1075 C   0  0  1  0  0  0  0  0  0  0  0  0
    7.7149  -15.8135   25.5383 C   0  0  0  0  0  0  0  0  0  0  0  0
    6.6451  -14.8137   25.7639 C   0  0  0  0  0  0  0  0  0  0  0  0
    5.3336  -15.0742   26.0729 C   0  0  0  0  0  0  0  0  0  0  0  0
    4.7234  -13.8829   26.1862 N   0  0  0  0  0  0  0  0  0  0  0  0
    5.5773  -12.8687   25.9655 C   0  0  0  0  0  0  0  0  0  0  0  0
    5.3869  -11.5005   25.9786 C   0  0  0  0  0  0  0  0  0  0  0  0
    6.4643  -10.6699   25.7115 C   0  0  0  0  0  0  0  0  0  0  0  0
    7.6911  -11.2431   25.4416 C   0  0  0  0  0  0  0  0  0  0  0  0
    7.8983  -12.6079   25.4244 C   0  0  0  0  0  0  0  0  0  0  0  0
    6.8061  -13.4363   25.6948 C   0  0  0  0  0  0  0  0  0  0  0  0
    8.7652  -17.0303   23.6207 C   0  0  0  0  0  0  0  0  0  0  0  0
    8.9018  -18.2489   23.8421 O   0  0  0  0  0  0  0  0  0  0  0  0
    9.8028  -16.3926   22.8782 N   0  0  0  0  0  0  0  0  0  0  0  0
   11.1924  -16.7880   22.9033 C   0  0  1  0  0  0  0  0  0  0  0  0
   11.9887  -16.2474   21.7710 C   0  0  0  0  0  0  0  0  0  0  0  0
   11.7664  -16.9282   20.4640 C   0  0  0  0  0  0  0  0  0  0  0  0
   12.2013  -18.3677   20.4398 C   0  0  0  0  0  0  0  0  0  0  0  0
   12.0461  -18.8322   18.9965 C   0  0  0  0  0  0  0  0  0  0  0  0
   10.6424  -19.1541   18.7401 N   0  0  0  0  0  0  0  0  0  0  0  0
   11.7431  -16.5057   24.2391 C   0  0  0  0  0  0  0  0  0  0  0  0
   12.8150  -15.8666   24.3332 O   0  0  0  0  0  0  0  0  0  0  0  0
   10.4124  -13.1443   27.6934 C   0  0  0  0  0  0  0  0  0  0  0  0
   11.2003  -14.2023   27.0102 C   0  0  0  0  0  0  0  0  0  0  0  0
   11.0864  -15.5890   27.5658 C   0  0  2  0  0  0  0  0  0  0  0  0
   11.6007  -15.6075   29.0070 C   0  0  0  0  0  0  0  0  0  0  0  0
   11.6725  -16.6872   26.7564 C   0  0  2  0  0  0  0  0  0  0  0  0
   11.1365  -16.9128   25.4624 N   0  0  0  0  0  0  0  0  0  0  0  0
   11.5456  -17.9417   27.5556 C   0  0  0  0  0  0  0  0  0  0  0  0
   10.7338  -18.8478   27.2631 O   0  0  0  0  0  0  0  0  0  0  0  0
   12.3451  -18.1397   28.6718 O   0  0  0  0  0  0  0  0  0  0  0  0
  2  1  1  1
  2 13  1  0
  2  3  1  0
  4  5  2  0
  4  3  1  0
  6  5  1  0
  7 12  2  0
  7  6  1  0
  8  7  1  0
  9 10  1  0
  9  8  2  0
 10 11  2  0
 11 12  1  0
 12  4  1  0
 13 14  2  0
 15 16  1  0
 15 13  1  0
 16 17  1  6
 18 17  1  0
 19 20  1  0
 19 18  1  0
 21 20  1  0
 22 16  1  0
 22 23  2  0
 24 25  1  0
 25 26  1  0
 26 28  1  0
 26 27  1  1
 28 29  1  6
 28 30  1  0
 29 22  1  0
 30 31  2  0
 30 32  1  0
M  END
$$$$
