WKI.pdb
     RDKit          3D

 32 33  0  0  1  0  0  0  0  0999 V2000
    6.2778  -17.1082   25.1206 N   0  0  0  0  0  0  0  0  0  0  0  0
    7.2883  -16.4088   24.3525 C   0  0  1  0  0  0  0  0  0  0  0  0
    7.9565  -15.3450   25.1948 C   0  0  0  0  0  0  0  0  0  0  0  0
    6.8917  -14.4142   25.6365 C   0  0  0  0  0  0  0  0  0  0  0  0
    5.5489  -14.6859   25.7163 C   0  0  0  0  0  0  0  0  0  0  0  0
    4.9575  -13.5640   26.1593 N   0  0  0  0  0  0  0  0  0  0  0  0
    5.8533  -12.5841   26.3685 C   0  0  0  0  0  0  0  0  0  0  0  0
    5.6939  -11.2868   26.8157 C   0  0  0  0  0  0  0  0  0  0  0  0
    6.8127  -10.4777   26.9417 C   0  0  0  0  0  0  0  0  0  0  0  0
    8.0480  -11.0005   26.6145 C   0  0  0  0  0  0  0  0  0  0  0  0
    8.2246  -12.2942   26.1662 C   0  0  0  0  0  0  0  0  0  0  0  0
    7.0908  -13.1015   26.0427 C   0  0  0  0  0  0  0  0  0  0  0  0
    8.2338  -17.4203   23.8248 C   0  0  0  0  0  0  0  0  0  0  0  0
    8.4221  -18.5026   24.4130 O   0  0  0  0  0  0  0  0  0  0  0  0
    8.9717  -17.2062   22.6229 N   0  0  0  0  0  0  0  0  0  0  0  0
   10.4015  -17.3722   22.4969 C   0  0  1  0  0  0  0  0  0  0  0  0
   10.9213  -17.0694   21.1380 C   0  0  0  0  0  0  0  0  0  0  0  0
   10.2131  -17.7622   20.0246 C   0  0  0  0  0  0  0  0  0  0  0  0
   10.6699  -17.3463   18.6535 C   0  0  0  0  0  0  0  0  0  0  0  0
    9.8228  -18.1408   17.6664 C   0  0  0  0  0  0  0  0  0  0  0  0
   10.1975  -19.5531   17.7345 N   0  0  0  0  0  0  0  0  0  0  0  0
   11.0633  -16.6424   23.5907 C   0  0  0  0  0  0  0  0  0  0  0  0
   11.5068  -15.4921   23.3745 O   0  0  0  0  0  0  0  0  0  0  0  0
   10.9307  -13.4392   28.2750 C   0  0  0  0  0  0  0  0  0  0  0  0
   11.7314  -14.5230   27.6495 C   0  0  0  0  0  0  0  0  0  0  0  0
   11.0732  -15.2927   26.5454 C   0  0  2  0  0  0  0  0  0  0  0  0
    9.6569  -15.6877   26.9697 C   0  0  0  0  0  0  0  0  0  0  0  0
   11.8250  -16.4463   25.9900 C   0  0  2  0  0  0  0  0  0  0  0  0
   11.2426  -17.1553   24.9079 N   0  0  0  0  0  0  0  0  0  0  0  0
   12.0680  -17.3982   27.1141 C   0  0  0  0  0  0  0  0  0  0  0  0
   12.7786  -17.1070   28.1020 O   0  0  0  0  0  0  0  0  0  0  0  0
   11.4975  -18.6624   27.0913 O   0  0  0  0  0  0  0  0  0  0  0  0
  2  1  1  1
  2 13  1  0
  2  3  1  0
  4  5  2  0
  4  3  1  0
  6  5  1  0
  7 12  2  0
  7  6  1  0
  8  7  1  0
  9 10  1  0
  9  8  2  0
 10 11  2  0
 11 12  1  0
 12  4  1  0
 13 14  2  0
 15 16  1  0
 15 13  1  0
 16 17  1  6
 18 17  1  0
 19 20  1  0
 19 18  1  0
 21 20  1  0
 22 16  1  0
 22 23  2  0
 24 25  1  0
 25 26  1  0
 26 28  1  0
 26 27  1  1
 28 29  1  6
 28 30  1  0
 29 22  1  0
 30 31  2  0
 30 32  1  0
M  END
$$$$
