WKI.pdb
     RDKit          3D

 32 33  0  0  1  0  0  0  0  0999 V2000
    5.9297  -17.3769   25.1114 N   0  0  0  0  0  0  0  0  0  0  0  0
    6.9980  -16.5566   24.5766 C   0  0  1  0  0  0  0  0  0  0  0  0
    7.6079  -15.7004   25.6641 C   0  0  0  0  0  0  0  0  0  0  0  0
    6.6503  -14.6029   25.9355 C   0  0  0  0  0  0  0  0  0  0  0  0
    5.3630  -14.7347   26.3926 C   0  0  0  0  0  0  0  0  0  0  0  0
    4.8640  -13.4916   26.4935 N   0  0  0  0  0  0  0  0  0  0  0  0
    5.7664  -12.5666   26.1241 C   0  0  0  0  0  0  0  0  0  0  0  0
    5.6866  -11.1884   26.0716 C   0  0  0  0  0  0  0  0  0  0  0  0
    6.7912  -10.4675   25.6447 C   0  0  0  0  0  0  0  0  0  0  0  0
    7.9331  -11.1561   25.2868 C   0  0  0  0  0  0  0  0  0  0  0  0
    8.0294  -12.5325   25.3332 C   0  0  0  0  0  0  0  0  0  0  0  0
    6.9107  -13.2499   25.7649 C   0  0  0  0  0  0  0  0  0  0  0  0
    7.9744  -17.4585   23.9219 C   0  0  0  0  0  0  0  0  0  0  0  0
    8.2863  -18.5542   24.4267 O   0  0  0  0  0  0  0  0  0  0  0  0
    8.6026  -17.1187   22.6871 N   0  0  0  0  0  0  0  0  0  0  0  0
   10.0015  -17.3293   22.3925 C   0  0  1  0  0  0  0  0  0  0  0  0
   10.3642  -17.0468   20.9793 C   0  0  0  0  0  0  0  0  0  0  0  0
   11.7649  -17.3946   20.6077 C   0  0  0  0  0  0  0  0  0  0  0  0
   12.1115  -17.0982   19.1746 C   0  0  0  0  0  0  0  0  0  0  0  0
   13.3843  -17.8820   18.8765 C   0  0  0  0  0  0  0  0  0  0  0  0
   13.8117  -17.6069   17.5048 N   0  0  0  0  0  0  0  0  0  0  0  0
   10.8110  -16.6169   23.3947 C   0  0  0  0  0  0  0  0  0  0  0  0
   11.2877  -15.4959   23.1074 O   0  0  0  0  0  0  0  0  0  0  0  0
    9.4553  -14.0408   27.5303 C   0  0  0  0  0  0  0  0  0  0  0  0
   10.1907  -14.6910   26.4152 C   0  0  0  0  0  0  0  0  0  0  0  0
   11.1572  -15.7732   26.7888 C   0  0  2  0  0  0  0  0  0  0  0  0
   12.1203  -15.2532   27.8584 C   0  0  0  0  0  0  0  0  0  0  0  0
   11.8770  -16.4441   25.6770 C   0  0  2  0  0  0  0  0  0  0  0  0
   11.1010  -17.1158   24.6975 N   0  0  0  0  0  0  0  0  0  0  0  0
   12.8272  -17.4188   26.2899 C   0  0  0  0  0  0  0  0  0  0  0  0
   12.6109  -18.6511   26.3071 O   0  0  0  0  0  0  0  0  0  0  0  0
   14.0046  -16.9715   26.8712 O   0  0  0  0  0  0  0  0  0  0  0  0
  2  1  1  1
  2 13  1  0
  2  3  1  0
  4  5  2  0
  4  3  1  0
  6  5  1  0
  7 12  2  0
  7  6  1  0
  8  7  1  0
  9 10  1  0
  9  8  2  0
 10 11  2  0
 11 12  1  0
 12  4  1  0
 13 14  2  0
 15 16  1  0
 15 13  1  0
 16 17  1  6
 18 17  1  0
 19 20  1  0
 19 18  1  0
 21 20  1  0
 22 16  1  0
 22 23  2  0
 24 25  1  0
 25 26  1  0
 26 28  1  0
 26 27  1  1
 28 29  1  6
 28 30  1  0
 29 22  1  0
 30 31  2  0
 30 32  1  0
M  END
$$$$
