WKI.pdb
     RDKit          3D

 32 33  0  0  1  0  0  0  0  0999 V2000
    6.0679  -17.6817   25.3199 N   0  0  0  0  0  0  0  0  0  0  0  0
    7.1192  -16.8003   24.8528 C   0  0  1  0  0  0  0  0  0  0  0  0
    7.5799  -15.8844   25.9648 C   0  0  0  0  0  0  0  0  0  0  0  0
    6.6578  -14.7247   25.9769 C   0  0  0  0  0  0  0  0  0  0  0  0
    5.3360  -14.7343   26.3457 C   0  0  0  0  0  0  0  0  0  0  0  0
    4.8900  -13.4753   26.2028 N   0  0  0  0  0  0  0  0  0  0  0  0
    5.8594  -12.6561   25.7604 C   0  0  0  0  0  0  0  0  0  0  0  0
    5.8486  -11.3039   25.4780 C   0  0  0  0  0  0  0  0  0  0  0  0
    7.0140  -10.7023   25.0284 C   0  0  0  0  0  0  0  0  0  0  0  0
    8.1453  -11.4797   24.8793 C   0  0  0  0  0  0  0  0  0  0  0  0
    8.1730  -12.8318   25.1569 C   0  0  0  0  0  0  0  0  0  0  0  0
    6.9934  -13.4286   25.6094 C   0  0  0  0  0  0  0  0  0  0  0  0
    8.2037  -17.6453   24.3002 C   0  0  0  0  0  0  0  0  0  0  0  0
    8.5701  -18.6890   24.8740 O   0  0  0  0  0  0  0  0  0  0  0  0
    8.8786  -17.3074   23.0898 N   0  0  0  0  0  0  0  0  0  0  0  0
   10.2606  -17.6195   22.8059 C   0  0  1  0  0  0  0  0  0  0  0  0
   10.6670  -17.3180   21.4086 C   0  0  0  0  0  0  0  0  0  0  0  0
   11.9649  -17.9173   20.9876 C   0  0  0  0  0  0  0  0  0  0  0  0
   11.9501  -18.5028   19.6024 C   0  0  0  0  0  0  0  0  0  0  0  0
   13.0220  -17.7567   18.8165 C   0  0  0  0  0  0  0  0  0  0  0  0
   14.3273  -18.3589   19.0868 N   0  0  0  0  0  0  0  0  0  0  0  0
   11.1087  -17.0102   23.8435 C   0  0  0  0  0  0  0  0  0  0  0  0
   12.0277  -16.2331   23.4999 O   0  0  0  0  0  0  0  0  0  0  0  0
    9.5103  -14.6429   28.6433 C   0  0  0  0  0  0  0  0  0  0  0  0
   10.0466  -15.7985   27.8792 C   0  0  0  0  0  0  0  0  0  0  0  0
   11.2543  -15.5405   27.0309 C   0  0  2  0  0  0  0  0  0  0  0  0
   11.0056  -14.3190   26.1432 C   0  0  0  0  0  0  0  0  0  0  0  0
   11.7872  -16.6882   26.2541 C   0  0  2  0  0  0  0  0  0  0  0  0
   10.9613  -17.2412   25.2417 N   0  0  0  0  0  0  0  0  0  0  0  0
   12.1339  -17.7612   27.2323 C   0  0  0  0  0  0  0  0  0  0  0  0
   11.5531  -18.8694   27.2508 O   0  0  0  0  0  0  0  0  0  0  0  0
   13.1345  -17.5516   28.1698 O   0  0  0  0  0  0  0  0  0  0  0  0
  2  1  1  1
  2 13  1  0
  2  3  1  0
  4  5  2  0
  4  3  1  0
  6  5  1  0
  7 12  2  0
  7  6  1  0
  8  7  1  0
  9 10  1  0
  9  8  2  0
 10 11  2  0
 11 12  1  0
 12  4  1  0
 13 14  2  0
 15 16  1  0
 15 13  1  0
 16 17  1  6
 18 17  1  0
 19 20  1  0
 19 18  1  0
 21 20  1  0
 22 16  1  0
 22 23  2  0
 24 25  1  0
 25 26  1  0
 26 28  1  0
 26 27  1  6
 28 29  1  6
 28 30  1  0
 29 22  1  0
 30 31  2  0
 30 32  1  0
M  END
$$$$
