WKI.pdb
     RDKit          3D

 32 33  0  0  1  0  0  0  0  0999 V2000
    6.1714  -17.0399   24.1151 N   0  0  0  0  0  0  0  0  0  0  0  0
    7.3579  -16.2085   24.1486 C   0  0  1  0  0  0  0  0  0  0  0  0
    7.5927  -15.6709   25.5427 C   0  0  0  0  0  0  0  0  0  0  0  0
    6.6114  -14.5812   25.7545 C   0  0  0  0  0  0  0  0  0  0  0  0
    5.3375  -14.7119   26.2479 C   0  0  0  0  0  0  0  0  0  0  0  0
    4.8072  -13.4778   26.2692 N   0  0  0  0  0  0  0  0  0  0  0  0
    5.6768  -12.5597   25.8139 C   0  0  0  0  0  0  0  0  0  0  0  0
    5.5588  -11.1915   25.6633 C   0  0  0  0  0  0  0  0  0  0  0  0
    6.6348  -10.4759   25.1610 C   0  0  0  0  0  0  0  0  0  0  0  0
    7.7876  -11.1595   24.8292 C   0  0  0  0  0  0  0  0  0  0  0  0
    7.9219  -12.5260   24.9735 C   0  0  0  0  0  0  0  0  0  0  0  0
    6.8318  -13.2381   25.4804 C   0  0  0  0  0  0  0  0  0  0  0  0
    8.4884  -17.0150   23.6317 C   0  0  0  0  0  0  0  0  0  0  0  0
    8.6004  -18.2258   23.9044 O   0  0  0  0  0  0  0  0  0  0  0  0
    9.4994  -16.4481   22.8003 N   0  0  0  0  0  0  0  0  0  0  0  0
   10.8979  -16.8084   22.8469 C   0  0  1  0  0  0  0  0  0  0  0  0
   11.6862  -16.2959   21.6960 C   0  0  0  0  0  0  0  0  0  0  0  0
   11.2622  -16.8117   20.3636 C   0  0  0  0  0  0  0  0  0  0  0  0
   11.3033  -18.3103   20.2439 C   0  0  0  0  0  0  0  0  0  0  0  0
   10.7249  -18.6411   18.8731 C   0  0  0  0  0  0  0  0  0  0  0  0
   10.6087  -20.0927   18.7346 N   0  0  0  0  0  0  0  0  0  0  0  0
   11.4355  -16.4578   24.1718 C   0  0  0  0  0  0  0  0  0  0  0  0
   12.3066  -15.5633   24.2583 O   0  0  0  0  0  0  0  0  0  0  0  0
    9.2637  -13.6885   27.7097 C   0  0  0  0  0  0  0  0  0  0  0  0
   10.2619  -14.4880   26.9539 C   0  0  0  0  0  0  0  0  0  0  0  0
   10.5983  -15.8391   27.5072 C   0  0  2  0  0  0  0  0  0  0  0  0
   11.1174  -15.6917   28.9392 C   0  0  0  0  0  0  0  0  0  0  0  0
   11.4850  -16.7002   26.6845 C   0  0  2  0  0  0  0  0  0  0  0  0
   11.0318  -17.0718   25.3925 N   0  0  0  0  0  0  0  0  0  0  0  0
   11.7561  -17.9377   27.4741 C   0  0  0  0  0  0  0  0  0  0  0  0
   12.4350  -17.9313   28.5252 O   0  0  0  0  0  0  0  0  0  0  0  0
   11.2494  -19.1580   27.0516 O   0  0  0  0  0  0  0  0  0  0  0  0
  2  1  1  1
  2 13  1  0
  2  3  1  0
  4  5  2  0
  4  3  1  0
  6  5  1  0
  7 12  2  0
  7  6  1  0
  8  7  1  0
  9 10  1  0
  9  8  2  0
 10 11  2  0
 11 12  1  0
 12  4  1  0
 13 14  2  0
 15 16  1  0
 15 13  1  0
 16 17  1  6
 18 17  1  0
 19 20  1  0
 19 18  1  0
 21 20  1  0
 22 16  1  0
 22 23  2  0
 24 25  1  0
 25 26  1  0
 26 28  1  0
 26 27  1  1
 28 29  1  6
 28 30  1  0
 29 22  1  0
 30 31  2  0
 30 32  1  0
M  END
$$$$
