IKM.pdb
     RDKit          3D

 26 25  0  0  1  0  0  0  0  0999 V2000
   25.7427  -15.1057  -14.5710 C   0  0  0  0  0  0  0  0  0  0  0  0
   25.1854  -15.0217  -15.9455 C   0  0  0  0  0  0  0  0  0  0  0  0
   24.7514  -13.6262  -16.3508 C   0  0  2  0  0  0  0  0  0  0  0  0
   25.5914  -12.5641  -15.7353 C   0  0  0  0  0  0  0  0  0  0  0  0
   23.3282  -13.5029  -15.7767 C   0  0  2  0  0  0  0  0  0  0  0  0
   22.5544  -14.6267  -16.3416 N   0  0  0  0  0  0  0  0  0  0  0  0
   22.6362  -12.2831  -16.2153 C   0  0  0  0  0  0  0  0  0  0  0  0
   22.9816  -11.7346  -17.3161 O   0  0  0  0  0  0  0  0  0  0  0  0
   21.5846  -11.6163  -15.5342 N   0  0  0  0  0  0  0  0  0  0  0  0
   20.9178  -10.4502  -16.0788 C   0  0  1  0  0  0  0  0  0  0  0  0
   19.4509  -10.3990  -15.7044 C   0  0  0  0  0  0  0  0  0  0  0  0
   18.6951  -11.3958  -16.5188 C   0  0  0  0  0  0  0  0  0  0  0  0
   17.2551  -11.3890  -16.1295 C   0  0  0  0  0  0  0  0  0  0  0  0
   16.4684  -12.3956  -16.9014 C   0  0  0  0  0  0  0  0  0  0  0  0
   15.1102  -12.4790  -16.3358 N   0  0  0  0  0  0  0  0  0  0  0  0
   21.5577   -9.2189  -15.5039 C   0  0  0  0  0  0  0  0  0  0  0  0
   21.9577   -9.2769  -14.3184 O   0  0  0  0  0  0  0  0  0  0  0  0
   25.5971   -2.6535  -17.2460 C   0  0  0  0  0  0  0  0  0  0  0  0
   24.4907   -3.9781  -17.7963 S   0  0  0  0  0  0  0  0  0  0  0  0
   23.9327   -4.9877  -16.4229 C   0  0  0  0  0  0  0  0  0  0  0  0
   23.0969   -6.1482  -16.7870 C   0  0  0  0  0  0  0  0  0  0  0  0
   22.5892   -6.9546  -15.6584 C   0  0  2  0  0  0  0  0  0  0  0  0
   21.7183   -8.0396  -16.2283 N   0  0  0  0  0  0  0  0  0  0  0  0
   21.8107   -6.2238  -14.6704 C   0  0  0  0  0  0  0  0  0  0  0  0
   22.4485   -5.6590  -13.5565 O   0  0  0  0  0  0  0  0  0  0  0  0
   20.5911   -6.0602  -14.7445 O   0  0  0  0  0  0  0  0  0  0  0  0
  2  3  1  0
  2  1  1  0
  3  4  1  1
  5  3  1  0
  5  6  1  6
  7  9  1  0
  7  5  1  0
  8  7  2  0
 10 11  1  1
 10  9  1  0
 11 12  1  0
 12 13  1  0
 13 14  1  0
 14 15  1  0
 16 10  1  0
 16 17  2  0
 19 20  1  0
 19 18  1  0
 20 21  1  0
 22 21  1  6
 22 24  1  0
 22 23  1  0
 23 16  1  0
 24 25  1  0
 26 24  2  0
M  END
$$$$
