IKM.pdb
     RDKit          3D

 26 25  0  0  1  0  0  0  0  0999 V2000
   28.0549  -24.3979  -18.1030 C   0  0  0  0  0  0  0  0  0  0  0  0
   27.0259  -24.9781  -17.2023 C   0  0  0  0  0  0  0  0  0  0  0  0
   26.1266  -23.9469  -16.5481 C   0  0  2  0  0  0  0  0  0  0  0  0
   26.8627  -23.0593  -15.6084 C   0  0  0  0  0  0  0  0  0  0  0  0
   25.1340  -24.7919  -15.7292 C   0  0  2  0  0  0  0  0  0  0  0  0
   24.4890  -25.7154  -16.6842 N   0  0  0  0  0  0  0  0  0  0  0  0
   24.0443  -23.9950  -15.1489 C   0  0  0  0  0  0  0  0  0  0  0  0
   24.3193  -23.1239  -14.2559 O   0  0  0  0  0  0  0  0  0  0  0  0
   22.6663  -24.0802  -15.4782 N   0  0  0  0  0  0  0  0  0  0  0  0
   21.6363  -23.4158  -14.7045 C   0  0  1  0  0  0  0  0  0  0  0  0
   20.8825  -22.3833  -15.5170 C   0  0  0  0  0  0  0  0  0  0  0  0
   19.8266  -21.7569  -14.6680 C   0  0  0  0  0  0  0  0  0  0  0  0
   18.9692  -20.8596  -15.4957 C   0  0  0  0  0  0  0  0  0  0  0  0
   17.9939  -20.1000  -14.6593 C   0  0  0  0  0  0  0  0  0  0  0  0
   17.1932  -19.2240  -15.5327 N   0  0  0  0  0  0  0  0  0  0  0  0
   20.6317  -24.4409  -14.2621 C   0  0  0  0  0  0  0  0  0  0  0  0
   20.6479  -25.5514  -14.8410 O   0  0  0  0  0  0  0  0  0  0  0  0
   20.3043  -30.0519  -10.0138 C   0  0  0  0  0  0  0  0  0  0  0  0
   20.9623  -28.5053  -10.6894 S   0  0  0  0  0  0  0  0  0  0  0  0
   19.6578  -27.4563  -11.3332 C   0  0  0  0  0  0  0  0  0  0  0  0
   20.1101  -26.2356  -12.0283 C   0  0  0  0  0  0  0  0  0  0  0  0
   19.0429  -25.3803  -12.5865 C   0  0  2  0  0  0  0  0  0  0  0  0
   19.7020  -24.2041  -13.2517 N   0  0  0  0  0  0  0  0  0  0  0  0
   18.0820  -24.8717  -11.6199 C   0  0  0  0  0  0  0  0  0  0  0  0
   18.2996  -23.6304  -11.0048 O   0  0  0  0  0  0  0  0  0  0  0  0
   17.0571  -25.4732  -11.2920 O   0  0  0  0  0  0  0  0  0  0  0  0
  2  3  1  0
  2  1  1  0
  3  4  1  1
  5  3  1  0
  5  6  1  6
  7  9  1  0
  7  5  1  0
  8  7  2  0
 10 11  1  6
 10  9  1  0
 11 12  1  0
 12 13  1  0
 13 14  1  0
 14 15  1  0
 16 10  1  0
 16 17  2  0
 19 20  1  0
 19 18  1  0
 20 21  1  0
 22 21  1  1
 22 24  1  0
 22 23  1  0
 23 16  1  0
 24 25  1  0
 26 24  2  0
M  END
$$$$
