IKM.pdb
     RDKit          3D

 26 25  0  0  1  0  0  0  0  0999 V2000
   28.9611  -18.7212  -18.1949 C   0  0  0  0  0  0  0  0  0  0  0  0
   28.1260  -19.8660  -18.6408 C   0  0  0  0  0  0  0  0  0  0  0  0
   27.0155  -20.2324  -17.6750 C   0  0  2  0  0  0  0  0  0  0  0  0
   26.2349  -19.0489  -17.2247 C   0  0  0  0  0  0  0  0  0  0  0  0
   27.7624  -20.8043  -16.4564 C   0  0  2  0  0  0  0  0  0  0  0  0
   28.3896  -22.0628  -16.9075 N   0  0  0  0  0  0  0  0  0  0  0  0
   26.8633  -21.1798  -15.3565 C   0  0  0  0  0  0  0  0  0  0  0  0
   25.9514  -22.0488  -15.5687 O   0  0  0  0  0  0  0  0  0  0  0  0
   26.8908  -20.6724  -14.0312 N   0  0  0  0  0  0  0  0  0  0  0  0
   25.9023  -21.0362  -13.0355 C   0  0  1  0  0  0  0  0  0  0  0  0
   26.2782  -20.5552  -11.6492 C   0  0  0  0  0  0  0  0  0  0  0  0
   25.1789  -20.8835  -10.6942 C   0  0  0  0  0  0  0  0  0  0  0  0
   25.5512  -20.4501   -9.3162 C   0  0  0  0  0  0  0  0  0  0  0  0
   24.5033  -20.8171   -8.3186 C   0  0  0  0  0  0  0  0  0  0  0  0
   24.9421  -20.3835   -6.9804 N   0  0  0  0  0  0  0  0  0  0  0  0
   24.6001  -20.3758  -13.3880 C   0  0  0  0  0  0  0  0  0  0  0  0
   24.5953  -19.1273  -13.4882 O   0  0  0  0  0  0  0  0  0  0  0  0
   21.4567  -20.6157  -18.4886 C   0  0  0  0  0  0  0  0  0  0  0  0
   20.0120  -20.4022  -17.4169 S   0  0  0  0  0  0  0  0  0  0  0  0
   20.4895  -20.0263  -15.7294 C   0  0  0  0  0  0  0  0  0  0  0  0
   21.7562  -20.6343  -15.2781 C   0  0  0  0  0  0  0  0  0  0  0  0
   22.1589  -20.3266  -13.8906 C   0  0  2  0  0  0  0  0  0  0  0  0
   23.4225  -21.0887  -13.6026 N   0  0  0  0  0  0  0  0  0  0  0  0
   21.1828  -20.6687  -12.8677 C   0  0  0  0  0  0  0  0  0  0  0  0
   20.0412  -19.8723  -12.6966 O   0  0  0  0  0  0  0  0  0  0  0  0
   21.2907  -21.6398  -12.1160 O   0  0  0  0  0  0  0  0  0  0  0  0
  2  3  1  0
  2  1  1  0
  3  4  1  1
  5  3  1  0
  5  6  1  6
  7  9  1  0
  7  5  1  0
  8  7  2  0
 10 11  1  1
 10  9  1  0
 11 12  1  0
 12 13  1  0
 13 14  1  0
 14 15  1  0
 16 10  1  0
 16 17  2  0
 19 20  1  0
 19 18  1  0
 20 21  1  0
 22 21  1  6
 22 24  1  0
 22 23  1  0
 23 16  1  0
 24 25  1  0
 26 24  2  0
M  END
$$$$
