IKM.pdb
     RDKit          3D

 26 25  0  0  1  0  0  0  0  0999 V2000
   30.2843  -22.0179  -17.9309 C   0  0  0  0  0  0  0  0  0  0  0  0
   28.9532  -21.3591  -17.9035 C   0  0  0  0  0  0  0  0  0  0  0  0
   28.5256  -20.8896  -16.5262 C   0  0  2  0  0  0  0  0  0  0  0  0
   28.3378  -22.0142  -15.5709 C   0  0  0  0  0  0  0  0  0  0  0  0
   27.1535  -20.2358  -16.7707 C   0  0  2  0  0  0  0  0  0  0  0  0
   27.4127  -19.0037  -17.5424 N   0  0  0  0  0  0  0  0  0  0  0  0
   26.4973  -19.7980  -15.5309 C   0  0  0  0  0  0  0  0  0  0  0  0
   26.9053  -18.7334  -14.9546 O   0  0  0  0  0  0  0  0  0  0  0  0
   25.4180  -20.4428  -14.8722 N   0  0  0  0  0  0  0  0  0  0  0  0
   24.7756  -19.8863  -13.6981 C   0  0  1  0  0  0  0  0  0  0  0  0
   23.2704  -20.0522  -13.7329 C   0  0  0  0  0  0  0  0  0  0  0  0
   22.6599  -18.8993  -14.4583 C   0  0  0  0  0  0  0  0  0  0  0  0
   22.1333  -19.3468  -15.7803 C   0  0  0  0  0  0  0  0  0  0  0  0
   21.6296  -18.2000  -16.5923 C   0  0  0  0  0  0  0  0  0  0  0  0
   21.0787  -18.7143  -17.8585 N   0  0  0  0  0  0  0  0  0  0  0  0
   25.2677  -20.6244  -12.4861 C   0  0  0  0  0  0  0  0  0  0  0  0
   25.4367  -21.8609  -12.5932 O   0  0  0  0  0  0  0  0  0  0  0  0
   28.7155  -18.4795   -7.4519 C   0  0  0  0  0  0  0  0  0  0  0  0
   27.6947  -19.7082   -6.5978 S   0  0  0  0  0  0  0  0  0  0  0  0
   26.7026  -20.6601   -7.7494 C   0  0  0  0  0  0  0  0  0  0  0  0
   26.5679  -20.0811   -9.1002 C   0  0  0  0  0  0  0  0  0  0  0  0
   25.7257  -20.8423  -10.0453 C   0  0  2  0  0  0  0  0  0  0  0  0
   25.5370  -19.9948  -11.2728 N   0  0  0  0  0  0  0  0  0  0  0  0
   24.4104  -21.2146   -9.5477 C   0  0  0  0  0  0  0  0  0  0  0  0
   24.2690  -22.3349   -8.7162 O   0  0  0  0  0  0  0  0  0  0  0  0
   23.3777  -20.5960   -9.8134 O   0  0  0  0  0  0  0  0  0  0  0  0
  2  3  1  0
  2  1  1  0
  3  4  1  1
  5  3  1  0
  5  6  1  6
  7  9  1  0
  7  5  1  0
  8  7  2  0
 10 11  1  6
 10  9  1  0
 11 12  1  0
 12 13  1  0
 13 14  1  0
 14 15  1  0
 16 10  1  0
 16 17  2  0
 19 20  1  0
 19 18  1  0
 20 21  1  0
 22 21  1  1
 22 24  1  0
 22 23  1  0
 23 16  1  0
 24 25  1  0
 26 24  2  0
M  END
$$$$
