IKM.pdb
     RDKit          3D

 26 25  0  0  1  0  0  0  0  0999 V2000
   16.4481  -17.3304  -23.2960 C   0  0  0  0  0  0  0  0  0  0  0  0
   17.3606  -16.2164  -22.9309 C   0  0  0  0  0  0  0  0  0  0  0  0
   17.3246  -15.8461  -21.4607 C   0  0  2  0  0  0  0  0  0  0  0  0
   16.0319  -15.2308  -21.0569 C   0  0  0  0  0  0  0  0  0  0  0  0
   18.4256  -14.7789  -21.3236 C   0  0  2  0  0  0  0  0  0  0  0  0
   19.7023  -15.4598  -21.6186 N   0  0  0  0  0  0  0  0  0  0  0  0
   18.5572  -14.2626  -19.9542 C   0  0  0  0  0  0  0  0  0  0  0  0
   17.5785  -13.6287  -19.4325 O   0  0  0  0  0  0  0  0  0  0  0  0
   19.6883  -14.3924  -19.1067 N   0  0  0  0  0  0  0  0  0  0  0  0
   19.6909  -13.9317  -17.7324 C   0  0  1  0  0  0  0  0  0  0  0  0
   20.9841  -14.2635  -17.0169 C   0  0  0  0  0  0  0  0  0  0  0  0
   20.6848  -15.0731  -15.7991 C   0  0  0  0  0  0  0  0  0  0  0  0
   20.4071  -16.4884  -16.1804 C   0  0  0  0  0  0  0  0  0  0  0  0
   20.0406  -17.3189  -14.9956 C   0  0  0  0  0  0  0  0  0  0  0  0
   19.5644  -18.6337  -15.4604 N   0  0  0  0  0  0  0  0  0  0  0  0
   19.5613  -12.4353  -17.7273 C   0  0  0  0  0  0  0  0  0  0  0  0
   20.2364  -11.7952  -18.5658 O   0  0  0  0  0  0  0  0  0  0  0  0
   15.5103   -6.1786  -18.7498 C   0  0  0  0  0  0  0  0  0  0  0  0
   15.7939   -7.9676  -18.7665 S   0  0  0  0  0  0  0  0  0  0  0  0
   17.2051   -8.4234  -17.7577 C   0  0  0  0  0  0  0  0  0  0  0  0
   17.4987   -9.8682  -17.6933 C   0  0  0  0  0  0  0  0  0  0  0  0
   18.6906  -10.2479  -16.9076 C   0  0  2  0  0  0  0  0  0  0  0  0
   18.7336  -11.7493  -16.8409 N   0  0  0  0  0  0  0  0  0  0  0  0
   18.7298   -9.7347  -15.5469 C   0  0  0  0  0  0  0  0  0  0  0  0
   19.0204   -8.3820  -15.3182 O   0  0  0  0  0  0  0  0  0  0  0  0
   18.5193  -10.4261  -14.5482 O   0  0  0  0  0  0  0  0  0  0  0  0
  2  3  1  0
  2  1  1  0
  3  4  1  6
  5  3  1  0
  5  6  1  1
  7  9  1  0
  7  5  1  0
  8  7  2  0
 10 11  1  6
 10  9  1  0
 11 12  1  0
 12 13  1  0
 13 14  1  0
 14 15  1  0
 16 10  1  0
 16 17  2  0
 19 20  1  0
 19 18  1  0
 20 21  1  0
 22 21  1  1
 22 24  1  0
 22 23  1  0
 23 16  1  0
 24 25  1  0
 26 24  2  0
M  END
$$$$
