IKM.pdb
     RDKit          3D

 26 25  0  0  1  0  0  0  0  0999 V2000
   37.7674  -11.0032  -14.7893 C   0  0  0  0  0  0  0  0  0  0  0  0
   39.0314  -11.2860  -14.0620 C   0  0  0  0  0  0  0  0  0  0  0  0
   39.0870  -10.6918  -12.6678 C   0  0  2  0  0  0  0  0  0  0  0  0
   38.9908   -9.2074  -12.6739 C   0  0  0  0  0  0  0  0  0  0  0  0
   40.4880  -11.0779  -12.1595 C   0  0  2  0  0  0  0  0  0  0  0  0
   40.4969  -12.5503  -12.0465 N   0  0  0  0  0  0  0  0  0  0  0  0
   40.7674  -10.5735  -10.8080 C   0  0  0  0  0  0  0  0  0  0  0  0
   40.0515  -10.9822   -9.8321 O   0  0  0  0  0  0  0  0  0  0  0  0
   41.7816   -9.6502  -10.4429 N   0  0  0  0  0  0  0  0  0  0  0  0
   41.9223   -9.1379   -9.0943 C   0  0  1  0  0  0  0  0  0  0  0  0
   43.2954   -9.4103   -8.5158 C   0  0  0  0  0  0  0  0  0  0  0  0
   43.3764   -8.8406   -7.1385 C   0  0  0  0  0  0  0  0  0  0  0  0
   44.6989   -9.1627   -6.5279 C   0  0  0  0  0  0  0  0  0  0  0  0
   44.7653   -8.7413   -5.0976 C   0  0  0  0  0  0  0  0  0  0  0  0
   46.0866   -9.1002   -4.5528 N   0  0  0  0  0  0  0  0  0  0  0  0
   41.7510   -7.6461   -9.1270 C   0  0  0  0  0  0  0  0  0  0  0  0
   42.2957   -7.0236  -10.0675 O   0  0  0  0  0  0  0  0  0  0  0  0
   37.1755   -2.9716  -10.8290 C   0  0  0  0  0  0  0  0  0  0  0  0
   37.3769   -3.4060   -9.0820 S   0  0  0  0  0  0  0  0  0  0  0  0
   39.0915   -3.7414   -8.6769 C   0  0  0  0  0  0  0  0  0  0  0  0
   39.4483   -5.1686   -8.5594 C   0  0  0  0  0  0  0  0  0  0  0  0
   40.8766   -5.4567   -8.3165 C   0  0  2  0  0  0  0  0  0  0  0  0
   41.0226   -6.9457   -8.1677 N   0  0  0  0  0  0  0  0  0  0  0  0
   41.4476   -4.8273   -7.1359 C   0  0  0  0  0  0  0  0  0  0  0  0
   41.9451   -3.5184   -7.2132 O   0  0  0  0  0  0  0  0  0  0  0  0
   41.5283   -5.3798   -6.0369 O   0  0  0  0  0  0  0  0  0  0  0  0
  2  3  1  0
  2  1  1  0
  3  4  1  6
  5  3  1  0
  5  6  1  1
  7  9  1  0
  7  5  1  0
  8  7  2  0
 10 11  1  6
 10  9  1  0
 11 12  1  0
 12 13  1  0
 13 14  1  0
 14 15  1  0
 16 10  1  0
 16 17  2  0
 19 20  1  0
 19 18  1  0
 20 21  1  0
 22 21  1  1
 22 24  1  0
 22 23  1  0
 23 16  1  0
 24 25  1  0
 26 24  2  0
M  END
$$$$
