FTM.pdb
     RDKit          3D

 27 27  0  0  1  0  0  0  0  0999 V2000
   28.9180  -19.3494  -15.5921 N   0  0  0  0  0  0  0  0  0  0  0  0
   27.8022  -18.8897  -14.7927 C   0  0  1  0  0  0  0  0  0  0  0  0
   26.8045  -18.2143  -15.7027 C   0  0  0  0  0  0  0  0  0  0  0  0
   27.3322  -16.9506  -16.2680 C   0  0  0  0  0  0  0  0  0  0  0  0
   27.2960  -15.8158  -15.4525 C   0  0  0  0  0  0  0  0  0  0  0  0
   27.7561  -14.6112  -15.8861 C   0  0  0  0  0  0  0  0  0  0  0  0
   28.2771  -14.4911  -17.1679 C   0  0  0  0  0  0  0  0  0  0  0  0
   28.3132  -15.6158  -17.9769 C   0  0  0  0  0  0  0  0  0  0  0  0
   27.8494  -16.8416  -17.5471 C   0  0  0  0  0  0  0  0  0  0  0  0
   27.2086  -19.9918  -14.0232 C   0  0  0  0  0  0  0  0  0  0  0  0
   27.8531  -20.9729  -13.5834 O   0  0  0  0  0  0  0  0  0  0  0  0
   25.0196  -21.4473  -10.3951 C   0  0  0  0  0  0  0  0  0  0  0  0
   25.7605  -20.5996  -11.4009 C   0  0  1  0  0  0  0  0  0  0  0  0
   27.1079  -21.0294  -11.2933 O   0  0  0  0  0  0  0  0  0  0  0  0
   25.2292  -20.9060  -12.7762 C   0  0  2  0  0  0  0  0  0  0  0  0
   25.8200  -19.9680  -13.7469 N   0  0  0  0  0  0  0  0  0  0  0  0
   23.7777  -20.6789  -12.8115 C   0  0  0  0  0  0  0  0  0  0  0  0
   23.3169  -19.4918  -12.6091 O   0  0  0  0  0  0  0  0  0  0  0  0
   19.7797  -24.5725  -16.1748 C   0  0  0  0  0  0  0  0  0  0  0  0
   18.6149  -23.4517  -15.4075 S   0  0  0  0  0  0  0  0  0  0  0  0
   19.3523  -22.2278  -14.3586 C   0  0  0  0  0  0  0  0  0  0  0  0
   20.7684  -22.3708  -13.9908 C   0  0  0  0  0  0  0  0  0  0  0  0
   21.3781  -21.2704  -13.1865 C   0  0  2  0  0  0  0  0  0  0  0  0
   22.8212  -21.6704  -13.0574 N   0  0  0  0  0  0  0  0  0  0  0  0
   20.8021  -21.1781  -11.8454 C   0  0  0  0  0  0  0  0  0  0  0  0
   21.1123  -21.8696  -10.8657 O   0  0  0  0  0  0  0  0  0  0  0  0
   19.7985  -20.2210  -11.6184 O   0  0  0  0  0  0  0  0  0  0  0  0
  2  1  1  6
  2 10  1  0
  3  2  1  0
  3  4  1  0
  4  9  2  0
  5  4  1  0
  5  6  2  0
  6  7  1  0
  7  8  2  0
  9  8  1  0
 10 16  1  0
 11 10  2  0
 13 12  1  1
 13 14  1  0
 15 17  1  0
 15 13  1  0
 15 16  1  6
 17 24  1  0
 18 17  2  0
 19 20  1  0
 20 21  1  0
 23 22  1  6
 22 21  1  0
 23 25  1  0
 24 23  1  0
 25 26  2  0
 25 27  1  0
M  END
$$$$
