FTM.pdb
     RDKit          3D

 27 27  0  0  1  0  0  0  0  0999 V2000
   22.4042  -15.4259  -17.5888 N   0  0  0  0  0  0  0  0  0  0  0  0
   21.2265  -15.8809  -16.8807 C   0  0  1  0  0  0  0  0  0  0  0  0
   20.0033  -15.3729  -17.6056 C   0  0  0  0  0  0  0  0  0  0  0  0
   19.9310  -13.8931  -17.6071 C   0  0  0  0  0  0  0  0  0  0  0  0
   20.3202  -13.2306  -18.7749 C   0  0  0  0  0  0  0  0  0  0  0  0
   20.2897  -11.8737  -18.8688 C   0  0  0  0  0  0  0  0  0  0  0  0
   19.8639  -11.1155  -17.7861 C   0  0  0  0  0  0  0  0  0  0  0  0
   19.4779  -11.7717  -16.6280 C   0  0  0  0  0  0  0  0  0  0  0  0
   19.5051  -13.1467  -16.5223 C   0  0  0  0  0  0  0  0  0  0  0  0
   21.2271  -17.3426  -16.7303 C   0  0  0  0  0  0  0  0  0  0  0  0
   21.8808  -18.1267  -17.4577 O   0  0  0  0  0  0  0  0  0  0  0  0
   22.8908  -19.4246  -15.2921 C   0  0  0  0  0  0  0  0  0  0  0  0
   21.5950  -19.7603  -14.5941 C   0  0  1  0  0  0  0  0  0  0  0  0
   21.5954  -18.9327  -13.4421 O   0  0  0  0  0  0  0  0  0  0  0  0
   20.4489  -19.3876  -15.4969 C   0  0  2  0  0  0  0  0  0  0  0  0
   20.4465  -17.9288  -15.7045 N   0  0  0  0  0  0  0  0  0  0  0  0
   19.1736  -19.7152  -14.8442 C   0  0  0  0  0  0  0  0  0  0  0  0
   18.4608  -18.7689  -14.3353 O   0  0  0  0  0  0  0  0  0  0  0  0
   14.4076  -20.1755  -17.7649 C   0  0  0  0  0  0  0  0  0  0  0  0
   13.7874  -20.1016  -16.0881 S   0  0  0  0  0  0  0  0  0  0  0  0
   14.9196  -20.6897  -14.8576 C   0  0  0  0  0  0  0  0  0  0  0  0
   16.3625  -20.5284  -15.0881 C   0  0  0  0  0  0  0  0  0  0  0  0
   17.2856  -21.1812  -14.1129 C   0  0  2  0  0  0  0  0  0  0  0  0
   18.6465  -21.0062  -14.7265 N   0  0  0  0  0  0  0  0  0  0  0  0
   17.0225  -22.6129  -13.9721 C   0  0  0  0  0  0  0  0  0  0  0  0
   17.5781  -23.5250  -14.5996 O   0  0  0  0  0  0  0  0  0  0  0  0
   16.0510  -23.0212  -13.0425 O   0  0  0  0  0  0  0  0  0  0  0  0
  2  1  1  6
  2 10  1  0
  3  2  1  0
  3  4  1  0
  4  9  2  0
  5  4  1  0
  5  6  2  0
  6  7  1  0
  7  8  2  0
  9  8  1  0
 10 16  1  0
 11 10  2  0
 13 12  1  6
 13 14  1  0
 15 17  1  0
 15 13  1  0
 15 16  1  1
 17 24  1  0
 18 17  2  0
 19 20  1  0
 20 21  1  0
 23 22  1  6
 22 21  1  0
 23 25  1  0
 24 23  1  0
 25 26  2  0
 25 27  1  0
M  END
$$$$
