FTM.pdb
     RDKit          3D

 27 27  0  0  1  0  0  0  0  0999 V2000
   21.5976  -11.9804  -16.1297 N   0  0  0  0  0  0  0  0  0  0  0  0
   22.0970  -10.6453  -15.8777 C   0  0  1  0  0  0  0  0  0  0  0  0
   22.9963  -10.2441  -17.0223 C   0  0  0  0  0  0  0  0  0  0  0  0
   24.1261  -11.1859  -17.1997 C   0  0  0  0  0  0  0  0  0  0  0  0
   24.1810  -11.9079  -18.3954 C   0  0  0  0  0  0  0  0  0  0  0  0
   25.1797  -12.7971  -18.6464 C   0  0  0  0  0  0  0  0  0  0  0  0
   26.1756  -13.0027  -17.7006 C   0  0  0  0  0  0  0  0  0  0  0  0
   26.1217  -12.2873  -16.5148 C   0  0  0  0  0  0  0  0  0  0  0  0
   25.1138  -11.3836  -16.2505 C   0  0  0  0  0  0  0  0  0  0  0  0
   20.9956   -9.6960  -15.6658 C   0  0  0  0  0  0  0  0  0  0  0  0
   19.8500   -9.8227  -16.1585 O   0  0  0  0  0  0  0  0  0  0  0  0
   19.1012   -8.9491  -12.8737 C   0  0  0  0  0  0  0  0  0  0  0  0
   19.7430   -7.6147  -13.1683 C   0  0  1  0  0  0  0  0  0  0  0  0
   20.9002   -7.5961  -12.3483 O   0  0  0  0  0  0  0  0  0  0  0  0
   20.1389   -7.5787  -14.6207 C   0  0  2  0  0  0  0  0  0  0  0  0
   21.2167   -8.5555  -14.8562 N   0  0  0  0  0  0  0  0  0  0  0  0
   20.6953   -6.2597  -14.9529 C   0  0  0  0  0  0  0  0  0  0  0  0
   21.9224   -6.1683  -15.3379 O   0  0  0  0  0  0  0  0  0  0  0  0
   20.1630   -2.5285  -20.5120 C   0  0  0  0  0  0  0  0  0  0  0  0
   21.4032   -3.3650  -19.5303 S   0  0  0  0  0  0  0  0  0  0  0  0
   21.2862   -3.0676  -17.7869 C   0  0  0  0  0  0  0  0  0  0  0  0
   20.7486   -4.1281  -16.9222 C   0  0  0  0  0  0  0  0  0  0  0  0
   20.6057   -3.8156  -15.4692 C   0  0  2  0  0  0  0  0  0  0  0  0
   19.9850   -5.0557  -14.8895 N   0  0  0  0  0  0  0  0  0  0  0  0
   19.7022   -2.6908  -15.2294 C   0  0  0  0  0  0  0  0  0  0  0  0
   18.4759   -2.7578  -15.0679 O   0  0  0  0  0  0  0  0  0  0  0  0
   20.2515   -1.3987  -15.1716 O   0  0  0  0  0  0  0  0  0  0  0  0
  2  1  1  6
  2 10  1  0
  3  2  1  0
  3  4  1  0
  4  9  2  0
  5  4  1  0
  5  6  2  0
  6  7  1  0
  7  8  2  0
  9  8  1  0
 10 16  1  0
 11 10  2  0
 13 12  1  6
 13 14  1  0
 15 17  1  0
 15 13  1  0
 15 16  1  1
 17 24  1  0
 18 17  2  0
 19 20  1  0
 20 21  1  0
 23 22  1  6
 22 21  1  0
 23 25  1  0
 24 23  1  0
 25 26  2  0
 25 27  1  0
M  END
$$$$
