FTM.pdb
     RDKit          3D

 27 27  0  0  1  0  0  0  0  0999 V2000
   29.7938  -26.7925  -17.2411 N   0  0  0  0  0  0  0  0  0  0  0  0
   28.3733  -26.9727  -17.4534 C   0  0  1  0  0  0  0  0  0  0  0  0
   28.0228  -28.4129  -17.1656 C   0  0  0  0  0  0  0  0  0  0  0  0
   28.6148  -29.3395  -18.1585 C   0  0  0  0  0  0  0  0  0  0  0  0
   29.7453  -30.0638  -17.7695 C   0  0  0  0  0  0  0  0  0  0  0  0
   30.3585  -30.9365  -18.6140 C   0  0  0  0  0  0  0  0  0  0  0  0
   29.8603  -31.1224  -19.8969 C   0  0  0  0  0  0  0  0  0  0  0  0
   28.7395  -30.4045  -20.2833 C   0  0  0  0  0  0  0  0  0  0  0  0
   28.1104  -29.5174  -19.4350 C   0  0  0  0  0  0  0  0  0  0  0  0
   27.5900  -26.0286  -16.6444 C   0  0  0  0  0  0  0  0  0  0  0  0
   28.0718  -25.0272  -16.0645 O   0  0  0  0  0  0  0  0  0  0  0  0
   24.6895  -24.2887  -18.0025 C   0  0  0  0  0  0  0  0  0  0  0  0
   25.3318  -23.9779  -16.6720 C   0  0  1  0  0  0  0  0  0  0  0  0
   24.4703  -23.0158  -16.0855 O   0  0  0  0  0  0  0  0  0  0  0  0
   25.3484  -25.2320  -15.8386 C   0  0  2  0  0  0  0  0  0  0  0  0
   26.1982  -26.2416  -16.4943 N   0  0  0  0  0  0  0  0  0  0  0  0
   23.9970  -25.8061  -15.7753 C   0  0  0  0  0  0  0  0  0  0  0  0
   23.5076  -26.3908  -16.8150 O   0  0  0  0  0  0  0  0  0  0  0  0
   21.7909  -28.1248  -10.1580 C   0  0  0  0  0  0  0  0  0  0  0  0
   20.3299  -28.2897  -11.1778 S   0  0  0  0  0  0  0  0  0  0  0  0
   20.5355  -27.7462  -12.8523 C   0  0  0  0  0  0  0  0  0  0  0  0
   21.7190  -26.9449  -13.1964 C   0  0  0  0  0  0  0  0  0  0  0  0
   21.9232  -26.6154  -14.6383 C   0  0  2  0  0  0  0  0  0  0  0  0
   23.1698  -25.7757  -14.6469 N   0  0  0  0  0  0  0  0  0  0  0  0
   20.8257  -25.8193  -15.1868 C   0  0  0  0  0  0  0  0  0  0  0  0
   20.7183  -24.5864  -15.1357 O   0  0  0  0  0  0  0  0  0  0  0  0
   19.7793  -26.4923  -15.8401 O   0  0  0  0  0  0  0  0  0  0  0  0
  2  1  1  1
  2 10  1  0
  3  2  1  0
  3  4  1  0
  4  9  2  0
  5  4  1  0
  5  6  2  0
  6  7  1  0
  7  8  2  0
  9  8  1  0
 10 16  1  0
 11 10  2  0
 13 12  1  6
 13 14  1  0
 15 17  1  0
 15 13  1  0
 15 16  1  6
 17 24  1  0
 18 17  2  0
 19 20  1  0
 20 21  1  0
 23 22  1  1
 22 21  1  0
 23 25  1  0
 24 23  1  0
 25 26  2  0
 25 27  1  0
M  END
$$$$
