FTM.pdb
     RDKit          3D

 27 27  0  0  1  0  0  0  0  0999 V2000
   25.4490  -18.2658  -15.8153 N   0  0  0  0  0  0  0  0  0  0  0  0
   26.2808  -18.5821  -14.6735 C   0  0  1  0  0  0  0  0  0  0  0  0
   27.1303  -17.3767  -14.3487 C   0  0  0  0  0  0  0  0  0  0  0  0
   28.0916  -17.0643  -15.4318 C   0  0  0  0  0  0  0  0  0  0  0  0
   27.8707  -15.8997  -16.1728 C   0  0  0  0  0  0  0  0  0  0  0  0
   28.6988  -15.5326  -17.1878 C   0  0  0  0  0  0  0  0  0  0  0  0
   29.7942  -16.3244  -17.5068 C   0  0  0  0  0  0  0  0  0  0  0  0
   30.0138  -17.4791  -16.7726 C   0  0  0  0  0  0  0  0  0  0  0  0
   29.1805  -17.8604  -15.7417 C   0  0  0  0  0  0  0  0  0  0  0  0
   25.4705  -19.0260  -13.5309 C   0  0  0  0  0  0  0  0  0  0  0  0
   24.2172  -19.0189  -13.5094 O   0  0  0  0  0  0  0  0  0  0  0  0
   23.8136  -21.0594  -12.9529 C   0  0  0  0  0  0  0  0  0  0  0  0
   24.7344  -21.4118  -11.8095 C   0  0  1  0  0  0  0  0  0  0  0  0
   25.7253  -22.2360  -12.4016 O   0  0  0  0  0  0  0  0  0  0  0  0
   25.3608  -20.1466  -11.2857 C   0  0  2  0  0  0  0  0  0  0  0  0
   26.1236  -19.4970  -12.3662 N   0  0  0  0  0  0  0  0  0  0  0  0
   26.3311  -20.4708  -10.2307 C   0  0  0  0  0  0  0  0  0  0  0  0
   27.3235  -21.2488  -10.4998 O   0  0  0  0  0  0  0  0  0  0  0  0
   30.2057  -18.3145   -5.4029 C   0  0  0  0  0  0  0  0  0  0  0  0
   28.9480  -19.2976   -4.5946 S   0  0  0  0  0  0  0  0  0  0  0  0
   28.0781  -20.4078   -5.6682 C   0  0  0  0  0  0  0  0  0  0  0  0
   27.5924  -19.9065   -6.9620 C   0  0  0  0  0  0  0  0  0  0  0  0
   26.8010  -20.8510   -7.8052 C   0  0  2  0  0  0  0  0  0  0  0  0
   26.2721  -19.9900   -8.9178 N   0  0  0  0  0  0  0  0  0  0  0  0
   25.6651  -21.4221   -7.0825 C   0  0  0  0  0  0  0  0  0  0  0  0
   24.4772  -21.0947   -7.2084 O   0  0  0  0  0  0  0  0  0  0  0  0
   25.9169  -22.4425   -6.1496 O   0  0  0  0  0  0  0  0  0  0  0  0
  2  1  1  6
  2 10  1  0
  3  2  1  0
  3  4  1  0
  4  9  2  0
  5  4  1  0
  5  6  2  0
  6  7  1  0
  7  8  2  0
  9  8  1  0
 10 16  1  0
 11 10  2  0
 13 12  1  6
 13 14  1  0
 15 17  1  0
 15 13  1  0
 15 16  1  6
 17 24  1  0
 18 17  2  0
 19 20  1  0
 20 21  1  0
 23 22  1  1
 22 21  1  0
 23 25  1  0
 24 23  1  0
 25 26  2  0
 25 27  1  0
M  END
$$$$
