FTM.pdb
     RDKit          3D

 27 27  0  0  1  0  0  0  0  0999 V2000
   27.9367  -22.1895  -11.0705 N   0  0  0  0  0  0  0  0  0  0  0  0
   26.8413  -21.2555  -10.9175 C   0  0  1  0  0  0  0  0  0  0  0  0
   27.3771  -19.9811  -10.3103 C   0  0  0  0  0  0  0  0  0  0  0  0
   27.8539  -20.1829   -8.9221 C   0  0  0  0  0  0  0  0  0  0  0  0
   26.9456  -19.9404   -7.8876 C   0  0  0  0  0  0  0  0  0  0  0  0
   27.2938  -20.0967   -6.5818 C   0  0  0  0  0  0  0  0  0  0  0  0
   28.5794  -20.5066   -6.2537 C   0  0  0  0  0  0  0  0  0  0  0  0
   29.4805  -20.7472   -7.2788 C   0  0  0  0  0  0  0  0  0  0  0  0
   29.1378  -20.5918   -8.6058 C   0  0  0  0  0  0  0  0  0  0  0  0
   26.1545  -21.0262  -12.1962 C   0  0  0  0  0  0  0  0  0  0  0  0
   26.7282  -20.9983  -13.3104 O   0  0  0  0  0  0  0  0  0  0  0  0
   25.5597  -22.2678  -14.5598 C   0  0  0  0  0  0  0  0  0  0  0  0
   24.1118  -22.0234  -14.2091 C   0  0  1  0  0  0  0  0  0  0  0  0
   23.7745  -23.1012  -13.3510 O   0  0  0  0  0  0  0  0  0  0  0  0
   24.0083  -20.7188  -13.4643 C   0  0  2  0  0  0  0  0  0  0  0  0
   24.7535  -20.8207  -12.1972 N   0  0  0  0  0  0  0  0  0  0  0  0
   22.6076  -20.4619  -13.1015 C   0  0  0  0  0  0  0  0  0  0  0  0
   22.1343  -20.9588  -12.0099 O   0  0  0  0  0  0  0  0  0  0  0  0
   16.6263  -15.3420  -13.9925 C   0  0  0  0  0  0  0  0  0  0  0  0
   18.1579  -16.0562  -14.5806 S   0  0  0  0  0  0  0  0  0  0  0  0
   18.6771  -17.5078  -13.7060 C   0  0  0  0  0  0  0  0  0  0  0  0
   19.9709  -18.1160  -14.0485 C   0  0  0  0  0  0  0  0  0  0  0  0
   20.3964  -19.3060  -13.2535 C   0  0  2  0  0  0  0  0  0  0  0  0
   21.7147  -19.6970  -13.8605 N   0  0  0  0  0  0  0  0  0  0  0  0
   19.4705  -20.4290  -13.3962 C   0  0  0  0  0  0  0  0  0  0  0  0
   18.4913  -20.6673  -12.6759 O   0  0  0  0  0  0  0  0  0  0  0  0
   19.6890  -21.3407  -14.4431 O   0  0  0  0  0  0  0  0  0  0  0  0
  2  1  1  6
  2 10  1  0
  3  2  1  0
  3  4  1  0
  4  9  2  0
  5  4  1  0
  5  6  2  0
  6  7  1  0
  7  8  2  0
  9  8  1  0
 10 16  1  0
 11 10  2  0
 13 12  1  1
 13 14  1  0
 15 17  1  0
 15 13  1  0
 15 16  1  1
 17 24  1  0
 18 17  2  0
 19 20  1  0
 20 21  1  0
 23 22  1  6
 22 21  1  0
 23 25  1  0
 24 23  1  0
 25 26  2  0
 25 27  1  0
M  END
$$$$
