FTM.pdb
     RDKit          3D

 27 27  0  0  1  0  0  0  0  0999 V2000
   22.9135  -20.3240  -13.4055 N   0  0  0  0  0  0  0  0  0  0  0  0
   21.7415  -20.3401  -12.5559 C   0  0  1  0  0  0  0  0  0  0  0  0
   20.5367  -20.6684  -13.4047 C   0  0  0  0  0  0  0  0  0  0  0  0
   20.4086  -19.7577  -14.5663 C   0  0  0  0  0  0  0  0  0  0  0  0
   19.9171  -18.4715  -14.3252 C   0  0  0  0  0  0  0  0  0  0  0  0
   19.7630  -17.5671  -15.3298 C   0  0  0  0  0  0  0  0  0  0  0  0
   20.0981  -17.9164  -16.6314 C   0  0  0  0  0  0  0  0  0  0  0  0
   20.5854  -19.1914  -16.8712 C   0  0  0  0  0  0  0  0  0  0  0  0
   20.7454  -20.1158  -15.8601 C   0  0  0  0  0  0  0  0  0  0  0  0
   21.9112  -21.2718  -11.4323 C   0  0  0  0  0  0  0  0  0  0  0  0
   22.6283  -22.2992  -11.4695 O   0  0  0  0  0  0  0  0  0  0  0  0
   23.4757  -20.6545   -8.3837 C   0  0  0  0  0  0  0  0  0  0  0  0
   22.0879  -21.0539   -7.9434 C   0  0  1  0  0  0  0  0  0  0  0  0
   21.4022  -19.8215   -7.7925 O   0  0  0  0  0  0  0  0  0  0  0  0
   21.4497  -21.8692   -9.0367 C   0  0  2  0  0  0  0  0  0  0  0  0
   21.2310  -21.0149  -10.2172 N   0  0  0  0  0  0  0  0  0  0  0  0
   20.1218  -22.3280   -8.6057 C   0  0  0  0  0  0  0  0  0  0  0  0
   19.0704  -21.8633   -9.1898 O   0  0  0  0  0  0  0  0  0  0  0  0
   16.9891  -25.8937  -11.2724 C   0  0  0  0  0  0  0  0  0  0  0  0
   16.4070  -26.4146   -9.6625 S   0  0  0  0  0  0  0  0  0  0  0  0
   16.8651  -25.3387   -8.3304 C   0  0  0  0  0  0  0  0  0  0  0  0
   18.1874  -24.6971   -8.3610 C   0  0  0  0  0  0  0  0  0  0  0  0
   18.4799  -23.6878   -7.3004 C   0  0  2  0  0  0  0  0  0  0  0  0
   19.8917  -23.2583   -7.5859 N   0  0  0  0  0  0  0  0  0  0  0  0
   18.4347  -24.2646   -5.9573 C   0  0  0  0  0  0  0  0  0  0  0  0
   19.4072  -24.6389   -5.2877 O   0  0  0  0  0  0  0  0  0  0  0  0
   17.1802  -24.4204   -5.3435 O   0  0  0  0  0  0  0  0  0  0  0  0
  2  1  1  6
  2 10  1  0
  3  2  1  0
  3  4  1  0
  4  9  2  0
  5  4  1  0
  5  6  2  0
  6  7  1  0
  7  8  2  0
  9  8  1  0
 10 16  1  0
 11 10  2  0
 13 12  1  6
 13 14  1  0
 15 17  1  0
 15 13  1  0
 15 16  1  6
 17 24  1  0
 18 17  2  0
 19 20  1  0
 20 21  1  0
 23 22  1  6
 22 21  1  0
 23 25  1  0
 24 23  1  0
 25 26  2  0
 25 27  1  0
M  END
$$$$
