FTM.pdb
     RDKit          3D

 27 27  0  0  1  0  0  0  0  0999 V2000
   26.1563  -10.3375  -19.0438 N   0  0  0  0  0  0  0  0  0  0  0  0
   25.8236   -9.6000  -17.8434 C   0  0  1  0  0  0  0  0  0  0  0  0
   26.5895   -8.2988  -17.8505 C   0  0  0  0  0  0  0  0  0  0  0  0
   28.0355   -8.5048  -18.0988 C   0  0  0  0  0  0  0  0  0  0  0  0
   28.7546   -9.2347  -17.1478 C   0  0  0  0  0  0  0  0  0  0  0  0
   30.0866   -9.4726  -17.2895 C   0  0  0  0  0  0  0  0  0  0  0  0
   30.7614   -8.9846  -18.4008 C   0  0  0  0  0  0  0  0  0  0  0  0
   30.0491   -8.2609  -19.3440 C   0  0  0  0  0  0  0  0  0  0  0  0
   28.6987   -8.0140  -19.2100 C   0  0  0  0  0  0  0  0  0  0  0  0
   24.3725   -9.4002  -17.7263 C   0  0  0  0  0  0  0  0  0  0  0  0
   23.5606   -9.5532  -18.6690 O   0  0  0  0  0  0  0  0  0  0  0  0
   22.4234  -11.0596  -14.9811 C   0  0  0  0  0  0  0  0  0  0  0  0
   22.0465   -9.5984  -14.9366 C   0  0  1  0  0  0  0  0  0  0  0  0
   22.8807   -9.0541  -13.9268 O   0  0  0  0  0  0  0  0  0  0  0  0
   22.3727   -8.9742  -16.2676 C   0  0  2  0  0  0  0  0  0  0  0  0
   23.8307   -9.0092  -16.4779 N   0  0  0  0  0  0  0  0  0  0  0  0
   21.9892   -7.5555  -16.2599 C   0  0  0  0  0  0  0  0  0  0  0  0
   22.8282   -6.6746  -15.8327 O   0  0  0  0  0  0  0  0  0  0  0  0
   17.2635   -1.7967  -18.9116 C   0  0  0  0  0  0  0  0  0  0  0  0
   17.9520   -3.4438  -19.0332 S   0  0  0  0  0  0  0  0  0  0  0  0
   19.0431   -3.8856  -17.7081 C   0  0  0  0  0  0  0  0  0  0  0  0
   19.5708   -5.2565  -17.6525 C   0  0  0  0  0  0  0  0  0  0  0  0
   20.4447   -5.6039  -16.4928 C   0  0  2  0  0  0  0  0  0  0  0  0
   20.7540   -7.0610  -16.6935 N   0  0  0  0  0  0  0  0  0  0  0  0
   19.7553   -5.4497  -15.2122 C   0  0  0  0  0  0  0  0  0  0  0  0
   19.1577   -6.3387  -14.5903 O   0  0  0  0  0  0  0  0  0  0  0  0
   19.7556   -4.1817  -14.6066 O   0  0  0  0  0  0  0  0  0  0  0  0
  2  1  1  6
  2 10  1  0
  3  2  1  0
  3  4  1  0
  4  9  2  0
  5  4  1  0
  5  6  2  0
  6  7  1  0
  7  8  2  0
  9  8  1  0
 10 16  1  0
 11 10  2  0
 13 12  1  6
 13 14  1  0
 15 17  1  0
 15 13  1  0
 15 16  1  1
 17 24  1  0
 18 17  2  0
 19 20  1  0
 20 21  1  0
 23 22  1  6
 22 21  1  0
 23 25  1  0
 24 23  1  0
 25 26  2  0
 25 27  1  0
M  END
$$$$
