IDV.pdb
     RDKit          3D

 24 23  0  0  1  0  0  0  0  0999 V2000
   15.3343  -14.0751  -18.4767 C   0  0  0  0  0  0  0  0  0  0  0  0
   16.8007  -13.8311  -18.2025 C   0  0  0  0  0  0  0  0  0  0  0  0
   17.0796  -12.6306  -17.3836 C   0  0  2  0  0  0  0  0  0  0  0  0
   16.4922  -11.3991  -17.9850 C   0  0  0  0  0  0  0  0  0  0  0  0
   18.5693  -12.4653  -17.0737 C   0  0  2  0  0  0  0  0  0  0  0  0
   19.0641  -13.6470  -16.3914 N   0  0  0  0  0  0  0  0  0  0  0  0
   18.7817  -11.3148  -16.1507 C   0  0  0  0  0  0  0  0  0  0  0  0
   18.4279  -11.4351  -14.9648 O   0  0  0  0  0  0  0  0  0  0  0  0
   19.3665  -10.1109  -16.5961 N   0  0  0  0  0  0  0  0  0  0  0  0
   19.5570   -8.9658  -15.6863 C   0  0  1  0  0  0  0  0  0  0  0  0
   21.0075   -8.7162  -15.4634 C   0  0  0  0  0  0  0  0  0  0  0  0
   21.3526   -7.5355  -14.6572 C   0  0  0  0  0  0  0  0  0  0  0  0
   22.0187   -6.6011  -15.1748 O   0  0  0  0  0  0  0  0  0  0  0  0
   18.7447   -7.8343  -16.1479 C   0  0  0  0  0  0  0  0  0  0  0  0
   18.9172   -7.4253  -17.3699 O   0  0  0  0  0  0  0  0  0  0  0  0
   20.9843   -7.3733  -13.3265 O   0  0  0  0  0  0  0  0  0  0  0  0
   14.9668   -7.2429  -16.3393 C   0  0  0  0  0  0  0  0  0  0  0  0
   15.5563   -6.0202  -15.6604 C   0  0  1  0  0  0  0  0  0  0  0  0
   15.1002   -5.9476  -14.2326 C   0  0  0  0  0  0  0  0  0  0  0  0
   17.0371   -5.9634  -15.8485 C   0  0  2  0  0  0  0  0  0  0  0  0
   17.7743   -7.1136  -15.4455 N   0  0  0  0  0  0  0  0  0  0  0  0
   17.6083   -4.6324  -15.5336 C   0  0  0  0  0  0  0  0  0  0  0  0
   17.2779   -3.4841  -16.1656 O   0  0  0  0  0  0  0  0  0  0  0  0
   18.4542   -4.6089  -14.6020 O   0  0  0  0  0  0  0  0  0  0  0  0
  1  2  1  0
  2  3  1  0
  3  5  1  0
  3  4  1  6
  5  7  1  0
  5  6  1  1
  7  8  2  0
  9 10  1  0
  9  7  1  0
 10 14  1  0
 10 11  1  6
 12 13  2  0
 12 11  1  0
 14 15  2  0
 14 21  1  0
 16 12  1  0
 18 17  1  1
 18 20  1  0
 18 19  1  0
 20 22  1  0
 20 21  1  1
 22 24  2  0
 22 23  1  0
M  END
$$$$
