IDV.pdb
     RDKit          3D

 24 23  0  0  1  0  0  0  0  0999 V2000
   29.0983  -20.7145  -10.4345 C   0  0  0  0  0  0  0  0  0  0  0  0
   28.7989  -20.7844  -11.9145 C   0  0  0  0  0  0  0  0  0  0  0  0
   27.3600  -20.7157  -12.2527 C   0  0  2  0  0  0  0  0  0  0  0  0
   26.5804  -21.7975  -11.5855 C   0  0  0  0  0  0  0  0  0  0  0  0
   27.1138  -20.6766  -13.7628 C   0  0  2  0  0  0  0  0  0  0  0  0
   27.8786  -19.5962  -14.3583 N   0  0  0  0  0  0  0  0  0  0  0  0
   25.6783  -20.3949  -14.0463 C   0  0  0  0  0  0  0  0  0  0  0  0
   25.2391  -19.2579  -13.8007 O   0  0  0  0  0  0  0  0  0  0  0  0
   24.8243  -21.3836  -14.5785 N   0  0  0  0  0  0  0  0  0  0  0  0
   23.4026  -21.1045  -14.8540 C   0  0  1  0  0  0  0  0  0  0  0  0
   22.9714  -21.7924  -16.1017 C   0  0  0  0  0  0  0  0  0  0  0  0
   21.5860  -21.5553  -16.5350 C   0  0  0  0  0  0  0  0  0  0  0  0
   20.8635  -20.7464  -15.8961 O   0  0  0  0  0  0  0  0  0  0  0  0
   22.6119  -21.3533  -13.6432 C   0  0  0  0  0  0  0  0  0  0  0  0
   22.7071  -22.5258  -13.0896 O   0  0  0  0  0  0  0  0  0  0  0  0
   21.0015  -22.1786  -17.6316 O   0  0  0  0  0  0  0  0  0  0  0  0
   20.7285  -18.3936  -10.9531 C   0  0  0  0  0  0  0  0  0  0  0  0
   21.2015  -19.8028  -10.6469 C   0  0  1  0  0  0  0  0  0  0  0  0
   20.6215  -20.2748   -9.3459 C   0  0  0  0  0  0  0  0  0  0  0  0
   20.9617  -20.7133  -11.8066 C   0  0  2  0  0  0  0  0  0  0  0  0
   21.7496  -20.4823  -12.9705 N   0  0  0  0  0  0  0  0  0  0  0  0
   19.5285  -21.0399  -11.9971 C   0  0  0  0  0  0  0  0  0  0  0  0
   18.8323  -20.8145  -13.1337 O   0  0  0  0  0  0  0  0  0  0  0  0
   18.9540  -21.5683  -11.0098 O   0  0  0  0  0  0  0  0  0  0  0  0
  1  2  1  0
  2  3  1  0
  3  5  1  0
  3  4  1  6
  5  7  1  0
  5  6  1  6
  7  8  2  0
  9 10  1  0
  9  7  1  0
 10 14  1  0
 10 11  1  6
 12 13  2  0
 12 11  1  0
 14 15  2  0
 14 21  1  0
 16 12  1  0
 18 17  1  6
 18 20  1  0
 18 19  1  0
 20 22  1  0
 20 21  1  6
 22 24  2  0
 22 23  1  0
M  END
$$$$
