IDV.pdb
     RDKit          3D

 24 23  0  0  1  0  0  0  0  0999 V2000
   29.0860  -17.2079  -16.7079 C   0  0  0  0  0  0  0  0  0  0  0  0
   27.8375  -18.0538  -16.8115 C   0  0  0  0  0  0  0  0  0  0  0  0
   27.1164  -18.2414  -15.5330 C   0  0  2  0  0  0  0  0  0  0  0  0
   28.0116  -18.7659  -14.4621 C   0  0  0  0  0  0  0  0  0  0  0  0
   25.8517  -19.0886  -15.6919 C   0  0  2  0  0  0  0  0  0  0  0  0
   24.9536  -18.4586  -16.6423 N   0  0  0  0  0  0  0  0  0  0  0  0
   25.1186  -19.1725  -14.3973 C   0  0  0  0  0  0  0  0  0  0  0  0
   24.5636  -18.1475  -13.9646 O   0  0  0  0  0  0  0  0  0  0  0  0
   25.0482  -20.3773  -13.6670 N   0  0  0  0  0  0  0  0  0  0  0  0
   24.2502  -20.4819  -12.4310 C   0  0  1  0  0  0  0  0  0  0  0  0
   23.0334  -21.3060  -12.6675 C   0  0  0  0  0  0  0  0  0  0  0  0
   21.7436  -20.6018  -12.6073 C   0  0  0  0  0  0  0  0  0  0  0  0
   21.7174  -19.3721  -12.3393 O   0  0  0  0  0  0  0  0  0  0  0  0
   25.1218  -20.8762  -11.3183 C   0  0  0  0  0  0  0  0  0  0  0  0
   25.7596  -22.0044  -11.4209 O   0  0  0  0  0  0  0  0  0  0  0  0
   20.5165  -21.2152  -12.8325 O   0  0  0  0  0  0  0  0  0  0  0  0
   26.2815  -18.4710   -7.7843 C   0  0  0  0  0  0  0  0  0  0  0  0
   26.9833  -19.7172   -8.2918 C   0  0  1  0  0  0  0  0  0  0  0  0
   27.8132  -20.3275   -7.2007 C   0  0  0  0  0  0  0  0  0  0  0  0
   26.0151  -20.6522   -8.9398 C   0  0  2  0  0  0  0  0  0  0  0  0
   25.3820  -20.1893  -10.1287 N   0  0  0  0  0  0  0  0  0  0  0  0
   25.1859  -21.3942   -7.9605 C   0  0  0  0  0  0  0  0  0  0  0  0
   25.6757  -22.1936   -6.9867 O   0  0  0  0  0  0  0  0  0  0  0  0
   23.9419  -21.2399   -8.0720 O   0  0  0  0  0  0  0  0  0  0  0  0
  1  2  1  0
  2  3  1  0
  3  5  1  0
  3  4  1  1
  5  7  1  0
  5  6  1  6
  7  8  2  0
  9 10  1  0
  9  7  1  0
 10 14  1  0
 10 11  1  6
 12 13  2  0
 12 11  1  0
 14 15  2  0
 14 21  1  0
 16 12  1  0
 18 17  1  1
 18 20  1  0
 18 19  1  0
 20 22  1  0
 20 21  1  6
 22 24  2  0
 22 23  1  0
M  END
$$$$
