IDV.pdb
     RDKit          3D

 24 23  0  0  1  0  0  0  0  0999 V2000
   27.7473  -19.7971   -6.4936 C   0  0  0  0  0  0  0  0  0  0  0  0
   27.8839  -20.8018   -7.6148 C   0  0  0  0  0  0  0  0  0  0  0  0
   26.9714  -20.5733   -8.7571 C   0  0  2  0  0  0  0  0  0  0  0  0
   25.5397  -20.6759   -8.3534 C   0  0  0  0  0  0  0  0  0  0  0  0
   27.2968  -21.4679   -9.9555 C   0  0  2  0  0  0  0  0  0  0  0  0
   28.6946  -21.3178  -10.3165 N   0  0  0  0  0  0  0  0  0  0  0  0
   26.4985  -21.0529  -11.1434 C   0  0  0  0  0  0  0  0  0  0  0  0
   26.8020  -19.9935  -11.7190 O   0  0  0  0  0  0  0  0  0  0  0  0
   25.4203  -21.8307  -11.6150 N   0  0  0  0  0  0  0  0  0  0  0  0
   24.6847  -21.4633  -12.8394 C   0  0  1  0  0  0  0  0  0  0  0  0
   24.8260  -22.5293  -13.8688 C   0  0  0  0  0  0  0  0  0  0  0  0
   25.8218  -22.2921  -14.9249 C   0  0  0  0  0  0  0  0  0  0  0  0
   26.2725  -21.1309  -15.1063 O   0  0  0  0  0  0  0  0  0  0  0  0
   23.3224  -21.0487  -12.4855 C   0  0  0  0  0  0  0  0  0  0  0  0
   22.7538  -21.6396  -11.4767 O   0  0  0  0  0  0  0  0  0  0  0  0
   26.3149  -23.2879  -15.7603 O   0  0  0  0  0  0  0  0  0  0  0  0
   20.7306  -18.3126  -14.8210 C   0  0  0  0  0  0  0  0  0  0  0  0
   20.7076  -18.3944  -13.3058 C   0  0  1  0  0  0  0  0  0  0  0  0
   19.3688  -17.9642  -12.7820 C   0  0  0  0  0  0  0  0  0  0  0  0
   21.1631  -19.7365  -12.8338 C   0  0  2  0  0  0  0  0  0  0  0  0
   22.5234  -20.0728  -13.0888 N   0  0  0  0  0  0  0  0  0  0  0  0
   20.1426  -20.7937  -13.0287 C   0  0  0  0  0  0  0  0  0  0  0  0
   19.1493  -21.0748  -12.1561 O   0  0  0  0  0  0  0  0  0  0  0  0
   20.2372  -21.4521  -14.0971 O   0  0  0  0  0  0  0  0  0  0  0  0
  1  2  1  0
  2  3  1  0
  3  5  1  0
  3  4  1  1
  5  7  1  0
  5  6  1  6
  7  8  2  0
  9 10  1  0
  9  7  1  0
 10 14  1  0
 10 11  1  6
 12 13  2  0
 12 11  1  0
 14 15  2  0
 14 21  1  0
 16 12  1  0
 18 17  1  6
 18 20  1  0
 18 19  1  0
 20 22  1  0
 20 21  1  6
 22 24  2  0
 22 23  1  0
M  END
$$$$
