IDV.pdb
     RDKit          3D

 24 23  0  0  1  0  0  0  0  0999 V2000
   16.6026  -14.3562  -18.4999 C   0  0  0  0  0  0  0  0  0  0  0  0
   17.0565  -13.8199  -17.1615 C   0  0  0  0  0  0  0  0  0  0  0  0
   17.6581  -12.4690  -17.2145 C   0  0  2  0  0  0  0  0  0  0  0  0
   18.7919  -12.4034  -18.1806 C   0  0  0  0  0  0  0  0  0  0  0  0
   18.0506  -11.9472  -15.8302 C   0  0  2  0  0  0  0  0  0  0  0  0
   16.9199  -12.0512  -14.9262 N   0  0  0  0  0  0  0  0  0  0  0  0
   18.4112  -10.5032  -15.9043 C   0  0  0  0  0  0  0  0  0  0  0  0
   19.3917  -10.1732  -16.5939 O   0  0  0  0  0  0  0  0  0  0  0  0
   17.6698   -9.5221  -15.2132 N   0  0  0  0  0  0  0  0  0  0  0  0
   17.9933   -8.0881  -15.3321 C   0  0  1  0  0  0  0  0  0  0  0  0
   16.7731   -7.2620  -15.1215 C   0  0  0  0  0  0  0  0  0  0  0  0
   16.9640   -5.8037  -15.1070 C   0  0  0  0  0  0  0  0  0  0  0  0
   17.7497   -5.2703  -15.9333 O   0  0  0  0  0  0  0  0  0  0  0  0
   19.1634   -7.7804  -14.5019 C   0  0  0  0  0  0  0  0  0  0  0  0
   19.0996   -8.0712  -13.2363 O   0  0  0  0  0  0  0  0  0  0  0  0
   16.3194   -4.9484  -14.2207 O   0  0  0  0  0  0  0  0  0  0  0  0
   22.5300   -9.1562  -13.9242 C   0  0  0  0  0  0  0  0  0  0  0  0
   22.7474   -7.7112  -14.3342 C   0  0  1  0  0  0  0  0  0  0  0  0
   23.2839   -7.6430  -15.7340 C   0  0  0  0  0  0  0  0  0  0  0  0
   21.5201   -6.8945  -14.0933 C   0  0  2  0  0  0  0  0  0  0  0  0
   20.3801   -7.2096  -14.8870 N   0  0  0  0  0  0  0  0  0  0  0  0
   21.8179   -5.4628  -13.8511 C   0  0  0  0  0  0  0  0  0  0  0  0
   21.2108   -4.4330  -14.4820 O   0  0  0  0  0  0  0  0  0  0  0  0
   22.7011   -5.2288  -12.9856 O   0  0  0  0  0  0  0  0  0  0  0  0
  1  2  1  0
  2  3  1  0
  3  5  1  0
  3  4  1  6
  5  7  1  0
  5  6  1  1
  7  8  2  0
  9 10  1  0
  9  7  1  0
 10 14  1  0
 10 11  1  1
 12 13  2  0
 12 11  1  0
 14 15  2  0
 14 21  1  0
 16 12  1  0
 18 17  1  6
 18 20  1  0
 18 19  1  0
 20 22  1  0
 20 21  1  6
 22 24  2  0
 22 23  1  0
M  END
$$$$
