FQN.pdb
     RDKit          3D

 29 29  0  0  1  0  0  0  0  0999 V2000
   28.4195  -20.9418   -9.1010 N   0  0  0  0  0  0  0  0  0  0  0  0
   27.0152  -20.8606   -8.8374 C   0  0  1  0  0  0  0  0  0  0  0  0
   26.7470  -19.6971   -7.9051 C   0  0  0  0  0  0  0  0  0  0  0  0
   27.3918  -19.8370   -6.5954 C   0  0  0  0  0  0  0  0  0  0  0  0
   28.3633  -18.9273   -6.2593 C   0  0  0  0  0  0  0  0  0  0  0  0
   29.0607  -18.9290   -5.0611 C   0  0  0  0  0  0  0  0  0  0  0  0
   28.7189  -19.9390   -4.1711 C   0  0  0  0  0  0  0  0  0  0  0  0
   27.7493  -20.8628   -4.4829 C   0  0  0  0  0  0  0  0  0  0  0  0
   27.0737  -20.8294   -5.6899 C   0  0  0  0  0  0  0  0  0  0  0  0
   26.3150  -20.6097  -10.1443 C   0  0  0  0  0  0  0  0  0  0  0  0
   26.4780  -19.5564  -10.8070 O   0  0  0  0  0  0  0  0  0  0  0  0
   25.1903  -24.9004  -14.1019 N   0  0  0  0  0  0  0  0  0  0  0  0
   25.8687  -23.7843  -14.6907 C   0  0  0  0  0  0  0  0  0  0  0  0
   26.5540  -24.0134  -15.7158 O   0  0  0  0  0  0  0  0  0  0  0  0
   25.6983  -22.4770  -14.0379 C   0  0  0  0  0  0  0  0  0  0  0  0
   24.9429  -22.6093  -12.7710 C   0  0  0  0  0  0  0  0  0  0  0  0
   24.7404  -21.3564  -11.9778 C   0  0  2  0  0  0  0  0  0  0  0  0
   25.4192  -21.5739  -10.6981 N   0  0  0  0  0  0  0  0  0  0  0  0
   23.3082  -21.0298  -11.7750 C   0  0  0  0  0  0  0  0  0  0  0  0
   22.9069  -20.6803  -10.6322 O   0  0  0  0  0  0  0  0  0  0  0  0
   19.2113  -18.1094  -11.2988 N   0  0  0  0  0  0  0  0  0  0  0  0
   20.1188  -18.1339  -12.3453 C   0  0  0  0  0  0  0  0  0  0  0  0
   19.8915  -17.3954  -13.3705 O   0  0  0  0  0  0  0  0  0  0  0  0
   21.3305  -18.9464  -12.3655 C   0  0  0  0  0  0  0  0  0  0  0  0
   21.0720  -20.3789  -12.6968 C   0  0  2  0  0  0  0  0  0  0  0  0
   22.3298  -21.0859  -12.8086 N   0  0  0  0  0  0  0  0  0  0  0  0
   20.2375  -20.5885  -13.9026 C   0  0  0  0  0  0  0  0  0  0  0  0
   20.8279  -20.6003  -15.1496 O   0  0  0  0  0  0  0  0  0  0  0  0
   19.0115  -20.7545  -13.7911 O   0  0  0  0  0  0  0  0  0  0  0  0
  2  1  1  6
  2  3  1  0
  3  4  1  0
  4  9  2  0
  5  4  1  0
  5  6  2  0
  6  7  1  0
  7  8  2  0
  9  8  1  0
 10  2  1  0
 10 18  1  0
 11 10  2  0
 13 12  1  0
 13 15  1  0
 14 13  2  0
 16 15  1  0
 17 16  1  6
 17 18  1  0
 19 17  1  0
 20 19  2  0
 21 22  1  0
 22 23  2  0
 22 24  1  0
 25 24  1  6
 25 26  1  0
 25 27  1  0
 26 19  1  0
 27 28  1  0
 29 27  2  0
M  END
$$$$
