FQN.pdb
     RDKit          3D

 29 29  0  0  1  0  0  0  0  0999 V2000
   23.8401  -21.2690   -8.7459 N   0  0  0  0  0  0  0  0  0  0  0  0
   22.8005  -20.9489   -9.6759 C   0  0  1  0  0  0  0  0  0  0  0  0
   22.0797  -19.7002   -9.2111 C   0  0  0  0  0  0  0  0  0  0  0  0
   20.9728  -19.3038  -10.0877 C   0  0  0  0  0  0  0  0  0  0  0  0
   19.9935  -20.2314  -10.3423 C   0  0  0  0  0  0  0  0  0  0  0  0
   18.8881  -20.0060  -11.1482 C   0  0  0  0  0  0  0  0  0  0  0  0
   18.8088  -18.7406  -11.7150 C   0  0  0  0  0  0  0  0  0  0  0  0
   19.7760  -17.7929  -11.4761 C   0  0  0  0  0  0  0  0  0  0  0  0
   20.8663  -18.0544  -10.6653 C   0  0  0  0  0  0  0  0  0  0  0  0
   23.4424  -20.6742  -11.0078 C   0  0  0  0  0  0  0  0  0  0  0  0
   24.4236  -19.9026  -11.1387 O   0  0  0  0  0  0  0  0  0  0  0  0
   25.1751  -24.7353  -14.5485 N   0  0  0  0  0  0  0  0  0  0  0  0
   25.3399  -23.7330  -15.5590 C   0  0  0  0  0  0  0  0  0  0  0  0
   25.9298  -24.0791  -16.6103 O   0  0  0  0  0  0  0  0  0  0  0  0
   24.8030  -22.3947  -15.2682 C   0  0  0  0  0  0  0  0  0  0  0  0
   24.1099  -22.3721  -13.9597 C   0  0  0  0  0  0  0  0  0  0  0  0
   23.5786  -21.0486  -13.5057 C   0  0  2  0  0  0  0  0  0  0  0  0
   22.9564  -21.2885  -12.2015 N   0  0  0  0  0  0  0  0  0  0  0  0
   22.6090  -20.4602  -14.4610 C   0  0  0  0  0  0  0  0  0  0  0  0
   22.9934  -20.1413  -15.6185 O   0  0  0  0  0  0  0  0  0  0  0  0
   20.8242  -19.6035  -18.8299 N   0  0  0  0  0  0  0  0  0  0  0  0
   21.0939  -19.4917  -17.4756 C   0  0  0  0  0  0  0  0  0  0  0  0
   21.8476  -18.5313  -17.0785 O   0  0  0  0  0  0  0  0  0  0  0  0
   20.5748  -20.3962  -16.4553 C   0  0  0  0  0  0  0  0  0  0  0  0
   20.3163  -19.7220  -15.1487 C   0  0  2  0  0  0  0  0  0  0  0  0
   21.2386  -20.2239  -14.1528 N   0  0  0  0  0  0  0  0  0  0  0  0
   18.9171  -19.8222  -14.6732 C   0  0  0  0  0  0  0  0  0  0  0  0
   18.0926  -18.7176  -14.7356 O   0  0  0  0  0  0  0  0  0  0  0  0
   18.4874  -20.8967  -14.2217 O   0  0  0  0  0  0  0  0  0  0  0  0
  2  1  1  1
  2  3  1  0
  3  4  1  0
  4  9  2  0
  5  4  1  0
  5  6  2  0
  6  7  1  0
  7  8  2  0
  9  8  1  0
 10  2  1  0
 10 18  1  0
 11 10  2  0
 13 12  1  0
 13 15  1  0
 14 13  2  0
 16 15  1  0
 17 16  1  6
 17 18  1  0
 19 17  1  0
 20 19  2  0
 21 22  1  0
 22 23  2  0
 22 24  1  0
 25 24  1  6
 25 26  1  0
 25 27  1  0
 26 19  1  0
 27 28  1  0
 29 27  2  0
M  END
$$$$
