FQN.pdb
     RDKit          3D

 29 29  0  0  1  0  0  0  0  0999 V2000
   27.6084  -21.5867  -15.9638 N   0  0  0  0  0  0  0  0  0  0  0  0
   27.0489  -20.6138  -15.0758 C   0  0  1  0  0  0  0  0  0  0  0  0
   26.4209  -19.4985  -15.8861 C   0  0  0  0  0  0  0  0  0  0  0  0
   27.4001  -18.6679  -16.5945 C   0  0  0  0  0  0  0  0  0  0  0  0
   27.9020  -17.5705  -15.9402 C   0  0  0  0  0  0  0  0  0  0  0  0
   28.8314  -16.6927  -16.4767 C   0  0  0  0  0  0  0  0  0  0  0  0
   29.2542  -16.9840  -17.7671 C   0  0  0  0  0  0  0  0  0  0  0  0
   28.7675  -18.0769  -18.4448 C   0  0  0  0  0  0  0  0  0  0  0  0
   27.8397  -18.9316  -17.8763 C   0  0  0  0  0  0  0  0  0  0  0  0
   25.9779  -21.2911  -14.2662 C   0  0  0  0  0  0  0  0  0  0  0  0
   25.3141  -22.2629  -14.7022 O   0  0  0  0  0  0  0  0  0  0  0  0
   25.2599  -20.4197   -8.3069 N   0  0  0  0  0  0  0  0  0  0  0  0
   26.4584  -20.5790   -9.0757 C   0  0  0  0  0  0  0  0  0  0  0  0
   27.5402  -20.3052   -8.5032 O   0  0  0  0  0  0  0  0  0  0  0  0
   26.3071  -21.0473  -10.4620 C   0  0  0  0  0  0  0  0  0  0  0  0
   24.8919  -21.3595  -10.7668 C   0  0  0  0  0  0  0  0  0  0  0  0
   24.5034  -21.3650  -12.2122 C   0  0  2  0  0  0  0  0  0  0  0  0
   25.6634  -20.8515  -12.9445 N   0  0  0  0  0  0  0  0  0  0  0  0
   23.2947  -20.5506  -12.4855 C   0  0  0  0  0  0  0  0  0  0  0  0
   23.4224  -19.3916  -12.9647 O   0  0  0  0  0  0  0  0  0  0  0  0
   20.0324  -21.5296  -16.6754 N   0  0  0  0  0  0  0  0  0  0  0  0
   20.2405  -20.7869  -15.5246 C   0  0  0  0  0  0  0  0  0  0  0  0
   19.4767  -19.7801  -15.2990 O   0  0  0  0  0  0  0  0  0  0  0  0
   21.2764  -21.0713  -14.5373 C   0  0  0  0  0  0  0  0  0  0  0  0
   20.8832  -20.6935  -13.1475 C   0  0  2  0  0  0  0  0  0  0  0  0
   21.9657  -20.9988  -12.2369 N   0  0  0  0  0  0  0  0  0  0  0  0
   19.6137  -21.2992  -12.6833 C   0  0  0  0  0  0  0  0  0  0  0  0
   19.5632  -22.6484  -12.3990 O   0  0  0  0  0  0  0  0  0  0  0  0
   18.5993  -20.5950  -12.5490 O   0  0  0  0  0  0  0  0  0  0  0  0
  2  1  1  6
  2  3  1  0
  3  4  1  0
  4  9  2  0
  5  4  1  0
  5  6  2  0
  6  7  1  0
  7  8  2  0
  9  8  1  0
 10  2  1  0
 10 18  1  0
 11 10  2  0
 13 12  1  0
 13 15  1  0
 14 13  2  0
 16 15  1  0
 17 16  1  1
 17 18  1  0
 19 17  1  0
 20 19  2  0
 21 22  1  0
 22 23  2  0
 22 24  1  0
 25 24  1  6
 25 26  1  0
 25 27  1  0
 26 19  1  0
 27 28  1  0
 29 27  2  0
M  END
$$$$
