FQN.pdb
     RDKit          3D

 29 29  0  0  1  0  0  0  0  0999 V2000
   28.5465  -29.9641  -16.4297 N   0  0  0  0  0  0  0  0  0  0  0  0
   27.9766  -29.0479  -17.3699 C   0  0  1  0  0  0  0  0  0  0  0  0
   26.8119  -29.7128  -18.0743 C   0  0  0  0  0  0  0  0  0  0  0  0
   27.2214  -30.6254  -19.1467 C   0  0  0  0  0  0  0  0  0  0  0  0
   27.5192  -30.0819  -20.3715 C   0  0  0  0  0  0  0  0  0  0  0  0
   27.9195  -30.8131  -21.4793 C   0  0  0  0  0  0  0  0  0  0  0  0
   28.0113  -32.1857  -21.2892 C   0  0  0  0  0  0  0  0  0  0  0  0
   27.7188  -32.7558  -20.0725 C   0  0  0  0  0  0  0  0  0  0  0  0
   27.3220  -31.9932  -18.9883 C   0  0  0  0  0  0  0  0  0  0  0  0
   27.4682  -27.8582  -16.6035 C   0  0  0  0  0  0  0  0  0  0  0  0
   27.2374  -27.8970  -15.3705 O   0  0  0  0  0  0  0  0  0  0  0  0
   29.3849  -22.4352  -17.7345 N   0  0  0  0  0  0  0  0  0  0  0  0
   28.4660  -22.0196  -16.7169 C   0  0  0  0  0  0  0  0  0  0  0  0
   28.5909  -20.8494  -16.2833 O   0  0  0  0  0  0  0  0  0  0  0  0
   27.4646  -23.0034  -16.2769 C   0  0  0  0  0  0  0  0  0  0  0  0
   27.6904  -24.3173  -16.9217 C   0  0  0  0  0  0  0  0  0  0  0  0
   26.7716  -25.4279  -16.5189 C   0  0  2  0  0  0  0  0  0  0  0  0
   27.2214  -26.6118  -17.2550 N   0  0  0  0  0  0  0  0  0  0  0  0
   25.3479  -25.1286  -16.8056 C   0  0  0  0  0  0  0  0  0  0  0  0
   24.9038  -25.2853  -17.9750 O   0  0  0  0  0  0  0  0  0  0  0  0
   22.2340  -26.9952  -13.6875 N   0  0  0  0  0  0  0  0  0  0  0  0
   22.0008  -26.2771  -14.8491 C   0  0  0  0  0  0  0  0  0  0  0  0
   21.5947  -26.9102  -15.8894 O   0  0  0  0  0  0  0  0  0  0  0  0
   22.1835  -24.8352  -14.9762 C   0  0  0  0  0  0  0  0  0  0  0  0
   23.0288  -24.4506  -16.1451 C   0  0  2  0  0  0  0  0  0  0  0  0
   24.4242  -24.6637  -15.8261 N   0  0  0  0  0  0  0  0  0  0  0  0
   22.8026  -23.0724  -16.6383 C   0  0  0  0  0  0  0  0  0  0  0  0
   21.5444  -22.6945  -17.0600 O   0  0  0  0  0  0  0  0  0  0  0  0
   23.7416  -22.2598  -16.6706 O   0  0  0  0  0  0  0  0  0  0  0  0
  2  1  1  1
  2  3  1  0
  3  4  1  0
  4  9  2  0
  5  4  1  0
  5  6  2  0
  6  7  1  0
  7  8  2  0
  9  8  1  0
 10  2  1  0
 10 18  1  0
 11 10  2  0
 13 12  1  0
 13 15  1  0
 14 13  2  0
 16 15  1  0
 17 16  1  6
 17 18  1  0
 19 17  1  0
 20 19  2  0
 21 22  1  0
 22 23  2  0
 22 24  1  0
 25 24  1  1
 25 26  1  0
 25 27  1  0
 26 19  1  0
 27 28  1  0
 29 27  2  0
M  END
$$$$
