FQN.pdb
     RDKit          3D

 29 29  0  0  1  0  0  0  0  0999 V2000
   26.6043  -20.5208  -17.9097 N   0  0  0  0  0  0  0  0  0  0  0  0
   25.3786  -19.7865  -17.8284 C   0  0  1  0  0  0  0  0  0  0  0  0
   24.9072  -19.4422  -19.2263 C   0  0  0  0  0  0  0  0  0  0  0  0
   25.8257  -18.5586  -19.9517 C   0  0  0  0  0  0  0  0  0  0  0  0
   25.7439  -17.2102  -19.7078 C   0  0  0  0  0  0  0  0  0  0  0  0
   26.5418  -16.2522  -20.3141 C   0  0  0  0  0  0  0  0  0  0  0  0
   27.4732  -16.7371  -21.2231 C   0  0  0  0  0  0  0  0  0  0  0  0
   27.5760  -18.0829  -21.4856 C   0  0  0  0  0  0  0  0  0  0  0  0
   26.7616  -19.0105  -20.8605 C   0  0  0  0  0  0  0  0  0  0  0  0
   24.3544  -20.6708  -17.1724 C   0  0  0  0  0  0  0  0  0  0  0  0
   24.3908  -21.9227  -17.2542 O   0  0  0  0  0  0  0  0  0  0  0  0
   21.6180  -19.1410  -12.1027 N   0  0  0  0  0  0  0  0  0  0  0  0
   20.8020  -20.2982  -12.3212 C   0  0  0  0  0  0  0  0  0  0  0  0
   20.0126  -20.6177  -11.4005 O   0  0  0  0  0  0  0  0  0  0  0  0
   20.9674  -21.0017  -13.6026 C   0  0  0  0  0  0  0  0  0  0  0  0
   22.0155  -20.3611  -14.4299 C   0  0  0  0  0  0  0  0  0  0  0  0
   22.2632  -20.9599  -15.7789 C   0  0  2  0  0  0  0  0  0  0  0  0
   23.2780  -20.1168  -16.4153 N   0  0  0  0  0  0  0  0  0  0  0  0
   21.0358  -21.0375  -16.6075 C   0  0  0  0  0  0  0  0  0  0  0  0
   20.1328  -21.8631  -16.3036 O   0  0  0  0  0  0  0  0  0  0  0  0
   16.2356  -21.9787  -18.0138 N   0  0  0  0  0  0  0  0  0  0  0  0
   17.4061  -21.4943  -18.5749 C   0  0  0  0  0  0  0  0  0  0  0  0
   17.4118  -21.2054  -19.8257 O   0  0  0  0  0  0  0  0  0  0  0  0
   18.6471  -21.2839  -17.8372 C   0  0  0  0  0  0  0  0  0  0  0  0
   19.5555  -20.2925  -18.4857 C   0  0  2  0  0  0  0  0  0  0  0  0
   20.8013  -20.2234  -17.7525 N   0  0  0  0  0  0  0  0  0  0  0  0
   18.9675  -18.9441  -18.6593 C   0  0  0  0  0  0  0  0  0  0  0  0
   18.3795  -18.3105  -17.5839 O   0  0  0  0  0  0  0  0  0  0  0  0
   19.0052  -18.3855  -19.7681 O   0  0  0  0  0  0  0  0  0  0  0  0
  2  1  1  6
  2  3  1  0
  3  4  1  0
  4  9  2  0
  5  4  1  0
  5  6  2  0
  6  7  1  0
  7  8  2  0
  9  8  1  0
 10  2  1  0
 10 18  1  0
 11 10  2  0
 13 12  1  0
 13 15  1  0
 14 13  2  0
 16 15  1  0
 17 16  1  1
 17 18  1  0
 19 17  1  0
 20 19  2  0
 21 22  1  0
 22 23  2  0
 22 24  1  0
 25 24  1  1
 25 26  1  0
 25 27  1  0
 26 19  1  0
 27 28  1  0
 29 27  2  0
M  END
$$$$
