FQN.pdb
     RDKit          3D

 29 29  0  0  1  0  0  0  0  0999 V2000
   24.4877  -12.4980  -17.2896 N   0  0  0  0  0  0  0  0  0  0  0  0
   24.4442  -11.3925  -16.3818 C   0  0  1  0  0  0  0  0  0  0  0  0
   25.6791  -10.5367  -16.5752 C   0  0  0  0  0  0  0  0  0  0  0  0
   26.9331  -11.2555  -16.3274 C   0  0  0  0  0  0  0  0  0  0  0  0
   27.6802  -11.6339  -17.4150 C   0  0  0  0  0  0  0  0  0  0  0  0
   28.8843  -12.3174  -17.3419 C   0  0  0  0  0  0  0  0  0  0  0  0
   29.3248  -12.6181  -16.0595 C   0  0  0  0  0  0  0  0  0  0  0  0
   28.5958  -12.2505  -14.9532 C   0  0  0  0  0  0  0  0  0  0  0  0
   27.3971  -11.5684  -15.0653 C   0  0  0  0  0  0  0  0  0  0  0  0
   23.2268  -10.5735  -16.7112 C   0  0  0  0  0  0  0  0  0  0  0  0
   22.3426  -10.9683  -17.5096 O   0  0  0  0  0  0  0  0  0  0  0  0
   18.7765  -11.1488  -15.1843 N   0  0  0  0  0  0  0  0  0  0  0  0
   18.2988   -9.8441  -15.5341 C   0  0  0  0  0  0  0  0  0  0  0  0
   17.0576   -9.6670  -15.5018 O   0  0  0  0  0  0  0  0  0  0  0  0
   19.3077   -8.8373  -15.8982 C   0  0  0  0  0  0  0  0  0  0  0  0
   20.6720   -9.4120  -15.8572 C   0  0  0  0  0  0  0  0  0  0  0  0
   21.7848   -8.5304  -16.3309 C   0  0  2  0  0  0  0  0  0  0  0  0
   23.0195   -9.2900  -16.1210 N   0  0  0  0  0  0  0  0  0  0  0  0
   21.8296   -7.2296  -15.6205 C   0  0  0  0  0  0  0  0  0  0  0  0
   22.0997   -7.2034  -14.3894 O   0  0  0  0  0  0  0  0  0  0  0  0
   21.7295   -2.1218  -14.4049 N   0  0  0  0  0  0  0  0  0  0  0  0
   22.0834   -2.3278  -15.7283 C   0  0  0  0  0  0  0  0  0  0  0  0
   22.4789   -1.3215  -16.4203 O   0  0  0  0  0  0  0  0  0  0  0  0
   22.0408   -3.6223  -16.4000 C   0  0  0  0  0  0  0  0  0  0  0  0
   21.6157   -4.7367  -15.5021 C   0  0  2  0  0  0  0  0  0  0  0  0
   21.5813   -5.9757  -16.2491 N   0  0  0  0  0  0  0  0  0  0  0  0
   20.3311   -4.5042  -14.8022 C   0  0  0  0  0  0  0  0  0  0  0  0
   20.3304   -4.2028  -13.4558 O   0  0  0  0  0  0  0  0  0  0  0  0
   19.2592   -4.5787  -15.4254 O   0  0  0  0  0  0  0  0  0  0  0  0
  2  1  1  6
  2  3  1  0
  3  4  1  0
  4  9  2  0
  5  4  1  0
  5  6  2  0
  6  7  1  0
  7  8  2  0
  9  8  1  0
 10  2  1  0
 10 18  1  0
 11 10  2  0
 13 12  1  0
 13 15  1  0
 14 13  2  0
 16 15  1  0
 17 16  1  1
 17 18  1  0
 19 17  1  0
 20 19  2  0
 21 22  1  0
 22 23  2  0
 22 24  1  0
 25 24  1  6
 25 26  1  0
 25 27  1  0
 26 19  1  0
 27 28  1  0
 29 27  2  0
M  END
$$$$
