FQN.pdb
     RDKit          3D

 29 29  0  0  1  0  0  0  0  0999 V2000
   27.9065  -18.7432  -18.2179 N   0  0  0  0  0  0  0  0  0  0  0  0
   27.1349  -18.0818  -17.2103 C   0  0  1  0  0  0  0  0  0  0  0  0
   25.8669  -17.5319  -17.8306 C   0  0  0  0  0  0  0  0  0  0  0  0
   26.1080  -16.4533  -18.7946 C   0  0  0  0  0  0  0  0  0  0  0  0
   26.2359  -15.1762  -18.3081 C   0  0  0  0  0  0  0  0  0  0  0  0
   26.4653  -14.0559  -19.0921 C   0  0  0  0  0  0  0  0  0  0  0  0
   26.5653  -14.2912  -20.4572 C   0  0  0  0  0  0  0  0  0  0  0  0
   26.4412  -15.5607  -20.9706 C   0  0  0  0  0  0  0  0  0  0  0  0
   26.2124  -16.6557  -20.1563 C   0  0  0  0  0  0  0  0  0  0  0  0
   26.7656  -19.1020  -16.1691 C   0  0  0  0  0  0  0  0  0  0  0  0
   26.5732  -20.3109  -16.4460 O   0  0  0  0  0  0  0  0  0  0  0  0
   28.1206  -21.3343  -12.0373 N   0  0  0  0  0  0  0  0  0  0  0  0
   27.0452  -21.1353  -11.1117 C   0  0  0  0  0  0  0  0  0  0  0  0
   26.8630  -22.0308  -10.2528 O   0  0  0  0  0  0  0  0  0  0  0  0
   26.2571  -19.9015  -11.2566 C   0  0  0  0  0  0  0  0  0  0  0  0
   26.6586  -19.1529  -12.4696 C   0  0  0  0  0  0  0  0  0  0  0  0
   26.1830  -19.6964  -13.7804 C   0  0  2  0  0  0  0  0  0  0  0  0
   26.6149  -18.7348  -14.7975 N   0  0  0  0  0  0  0  0  0  0  0  0
   24.7140  -19.8948  -13.8213 C   0  0  0  0  0  0  0  0  0  0  0  0
   23.9798  -18.9969  -14.3153 O   0  0  0  0  0  0  0  0  0  0  0  0
   19.7925  -21.1331  -13.5728 N   0  0  0  0  0  0  0  0  0  0  0  0
   20.4802  -20.1620  -12.8634 C   0  0  0  0  0  0  0  0  0  0  0  0
   19.8062  -19.2458  -12.2680 O   0  0  0  0  0  0  0  0  0  0  0  0
   21.9330  -20.1061  -12.7404 C   0  0  0  0  0  0  0  0  0  0  0  0
   22.6259  -21.2257  -13.4439 C   0  0  2  0  0  0  0  0  0  0  0  0
   24.0587  -21.0592  -13.3277 N   0  0  0  0  0  0  0  0  0  0  0  0
   22.2261  -21.4015  -14.8593 C   0  0  0  0  0  0  0  0  0  0  0  0
   21.0138  -21.9877  -15.1600 O   0  0  0  0  0  0  0  0  0  0  0  0
   22.9784  -21.0211  -15.7715 O   0  0  0  0  0  0  0  0  0  0  0  0
  2  1  1  6
  2  3  1  0
  3  4  1  0
  4  9  2  0
  5  4  1  0
  5  6  2  0
  6  7  1  0
  7  8  2  0
  9  8  1  0
 10  2  1  0
 10 18  1  0
 11 10  2  0
 13 12  1  0
 13 15  1  0
 14 13  2  0
 16 15  1  0
 17 16  1  1
 17 18  1  0
 19 17  1  0
 20 19  2  0
 21 22  1  0
 22 23  2  0
 22 24  1  0
 25 24  1  6
 25 26  1  0
 25 27  1  0
 26 19  1  0
 27 28  1  0
 29 27  2  0
M  END
$$$$
