FQN.pdb
     RDKit          3D

 29 29  0  0  1  0  0  0  0  0999 V2000
   28.8356  -22.1462   -9.5175 N   0  0  0  0  0  0  0  0  0  0  0  0
   27.7991  -21.3494   -8.9355 C   0  0  1  0  0  0  0  0  0  0  0  0
   28.3679  -20.0047   -8.5315 C   0  0  0  0  0  0  0  0  0  0  0  0
   28.5313  -19.8508   -7.0823 C   0  0  0  0  0  0  0  0  0  0  0  0
   27.5708  -19.1460   -6.4006 C   0  0  0  0  0  0  0  0  0  0  0  0
   27.5865  -18.9164   -5.0334 C   0  0  0  0  0  0  0  0  0  0  0  0
   28.6676  -19.4558   -4.3485 C   0  0  0  0  0  0  0  0  0  0  0  0
   29.6435  -20.1661   -5.0071 C   0  0  0  0  0  0  0  0  0  0  0  0
   29.5941  -20.3751   -6.3740 C   0  0  0  0  0  0  0  0  0  0  0  0
   26.7397  -21.1364   -9.9813 C   0  0  0  0  0  0  0  0  0  0  0  0
   26.9191  -21.4158  -11.1916 O   0  0  0  0  0  0  0  0  0  0  0  0
   21.3373  -21.5607   -8.7407 N   0  0  0  0  0  0  0  0  0  0  0  0
   20.9271  -20.9090   -9.9488 C   0  0  0  0  0  0  0  0  0  0  0  0
   19.7824  -21.1841  -10.3813 O   0  0  0  0  0  0  0  0  0  0  0  0
   21.8860  -19.9806  -10.5674 C   0  0  0  0  0  0  0  0  0  0  0  0
   23.1834  -20.0018   -9.8536 C   0  0  0  0  0  0  0  0  0  0  0  0
   24.2891  -20.7790  -10.4965 C   0  0  2  0  0  0  0  0  0  0  0  0
   25.4623  -20.5983   -9.6383 N   0  0  0  0  0  0  0  0  0  0  0  0
   24.5689  -20.3394  -11.8848 C   0  0  0  0  0  0  0  0  0  0  0  0
   24.9901  -19.1695  -12.0926 O   0  0  0  0  0  0  0  0  0  0  0  0
   27.4569  -21.6033  -16.8294 N   0  0  0  0  0  0  0  0  0  0  0  0
   26.4364  -20.9977  -16.1145 C   0  0  0  0  0  0  0  0  0  0  0  0
   25.9871  -19.8678  -16.5263 O   0  0  0  0  0  0  0  0  0  0  0  0
   25.8264  -21.5594  -14.9141 C   0  0  0  0  0  0  0  0  0  0  0  0
   24.7338  -20.7083  -14.3568 C   0  0  2  0  0  0  0  0  0  0  0  0
   24.3892  -21.1688  -13.0288 N   0  0  0  0  0  0  0  0  0  0  0  0
   23.5298  -20.6166  -15.2147 C   0  0  0  0  0  0  0  0  0  0  0  0
   22.3400  -21.1677  -14.7851 O   0  0  0  0  0  0  0  0  0  0  0  0
   23.5907  -20.0445  -16.3156 O   0  0  0  0  0  0  0  0  0  0  0  0
  2  1  1  6
  2  3  1  0
  3  4  1  0
  4  9  2  0
  5  4  1  0
  5  6  2  0
  6  7  1  0
  7  8  2  0
  9  8  1  0
 10  2  1  0
 10 18  1  0
 11 10  2  0
 13 12  1  0
 13 15  1  0
 14 13  2  0
 16 15  1  0
 17 16  1  1
 17 18  1  0
 19 17  1  0
 20 19  2  0
 21 22  1  0
 22 23  2  0
 22 24  1  0
 25 24  1  6
 25 26  1  0
 25 27  1  0
 26 19  1  0
 27 28  1  0
 29 27  2  0
M  END
$$$$
