VSC.pdb
     RDKit          3D

 20 19  0  0  1  0  0  0  0  0999 V2000
   17.5977  -11.3157  -12.6553 C   0  0  0  0  0  0  0  0  0  0  0  0
   16.9851  -10.0392  -12.1938 C   0  0  1  0  0  0  0  0  0  0  0  0
   16.3146   -9.3735  -13.3814 C   0  0  0  0  0  0  0  0  0  0  0  0
   15.9525  -10.1932  -11.1219 C   0  0  2  0  0  0  0  0  0  0  0  0
   14.9577  -11.1275  -11.5817 N   0  0  0  0  0  0  0  0  0  0  0  0
   15.3804   -8.9254  -10.6495 C   0  0  0  0  0  0  0  0  0  0  0  0
   14.3000   -8.5394  -11.1613 O   0  0  0  0  0  0  0  0  0  0  0  0
   15.1865   -7.2894   -6.9063 O   0  0  0  0  0  0  0  0  0  0  0  0
   15.8029   -6.4513   -7.8342 C   0  0  0  0  0  0  0  0  0  0  0  0
   15.4433   -6.8244   -9.2449 C   0  0  2  0  0  0  0  0  0  0  0  0
   15.9504   -8.0950   -9.6565 N   0  0  0  0  0  0  0  0  0  0  0  0
   15.9095   -5.7755  -10.1890 C   0  0  0  0  0  0  0  0  0  0  0  0
   17.1019   -5.7728  -10.6492 O   0  0  0  0  0  0  0  0  0  0  0  0
   14.9986   -4.7464  -10.5893 N   0  0  0  0  0  0  0  0  0  0  0  0
   15.5087   -3.6633  -11.3884 C   0  0  1  0  0  0  0  0  0  0  0  0
   14.9318   -3.6661  -12.7891 C   0  0  0  0  0  0  0  0  0  0  0  0
   15.4471   -2.2306  -13.7505 S   0  0  0  0  0  0  0  0  0  0  0  0
   15.1287   -2.3791  -10.7658 C   0  0  0  0  0  0  0  0  0  0  0  0
   14.0803   -2.3157  -10.0877 O   0  0  0  0  0  0  0  0  0  0  0  0
   15.8915   -1.2328  -10.9028 O   0  0  0  0  0  0  0  0  0  0  0  0
  2  1  1  6
  3  2  1  0
  4  5  1  6
  4  2  1  0
  6  4  1  0
  6  7  2  0
  8  9  1  0
 10  9  1  1
 10 11  1  0
 10 12  1  0
 11  6  1  0
 12 13  2  0
 12 14  1  0
 14 15  1  0
 15 18  1  0
 15 16  1  6
 17 16  1  0
 18 19  2  0
 18 20  1  0
M  END
$$$$
