VSC.pdb
     RDKit          3D

 20 19  0  0  1  0  0  0  0  0999 V2000
   16.3572  -13.5044  -16.4211 C   0  0  0  0  0  0  0  0  0  0  0  0
   17.1560  -12.5676  -15.5832 C   0  0  1  0  0  0  0  0  0  0  0  0
   18.3511  -13.3215  -15.0295 C   0  0  0  0  0  0  0  0  0  0  0  0
   17.6779  -11.3686  -16.3106 C   0  0  2  0  0  0  0  0  0  0  0  0
   18.3797  -11.8202  -17.4841 N   0  0  0  0  0  0  0  0  0  0  0  0
   18.4722  -10.4564  -15.4770 C   0  0  0  0  0  0  0  0  0  0  0  0
   17.9017   -9.8962  -14.5081 O   0  0  0  0  0  0  0  0  0  0  0  0
   22.5110   -9.3780  -16.3753 O   0  0  0  0  0  0  0  0  0  0  0  0
   22.0725   -9.3364  -15.0528 C   0  0  0  0  0  0  0  0  0  0  0  0
   20.5824   -9.1612  -14.9666 C   0  0  2  0  0  0  0  0  0  0  0  0
   19.8393  -10.1536  -15.6766 N   0  0  0  0  0  0  0  0  0  0  0  0
   20.1945   -7.8108  -15.4512 C   0  0  0  0  0  0  0  0  0  0  0  0
   19.8124   -7.6173  -16.6555 O   0  0  0  0  0  0  0  0  0  0  0  0
   20.2516   -6.7044  -14.5450 N   0  0  0  0  0  0  0  0  0  0  0  0
   19.9562   -5.3924  -15.0580 C   0  0  1  0  0  0  0  0  0  0  0  0
   18.8181   -4.7294  -14.3096 C   0  0  0  0  0  0  0  0  0  0  0  0
   17.2764   -5.6551  -14.4374 S   0  0  0  0  0  0  0  0  0  0  0  0
   21.1431   -4.5284  -14.8955 C   0  0  0  0  0  0  0  0  0  0  0  0
   22.1281   -4.9577  -14.2565 O   0  0  0  0  0  0  0  0  0  0  0  0
   21.2109   -3.2521  -15.4256 O   0  0  0  0  0  0  0  0  0  0  0  0
  2  1  1  6
  3  2  1  0
  4  5  1  6
  4  2  1  0
  6  4  1  0
  6  7  2  0
  8  9  1  0
 10  9  1  6
 10 11  1  0
 10 12  1  0
 11  6  1  0
 12 13  2  0
 12 14  1  0
 14 15  1  0
 15 18  1  0
 15 16  1  1
 17 16  1  0
 18 19  2  0
 18 20  1  0
M  END
$$$$
