VSC.pdb
     RDKit          3D

 20 19  0  0  1  0  0  0  0  0999 V2000
   15.6390  -13.9535  -13.8882 C   0  0  0  0  0  0  0  0  0  0  0  0
   16.2490  -12.9507  -12.9716 C   0  0  1  0  0  0  0  0  0  0  0  0
   17.7204  -12.8180  -13.3188 C   0  0  0  0  0  0  0  0  0  0  0  0
   15.6435  -11.5845  -13.0481 C   0  0  2  0  0  0  0  0  0  0  0  0
   15.7164  -11.1322  -14.4134 N   0  0  0  0  0  0  0  0  0  0  0  0
   16.2036  -10.6225  -12.0897 C   0  0  0  0  0  0  0  0  0  0  0  0
   16.0270  -10.8401  -10.8650 O   0  0  0  0  0  0  0  0  0  0  0  0
   18.0448   -6.9333  -13.2266 O   0  0  0  0  0  0  0  0  0  0  0  0
   18.5042   -7.6012  -12.0925 C   0  0  0  0  0  0  0  0  0  0  0  0
   17.4492   -8.5000  -11.5115 C   0  0  2  0  0  0  0  0  0  0  0  0
   16.9323   -9.4602  -12.4343 N   0  0  0  0  0  0  0  0  0  0  0  0
   16.3311   -7.6910  -10.9600 C   0  0  0  0  0  0  0  0  0  0  0  0
   15.2981   -7.4139  -11.6599 O   0  0  0  0  0  0  0  0  0  0  0  0
   16.4173   -7.2132   -9.6135 N   0  0  0  0  0  0  0  0  0  0  0  0
   15.3239   -6.4296   -9.1013 C   0  0  1  0  0  0  0  0  0  0  0  0
   15.1038   -6.6562   -7.6196 C   0  0  0  0  0  0  0  0  0  0  0  0
   14.6474   -8.3589   -7.2422 S   0  0  0  0  0  0  0  0  0  0  0  0
   15.6281   -4.9954   -9.2798 C   0  0  0  0  0  0  0  0  0  0  0  0
   14.7534   -4.1465   -9.0026 O   0  0  0  0  0  0  0  0  0  0  0  0
   16.8520   -4.5481   -9.7453 O   0  0  0  0  0  0  0  0  0  0  0  0
  2  1  1  6
  3  2  1  0
  4  5  1  6
  4  2  1  0
  6  4  1  0
  6  7  2  0
  8  9  1  0
 10  9  1  6
 10 11  1  0
 10 12  1  0
 11  6  1  0
 12 13  2  0
 12 14  1  0
 14 15  1  0
 15 18  1  0
 15 16  1  1
 17 16  1  0
 18 19  2  0
 18 20  1  0
M  END
$$$$
