VSC.pdb
     RDKit          3D

 20 19  0  0  1  0  0  0  0  0999 V2000
   19.7374  -12.9710  -18.6420 C   0  0  0  0  0  0  0  0  0  0  0  0
   19.7399  -11.6333  -17.9875 C   0  0  1  0  0  0  0  0  0  0  0  0
   20.2160  -10.6068  -18.9988 C   0  0  0  0  0  0  0  0  0  0  0  0
   18.4055  -11.1822  -17.4824 C   0  0  2  0  0  0  0  0  0  0  0  0
   17.4458  -11.3264  -18.5463 N   0  0  0  0  0  0  0  0  0  0  0  0
   18.4094   -9.8402  -16.8851 C   0  0  0  0  0  0  0  0  0  0  0  0
   18.4085   -8.8507  -17.6592 O   0  0  0  0  0  0  0  0  0  0  0  0
   18.2722   -8.9919  -12.6305 O   0  0  0  0  0  0  0  0  0  0  0  0
   17.7395   -8.1496  -13.6051 C   0  0  0  0  0  0  0  0  0  0  0  0
   18.4808   -8.2676  -14.9071 C   0  0  2  0  0  0  0  0  0  0  0  0
   18.4140   -9.5668  -15.4974 N   0  0  0  0  0  0  0  0  0  0  0  0
   19.9037   -7.8784  -14.7258 C   0  0  0  0  0  0  0  0  0  0  0  0
   20.8566   -8.6899  -14.9845 O   0  0  0  0  0  0  0  0  0  0  0  0
   20.2092   -6.5634  -14.2501 N   0  0  0  0  0  0  0  0  0  0  0  0
   21.5939   -6.1828  -14.1530 C   0  0  1  0  0  0  0  0  0  0  0  0
   22.2991   -6.2463  -15.4923 C   0  0  0  0  0  0  0  0  0  0  0  0
   23.9171   -5.4520  -15.4585 S   0  0  0  0  0  0  0  0  0  0  0  0
   21.6821   -4.7855  -13.6827 C   0  0  0  0  0  0  0  0  0  0  0  0
   20.7984   -3.9695  -14.0235 O   0  0  0  0  0  0  0  0  0  0  0  0
   22.7112   -4.3377  -12.8734 O   0  0  0  0  0  0  0  0  0  0  0  0
  2  1  1  6
  3  2  1  0
  4  5  1  6
  4  2  1  0
  6  4  1  0
  6  7  2  0
  8  9  1  0
 10  9  1  1
 10 11  1  0
 10 12  1  0
 11  6  1  0
 12 13  2  0
 12 14  1  0
 14 15  1  0
 15 18  1  0
 15 16  1  6
 17 16  1  0
 18 19  2  0
 18 20  1  0
M  END
$$$$
