VSC.pdb
     RDKit          3D

 20 19  0  0  1  0  0  0  0  0999 V2000
   16.3249  -11.9280  -17.6279 C   0  0  0  0  0  0  0  0  0  0  0  0
   17.3946  -11.0410  -17.0925 C   0  0  1  0  0  0  0  0  0  0  0  0
   16.8027  -10.1953  -15.9800 C   0  0  0  0  0  0  0  0  0  0  0  0
   18.5794  -11.7607  -16.5290 C   0  0  2  0  0  0  0  0  0  0  0  0
   18.1065  -12.7538  -15.5995 N   0  0  0  0  0  0  0  0  0  0  0  0
   19.6059  -10.8779  -15.9593 C   0  0  0  0  0  0  0  0  0  0  0  0
   19.3736  -10.3463  -14.8449 O   0  0  0  0  0  0  0  0  0  0  0  0
   24.0752   -8.8524  -16.2095 O   0  0  0  0  0  0  0  0  0  0  0  0
   23.1435   -9.7223  -16.7737 C   0  0  0  0  0  0  0  0  0  0  0  0
   21.8306   -9.6801  -16.0435 C   0  0  2  0  0  0  0  0  0  0  0  0
   20.8463  -10.5735  -16.5670 N   0  0  0  0  0  0  0  0  0  0  0  0
   21.2899   -8.2958  -16.0373 C   0  0  0  0  0  0  0  0  0  0  0  0
   20.5076   -7.8798  -16.9585 O   0  0  0  0  0  0  0  0  0  0  0  0
   21.6564   -7.4114  -14.9731 N   0  0  0  0  0  0  0  0  0  0  0  0
   21.2874   -6.0248  -15.0870 C   0  0  1  0  0  0  0  0  0  0  0  0
   19.7886   -5.8235  -14.9989 C   0  0  0  0  0  0  0  0  0  0  0  0
   19.3359   -4.0902  -14.7961 S   0  0  0  0  0  0  0  0  0  0  0  0
   21.8926   -5.2677  -13.9726 C   0  0  0  0  0  0  0  0  0  0  0  0
   21.8890   -4.0181  -14.0103 O   0  0  0  0  0  0  0  0  0  0  0  0
   22.4686   -5.8892  -12.8788 O   0  0  0  0  0  0  0  0  0  0  0  0
  2  1  1  1
  3  2  1  0
  4  5  1  1
  4  2  1  0
  6  4  1  0
  6  7  2  0
  8  9  1  0
 10  9  1  6
 10 11  1  0
 10 12  1  0
 11  6  1  0
 12 13  2  0
 12 14  1  0
 14 15  1  0
 15 18  1  0
 15 16  1  1
 17 16  1  0
 18 19  2  0
 18 20  1  0
M  END
$$$$
