VSC.pdb
     RDKit          3D

 20 19  0  0  1  0  0  0  0  0999 V2000
   72.8719   28.0489    3.9869 C   0  0  0  0  0  0  0  0  0  0  0  0
   71.8579   27.3322    4.8090 C   0  0  1  0  0  0  0  0  0  0  0  0
   70.7387   26.8715    3.8933 C   0  0  0  0  0  0  0  0  0  0  0  0
   72.3755   26.1268    5.5288 C   0  0  2  0  0  0  0  0  0  0  0  0
   73.5426   26.5131    6.2787 N   0  0  0  0  0  0  0  0  0  0  0  0
   72.6030   24.9606    4.6651 C   0  0  0  0  0  0  0  0  0  0  0  0
   71.7289   24.0583    4.6510 O   0  0  0  0  0  0  0  0  0  0  0  0
   76.1755   23.2668    2.1335 O   0  0  0  0  0  0  0  0  0  0  0  0
   74.9481   23.8824    1.8931 C   0  0  0  0  0  0  0  0  0  0  0  0
   73.9723   23.6304    3.0078 C   0  0  2  0  0  0  0  0  0  0  0  0
   73.7355   24.7672    3.8401 N   0  0  0  0  0  0  0  0  0  0  0  0
   74.4304   22.4907    3.8445 C   0  0  0  0  0  0  0  0  0  0  0  0
   73.6306   21.8712    4.6257 O   0  0  0  0  0  0  0  0  0  0  0  0
   75.7998   22.0806    3.7705 N   0  0  0  0  0  0  0  0  0  0  0  0
   76.8026   23.0972    3.5892 C   0  0  1  0  0  0  0  0  0  0  0  0
   78.1013   22.5294    3.0545 C   0  0  0  0  0  0  0  0  0  0  0  0
   78.2748   20.7670    3.3924 S   0  0  0  0  0  0  0  0  0  0  0  0
   76.3216   24.0837    2.6009 C   0  0  0  0  0  0  0  0  0  0  0  0
   76.2382   25.2869    2.9298 O   0  0  0  0  0  0  0  0  0  0  0  0
   75.9560   23.7286    1.3144 O   0  0  0  0  0  0  0  0  0  0  0  0
  2  1  1  6
  3  2  1  0
  4  5  1  6
  4  2  1  0
  6  4  1  0
  6  7  2  0
  8  9  1  0
 10  9  1  6
 10 11  1  0
 10 12  1  0
 11  6  1  0
 12 13  2  0
 12 14  1  0
 14 15  1  0
 15 18  1  0
 15 16  1  6
 17 16  1  0
 18 19  2  0
 18 20  1  0
M  END
$$$$
