VSC.pdb
     RDKit          3D

 20 19  0  0  1  0  0  0  0  0999 V2000
   20.2988  -13.1806  -19.1624 C   0  0  0  0  0  0  0  0  0  0  0  0
   20.0342  -11.9692  -18.3375 C   0  0  1  0  0  0  0  0  0  0  0  0
   18.6945  -11.3902  -18.7538 C   0  0  0  0  0  0  0  0  0  0  0  0
   19.9787  -12.2171  -16.8629 C   0  0  2  0  0  0  0  0  0  0  0  0
   19.0208  -13.2633  -16.6149 N   0  0  0  0  0  0  0  0  0  0  0  0
   19.7402  -11.0119  -16.0577 C   0  0  0  0  0  0  0  0  0  0  0  0
   18.5497  -10.6824  -15.8286 O   0  0  0  0  0  0  0  0  0  0  0  0
   21.2478   -7.6624  -12.8851 O   0  0  0  0  0  0  0  0  0  0  0  0
   21.5400   -8.7927  -13.6469 C   0  0  0  0  0  0  0  0  0  0  0  0
   20.5273   -9.0053  -14.7366 C   0  0  2  0  0  0  0  0  0  0  0  0
   20.7493  -10.1835  -15.5135 N   0  0  0  0  0  0  0  0  0  0  0  0
   20.4813   -7.8215  -15.6341 C   0  0  0  0  0  0  0  0  0  0  0  0
   21.2955   -7.6913  -16.6107 O   0  0  0  0  0  0  0  0  0  0  0  0
   19.5009   -6.8063  -15.3955 N   0  0  0  0  0  0  0  0  0  0  0  0
   19.4927   -5.6557  -16.2603 C   0  0  1  0  0  0  0  0  0  0  0  0
   18.4397   -5.7634  -17.3441 C   0  0  0  0  0  0  0  0  0  0  0  0
   18.2563   -4.2348  -18.2822 S   0  0  0  0  0  0  0  0  0  0  0  0
   19.1747   -4.4524  -15.4652 C   0  0  0  0  0  0  0  0  0  0  0  0
   18.7096   -4.5872  -14.3127 O   0  0  0  0  0  0  0  0  0  0  0  0
   19.3718   -3.1703  -15.9470 O   0  0  0  0  0  0  0  0  0  0  0  0
  2  1  1  6
  3  2  1  0
  4  5  1  6
  4  2  1  0
  6  4  1  0
  6  7  2  0
  8  9  1  0
 10  9  1  1
 10 11  1  0
 10 12  1  0
 11  6  1  0
 12 13  2  0
 12 14  1  0
 14 15  1  0
 15 18  1  0
 15 16  1  6
 17 16  1  0
 18 19  2  0
 18 20  1  0
M  END
$$$$
