VSC.pdb
     RDKit          3D

 20 19  0  0  1  0  0  0  0  0999 V2000
   21.6839  -13.7049  -18.1347 C   0  0  0  0  0  0  0  0  0  0  0  0
   21.2104  -12.3149  -17.8867 C   0  0  1  0  0  0  0  0  0  0  0  0
   20.9760  -11.6431  -19.2272 C   0  0  0  0  0  0  0  0  0  0  0  0
   19.9375  -12.2182  -17.1061 C   0  0  2  0  0  0  0  0  0  0  0  0
   18.9347  -13.0061  -17.7748 N   0  0  0  0  0  0  0  0  0  0  0  0
   19.5028  -10.8425  -16.8299 C   0  0  0  0  0  0  0  0  0  0  0  0
   19.0814  -10.1534  -17.7921 O   0  0  0  0  0  0  0  0  0  0  0  0
   17.0218   -9.3339  -14.3070 O   0  0  0  0  0  0  0  0  0  0  0  0
   18.2473   -8.7005  -14.1070 C   0  0  0  0  0  0  0  0  0  0  0  0
   19.1587   -8.8672  -15.2903 C   0  0  2  0  0  0  0  0  0  0  0  0
   19.5196  -10.2232  -15.5584 N   0  0  0  0  0  0  0  0  0  0  0  0
   20.3892   -8.0533  -15.1104 C   0  0  0  0  0  0  0  0  0  0  0  0
   21.4587   -8.5574  -14.6249 O   0  0  0  0  0  0  0  0  0  0  0  0
   20.3716   -6.6736  -15.4910 N   0  0  0  0  0  0  0  0  0  0  0  0
   21.5858   -5.9147  -15.3442 C   0  0  1  0  0  0  0  0  0  0  0  0
   21.6469   -4.7437  -16.3034 C   0  0  0  0  0  0  0  0  0  0  0  0
   22.9893   -3.6042  -15.9165 S   0  0  0  0  0  0  0  0  0  0  0  0
   21.6493   -5.3589  -13.9773 C   0  0  0  0  0  0  0  0  0  0  0  0
   20.6080   -4.9086  -13.4522 O   0  0  0  0  0  0  0  0  0  0  0  0
   22.8238   -5.3154  -13.2470 O   0  0  0  0  0  0  0  0  0  0  0  0
  2  1  1  6
  3  2  1  0
  4  5  1  6
  4  2  1  0
  6  4  1  0
  6  7  2  0
  8  9  1  0
 10  9  1  1
 10 11  1  0
 10 12  1  0
 11  6  1  0
 12 13  2  0
 12 14  1  0
 14 15  1  0
 15 18  1  0
 15 16  1  6
 17 16  1  0
 18 19  2  0
 18 20  1  0
M  END
$$$$
