VSC.pdb
     RDKit          3D

 20 19  0  0  1  0  0  0  0  0999 V2000
   16.7918   -9.7118  -16.1383 C   0  0  0  0  0  0  0  0  0  0  0  0
   17.0520  -11.0868  -15.6289 C   0  0  1  0  0  0  0  0  0  0  0  0
   15.8552  -11.9567  -15.9667 C   0  0  0  0  0  0  0  0  0  0  0  0
   18.2652  -11.7473  -16.2044 C   0  0  2  0  0  0  0  0  0  0  0  0
   18.3727  -13.0680  -15.6405 N   0  0  0  0  0  0  0  0  0  0  0  0
   19.4988  -10.9607  -16.0739 C   0  0  0  0  0  0  0  0  0  0  0  0
   20.0211  -10.8683  -14.9350 O   0  0  0  0  0  0  0  0  0  0  0  0
   23.2396   -8.5682  -18.1418 O   0  0  0  0  0  0  0  0  0  0  0  0
   22.0398   -9.2546  -18.3222 C   0  0  0  0  0  0  0  0  0  0  0  0
   21.3455   -9.5130  -17.0147 C   0  0  2  0  0  0  0  0  0  0  0  0
   20.1539  -10.2920  -17.1342 N   0  0  0  0  0  0  0  0  0  0  0  0
   21.0315   -8.2283  -16.3364 C   0  0  0  0  0  0  0  0  0  0  0  0
   19.9366   -7.6067  -16.5563 O   0  0  0  0  0  0  0  0  0  0  0  0
   21.9802   -7.6782  -15.4166 N   0  0  0  0  0  0  0  0  0  0  0  0
   21.6758   -6.4106  -14.8064 C   0  0  1  0  0  0  0  0  0  0  0  0
   22.4510   -6.1937  -13.5230 C   0  0  0  0  0  0  0  0  0  0  0  0
   22.0855   -4.6033  -12.7565 S   0  0  0  0  0  0  0  0  0  0  0  0
   22.0548   -5.3227  -15.7307 C   0  0  0  0  0  0  0  0  0  0  0  0
   23.0904   -5.4408  -16.4208 O   0  0  0  0  0  0  0  0  0  0  0  0
   21.3047   -4.1678  -15.8659 O   0  0  0  0  0  0  0  0  0  0  0  0
  2  1  1  6
  3  2  1  0
  4  5  1  1
  4  2  1  0
  6  4  1  0
  6  7  2  0
  8  9  1  0
 10  9  1  6
 10 11  1  0
 10 12  1  0
 11  6  1  0
 12 13  2  0
 12 14  1  0
 14 15  1  0
 15 18  1  0
 15 16  1  1
 17 16  1  0
 18 19  2  0
 18 20  1  0
M  END
$$$$
