VSC.pdb
     RDKit          3D

 20 19  0  0  1  0  0  0  0  0999 V2000
   33.4895  -35.3452   -4.1598 C   0  0  0  0  0  0  0  0  0  0  0  0
   33.0051  -34.5658   -5.3327 C   0  0  1  0  0  0  0  0  0  0  0  0
   33.7672  -35.0271   -6.5613 C   0  0  0  0  0  0  0  0  0  0  0  0
   31.5455  -34.7186   -5.6249 C   0  0  2  0  0  0  0  0  0  0  0  0
   31.2405  -33.9675   -6.8151 N   0  0  0  0  0  0  0  0  0  0  0  0
   30.6669  -34.3918   -4.4939 C   0  0  0  0  0  0  0  0  0  0  0  0
   30.2896  -33.2004   -4.3659 O   0  0  0  0  0  0  0  0  0  0  0  0
   26.9941  -34.7846   -1.8197 O   0  0  0  0  0  0  0  0  0  0  0  0
   27.8447  -35.1009   -2.8778 C   0  0  0  0  0  0  0  0  0  0  0  0
   29.2894  -35.0254   -2.4710 C   0  0  2  0  0  0  0  0  0  0  0  0
   30.2059  -35.3161   -3.5276 N   0  0  0  0  0  0  0  0  0  0  0  0
   29.5493  -35.9357   -1.3253 C   0  0  0  0  0  0  0  0  0  0  0  0
   29.6453  -37.2002   -1.4848 O   0  0  0  0  0  0  0  0  0  0  0  0
   29.6948  -35.3790   -0.0146 N   0  0  0  0  0  0  0  0  0  0  0  0
   30.0406  -36.2669    1.0641 C   0  0  1  0  0  0  0  0  0  0  0  0
   30.9213  -35.5947    2.0973 C   0  0  0  0  0  0  0  0  0  0  0  0
   32.4242  -34.9049    1.3791 S   0  0  0  0  0  0  0  0  0  0  0  0
   28.8079  -36.6931    1.7570 C   0  0  0  0  0  0  0  0  0  0  0  0
   27.7033  -36.2669    1.3557 O   0  0  0  0  0  0  0  0  0  0  0  0
   28.8246  -37.5523    2.8415 O   0  0  0  0  0  0  0  0  0  0  0  0
  2  1  1  1
  3  2  1  0
  4  5  1  6
  4  2  1  0
  6  4  1  0
  6  7  2  0
  8  9  1  0
 10  9  1  6
 10 11  1  0
 10 12  1  0
 11  6  1  0
 12 13  2  0
 12 14  1  0
 14 15  1  0
 15 18  1  0
 15 16  1  1
 17 16  1  0
 18 19  2  0
 18 20  1  0
M  END
$$$$
