VSC.pdb
     RDKit          3D

 20 19  0  0  1  0  0  0  0  0999 V2000
   17.1429  -13.6458  -14.7055 C   0  0  0  0  0  0  0  0  0  0  0  0
   17.6701  -12.2878  -15.0151 C   0  0  1  0  0  0  0  0  0  0  0  0
   19.0512  -12.4387  -15.6259 C   0  0  0  0  0  0  0  0  0  0  0  0
   16.8373  -11.4979  -15.9751 C   0  0  2  0  0  0  0  0  0  0  0  0
   16.5836  -12.3148  -17.1336 N   0  0  0  0  0  0  0  0  0  0  0  0
   17.3897  -10.1782  -16.3078 C   0  0  0  0  0  0  0  0  0  0  0  0
   18.1310  -10.0873  -17.3181 O   0  0  0  0  0  0  0  0  0  0  0  0
   15.6542   -6.6271  -15.0348 O   0  0  0  0  0  0  0  0  0  0  0  0
   16.4929   -6.6909  -16.1465 C   0  0  0  0  0  0  0  0  0  0  0  0
   17.6027   -7.6848  -15.9490 C   0  0  2  0  0  0  0  0  0  0  0  0
   17.1542   -8.9895  -15.5782 N   0  0  0  0  0  0  0  0  0  0  0  0
   18.5660   -7.1849  -14.9336 C   0  0  0  0  0  0  0  0  0  0  0  0
   18.5297   -7.5898  -13.7218 O   0  0  0  0  0  0  0  0  0  0  0  0
   19.5555   -6.2282  -15.3263 N   0  0  0  0  0  0  0  0  0  0  0  0
   20.4089   -5.6783  -14.3059 C   0  0  1  0  0  0  0  0  0  0  0  0
   21.8461   -6.1327  -14.4573 C   0  0  0  0  0  0  0  0  0  0  0  0
   22.9794   -5.1968  -13.4133 S   0  0  0  0  0  0  0  0  0  0  0  0
   20.4068   -4.2052  -14.4122 C   0  0  0  0  0  0  0  0  0  0  0  0
   20.1665   -3.6731  -15.5177 O   0  0  0  0  0  0  0  0  0  0  0  0
   20.6619   -3.3819  -13.3297 O   0  0  0  0  0  0  0  0  0  0  0  0
  2  1  1  6
  3  2  1  0
  4  5  1  6
  4  2  1  0
  6  4  1  0
  6  7  2  0
  8  9  1  0
 10  9  1  1
 10 11  1  0
 10 12  1  0
 11  6  1  0
 12 13  2  0
 12 14  1  0
 14 15  1  0
 15 18  1  0
 15 16  1  6
 17 16  1  0
 18 19  2  0
 18 20  1  0
M  END
$$$$
