QCL.pdb
     RDKit          3D

 24 23  0  0  1  0  0  0  0  0999 V2000
    9.8699  -17.5964   16.6921 N   0  0  0  0  0  0  0  0  0  0  0  0
    8.4991  -17.2788   16.8681 C   0  0  0  0  0  0  0  0  0  0  0  0
    8.0613  -16.2218   16.3869 O   0  0  0  0  0  0  0  0  0  0  0  0
    7.6328  -18.1996   17.6064 C   0  0  0  0  0  0  0  0  0  0  0  0
    7.1069  -17.7183   18.9047 C   0  0  0  0  0  0  0  0  0  0  0  0
    8.0442  -17.6787   20.0551 C   0  0  2  0  0  0  0  0  0  0  0  0
    8.7105  -18.9148   20.3591 N   0  0  0  0  0  0  0  0  0  0  0  0
    7.3996  -17.1046   21.2854 C   0  0  0  0  0  0  0  0  0  0  0  0
    6.6860  -16.0755   21.1556 O   0  0  0  0  0  0  0  0  0  0  0  0
    7.5838  -17.6939   22.5449 N   0  0  0  0  0  0  0  0  0  0  0  0
    6.9422  -17.1627   23.7457 C   0  0  1  0  0  0  0  0  0  0  0  0
    6.5215  -18.3456   24.6073 C   0  0  0  0  0  0  0  0  0  0  0  0
    8.0549  -19.2096   25.1053 S   0  0  0  0  0  0  0  0  0  0  0  0
    7.9478  -16.3747   24.5126 C   0  0  0  0  0  0  0  0  0  0  0  0
    9.1816  -16.4292   24.1847 O   0  0  0  0  0  0  0  0  0  0  0  0
    5.6909  -13.3012   26.0314 C   0  0  0  0  0  0  0  0  0  0  0  0
    7.0618  -12.7222   26.2002 C   0  0  1  0  0  0  0  0  0  0  0  0
    6.9453  -11.2847   26.6670 C   0  0  0  0  0  0  0  0  0  0  0  0
    8.0325  -13.5222   26.9646 C   0  0  0  0  0  0  0  0  0  0  0  0
    8.5200  -14.7979   26.3891 C   0  0  2  0  0  0  0  0  0  0  0  0
    7.5863  -15.5507   25.6128 N   0  0  0  0  0  0  0  0  0  0  0  0
    9.2616  -15.6364   27.3662 C   0  0  0  0  0  0  0  0  0  0  0  0
    8.9081  -16.9570   27.5526 O   0  0  0  0  0  0  0  0  0  0  0  0
   10.1905  -15.1443   28.0054 O   0  0  0  0  0  0  0  0  0  0  0  0
  1  2  1  0
  2  4  1  0
  3  2  2  0
  4  5  1  0
  6  7  1  1
  6  5  1  0
  8  6  1  0
  8  9  2  0
 10  8  1  0
 11 10  1  0
 11 14  1  0
 12 13  1  0
 11 12  1  1
 14 15  2  0
 14 21  1  0
 17 16  1  1
 17 18  1  0
 19 17  1  0
 20 19  1  1
 21 20  1  0
 22 23  1  0
 22 20  1  0
 24 22  2  0
M  END
$$$$
