QCL.pdb
     RDKit          3D

 24 23  0  0  1  0  0  0  0  0999 V2000
   56.7728   -2.6047   26.0303 N   0  0  0  0  0  0  0  0  0  0  0  0
   55.7212   -3.2536   26.7260 C   0  0  0  0  0  0  0  0  0  0  0  0
   54.7404   -3.6631   26.0849 O   0  0  0  0  0  0  0  0  0  0  0  0
   55.8144   -3.4293   28.1764 C   0  0  0  0  0  0  0  0  0  0  0  0
   55.4506   -4.7632   28.7076 C   0  0  0  0  0  0  0  0  0  0  0  0
   54.3568   -4.8306   29.7091 C   0  0  2  0  0  0  0  0  0  0  0  0
   53.2186   -5.6242   29.3365 N   0  0  0  0  0  0  0  0  0  0  0  0
   53.9274   -3.4642   30.1646 C   0  0  0  0  0  0  0  0  0  0  0  0
   54.5750   -2.4690   29.7463 O   0  0  0  0  0  0  0  0  0  0  0  0
   52.8370   -3.2962   31.0309 N   0  0  0  0  0  0  0  0  0  0  0  0
   51.5512   -3.9463   30.7867 C   0  0  1  0  0  0  0  0  0  0  0  0
   50.8907   -3.2384   29.6114 C   0  0  0  0  0  0  0  0  0  0  0  0
   49.8766   -4.4885   28.7425 S   0  0  0  0  0  0  0  0  0  0  0  0
   51.8019   -5.3593   30.3854 C   0  0  0  0  0  0  0  0  0  0  0  0
   52.8902   -5.9337   30.7297 O   0  0  0  0  0  0  0  0  0  0  0  0
   48.7643  -10.3363   28.3553 C   0  0  0  0  0  0  0  0  0  0  0  0
   50.0628   -9.6043   28.5009 C   0  0  1  0  0  0  0  0  0  0  0  0
   51.0793  -10.1902   27.5410 C   0  0  0  0  0  0  0  0  0  0  0  0
   50.0033   -8.1338   28.4844 C   0  0  0  0  0  0  0  0  0  0  0  0
   51.1569   -7.3644   29.0076 C   0  0  2  0  0  0  0  0  0  0  0  0
   50.8653   -6.1083   29.6226 N   0  0  0  0  0  0  0  0  0  0  0  0
   52.2913   -7.2855   28.0513 C   0  0  0  0  0  0  0  0  0  0  0  0
   53.2586   -8.2694   28.0434 O   0  0  0  0  0  0  0  0  0  0  0  0
   52.3601   -6.3383   27.2693 O   0  0  0  0  0  0  0  0  0  0  0  0
  1  2  1  0
  2  4  1  0
  3  2  2  0
  4  5  1  0
  6  7  1  6
  6  5  1  0
  8  6  1  0
  8  9  2  0
 10  8  1  0
 11 10  1  0
 11 14  1  0
 12 13  1  0
 11 12  1  6
 14 15  2  0
 14 21  1  0
 17 16  1  6
 17 18  1  0
 19 17  1  0
 20 19  1  6
 21 20  1  0
 22 23  1  0
 22 20  1  0
 24 22  2  0
M  END
$$$$
