QCL.pdb
     RDKit          3D

 24 23  0  0  1  0  0  0  0  0999 V2000
   13.6756  -15.1193   20.5433 N   0  0  0  0  0  0  0  0  0  0  0  0
   13.6304  -14.4148   19.3134 C   0  0  0  0  0  0  0  0  0  0  0  0
   14.6860  -14.2339   18.6861 O   0  0  0  0  0  0  0  0  0  0  0  0
   12.3474  -13.9209   18.8100 C   0  0  0  0  0  0  0  0  0  0  0  0
   11.1642  -14.1514   19.6707 C   0  0  0  0  0  0  0  0  0  0  0  0
   10.2507  -15.2620   19.3022 C   0  0  2  0  0  0  0  0  0  0  0  0
    9.6420  -15.1639   18.0045 N   0  0  0  0  0  0  0  0  0  0  0  0
    9.2123  -15.5097   20.3602 C   0  0  0  0  0  0  0  0  0  0  0  0
    8.0087  -15.2726   20.0767 O   0  0  0  0  0  0  0  0  0  0  0  0
    9.5676  -15.9912   21.6288 N   0  0  0  0  0  0  0  0  0  0  0  0
    8.5666  -16.2629   22.6582 C   0  0  1  0  0  0  0  0  0  0  0  0
    8.5196  -17.7699   22.8715 C   0  0  0  0  0  0  0  0  0  0  0  0
   10.2471  -18.3266   23.0985 S   0  0  0  0  0  0  0  0  0  0  0  0
    9.0142  -15.6357   23.9336 C   0  0  0  0  0  0  0  0  0  0  0  0
   10.2595  -15.4387   24.1416 O   0  0  0  0  0  0  0  0  0  0  0  0
    5.5424  -12.2325   26.5237 C   0  0  0  0  0  0  0  0  0  0  0  0
    6.7970  -12.8196   25.9540 C   0  0  1  0  0  0  0  0  0  0  0  0
    7.6237  -11.7182   25.3206 C   0  0  0  0  0  0  0  0  0  0  0  0
    7.5679  -13.7182   26.8284 C   0  0  0  0  0  0  0  0  0  0  0  0
    8.4882  -14.7023   26.2111 C   0  0  2  0  0  0  0  0  0  0  0  0
    8.0986  -15.2404   24.9462 N   0  0  0  0  0  0  0  0  0  0  0  0
    8.9526  -15.7466   27.1604 C   0  0  0  0  0  0  0  0  0  0  0  0
    8.8748  -17.0799   26.8140 O   0  0  0  0  0  0  0  0  0  0  0  0
    9.4057  -15.4129   28.2545 O   0  0  0  0  0  0  0  0  0  0  0  0
  1  2  1  0
  2  4  1  0
  3  2  2  0
  4  5  1  0
  6  7  1  6
  6  5  1  0
  8  6  1  0
  8  9  2  0
 10  8  1  0
 11 10  1  0
 11 14  1  0
 12 13  1  0
 11 12  1  1
 14 15  2  0
 14 21  1  0
 17 16  1  1
 17 18  1  0
 19 17  1  0
 20 19  1  1
 21 20  1  0
 22 23  1  0
 22 20  1  0
 24 22  2  0
M  END
$$$$
