QCL.pdb
     RDKit          3D

 24 23  0  0  1  0  0  0  0  0999 V2000
   10.3592  -12.8659   18.4892 N   0  0  0  0  0  0  0  0  0  0  0  0
    9.2285  -13.0431   17.6520 C   0  0  0  0  0  0  0  0  0  0  0  0
    9.3945  -13.1014   16.4233 O   0  0  0  0  0  0  0  0  0  0  0  0
    7.8969  -13.1562   18.2500 C   0  0  0  0  0  0  0  0  0  0  0  0
    7.7978  -13.9354   19.5056 C   0  0  0  0  0  0  0  0  0  0  0  0
    8.0552  -15.3955   19.4319 C   0  0  2  0  0  0  0  0  0  0  0  0
    7.1819  -16.1395   18.5670 N   0  0  0  0  0  0  0  0  0  0  0  0
    8.1167  -16.0246   20.7955 C   0  0  0  0  0  0  0  0  0  0  0  0
    7.0314  -16.2829   21.3789 O   0  0  0  0  0  0  0  0  0  0  0  0
    9.3451  -16.3180   21.4059 N   0  0  0  0  0  0  0  0  0  0  0  0
    9.4209  -16.9180   22.7362 C   0  0  1  0  0  0  0  0  0  0  0  0
   10.7757  -17.6023   22.8586 C   0  0  0  0  0  0  0  0  0  0  0  0
   10.9217  -18.1820   24.5873 S   0  0  0  0  0  0  0  0  0  0  0  0
    9.3665  -15.8293   23.7522 C   0  0  0  0  0  0  0  0  0  0  0  0
   10.0203  -14.7484   23.5603 O   0  0  0  0  0  0  0  0  0  0  0  0
    7.9960  -11.8445   26.7950 C   0  0  0  0  0  0  0  0  0  0  0  0
    7.0670  -13.0172   26.8656 C   0  0  1  0  0  0  0  0  0  0  0  0
    5.6390  -12.5202   26.9732 C   0  0  0  0  0  0  0  0  0  0  0  0
    7.2570  -14.0779   25.8630 C   0  0  0  0  0  0  0  0  0  0  0  0
    8.4840  -14.9071   25.9214 C   0  0  2  0  0  0  0  0  0  0  0  0
    8.6049  -15.9446   24.9467 N   0  0  0  0  0  0  0  0  0  0  0  0
    8.8153  -15.3682   27.2944 C   0  0  0  0  0  0  0  0  0  0  0  0
    9.4437  -14.5145   28.1776 O   0  0  0  0  0  0  0  0  0  0  0  0
    8.5253  -16.5141   27.6355 O   0  0  0  0  0  0  0  0  0  0  0  0
  1  2  1  0
  2  4  1  0
  3  2  2  0
  4  5  1  0
  6  7  1  6
  6  5  1  0
  8  6  1  0
  8  9  2  0
 10  8  1  0
 11 10  1  0
 11 14  1  0
 12 13  1  0
 11 12  1  6
 14 15  2  0
 14 21  1  0
 17 16  1  6
 17 18  1  0
 19 17  1  0
 20 19  1  1
 21 20  1  0
 22 23  1  0
 22 20  1  0
 24 22  2  0
M  END
$$$$
