QCL.pdb
     RDKit          3D

 24 23  0  0  1  0  0  0  0  0999 V2000
    8.4140  -19.7026   17.7944 N   0  0  0  0  0  0  0  0  0  0  0  0
    7.1892  -19.1987   17.2877 C   0  0  0  0  0  0  0  0  0  0  0  0
    6.9725  -19.2633   16.0673 O   0  0  0  0  0  0  0  0  0  0  0  0
    6.2098  -18.6190   18.2088 C   0  0  0  0  0  0  0  0  0  0  0  0
    6.5504  -18.6581   19.6496 C   0  0  0  0  0  0  0  0  0  0  0  0
    6.8210  -17.3659   20.3284 C   0  0  2  0  0  0  0  0  0  0  0  0
    7.3899  -16.3359   19.5040 N   0  0  0  0  0  0  0  0  0  0  0  0
    7.6265  -17.5488   21.5840 C   0  0  0  0  0  0  0  0  0  0  0  0
    7.3393  -18.5159   22.3372 O   0  0  0  0  0  0  0  0  0  0  0  0
    8.6698  -16.6706   21.9127 N   0  0  0  0  0  0  0  0  0  0  0  0
    9.4868  -16.8581   23.1097 C   0  0  1  0  0  0  0  0  0  0  0  0
   10.9301  -17.0419   22.6606 C   0  0  0  0  0  0  0  0  0  0  0  0
   11.0987  -16.1814   21.0554 S   0  0  0  0  0  0  0  0  0  0  0  0
    9.4192  -15.6163   23.9304 C   0  0  0  0  0  0  0  0  0  0  0  0
   10.0118  -14.5574   23.5299 O   0  0  0  0  0  0  0  0  0  0  0  0
    6.0146  -12.6918   26.3622 C   0  0  0  0  0  0  0  0  0  0  0  0
    7.2916  -13.1671   25.7406 C   0  0  1  0  0  0  0  0  0  0  0  0
    7.7559  -12.1550   24.7120 C   0  0  0  0  0  0  0  0  0  0  0  0
    8.3513  -13.6165   26.6579 C   0  0  0  0  0  0  0  0  0  0  0  0
    9.1469  -14.8148   26.3008 C   0  0  2  0  0  0  0  0  0  0  0  0
    8.7112  -15.5588   25.1615 N   0  0  0  0  0  0  0  0  0  0  0  0
    9.4579  -15.6811   27.4671 C   0  0  0  0  0  0  0  0  0  0  0  0
    9.2109  -17.0372   27.4066 O   0  0  0  0  0  0  0  0  0  0  0  0
    9.9361  -15.1801   28.4839 O   0  0  0  0  0  0  0  0  0  0  0  0
  1  2  1  0
  2  4  1  0
  3  2  2  0
  4  5  1  0
  6  7  1  6
  6  5  1  0
  8  6  1  0
  8  9  2  0
 10  8  1  0
 11 10  1  0
 11 14  1  0
 12 13  1  0
 11 12  1  6
 14 15  2  0
 14 21  1  0
 17 16  1  1
 17 18  1  0
 19 17  1  0
 20 19  1  1
 21 20  1  0
 22 23  1  0
 22 20  1  0
 24 22  2  0
M  END
$$$$
