QCL.pdb
     RDKit          3D

 24 23  0  0  1  0  0  0  0  0999 V2000
   10.0294  -17.8380   15.8779 N   0  0  0  0  0  0  0  0  0  0  0  0
    9.1833  -18.6800   16.6434 C   0  0  0  0  0  0  0  0  0  0  0  0
    8.2956  -19.3256   16.0640 O   0  0  0  0  0  0  0  0  0  0  0  0
    9.3746  -18.7727   18.0919 C   0  0  0  0  0  0  0  0  0  0  0  0
   10.5486  -18.0648   18.6524 C   0  0  0  0  0  0  0  0  0  0  0  0
   10.7516  -18.1244   20.1218 C   0  0  2  0  0  0  0  0  0  0  0  0
   11.0606  -19.4217   20.6562 N   0  0  0  0  0  0  0  0  0  0  0  0
    9.6106  -17.4971   20.8724 C   0  0  0  0  0  0  0  0  0  0  0  0
    9.2281  -16.3505   20.5200 O   0  0  0  0  0  0  0  0  0  0  0  0
    8.9856  -18.1649   21.9358 N   0  0  0  0  0  0  0  0  0  0  0  0
    7.7790  -17.6409   22.5724 C   0  0  1  0  0  0  0  0  0  0  0  0
    7.0277  -18.8181   23.1795 C   0  0  0  0  0  0  0  0  0  0  0  0
    5.7193  -18.1167   24.2481 S   0  0  0  0  0  0  0  0  0  0  0  0
    8.1835  -16.7357   23.6847 C   0  0  0  0  0  0  0  0  0  0  0  0
    9.2241  -17.0046   24.3759 O   0  0  0  0  0  0  0  0  0  0  0  0
    7.0758  -10.9842   25.8994 C   0  0  0  0  0  0  0  0  0  0  0  0
    7.3949  -12.4191   26.1867 C   0  0  1  0  0  0  0  0  0  0  0  0
    6.8943  -12.7768   27.5720 C   0  0  0  0  0  0  0  0  0  0  0  0
    7.0375  -13.4007   25.1499 C   0  0  0  0  0  0  0  0  0  0  0  0
    7.8079  -14.6638   25.0636 C   0  0  2  0  0  0  0  0  0  0  0  0
    7.4480  -15.5653   24.0152 N   0  0  0  0  0  0  0  0  0  0  0  0
    7.9682  -15.3436   26.3751 C   0  0  0  0  0  0  0  0  0  0  0  0
    6.9519  -16.1323   26.8738 O   0  0  0  0  0  0  0  0  0  0  0  0
    9.0117  -15.1975   27.0100 O   0  0  0  0  0  0  0  0  0  0  0  0
  1  2  1  0
  2  4  1  0
  3  2  2  0
  4  5  1  0
  6  7  1  1
  6  5  1  0
  8  6  1  0
  8  9  2  0
 10  8  1  0
 11 10  1  0
 11 14  1  0
 12 13  1  0
 11 12  1  1
 14 15  2  0
 14 21  1  0
 17 16  1  6
 17 18  1  0
 19 17  1  0
 20 19  1  1
 21 20  1  0
 22 23  1  0
 22 20  1  0
 24 22  2  0
M  END
$$$$
