QCL.pdb
     RDKit          3D

 24 23  0  0  1  0  0  0  0  0999 V2000
    7.4760  -15.5998   15.8151 N   0  0  0  0  0  0  0  0  0  0  0  0
    8.0806  -14.3236   15.6869 C   0  0  0  0  0  0  0  0  0  0  0  0
    8.5792  -14.0023   14.5966 O   0  0  0  0  0  0  0  0  0  0  0  0
    8.1017  -13.4151   16.8348 C   0  0  0  0  0  0  0  0  0  0  0  0
    7.6016  -13.9575   18.1191 C   0  0  0  0  0  0  0  0  0  0  0  0
    8.4384  -13.7482   19.3273 C   0  0  2  0  0  0  0  0  0  0  0  0
    9.8503  -13.9457   19.1495 N   0  0  0  0  0  0  0  0  0  0  0  0
    7.9342  -14.5366   20.5033 C   0  0  0  0  0  0  0  0  0  0  0  0
    6.7088  -14.4653   20.7835 O   0  0  0  0  0  0  0  0  0  0  0  0
    8.7990  -15.3309   21.2705 N   0  0  0  0  0  0  0  0  0  0  0  0
    8.3248  -16.0969   22.4211 C   0  0  1  0  0  0  0  0  0  0  0  0
    8.9700  -17.4748   22.3574 C   0  0  0  0  0  0  0  0  0  0  0  0
   10.7777  -17.2093   22.2711 S   0  0  0  0  0  0  0  0  0  0  0  0
    8.7994  -15.4283   23.6653 C   0  0  0  0  0  0  0  0  0  0  0  0
    9.8966  -14.7734   23.6553 O   0  0  0  0  0  0  0  0  0  0  0  0
    5.8012  -12.1653   26.2197 C   0  0  0  0  0  0  0  0  0  0  0  0
    7.1102  -12.7819   25.8330 C   0  0  1  0  0  0  0  0  0  0  0  0
    8.1199  -11.6850   25.5589 C   0  0  0  0  0  0  0  0  0  0  0  0
    7.6184  -13.8604   26.6959 C   0  0  0  0  0  0  0  0  0  0  0  0
    8.5052  -14.8913   26.1066 C   0  0  2  0  0  0  0  0  0  0  0  0
    8.0707  -15.4894   24.8840 N   0  0  0  0  0  0  0  0  0  0  0  0
    8.9810  -15.8913   27.0972 C   0  0  0  0  0  0  0  0  0  0  0  0
    8.8761  -17.2395   26.8237 O   0  0  0  0  0  0  0  0  0  0  0  0
    9.4678  -15.5075   28.1600 O   0  0  0  0  0  0  0  0  0  0  0  0
  1  2  1  0
  2  4  1  0
  3  2  2  0
  4  5  1  0
  6  7  1  6
  6  5  1  0
  8  6  1  0
  8  9  2  0
 10  8  1  0
 11 10  1  0
 11 14  1  0
 12 13  1  0
 11 12  1  6
 14 15  2  0
 14 21  1  0
 17 16  1  1
 17 18  1  0
 19 17  1  0
 20 19  1  1
 21 20  1  0
 22 23  1  0
 22 20  1  0
 24 22  2  0
M  END
$$$$
