QCL.pdb
     RDKit          3D

 24 23  0  0  1  0  0  0  0  0999 V2000
    8.1058  -18.5709   16.7996 N   0  0  0  0  0  0  0  0  0  0  0  0
    8.1072  -19.5656   17.8102 C   0  0  0  0  0  0  0  0  0  0  0  0
    7.2789  -20.4877   17.7460 O   0  0  0  0  0  0  0  0  0  0  0  0
    9.0814  -19.4872   18.9004 C   0  0  0  0  0  0  0  0  0  0  0  0
   10.0112  -18.3346   18.8772 C   0  0  0  0  0  0  0  0  0  0  0  0
   10.4254  -17.7578   20.1808 C   0  0  2  0  0  0  0  0  0  0  0  0
   11.2662  -18.5930   20.9930 N   0  0  0  0  0  0  0  0  0  0  0  0
    9.2501  -17.2557   20.9717 C   0  0  0  0  0  0  0  0  0  0  0  0
    8.5138  -16.3791   20.4478 O   0  0  0  0  0  0  0  0  0  0  0  0
    8.9761  -17.7458   22.2571 N   0  0  0  0  0  0  0  0  0  0  0  0
    7.8034  -17.3122   23.0136 C   0  0  1  0  0  0  0  0  0  0  0  0
    7.3442  -18.4858   23.8682 C   0  0  0  0  0  0  0  0  0  0  0  0
    8.7440  -18.9247   24.9608 S   0  0  0  0  0  0  0  0  0  0  0  0
    8.2106  -16.2114   23.9317 C   0  0  0  0  0  0  0  0  0  0  0  0
    9.4484  -16.0224   24.1868 O   0  0  0  0  0  0  0  0  0  0  0  0
    7.6275  -11.0439   25.9670 C   0  0  0  0  0  0  0  0  0  0  0  0
    6.8624  -12.1575   26.6132 C   0  0  1  0  0  0  0  0  0  0  0  0
    5.6722  -11.5834   27.3560 C   0  0  0  0  0  0  0  0  0  0  0  0
    6.5371  -13.3187   25.7694 C   0  0  0  0  0  0  0  0  0  0  0  0
    7.6105  -14.2844   25.4354 C   0  0  2  0  0  0  0  0  0  0  0  0
    7.2639  -15.3478   24.5464 N   0  0  0  0  0  0  0  0  0  0  0  0
    8.3673  -14.7542   26.6245 C   0  0  0  0  0  0  0  0  0  0  0  0
    9.4645  -14.0461   27.0700 O   0  0  0  0  0  0  0  0  0  0  0  0
    8.0081  -15.7770   27.2064 O   0  0  0  0  0  0  0  0  0  0  0  0
  1  2  1  0
  2  4  1  0
  3  2  2  0
  4  5  1  0
  6  7  1  1
  6  5  1  0
  8  6  1  0
  8  9  2  0
 10  8  1  0
 11 10  1  0
 11 14  1  0
 12 13  1  0
 11 12  1  1
 14 15  2  0
 14 21  1  0
 17 16  1  6
 17 18  1  0
 19 17  1  0
 20 19  1  1
 21 20  1  0
 22 23  1  0
 22 20  1  0
 24 22  2  0
M  END
$$$$
