QCL.pdb
     RDKit          3D

 24 23  0  0  1  0  0  0  0  0999 V2000
    9.2238  -22.7697   19.0841 N   0  0  0  0  0  0  0  0  0  0  0  0
    9.0909  -21.3882   18.7933 C   0  0  0  0  0  0  0  0  0  0  0  0
    9.5410  -20.9545   17.7210 O   0  0  0  0  0  0  0  0  0  0  0  0
    8.4270  -20.5075   19.7561 C   0  0  0  0  0  0  0  0  0  0  0  0
    9.2574  -19.9992   20.8722 C   0  0  0  0  0  0  0  0  0  0  0  0
    8.6415  -19.0127   21.7949 C   0  0  2  0  0  0  0  0  0  0  0  0
    7.2287  -19.1590   22.0109 N   0  0  0  0  0  0  0  0  0  0  0  0
    8.9782  -17.5990   21.4119 C   0  0  0  0  0  0  0  0  0  0  0  0
   10.1722  -17.3338   21.1133 O   0  0  0  0  0  0  0  0  0  0  0  0
    7.9948  -16.5991   21.3860 N   0  0  0  0  0  0  0  0  0  0  0  0
    8.3197  -15.2059   21.0875 C   0  0  1  0  0  0  0  0  0  0  0  0
    7.0809  -14.5618   20.4800 C   0  0  0  0  0  0  0  0  0  0  0  0
    7.5220  -12.8300   20.0899 S   0  0  0  0  0  0  0  0  0  0  0  0
    8.6182  -14.5030   22.3670 C   0  0  0  0  0  0  0  0  0  0  0  0
    9.2033  -13.3672   22.3461 O   0  0  0  0  0  0  0  0  0  0  0  0
    8.2719  -11.6028   26.5142 C   0  0  0  0  0  0  0  0  0  0  0  0
    7.2697  -12.7155   26.4862 C   0  0  1  0  0  0  0  0  0  0  0  0
    5.9273  -12.1935   26.9589 C   0  0  0  0  0  0  0  0  0  0  0  0
    7.1993  -13.5168   25.2537 C   0  0  0  0  0  0  0  0  0  0  0  0
    8.3697  -14.3392   24.8663 C   0  0  2  0  0  0  0  0  0  0  0  0
    8.2735  -15.0521   23.6318 N   0  0  0  0  0  0  0  0  0  0  0  0
    8.8882  -15.1805   25.9758 C   0  0  0  0  0  0  0  0  0  0  0  0
   10.0047  -14.7823   26.6819 O   0  0  0  0  0  0  0  0  0  0  0  0
    8.3151  -16.2319   26.2583 O   0  0  0  0  0  0  0  0  0  0  0  0
  1  2  1  0
  2  4  1  0
  3  2  2  0
  4  5  1  0
  6  7  1  6
  6  5  1  0
  8  6  1  0
  8  9  2  0
 10  8  1  0
 11 10  1  0
 11 14  1  0
 12 13  1  0
 11 12  1  1
 14 15  2  0
 14 21  1  0
 17 16  1  6
 17 18  1  0
 19 17  1  0
 20 19  1  1
 21 20  1  0
 22 23  1  0
 22 20  1  0
 24 22  2  0
M  END
$$$$
