QCL.pdb
     RDKit          3D

 24 23  0  0  1  0  0  0  0  0999 V2000
    7.8908  -12.8811   16.8108 N   0  0  0  0  0  0  0  0  0  0  0  0
    8.6004  -13.9647   16.2337 C   0  0  0  0  0  0  0  0  0  0  0  0
    8.7721  -13.9831   15.0046 O   0  0  0  0  0  0  0  0  0  0  0  0
    9.1158  -15.0313   17.0940 C   0  0  0  0  0  0  0  0  0  0  0  0
    8.8093  -14.9242   18.5390 C   0  0  0  0  0  0  0  0  0  0  0  0
    9.4530  -15.9004   19.4536 C   0  0  2  0  0  0  0  0  0  0  0  0
    9.8813  -17.1316   18.8497 N   0  0  0  0  0  0  0  0  0  0  0  0
    8.6131  -16.1681   20.6708 C   0  0  0  0  0  0  0  0  0  0  0  0
    7.4063  -16.4839   20.5007 O   0  0  0  0  0  0  0  0  0  0  0  0
    9.1525  -16.0705   21.9620 N   0  0  0  0  0  0  0  0  0  0  0  0
    8.3972  -16.4761   23.1455 C   0  0  1  0  0  0  0  0  0  0  0  0
    8.3358  -17.9976   23.1561 C   0  0  0  0  0  0  0  0  0  0  0  0
   10.0633  -18.5974   23.1141 S   0  0  0  0  0  0  0  0  0  0  0  0
    9.1455  -16.0416   24.3586 C   0  0  0  0  0  0  0  0  0  0  0  0
   10.3926  -15.7763   24.2744 O   0  0  0  0  0  0  0  0  0  0  0  0
    6.3980  -12.7181   27.1691 C   0  0  0  0  0  0  0  0  0  0  0  0
    7.7479  -13.1861   26.7199 C   0  0  1  0  0  0  0  0  0  0  0  0
    8.6540  -11.9872   26.5212 C   0  0  0  0  0  0  0  0  0  0  0  0
    8.3633  -14.2794   27.4895 C   0  0  0  0  0  0  0  0  0  0  0  0
    9.1426  -15.3129   26.7677 C   0  0  2  0  0  0  0  0  0  0  0  0
    8.5197  -15.9073   25.6276 N   0  0  0  0  0  0  0  0  0  0  0  0
    9.7635  -16.3163   27.6707 C   0  0  0  0  0  0  0  0  0  0  0  0
   10.6249  -15.9091   28.6686 O   0  0  0  0  0  0  0  0  0  0  0  0
    9.5034  -17.5094   27.5211 O   0  0  0  0  0  0  0  0  0  0  0  0
  1  2  1  0
  2  4  1  0
  3  2  2  0
  4  5  1  0
  6  7  1  6
  6  5  1  0
  8  6  1  0
  8  9  2  0
 10  8  1  0
 11 10  1  0
 11 14  1  0
 12 13  1  0
 11 12  1  1
 14 15  2  0
 14 21  1  0
 17 16  1  1
 17 18  1  0
 19 17  1  0
 20 19  1  1
 21 20  1  0
 22 23  1  0
 22 20  1  0
 24 22  2  0
M  END
$$$$
