RCH.pdb
     RDKit          3D

 28 28  0  0  1  0  0  0  0  0999 V2000
   28.1329  -23.4115  -17.3089 N   0  0  0  0  0  0  0  0  0  0  0  0
   28.3569  -24.7555  -16.9568 C   0  0  0  0  0  0  0  0  0  0  0  0
   29.3333  -25.4597  -17.4377 N   0  0  0  0  0  0  0  0  0  0  0  0
   27.4735  -25.3605  -16.0359 N   0  0  0  0  0  0  0  0  0  0  0  0
   26.2471  -24.6397  -15.6663 C   0  0  0  0  0  0  0  0  0  0  0  0
   25.0639  -25.4117  -16.1630 C   0  0  0  0  0  0  0  0  0  0  0  0
   23.7748  -24.6912  -16.0150 C   0  0  0  0  0  0  0  0  0  0  0  0
   23.1259  -24.7172  -14.6719 C   0  0  2  0  0  0  0  0  0  0  0  0
   23.2497  -25.9623  -13.9991 N   0  0  0  0  0  0  0  0  0  0  0  0
   21.6850  -24.3420  -14.8620 C   0  0  0  0  0  0  0  0  0  0  0  0
   21.4640  -23.3459  -15.5983 O   0  0  0  0  0  0  0  0  0  0  0  0
   29.4166  -26.4769  -17.2295 N   0  0  0  0  0  0  0  0  0  0  0  0
   20.6516  -25.0841  -14.2366 C   0  0  1  0  0  0  0  0  0  0  0  0
   19.3015  -24.6110  -14.3201 C   0  0  0  0  0  0  0  0  0  0  0  0
   18.3690  -25.5513  -13.5884 S   0  0  0  0  0  0  0  0  0  0  0  0
   18.9072  -25.9111  -11.9116 C   0  0  0  0  0  0  0  0  0  0  0  0
   19.1581  -23.2148  -13.8354 O   0  0  0  0  0  0  0  0  0  0  0  0
   19.8685  -22.8221  -12.8729 N   0  0  0  0  0  0  0  0  0  0  0  0
   18.2658  -22.2839  -14.3893 C   0  0  1  0  0  0  0  0  0  0  0  0
   18.1118  -20.9157  -14.0399 C   0  0  0  0  0  0  0  0  0  0  0  0
   18.9337  -19.9230  -14.7709 C   0  0  0  0  0  0  0  0  0  0  0  0
   20.3658  -19.8730  -14.4100 C   0  0  0  0  0  0  0  0  0  0  0  0
   20.9712  -19.7491  -13.1886 N   0  0  0  0  0  0  0  0  0  0  0  0
   22.3029  -19.7416  -13.3538 C   0  0  0  0  0  0  0  0  0  0  0  0
   22.5377  -19.8588  -14.6616 N   0  0  0  0  0  0  0  0  0  0  0  0
   21.3777  -19.9390  -15.3099 C   0  0  0  0  0  0  0  0  0  0  0  0
   16.6788  -20.5435  -14.3396 O   0  0  0  0  0  0  0  0  0  0  0  0
   16.0418  -19.5319  -13.6367 O   0  0  0  0  0  0  0  0  0  0  0  0
  2  4  1  0
  2  1  1  0
  3  2  2  0
  5  6  1  0
  5  4  1  0
  7  6  1  0
  8  7  1  0
  8  9  1  6
 10 11  2  0
 10  8  1  0
 12 10  1  0
 13 12  1  0
 13 14  1  6
 15 14  1  0
 16 13  1  0
 16 18  1  0
 17 16  2  0
 19 18  1  0
 19 20  1  1
 20 21  1  0
 21 22  2  0
 21 25  1  0
 22 23  1  0
 23 24  1  0
 25 24  2  0
 26 19  1  0
 27 26  1  0
 28 26  2  0
M  END
$$$$
