RCH.pdb
     RDKit          3D

 28 28  0  0  1  0  0  0  0  0999 V2000
   23.5295  -32.9765  -18.1329 N   0  0  0  0  0  0  0  0  0  0  0  0
   24.4484  -33.8137  -18.7927 C   0  0  0  0  0  0  0  0  0  0  0  0
   24.3247  -34.1591  -20.0361 N   0  0  0  0  0  0  0  0  0  0  0  0
   25.5554  -34.2973  -18.0613 N   0  0  0  0  0  0  0  0  0  0  0  0
   25.7263  -33.8478  -16.6725 C   0  0  0  0  0  0  0  0  0  0  0  0
   26.8992  -34.5609  -16.0740 C   0  0  0  0  0  0  0  0  0  0  0  0
   27.1628  -34.1964  -14.6596 C   0  0  0  0  0  0  0  0  0  0  0  0
   27.1388  -32.7462  -14.3102 C   0  0  2  0  0  0  0  0  0  0  0  0
   28.2513  -32.0174  -14.8098 N   0  0  0  0  0  0  0  0  0  0  0  0
   27.0492  -32.6459  -12.8152 C   0  0  0  0  0  0  0  0  0  0  0  0
   27.7635  -31.7621  -12.2750 O   0  0  0  0  0  0  0  0  0  0  0  0
   25.0251  -34.7788  -20.4946 N   0  0  0  0  0  0  0  0  0  0  0  0
   26.2006  -33.5097  -12.0779 C   0  0  2  0  0  0  0  0  0  0  0  0
   25.9564  -33.2356  -10.6927 C   0  0  0  0  0  0  0  0  0  0  0  0
   25.3222  -31.8716  -10.5308 S   0  0  0  0  0  0  0  0  0  0  0  0
   24.8873  -31.4963   -8.8276 C   0  0  0  0  0  0  0  0  0  0  0  0
   25.1461  -34.2943  -10.0387 O   0  0  0  0  0  0  0  0  0  0  0  0
   24.0498  -34.6364  -10.5548 N   0  0  0  0  0  0  0  0  0  0  0  0
   25.5277  -34.9530   -8.8597 C   0  0  1  0  0  0  0  0  0  0  0  0
   24.8526  -36.0160   -8.2024 C   0  0  0  0  0  0  0  0  0  0  0  0
   25.3757  -37.3883   -8.3989 C   0  0  0  0  0  0  0  0  0  0  0  0
   25.1197  -37.9983   -9.7202 C   0  0  0  0  0  0  0  0  0  0  0  0
   25.9853  -38.3456  -10.7221 N   0  0  0  0  0  0  0  0  0  0  0  0
   25.2907  -38.8627  -11.7472 C   0  0  0  0  0  0  0  0  0  0  0  0
   24.0031  -38.8429  -11.3997 N   0  0  0  0  0  0  0  0  0  0  0  0
   23.8862  -38.3239  -10.1793 C   0  0  0  0  0  0  0  0  0  0  0  0
   24.9635  -35.7569   -6.7183 O   0  0  0  0  0  0  0  0  0  0  0  0
   25.9216  -34.8902   -6.2144 O   0  0  0  0  0  0  0  0  0  0  0  0
  2  4  1  0
  2  1  1  0
  3  2  2  0
  5  6  1  0
  5  4  1  0
  7  6  1  0
  8  7  1  0
  8  9  1  1
 10 11  2  0
 10  8  1  0
 12 10  1  0
 13 12  1  0
 13 14  1  6
 15 14  1  0
 16 13  1  0
 16 18  1  0
 17 16  2  0
 19 18  1  0
 19 20  1  1
 20 21  1  0
 21 22  2  0
 21 25  1  0
 22 23  1  0
 23 24  1  0
 25 24  2  0
 26 19  1  0
 27 26  1  0
 28 26  2  0
M  END
$$$$
