RCH.pdb
     RDKit          3D

 28 28  0  0  1  0  0  0  0  0999 V2000
   21.5434  -18.2796  -14.2541 N   0  0  0  0  0  0  0  0  0  0  0  0
   21.2311  -18.2808  -15.6264 C   0  0  0  0  0  0  0  0  0  0  0  0
   20.2883  -19.0094  -16.1369 N   0  0  0  0  0  0  0  0  0  0  0  0
   21.9833  -17.4471  -16.4829 N   0  0  0  0  0  0  0  0  0  0  0  0
   22.8241  -16.4026  -15.8810 C   0  0  0  0  0  0  0  0  0  0  0  0
   24.2215  -16.9241  -15.7467 C   0  0  0  0  0  0  0  0  0  0  0  0
   25.2016  -15.9013  -15.3040 C   0  0  0  0  0  0  0  0  0  0  0  0
   26.1072  -15.3264  -16.3410 C   0  0  2  0  0  0  0  0  0  0  0  0
   27.2645  -16.1115  -16.5907 N   0  0  0  0  0  0  0  0  0  0  0  0
   26.4748  -13.9403  -15.8975 C   0  0  0  0  0  0  0  0  0  0  0  0
   27.4195  -13.8551  -15.0707 O   0  0  0  0  0  0  0  0  0  0  0  0
   20.1282  -19.0387  -17.1657 N   0  0  0  0  0  0  0  0  0  0  0  0
   25.7815  -12.8091  -16.3969 C   0  0  2  0  0  0  0  0  0  0  0  0
   26.2216  -11.4975  -16.0230 C   0  0  0  0  0  0  0  0  0  0  0  0
   27.6497  -11.2751  -16.4704 S   0  0  0  0  0  0  0  0  0  0  0  0
   28.2520   -9.6219  -16.1030 C   0  0  0  0  0  0  0  0  0  0  0  0
   25.3201  -10.4308  -16.5274 O   0  0  0  0  0  0  0  0  0  0  0  0
   25.0169  -10.4090  -17.7492 N   0  0  0  0  0  0  0  0  0  0  0  0
   24.7718   -9.4245  -15.7174 C   0  0  1  0  0  0  0  0  0  0  0  0
   23.8406   -8.4197  -16.0931 C   0  0  0  0  0  0  0  0  0  0  0  0
   22.8342   -8.0049  -15.0879 C   0  0  0  0  0  0  0  0  0  0  0  0
   21.7318   -8.9574  -14.8408 C   0  0  0  0  0  0  0  0  0  0  0  0
   21.4611  -10.1717  -15.4116 N   0  0  0  0  0  0  0  0  0  0  0  0
   20.3395  -10.6737  -14.8723 C   0  0  0  0  0  0  0  0  0  0  0  0
   19.9057   -9.7897  -13.9726 N   0  0  0  0  0  0  0  0  0  0  0  0
   20.7366   -8.7498  -13.9438 C   0  0  0  0  0  0  0  0  0  0  0  0
   24.6372   -7.1726  -16.3963 O   0  0  0  0  0  0  0  0  0  0  0  0
   24.0285   -6.0505  -16.9379 O   0  0  0  0  0  0  0  0  0  0  0  0
  2  4  1  0
  2  1  1  0
  3  2  2  0
  5  6  1  0
  5  4  1  0
  7  6  1  0
  8  7  1  0
  8  9  1  1
 10 11  2  0
 10  8  1  0
 12 10  1  0
 13 12  1  0
 13 14  1  6
 15 14  1  0
 16 13  1  0
 16 18  1  0
 17 16  2  0
 19 18  1  0
 19 20  1  6
 20 21  1  0
 21 22  2  0
 21 25  1  0
 22 23  1  0
 23 24  1  0
 25 24  2  0
 26 19  1  0
 27 26  1  0
 28 26  2  0
M  END
$$$$
