RCH.pdb
     RDKit          3D

 28 28  0  0  1  0  0  0  0  0999 V2000
   29.1546  -23.9920  -16.5068 N   0  0  0  0  0  0  0  0  0  0  0  0
   28.4256  -24.3094  -17.6680 C   0  0  0  0  0  0  0  0  0  0  0  0
   27.1830  -24.6781  -17.6447 N   0  0  0  0  0  0  0  0  0  0  0  0
   29.0834  -24.2203  -18.9144 N   0  0  0  0  0  0  0  0  0  0  0  0
   30.4632  -23.7147  -18.9424 C   0  0  0  0  0  0  0  0  0  0  0  0
   30.7943  -23.2895  -20.3397 C   0  0  0  0  0  0  0  0  0  0  0  0
   30.4184  -21.8861  -20.6427 C   0  0  0  0  0  0  0  0  0  0  0  0
   31.3401  -20.8127  -20.1692 C   0  0  2  0  0  0  0  0  0  0  0  0
   32.4408  -21.2949  -19.4114 N   0  0  0  0  0  0  0  0  0  0  0  0
   30.5212  -19.8345  -19.3781 C   0  0  0  0  0  0  0  0  0  0  0  0
   30.4626  -20.0362  -18.1375 O   0  0  0  0  0  0  0  0  0  0  0  0
   26.7043  -25.0112  -18.5077 N   0  0  0  0  0  0  0  0  0  0  0  0
   29.8618  -18.7541  -20.0167 C   0  0  2  0  0  0  0  0  0  0  0  0
   29.1736  -17.7839  -19.2175 C   0  0  0  0  0  0  0  0  0  0  0  0
   29.8392  -16.4311  -19.3445 S   0  0  0  0  0  0  0  0  0  0  0  0
   28.9168  -15.1155  -18.5388 C   0  0  0  0  0  0  0  0  0  0  0  0
   27.7251  -17.7105  -19.5359 O   0  0  0  0  0  0  0  0  0  0  0  0
   27.3630  -17.6407  -20.7397 N   0  0  0  0  0  0  0  0  0  0  0  0
   26.7113  -17.7139  -18.5654 C   0  0  1  0  0  0  0  0  0  0  0  0
   25.3069  -17.6939  -18.7778 C   0  0  0  0  0  0  0  0  0  0  0  0
   24.4455  -18.3004  -17.7359 C   0  0  0  0  0  0  0  0  0  0  0  0
   24.5848  -19.7591  -17.5458 C   0  0  0  0  0  0  0  0  0  0  0  0
   25.3148  -20.6815  -18.2460 N   0  0  0  0  0  0  0  0  0  0  0  0
   25.1233  -21.8965  -17.7097 C   0  0  0  0  0  0  0  0  0  0  0  0
   24.2836  -21.7461  -16.6843 N   0  0  0  0  0  0  0  0  0  0  0  0
   23.9512  -20.4616  -16.5746 C   0  0  0  0  0  0  0  0  0  0  0  0
   24.8922  -16.2427  -18.8415 O   0  0  0  0  0  0  0  0  0  0  0  0
   23.6496  -15.8763  -19.3363 O   0  0  0  0  0  0  0  0  0  0  0  0
  2  4  1  0
  2  1  1  0
  3  2  2  0
  5  6  1  0
  5  4  1  0
  7  6  1  0
  8  7  1  0
  8  9  1  1
 10 11  2  0
 10  8  1  0
 12 10  1  0
 13 12  1  0
 13 14  1  6
 15 14  1  0
 16 13  1  0
 16 18  1  0
 17 16  2  0
 19 18  1  0
 19 20  1  6
 20 21  1  0
 21 22  2  0
 21 25  1  0
 22 23  1  0
 23 24  1  0
 25 24  2  0
 26 19  1  0
 27 26  1  0
 28 26  2  0
M  END
$$$$
