RCH.pdb
     RDKit          3D

 28 28  0  0  1  0  0  0  0  0999 V2000
   19.1000  -25.3094  -15.9828 N   0  0  0  0  0  0  0  0  0  0  0  0
   18.8313  -24.6337  -14.7779 C   0  0  0  0  0  0  0  0  0  0  0  0
   18.1969  -25.1785  -13.7873 N   0  0  0  0  0  0  0  0  0  0  0  0
   19.2757  -23.2997  -14.6472 N   0  0  0  0  0  0  0  0  0  0  0  0
   19.8684  -22.6418  -15.8203 C   0  0  0  0  0  0  0  0  0  0  0  0
   21.0352  -21.8161  -15.3740 C   0  0  0  0  0  0  0  0  0  0  0  0
   21.8909  -22.4868  -14.3636 C   0  0  0  0  0  0  0  0  0  0  0  0
   21.8229  -21.9785  -12.9626 C   0  0  2  0  0  0  0  0  0  0  0  0
   20.5985  -21.3313  -12.6460 N   0  0  0  0  0  0  0  0  0  0  0  0
   22.9925  -21.0595  -12.7611 C   0  0  0  0  0  0  0  0  0  0  0  0
   22.7971  -19.8462  -13.0310 O   0  0  0  0  0  0  0  0  0  0  0  0
   17.9959  -24.6427  -12.9171 N   0  0  0  0  0  0  0  0  0  0  0  0
   24.2351  -21.5558  -12.2924 C   0  0  1  0  0  0  0  0  0  0  0  0
   25.3298  -20.6478  -12.1172 C   0  0  0  0  0  0  0  0  0  0  0  0
   26.3136  -21.1992  -11.1087 S   0  0  0  0  0  0  0  0  0  0  0  0
   25.8413  -20.8599   -9.4080 C   0  0  0  0  0  0  0  0  0  0  0  0
   25.9968  -20.3084  -13.3998 O   0  0  0  0  0  0  0  0  0  0  0  0
   26.3140  -21.2345  -14.1917 N   0  0  0  0  0  0  0  0  0  0  0  0
   26.3040  -18.9980  -13.7971 C   0  0  2  0  0  0  0  0  0  0  0  0
   26.9215  -18.5803  -15.0063 C   0  0  0  0  0  0  0  0  0  0  0  0
   27.8969  -17.4674  -14.9312 C   0  0  0  0  0  0  0  0  0  0  0  0
   28.4922  -17.0374  -16.2134 C   0  0  0  0  0  0  0  0  0  0  0  0
   28.3592  -17.5552  -17.4736 N   0  0  0  0  0  0  0  0  0  0  0  0
   29.1000  -16.8336  -18.3287 C   0  0  0  0  0  0  0  0  0  0  0  0
   29.6942  -15.8723  -17.6201 N   0  0  0  0  0  0  0  0  0  0  0  0
   29.3360  -15.9841  -16.3427 C   0  0  0  0  0  0  0  0  0  0  0  0
   27.7046  -19.7606  -15.5311 O   0  0  0  0  0  0  0  0  0  0  0  0
   27.9812  -19.8895  -16.8838 O   0  0  0  0  0  0  0  0  0  0  0  0
  2  4  1  0
  2  1  1  0
  3  2  2  0
  5  6  1  0
  5  4  1  0
  7  6  1  0
  8  7  1  0
  8  9  1  6
 10 11  2  0
 10  8  1  0
 12 10  1  0
 13 12  1  0
 13 14  1  1
 15 14  1  0
 16 13  1  0
 16 18  1  0
 17 16  2  0
 19 18  1  0
 19 20  1  1
 20 21  1  0
 21 22  2  0
 21 25  1  0
 22 23  1  0
 23 24  1  0
 25 24  2  0
 26 19  1  0
 27 26  1  0
 28 26  2  0
M  END
$$$$
