RCH.pdb
     RDKit          3D

 28 28  0  0  1  0  0  0  0  0999 V2000
   25.1842  -23.1786  -13.7665 N   0  0  0  0  0  0  0  0  0  0  0  0
   25.4092  -23.0691  -12.3816 C   0  0  0  0  0  0  0  0  0  0  0  0
   25.6317  -24.0926  -11.6177 N   0  0  0  0  0  0  0  0  0  0  0  0
   25.3905  -21.7814  -11.8020 N   0  0  0  0  0  0  0  0  0  0  0  0
   25.2396  -20.6181  -12.6875 C   0  0  0  0  0  0  0  0  0  0  0  0
   26.2452  -20.7177  -13.7927 C   0  0  0  0  0  0  0  0  0  0  0  0
   26.2076  -19.5759  -14.7402 C   0  0  0  0  0  0  0  0  0  0  0  0
   27.1615  -19.6058  -15.8869 C   0  0  2  0  0  0  0  0  0  0  0  0
   28.4858  -19.9683  -15.5221 N   0  0  0  0  0  0  0  0  0  0  0  0
   27.1265  -18.2525  -16.5354 C   0  0  0  0  0  0  0  0  0  0  0  0
   26.7399  -17.3000  -15.8100 O   0  0  0  0  0  0  0  0  0  0  0  0
   25.7542  -23.9801  -10.5895 N   0  0  0  0  0  0  0  0  0  0  0  0
   27.5123  -18.0847  -17.8893 C   0  0  1  0  0  0  0  0  0  0  0  0
   27.3621  -16.7996  -18.5054 C   0  0  0  0  0  0  0  0  0  0  0  0
   28.3760  -16.6270  -19.6149 S   0  0  0  0  0  0  0  0  0  0  0  0
   30.0702  -16.8592  -19.0612 C   0  0  0  0  0  0  0  0  0  0  0  0
   25.9788  -16.5601  -18.9892 O   0  0  0  0  0  0  0  0  0  0  0  0
   25.3421  -17.5057  -19.5238 N   0  0  0  0  0  0  0  0  0  0  0  0
   25.3194  -15.3253  -18.8889 C   0  0  1  0  0  0  0  0  0  0  0  0
   23.9190  -15.0873  -18.8868 C   0  0  0  0  0  0  0  0  0  0  0  0
   23.1866  -15.3058  -17.6174 C   0  0  0  0  0  0  0  0  0  0  0  0
   21.7244  -15.0988  -17.6670 C   0  0  0  0  0  0  0  0  0  0  0  0
   20.9088  -14.7625  -18.7136 N   0  0  0  0  0  0  0  0  0  0  0  0
   19.6424  -14.6775  -18.2780 C   0  0  0  0  0  0  0  0  0  0  0  0
   19.6556  -14.9558  -16.9735 N   0  0  0  0  0  0  0  0  0  0  0  0
   20.9053  -15.2118  -16.5924 C   0  0  0  0  0  0  0  0  0  0  0  0
   23.7205  -13.6260  -19.2140 O   0  0  0  0  0  0  0  0  0  0  0  0
   22.5146  -13.1651  -19.7204 O   0  0  0  0  0  0  0  0  0  0  0  0
  2  4  1  0
  2  1  1  0
  3  2  2  0
  5  6  1  0
  5  4  1  0
  7  6  1  0
  8  7  1  0
  8  9  1  1
 10 11  2  0
 10  8  1  0
 12 10  1  0
 13 12  1  0
 13 14  1  1
 15 14  1  0
 16 13  1  0
 16 18  1  0
 17 16  2  0
 19 18  1  0
 19 20  1  6
 20 21  1  0
 21 22  2  0
 21 25  1  0
 22 23  1  0
 23 24  1  0
 25 24  2  0
 26 19  1  0
 27 26  1  0
 28 26  2  0
M  END
$$$$
