RCH.pdb
     RDKit          3D

 28 28  0  0  1  0  0  0  0  0999 V2000
   14.8941  -25.0359   -7.0840 N   0  0  0  0  0  0  0  0  0  0  0  0
   15.0407  -24.1581   -5.9938 C   0  0  0  0  0  0  0  0  0  0  0  0
   14.1231  -23.3154   -5.6354 N   0  0  0  0  0  0  0  0  0  0  0  0
   16.2461  -24.2015   -5.2592 N   0  0  0  0  0  0  0  0  0  0  0  0
   16.9435  -25.4893   -5.1352 C   0  0  0  0  0  0  0  0  0  0  0  0
   16.2003  -26.3503   -4.1611 C   0  0  0  0  0  0  0  0  0  0  0  0
   16.7855  -27.7036   -3.9912 C   0  0  0  0  0  0  0  0  0  0  0  0
   17.6359  -27.9359   -2.7876 C   0  0  2  0  0  0  0  0  0  0  0  0
   18.3023  -29.1905   -2.7897 N   0  0  0  0  0  0  0  0  0  0  0  0
   16.7556  -27.7889   -1.5807 C   0  0  0  0  0  0  0  0  0  0  0  0
   15.6586  -28.4041   -1.6165 O   0  0  0  0  0  0  0  0  0  0  0  0
   14.2535  -22.6982   -4.8066 N   0  0  0  0  0  0  0  0  0  0  0  0
   17.1607  -26.9965   -0.4772 C   0  0  1  0  0  0  0  0  0  0  0  0
   16.3581  -26.9878    0.7100 C   0  0  0  0  0  0  0  0  0  0  0  0
   16.3663  -28.3540    1.3598 S   0  0  0  0  0  0  0  0  0  0  0  0
   18.0242  -28.9913    1.6355 C   0  0  0  0  0  0  0  0  0  0  0  0
   16.7687  -25.9276    1.6651 O   0  0  0  0  0  0  0  0  0  0  0  0
   17.9942  -25.6950    1.8360 N   0  0  0  0  0  0  0  0  0  0  0  0
   15.8641  -25.1510    2.4056 C   0  0  1  0  0  0  0  0  0  0  0  0
   16.1619  -24.0824    3.2929 C   0  0  0  0  0  0  0  0  0  0  0  0
   15.1055  -23.0709    3.5296 C   0  0  0  0  0  0  0  0  0  0  0  0
   14.7130  -22.2557    2.3613 C   0  0  0  0  0  0  0  0  0  0  0  0
   15.2341  -22.2055    1.0965 N   0  0  0  0  0  0  0  0  0  0  0  0
   14.5536  -21.3030    0.3732 C   0  0  0  0  0  0  0  0  0  0  0  0
   13.6146  -20.7886    1.1688 N   0  0  0  0  0  0  0  0  0  0  0  0
   13.7000  -21.3546    2.3707 C   0  0  0  0  0  0  0  0  0  0  0  0
   16.4345  -24.6967    4.6458 O   0  0  0  0  0  0  0  0  0  0  0  0
   16.9755  -23.9430    5.6764 O   0  0  0  0  0  0  0  0  0  0  0  0
  2  4  1  0
  2  1  1  0
  3  2  2  0
  5  6  1  0
  5  4  1  0
  7  6  1  0
  8  7  1  0
  8  9  1  6
 10 11  2  0
 10  8  1  0
 12 10  1  0
 13 12  1  0
 13 14  1  1
 15 14  1  0
 16 13  1  0
 16 18  1  0
 17 16  2  0
 19 18  1  0
 19 20  1  1
 20 21  1  0
 21 22  2  0
 21 25  1  0
 22 23  1  0
 23 24  1  0
 25 24  2  0
 26 19  1  0
 27 26  1  0
 28 26  2  0
M  END
$$$$
