RCH.pdb
     RDKit          3D

 28 28  0  0  1  0  0  0  0  0999 V2000
   21.0888  -15.6578  -22.3543 N   0  0  0  0  0  0  0  0  0  0  0  0
   20.0831  -14.7007  -22.1236 C   0  0  0  0  0  0  0  0  0  0  0  0
   18.9820  -14.6526  -22.8061 N   0  0  0  0  0  0  0  0  0  0  0  0
   20.2883  -13.7503  -21.0994 N   0  0  0  0  0  0  0  0  0  0  0  0
   21.6504  -13.5663  -20.5788 C   0  0  0  0  0  0  0  0  0  0  0  0
   22.1617  -12.2306  -21.0229 C   0  0  0  0  0  0  0  0  0  0  0  0
   23.4977  -11.8890  -20.4741 C   0  0  0  0  0  0  0  0  0  0  0  0
   24.0229  -12.7427  -19.3690 C   0  0  2  0  0  0  0  0  0  0  0  0
   23.3407  -13.9807  -19.2269 N   0  0  0  0  0  0  0  0  0  0  0  0
   23.9537  -11.9348  -18.1059 C   0  0  0  0  0  0  0  0  0  0  0  0
   23.4906  -12.5243  -17.0954 O   0  0  0  0  0  0  0  0  0  0  0  0
   18.2633  -13.9229  -22.6172 N   0  0  0  0  0  0  0  0  0  0  0  0
   24.3917  -10.5867  -18.0800 C   0  0  1  0  0  0  0  0  0  0  0  0
   24.5471   -9.9258  -16.8179 C   0  0  0  0  0  0  0  0  0  0  0  0
   25.6320  -10.5961  -16.0039 S   0  0  0  0  0  0  0  0  0  0  0  0
   26.1003   -9.6544  -14.5462 C   0  0  0  0  0  0  0  0  0  0  0  0
   24.7984   -8.4698  -16.9667 O   0  0  0  0  0  0  0  0  0  0  0  0
   25.8097   -8.0830  -17.6092 N   0  0  0  0  0  0  0  0  0  0  0  0
   23.9675   -7.4752  -16.4283 C   0  0  1  0  0  0  0  0  0  0  0  0
   24.0795   -6.0687  -16.5925 C   0  0  0  0  0  0  0  0  0  0  0  0
   23.2971   -5.4395  -17.6821 C   0  0  0  0  0  0  0  0  0  0  0  0
   23.5036   -3.9893  -17.8766 C   0  0  0  0  0  0  0  0  0  0  0  0
   24.6477   -3.2790  -18.1221 N   0  0  0  0  0  0  0  0  0  0  0  0
   24.3468   -1.9748  -18.2175 C   0  0  0  0  0  0  0  0  0  0  0  0
   23.0304   -1.8604  -18.0348 N   0  0  0  0  0  0  0  0  0  0  0  0
   22.5099   -3.0682  -17.8281 C   0  0  0  0  0  0  0  0  0  0  0  0
   23.5695   -5.4350  -15.3196 O   0  0  0  0  0  0  0  0  0  0  0  0
   24.1005   -4.2418  -14.8533 O   0  0  0  0  0  0  0  0  0  0  0  0
  2  4  1  0
  2  1  1  0
  3  2  2  0
  5  6  1  0
  5  4  1  0
  7  6  1  0
  8  7  1  0
  8  9  1  1
 10 11  2  0
 10  8  1  0
 12 10  1  0
 13 12  1  0
 13 14  1  6
 15 14  1  0
 16 13  1  0
 16 18  1  0
 17 16  2  0
 19 18  1  0
 19 20  1  1
 20 21  1  0
 21 22  2  0
 21 25  1  0
 22 23  1  0
 23 24  1  0
 25 24  2  0
 26 19  1  0
 27 26  1  0
 28 26  2  0
M  END
$$$$
