RCH.pdb
     RDKit          3D

 28 28  0  0  1  0  0  0  0  0999 V2000
   28.1269  -27.7976  -16.1585 N   0  0  0  0  0  0  0  0  0  0  0  0
   29.0146  -27.8724  -17.2481 C   0  0  0  0  0  0  0  0  0  0  0  0
   29.9098  -28.8022  -17.3689 N   0  0  0  0  0  0  0  0  0  0  0  0
   28.9214  -26.8858  -18.2541 N   0  0  0  0  0  0  0  0  0  0  0  0
   28.4232  -25.5537  -17.8833 C   0  0  0  0  0  0  0  0  0  0  0  0
   29.1841  -25.0681  -16.6883 C   0  0  0  0  0  0  0  0  0  0  0  0
   28.7558  -23.7300  -16.2099 C   0  0  0  0  0  0  0  0  0  0  0  0
   28.3571  -22.7290  -17.2418 C   0  0  2  0  0  0  0  0  0  0  0  0
   29.4537  -22.1622  -17.9450 N   0  0  0  0  0  0  0  0  0  0  0  0
   27.5474  -21.6704  -16.5513 C   0  0  0  0  0  0  0  0  0  0  0  0
   27.7510  -21.5336  -15.3172 O   0  0  0  0  0  0  0  0  0  0  0  0
   30.5530  -28.8268  -18.1878 N   0  0  0  0  0  0  0  0  0  0  0  0
   26.6135  -20.8837  -17.2716 C   0  0  1  0  0  0  0  0  0  0  0  0
   25.8528  -19.8886  -16.5753 C   0  0  0  0  0  0  0  0  0  0  0  0
   25.5898  -18.7023  -17.4766 S   0  0  0  0  0  0  0  0  0  0  0  0
   27.0861  -18.0375  -18.2181 C   0  0  0  0  0  0  0  0  0  0  0  0
   24.5926  -20.4316  -16.0076 O   0  0  0  0  0  0  0  0  0  0  0  0
   23.9369  -21.2805  -16.6669 N   0  0  0  0  0  0  0  0  0  0  0  0
   24.0724  -20.0546  -14.7599 C   0  0  1  0  0  0  0  0  0  0  0  0
   22.9169  -20.5665  -14.1112 C   0  0  0  0  0  0  0  0  0  0  0  0
   22.8032  -20.3628  -12.6480 C   0  0  0  0  0  0  0  0  0  0  0  0
   23.8668  -20.9718  -11.8226 C   0  0  0  0  0  0  0  0  0  0  0  0
   24.9120  -21.7823  -12.1753 N   0  0  0  0  0  0  0  0  0  0  0  0
   25.6172  -22.0973  -11.0780 C   0  0  0  0  0  0  0  0  0  0  0  0
   25.0270  -21.4950  -10.0446 N   0  0  0  0  0  0  0  0  0  0  0  0
   23.9698  -20.8128  -10.4801 C   0  0  0  0  0  0  0  0  0  0  0  0
   21.7258  -19.8527  -14.7059 O   0  0  0  0  0  0  0  0  0  0  0  0
   20.4324  -20.2695  -14.4294 O   0  0  0  0  0  0  0  0  0  0  0  0
  2  4  1  0
  2  1  1  0
  3  2  2  0
  5  6  1  0
  5  4  1  0
  7  6  1  0
  8  7  1  0
  8  9  1  1
 10 11  2  0
 10  8  1  0
 12 10  1  0
 13 12  1  0
 13 14  1  1
 15 14  1  0
 16 13  1  0
 16 18  1  0
 17 16  2  0
 19 18  1  0
 19 20  1  6
 20 21  1  0
 21 22  2  0
 21 25  1  0
 22 23  1  0
 23 24  1  0
 25 24  2  0
 26 19  1  0
 27 26  1  0
 28 26  2  0
M  END
$$$$
