RCH.pdb
     RDKit          3D

 28 28  0  0  1  0  0  0  0  0999 V2000
   19.5827  -16.4167  -15.4639 N   0  0  0  0  0  0  0  0  0  0  0  0
   19.1855  -16.9022  -16.7237 C   0  0  0  0  0  0  0  0  0  0  0  0
   19.2029  -16.1781  -17.7988 N   0  0  0  0  0  0  0  0  0  0  0  0
   18.7484  -18.2420  -16.8153 N   0  0  0  0  0  0  0  0  0  0  0  0
   19.1734  -19.1890  -15.7748 C   0  0  0  0  0  0  0  0  0  0  0  0
   20.4216  -19.8799  -16.2301 C   0  0  0  0  0  0  0  0  0  0  0  0
   20.9455  -20.8709  -15.2573 C   0  0  0  0  0  0  0  0  0  0  0  0
   21.9310  -20.3850  -14.2482 C   0  0  2  0  0  0  0  0  0  0  0  0
   23.2758  -20.4004  -14.7061 N   0  0  0  0  0  0  0  0  0  0  0  0
   21.7654  -21.2275  -13.0170 C   0  0  0  0  0  0  0  0  0  0  0  0
   22.4192  -22.3022  -12.9886 O   0  0  0  0  0  0  0  0  0  0  0  0
   18.8890  -16.5651  -18.7134 N   0  0  0  0  0  0  0  0  0  0  0  0
   20.9148  -20.8131  -11.9612 C   0  0  2  0  0  0  0  0  0  0  0  0
   20.8204  -21.6205  -10.7810 C   0  0  0  0  0  0  0  0  0  0  0  0
   21.2490  -20.8273   -9.5660 S   0  0  0  0  0  0  0  0  0  0  0  0
   20.5867  -19.1564   -9.5480 C   0  0  0  0  0  0  0  0  0  0  0  0
   19.4678  -22.2059  -10.6002 O   0  0  0  0  0  0  0  0  0  0  0  0
   18.4586  -21.5447  -10.9602 N   0  0  0  0  0  0  0  0  0  0  0  0
   19.2334  -23.4727  -10.0436 C   0  0  1  0  0  0  0  0  0  0  0  0
   17.9802  -24.1005   -9.8127 C   0  0  0  0  0  0  0  0  0  0  0  0
   17.9605  -25.5785   -9.7101 C   0  0  0  0  0  0  0  0  0  0  0  0
   18.4345  -26.3187  -10.8979 C   0  0  0  0  0  0  0  0  0  0  0  0
   18.0120  -26.2762  -12.1992 N   0  0  0  0  0  0  0  0  0  0  0  0
   18.7381  -27.1376  -12.9283 C   0  0  0  0  0  0  0  0  0  0  0  0
   19.6082  -27.7177  -12.1004 N   0  0  0  0  0  0  0  0  0  0  0  0
   19.4356  -27.2327  -10.8726 C   0  0  0  0  0  0  0  0  0  0  0  0
   17.4778  -23.6024   -8.4781 O   0  0  0  0  0  0  0  0  0  0  0  0
   18.2659  -22.7908   -7.6761 O   0  0  0  0  0  0  0  0  0  0  0  0
  2  4  1  0
  2  1  1  0
  3  2  2  0
  5  6  1  0
  5  4  1  0
  7  6  1  0
  8  7  1  0
  8  9  1  6
 10 11  2  0
 10  8  1  0
 12 10  1  0
 13 12  1  0
 13 14  1  6
 15 14  1  0
 16 13  1  0
 16 18  1  0
 17 16  2  0
 19 18  1  0
 19 20  1  1
 20 21  1  0
 21 22  2  0
 21 25  1  0
 22 23  1  0
 23 24  1  0
 25 24  2  0
 26 19  1  0
 27 26  1  0
 28 26  2  0
M  END
$$$$
