KNY.pdb
     RDKit          3D

 30 30  0  0  1  0  0  0  0  0999 V2000
    8.0525  -15.8812   19.0791 N   0  0  0  0  0  0  0  0  0  0  0  0
    8.5054  -14.7807   19.9126 C   0  0  1  0  0  0  0  0  0  0  0  0
    7.6374  -13.6208   19.6504 C   0  0  0  0  0  0  0  0  0  0  0  0
    7.0535  -13.3636   18.3348 C   0  0  0  0  0  0  0  0  0  0  0  0
    7.8800  -12.9953   17.1721 C   0  0  0  0  0  0  0  0  0  0  0  0
    7.1210  -12.7658   15.9153 C   0  0  0  0  0  0  0  0  0  0  0  0
    8.0649  -12.4628   14.8338 N   0  0  0  0  0  0  0  0  0  0  0  0
    8.2455  -15.2813   21.3366 C   0  0  0  0  0  0  0  0  0  0  0  0
    8.3750  -14.5217   22.2923 O   0  0  0  0  0  0  0  0  0  0  0  0
    4.8298  -17.8472   21.1067 N   0  0  0  0  0  0  0  0  0  0  0  0
    5.3906  -17.7721   22.4089 C   0  0  0  0  0  0  0  0  0  0  0  0
    4.7326  -17.1812   23.3035 O   0  0  0  0  0  0  0  0  0  0  0  0
    6.7189  -18.3636   22.7481 C   0  0  0  0  0  0  0  0  0  0  0  0
    7.7806  -17.2586   22.8141 C   0  0  2  0  0  0  0  0  0  0  0  0
    7.8575  -16.6171   21.5430 N   0  0  0  0  0  0  0  0  0  0  0  0
    9.0255  -17.8922   23.2490 C   0  0  0  0  0  0  0  0  0  0  0  0
    9.0611  -19.1356   23.4152 O   0  0  0  0  0  0  0  0  0  0  0  0
   10.6254  -13.9794   30.5398 O   0  0  0  0  0  0  0  0  0  0  0  0
   10.3446  -14.3157   29.2147 C   0  0  0  0  0  0  0  0  0  0  0  0
   10.9810  -15.3874   28.6574 C   0  0  0  0  0  0  0  0  0  0  0  0
   10.7550  -15.7698   27.3739 C   0  0  0  0  0  0  0  0  0  0  0  0
    9.8579  -15.0590   26.6060 C   0  0  0  0  0  0  0  0  0  0  0  0
    9.6297  -15.5028   25.2076 C   0  0  0  0  0  0  0  0  0  0  0  0
   10.5750  -16.6063   24.7861 C   0  0  2  0  0  0  0  0  0  0  0  0
   10.2101  -17.1540   23.4944 N   0  0  0  0  0  0  0  0  0  0  0  0
   10.5339  -17.7089   25.7776 C   0  0  0  0  0  0  0  0  0  0  0  0
   10.1058  -18.9819   25.4367 O   0  0  0  0  0  0  0  0  0  0  0  0
    9.1988  -13.9683   27.1460 C   0  0  0  0  0  0  0  0  0  0  0  0
    9.4459  -13.5984   28.4556 C   0  0  0  0  0  0  0  0  0  0  0  0
   10.8877  -17.5422   26.9845 O   0  0  0  0  0  0  0  0  0  0  0  0
  2  3  1  0
  2  1  1  6
  4  5  1  0
  4  3  1  0
  6  5  1  0
  7  6  1  0
  8 15  1  0
  8  2  1  0
  9  8  2  0
 11 10  1  0
 11 12  2  0
 13 11  1  0
 14 13  1  6
 14 15  1  0
 16 14  1  0
 17 16  2  0
 19 20  2  0
 19 18  1  0
 21 20  1  0
 22 21  2  0
 24 23  1  1
 23 22  1  0
 24 25  1  0
 25 16  1  0
 26 27  1  0
 26 24  1  0
 28 22  1  0
 28 29  2  0
 29 19  1  0
 30 26  2  0
M  END
$$$$
