KNY.pdb
     RDKit          3D

 30 30  0  0  1  0  0  0  0  0999 V2000
    8.6873  -15.8787   20.6647 N   0  0  0  0  0  0  0  0  0  0  0  0
    7.9976  -14.8406   21.4115 C   0  0  1  0  0  0  0  0  0  0  0  0
    6.9891  -14.2340   20.5269 C   0  0  0  0  0  0  0  0  0  0  0  0
    7.2706  -13.9068   19.1300 C   0  0  0  0  0  0  0  0  0  0  0  0
    7.6895  -12.5571   18.7134 C   0  0  0  0  0  0  0  0  0  0  0  0
    8.8294  -12.5245   17.7604 C   0  0  0  0  0  0  0  0  0  0  0  0
    8.5055  -13.3578   16.5971 N   0  0  0  0  0  0  0  0  0  0  0  0
    7.2806  -15.6157   22.5210 C   0  0  0  0  0  0  0  0  0  0  0  0
    6.4155  -15.0680   23.1982 O   0  0  0  0  0  0  0  0  0  0  0  0
    6.0523  -19.5448   25.6890 N   0  0  0  0  0  0  0  0  0  0  0  0
    6.7821  -20.0838   24.5968 C   0  0  0  0  0  0  0  0  0  0  0  0
    6.9388  -21.3310   24.5478 O   0  0  0  0  0  0  0  0  0  0  0  0
    7.3626  -19.2307   23.5179 C   0  0  0  0  0  0  0  0  0  0  0  0
    7.1184  -17.7500   23.8352 C   0  0  2  0  0  0  0  0  0  0  0  0
    7.6195  -16.9595   22.7596 N   0  0  0  0  0  0  0  0  0  0  0  0
    7.7497  -17.4837   25.1278 C   0  0  0  0  0  0  0  0  0  0  0  0
    7.2827  -18.0142   26.1649 O   0  0  0  0  0  0  0  0  0  0  0  0
    6.0699  -10.8055   26.2668 O   0  0  0  0  0  0  0  0  0  0  0  0
    6.6864  -12.0264   26.5443 C   0  0  0  0  0  0  0  0  0  0  0  0
    6.0429  -12.9221   27.3490 C   0  0  0  0  0  0  0  0  0  0  0  0
    6.5852  -14.1281   27.6596 C   0  0  0  0  0  0  0  0  0  0  0  0
    7.8214  -14.4634   27.1506 C   0  0  0  0  0  0  0  0  0  0  0  0
    8.3868  -15.7897   27.5055 C   0  0  0  0  0  0  0  0  0  0  0  0
    9.4539  -16.2455   26.5348 C   0  0  2  0  0  0  0  0  0  0  0  0
    8.8814  -16.6415   25.2632 N   0  0  0  0  0  0  0  0  0  0  0  0
   10.1758  -17.4144   27.0944 C   0  0  0  0  0  0  0  0  0  0  0  0
   10.8419  -17.3488   28.3077 O   0  0  0  0  0  0  0  0  0  0  0  0
    8.4956  -13.5740   26.3321 C   0  0  0  0  0  0  0  0  0  0  0  0
    7.9226  -12.3519   26.0301 C   0  0  0  0  0  0  0  0  0  0  0  0
   10.2194  -18.5299   26.4918 O   0  0  0  0  0  0  0  0  0  0  0  0
  2  3  1  0
  2  1  1  6
  4  5  1  0
  4  3  1  0
  6  5  1  0
  7  6  1  0
  8 15  1  0
  8  2  1  0
  9  8  2  0
 11 10  1  0
 11 12  2  0
 13 11  1  0
 14 13  1  6
 14 15  1  0
 16 14  1  0
 17 16  2  0
 19 20  2  0
 19 18  1  0
 21 20  1  0
 22 21  2  0
 24 23  1  1
 23 22  1  0
 24 25  1  0
 25 16  1  0
 26 27  1  0
 26 24  1  0
 28 22  1  0
 28 29  2  0
 29 19  1  0
 30 26  2  0
M  END
$$$$
