KNY.pdb
     RDKit          3D

 30 30  0  0  1  0  0  0  0  0999 V2000
    9.4293  -14.4871   20.7193 N   0  0  0  0  0  0  0  0  0  0  0  0
    8.3599  -14.2784   21.6803 C   0  0  1  0  0  0  0  0  0  0  0  0
    7.0829  -14.5958   21.0200 C   0  0  0  0  0  0  0  0  0  0  0  0
    6.9749  -14.7747   19.5729 C   0  0  0  0  0  0  0  0  0  0  0  0
    7.3199  -13.7005   18.6254 C   0  0  0  0  0  0  0  0  0  0  0  0
    6.9407  -13.9688   17.2138 C   0  0  0  0  0  0  0  0  0  0  0  0
    7.3557  -12.8337   16.3820 N   0  0  0  0  0  0  0  0  0  0  0  0
    8.6361  -15.3329   22.7562 C   0  0  0  0  0  0  0  0  0  0  0  0
    7.7385  -15.6964   23.5106 O   0  0  0  0  0  0  0  0  0  0  0  0
   10.7382  -19.4340   22.0819 N   0  0  0  0  0  0  0  0  0  0  0  0
   11.4218  -18.1922   22.1630 C   0  0  0  0  0  0  0  0  0  0  0  0
   11.8594  -17.6869   21.0974 O   0  0  0  0  0  0  0  0  0  0  0  0
   11.6361  -17.4747   23.4547 C   0  0  0  0  0  0  0  0  0  0  0  0
   10.3351  -16.7914   23.8942 C   0  0  2  0  0  0  0  0  0  0  0  0
    9.9250  -15.8826   22.8749 N   0  0  0  0  0  0  0  0  0  0  0  0
   10.6008  -16.1676   25.1906 C   0  0  0  0  0  0  0  0  0  0  0  0
   11.4058  -15.2074   25.2613 O   0  0  0  0  0  0  0  0  0  0  0  0
    6.9700  -11.0316   25.5931 O   0  0  0  0  0  0  0  0  0  0  0  0
    7.5216  -12.1041   26.2954 C   0  0  0  0  0  0  0  0  0  0  0  0
    6.9070  -13.3214   26.2294 C   0  0  0  0  0  0  0  0  0  0  0  0
    7.3898  -14.4069   26.8878 C   0  0  0  0  0  0  0  0  0  0  0  0
    8.5337  -14.2823   27.6466 C   0  0  0  0  0  0  0  0  0  0  0  0
    9.0388  -15.4872   28.3521 C   0  0  0  0  0  0  0  0  0  0  0  0
   10.2751  -16.0669   27.7008 C   0  0  2  0  0  0  0  0  0  0  0  0
    9.9809  -16.6055   26.3873 N   0  0  0  0  0  0  0  0  0  0  0  0
   10.8133  -17.1685   28.5359 C   0  0  0  0  0  0  0  0  0  0  0  0
   10.9745  -18.4512   28.0370 O   0  0  0  0  0  0  0  0  0  0  0  0
    9.1768  -13.0597   27.7308 C   0  0  0  0  0  0  0  0  0  0  0  0
    8.6657  -11.9688   27.0512 C   0  0  0  0  0  0  0  0  0  0  0  0
   11.1519  -16.9922   29.7457 O   0  0  0  0  0  0  0  0  0  0  0  0
  2  3  1  0
  2  1  1  6
  4  5  1  0
  4  3  1  0
  6  5  1  0
  7  6  1  0
  8 15  1  0
  8  2  1  0
  9  8  2  0
 11 10  1  0
 11 12  2  0
 13 11  1  0
 14 13  1  6
 14 15  1  0
 16 14  1  0
 17 16  2  0
 19 20  2  0
 19 18  1  0
 21 20  1  0
 22 21  2  0
 24 23  1  1
 23 22  1  0
 24 25  1  0
 25 16  1  0
 26 27  1  0
 26 24  1  0
 28 22  1  0
 28 29  2  0
 29 19  1  0
 30 26  2  0
M  END
$$$$
