KNY.pdb
     RDKit          3D

 30 30  0  0  1  0  0  0  0  0999 V2000
    7.1051  -18.4484   20.4339 N   0  0  0  0  0  0  0  0  0  0  0  0
    7.9389  -17.4394   21.0645 C   0  0  1  0  0  0  0  0  0  0  0  0
    7.5545  -16.1250   20.5240 C   0  0  0  0  0  0  0  0  0  0  0  0
    8.4858  -14.9991   20.4716 C   0  0  0  0  0  0  0  0  0  0  0  0
    8.0851  -13.6777   19.9578 C   0  0  0  0  0  0  0  0  0  0  0  0
    9.1429  -12.6359   20.0247 C   0  0  0  0  0  0  0  0  0  0  0  0
    8.6515  -11.4119   19.3822 N   0  0  0  0  0  0  0  0  0  0  0  0
    7.5284  -17.5076   22.5385 C   0  0  0  0  0  0  0  0  0  0  0  0
    6.3979  -17.8713   22.8494 O   0  0  0  0  0  0  0  0  0  0  0  0
    5.8946  -18.6536   25.5989 N   0  0  0  0  0  0  0  0  0  0  0  0
    7.0282  -19.4977   25.4631 C   0  0  0  0  0  0  0  0  0  0  0  0
    6.8743  -20.7310   25.6569 O   0  0  0  0  0  0  0  0  0  0  0  0
    8.3802  -18.9770   25.1023 C   0  0  0  0  0  0  0  0  0  0  0  0
    8.3219  -17.4550   24.9211 C   0  0  2  0  0  0  0  0  0  0  0  0
    8.4549  -17.1507   23.5344 N   0  0  0  0  0  0  0  0  0  0  0  0
    9.3699  -16.8866   25.7691 C   0  0  0  0  0  0  0  0  0  0  0  0
   10.5746  -17.0612   25.4639 O   0  0  0  0  0  0  0  0  0  0  0  0
    5.6064  -11.6532   25.1440 O   0  0  0  0  0  0  0  0  0  0  0  0
    6.5202  -12.2976   25.9791 C   0  0  0  0  0  0  0  0  0  0  0  0
    7.8419  -12.2947   25.6370 C   0  0  0  0  0  0  0  0  0  0  0  0
    8.7841  -12.9022   26.4037 C   0  0  0  0  0  0  0  0  0  0  0  0
    8.4011  -13.5423   27.5626 C   0  0  0  0  0  0  0  0  0  0  0  0
    9.4541  -14.1947   28.3813 C   0  0  0  0  0  0  0  0  0  0  0  0
   10.0701  -15.3912   27.6902 C   0  0  2  0  0  0  0  0  0  0  0  0
    9.0813  -16.1368   26.9364 N   0  0  0  0  0  0  0  0  0  0  0  0
   10.6599  -16.3052   28.6987 C   0  0  0  0  0  0  0  0  0  0  0  0
   11.7309  -15.9246   29.4914 O   0  0  0  0  0  0  0  0  0  0  0  0
    7.0676  -13.5605   27.9333 C   0  0  0  0  0  0  0  0  0  0  0  0
    6.1267  -12.9346   27.1358 C   0  0  0  0  0  0  0  0  0  0  0  0
   10.2147  -17.4784   28.8858 O   0  0  0  0  0  0  0  0  0  0  0  0
  2  3  1  0
  2  1  1  6
  4  5  1  0
  4  3  1  0
  6  5  1  0
  7  6  1  0
  8 15  1  0
  8  2  1  0
  9  8  2  0
 11 10  1  0
 11 12  2  0
 13 11  1  0
 14 13  1  6
 14 15  1  0
 16 14  1  0
 17 16  2  0
 19 20  2  0
 19 18  1  0
 21 20  1  0
 22 21  2  0
 24 23  1  1
 23 22  1  0
 24 25  1  0
 25 16  1  0
 26 27  1  0
 26 24  1  0
 28 22  1  0
 28 29  2  0
 29 19  1  0
 30 26  2  0
M  END
$$$$
