KNY.pdb
     RDKit          3D

 30 30  0  0  1  0  0  0  0  0999 V2000
   10.4015  -15.1583   17.8692 N   0  0  0  0  0  0  0  0  0  0  0  0
    9.3036  -14.4639   18.5198 C   0  0  1  0  0  0  0  0  0  0  0  0
    8.1304  -14.5303   17.6328 C   0  0  0  0  0  0  0  0  0  0  0  0
    8.2543  -14.6713   16.1828 C   0  0  0  0  0  0  0  0  0  0  0  0
    7.5040  -13.8145   15.2481 C   0  0  0  0  0  0  0  0  0  0  0  0
    7.7738  -14.0750   13.8101 C   0  0  0  0  0  0  0  0  0  0  0  0
    6.8873  -13.2359   12.9963 N   0  0  0  0  0  0  0  0  0  0  0  0
    9.0315  -15.3138   19.7646 C   0  0  0  0  0  0  0  0  0  0  0  0
    8.0368  -15.1025   20.4523 O   0  0  0  0  0  0  0  0  0  0  0  0
   10.3132  -20.1485   20.3166 N   0  0  0  0  0  0  0  0  0  0  0  0
   11.1361  -18.9914   20.3118 C   0  0  0  0  0  0  0  0  0  0  0  0
   11.9100  -18.8197   19.3350 O   0  0  0  0  0  0  0  0  0  0  0  0
   11.1142  -17.9841   21.4135 C   0  0  0  0  0  0  0  0  0  0  0  0
    9.8515  -17.1200   21.3054 C   0  0  2  0  0  0  0  0  0  0  0  0
    9.9286  -16.3385   20.1153 N   0  0  0  0  0  0  0  0  0  0  0  0
    9.7660  -16.3381   22.5390 C   0  0  0  0  0  0  0  0  0  0  0  0
   10.6435  -15.4756   22.7863 O   0  0  0  0  0  0  0  0  0  0  0  0
    6.1397  -10.8220   28.1297 O   0  0  0  0  0  0  0  0  0  0  0  0
    6.4283  -11.7653   27.1425 C   0  0  0  0  0  0  0  0  0  0  0  0
    7.4158  -11.4938   26.2396 C   0  0  0  0  0  0  0  0  0  0  0  0
    7.7479  -12.3669   25.2536 C   0  0  0  0  0  0  0  0  0  0  0  0
    7.0718  -13.5639   25.1562 C   0  0  0  0  0  0  0  0  0  0  0  0
    7.4595  -14.4990   24.0699 C   0  0  0  0  0  0  0  0  0  0  0  0
    8.4149  -15.5733   24.5407 C   0  0  2  0  0  0  0  0  0  0  0  0
    8.7216  -16.5134   23.4805 N   0  0  0  0  0  0  0  0  0  0  0  0
    7.8060  -16.3313   25.6611 C   0  0  0  0  0  0  0  0  0  0  0  0
    8.0531  -16.0027   26.9844 O   0  0  0  0  0  0  0  0  0  0  0  0
    6.0663  -13.8646   26.0585 C   0  0  0  0  0  0  0  0  0  0  0  0
    5.7462  -12.9592   27.0540 C   0  0  0  0  0  0  0  0  0  0  0  0
    7.0304  -17.3158   25.4645 O   0  0  0  0  0  0  0  0  0  0  0  0
  2  3  1  0
  2  1  1  6
  4  5  1  0
  4  3  1  0
  6  5  1  0
  7  6  1  0
  8 15  1  0
  8  2  1  0
  9  8  2  0
 11 10  1  0
 11 12  2  0
 13 11  1  0
 14 13  1  1
 14 15  1  0
 16 14  1  0
 17 16  2  0
 19 20  2  0
 19 18  1  0
 21 20  1  0
 22 21  2  0
 24 23  1  6
 23 22  1  0
 24 25  1  0
 25 16  1  0
 26 27  1  0
 26 24  1  0
 28 22  1  0
 28 29  2  0
 29 19  1  0
 30 26  2  0
M  END
$$$$
