KNY.pdb
     RDKit          3D

 30 30  0  0  1  0  0  0  0  0999 V2000
    5.7804  -16.3621   20.7239 N   0  0  0  0  0  0  0  0  0  0  0  0
    6.8777  -15.7397   21.4445 C   0  0  1  0  0  0  0  0  0  0  0  0
    6.5848  -14.3025   21.5718 C   0  0  0  0  0  0  0  0  0  0  0  0
    7.0289  -13.3239   20.5803 C   0  0  0  0  0  0  0  0  0  0  0  0
    8.0594  -13.6421   19.5765 C   0  0  0  0  0  0  0  0  0  0  0  0
    8.4431  -12.5080   18.6960 C   0  0  0  0  0  0  0  0  0  0  0  0
    9.3678  -12.9930   17.6654 N   0  0  0  0  0  0  0  0  0  0  0  0
    6.8047  -16.3843   22.8320 C   0  0  0  0  0  0  0  0  0  0  0  0
    5.7171  -16.5777   23.3675 O   0  0  0  0  0  0  0  0  0  0  0  0
    7.2361  -19.6825   26.8328 N   0  0  0  0  0  0  0  0  0  0  0  0
    8.4123  -19.3683   26.1022 C   0  0  0  0  0  0  0  0  0  0  0  0
    9.5243  -19.5979   26.6436 O   0  0  0  0  0  0  0  0  0  0  0  0
    8.3741  -18.7818   24.7297 C   0  0  0  0  0  0  0  0  0  0  0  0
    8.0632  -17.2821   24.8116 C   0  0  2  0  0  0  0  0  0  0  0  0
    7.9918  -16.7535   23.4893 N   0  0  0  0  0  0  0  0  0  0  0  0
    9.0999  -16.6793   25.6497 C   0  0  0  0  0  0  0  0  0  0  0  0
   10.2771  -16.6070   25.2206 O   0  0  0  0  0  0  0  0  0  0  0  0
    6.4683  -11.0302   24.8608 O   0  0  0  0  0  0  0  0  0  0  0  0
    7.1211  -11.8396   25.7916 C   0  0  0  0  0  0  0  0  0  0  0  0
    8.3577  -12.3309   25.4857 C   0  0  0  0  0  0  0  0  0  0  0  0
    9.0486  -13.1241   26.3449 C   0  0  0  0  0  0  0  0  0  0  0  0
    8.4903  -13.4463   27.5632 C   0  0  0  0  0  0  0  0  0  0  0  0
    9.2708  -14.3128   28.4822 C   0  0  0  0  0  0  0  0  0  0  0  0
    9.8239  -15.5412   27.7939 C   0  0  2  0  0  0  0  0  0  0  0  0
    8.8304  -16.1660   26.9427 N   0  0  0  0  0  0  0  0  0  0  0  0
   10.2477  -16.5374   28.8081 C   0  0  0  0  0  0  0  0  0  0  0  0
   11.2871  -16.2855   29.6892 O   0  0  0  0  0  0  0  0  0  0  0  0
    7.2380  -12.9617   27.8989 C   0  0  0  0  0  0  0  0  0  0  0  0
    6.5540  -12.1556   27.0070 C   0  0  0  0  0  0  0  0  0  0  0  0
    9.6813  -17.6671   28.9195 O   0  0  0  0  0  0  0  0  0  0  0  0
  2  3  1  0
  2  1  1  6
  4  5  1  0
  4  3  1  0
  6  5  1  0
  7  6  1  0
  8 15  1  0
  8  2  1  0
  9  8  2  0
 11 10  1  0
 11 12  2  0
 13 11  1  0
 14 13  1  6
 14 15  1  0
 16 14  1  0
 17 16  2  0
 19 20  2  0
 19 18  1  0
 21 20  1  0
 22 21  2  0
 24 23  1  1
 23 22  1  0
 24 25  1  0
 25 16  1  0
 26 27  1  0
 26 24  1  0
 28 22  1  0
 28 29  2  0
 29 19  1  0
 30 26  2  0
M  END
$$$$
