KNY.pdb
     RDKit          3D

 30 30  0  0  1  0  0  0  0  0999 V2000
    7.1675  -17.3505   19.7018 N   0  0  0  0  0  0  0  0  0  0  0  0
    8.4817  -17.9097   19.4350 C   0  0  1  0  0  0  0  0  0  0  0  0
    8.7391  -17.8040   17.9893 C   0  0  0  0  0  0  0  0  0  0  0  0
    8.4448  -16.5895   17.2301 C   0  0  0  0  0  0  0  0  0  0  0  0
    8.5921  -16.5294   15.7654 C   0  0  0  0  0  0  0  0  0  0  0  0
    8.2512  -15.2167   15.1579 C   0  0  0  0  0  0  0  0  0  0  0  0
    8.3917  -15.3119   13.7006 N   0  0  0  0  0  0  0  0  0  0  0  0
    9.4298  -16.9629   20.1769 C   0  0  0  0  0  0  0  0  0  0  0  0
   10.6395  -17.1716   20.1738 O   0  0  0  0  0  0  0  0  0  0  0  0
    8.9483  -12.5820   18.7127 N   0  0  0  0  0  0  0  0  0  0  0  0
    9.7417  -13.2096   19.7090 C   0  0  0  0  0  0  0  0  0  0  0  0
   10.9144  -13.5483   19.4051 O   0  0  0  0  0  0  0  0  0  0  0  0
    9.2371  -13.4779   21.0883 C   0  0  0  0  0  0  0  0  0  0  0  0
    9.6840  -14.8721   21.5454 C   0  0  2  0  0  0  0  0  0  0  0  0
    8.9059  -15.8524   20.8624 N   0  0  0  0  0  0  0  0  0  0  0  0
    9.5535  -14.9027   23.0023 C   0  0  0  0  0  0  0  0  0  0  0  0
    9.1484  -13.8811   23.6082 O   0  0  0  0  0  0  0  0  0  0  0  0
    6.7447  -10.6205   26.3002 O   0  0  0  0  0  0  0  0  0  0  0  0
    7.0868  -11.9563   26.0856 C   0  0  0  0  0  0  0  0  0  0  0  0
    7.9604  -12.5594   26.9441 C   0  0  0  0  0  0  0  0  0  0  0  0
    8.3362  -13.8559   26.7939 C   0  0  0  0  0  0  0  0  0  0  0  0
    7.8240  -14.5899   25.7458 C   0  0  0  0  0  0  0  0  0  0  0  0
    8.2512  -16.0054   25.6095 C   0  0  0  0  0  0  0  0  0  0  0  0
    9.7039  -16.1384   25.2086 C   0  0  2  0  0  0  0  0  0  0  0  0
    9.8685  -16.0509   23.7708 N   0  0  0  0  0  0  0  0  0  0  0  0
   10.2280  -17.4545   25.6488 C   0  0  0  0  0  0  0  0  0  0  0  0
   10.6378  -18.4180   24.7411 O   0  0  0  0  0  0  0  0  0  0  0  0
    6.9364  -14.0033   24.8605 C   0  0  0  0  0  0  0  0  0  0  0  0
    6.5689  -12.6813   25.0345 C   0  0  0  0  0  0  0  0  0  0  0  0
   10.3271  -17.7633   26.8753 O   0  0  0  0  0  0  0  0  0  0  0  0
  2  3  1  0
  2  1  1  6
  4  5  1  0
  4  3  1  0
  6  5  1  0
  7  6  1  0
  8 15  1  0
  8  2  1  0
  9  8  2  0
 11 10  1  0
 11 12  2  0
 13 11  1  0
 14 13  1  6
 14 15  1  0
 16 14  1  0
 17 16  2  0
 19 20  2  0
 19 18  1  0
 21 20  1  0
 22 21  2  0
 24 23  1  6
 23 22  1  0
 24 25  1  0
 25 16  1  0
 26 27  1  0
 26 24  1  0
 28 22  1  0
 28 29  2  0
 29 19  1  0
 30 26  2  0
M  END
$$$$
