KNY.pdb
     RDKit          3D

 30 30  0  0  1  0  0  0  0  0999 V2000
    7.3906  -17.2989   22.0202 N   0  0  0  0  0  0  0  0  0  0  0  0
    7.4332  -18.6961   22.4162 C   0  0  1  0  0  0  0  0  0  0  0  0
    7.4597  -19.5173   21.1945 C   0  0  0  0  0  0  0  0  0  0  0  0
    6.7977  -19.1013   19.9590 C   0  0  0  0  0  0  0  0  0  0  0  0
    6.8179  -19.9342   18.7438 C   0  0  0  0  0  0  0  0  0  0  0  0
    6.2015  -19.3053   17.5467 C   0  0  0  0  0  0  0  0  0  0  0  0
    6.3826  -20.1924   16.3923 N   0  0  0  0  0  0  0  0  0  0  0  0
    8.7832  -18.8244   23.1281 C   0  0  0  0  0  0  0  0  0  0  0  0
    9.1818  -19.9228   23.5046 O   0  0  0  0  0  0  0  0  0  0  0  0
   10.5140  -14.9972   22.1124 N   0  0  0  0  0  0  0  0  0  0  0  0
   11.5033  -15.4949   23.0009 C   0  0  0  0  0  0  0  0  0  0  0  0
   12.1092  -14.6711   23.7334 O   0  0  0  0  0  0  0  0  0  0  0  0
   11.8445  -16.9454   23.0940 C   0  0  0  0  0  0  0  0  0  0  0  0
   10.8333  -17.6624   23.9973 C   0  0  2  0  0  0  0  0  0  0  0  0
    9.5639  -17.6757   23.3481 N   0  0  0  0  0  0  0  0  0  0  0  0
   10.8479  -16.9678   25.2848 C   0  0  0  0  0  0  0  0  0  0  0  0
   11.7270  -16.1009   25.5096 O   0  0  0  0  0  0  0  0  0  0  0  0
    7.1847  -11.7034   24.8662 O   0  0  0  0  0  0  0  0  0  0  0  0
    7.5941  -12.7551   25.6871 C   0  0  0  0  0  0  0  0  0  0  0  0
    6.9518  -13.9560   25.5898 C   0  0  0  0  0  0  0  0  0  0  0  0
    7.2988  -15.0209   26.3581 C   0  0  0  0  0  0  0  0  0  0  0  0
    8.3289  -14.8920   27.2646 C   0  0  0  0  0  0  0  0  0  0  0  0
    8.6872  -16.0744   28.0881 C   0  0  0  0  0  0  0  0  0  0  0  0
    9.9883  -16.7128   27.6540 C   0  0  2  0  0  0  0  0  0  0  0  0
    9.9001  -17.2340   26.3041 N   0  0  0  0  0  0  0  0  0  0  0  0
   10.3205  -17.8408   28.5582 C   0  0  0  0  0  0  0  0  0  0  0  0
   10.6472  -17.6377   29.8895 O   0  0  0  0  0  0  0  0  0  0  0  0
    8.9972  -13.6858   27.3837 C   0  0  0  0  0  0  0  0  0  0  0  0
    8.6254  -12.6157   26.5902 C   0  0  0  0  0  0  0  0  0  0  0  0
   10.3224  -19.0451   28.1592 O   0  0  0  0  0  0  0  0  0  0  0  0
  2  3  1  0
  2  1  1  6
  4  5  1  0
  4  3  1  0
  6  5  1  0
  7  6  1  0
  8 15  1  0
  8  2  1  0
  9  8  2  0
 11 10  1  0
 11 12  2  0
 13 11  1  0
 14 13  1  6
 14 15  1  0
 16 14  1  0
 17 16  2  0
 19 20  2  0
 19 18  1  0
 21 20  1  0
 22 21  2  0
 24 23  1  1
 23 22  1  0
 24 25  1  0
 25 16  1  0
 26 27  1  0
 26 24  1  0
 28 22  1  0
 28 29  2  0
 29 19  1  0
 30 26  2  0
M  END
$$$$
