LQN.pdb
     RDKit          3D

 26 25  0  0  1  0  0  0  0  0999 V2000
    8.3282  -20.0963    0.9888 C   0  0  0  0  0  0  0  0  0  0  0  0
    9.7315  -20.5893    1.0431 C   0  0  1  0  0  0  0  0  0  0  0  0
    9.8280  -22.0752    1.3089 C   0  0  0  0  0  0  0  0  0  0  0  0
   10.6160  -20.1144   -0.0547 C   0  0  0  0  0  0  0  0  0  0  0  0
   12.0185  -20.5820   -0.0428 C   0  0  2  0  0  0  0  0  0  0  0  0
   12.9091  -19.7812    0.7614 N   0  0  0  0  0  0  0  0  0  0  0  0
   12.5390  -20.5259   -1.4383 C   0  0  0  0  0  0  0  0  0  0  0  0
   12.9032  -19.3853   -1.8612 O   0  0  0  0  0  0  0  0  0  0  0  0
   15.3114  -24.8163   -5.0051 N   0  0  0  0  0  0  0  0  0  0  0  0
   15.0630  -23.7607   -5.9368 C   0  0  0  0  0  0  0  0  0  0  0  0
   15.5658  -23.9121   -7.0896 O   0  0  0  0  0  0  0  0  0  0  0  0
   14.2638  -22.5624   -5.5699 C   0  0  0  0  0  0  0  0  0  0  0  0
   13.7993  -22.7193   -4.1628 C   0  0  0  0  0  0  0  0  0  0  0  0
   13.0979  -21.5025   -3.6187 C   0  0  2  0  0  0  0  0  0  0  0  0
   12.6377  -21.6649   -2.2809 N   0  0  0  0  0  0  0  0  0  0  0  0
   11.9405  -21.1845   -4.5000 C   0  0  0  0  0  0  0  0  0  0  0  0
   10.7848  -21.2865   -4.0711 O   0  0  0  0  0  0  0  0  0  0  0  0
    9.1182  -19.1615   -8.0261 N   0  0  0  0  0  0  0  0  0  0  0  0
    9.4494  -18.5390   -6.7909 C   0  0  0  0  0  0  0  0  0  0  0  0
    8.8236  -17.5208   -6.4311 O   0  0  0  0  0  0  0  0  0  0  0  0
   10.5180  -19.0989   -5.9583 C   0  0  0  0  0  0  0  0  0  0  0  0
   11.1695  -20.2735   -6.6308 C   0  0  2  0  0  0  0  0  0  0  0  0
   12.2615  -20.7644   -5.8418 N   0  0  0  0  0  0  0  0  0  0  0  0
   11.6582  -19.8670   -7.9792 C   0  0  0  0  0  0  0  0  0  0  0  0
   10.7574  -19.3431   -8.8838 O   0  0  0  0  0  0  0  0  0  0  0  0
   12.8665  -20.0092   -8.2583 O   0  0  0  0  0  0  0  0  0  0  0  0
  2  1  1  6
  3  2  1  0
  4  2  1  0
  4  5  1  0
  5  6  1  1
  7  8  2  0
  7  5  1  0
  9 10  1  0
 10 12  1  0
 11 10  2  0
 12 13  1  0
 14 13  1  6
 14 15  1  0
 15  7  1  0
 16 17  2  0
 16 14  1  0
 18 19  1  0
 19 20  2  0
 19 21  1  0
 22 21  1  1
 22 23  1  0
 23 16  1  0
 24 22  1  0
 25 24  1  0
 26 24  2  0
M  END
$$$$
