LQN.pdb
     RDKit          3D

 26 25  0  0  1  0  0  0  0  0999 V2000
   19.1664  -16.1969  -15.0193 C   0  0  0  0  0  0  0  0  0  0  0  0
   18.4838  -15.1470  -15.8236 C   0  0  1  0  0  0  0  0  0  0  0  0
   16.9877  -15.1108  -15.6036 C   0  0  0  0  0  0  0  0  0  0  0  0
   19.1293  -13.8069  -15.8000 C   0  0  0  0  0  0  0  0  0  0  0  0
   18.4879  -12.7338  -16.5892 C   0  0  2  0  0  0  0  0  0  0  0  0
   18.4435  -12.9811  -18.0097 N   0  0  0  0  0  0  0  0  0  0  0  0
   19.2758  -11.4829  -16.3995 C   0  0  0  0  0  0  0  0  0  0  0  0
   19.4441  -11.0961  -15.2017 O   0  0  0  0  0  0  0  0  0  0  0  0
   23.8478   -9.0493  -19.7756 N   0  0  0  0  0  0  0  0  0  0  0  0
   22.5458   -8.8714  -20.3389 C   0  0  0  0  0  0  0  0  0  0  0  0
   22.5112   -8.6125  -21.5784 O   0  0  0  0  0  0  0  0  0  0  0  0
   21.3130   -8.9845  -19.5163 C   0  0  0  0  0  0  0  0  0  0  0  0
   21.7091   -9.3071  -18.1165 C   0  0  0  0  0  0  0  0  0  0  0  0
   20.5400   -9.5363  -17.1952 C   0  0  2  0  0  0  0  0  0  0  0  0
   19.8249  -10.7356  -17.4751 N   0  0  0  0  0  0  0  0  0  0  0  0
   19.6125   -8.3763  -17.3027 C   0  0  0  0  0  0  0  0  0  0  0  0
   18.5735   -8.4693  -17.9674 O   0  0  0  0  0  0  0  0  0  0  0  0
   17.3610   -4.0006  -16.3861 N   0  0  0  0  0  0  0  0  0  0  0  0
   16.8985   -5.2699  -15.9415 C   0  0  0  0  0  0  0  0  0  0  0  0
   15.7377   -5.3769  -15.4955 O   0  0  0  0  0  0  0  0  0  0  0  0
   17.7876   -6.4331  -16.0120 C   0  0  0  0  0  0  0  0  0  0  0  0
   19.0944   -6.0773  -16.6619 C   0  0  2  0  0  0  0  0  0  0  0  0
   20.0067   -7.1816  -16.5976 N   0  0  0  0  0  0  0  0  0  0  0  0
   19.6831   -4.8902  -15.9788 C   0  0  0  0  0  0  0  0  0  0  0  0
   20.9143   -5.0157  -15.3686 O   0  0  0  0  0  0  0  0  0  0  0  0
   19.0512   -3.8137  -15.9744 O   0  0  0  0  0  0  0  0  0  0  0  0
  2  1  1  1
  3  2  1  0
  4  2  1  0
  4  5  1  0
  5  6  1  6
  7  8  2  0
  7  5  1  0
  9 10  1  0
 10 12  1  0
 11 10  2  0
 12 13  1  0
 14 13  1  6
 14 15  1  0
 15  7  1  0
 16 17  2  0
 16 14  1  0
 18 19  1  0
 19 20  2  0
 19 21  1  0
 22 21  1  1
 22 23  1  0
 23 16  1  0
 24 22  1  0
 25 24  1  0
 26 24  2  0
M  END
$$$$
