LQN.pdb
     RDKit          3D

 26 25  0  0  1  0  0  0  0  0999 V2000
   17.2043  -14.3079  -15.3656 C   0  0  0  0  0  0  0  0  0  0  0  0
   17.8571  -13.3239  -16.2714 C   0  0  1  0  0  0  0  0  0  0  0  0
   16.8880  -12.6646  -17.2276 C   0  0  0  0  0  0  0  0  0  0  0  0
   18.7930  -12.3745  -15.6114 C   0  0  0  0  0  0  0  0  0  0  0  0
   19.4522  -11.3680  -16.4706 C   0  0  2  0  0  0  0  0  0  0  0  0
   20.2849  -11.9223  -17.5101 N   0  0  0  0  0  0  0  0  0  0  0  0
   20.3414  -10.5348  -15.6123 C   0  0  0  0  0  0  0  0  0  0  0  0
   19.8276  -10.0705  -14.5479 O   0  0  0  0  0  0  0  0  0  0  0  0
   26.4815  -10.7609  -14.7508 N   0  0  0  0  0  0  0  0  0  0  0  0
   25.9624  -10.5232  -16.0616 C   0  0  0  0  0  0  0  0  0  0  0  0
   26.7723  -10.7077  -17.0179 O   0  0  0  0  0  0  0  0  0  0  0  0
   24.5587  -10.0869  -16.2823 C   0  0  0  0  0  0  0  0  0  0  0  0
   23.9121   -9.8919  -14.9541 C   0  0  0  0  0  0  0  0  0  0  0  0
   22.4718   -9.4601  -15.0407 C   0  0  2  0  0  0  0  0  0  0  0  0
   21.6957  -10.2527  -15.9337 N   0  0  0  0  0  0  0  0  0  0  0  0
   22.4251   -8.0382  -15.4805 C   0  0  0  0  0  0  0  0  0  0  0  0
   22.3385   -7.7608  -16.6828 O   0  0  0  0  0  0  0  0  0  0  0  0
   19.0570   -3.7875  -15.5175 N   0  0  0  0  0  0  0  0  0  0  0  0
   20.4067   -4.2206  -15.6341 C   0  0  0  0  0  0  0  0  0  0  0  0
   21.2775   -3.4139  -16.0200 O   0  0  0  0  0  0  0  0  0  0  0  0
   20.7575   -5.6043  -15.3011 C   0  0  0  0  0  0  0  0  0  0  0  0
   22.1758   -5.7015  -14.8155 C   0  0  2  0  0  0  0  0  0  0  0  0
   22.4867   -7.0481  -14.4337 N   0  0  0  0  0  0  0  0  0  0  0  0
   22.3684   -4.7859  -13.6549 C   0  0  0  0  0  0  0  0  0  0  0  0
   22.3026   -5.3059  -12.3785 O   0  0  0  0  0  0  0  0  0  0  0  0
   22.5840   -3.5742  -13.8634 O   0  0  0  0  0  0  0  0  0  0  0  0
  2  1  1  1
  3  2  1  0
  4  2  1  0
  4  5  1  0
  5  6  1  6
  7  8  2  0
  7  5  1  0
  9 10  1  0
 10 12  1  0
 11 10  2  0
 12 13  1  0
 14 13  1  6
 14 15  1  0
 15  7  1  0
 16 17  2  0
 16 14  1  0
 18 19  1  0
 19 20  2  0
 19 21  1  0
 22 21  1  1
 22 23  1  0
 23 16  1  0
 24 22  1  0
 25 24  1  0
 26 24  2  0
M  END
$$$$
