LQN.pdb
     RDKit          3D

 26 25  0  0  1  0  0  0  0  0999 V2000
   29.1957  -19.1868   -5.5224 C   0  0  0  0  0  0  0  0  0  0  0  0
   27.9557  -19.8521   -6.0071 C   0  0  1  0  0  0  0  0  0  0  0  0
   26.9067  -20.0090   -4.9286 C   0  0  0  0  0  0  0  0  0  0  0  0
   27.4216  -19.3403   -7.2978 C   0  0  0  0  0  0  0  0  0  0  0  0
   26.2672  -20.0552   -7.8826 C   0  0  2  0  0  0  0  0  0  0  0  0
   26.4645  -21.4744   -8.0491 N   0  0  0  0  0  0  0  0  0  0  0  0
   26.0156  -19.4982   -9.2420 C   0  0  0  0  0  0  0  0  0  0  0  0
   25.9650  -18.2328   -9.3348 O   0  0  0  0  0  0  0  0  0  0  0  0
   29.1267  -21.1026  -14.0941 N   0  0  0  0  0  0  0  0  0  0  0  0
   27.9355  -21.8926  -14.0610 C   0  0  0  0  0  0  0  0  0  0  0  0
   27.9604  -22.9581  -14.7455 O   0  0  0  0  0  0  0  0  0  0  0  0
   26.7449  -21.4839  -13.2705 C   0  0  0  0  0  0  0  0  0  0  0  0
   27.0901  -20.2558  -12.5005 C   0  0  0  0  0  0  0  0  0  0  0  0
   25.9463  -19.7122  -11.6853 C   0  0  2  0  0  0  0  0  0  0  0  0
   25.8368  -20.3066  -10.3959 N   0  0  0  0  0  0  0  0  0  0  0  0
   24.6787  -19.9315  -12.4354 C   0  0  0  0  0  0  0  0  0  0  0  0
   24.6241  -19.6953  -13.6484 O   0  0  0  0  0  0  0  0  0  0  0  0
   22.1969  -22.1690  -15.8727 N   0  0  0  0  0  0  0  0  0  0  0  0
   22.3811  -21.2608  -14.7938 C   0  0  0  0  0  0  0  0  0  0  0  0
   22.2993  -20.0335  -15.0057 O   0  0  0  0  0  0  0  0  0  0  0  0
   22.6641  -21.7753  -13.4507 C   0  0  0  0  0  0  0  0  0  0  0  0
   22.3743  -20.7396  -12.4019 C   0  0  2  0  0  0  0  0  0  0  0  0
   23.5625  -20.4220  -11.6651 N   0  0  0  0  0  0  0  0  0  0  0  0
   21.3223  -21.2490  -11.4766 C   0  0  0  0  0  0  0  0  0  0  0  0
   20.0754  -21.5484  -11.9862 O   0  0  0  0  0  0  0  0  0  0  0  0
   21.5924  -21.3928  -10.2664 O   0  0  0  0  0  0  0  0  0  0  0  0
  2  1  1  1
  3  2  1  0
  4  2  1  0
  4  5  1  0
  5  6  1  6
  7  8  2  0
  7  5  1  0
  9 10  1  0
 10 12  1  0
 11 10  2  0
 12 13  1  0
 14 13  1  6
 14 15  1  0
 15  7  1  0
 16 17  2  0
 16 14  1  0
 18 19  1  0
 19 20  2  0
 19 21  1  0
 22 21  1  6
 22 23  1  0
 23 16  1  0
 24 22  1  0
 25 24  1  0
 26 24  2  0
M  END
$$$$
