LQN.pdb
     RDKit          3D

 26 25  0  0  1  0  0  0  0  0999 V2000
   29.5508  -21.3317  -10.0765 C   0  0  0  0  0  0  0  0  0  0  0  0
   28.1074  -21.1115   -9.7879 C   0  0  1  0  0  0  0  0  0  0  0  0
   27.8713  -20.2773   -8.5483 C   0  0  0  0  0  0  0  0  0  0  0  0
   27.2797  -20.7047  -10.9551 C   0  0  0  0  0  0  0  0  0  0  0  0
   25.8508  -20.4205  -10.7040 C   0  0  2  0  0  0  0  0  0  0  0  0
   25.1290  -21.4973  -10.0711 N   0  0  0  0  0  0  0  0  0  0  0  0
   25.1876  -20.1775  -12.0165 C   0  0  0  0  0  0  0  0  0  0  0  0
   25.6749  -19.2498  -12.7338 O   0  0  0  0  0  0  0  0  0  0  0  0
   25.9435  -22.9794  -14.4771 N   0  0  0  0  0  0  0  0  0  0  0  0
   25.6495  -22.2863  -15.6926 C   0  0  0  0  0  0  0  0  0  0  0  0
   26.5589  -22.3075  -16.5740 O   0  0  0  0  0  0  0  0  0  0  0  0
   24.3554  -21.5862  -15.9031 C   0  0  0  0  0  0  0  0  0  0  0  0
   23.5069  -21.7924  -14.6956 C   0  0  0  0  0  0  0  0  0  0  0  0
   23.5077  -20.6208  -13.7492 C   0  0  2  0  0  0  0  0  0  0  0  0
   24.0686  -20.9220  -12.4754 N   0  0  0  0  0  0  0  0  0  0  0  0
   22.1061  -20.1513  -13.5690 C   0  0  0  0  0  0  0  0  0  0  0  0
   21.4708  -20.4626  -12.5543 O   0  0  0  0  0  0  0  0  0  0  0  0
   18.0578  -16.2709  -15.8177 N   0  0  0  0  0  0  0  0  0  0  0  0
   18.8118  -16.8585  -14.7645 C   0  0  0  0  0  0  0  0  0  0  0  0
   18.3463  -16.8623  -13.6064 O   0  0  0  0  0  0  0  0  0  0  0  0
   20.1219  -17.4503  -15.0509 C   0  0  0  0  0  0  0  0  0  0  0  0
   20.2529  -18.8071  -14.4195 C   0  0  2  0  0  0  0  0  0  0  0  0
   21.5686  -19.3364  -14.6306 N   0  0  0  0  0  0  0  0  0  0  0  0
   19.2346  -19.7273  -15.0012 C   0  0  0  0  0  0  0  0  0  0  0  0
   18.0869  -19.9907  -14.2818 O   0  0  0  0  0  0  0  0  0  0  0  0
   19.4423  -20.2367  -16.1217 O   0  0  0  0  0  0  0  0  0  0  0  0
  2  1  1  6
  3  2  1  0
  4  2  1  0
  4  5  1  0
  5  6  1  6
  7  8  2  0
  7  5  1  0
  9 10  1  0
 10 12  1  0
 11 10  2  0
 12 13  1  0
 14 13  1  6
 14 15  1  0
 15  7  1  0
 16 17  2  0
 16 14  1  0
 18 19  1  0
 19 20  2  0
 19 21  1  0
 22 21  1  6
 22 23  1  0
 23 16  1  0
 24 22  1  0
 25 24  1  0
 26 24  2  0
M  END
$$$$
