LQN.pdb
     RDKit          3D

 26 25  0  0  1  0  0  0  0  0999 V2000
   25.1984  -23.4038  -17.8546 C   0  0  0  0  0  0  0  0  0  0  0  0
   26.5712  -23.7880  -17.4268 C   0  0  1  0  0  0  0  0  0  0  0  0
   26.8384  -23.5025  -15.9656 C   0  0  0  0  0  0  0  0  0  0  0  0
   27.0229  -25.1340  -17.8706 C   0  0  0  0  0  0  0  0  0  0  0  0
   28.3222  -25.6150  -17.3547 C   0  0  2  0  0  0  0  0  0  0  0  0
   29.4730  -24.9676  -17.9358 N   0  0  0  0  0  0  0  0  0  0  0  0
   28.4422  -27.0653  -17.6767 C   0  0  0  0  0  0  0  0  0  0  0  0
   28.8809  -27.3541  -18.8329 O   0  0  0  0  0  0  0  0  0  0  0  0
   29.6346  -31.7919  -14.4164 N   0  0  0  0  0  0  0  0  0  0  0  0
   29.8967  -32.3055  -15.7247 C   0  0  0  0  0  0  0  0  0  0  0  0
   30.1729  -33.5401  -15.7879 O   0  0  0  0  0  0  0  0  0  0  0  0
   29.8468  -31.4398  -16.9319 C   0  0  0  0  0  0  0  0  0  0  0  0
   29.5600  -30.0434  -16.4981 C   0  0  0  0  0  0  0  0  0  0  0  0
   28.3269  -29.4550  -17.1319 C   0  0  2  0  0  0  0  0  0  0  0  0
   28.0946  -28.0984  -16.7663 N   0  0  0  0  0  0  0  0  0  0  0  0
   27.1492  -30.2771  -16.7389 C   0  0  0  0  0  0  0  0  0  0  0  0
   26.6816  -30.1893  -15.5971 O   0  0  0  0  0  0  0  0  0  0  0  0
   22.4543  -31.5361  -15.4339 N   0  0  0  0  0  0  0  0  0  0  0  0
   23.1406  -31.8196  -16.6469 C   0  0  0  0  0  0  0  0  0  0  0  0
   22.7252  -32.7357  -17.3859 O   0  0  0  0  0  0  0  0  0  0  0  0
   24.3235  -31.0354  -17.0132 C   0  0  0  0  0  0  0  0  0  0  0  0
   25.4715  -31.9293  -17.3871 C   0  0  2  0  0  0  0  0  0  0  0  0
   26.6175  -31.1505  -17.7559 N   0  0  0  0  0  0  0  0  0  0  0  0
   25.0681  -32.8097  -18.5204 C   0  0  0  0  0  0  0  0  0  0  0  0
   24.5039  -34.0377  -18.2414 O   0  0  0  0  0  0  0  0  0  0  0  0
   25.2493  -32.4176  -19.6916 O   0  0  0  0  0  0  0  0  0  0  0  0
  2  1  1  1
  3  2  1  0
  4  2  1  0
  4  5  1  0
  5  6  1  6
  7  8  2  0
  7  5  1  0
  9 10  1  0
 10 12  1  0
 11 10  2  0
 12 13  1  0
 14 13  1  1
 14 15  1  0
 15  7  1  0
 16 17  2  0
 16 14  1  0
 18 19  1  0
 19 20  2  0
 19 21  1  0
 22 21  1  6
 22 23  1  0
 23 16  1  0
 24 22  1  0
 25 24  1  0
 26 24  2  0
M  END
$$$$
