LQN.pdb
     RDKit          3D

 26 25  0  0  1  0  0  0  0  0999 V2000
   22.7284  -13.9304  -21.1576 C   0  0  0  0  0  0  0  0  0  0  0  0
   23.1639  -13.3386  -19.8633 C   0  0  1  0  0  0  0  0  0  0  0  0
   24.6629  -13.1593  -19.7680 C   0  0  0  0  0  0  0  0  0  0  0  0
   22.3851  -12.1549  -19.4105 C   0  0  0  0  0  0  0  0  0  0  0  0
   22.7507  -11.5641  -18.1055 C   0  0  2  0  0  0  0  0  0  0  0  0
   22.8191  -12.5103  -17.0188 N   0  0  0  0  0  0  0  0  0  0  0  0
   21.7052  -10.5678  -17.7370 C   0  0  0  0  0  0  0  0  0  0  0  0
   21.4820   -9.6437  -18.5789 O   0  0  0  0  0  0  0  0  0  0  0  0
   16.5854  -11.9157  -14.9950 N   0  0  0  0  0  0  0  0  0  0  0  0
   16.8780  -11.9352  -16.3944 C   0  0  0  0  0  0  0  0  0  0  0  0
   16.1877  -12.7363  -17.0916 O   0  0  0  0  0  0  0  0  0  0  0  0
   17.9281  -11.0670  -16.9884 C   0  0  0  0  0  0  0  0  0  0  0  0
   18.6251  -10.3488  -15.8844 C   0  0  0  0  0  0  0  0  0  0  0  0
   19.9126   -9.6924  -16.3085 C   0  0  2  0  0  0  0  0  0  0  0  0
   20.9764  -10.6154  -16.5190 N   0  0  0  0  0  0  0  0  0  0  0  0
   20.3149   -8.7107  -15.2636 C   0  0  0  0  0  0  0  0  0  0  0  0
   21.1228   -9.0333  -14.3842 O   0  0  0  0  0  0  0  0  0  0  0  0
   22.6598   -3.9969  -14.1191 N   0  0  0  0  0  0  0  0  0  0  0  0
   22.1431   -5.2173  -13.6031 C   0  0  0  0  0  0  0  0  0  0  0  0
   22.1054   -5.3928  -12.3679 O   0  0  0  0  0  0  0  0  0  0  0  0
   21.6627   -6.2508  -14.5248 C   0  0  0  0  0  0  0  0  0  0  0  0
   20.1746   -6.4247  -14.4157 C   0  0  2  0  0  0  0  0  0  0  0  0
   19.7112   -7.4042  -15.3547 N   0  0  0  0  0  0  0  0  0  0  0  0
   19.5011   -5.1189  -14.6679 C   0  0  0  0  0  0  0  0  0  0  0  0
   19.0016   -4.4092  -13.5952 O   0  0  0  0  0  0  0  0  0  0  0  0
   19.4046   -4.6989  -15.8395 O   0  0  0  0  0  0  0  0  0  0  0  0
  2  1  1  6
  3  2  1  0
  4  2  1  0
  4  5  1  0
  5  6  1  1
  7  8  2  0
  7  5  1  0
  9 10  1  0
 10 12  1  0
 11 10  2  0
 12 13  1  0
 14 13  1  1
 14 15  1  0
 15  7  1  0
 16 17  2  0
 16 14  1  0
 18 19  1  0
 19 20  2  0
 19 21  1  0
 22 21  1  6
 22 23  1  0
 23 16  1  0
 24 22  1  0
 25 24  1  0
 26 24  2  0
M  END
$$$$
