QCV.pdb
     RDKit          3D

 23 22  0  0  1  0  0  0  0  0999 V2000
    6.1404  -18.7640   24.6467 N   0  0  0  0  0  0  0  0  0  0  0  0
    7.3272  -19.0604   23.8976 C   0  0  0  0  0  0  0  0  0  0  0  0
    8.1281  -19.9306   24.3207 O   0  0  0  0  0  0  0  0  0  0  0  0
    7.5479  -18.3265   22.6565 C   0  0  0  0  0  0  0  0  0  0  0  0
    6.5560  -17.2802   22.3336 C   0  0  0  0  0  0  0  0  0  0  0  0
    7.0991  -15.9658   21.8577 C   0  0  2  0  0  0  0  0  0  0  0  0
    7.9562  -16.0719   20.7243 N   0  0  0  0  0  0  0  0  0  0  0  0
    7.7109  -15.2623   22.9967 C   0  0  0  0  0  0  0  0  0  0  0  0
    8.9647  -15.2972   23.1368 O   0  0  0  0  0  0  0  0  0  0  0  0
    6.9835  -14.5562   23.9384 N   0  0  0  0  0  0  0  0  0  0  0  0
    7.5394  -13.8751   25.0881 C   0  0  1  0  0  0  0  0  0  0  0  0
    6.5704  -13.0061   25.8056 C   0  0  0  0  0  0  0  0  0  0  0  0
    7.2976  -12.1812   27.2430 S   0  0  0  0  0  0  0  0  0  0  0  0
    8.0743  -14.8821   26.0222 C   0  0  0  0  0  0  0  0  0  0  0  0
    7.3901  -15.8504   26.4537 O   0  0  0  0  0  0  0  0  0  0  0  0
   11.4243  -16.6353   25.5476 C   0  0  0  0  0  0  0  0  0  0  0  0
   11.3765  -16.0389   26.9195 C   0  0  2  0  0  0  0  0  0  0  0  0
   12.1196  -16.9590   27.8562 C   0  0  0  0  0  0  0  0  0  0  0  0
    9.9988  -15.7242   27.4071 C   0  0  2  0  0  0  0  0  0  0  0  0
    9.4037  -14.7883   26.4721 N   0  0  0  0  0  0  0  0  0  0  0  0
    9.9580  -15.2165   28.7942 C   0  0  0  0  0  0  0  0  0  0  0  0
   10.0284  -16.0667   29.8978 O   0  0  0  0  0  0  0  0  0  0  0  0
    9.8585  -13.9998   29.0088 O   0  0  0  0  0  0  0  0  0  0  0  0
  1  2  1  0
  2  3  2  0
  4  5  1  0
  4  2  1  0
  6  5  1  0
  6  8  1  0
  6  7  1  6
  8  9  2  0
 10 11  1  0
 10  8  1  0
 11 12  1  1
 13 12  1  0
 14 11  1  0
 14 15  2  0
 17 16  1  6
 17 19  1  0
 18 17  1  0
 19 20  1  6
 19 21  1  0
 20 14  1  0
 21 23  2  0
 21 22  1  0
M  END
$$$$
