QCV.pdb
     RDKit          3D

 23 22  0  0  1  0  0  0  0  0999 V2000
    8.9576  -13.6619   15.8843 N   0  0  0  0  0  0  0  0  0  0  0  0
    7.6863  -14.1407   16.3448 C   0  0  0  0  0  0  0  0  0  0  0  0
    6.8593  -14.6008   15.5189 O   0  0  0  0  0  0  0  0  0  0  0  0
    7.4126  -14.0724   17.7759 C   0  0  0  0  0  0  0  0  0  0  0  0
    8.4567  -13.4411   18.6090 C   0  0  0  0  0  0  0  0  0  0  0  0
    9.1586  -14.3302   19.5918 C   0  0  2  0  0  0  0  0  0  0  0  0
    9.5864  -15.5734   19.0422 N   0  0  0  0  0  0  0  0  0  0  0  0
    8.3169  -14.4733   20.7908 C   0  0  0  0  0  0  0  0  0  0  0  0
    7.6199  -13.4922   21.1711 O   0  0  0  0  0  0  0  0  0  0  0  0
    8.2440  -15.6352   21.5386 N   0  0  0  0  0  0  0  0  0  0  0  0
    7.3960  -15.8359   22.6942 C   0  0  1  0  0  0  0  0  0  0  0  0
    7.2005  -17.2624   23.0629 C   0  0  0  0  0  0  0  0  0  0  0  0
    8.7613  -18.1575   23.2579 S   0  0  0  0  0  0  0  0  0  0  0  0
    7.9773  -15.1126   23.8395 C   0  0  0  0  0  0  0  0  0  0  0  0
    9.1976  -14.7990   23.9060 O   0  0  0  0  0  0  0  0  0  0  0  0
    5.8947  -12.2478   25.4808 C   0  0  0  0  0  0  0  0  0  0  0  0
    6.5047  -13.1187   26.5342 C   0  0  2  0  0  0  0  0  0  0  0  0
    6.8975  -12.2415   27.6972 C   0  0  0  0  0  0  0  0  0  0  0  0
    7.6390  -13.9653   26.0532 C   0  0  2  0  0  0  0  0  0  0  0  0
    7.1619  -14.7404   24.9236 N   0  0  0  0  0  0  0  0  0  0  0  0
    8.2278  -14.8254   27.1006 C   0  0  0  0  0  0  0  0  0  0  0  0
    9.2684  -14.3887   27.9207 O   0  0  0  0  0  0  0  0  0  0  0  0
    7.7999  -15.9755   27.2747 O   0  0  0  0  0  0  0  0  0  0  0  0
  1  2  1  0
  2  3  2  0
  4  5  1  0
  4  2  1  0
  6  5  1  0
  6  8  1  0
  6  7  1  6
  8  9  2  0
 10 11  1  0
 10  8  1  0
 11 12  1  1
 13 12  1  0
 14 11  1  0
 14 15  2  0
 17 16  1  6
 17 19  1  0
 18 17  1  0
 19 20  1  6
 19 21  1  0
 20 14  1  0
 21 23  2  0
 21 22  1  0
M  END
$$$$
