QCV.pdb
     RDKit          3D

 23 22  0  0  1  0  0  0  0  0999 V2000
    8.0751  -19.8099   20.3755 N   0  0  0  0  0  0  0  0  0  0  0  0
    9.3851  -19.8481   19.7925 C   0  0  0  0  0  0  0  0  0  0  0  0
    9.6193  -20.6342   18.8412 O   0  0  0  0  0  0  0  0  0  0  0  0
   10.3985  -18.9531   20.3399 C   0  0  0  0  0  0  0  0  0  0  0  0
    9.9734  -18.1020   21.4702 C   0  0  0  0  0  0  0  0  0  0  0  0
    9.5603  -16.6998   21.1350 C   0  0  2  0  0  0  0  0  0  0  0  0
   10.3132  -16.1138   20.0765 N   0  0  0  0  0  0  0  0  0  0  0  0
    9.5529  -15.8972   22.3688 C   0  0  0  0  0  0  0  0  0  0  0  0
   10.5461  -15.1629   22.6283 O   0  0  0  0  0  0  0  0  0  0  0  0
    8.5082  -15.9006   23.2760 N   0  0  0  0  0  0  0  0  0  0  0  0
    8.4218  -15.0692   24.4575 C   0  0  1  0  0  0  0  0  0  0  0  0
    7.0428  -14.9118   24.9892 C   0  0  0  0  0  0  0  0  0  0  0  0
    6.2827  -13.3393   24.5151 S   0  0  0  0  0  0  0  0  0  0  0  0
    9.2846  -15.6441   25.5053 C   0  0  0  0  0  0  0  0  0  0  0  0
    9.9531  -16.7014   25.3407 O   0  0  0  0  0  0  0  0  0  0  0  0
   10.4433  -13.0851   28.5278 C   0  0  0  0  0  0  0  0  0  0  0  0
   10.1737  -14.4978   28.9425 C   0  0  2  0  0  0  0  0  0  0  0  0
   11.1117  -14.8410   30.0732 C   0  0  0  0  0  0  0  0  0  0  0  0
   10.2416  -15.4911   27.8272 C   0  0  2  0  0  0  0  0  0  0  0  0
    9.3896  -15.0098   26.7563 N   0  0  0  0  0  0  0  0  0  0  0  0
    9.8906  -16.8682   28.2323 C   0  0  0  0  0  0  0  0  0  0  0  0
   10.8503  -17.7788   28.6743 O   0  0  0  0  0  0  0  0  0  0  0  0
    8.7120  -17.2490   28.1863 O   0  0  0  0  0  0  0  0  0  0  0  0
  1  2  1  0
  2  3  2  0
  4  5  1  0
  4  2  1  0
  6  5  1  0
  6  8  1  0
  6  7  1  6
  8  9  2  0
 10 11  1  0
 10  8  1  0
 11 12  1  1
 13 12  1  0
 14 11  1  0
 14 15  2  0
 17 16  1  6
 17 19  1  0
 18 17  1  0
 19 20  1  6
 19 21  1  0
 20 14  1  0
 21 23  2  0
 21 22  1  0
M  END
$$$$
