QCV.pdb
     RDKit          3D

 23 22  0  0  1  0  0  0  0  0999 V2000
    8.3153  -15.1430   17.1127 N   0  0  0  0  0  0  0  0  0  0  0  0
    8.1367  -13.8232   17.6453 C   0  0  0  0  0  0  0  0  0  0  0  0
    8.8095  -12.8694   17.1812 O   0  0  0  0  0  0  0  0  0  0  0  0
    7.1618  -13.6492   18.7163 C   0  0  0  0  0  0  0  0  0  0  0  0
    7.7022  -13.6265   20.0912 C   0  0  0  0  0  0  0  0  0  0  0  0
    8.2115  -14.9289   20.6327 C   0  0  2  0  0  0  0  0  0  0  0  0
    7.8880  -16.0564   19.8236 N   0  0  0  0  0  0  0  0  0  0  0  0
    7.7798  -15.0642   22.0334 C   0  0  0  0  0  0  0  0  0  0  0  0
    6.8989  -14.2795   22.4818 O   0  0  0  0  0  0  0  0  0  0  0  0
    8.2905  -16.0127   22.9018 N   0  0  0  0  0  0  0  0  0  0  0  0
    7.8272  -16.2473   24.2528 C   0  0  1  0  0  0  0  0  0  0  0  0
    7.3741  -17.6401   24.5055 C   0  0  0  0  0  0  0  0  0  0  0  0
    8.7214  -18.8447   24.4119 S   0  0  0  0  0  0  0  0  0  0  0  0
    8.9133  -15.9112   25.1910 C   0  0  0  0  0  0  0  0  0  0  0  0
   10.1174  -15.7922   24.8334 O   0  0  0  0  0  0  0  0  0  0  0  0
    8.6882  -13.0371   27.6208 C   0  0  0  0  0  0  0  0  0  0  0  0
    9.0868  -14.2611   28.3845 C   0  0  2  0  0  0  0  0  0  0  0  0
   10.0444  -13.8427   29.4728 C   0  0  0  0  0  0  0  0  0  0  0  0
    9.6364  -15.3640   27.5380 C   0  0  2  0  0  0  0  0  0  0  0  0
    8.6281  -15.7074   26.5532 N   0  0  0  0  0  0  0  0  0  0  0  0
   10.0768  -16.5452   28.3089 C   0  0  0  0  0  0  0  0  0  0  0  0
   11.3661  -16.6521   28.8304 O   0  0  0  0  0  0  0  0  0  0  0  0
    9.2929  -17.4837   28.5115 O   0  0  0  0  0  0  0  0  0  0  0  0
  1  2  1  0
  2  3  2  0
  4  5  1  0
  4  2  1  0
  6  5  1  0
  6  8  1  0
  6  7  1  6
  8  9  2  0
 10 11  1  0
 10  8  1  0
 11 12  1  6
 13 12  1  0
 14 11  1  0
 14 15  2  0
 17 16  1  6
 17 19  1  0
 18 17  1  0
 19 20  1  6
 19 21  1  0
 20 14  1  0
 21 23  2  0
 21 22  1  0
M  END
$$$$
