QCV.pdb
     RDKit          3D

 23 22  0  0  1  0  0  0  0  0999 V2000
    5.4694  -18.4604   20.5959 N   0  0  0  0  0  0  0  0  0  0  0  0
    6.7848  -18.2356   20.0697 C   0  0  0  0  0  0  0  0  0  0  0  0
    7.3815  -19.1644   19.4706 O   0  0  0  0  0  0  0  0  0  0  0  0
    7.3741  -16.9144   20.2558 C   0  0  0  0  0  0  0  0  0  0  0  0
    6.4968  -15.8891   20.8575 C   0  0  0  0  0  0  0  0  0  0  0  0
    7.0838  -14.5193   21.0250 C   0  0  2  0  0  0  0  0  0  0  0  0
    7.7599  -14.0357   19.8676 N   0  0  0  0  0  0  0  0  0  0  0  0
    7.9107  -14.5006   22.2426 C   0  0  0  0  0  0  0  0  0  0  0  0
    9.1596  -14.6486   22.1377 O   0  0  0  0  0  0  0  0  0  0  0  0
    7.3934  -14.3300   23.5146 N   0  0  0  0  0  0  0  0  0  0  0  0
    8.1667  -14.3106   24.7378 C   0  0  1  0  0  0  0  0  0  0  0  0
    7.4830  -13.6451   25.8774 C   0  0  0  0  0  0  0  0  0  0  0  0
    5.7705  -14.1922   26.0852 S   0  0  0  0  0  0  0  0  0  0  0  0
    8.4970  -15.6977   25.1114 C   0  0  0  0  0  0  0  0  0  0  0  0
    7.7185  -16.6686   24.9040 O   0  0  0  0  0  0  0  0  0  0  0  0
   11.4396  -17.6514   24.0502 C   0  0  0  0  0  0  0  0  0  0  0  0
   11.4417  -17.6246   25.5467 C   0  0  2  0  0  0  0  0  0  0  0  0
   12.0091  -18.9335   26.0376 C   0  0  0  0  0  0  0  0  0  0  0  0
   10.1133  -17.3163   26.1594 C   0  0  2  0  0  0  0  0  0  0  0  0
    9.7277  -15.9859   25.7285 N   0  0  0  0  0  0  0  0  0  0  0  0
   10.0905  -17.4456   27.6312 C   0  0  0  0  0  0  0  0  0  0  0  0
    9.9892  -18.6838   28.2657 O   0  0  0  0  0  0  0  0  0  0  0  0
   10.1624  -16.4354   28.3459 O   0  0  0  0  0  0  0  0  0  0  0  0
  1  2  1  0
  2  3  2  0
  4  5  1  0
  4  2  1  0
  6  5  1  0
  6  8  1  0
  6  7  1  6
  8  9  2  0
 10 11  1  0
 10  8  1  0
 11 12  1  1
 13 12  1  0
 14 11  1  0
 14 15  2  0
 17 16  1  6
 17 19  1  0
 18 17  1  0
 19 20  1  1
 19 21  1  0
 20 14  1  0
 21 23  2  0
 21 22  1  0
M  END
$$$$
