QCV.pdb
     RDKit          3D

 23 22  0  0  1  0  0  0  0  0999 V2000
    2.1676  -25.2916   17.7772 N   0  0  0  0  0  0  0  0  0  0  0  0
    2.6241  -23.9371   17.6580 C   0  0  0  0  0  0  0  0  0  0  0  0
    2.0530  -23.1571   16.8559 O   0  0  0  0  0  0  0  0  0  0  0  0
    3.7467  -23.5227   18.4921 C   0  0  0  0  0  0  0  0  0  0  0  0
    4.2547  -22.1538   18.2668 C   0  0  0  0  0  0  0  0  0  0  0  0
    3.2551  -21.0413   18.3774 C   0  0  2  0  0  0  0  0  0  0  0  0
    2.8094  -20.5391   17.1206 N   0  0  0  0  0  0  0  0  0  0  0  0
    3.7944  -20.0029   19.2704 C   0  0  0  0  0  0  0  0  0  0  0  0
    4.5187  -19.0913   18.7832 O   0  0  0  0  0  0  0  0  0  0  0  0
    3.5533  -19.9662   20.6324 N   0  0  0  0  0  0  0  0  0  0  0  0
    3.9486  -18.8975   21.5247 C   0  0  1  0  0  0  0  0  0  0  0  0
    2.8310  -18.3284   22.3223 C   0  0  0  0  0  0  0  0  0  0  0  0
    1.8618  -19.5955   23.1767 S   0  0  0  0  0  0  0  0  0  0  0  0
    4.9896  -19.4033   22.4375 C   0  0  0  0  0  0  0  0  0  0  0  0
    5.0616  -20.6112   22.7950 O   0  0  0  0  0  0  0  0  0  0  0  0
    8.6859  -17.9638   22.3203 C   0  0  0  0  0  0  0  0  0  0  0  0
    8.1549  -18.0193   23.7186 C   0  0  2  0  0  0  0  0  0  0  0  0
    9.2978  -18.3673   24.6399 C   0  0  0  0  0  0  0  0  0  0  0  0
    6.9837  -18.9310   23.8974 C   0  0  2  0  0  0  0  0  0  0  0  0
    5.9617  -18.5259   22.9510 N   0  0  0  0  0  0  0  0  0  0  0  0
    6.4661  -18.9735   25.2808 C   0  0  0  0  0  0  0  0  0  0  0  0
    6.9112  -19.9131   26.2108 O   0  0  0  0  0  0  0  0  0  0  0  0
    5.6086  -18.1581   25.6497 O   0  0  0  0  0  0  0  0  0  0  0  0
  1  2  1  0
  2  3  2  0
  4  5  1  0
  4  2  1  0
  6  5  1  0
  6  8  1  0
  6  7  1  6
  8  9  2  0
 10 11  1  0
 10  8  1  0
 11 12  1  1
 13 12  1  0
 14 11  1  0
 14 15  2  0
 17 16  1  6
 17 19  1  0
 18 17  1  0
 19 20  1  6
 19 21  1  0
 20 14  1  0
 21 23  2  0
 21 22  1  0
M  END
$$$$
