QCV.pdb
     RDKit          3D

 23 22  0  0  1  0  0  0  0  0999 V2000
   12.1413  -18.4775   23.5399 N   0  0  0  0  0  0  0  0  0  0  0  0
   12.7479  -17.5854   22.5945 C   0  0  0  0  0  0  0  0  0  0  0  0
   13.8392  -17.0305   22.8754 O   0  0  0  0  0  0  0  0  0  0  0  0
   12.0575  -17.3655   21.3285 C   0  0  0  0  0  0  0  0  0  0  0  0
   10.6888  -17.9130   21.2297 C   0  0  0  0  0  0  0  0  0  0  0  0
    9.5864  -16.9233   20.9967 C   0  0  2  0  0  0  0  0  0  0  0  0
    9.7517  -16.1426   19.8162 N   0  0  0  0  0  0  0  0  0  0  0  0
    9.4025  -16.1188   22.2156 C   0  0  0  0  0  0  0  0  0  0  0  0
    9.9276  -14.9729   22.2786 O   0  0  0  0  0  0  0  0  0  0  0  0
    8.6795  -16.5502   23.3136 N   0  0  0  0  0  0  0  0  0  0  0  0
    8.3724  -15.7515   24.4808 C   0  0  1  0  0  0  0  0  0  0  0  0
    7.0034  -15.9648   25.0189 C   0  0  0  0  0  0  0  0  0  0  0  0
    6.5207  -14.7081   26.2283 S   0  0  0  0  0  0  0  0  0  0  0  0
    9.3607  -16.0505   25.5328 C   0  0  0  0  0  0  0  0  0  0  0  0
   10.0519  -17.1060   25.5456 O   0  0  0  0  0  0  0  0  0  0  0  0
    9.2412  -14.1095   29.4334 C   0  0  0  0  0  0  0  0  0  0  0  0
   10.4590  -14.1725   28.5654 C   0  0  2  0  0  0  0  0  0  0  0  0
   10.5609  -12.8725   27.8066 C   0  0  0  0  0  0  0  0  0  0  0  0
   10.5111  -15.3626   27.6622 C   0  0  2  0  0  0  0  0  0  0  0  0
    9.5669  -15.1388   26.5839 N   0  0  0  0  0  0  0  0  0  0  0  0
   10.2644  -16.6463   28.3513 C   0  0  0  0  0  0  0  0  0  0  0  0
    9.0702  -17.3513   28.2012 O   0  0  0  0  0  0  0  0  0  0  0  0
   11.1318  -17.1318   29.0918 O   0  0  0  0  0  0  0  0  0  0  0  0
  1  2  1  0
  2  3  2  0
  4  5  1  0
  4  2  1  0
  6  5  1  0
  6  8  1  0
  6  7  1  6
  8  9  2  0
 10 11  1  0
 10  8  1  0
 11 12  1  1
 13 12  1  0
 14 11  1  0
 14 15  2  0
 17 16  1  6
 17 19  1  0
 18 17  1  0
 19 20  1  6
 19 21  1  0
 20 14  1  0
 21 23  2  0
 21 22  1  0
M  END
$$$$
