ARN.pdb
     RDKit          3D

 25 24  0  0  1  0  0  0  0  0999 V2000
    7.6486  -18.2166   27.0881 C   0  0  0  0  0  0  0  0  0  0  0  0
    6.8636  -18.6091   25.8631 C   0  0  2  0  0  0  0  0  0  0  0  0
    6.7070  -20.0324   25.7974 N   0  0  0  0  0  0  0  0  0  0  0  0
    7.6047  -18.1502   24.6677 C   0  0  0  0  0  0  0  0  0  0  0  0
    8.3047  -18.9941   24.0227 O   0  0  0  0  0  0  0  0  0  0  0  0
    7.8178  -15.2583   18.2017 N   0  0  0  0  0  0  0  0  0  0  0  0
    8.0911  -13.8724   18.3118 C   0  0  0  0  0  0  0  0  0  0  0  0
    8.7096  -13.2675   17.3352 N   0  0  0  0  0  0  0  0  0  0  0  0
    7.7279  -13.0965   19.4283 N   0  0  0  0  0  0  0  0  0  0  0  0
    7.1102  -13.6670   20.5973 C   0  0  0  0  0  0  0  0  0  0  0  0
    8.1318  -14.4557   21.3949 C   0  0  0  0  0  0  0  0  0  0  0  0
    7.4882  -15.0932   22.5730 C   0  0  0  0  0  0  0  0  0  0  0  0
    8.1633  -16.3396   23.0613 C   0  0  2  0  0  0  0  0  0  0  0  0
    7.5232  -16.8069   24.2723 N   0  0  0  0  0  0  0  0  0  0  0  0
    9.5625  -15.9642   23.4010 C   0  0  0  0  0  0  0  0  0  0  0  0
    9.7578  -15.1293   24.3175 O   0  0  0  0  0  0  0  0  0  0  0  0
    9.0042  -12.2822   17.3857 N   0  0  0  0  0  0  0  0  0  0  0  0
   11.7830  -19.0666   25.2723 C   0  0  0  0  0  0  0  0  0  0  0  0
   12.1497  -17.7331   24.9497 O   0  0  0  0  0  0  0  0  0  0  0  0
   12.0211  -16.8635   25.8259 C   0  0  0  0  0  0  0  0  0  0  0  0
   12.6632  -17.4091   23.6182 C   0  0  2  0  0  0  0  0  0  0  0  0
   11.9957  -16.1693   23.0739 N   0  0  0  0  0  0  0  0  0  0  0  0
   10.6274  -16.5531   22.6874 C   0  0  0  0  0  0  0  0  0  0  0  0
   12.6542  -15.8336   21.7723 O   0  0  0  0  0  0  0  0  0  0  0  0
   12.0346  -16.0030   20.5549 O   0  0  0  0  0  0  0  0  0  0  0  0
  2  1  1  1
  2  3  1  0
  4  2  1  0
  5  4  2  0
  6  7  1  0
  7  8  2  0
  7  9  1  0
  9 10  1  0
 10 11  1  0
 11 12  1  0
 13 12  1  1
 13 14  1  0
 14  4  1  0
 15 16  2  0
 15 13  1  0
 18 20  1  0
 18 17  1  0
 19 18  2  0
 21 20  1  1
 21 22  1  0
 22 15  1  0
 23 21  1  0
 24 23  1  0
 25 23  2  0
M  END
$$$$
