ARN.pdb
     RDKit          3D

 25 24  0  0  1  0  0  0  0  0999 V2000
    6.5365  -19.6306   25.5786 C   0  0  0  0  0  0  0  0  0  0  0  0
    6.0286  -19.5213   24.1641 C   0  0  2  0  0  0  0  0  0  0  0  0
    6.0092  -20.8080   23.5327 N   0  0  0  0  0  0  0  0  0  0  0  0
    6.9364  -18.6285   23.4105 C   0  0  0  0  0  0  0  0  0  0  0  0
    7.9343  -19.1394   22.8095 O   0  0  0  0  0  0  0  0  0  0  0  0
    9.2568  -13.9133   17.7989 N   0  0  0  0  0  0  0  0  0  0  0  0
    8.5471  -13.2225   18.8123 C   0  0  0  0  0  0  0  0  0  0  0  0
    8.9447  -12.0316   19.1669 N   0  0  0  0  0  0  0  0  0  0  0  0
    7.4201  -13.7518   19.4683 N   0  0  0  0  0  0  0  0  0  0  0  0
    6.9785  -13.2732   20.7526 C   0  0  0  0  0  0  0  0  0  0  0  0
    7.7467  -13.9684   21.8609 C   0  0  0  0  0  0  0  0  0  0  0  0
    6.9018  -15.0095   22.5017 C   0  0  0  0  0  0  0  0  0  0  0  0
    7.5688  -16.3405   22.6783 C   0  0  2  0  0  0  0  0  0  0  0  0
    6.6828  -17.2494   23.3738 N   0  0  0  0  0  0  0  0  0  0  0  0
    8.7581  -16.1125   23.5429 C   0  0  0  0  0  0  0  0  0  0  0  0
    8.5793  -15.8050   24.7465 O   0  0  0  0  0  0  0  0  0  0  0  0
    8.5247  -11.5129   19.9509 N   0  0  0  0  0  0  0  0  0  0  0  0
   12.4410  -18.0051   26.7680 C   0  0  0  0  0  0  0  0  0  0  0  0
   12.5217  -17.5413   25.4282 O   0  0  0  0  0  0  0  0  0  0  0  0
   13.6293  -17.1792   25.0009 C   0  0  0  0  0  0  0  0  0  0  0  0
   11.3246  -17.4974   24.5877 C   0  0  1  0  0  0  0  0  0  0  0  0
   11.1937  -16.1538   23.9119 N   0  0  0  0  0  0  0  0  0  0  0  0
   10.0489  -16.2469   22.9899 C   0  0  0  0  0  0  0  0  0  0  0  0
   12.3716  -15.9860   23.0038 O   0  0  0  0  0  0  0  0  0  0  0  0
   13.5988  -15.5446   23.4441 O   0  0  0  0  0  0  0  0  0  0  0  0
  2  1  1  1
  2  3  1  0
  4  2  1  0
  5  4  2  0
  6  7  1  0
  7  8  2  0
  7  9  1  0
  9 10  1  0
 10 11  1  0
 11 12  1  0
 13 12  1  1
 13 14  1  0
 14  4  1  0
 15 16  2  0
 15 13  1  0
 18 20  1  0
 18 17  1  0
 19 18  2  0
 21 20  1  1
 21 22  1  0
 22 15  1  0
 23 21  1  0
 24 23  1  0
 25 23  2  0
M  END
$$$$
