ARN.pdb
     RDKit          3D

 25 24  0  0  1  0  0  0  0  0999 V2000
    7.9817  -12.4520   19.8131 C   0  0  0  0  0  0  0  0  0  0  0  0
    8.7722  -13.2841   20.7895 C   0  0  2  0  0  0  0  0  0  0  0  0
    9.4909  -14.3192   20.1063 N   0  0  0  0  0  0  0  0  0  0  0  0
    7.8280  -13.9035   21.7456 C   0  0  0  0  0  0  0  0  0  0  0  0
    7.0439  -13.1488   22.4041 O   0  0  0  0  0  0  0  0  0  0  0  0
    2.6840  -21.3867   21.1868 N   0  0  0  0  0  0  0  0  0  0  0  0
    2.4751  -20.1071   21.7584 C   0  0  0  0  0  0  0  0  0  0  0  0
    1.3076  -19.5384   21.6331 N   0  0  0  0  0  0  0  0  0  0  0  0
    3.4668  -19.4025   22.4661 N   0  0  0  0  0  0  0  0  0  0  0  0
    4.6541  -18.8927   21.8306 C   0  0  0  0  0  0  0  0  0  0  0  0
    5.4847  -18.1085   22.8291 C   0  0  0  0  0  0  0  0  0  0  0  0
    6.5424  -17.3352   22.1281 C   0  0  0  0  0  0  0  0  0  0  0  0
    6.7764  -15.9562   22.6680 C   0  0  2  0  0  0  0  0  0  0  0  0
    7.8158  -15.2968   21.9070 N   0  0  0  0  0  0  0  0  0  0  0  0
    7.2670  -16.1198   24.0632 C   0  0  0  0  0  0  0  0  0  0  0  0
    6.5165  -16.6683   24.9065 O   0  0  0  0  0  0  0  0  0  0  0  0
    1.0893  -18.6164   22.0360 N   0  0  0  0  0  0  0  0  0  0  0  0
    6.9964  -12.7810   26.5233 C   0  0  0  0  0  0  0  0  0  0  0  0
    7.8854  -13.7799   27.0012 O   0  0  0  0  0  0  0  0  0  0  0  0
    8.7977  -13.4322   27.7675 C   0  0  0  0  0  0  0  0  0  0  0  0
    7.7178  -15.1753   26.5931 C   0  0  2  0  0  0  0  0  0  0  0  0
    8.9251  -15.6576   25.8258 N   0  0  0  0  0  0  0  0  0  0  0  0
    8.5561  -15.6562   24.4000 C   0  0  0  0  0  0  0  0  0  0  0  0
    9.1158  -17.1076   26.1445 O   0  0  0  0  0  0  0  0  0  0  0  0
    9.5169  -17.5548   27.3830 O   0  0  0  0  0  0  0  0  0  0  0  0
  2  1  1  6
  2  3  1  0
  4  2  1  0
  5  4  2  0
  6  7  1  0
  7  8  2  0
  7  9  1  0
  9 10  1  0
 10 11  1  0
 11 12  1  0
 13 12  1  6
 13 14  1  0
 14  4  1  0
 15 16  2  0
 15 13  1  0
 18 20  1  0
 18 17  1  0
 19 18  2  0
 21 20  1  6
 21 22  1  0
 22 15  1  0
 23 21  1  0
 24 23  1  0
 25 23  2  0
M  END
$$$$
