ARN.pdb
     RDKit          3D

 25 24  0  0  1  0  0  0  0  0999 V2000
    9.7279  -21.4504   21.9436 C   0  0  0  0  0  0  0  0  0  0  0  0
    9.4863  -20.7794   20.6161 C   0  0  2  0  0  0  0  0  0  0  0  0
   10.1202  -21.5093   19.5577 N   0  0  0  0  0  0  0  0  0  0  0  0
   10.0590  -19.4163   20.6717 C   0  0  0  0  0  0  0  0  0  0  0  0
   11.2444  -19.2350   20.2476 O   0  0  0  0  0  0  0  0  0  0  0  0
    7.5325  -13.3900   17.1310 N   0  0  0  0  0  0  0  0  0  0  0  0
    7.8882  -13.1808   18.4865 C   0  0  0  0  0  0  0  0  0  0  0  0
    8.8575  -12.3543   18.7684 N   0  0  0  0  0  0  0  0  0  0  0  0
    7.2472  -13.8199   19.5640 N   0  0  0  0  0  0  0  0  0  0  0  0
    7.7481  -13.7497   20.9123 C   0  0  0  0  0  0  0  0  0  0  0  0
    8.9906  -14.6088   21.0528 C   0  0  0  0  0  0  0  0  0  0  0  0
    8.6180  -16.0430   21.1648 C   0  0  0  0  0  0  0  0  0  0  0  0
    9.7751  -16.9964   21.1557 C   0  0  2  0  0  0  0  0  0  0  0  0
    9.2923  -18.3605   21.1863 N   0  0  0  0  0  0  0  0  0  0  0  0
   10.5390  -16.7551   22.4096 C   0  0  0  0  0  0  0  0  0  0  0  0
   10.0906  -17.2155   23.4876 O   0  0  0  0  0  0  0  0  0  0  0  0
    9.2341  -12.2387   19.7197 N   0  0  0  0  0  0  0  0  0  0  0  0
   13.7935  -19.3120   25.2408 C   0  0  0  0  0  0  0  0  0  0  0  0
   12.9583  -18.2311   24.8528 O   0  0  0  0  0  0  0  0  0  0  0  0
   12.2395  -17.7079   25.7189 C   0  0  0  0  0  0  0  0  0  0  0  0
   12.9562  -17.7585   23.4678 C   0  0  2  0  0  0  0  0  0  0  0  0
   12.7361  -16.2661   23.4114 N   0  0  0  0  0  0  0  0  0  0  0  0
   11.7410  -16.0187   22.3542 C   0  0  0  0  0  0  0  0  0  0  0  0
   13.9877  -15.6427   22.8774 O   0  0  0  0  0  0  0  0  0  0  0  0
   14.0782  -15.1141   21.6097 O   0  0  0  0  0  0  0  0  0  0  0  0
  2  1  1  1
  2  3  1  0
  4  2  1  0
  5  4  2  0
  6  7  1  0
  7  8  2  0
  7  9  1  0
  9 10  1  0
 10 11  1  0
 11 12  1  0
 13 12  1  1
 13 14  1  0
 14  4  1  0
 15 16  2  0
 15 13  1  0
 18 20  1  0
 18 17  1  0
 19 18  2  0
 21 20  1  1
 21 22  1  0
 22 15  1  0
 23 21  1  0
 24 23  1  0
 25 23  2  0
M  END
$$$$
