ARN.pdb
     RDKit          3D

 25 24  0  0  1  0  0  0  0  0999 V2000
    8.0637  -12.1425   20.1067 C   0  0  0  0  0  0  0  0  0  0  0  0
    8.0193  -13.0780   18.9262 C   0  0  2  0  0  0  0  0  0  0  0  0
    6.7620  -12.9743   18.2456 N   0  0  0  0  0  0  0  0  0  0  0  0
    8.1862  -14.4621   19.4216 C   0  0  0  0  0  0  0  0  0  0  0  0
    7.3482  -15.3463   19.0555 O   0  0  0  0  0  0  0  0  0  0  0  0
   12.3096  -21.2601   16.3832 N   0  0  0  0  0  0  0  0  0  0  0  0
   11.7247  -19.9811   16.5555 C   0  0  0  0  0  0  0  0  0  0  0  0
   10.4571  -19.8216   16.2910 N   0  0  0  0  0  0  0  0  0  0  0  0
   12.4400  -18.8550   17.0036 N   0  0  0  0  0  0  0  0  0  0  0  0
   11.8119  -17.5779   17.2225 C   0  0  0  0  0  0  0  0  0  0  0  0
   11.2325  -17.5145   18.6232 C   0  0  0  0  0  0  0  0  0  0  0  0
   10.5749  -16.2017   18.8522 C   0  0  0  0  0  0  0  0  0  0  0  0
    9.9363  -16.0441   20.1995 C   0  0  2  0  0  0  0  0  0  0  0  0
    9.2539  -14.7703   20.2775 N   0  0  0  0  0  0  0  0  0  0  0  0
   11.0396  -16.0321   21.1979 C   0  0  0  0  0  0  0  0  0  0  0  0
   11.9940  -15.2339   21.0331 O   0  0  0  0  0  0  0  0  0  0  0  0
    9.9755  -18.9168   16.3892 N   0  0  0  0  0  0  0  0  0  0  0  0
    9.5145  -15.4368   24.3186 C   0  0  0  0  0  0  0  0  0  0  0  0
    9.9555  -16.5764   25.0420 O   0  0  0  0  0  0  0  0  0  0  0  0
    9.2654  -16.9650   25.9976 C   0  0  0  0  0  0  0  0  0  0  0  0
   11.1903  -17.2626   24.6598 C   0  0  2  0  0  0  0  0  0  0  0  0
   11.8255  -16.5953   23.4639 N   0  0  0  0  0  0  0  0  0  0  0  0
   10.9845  -16.9139   22.2976 C   0  0  0  0  0  0  0  0  0  0  0  0
   13.1134  -17.3033   23.1802 O   0  0  0  0  0  0  0  0  0  0  0  0
   14.3452  -16.7146   23.3559 O   0  0  0  0  0  0  0  0  0  0  0  0
  2  1  1  1
  2  3  1  0
  4  2  1  0
  5  4  2  0
  6  7  1  0
  7  8  2  0
  7  9  1  0
  9 10  1  0
 10 11  1  0
 11 12  1  0
 13 12  1  6
 13 14  1  0
 14  4  1  0
 15 16  2  0
 15 13  1  0
 18 20  1  0
 18 17  1  0
 19 18  2  0
 21 20  1  1
 21 22  1  0
 22 15  1  0
 23 21  1  0
 24 23  1  0
 25 23  2  0
M  END
$$$$
