ARN.pdb
     RDKit          3D

 25 24  0  0  1  0  0  0  0  0999 V2000
    9.5421  -12.1373   19.7129 C   0  0  0  0  0  0  0  0  0  0  0  0
    8.7939  -13.3550   19.2351 C   0  0  2  0  0  0  0  0  0  0  0  0
    7.8205  -12.9950   18.2464 N   0  0  0  0  0  0  0  0  0  0  0  0
    8.1021  -13.9614   20.3939 C   0  0  0  0  0  0  0  0  0  0  0  0
    6.9065  -13.6068   20.6445 O   0  0  0  0  0  0  0  0  0  0  0  0
    3.7736  -20.1739   21.0853 N   0  0  0  0  0  0  0  0  0  0  0  0
    3.8471  -19.4255   22.2862 C   0  0  0  0  0  0  0  0  0  0  0  0
    2.7722  -19.2809   23.0112 N   0  0  0  0  0  0  0  0  0  0  0  0
    5.0295  -18.8208   22.7520 N   0  0  0  0  0  0  0  0  0  0  0  0
    6.2358  -18.7771   21.9668 C   0  0  0  0  0  0  0  0  0  0  0  0
    7.3200  -18.0267   22.7172 C   0  0  0  0  0  0  0  0  0  0  0  0
    8.0650  -17.1328   21.7929 C   0  0  0  0  0  0  0  0  0  0  0  0
    8.0666  -15.6850   22.1824 C   0  0  2  0  0  0  0  0  0  0  0  0
    8.7708  -14.9057   21.1868 N   0  0  0  0  0  0  0  0  0  0  0  0
    8.8245  -15.5854   23.4590 C   0  0  0  0  0  0  0  0  0  0  0  0
   10.0789  -15.5840   23.4176 O   0  0  0  0  0  0  0  0  0  0  0  0
    2.7599  -18.7474   23.8918 N   0  0  0  0  0  0  0  0  0  0  0  0
   10.1920  -14.4158   28.2077 C   0  0  0  0  0  0  0  0  0  0  0  0
    8.7816  -14.2791   28.1148 O   0  0  0  0  0  0  0  0  0  0  0  0
    8.1495  -14.0246   29.1521 C   0  0  0  0  0  0  0  0  0  0  0  0
    8.1069  -14.4363   26.8257 C   0  0  1  0  0  0  0  0  0  0  0  0
    8.9069  -15.3288   25.9079 N   0  0  0  0  0  0  0  0  0  0  0  0
    8.1170  -15.4962   24.6762 C   0  0  0  0  0  0  0  0  0  0  0  0
    8.9252  -16.6991   26.5100 O   0  0  0  0  0  0  0  0  0  0  0  0
    8.2125  -17.7549   25.9885 O   0  0  0  0  0  0  0  0  0  0  0  0
  2  1  1  1
  2  3  1  0
  4  2  1  0
  5  4  2  0
  6  7  1  0
  7  8  2  0
  7  9  1  0
  9 10  1  0
 10 11  1  0
 11 12  1  0
 13 12  1  6
 13 14  1  0
 14  4  1  0
 15 16  2  0
 15 13  1  0
 18 20  1  0
 18 17  1  0
 19 18  2  0
 21 20  1  6
 21 22  1  0
 22 15  1  0
 23 21  1  0
 24 23  1  0
 25 23  2  0
M  END
$$$$
