ARN.pdb
     RDKit          3D

 25 24  0  0  1  0  0  0  0  0999 V2000
   10.9404  -20.3401   19.5599 C   0  0  0  0  0  0  0  0  0  0  0  0
   10.9792  -19.1597   18.6240 C   0  0  2  0  0  0  0  0  0  0  0  0
   11.8754  -19.4082   17.5332 N   0  0  0  0  0  0  0  0  0  0  0  0
   11.4559  -17.9807   19.3801 C   0  0  0  0  0  0  0  0  0  0  0  0
   12.6970  -17.7030   19.3583 O   0  0  0  0  0  0  0  0  0  0  0  0
    8.8205  -13.4970   17.1961 N   0  0  0  0  0  0  0  0  0  0  0  0
    7.6819  -13.0818   17.9303 C   0  0  0  0  0  0  0  0  0  0  0  0
    6.5158  -13.0777   17.3453 N   0  0  0  0  0  0  0  0  0  0  0  0
    7.7343  -12.6687   19.2746 N   0  0  0  0  0  0  0  0  0  0  0  0
    8.0917  -13.5640   20.3443 C   0  0  0  0  0  0  0  0  0  0  0  0
    9.3981  -14.2654   20.0232 C   0  0  0  0  0  0  0  0  0  0  0  0
    9.7974  -15.1545   21.1450 C   0  0  0  0  0  0  0  0  0  0  0  0
   10.9699  -16.0433   20.8570 C   0  0  2  0  0  0  0  0  0  0  0  0
   10.5400  -17.1996   20.1002 N   0  0  0  0  0  0  0  0  0  0  0  0
   11.4778  -16.5219   22.1712 C   0  0  0  0  0  0  0  0  0  0  0  0
   10.7844  -17.3383   22.8253 O   0  0  0  0  0  0  0  0  0  0  0  0
    5.6694  -12.6950   17.7895 N   0  0  0  0  0  0  0  0  0  0  0  0
   13.8041  -19.1688   25.5284 C   0  0  0  0  0  0  0  0  0  0  0  0
   13.3059  -19.1848   24.1987 O   0  0  0  0  0  0  0  0  0  0  0  0
   12.5297  -20.0981   23.8764 C   0  0  0  0  0  0  0  0  0  0  0  0
   13.7053  -18.1474   23.2470 C   0  0  2  0  0  0  0  0  0  0  0  0
   13.3400  -16.7769   23.7640 N   0  0  0  0  0  0  0  0  0  0  0  0
   12.7189  -16.0476   22.6453 C   0  0  0  0  0  0  0  0  0  0  0  0
   14.6138  -16.0316   24.0136 O   0  0  0  0  0  0  0  0  0  0  0  0
   15.0413  -14.9933   23.2174 O   0  0  0  0  0  0  0  0  0  0  0  0
  2  1  1  1
  2  3  1  0
  4  2  1  0
  5  4  2  0
  6  7  1  0
  7  8  2  0
  7  9  1  0
  9 10  1  0
 10 11  1  0
 11 12  1  0
 13 12  1  1
 13 14  1  0
 14  4  1  0
 15 16  2  0
 15 13  1  0
 18 20  1  0
 18 17  1  0
 19 18  2  0
 21 20  1  1
 21 22  1  0
 22 15  1  0
 23 21  1  0
 24 23  1  0
 25 23  2  0
M  END
$$$$
