VQD.pdb
     RDKit          3D

 25 24  0  0  1  0  0  0  0  0999 V2000
    8.4219  -12.3441   25.6577 C   0  0  0  0  0  0  0  0  0  0  0  0
    7.4743  -13.0913   26.5754 C   0  0  1  0  0  0  0  0  0  0  0  0
    6.8565  -12.1769   27.6161 C   0  0  0  0  0  0  0  0  0  0  0  0
    6.3329  -13.6538   25.7556 C   0  0  2  0  0  0  0  0  0  0  0  0
    5.5190  -14.4823   26.5990 N   0  0  0  0  0  0  0  0  0  0  0  0
    6.8290  -14.4574   24.6144 C   0  0  0  0  0  0  0  0  0  0  0  0
    6.9336  -15.6895   24.8216 O   0  0  0  0  0  0  0  0  0  0  0  0
    8.8920  -12.8747   17.9499 N   0  0  0  0  0  0  0  0  0  0  0  0
    8.0712  -13.8917   18.5008 C   0  0  0  0  0  0  0  0  0  0  0  0
    7.0921  -14.2981   17.8421 O   0  0  0  0  0  0  0  0  0  0  0  0
    8.3328  -14.5066   19.8466 C   0  0  0  0  0  0  0  0  0  0  0  0
    7.6019  -13.7724   20.9364 C   0  0  0  0  0  0  0  0  0  0  0  0
    7.7742  -14.5151   22.2453 C   0  0  2  0  0  0  0  0  0  0  0  0
    7.1585  -13.8662   23.3820 N   0  0  0  0  0  0  0  0  0  0  0  0
    9.0799  -15.0933   22.4814 C   0  0  0  0  0  0  0  0  0  0  0  0
   10.0250  -14.9102   21.6345 O   0  0  0  0  0  0  0  0  0  0  0  0
    9.4536  -15.8814   23.6023 N   0  0  0  0  0  0  0  0  0  0  0  0
   10.7632  -16.5027   23.7156 C   0  0  1  0  0  0  0  0  0  0  0  0
   11.8220  -15.4579   23.4804 C   0  0  0  0  0  0  0  0  0  0  0  0
   12.8247  -15.8345   22.4836 C   0  0  0  0  0  0  0  0  0  0  0  0
   12.5605  -16.8598   21.7762 O   0  0  0  0  0  0  0  0  0  0  0  0
   10.9551  -17.2381   24.9544 C   0  0  0  0  0  0  0  0  0  0  0  0
   10.0098  -17.2101   25.9530 O   0  0  0  0  0  0  0  0  0  0  0  0
   14.0124  -15.2078   22.2287 O   0  0  0  0  0  0  0  0  0  0  0  0
   11.9890  -17.9099   25.1290 O   0  0  0  0  0  0  0  0  0  0  0  0
  2  1  1  6
  2  3  1  0
  4  2  1  0
  4  6  1  0
  4  5  1  1
  6 14  1  0
  7  6  2  0
  9 11  1  0
  9  8  1  0
 10  9  2  0
 12 11  1  0
 13 12  1  6
 14 13  1  0
 15 13  1  0
 15 17  1  0
 16 15  2  0
 18 17  1  0
 18 19  1  1
 20 21  2  0
 20 19  1  0
 22 23  1  0
 22 18  1  0
 24 20  1  0
 25 22  2  0
M  END
$$$$
