VQD.pdb
     RDKit          3D

 25 24  0  0  1  0  0  0  0  0999 V2000
    7.6637  -12.4267   24.4009 C   0  0  0  0  0  0  0  0  0  0  0  0
    7.1884  -12.2232   25.8261 C   0  0  1  0  0  0  0  0  0  0  0  0
    6.5283  -10.8705   26.0144 C   0  0  0  0  0  0  0  0  0  0  0  0
    6.1433  -13.2683   26.1526 C   0  0  2  0  0  0  0  0  0  0  0  0
    5.5794  -12.9755   27.4396 N   0  0  0  0  0  0  0  0  0  0  0  0
    6.7257  -14.6302   26.1734 C   0  0  0  0  0  0  0  0  0  0  0  0
    7.5082  -14.8726   27.1225 O   0  0  0  0  0  0  0  0  0  0  0  0
    4.6437  -19.9287   22.9973 N   0  0  0  0  0  0  0  0  0  0  0  0
    5.8857  -20.2558   23.5991 C   0  0  0  0  0  0  0  0  0  0  0  0
    6.2728  -21.4421   23.5746 O   0  0  0  0  0  0  0  0  0  0  0  0
    6.7611  -19.2313   24.2638 C   0  0  0  0  0  0  0  0  0  0  0  0
    6.1054  -17.8783   24.2815 C   0  0  0  0  0  0  0  0  0  0  0  0
    6.9770  -16.9079   25.0517 C   0  0  2  0  0  0  0  0  0  0  0  0
    6.4141  -15.5824   25.1868 N   0  0  0  0  0  0  0  0  0  0  0  0
    8.3953  -16.9639   24.7683 C   0  0  0  0  0  0  0  0  0  0  0  0
    8.8505  -16.4730   23.6747 O   0  0  0  0  0  0  0  0  0  0  0  0
    9.3924  -17.5297   25.6065 N   0  0  0  0  0  0  0  0  0  0  0  0
   10.7875  -17.6180   25.2068 C   0  0  1  0  0  0  0  0  0  0  0  0
   11.2272  -16.2824   24.6677 C   0  0  0  0  0  0  0  0  0  0  0  0
   12.1473  -16.3673   23.5333 C   0  0  0  0  0  0  0  0  0  0  0  0
   12.4094  -17.5376   23.1051 O   0  0  0  0  0  0  0  0  0  0  0  0
   11.6625  -18.1262   26.2502 C   0  0  0  0  0  0  0  0  0  0  0  0
   11.1815  -18.4115   27.5067 O   0  0  0  0  0  0  0  0  0  0  0  0
   12.7560  -15.3302   22.8835 O   0  0  0  0  0  0  0  0  0  0  0  0
   12.8716  -18.3116   26.0168 O   0  0  0  0  0  0  0  0  0  0  0  0
  2  1  1  6
  2  3  1  0
  4  2  1  0
  4  6  1  0
  4  5  1  1
  6 14  1  0
  7  6  2  0
  9 11  1  0
  9  8  1  0
 10  9  2  0
 12 11  1  0
 13 12  1  6
 14 13  1  0
 15 13  1  0
 15 17  1  0
 16 15  2  0
 18 17  1  0
 18 19  1  1
 20 21  2  0
 20 19  1  0
 22 23  1  0
 22 18  1  0
 24 20  1  0
 25 22  2  0
M  END
$$$$
