VQD.pdb
     RDKit          3D

 25 24  0  0  1  0  0  0  0  0999 V2000
    9.3904  -12.4064   20.2773 C   0  0  0  0  0  0  0  0  0  0  0  0
    8.3333  -13.1705   19.5046 C   0  0  1  0  0  0  0  0  0  0  0  0
    7.4001  -12.2408   18.7524 C   0  0  0  0  0  0  0  0  0  0  0  0
    9.0111  -14.0410   18.4683 C   0  0  2  0  0  0  0  0  0  0  0  0
    8.0052  -14.7147   17.6973 N   0  0  0  0  0  0  0  0  0  0  0  0
    9.8970  -15.0465   19.0996 C   0  0  0  0  0  0  0  0  0  0  0  0
    9.4804  -16.2288   19.0772 O   0  0  0  0  0  0  0  0  0  0  0  0
   13.1527  -17.1533   15.5416 N   0  0  0  0  0  0  0  0  0  0  0  0
   12.4917  -17.2309   16.7941 C   0  0  0  0  0  0  0  0  0  0  0  0
   11.8280  -18.2533   17.0624 O   0  0  0  0  0  0  0  0  0  0  0  0
   12.5595  -16.1331   17.8178 C   0  0  0  0  0  0  0  0  0  0  0  0
   12.5303  -16.6848   19.2162 C   0  0  0  0  0  0  0  0  0  0  0  0
   12.1437  -15.5841   20.1824 C   0  0  2  0  0  0  0  0  0  0  0  0
   11.1244  -14.6871   19.6838 N   0  0  0  0  0  0  0  0  0  0  0  0
   13.2319  -14.9611   20.9054 C   0  0  0  0  0  0  0  0  0  0  0  0
   14.1284  -14.3001   20.2702 O   0  0  0  0  0  0  0  0  0  0  0  0
   13.4306  -15.0000   22.3111 N   0  0  0  0  0  0  0  0  0  0  0  0
   14.5293  -15.7303   22.9223 C   0  0  1  0  0  0  0  0  0  0  0  0
   14.0917  -17.1485   23.1775 C   0  0  0  0  0  0  0  0  0  0  0  0
   13.5253  -17.3708   24.5081 C   0  0  0  0  0  0  0  0  0  0  0  0
   13.9515  -16.6116   25.4374 O   0  0  0  0  0  0  0  0  0  0  0  0
   15.7737  -15.6445   22.1762 C   0  0  0  0  0  0  0  0  0  0  0  0
   15.9009  -16.2224   20.9347 O   0  0  0  0  0  0  0  0  0  0  0  0
   12.5904  -18.3026   24.8631 O   0  0  0  0  0  0  0  0  0  0  0  0
   16.7506  -15.0402   22.6571 O   0  0  0  0  0  0  0  0  0  0  0  0
  2  1  1  6
  2  3  1  0
  4  2  1  0
  4  6  1  0
  4  5  1  1
  6 14  1  0
  7  6  2  0
  9 11  1  0
  9  8  1  0
 10  9  2  0
 12 11  1  0
 13 12  1  6
 14 13  1  0
 15 13  1  0
 15 17  1  0
 16 15  2  0
 18 17  1  0
 18 19  1  6
 20 21  2  0
 20 19  1  0
 22 23  1  0
 22 18  1  0
 24 20  1  0
 25 22  2  0
M  END
$$$$
