VQD.pdb
     RDKit          3D

 25 24  0  0  1  0  0  0  0  0999 V2000
    7.6343  -12.0794   19.1320 C   0  0  0  0  0  0  0  0  0  0  0  0
    8.8452  -12.8478   19.6237 C   0  0  1  0  0  0  0  0  0  0  0  0
    8.5178  -13.7078   20.8295 C   0  0  0  0  0  0  0  0  0  0  0  0
    9.3119  -13.7864   18.5317 C   0  0  2  0  0  0  0  0  0  0  0  0
    8.2186  -14.6337   18.1485 N   0  0  0  0  0  0  0  0  0  0  0  0
   10.4445  -14.6264   18.9854 C   0  0  0  0  0  0  0  0  0  0  0  0
   10.1477  -15.7887   19.3498 O   0  0  0  0  0  0  0  0  0  0  0  0
   16.2928  -13.6465   16.8860 N   0  0  0  0  0  0  0  0  0  0  0  0
   15.2285  -14.4068   16.3376 C   0  0  0  0  0  0  0  0  0  0  0  0
   15.2686  -14.7142   15.1286 O   0  0  0  0  0  0  0  0  0  0  0  0
   14.0521  -14.8636   17.1532 C   0  0  0  0  0  0  0  0  0  0  0  0
   14.1965  -14.4640   18.5956 C   0  0  0  0  0  0  0  0  0  0  0  0
   12.9556  -14.8799   19.3585 C   0  0  2  0  0  0  0  0  0  0  0  0
   11.7641  -14.1412   19.0025 N   0  0  0  0  0  0  0  0  0  0  0  0
   13.1353  -15.1426   20.7705 C   0  0  0  0  0  0  0  0  0  0  0  0
   13.0753  -14.1794   21.6147 O   0  0  0  0  0  0  0  0  0  0  0  0
   13.3834  -16.4113   21.3585 N   0  0  0  0  0  0  0  0  0  0  0  0
   13.5106  -16.5921   22.7956 C   0  0  1  0  0  0  0  0  0  0  0  0
   12.8064  -17.8627   23.1928 C   0  0  0  0  0  0  0  0  0  0  0  0
   12.9210  -18.1925   24.6136 C   0  0  0  0  0  0  0  0  0  0  0  0
   13.6865  -17.4471   25.3064 O   0  0  0  0  0  0  0  0  0  0  0  0
   14.8820  -16.5289   23.2726 C   0  0  0  0  0  0  0  0  0  0  0  0
   15.1649  -16.4053   24.6128 O   0  0  0  0  0  0  0  0  0  0  0  0
   12.2977  -19.2113   25.2783 O   0  0  0  0  0  0  0  0  0  0  0  0
   15.8282  -16.5865   22.4650 O   0  0  0  0  0  0  0  0  0  0  0  0
  2  1  1  6
  2  3  1  0
  4  2  1  0
  4  6  1  0
  4  5  1  1
  6 14  1  0
  7  6  2  0
  9 11  1  0
  9  8  1  0
 10  9  2  0
 12 11  1  0
 13 12  1  1
 14 13  1  0
 15 13  1  0
 15 17  1  0
 16 15  2  0
 18 17  1  0
 18 19  1  6
 20 21  2  0
 20 19  1  0
 22 23  1  0
 22 18  1  0
 24 20  1  0
 25 22  2  0
M  END
$$$$
