VQD.pdb
     RDKit          3D

 25 24  0  0  1  0  0  0  0  0999 V2000
    9.1750  -12.5577   20.2138 C   0  0  0  0  0  0  0  0  0  0  0  0
    8.2838  -13.4630   19.3864 C   0  0  1  0  0  0  0  0  0  0  0  0
    7.2012  -12.6839   18.6640 C   0  0  0  0  0  0  0  0  0  0  0  0
    9.1194  -14.1397   18.3210 C   0  0  2  0  0  0  0  0  0  0  0  0
    8.2554  -14.9096   17.4720 N   0  0  0  0  0  0  0  0  0  0  0  0
   10.1398  -15.0327   18.9175 C   0  0  0  0  0  0  0  0  0  0  0  0
    9.7976  -16.2304   19.0602 O   0  0  0  0  0  0  0  0  0  0  0  0
   16.1446  -15.7560   17.7120 N   0  0  0  0  0  0  0  0  0  0  0  0
   15.4005  -14.5512   17.6322 C   0  0  0  0  0  0  0  0  0  0  0  0
   15.8840  -13.5852   17.0071 O   0  0  0  0  0  0  0  0  0  0  0  0
   14.0482  -14.3881   18.2665 C   0  0  0  0  0  0  0  0  0  0  0  0
   13.6262  -15.6385   18.9872 C   0  0  0  0  0  0  0  0  0  0  0  0
   12.4711  -15.3186   19.9136 C   0  0  2  0  0  0  0  0  0  0  0  0
   11.4077  -14.5572   19.2960 N   0  0  0  0  0  0  0  0  0  0  0  0
   12.8261  -14.9263   21.2609 C   0  0  0  0  0  0  0  0  0  0  0  0
   13.8765  -14.2207   21.4675 O   0  0  0  0  0  0  0  0  0  0  0  0
   12.1065  -15.2503   22.4416 N   0  0  0  0  0  0  0  0  0  0  0  0
   12.3795  -16.4505   23.2154 C   0  0  1  0  0  0  0  0  0  0  0  0
   11.6291  -17.6057   22.6070 C   0  0  0  0  0  0  0  0  0  0  0  0
   10.6007  -18.1771   23.4768 C   0  0  0  0  0  0  0  0  0  0  0  0
   10.4762  -17.6470   24.6279 O   0  0  0  0  0  0  0  0  0  0  0  0
   13.7966  -16.7220   23.3909 C   0  0  0  0  0  0  0  0  0  0  0  0
   14.4137  -16.5291   24.6047 O   0  0  0  0  0  0  0  0  0  0  0  0
    9.7599  -19.2160   23.1903 O   0  0  0  0  0  0  0  0  0  0  0  0
   14.4768  -17.1370   22.4339 O   0  0  0  0  0  0  0  0  0  0  0  0
  2  1  1  6
  2  3  1  0
  4  2  1  0
  4  6  1  0
  4  5  1  6
  6 14  1  0
  7  6  2  0
  9 11  1  0
  9  8  1  0
 10  9  2  0
 12 11  1  0
 13 12  1  6
 14 13  1  0
 15 13  1  0
 15 17  1  0
 16 15  2  0
 18 17  1  0
 18 19  1  6
 20 21  2  0
 20 19  1  0
 22 23  1  0
 22 18  1  0
 24 20  1  0
 25 22  2  0
M  END
$$$$
