VQD.pdb
     RDKit          3D

 25 24  0  0  1  0  0  0  0  0999 V2000
    7.3431  -15.8954   19.6293 C   0  0  0  0  0  0  0  0  0  0  0  0
    7.9222  -14.6149   19.0606 C   0  0  1  0  0  0  0  0  0  0  0  0
    7.2643  -14.2304   17.7491 C   0  0  0  0  0  0  0  0  0  0  0  0
    7.6609  -13.4814   20.0290 C   0  0  2  0  0  0  0  0  0  0  0  0
    8.1554  -12.2602   19.4595 N   0  0  0  0  0  0  0  0  0  0  0  0
    8.3255  -13.7165   21.3318 C   0  0  0  0  0  0  0  0  0  0  0  0
    9.5785  -13.6732   21.3188 O   0  0  0  0  0  0  0  0  0  0  0  0
    5.2096  -13.3971   26.8647 N   0  0  0  0  0  0  0  0  0  0  0  0
    6.1208  -12.4114   26.4069 C   0  0  0  0  0  0  0  0  0  0  0  0
    6.0707  -11.2677   26.9040 O   0  0  0  0  0  0  0  0  0  0  0  0
    7.1509  -12.6866   25.3481 C   0  0  0  0  0  0  0  0  0  0  0  0
    7.1490  -14.1351   24.9445 C   0  0  0  0  0  0  0  0  0  0  0  0
    8.1173  -14.3381   23.7975 C   0  0  2  0  0  0  0  0  0  0  0  0
    7.5888  -13.9712   22.5021 N   0  0  0  0  0  0  0  0  0  0  0  0
    8.9032  -15.5530   23.8359 C   0  0  0  0  0  0  0  0  0  0  0  0
    8.4332  -16.6368   23.3376 O   0  0  0  0  0  0  0  0  0  0  0  0
   10.2033  -15.6890   24.3912 N   0  0  0  0  0  0  0  0  0  0  0  0
   10.8928  -16.9674   24.4556 C   0  0  1  0  0  0  0  0  0  0  0  0
   12.2456  -16.8264   23.8092 C   0  0  0  0  0  0  0  0  0  0  0  0
   13.0492  -18.0489   23.8278 C   0  0  0  0  0  0  0  0  0  0  0  0
   12.4941  -19.0968   23.3639 O   0  0  0  0  0  0  0  0  0  0  0  0
   10.9581  -17.5285   25.7948 C   0  0  0  0  0  0  0  0  0  0  0  0
   11.4336  -18.8007   26.0115 O   0  0  0  0  0  0  0  0  0  0  0  0
   14.3286  -18.1899   24.2880 O   0  0  0  0  0  0  0  0  0  0  0  0
   10.5801  -16.8571   26.7731 O   0  0  0  0  0  0  0  0  0  0  0  0
  2  1  1  1
  2  3  1  0
  4  2  1  0
  4  6  1  0
  4  5  1  6
  6 14  1  0
  7  6  2  0
  9 11  1  0
  9  8  1  0
 10  9  2  0
 12 11  1  0
 13 12  1  1
 14 13  1  0
 15 13  1  0
 15 17  1  0
 16 15  2  0
 18 17  1  0
 18 19  1  1
 20 21  2  0
 20 19  1  0
 22 23  1  0
 22 18  1  0
 24 20  1  0
 25 22  2  0
M  END
$$$$
