VQD.pdb
     RDKit          3D

 25 24  0  0  1  0  0  0  0  0999 V2000
    7.9105  -11.5890   25.7856 C   0  0  0  0  0  0  0  0  0  0  0  0
    6.9540  -12.3137   26.7121 C   0  0  1  0  0  0  0  0  0  0  0  0
    6.1129  -11.3476   27.5246 C   0  0  0  0  0  0  0  0  0  0  0  0
    5.9931  -13.1390   25.8834 C   0  0  2  0  0  0  0  0  0  0  0  0
    5.1999  -13.9505   26.7623 N   0  0  0  0  0  0  0  0  0  0  0  0
    6.7127  -14.0134   24.9285 C   0  0  0  0  0  0  0  0  0  0  0  0
    7.1998  -15.0623   25.4126 O   0  0  0  0  0  0  0  0  0  0  0  0
    7.6326  -12.8365   18.5185 N   0  0  0  0  0  0  0  0  0  0  0  0
    8.2526  -14.0748   18.8244 C   0  0  0  0  0  0  0  0  0  0  0  0
    8.7934  -14.7212   17.9038 O   0  0  0  0  0  0  0  0  0  0  0  0
    8.2905  -14.6427   20.2151 C   0  0  0  0  0  0  0  0  0  0  0  0
    7.5104  -13.7900   21.1770 C   0  0  0  0  0  0  0  0  0  0  0  0
    7.5844  -14.3991   22.5620 C   0  0  2  0  0  0  0  0  0  0  0  0
    6.8358  -13.6788   23.5684 N   0  0  0  0  0  0  0  0  0  0  0  0
    8.8831  -14.8884   22.9731 C   0  0  0  0  0  0  0  0  0  0  0  0
    9.7212  -14.0933   23.5294 O   0  0  0  0  0  0  0  0  0  0  0  0
    9.3601  -16.2177   22.8232 N   0  0  0  0  0  0  0  0  0  0  0  0
   10.6569  -16.6411   23.3262 C   0  0  1  0  0  0  0  0  0  0  0  0
   10.4635  -17.8141   24.2506 C   0  0  0  0  0  0  0  0  0  0  0  0
   11.7045  -18.3386   24.8211 C   0  0  0  0  0  0  0  0  0  0  0  0
   12.7778  -17.7424   24.4831 O   0  0  0  0  0  0  0  0  0  0  0  0
   11.6337  -16.8960   22.2805 C   0  0  0  0  0  0  0  0  0  0  0  0
   12.9356  -16.4700   22.4029 O   0  0  0  0  0  0  0  0  0  0  0  0
   11.8386  -19.3969   25.6757 O   0  0  0  0  0  0  0  0  0  0  0  0
   11.3002  -17.5098   21.2496 O   0  0  0  0  0  0  0  0  0  0  0  0
  2  1  1  6
  2  3  1  0
  4  2  1  0
  4  6  1  0
  4  5  1  1
  6 14  1  0
  7  6  2  0
  9 11  1  0
  9  8  1  0
 10  9  2  0
 12 11  1  0
 13 12  1  6
 14 13  1  0
 15 13  1  0
 15 17  1  0
 16 15  2  0
 18 17  1  0
 18 19  1  6
 20 21  2  0
 20 19  1  0
 22 23  1  0
 22 18  1  0
 24 20  1  0
 25 22  2  0
M  END
$$$$
