YMY.pdb
     RDKit          3D

 33 34  0  0  1  0  0  0  0  0999 V2000
   11.6905  -21.3854   16.2453 O   0  0  0  0  0  0  0  0  0  0  0  0
   11.5434  -20.1461   16.8661 C   0  0  0  0  0  0  0  0  0  0  0  0
   10.7489  -20.0021   17.9855 C   0  0  0  0  0  0  0  0  0  0  0  0
   10.6018  -18.7842   18.6004 C   0  0  0  0  0  0  0  0  0  0  0  0
   11.2508  -17.6408   18.1173 C   0  0  0  0  0  0  0  0  0  0  0  0
   11.0932  -16.3146   18.7882 C   0  0  0  0  0  0  0  0  0  0  0  0
   10.1494  -16.4831   19.9272 C   0  0  2  0  0  0  0  0  0  0  0  0
    8.7924  -16.4948   19.4232 N   0  0  0  0  0  0  0  0  0  0  0  0
   10.2868  -15.4634   20.9974 C   0  0  0  0  0  0  0  0  0  0  0  0
   11.4337  -15.0750   21.3535 O   0  0  0  0  0  0  0  0  0  0  0  0
   12.0397  -17.8125   16.9959 C   0  0  0  0  0  0  0  0  0  0  0  0
   12.2028  -19.0226   16.3623 C   0  0  0  0  0  0  0  0  0  0  0  0
    6.1361  -11.8732   25.7323 C   0  0  0  0  0  0  0  0  0  0  0  0
    6.6879  -13.5412   25.2852 S   0  0  0  0  0  0  0  0  0  0  0  0
    6.8342  -13.6656   23.4661 C   0  0  0  0  0  0  0  0  0  0  0  0
    7.2604  -15.0645   23.1157 C   0  0  0  0  0  0  0  0  0  0  0  0
    8.7594  -15.1916   23.0011 C   0  0  2  0  0  0  0  0  0  0  0  0
    9.1702  -14.8885   21.6581 N   0  0  0  0  0  0  0  0  0  0  0  0
    9.1896  -16.5685   23.3838 C   0  0  0  0  0  0  0  0  0  0  0  0
   10.0382  -17.1399   22.6863 O   0  0  0  0  0  0  0  0  0  0  0  0
   11.3303  -15.1333   31.5440 O   0  0  0  0  0  0  0  0  0  0  0  0
   10.8237  -15.2423   30.2350 C   0  0  0  0  0  0  0  0  0  0  0  0
   10.9869  -14.2307   29.3142 C   0  0  0  0  0  0  0  0  0  0  0  0
   10.4846  -14.3506   28.0330 C   0  0  0  0  0  0  0  0  0  0  0  0
    9.8084  -15.4687   27.6256 C   0  0  0  0  0  0  0  0  0  0  0  0
    9.2533  -15.6407   26.2607 C   0  0  0  0  0  0  0  0  0  0  0  0
    9.2054  -17.0944   25.8421 C   0  0  2  0  0  0  0  0  0  0  0  0
    8.6713  -17.2471   24.5069 N   0  0  0  0  0  0  0  0  0  0  0  0
    8.5333  -17.9496   26.8321 C   0  0  0  0  0  0  0  0  0  0  0  0
    9.2958  -18.7262   27.7177 O   0  0  0  0  0  0  0  0  0  0  0  0
    9.6379  -16.4855   28.5333 C   0  0  0  0  0  0  0  0  0  0  0  0
   10.1414  -16.3586   29.8071 C   0  0  0  0  0  0  0  0  0  0  0  0
    7.2930  -18.0435   26.9519 O   0  0  0  0  0  0  0  0  0  0  0  0
  2  1  1  0
  3  2  2  0
  4  3  1  0
  5  4  2  0
  5 11  1  0
  6  5  1  0
  7  6  1  0
  7  8  1  6
  9  7  1  0
  9 10  2  0
 11 12  2  0
 12  2  1  0
 13 14  1  0
 14 15  1  0
 15 16  1  0
 17 16  1  6
 17 19  1  0
 17 18  1  0
 18  9  1  0
 19 28  1  0
 20 19  2  0
 22 21  1  0
 22 32  2  0
 23 22  1  0
 24 23  2  0
 24 25  1  0
 25 31  2  0
 26 25  1  0
 27 26  1  1
 27 29  1  0
 28 27  1  0
 29 33  2  0
 29 30  1  0
 31 32  1  0
M  END
$$$$
