YMY.pdb
     RDKit          3D

 33 34  0  0  1  0  0  0  0  0999 V2000
    7.8561  -12.3274   16.8226 O   0  0  0  0  0  0  0  0  0  0  0  0
    7.6561  -13.2346   17.8619 C   0  0  0  0  0  0  0  0  0  0  0  0
    7.6140  -12.8124   19.1752 C   0  0  0  0  0  0  0  0  0  0  0  0
    7.4166  -13.7018   20.2014 C   0  0  0  0  0  0  0  0  0  0  0  0
    7.2504  -15.0710   19.9572 C   0  0  0  0  0  0  0  0  0  0  0  0
    7.0326  -16.0398   21.0742 C   0  0  0  0  0  0  0  0  0  0  0  0
    8.3658  -16.4755   21.5735 C   0  0  2  0  0  0  0  0  0  0  0  0
    8.5610  -17.8733   21.2516 N   0  0  0  0  0  0  0  0  0  0  0  0
    8.5836  -16.2515   23.0249 C   0  0  0  0  0  0  0  0  0  0  0  0
    9.1746  -17.1272   23.7154 O   0  0  0  0  0  0  0  0  0  0  0  0
    7.2968  -15.4670   18.6342 C   0  0  0  0  0  0  0  0  0  0  0  0
    7.4932  -14.5947   17.5887 C   0  0  0  0  0  0  0  0  0  0  0  0
    5.2911  -11.6358   26.3415 C   0  0  0  0  0  0  0  0  0  0  0  0
    6.8273  -11.7030   27.3019 S   0  0  0  0  0  0  0  0  0  0  0  0
    7.6934  -13.2761   26.9535 C   0  0  0  0  0  0  0  0  0  0  0  0
    7.6005  -13.5562   25.4790 C   0  0  0  0  0  0  0  0  0  0  0  0
    8.3778  -14.7871   25.0828 C   0  0  2  0  0  0  0  0  0  0  0  0
    8.1517  -15.0768   23.6938 N   0  0  0  0  0  0  0  0  0  0  0  0
    7.9752  -15.9455   25.9332 C   0  0  0  0  0  0  0  0  0  0  0  0
    6.7744  -16.1027   26.1913 O   0  0  0  0  0  0  0  0  0  0  0  0
    8.2152  -21.8654   22.7038 O   0  0  0  0  0  0  0  0  0  0  0  0
    8.0095  -21.0546   23.8362 C   0  0  0  0  0  0  0  0  0  0  0  0
    7.1151  -20.0070   23.8177 C   0  0  0  0  0  0  0  0  0  0  0  0
    6.9230  -19.2192   24.9360 C   0  0  0  0  0  0  0  0  0  0  0  0
    7.6066  -19.4418   26.1007 C   0  0  0  0  0  0  0  0  0  0  0  0
    7.4316  -18.6225   27.3250 C   0  0  0  0  0  0  0  0  0  0  0  0
    8.6217  -17.7251   27.5872 C   0  0  2  0  0  0  0  0  0  0  0  0
    8.9041  -16.8702   26.4554 N   0  0  0  0  0  0  0  0  0  0  0  0
    9.8016  -18.4675   28.0562 C   0  0  0  0  0  0  0  0  0  0  0  0
   11.0208  -18.3470   27.3721 O   0  0  0  0  0  0  0  0  0  0  0  0
    8.5020  -20.4830   26.1337 C   0  0  0  0  0  0  0  0  0  0  0  0
    8.6873  -21.2631   25.0160 C   0  0  0  0  0  0  0  0  0  0  0  0
    9.8054  -19.2242   29.0505 O   0  0  0  0  0  0  0  0  0  0  0  0
  2  1  1  0
  3  2  2  0
  4  3  1  0
  5  4  2  0
  5 11  1  0
  6  5  1  0
  7  6  1  0
  7  8  1  1
  9  7  1  0
  9 10  2  0
 11 12  2  0
 12  2  1  0
 13 14  1  0
 14 15  1  0
 15 16  1  0
 17 16  1  1
 17 19  1  0
 17 18  1  0
 18  9  1  0
 19 28  1  0
 20 19  2  0
 22 21  1  0
 22 32  2  0
 23 22  1  0
 24 23  2  0
 24 25  1  0
 25 31  2  0
 26 25  1  0
 27 26  1  6
 27 29  1  0
 28 27  1  0
 29 33  2  0
 29 30  1  0
 31 32  1  0
M  END
$$$$
