YMY.pdb
     RDKit          3D

 33 34  0  0  1  0  0  0  0  0999 V2000
    5.2877  -19.6326   15.6114 O   0  0  0  0  0  0  0  0  0  0  0  0
    5.9758  -19.2394   16.7580 C   0  0  0  0  0  0  0  0  0  0  0  0
    7.3443  -19.3915   16.8526 C   0  0  0  0  0  0  0  0  0  0  0  0
    8.0260  -19.0051   17.9791 C   0  0  0  0  0  0  0  0  0  0  0  0
    7.3612  -18.4421   19.0758 C   0  0  0  0  0  0  0  0  0  0  0  0
    8.1034  -18.0184   20.3020 C   0  0  0  0  0  0  0  0  0  0  0  0
    8.4190  -16.5693   20.1725 C   0  0  2  0  0  0  0  0  0  0  0  0
    9.3860  -16.3857   19.1110 N   0  0  0  0  0  0  0  0  0  0  0  0
    8.9055  -15.9305   21.4212 C   0  0  0  0  0  0  0  0  0  0  0  0
   10.1362  -15.9505   21.7006 O   0  0  0  0  0  0  0  0  0  0  0  0
    5.9919  -18.3010   18.9553 C   0  0  0  0  0  0  0  0  0  0  0  0
    5.2867  -18.6806   17.8368 C   0  0  0  0  0  0  0  0  0  0  0  0
    6.5959  -11.4546   27.5984 C   0  0  0  0  0  0  0  0  0  0  0  0
    6.2369  -12.1664   25.9702 S   0  0  0  0  0  0  0  0  0  0  0  0
    7.6635  -13.1690   25.4174 C   0  0  0  0  0  0  0  0  0  0  0  0
    7.3277  -13.7853   24.0875 C   0  0  0  0  0  0  0  0  0  0  0  0
    8.4589  -14.6241   23.5462 C   0  0  2  0  0  0  0  0  0  0  0  0
    8.0394  -15.2834   22.3405 N   0  0  0  0  0  0  0  0  0  0  0  0
    8.8929  -15.6225   24.5670 C   0  0  0  0  0  0  0  0  0  0  0  0
    8.1936  -16.6283   24.7476 O   0  0  0  0  0  0  0  0  0  0  0  0
   13.0415  -20.9976   30.0345 O   0  0  0  0  0  0  0  0  0  0  0  0
   12.6803  -20.0834   29.0267 C   0  0  0  0  0  0  0  0  0  0  0  0
   13.3305  -18.8775   28.8831 C   0  0  0  0  0  0  0  0  0  0  0  0
   12.9658  -17.9894   27.8898 C   0  0  0  0  0  0  0  0  0  0  0  0
   11.9515  -18.2652   27.0132 C   0  0  0  0  0  0  0  0  0  0  0  0
   11.5272  -17.3424   25.9319 C   0  0  0  0  0  0  0  0  0  0  0  0
   10.4491  -16.3836   26.3890 C   0  0  2  0  0  0  0  0  0  0  0  0
   10.0666  -15.4701   25.3350 N   0  0  0  0  0  0  0  0  0  0  0  0
   10.7907  -15.7009   27.6462 C   0  0  0  0  0  0  0  0  0  0  0  0
   10.4309  -16.2763   28.8743 O   0  0  0  0  0  0  0  0  0  0  0  0
   11.2939  -19.4640   27.1446 C   0  0  0  0  0  0  0  0  0  0  0  0
   11.6634  -20.3431   28.1361 C   0  0  0  0  0  0  0  0  0  0  0  0
   11.3974  -14.6104   27.7105 O   0  0  0  0  0  0  0  0  0  0  0  0
  2  1  1  0
  3  2  2  0
  4  3  1  0
  5  4  2  0
  5 11  1  0
  6  5  1  0
  7  6  1  0
  7  8  1  6
  9  7  1  0
  9 10  2  0
 11 12  2  0
 12  2  1  0
 13 14  1  0
 14 15  1  0
 15 16  1  0
 17 16  1  1
 17 19  1  0
 17 18  1  0
 18  9  1  0
 19 28  1  0
 20 19  2  0
 22 21  1  0
 22 32  2  0
 23 22  1  0
 24 23  2  0
 24 25  1  0
 25 31  2  0
 26 25  1  0
 27 26  1  6
 27 29  1  0
 28 27  1  0
 29 33  2  0
 29 30  1  0
 31 32  1  0
M  END
$$$$
