YMY.pdb
     RDKit          3D

 33 34  0  0  1  0  0  0  0  0999 V2000
    7.0467  -14.5732   14.9060 O   0  0  0  0  0  0  0  0  0  0  0  0
    7.5916  -14.4225   16.1801 C   0  0  0  0  0  0  0  0  0  0  0  0
    8.4190  -15.3875   16.7176 C   0  0  0  0  0  0  0  0  0  0  0  0
    8.9583  -15.2430   17.9712 C   0  0  0  0  0  0  0  0  0  0  0  0
    8.6907  -14.1125   18.7536 C   0  0  0  0  0  0  0  0  0  0  0  0
    9.2800  -13.9532   20.1179 C   0  0  0  0  0  0  0  0  0  0  0  0
    9.4614  -15.3099   20.7033 C   0  0  2  0  0  0  0  0  0  0  0  0
    8.3581  -16.1548   20.2978 N   0  0  0  0  0  0  0  0  0  0  0  0
    9.6020  -15.3297   22.1811 C   0  0  0  0  0  0  0  0  0  0  0  0
   10.6326  -14.8415   22.7221 O   0  0  0  0  0  0  0  0  0  0  0  0
    7.8597  -13.1620   18.1921 C   0  0  0  0  0  0  0  0  0  0  0  0
    7.3074  -13.2843   16.9381 C   0  0  0  0  0  0  0  0  0  0  0  0
    6.2128  -12.0008   26.7865 C   0  0  0  0  0  0  0  0  0  0  0  0
    5.9283  -12.5873   25.0949 S   0  0  0  0  0  0  0  0  0  0  0  0
    7.4259  -13.4454   24.4893 C   0  0  0  0  0  0  0  0  0  0  0  0
    7.2984  -14.9099   24.8058 C   0  0  0  0  0  0  0  0  0  0  0  0
    8.5495  -15.6788   24.4597 C   0  0  2  0  0  0  0  0  0  0  0  0
    8.6158  -15.8823   23.0390 N   0  0  0  0  0  0  0  0  0  0  0  0
    8.5651  -16.9863   25.1789 C   0  0  0  0  0  0  0  0  0  0  0  0
    8.6885  -18.0256   24.5172 O   0  0  0  0  0  0  0  0  0  0  0  0
   12.5197  -14.3443   30.3113 O   0  0  0  0  0  0  0  0  0  0  0  0
   11.5296  -15.2693   29.9291 C   0  0  0  0  0  0  0  0  0  0  0  0
   10.3498  -14.8604   29.3472 C   0  0  0  0  0  0  0  0  0  0  0  0
    9.3865  -15.7787   28.9770 C   0  0  0  0  0  0  0  0  0  0  0  0
    9.5595  -17.1226   29.1708 C   0  0  0  0  0  0  0  0  0  0  0  0
    8.5534  -18.1435   28.7883 C   0  0  0  0  0  0  0  0  0  0  0  0
    8.4886  -18.3490   27.2902 C   0  0  2  0  0  0  0  0  0  0  0  0
    8.4460  -17.0894   26.5810 N   0  0  0  0  0  0  0  0  0  0  0  0
    7.4164  -19.2721   26.8886 C   0  0  0  0  0  0  0  0  0  0  0  0
    7.5434  -20.6456   27.1460 O   0  0  0  0  0  0  0  0  0  0  0  0
   10.7312  -17.5448   29.7503 C   0  0  0  0  0  0  0  0  0  0  0  0
   11.6856  -16.6241   30.1158 C   0  0  0  0  0  0  0  0  0  0  0  0
    6.3636  -18.9186   26.3157 O   0  0  0  0  0  0  0  0  0  0  0  0
  2  1  1  0
  3  2  2  0
  4  3  1  0
  5  4  2  0
  5 11  1  0
  6  5  1  0
  7  6  1  0
  7  8  1  1
  9  7  1  0
  9 10  2  0
 11 12  2  0
 12  2  1  0
 13 14  1  0
 14 15  1  0
 15 16  1  0
 17 16  1  6
 17 19  1  0
 17 18  1  0
 18  9  1  0
 19 28  1  0
 20 19  2  0
 22 21  1  0
 22 32  2  0
 23 22  1  0
 24 23  2  0
 24 25  1  0
 25 31  2  0
 26 25  1  0
 27 26  1  1
 27 29  1  0
 28 27  1  0
 29 33  2  0
 29 30  1  0
 31 32  1  0
M  END
$$$$
