YMY.pdb
     RDKit          3D

 33 34  0  0  1  0  0  0  0  0999 V2000
   12.6954  -19.1279   17.0811 O   0  0  0  0  0  0  0  0  0  0  0  0
   11.5820  -18.9825   17.9072 C   0  0  0  0  0  0  0  0  0  0  0  0
   10.3044  -18.9889   17.3851 C   0  0  0  0  0  0  0  0  0  0  0  0
    9.2055  -18.8469   18.1945 C   0  0  0  0  0  0  0  0  0  0  0  0
    9.3365  -18.6899   19.5802 C   0  0  0  0  0  0  0  0  0  0  0  0
    8.1398  -18.5380   20.4627 C   0  0  0  0  0  0  0  0  0  0  0  0
    7.6421  -17.1413   20.3286 C   0  0  2  0  0  0  0  0  0  0  0  0
    7.8002  -16.7094   18.9561 N   0  0  0  0  0  0  0  0  0  0  0  0
    8.2846  -16.1674   21.2466 C   0  0  0  0  0  0  0  0  0  0  0  0
    9.4472  -15.7424   21.0004 O   0  0  0  0  0  0  0  0  0  0  0  0
   10.6260  -18.6869   20.0768 C   0  0  0  0  0  0  0  0  0  0  0  0
   11.7427  -18.8276   19.2859 C   0  0  0  0  0  0  0  0  0  0  0  0
    6.9599  -10.9475   27.0610 C   0  0  0  0  0  0  0  0  0  0  0  0
    6.3129  -12.1824   25.9020 S   0  0  0  0  0  0  0  0  0  0  0  0
    7.7057  -12.9837   25.0279 C   0  0  0  0  0  0  0  0  0  0  0  0
    7.1497  -14.0276   24.0992 C   0  0  0  0  0  0  0  0  0  0  0  0
    8.2357  -14.7686   23.3591 C   0  0  2  0  0  0  0  0  0  0  0  0
    7.6459  -15.6772   22.4153 N   0  0  0  0  0  0  0  0  0  0  0  0
    9.1053  -15.5043   24.3234 C   0  0  0  0  0  0  0  0  0  0  0  0
    8.5907  -15.9735   25.3472 O   0  0  0  0  0  0  0  0  0  0  0  0
   13.1361  -20.2315   29.8901 O   0  0  0  0  0  0  0  0  0  0  0  0
   12.5367  -19.6247   28.7701 C   0  0  0  0  0  0  0  0  0  0  0  0
   11.4778  -18.7538   28.9047 C   0  0  0  0  0  0  0  0  0  0  0  0
   10.8988  -18.1653   27.7971 C   0  0  0  0  0  0  0  0  0  0  0  0
   11.3466  -18.4194   26.5290 C   0  0  0  0  0  0  0  0  0  0  0  0
   10.7563  -17.8098   25.3122 C   0  0  0  0  0  0  0  0  0  0  0  0
   11.3315  -16.4403   25.0223 C   0  0  2  0  0  0  0  0  0  0  0  0
   10.4890  -15.6889   24.1184 N   0  0  0  0  0  0  0  0  0  0  0  0
   12.7362  -16.4932   24.5896 C   0  0  0  0  0  0  0  0  0  0  0  0
   13.0953  -16.0153   23.3202 O   0  0  0  0  0  0  0  0  0  0  0  0
   12.4018  -19.2861   26.3795 C   0  0  0  0  0  0  0  0  0  0  0  0
   12.9731  -19.8677   27.4874 C   0  0  0  0  0  0  0  0  0  0  0  0
   13.6690  -16.9461   25.2869 O   0  0  0  0  0  0  0  0  0  0  0  0
  2  1  1  0
  3  2  2  0
  4  3  1  0
  5  4  2  0
  5 11  1  0
  6  5  1  0
  7  6  1  0
  7  8  1  6
  9  7  1  0
  9 10  2  0
 11 12  2  0
 12  2  1  0
 13 14  1  0
 14 15  1  0
 15 16  1  0
 17 16  1  1
 17 19  1  0
 17 18  1  0
 18  9  1  0
 19 28  1  0
 20 19  2  0
 22 21  1  0
 22 32  2  0
 23 22  1  0
 24 23  2  0
 24 25  1  0
 25 31  2  0
 26 25  1  0
 27 26  1  6
 27 29  1  0
 28 27  1  0
 29 33  2  0
 29 30  1  0
 31 32  1  0
M  END
$$$$
