GDP.pdb
     RDKit          3D

 20 20  0  0  1  0  0  0  0  0999 V2000
   28.5068  -21.6017  -16.8022 N   0  0  0  0  0  0  0  0  0  0  0  0
   27.9784  -22.1536  -15.5906 C   0  0  0  0  0  0  0  0  0  0  0  0
   27.0032  -21.1906  -14.9396 C   0  0  0  0  0  0  0  0  0  0  0  0
   27.4829  -20.1641  -14.4130 O   0  0  0  0  0  0  0  0  0  0  0  0
   25.6275  -21.4716  -14.9472 N   0  0  0  0  0  0  0  0  0  0  0  0
   24.5391  -20.7249  -14.4074 C   0  0  1  0  0  0  0  0  0  0  0  0
   23.7310  -19.8926  -15.3087 C   0  0  0  0  0  0  0  0  0  0  0  0
   22.6558  -19.1627  -14.5313 C   0  0  0  0  0  0  0  0  0  0  0  0
   22.8760  -18.1984  -13.7728 O   0  0  0  0  0  0  0  0  0  0  0  0
   23.9736  -21.3776  -13.2534 C   0  0  0  0  0  0  0  0  0  0  0  0
   22.9866  -22.1928  -13.5292 O   0  0  0  0  0  0  0  0  0  0  0  0
   21.3644  -19.6168  -14.6934 O   0  0  0  0  0  0  0  0  0  0  0  0
   24.2763  -21.3135  -11.8837 N   0  0  0  0  0  0  0  0  0  0  0  0
   25.6595  -21.2930  -11.3690 C   0  0  0  0  0  0  0  0  0  0  0  0
   25.5890  -20.2183  -10.2692 C   0  0  0  0  0  0  0  0  0  0  0  0
   24.1154  -19.8380  -10.1643 C   0  0  0  0  0  0  0  0  0  0  0  0
   23.4864  -21.1470  -10.7037 C   0  0  1  0  0  0  0  0  0  0  0  0
   22.0573  -21.0233  -10.7526 C   0  0  0  0  0  0  0  0  0  0  0  0
   21.3695  -21.6945   -9.6807 O   0  0  0  0  0  0  0  0  0  0  0  0
   21.2910  -20.4534  -11.5336 O   0  0  0  0  0  0  0  0  0  0  0  0
  1  2  1  0
  3  4  2  0
  3  2  1  0
  5  3  1  0
  6  5  1  0
  6  7  1  6
  7  8  1  0
  8  9  2  0
  8 12  1  0
 10  6  1  0
 11 10  2  0
 13 10  1  0
 13 17  1  0
 14 15  1  0
 14 13  1  0
 15 16  1  0
 16 17  1  0
 18 19  1  0
 17 18  1  6
 20 18  2  0
M  END
$$$$
