GDP.pdb
     RDKit          3D

 20 20  0  0  1  0  0  0  0  0999 V2000
   16.2602  -10.6639  -16.5292 N   0  0  0  0  0  0  0  0  0  0  0  0
   16.9864   -9.8338  -17.4430 C   0  0  0  0  0  0  0  0  0  0  0  0
   18.2826   -9.3506  -16.8195 C   0  0  0  0  0  0  0  0  0  0  0  0
   18.4128   -9.5039  -15.5863 O   0  0  0  0  0  0  0  0  0  0  0  0
   19.2721   -8.7617  -17.6229 N   0  0  0  0  0  0  0  0  0  0  0  0
   20.5508   -8.2421  -17.2646 C   0  0  1  0  0  0  0  0  0  0  0  0
   21.6891   -8.4702  -18.1647 C   0  0  0  0  0  0  0  0  0  0  0  0
   21.7927   -9.9377  -18.5237 C   0  0  0  0  0  0  0  0  0  0  0  0
   21.3492  -10.4309  -19.5791 O   0  0  0  0  0  0  0  0  0  0  0  0
   20.4294   -7.0456  -16.4701 C   0  0  0  0  0  0  0  0  0  0  0  0
   19.8929   -6.0335  -17.1047 O   0  0  0  0  0  0  0  0  0  0  0  0
   22.4210  -10.7523  -17.6063 O   0  0  0  0  0  0  0  0  0  0  0  0
   20.7722   -6.7504  -15.1407 N   0  0  0  0  0  0  0  0  0  0  0  0
   20.8778   -7.7838  -14.0922 C   0  0  0  0  0  0  0  0  0  0  0  0
   22.1587   -7.3702  -13.3455 C   0  0  0  0  0  0  0  0  0  0  0  0
   22.5754   -6.0367  -13.9582 C   0  0  0  0  0  0  0  0  0  0  0  0
   21.1929   -5.5602  -14.4695 C   0  0  1  0  0  0  0  0  0  0  0  0
   21.3260   -4.3048  -15.1524 C   0  0  0  0  0  0  0  0  0  0  0  0
   20.9189   -3.1636  -14.3749 O   0  0  0  0  0  0  0  0  0  0  0  0
   21.7220   -4.0018  -16.2808 O   0  0  0  0  0  0  0  0  0  0  0  0
  1  2  1  0
  3  4  2  0
  3  2  1  0
  5  3  1  0
  6  5  1  0
  6  7  1  6
  7  8  1  0
  8  9  2  0
  8 12  1  0
 10  6  1  0
 11 10  2  0
 13 10  1  0
 13 17  1  0
 14 15  1  0
 14 13  1  0
 15 16  1  0
 16 17  1  0
 18 19  1  0
 17 18  1  6
 20 18  2  0
M  END
$$$$
