GDP.pdb
     RDKit          3D

 20 20  0  0  1  0  0  0  0  0999 V2000
   21.9832  -12.5310  -19.1553 N   0  0  0  0  0  0  0  0  0  0  0  0
   22.7178  -11.6399  -18.3079 C   0  0  0  0  0  0  0  0  0  0  0  0
   21.8779  -10.4313  -17.9390 C   0  0  0  0  0  0  0  0  0  0  0  0
   21.5189   -9.6816  -18.8718 O   0  0  0  0  0  0  0  0  0  0  0  0
   21.5366  -10.1959  -16.5975 N   0  0  0  0  0  0  0  0  0  0  0  0
   20.7757   -9.1370  -16.0202 C   0  0  1  0  0  0  0  0  0  0  0  0
   19.5311   -9.4603  -15.3102 C   0  0  0  0  0  0  0  0  0  0  0  0
   18.8107  -10.6001  -15.9995 C   0  0  0  0  0  0  0  0  0  0  0  0
   18.0895  -10.4622  -17.0068 O   0  0  0  0  0  0  0  0  0  0  0  0
   21.6191   -8.0362  -15.6269 C   0  0  0  0  0  0  0  0  0  0  0  0
   22.4269   -8.3090  -14.6329 O   0  0  0  0  0  0  0  0  0  0  0  0
   18.9824  -11.8548  -15.4552 O   0  0  0  0  0  0  0  0  0  0  0  0
   21.7481   -6.7219  -16.1043 N   0  0  0  0  0  0  0  0  0  0  0  0
   21.4347   -6.3404  -17.4952 C   0  0  0  0  0  0  0  0  0  0  0  0
   20.6704   -5.0168  -17.3128 C   0  0  0  0  0  0  0  0  0  0  0  0
   20.7595   -4.6963  -15.8239 C   0  0  0  0  0  0  0  0  0  0  0  0
   22.0573   -5.4712  -15.4845 C   0  0  1  0  0  0  0  0  0  0  0  0
   22.3428   -5.3638  -14.0820 C   0  0  0  0  0  0  0  0  0  0  0  0
   21.5889   -6.2694  -13.2549 O   0  0  0  0  0  0  0  0  0  0  0  0
   23.1102   -4.6467  -13.4349 O   0  0  0  0  0  0  0  0  0  0  0  0
  1  2  1  0
  3  4  2  0
  3  2  1  0
  5  3  1  0
  6  5  1  0
  6  7  1  1
  7  8  1  0
  8  9  2  0
  8 12  1  0
 10  6  1  0
 11 10  2  0
 13 10  1  0
 13 17  1  0
 14 15  1  0
 14 13  1  0
 15 16  1  0
 16 17  1  0
 18 19  1  0
 17 18  1  1
 20 18  2  0
M  END
$$$$
