GDP.pdb
     RDKit          3D

 20 20  0  0  1  0  0  0  0  0999 V2000
   21.8029  -16.1274  -17.4637 N   0  0  0  0  0  0  0  0  0  0  0  0
   21.8022  -14.8989  -18.2002 C   0  0  0  0  0  0  0  0  0  0  0  0
   22.9798  -14.0296  -17.8004 C   0  0  0  0  0  0  0  0  0  0  0  0
   23.5977  -14.3504  -16.7629 O   0  0  0  0  0  0  0  0  0  0  0  0
   23.3328  -12.9204  -18.5855 N   0  0  0  0  0  0  0  0  0  0  0  0
   24.3872  -11.9760  -18.4118 C   0  0  1  0  0  0  0  0  0  0  0  0
   25.2148  -11.6127  -19.5698 C   0  0  0  0  0  0  0  0  0  0  0  0
   25.5552  -12.8441  -20.3828 C   0  0  0  0  0  0  0  0  0  0  0  0
   24.9258  -13.2077  -21.3955 O   0  0  0  0  0  0  0  0  0  0  0  0
   24.0857  -11.0375  -17.3603 C   0  0  0  0  0  0  0  0  0  0  0  0
   22.9539  -10.3985  -17.5209 O   0  0  0  0  0  0  0  0  0  0  0  0
   26.6322  -13.5880  -19.9505 O   0  0  0  0  0  0  0  0  0  0  0  0
   24.7690  -10.6732  -16.1888 N   0  0  0  0  0  0  0  0  0  0  0  0
   25.8111  -11.5182  -15.5735 C   0  0  0  0  0  0  0  0  0  0  0  0
   26.8937  -10.4903  -15.1981 C   0  0  0  0  0  0  0  0  0  0  0  0
   26.2843   -9.1257  -15.5044 C   0  0  0  0  0  0  0  0  0  0  0  0
   24.7848   -9.4944  -15.3799 C   0  0  1  0  0  0  0  0  0  0  0  0
   23.9699   -8.3516  -15.6796 C   0  0  0  0  0  0  0  0  0  0  0  0
   23.1422   -7.9135  -14.5861 O   0  0  0  0  0  0  0  0  0  0  0  0
   23.8330   -7.6617  -16.6931 O   0  0  0  0  0  0  0  0  0  0  0  0
  1  2  1  0
  3  4  2  0
  3  2  1  0
  5  3  1  0
  6  5  1  0
  6  7  1  6
  7  8  1  0
  8  9  2  0
  8 12  1  0
 10  6  1  0
 11 10  2  0
 13 10  1  0
 13 17  1  0
 14 15  1  0
 14 13  1  0
 15 16  1  0
 16 17  1  0
 18 19  1  0
 17 18  1  6
 20 18  2  0
M  END
$$$$
