GDP.pdb
     RDKit          3D

 20 20  0  0  1  0  0  0  0  0999 V2000
   13.0658  -22.0604   -4.2556 N   0  0  0  0  0  0  0  0  0  0  0  0
   14.2680  -22.3750   -3.5433 C   0  0  0  0  0  0  0  0  0  0  0  0
   14.0039  -22.4627   -2.0517 C   0  0  0  0  0  0  0  0  0  0  0  0
   12.8858  -22.0779   -1.6481 O   0  0  0  0  0  0  0  0  0  0  0  0
   14.9952  -22.9602   -1.1908 N   0  0  0  0  0  0  0  0  0  0  0  0
   14.9655  -23.1547    0.2217 C   0  0  1  0  0  0  0  0  0  0  0  0
   15.4256  -24.4362    0.7732 C   0  0  0  0  0  0  0  0  0  0  0  0
   14.9520  -24.5964    2.2026 C   0  0  0  0  0  0  0  0  0  0  0  0
   15.6331  -24.2928    3.2015 O   0  0  0  0  0  0  0  0  0  0  0  0
   15.1367  -21.9102    0.9284 C   0  0  0  0  0  0  0  0  0  0  0  0
   16.3838  -21.5278    1.0453 O   0  0  0  0  0  0  0  0  0  0  0  0
   13.6859  -25.1128    2.3768 O   0  0  0  0  0  0  0  0  0  0  0  0
   14.2241  -21.0200    1.5171 N   0  0  0  0  0  0  0  0  0  0  0  0
   12.7711  -21.0787    1.2646 C   0  0  0  0  0  0  0  0  0  0  0  0
   12.1806  -20.8684    2.6705 C   0  0  0  0  0  0  0  0  0  0  0  0
   13.3718  -20.5549    3.5705 C   0  0  0  0  0  0  0  0  0  0  0  0
   14.3428  -19.9914    2.5030 C   0  0  1  0  0  0  0  0  0  0  0  0
   15.5999  -19.6555    3.1088 C   0  0  0  0  0  0  0  0  0  0  0  0
   15.6610  -18.3188    3.6399 O   0  0  0  0  0  0  0  0  0  0  0  0
   16.6487  -20.2852    3.2685 O   0  0  0  0  0  0  0  0  0  0  0  0
  1  2  1  0
  3  4  2  0
  3  2  1  0
  5  3  1  0
  6  5  1  0
  6  7  1  1
  7  8  1  0
  8  9  2  0
  8 12  1  0
 10  6  1  0
 11 10  2  0
 13 10  1  0
 13 17  1  0
 14 15  1  0
 14 13  1  0
 15 16  1  0
 16 17  1  0
 18 19  1  0
 17 18  1  1
 20 18  2  0
M  END
$$$$
