GDP.pdb
     RDKit          3D

 20 20  0  0  1  0  0  0  0  0999 V2000
   22.4144  -10.1133  -17.1558 N   0  0  0  0  0  0  0  0  0  0  0  0
   23.0274   -8.8247  -17.2806 C   0  0  0  0  0  0  0  0  0  0  0  0
   22.1532   -7.7494  -16.6627 C   0  0  0  0  0  0  0  0  0  0  0  0
   20.9429   -7.7521  -16.9728 O   0  0  0  0  0  0  0  0  0  0  0  0
   22.7128   -6.8079  -15.7842 N   0  0  0  0  0  0  0  0  0  0  0  0
   22.1205   -5.6646  -15.1713 C   0  0  1  0  0  0  0  0  0  0  0  0
   21.8720   -5.6820  -13.7236 C   0  0  0  0  0  0  0  0  0  0  0  0
   21.2333   -6.9922  -13.3131 C   0  0  0  0  0  0  0  0  0  0  0  0
   20.0314   -7.2692  -13.4933 O   0  0  0  0  0  0  0  0  0  0  0  0
   22.4594   -4.4541  -15.8766 C   0  0  0  0  0  0  0  0  0  0  0  0
   23.6545   -3.9928  -15.6052 O   0  0  0  0  0  0  0  0  0  0  0  0
   22.0577   -7.9142  -12.7045 O   0  0  0  0  0  0  0  0  0  0  0  0
   21.7574   -3.6688  -16.8053 N   0  0  0  0  0  0  0  0  0  0  0  0
   20.6425   -4.1937  -17.6178 C   0  0  0  0  0  0  0  0  0  0  0  0
   19.6131   -3.0514  -17.5470 C   0  0  0  0  0  0  0  0  0  0  0  0
   20.3176   -1.9121  -16.8168 C   0  0  0  0  0  0  0  0  0  0  0  0
   21.7854   -2.2809  -17.1474 C   0  0  1  0  0  0  0  0  0  0  0  0
   22.6808   -1.3560  -16.5127 C   0  0  0  0  0  0  0  0  0  0  0  0
   23.0580   -0.2384  -17.3381 O   0  0  0  0  0  0  0  0  0  0  0  0
   23.1978   -1.3233  -15.3931 O   0  0  0  0  0  0  0  0  0  0  0  0
  1  2  1  0
  3  4  2  0
  3  2  1  0
  5  3  1  0
  6  5  1  0
  6  7  1  1
  7  8  1  0
  8  9  2  0
  8 12  1  0
 10  6  1  0
 11 10  2  0
 13 10  1  0
 13 17  1  0
 14 15  1  0
 14 13  1  0
 15 16  1  0
 16 17  1  0
 18 19  1  0
 17 18  1  1
 20 18  2  0
M  END
$$$$
