GDP.pdb
     RDKit          3D

 20 20  0  0  1  0  0  0  0  0999 V2000
   24.5301  -20.8256   -9.1504 N   0  0  0  0  0  0  0  0  0  0  0  0
   23.8663  -21.1830  -10.3682 C   0  0  0  0  0  0  0  0  0  0  0  0
   24.7818  -20.9802  -11.5612 C   0  0  0  0  0  0  0  0  0  0  0  0
   25.8485  -20.3611  -11.3612 O   0  0  0  0  0  0  0  0  0  0  0  0
   24.4153  -21.4801  -12.8210 N   0  0  0  0  0  0  0  0  0  0  0  0
   25.1195  -21.4399  -14.0604 C   0  0  1  0  0  0  0  0  0  0  0  0
   25.0572  -22.6057  -14.9521 C   0  0  0  0  0  0  0  0  0  0  0  0
   24.8331  -23.8715  -14.1517 C   0  0  0  0  0  0  0  0  0  0  0  0
   25.7141  -24.4315  -13.4705 O   0  0  0  0  0  0  0  0  0  0  0  0
   25.2218  -20.0935  -14.5647 C   0  0  0  0  0  0  0  0  0  0  0  0
   24.0679  -19.5159  -14.7876 O   0  0  0  0  0  0  0  0  0  0  0  0
   23.5667  -24.4136  -14.2002 O   0  0  0  0  0  0  0  0  0  0  0  0
   26.3217  -19.2730  -14.8631 N   0  0  0  0  0  0  0  0  0  0  0  0
   27.5888  -19.3258  -14.1079 C   0  0  0  0  0  0  0  0  0  0  0  0
   28.6450  -19.2541  -15.2254 C   0  0  0  0  0  0  0  0  0  0  0  0
   27.8619  -19.0111  -16.5119 C   0  0  0  0  0  0  0  0  0  0  0  0
   26.6033  -18.3391  -15.9083 C   0  0  1  0  0  0  0  0  0  0  0  0
   25.6560  -18.0456  -16.9459 C   0  0  0  0  0  0  0  0  0  0  0  0
   25.3637  -19.1588  -17.8107 O   0  0  0  0  0  0  0  0  0  0  0  0
   25.0353  -17.0239  -17.2502 O   0  0  0  0  0  0  0  0  0  0  0  0
  1  2  1  0
  3  4  2  0
  3  2  1  0
  5  3  1  0
  6  5  1  0
  6  7  1  6
  7  8  1  0
  8  9  2  0
  8 12  1  0
 10  6  1  0
 11 10  2  0
 13 10  1  0
 13 17  1  0
 14 15  1  0
 14 13  1  0
 15 16  1  0
 16 17  1  0
 18 19  1  0
 17 18  1  6
 20 18  2  0
M  END
$$$$
