GDP.pdb
     RDKit          3D

 20 20  0  0  1  0  0  0  0  0999 V2000
   20.2408   -7.7608  -22.4217 N   0  0  0  0  0  0  0  0  0  0  0  0
   20.9573   -6.8466  -21.5835 C   0  0  0  0  0  0  0  0  0  0  0  0
   20.7123   -7.1534  -20.1178 C   0  0  0  0  0  0  0  0  0  0  0  0
   19.5406   -7.4279  -19.7819 O   0  0  0  0  0  0  0  0  0  0  0  0
   21.7792   -7.1216  -19.2056 N   0  0  0  0  0  0  0  0  0  0  0  0
   21.7824   -7.3326  -17.7952 C   0  0  1  0  0  0  0  0  0  0  0  0
   22.6476   -8.3789  -17.2344 C   0  0  0  0  0  0  0  0  0  0  0  0
   22.1994   -8.7402  -15.8337 C   0  0  0  0  0  0  0  0  0  0  0  0
   22.6970   -8.2604  -14.7964 O   0  0  0  0  0  0  0  0  0  0  0  0
   21.4881   -6.1162  -17.0800 C   0  0  0  0  0  0  0  0  0  0  0  0
   22.4609   -5.2396  -17.0911 O   0  0  0  0  0  0  0  0  0  0  0  0
   21.1770   -9.6591  -15.7331 O   0  0  0  0  0  0  0  0  0  0  0  0
   20.3557   -5.6820  -16.3721 N   0  0  0  0  0  0  0  0  0  0  0  0
   19.0166   -6.2728  -16.5625 C   0  0  0  0  0  0  0  0  0  0  0  0
   18.4997   -6.3973  -15.1179 C   0  0  0  0  0  0  0  0  0  0  0  0
   19.5508   -5.7144  -14.2483 C   0  0  0  0  0  0  0  0  0  0  0  0
   20.1541   -4.7538  -15.3035 C   0  0  1  0  0  0  0  0  0  0  0  0
   21.2351   -4.0056  -14.7277 C   0  0  0  0  0  0  0  0  0  0  0  0
   20.9507   -2.6070  -14.5393 O   0  0  0  0  0  0  0  0  0  0  0  0
   22.3693   -4.3201  -14.3578 O   0  0  0  0  0  0  0  0  0  0  0  0
  1  2  1  0
  3  4  2  0
  3  2  1  0
  5  3  1  0
  6  5  1  0
  6  7  1  1
  7  8  1  0
  8  9  2  0
  8 12  1  0
 10  6  1  0
 11 10  2  0
 13 10  1  0
 13 17  1  0
 14 15  1  0
 14 13  1  0
 15 16  1  0
 16 17  1  0
 18 19  1  0
 17 18  1  1
 20 18  2  0
M  END
$$$$
