EEL.pdb
     RDKit          3D

 27 26  0  0  1  0  0  0  0  0999 V2000
    8.7132  -13.3932   18.4402 N   0  0  0  0  0  0  0  0  0  0  0  0
    9.2430  -14.5219   19.1406 C   0  0  1  0  0  0  0  0  0  0  0  0
   10.7112  -14.3860   19.4292 C   0  0  0  0  0  0  0  0  0  0  0  0
   11.4958  -14.5073   18.1195 C   0  0  0  0  0  0  0  0  0  0  0  0
   12.9248  -14.3825   18.4661 C   0  0  0  0  0  0  0  0  0  0  0  0
   13.2738  -13.6149   19.3976 O   0  0  0  0  0  0  0  0  0  0  0  0
    8.4712  -14.8664   20.3750 C   0  0  0  0  0  0  0  0  0  0  0  0
    7.9538  -13.9172   20.9999 O   0  0  0  0  0  0  0  0  0  0  0  0
   13.8533  -15.1148   17.7575 O   0  0  0  0  0  0  0  0  0  0  0  0
    8.3186  -16.1815   20.8332 N   0  0  0  0  0  0  0  0  0  0  0  0
    7.9422  -16.6639   22.1031 C   0  0  1  0  0  0  0  0  0  0  0  0
    7.9921  -18.1827   22.2842 C   0  0  0  0  0  0  0  0  0  0  0  0
    7.5515  -18.6272   23.6350 C   0  0  0  0  0  0  0  0  0  0  0  0
    7.6568  -20.1074   23.7156 C   0  0  0  0  0  0  0  0  0  0  0  0
    7.7710  -20.6464   24.8360 O   0  0  0  0  0  0  0  0  0  0  0  0
    8.5280  -16.0319   23.2739 C   0  0  0  0  0  0  0  0  0  0  0  0
    9.7173  -15.6036   23.1813 O   0  0  0  0  0  0  0  0  0  0  0  0
    7.6297  -20.8732   22.5793 O   0  0  0  0  0  0  0  0  0  0  0  0
    7.3900  -12.9952   27.8200 C   0  0  0  0  0  0  0  0  0  0  0  0
    7.3085  -12.5863   26.3689 C   0  0  2  0  0  0  0  0  0  0  0  0
    6.3183  -11.4737   26.2661 C   0  0  0  0  0  0  0  0  0  0  0  0
    7.1623  -13.6821   25.3992 C   0  0  0  0  0  0  0  0  0  0  0  0
    8.1949  -14.7578   25.3788 C   0  0  2  0  0  0  0  0  0  0  0  0
    7.8912  -15.8492   24.5143 N   0  0  0  0  0  0  0  0  0  0  0  0
    8.6459  -15.1822   26.7220 C   0  0  0  0  0  0  0  0  0  0  0  0
    8.0343  -16.1982   27.4158 O   0  0  0  0  0  0  0  0  0  0  0  0
    9.6136  -14.6010   27.2456 O   0  0  0  0  0  0  0  0  0  0  0  0
  2  1  1  1
  2  7  1  0
  3  2  1  0
  3  4  1  0
  4  5  1  0
  5  6  2  0
  5  9  1  0
  7  8  2  0
 10 11  1  0
 10  7  1  0
 11 16  1  0
 11 12  1  6
 13 12  1  0
 14 15  2  0
 14 13  1  0
 16 17  2  0
 18 14  1  0
 20 19  1  1
 20 22  1  0
 21 20  1  0
 23 22  1  1
 23 25  1  0
 24 23  1  0
 24 16  1  0
 25 27  2  0
 25 26  1  0
M  END
$$$$
