EEL.pdb
     RDKit          3D

 27 26  0  0  1  0  0  0  0  0999 V2000
    7.0412  -16.6203   19.8867 N   0  0  0  0  0  0  0  0  0  0  0  0
    8.1310  -16.0219   20.5934 C   0  0  1  0  0  0  0  0  0  0  0  0
    8.2541  -14.5486   20.3259 C   0  0  0  0  0  0  0  0  0  0  0  0
    8.0740  -14.2917   18.8269 C   0  0  0  0  0  0  0  0  0  0  0  0
    8.2500  -12.8412   18.6193 C   0  0  0  0  0  0  0  0  0  0  0  0
    8.0317  -12.3444   17.4861 O   0  0  0  0  0  0  0  0  0  0  0  0
    8.1142  -16.3132   22.0608 C   0  0  0  0  0  0  0  0  0  0  0  0
    7.0387  -16.1139   22.6631 O   0  0  0  0  0  0  0  0  0  0  0  0
    8.6520  -12.0560   19.6786 O   0  0  0  0  0  0  0  0  0  0  0  0
    9.2355  -16.7876   22.7538 N   0  0  0  0  0  0  0  0  0  0  0  0
    9.4050  -17.0692   24.1246 C   0  0  1  0  0  0  0  0  0  0  0  0
   10.3763  -18.2033   24.4601 C   0  0  0  0  0  0  0  0  0  0  0  0
   10.5343  -18.4267   25.9235 C   0  0  0  0  0  0  0  0  0  0  0  0
   11.4976  -19.5368   26.1424 C   0  0  0  0  0  0  0  0  0  0  0  0
   12.6281  -19.2758   26.6036 O   0  0  0  0  0  0  0  0  0  0  0  0
    9.6557  -15.9548   25.0239 C   0  0  0  0  0  0  0  0  0  0  0  0
   10.8059  -15.4229   24.9994 O   0  0  0  0  0  0  0  0  0  0  0  0
   11.1543  -20.8296   25.8434 O   0  0  0  0  0  0  0  0  0  0  0  0
    8.0936  -12.1073   25.0571 C   0  0  0  0  0  0  0  0  0  0  0  0
    7.3113  -12.8821   26.0902 C   0  0  2  0  0  0  0  0  0  0  0  0
    6.1044  -12.0771   26.4428 C   0  0  0  0  0  0  0  0  0  0  0  0
    8.0895  -13.4196   27.2163 C   0  0  0  0  0  0  0  0  0  0  0  0
    9.1073  -14.4739   26.9399 C   0  0  2  0  0  0  0  0  0  0  0  0
    8.7306  -15.4053   25.9292 N   0  0  0  0  0  0  0  0  0  0  0  0
    9.6509  -15.1167   28.1560 C   0  0  0  0  0  0  0  0  0  0  0  0
    9.6794  -16.4810   28.3161 O   0  0  0  0  0  0  0  0  0  0  0  0
   10.0997  -14.3998   29.0687 O   0  0  0  0  0  0  0  0  0  0  0  0
  2  1  1  1
  2  7  1  0
  3  2  1  0
  3  4  1  0
  4  5  1  0
  5  6  2  0
  5  9  1  0
  7  8  2  0
 10 11  1  0
 10  7  1  0
 11 16  1  0
 11 12  1  6
 13 12  1  0
 14 15  2  0
 14 13  1  0
 16 17  2  0
 18 14  1  0
 20 19  1  1
 20 22  1  0
 21 20  1  0
 23 22  1  1
 23 25  1  0
 24 23  1  0
 24 16  1  0
 25 27  2  0
 25 26  1  0
M  END
$$$$
