EEL.pdb
     RDKit          3D

 27 26  0  0  1  0  0  0  0  0999 V2000
    8.0906  -13.1068   18.7709 N   0  0  0  0  0  0  0  0  0  0  0  0
    8.8759  -14.1097   19.4213 C   0  0  1  0  0  0  0  0  0  0  0  0
   10.3429  -13.7858   19.4203 C   0  0  0  0  0  0  0  0  0  0  0  0
   11.1449  -15.0802   19.2564 C   0  0  0  0  0  0  0  0  0  0  0  0
   12.5702  -14.7157   19.3731 C   0  0  0  0  0  0  0  0  0  0  0  0
   13.2716  -14.6094   18.3361 O   0  0  0  0  0  0  0  0  0  0  0  0
    8.3885  -14.4416   20.7963 C   0  0  0  0  0  0  0  0  0  0  0  0
    7.7725  -13.5442   21.4082 O   0  0  0  0  0  0  0  0  0  0  0  0
   13.1064  -14.4976   20.6241 O   0  0  0  0  0  0  0  0  0  0  0  0
    8.5979  -15.6905   21.3955 N   0  0  0  0  0  0  0  0  0  0  0  0
    8.0717  -16.2262   22.5884 C   0  0  1  0  0  0  0  0  0  0  0  0
    7.9843  -17.7526   22.6557 C   0  0  0  0  0  0  0  0  0  0  0  0
    7.3692  -18.2500   23.9169 C   0  0  0  0  0  0  0  0  0  0  0  0
    7.2168  -19.7258   23.8317 C   0  0  0  0  0  0  0  0  0  0  0  0
    8.2300  -20.4468   23.9431 O   0  0  0  0  0  0  0  0  0  0  0  0
    8.5982  -15.7300   23.8494 C   0  0  0  0  0  0  0  0  0  0  0  0
    9.8545  -15.7541   24.0155 O   0  0  0  0  0  0  0  0  0  0  0  0
    5.9840  -20.2911   23.6337 O   0  0  0  0  0  0  0  0  0  0  0  0
    7.2580  -11.8237   25.7398 C   0  0  0  0  0  0  0  0  0  0  0  0
    6.5854  -12.9922   26.4192 C   0  0  2  0  0  0  0  0  0  0  0  0
    5.5217  -12.4462   27.3133 C   0  0  0  0  0  0  0  0  0  0  0  0
    7.4828  -13.9964   27.0098 C   0  0  0  0  0  0  0  0  0  0  0  0
    8.4262  -14.7240   26.1129 C   0  0  2  0  0  0  0  0  0  0  0  0
    7.8351  -15.2199   24.9147 N   0  0  0  0  0  0  0  0  0  0  0  0
    9.2663  -15.7227   26.8089 C   0  0  0  0  0  0  0  0  0  0  0  0
   10.1505  -15.3756   27.8016 O   0  0  0  0  0  0  0  0  0  0  0  0
    9.1714  -16.9209   26.4870 O   0  0  0  0  0  0  0  0  0  0  0  0
  2  1  1  1
  2  7  1  0
  3  2  1  0
  3  4  1  0
  4  5  1  0
  5  6  2  0
  5  9  1  0
  7  8  2  0
 10 11  1  0
 10  7  1  0
 11 16  1  0
 11 12  1  6
 13 12  1  0
 14 15  2  0
 14 13  1  0
 16 17  2  0
 18 14  1  0
 20 19  1  1
 20 22  1  0
 21 20  1  0
 23 22  1  1
 23 25  1  0
 24 23  1  0
 24 16  1  0
 25 27  2  0
 25 26  1  0
M  END
$$$$
