EEL.pdb
     RDKit          3D

 27 26  0  0  1  0  0  0  0  0999 V2000
    9.5106  -13.3676   18.8320 N   0  0  0  0  0  0  0  0  0  0  0  0
    8.2129  -13.9190   19.0709 C   0  0  1  0  0  0  0  0  0  0  0  0
    7.5968  -14.5047   17.8320 C   0  0  0  0  0  0  0  0  0  0  0  0
    8.6332  -15.3770   17.1176 C   0  0  0  0  0  0  0  0  0  0  0  0
    7.9419  -16.0144   15.9802 C   0  0  0  0  0  0  0  0  0  0  0  0
    8.5186  -16.0922   14.8666 O   0  0  0  0  0  0  0  0  0  0  0  0
    8.1840  -14.8896   20.2090 C   0  0  0  0  0  0  0  0  0  0  0  0
    7.0617  -15.2976   20.5740 O   0  0  0  0  0  0  0  0  0  0  0  0
    6.6704  -16.5148   16.1631 O   0  0  0  0  0  0  0  0  0  0  0  0
    9.3438  -15.3378   20.8546 N   0  0  0  0  0  0  0  0  0  0  0  0
    9.4921  -16.1297   22.0113 C   0  0  1  0  0  0  0  0  0  0  0  0
   10.6797  -17.0950   22.0142 C   0  0  0  0  0  0  0  0  0  0  0  0
   10.5397  -18.2002   21.0267 C   0  0  0  0  0  0  0  0  0  0  0  0
   11.7581  -19.0497   21.0752 C   0  0  0  0  0  0  0  0  0  0  0  0
   12.6967  -18.7200   21.8296 O   0  0  0  0  0  0  0  0  0  0  0  0
    9.4211  -15.4686   23.3042 C   0  0  0  0  0  0  0  0  0  0  0  0
   10.3712  -14.6932   23.6243 O   0  0  0  0  0  0  0  0  0  0  0  0
   11.8541  -20.1790   20.3046 O   0  0  0  0  0  0  0  0  0  0  0  0
    5.7429  -12.2586   26.7650 C   0  0  0  0  0  0  0  0  0  0  0  0
    7.0798  -12.9447   26.6183 C   0  0  2  0  0  0  0  0  0  0  0  0
    8.1424  -11.9208   26.8448 C   0  0  0  0  0  0  0  0  0  0  0  0
    7.2379  -13.7981   25.4312 C   0  0  0  0  0  0  0  0  0  0  0  0
    8.3157  -14.8289   25.4334 C   0  0  2  0  0  0  0  0  0  0  0  0
    8.3848  -15.6109   24.2440 N   0  0  0  0  0  0  0  0  0  0  0  0
    8.3698  -15.6378   26.6705 C   0  0  0  0  0  0  0  0  0  0  0  0
    9.1459  -15.2829   27.7473 O   0  0  0  0  0  0  0  0  0  0  0  0
    7.6895  -16.6771   26.7426 O   0  0  0  0  0  0  0  0  0  0  0  0
  2  1  1  6
  2  7  1  0
  3  2  1  0
  3  4  1  0
  4  5  1  0
  5  6  2  0
  5  9  1  0
  7  8  2  0
 10 11  1  0
 10  7  1  0
 11 16  1  0
 11 12  1  6
 13 12  1  0
 14 15  2  0
 14 13  1  0
 16 17  2  0
 18 14  1  0
 20 19  1  6
 20 22  1  0
 21 20  1  0
 23 22  1  6
 23 25  1  0
 24 23  1  0
 24 16  1  0
 25 27  2  0
 25 26  1  0
M  END
$$$$
