PRH.pdb
     RDKit          3D

 29 30  0  0  1  0  0  0  0  0999 V2000
    9.1609  -14.4464   18.5226 N   0  0  0  0  0  0  0  0  0  0  0  0
    8.6377  -13.7167   17.4026 C   0  0  0  0  0  0  0  0  0  0  0  0
    7.6520  -12.6956   17.9798 C   0  0  0  0  0  0  0  0  0  0  0  0
    7.2476  -13.4235   19.2691 C   0  0  0  0  0  0  0  0  0  0  0  0
    8.6226  -13.8921   19.7237 C   0  0  1  0  0  0  0  0  0  0  0  0
    8.5363  -14.8364   20.8389 C   0  0  0  0  0  0  0  0  0  0  0  0
    7.8724  -14.5274   21.8555 O   0  0  0  0  0  0  0  0  0  0  0  0
    6.4820  -19.4587   18.2218 N   0  0  0  0  0  0  0  0  0  0  0  0
    7.7938  -19.7542   17.7588 C   0  0  0  0  0  0  0  0  0  0  0  0
    8.2258  -19.3316   16.6168 N   0  0  0  0  0  0  0  0  0  0  0  0
    8.6705  -20.5433   18.5755 N   0  0  0  0  0  0  0  0  0  0  0  0
    8.8643  -20.1910   19.9586 C   0  0  0  0  0  0  0  0  0  0  0  0
    9.3538  -18.7508   20.0218 C   0  0  0  0  0  0  0  0  0  0  0  0
    9.7206  -18.3358   21.4035 C   0  0  0  0  0  0  0  0  0  0  0  0
    9.0868  -17.0679   21.8923 C   0  0  2  0  0  0  0  0  0  0  0  0
    9.1825  -16.0990   20.8102 N   0  0  0  0  0  0  0  0  0  0  0  0
    9.7794  -16.5838   23.1087 C   0  0  0  0  0  0  0  0  0  0  0  0
   10.9753  -16.2209   23.0274 O   0  0  0  0  0  0  0  0  0  0  0  0
    9.1930  -19.6115   16.3285 N   0  0  0  0  0  0  0  0  0  0  0  0
    9.1532  -16.5058   24.3878 C   0  0  1  0  0  0  0  0  0  0  0  0
    9.9136  -16.0092   25.5383 C   0  0  0  0  0  0  0  0  0  0  0  0
    8.9740  -15.2312   26.4342 C   0  0  0  0  0  0  0  0  0  0  0  0
    9.6396  -14.8015   27.6877 C   0  0  0  0  0  0  0  0  0  0  0  0
   10.9552  -15.0467   28.0701 N   0  0  0  0  0  0  0  0  0  0  0  0
   11.1467  -14.4833   29.2727 C   0  0  0  0  0  0  0  0  0  0  0  0
   10.0129  -13.8886   29.6775 N   0  0  0  0  0  0  0  0  0  0  0  0
    9.1143  -14.0913   28.7076 C   0  0  0  0  0  0  0  0  0  0  0  0
   10.5314  -17.1430   26.2589 O   0  0  0  0  0  0  0  0  0  0  0  0
   10.0517  -18.3218   26.1808 O   0  0  0  0  0  0  0  0  0  0  0  0
  1  2  1  0
  3  2  1  0
  4  5  1  0
  4  3  1  0
  5  6  1  1
  5  1  1  0
  6  7  2  0
  9 11  1  0
  9  8  1  0
 10  9  2  0
 12 13  1  0
 12 11  1  0
 13 14  1  0
 15 14  1  6
 16 15  1  0
 16  6  1  0
 17 15  1  0
 18 17  2  0
 19 17  1  0
 20 27  1  0
 20 19  1  0
 20 21  1  6
 22 21  1  0
 23 22  2  0
 24 23  1  0
 25 24  1  0
 25 26  2  0
 26 22  1  0
 27 29  1  0
 28 27  2  0
M  END
$$$$
