PRH.pdb
     RDKit          3D

 29 30  0  0  1  0  0  0  0  0999 V2000
    8.0387  -14.8473   17.6767 N   0  0  0  0  0  0  0  0  0  0  0  0
    7.6997  -13.7575   16.8062 C   0  0  0  0  0  0  0  0  0  0  0  0
    8.2390  -12.4901   17.4772 C   0  0  0  0  0  0  0  0  0  0  0  0
    8.2199  -12.9429   18.9435 C   0  0  0  0  0  0  0  0  0  0  0  0
    8.8005  -14.3396   18.7728 C   0  0  1  0  0  0  0  0  0  0  0  0
    8.6926  -15.1294   20.0006 C   0  0  0  0  0  0  0  0  0  0  0  0
    7.5753  -15.2566   20.5529 O   0  0  0  0  0  0  0  0  0  0  0  0
   13.7827  -21.7044   22.7925 N   0  0  0  0  0  0  0  0  0  0  0  0
   12.9762  -21.4396   23.9335 C   0  0  0  0  0  0  0  0  0  0  0  0
   12.9972  -22.2025   24.9761 N   0  0  0  0  0  0  0  0  0  0  0  0
   12.1110  -20.2953   23.9372 N   0  0  0  0  0  0  0  0  0  0  0  0
   12.2181  -19.3183   22.8842 C   0  0  0  0  0  0  0  0  0  0  0  0
   11.0585  -18.3410   23.0178 C   0  0  0  0  0  0  0  0  0  0  0  0
   10.9674  -17.4065   21.8627 C   0  0  0  0  0  0  0  0  0  0  0  0
    9.7350  -16.5540   21.8107 C   0  0  2  0  0  0  0  0  0  0  0  0
    9.8164  -15.7613   20.5925 N   0  0  0  0  0  0  0  0  0  0  0  0
    9.6590  -15.6883   23.0100 C   0  0  0  0  0  0  0  0  0  0  0  0
   10.3517  -14.6460   23.0562 O   0  0  0  0  0  0  0  0  0  0  0  0
   12.4290  -21.9090   25.8055 N   0  0  0  0  0  0  0  0  0  0  0  0
    8.8292  -15.9776   24.1334 C   0  0  2  0  0  0  0  0  0  0  0  0
    8.6574  -14.9721   25.1861 C   0  0  0  0  0  0  0  0  0  0  0  0
    7.2001  -14.5654   25.2272 C   0  0  0  0  0  0  0  0  0  0  0  0
    6.9412  -13.5541   26.2804 C   0  0  0  0  0  0  0  0  0  0  0  0
    7.8774  -12.9393   27.1067 N   0  0  0  0  0  0  0  0  0  0  0  0
    7.2211  -12.0922   27.9141 C   0  0  0  0  0  0  0  0  0  0  0  0
    5.9070  -12.1370   27.6420 N   0  0  0  0  0  0  0  0  0  0  0  0
    5.7572  -13.0251   26.6529 C   0  0  0  0  0  0  0  0  0  0  0  0
    9.1007  -15.5239   26.4844 O   0  0  0  0  0  0  0  0  0  0  0  0
    9.0383  -14.8357   27.5560 O   0  0  0  0  0  0  0  0  0  0  0  0
  1  2  1  0
  3  2  1  0
  4  5  1  0
  4  3  1  0
  5  6  1  1
  5  1  1  0
  6  7  2  0
  9 11  1  0
  9  8  1  0
 10  9  2  0
 12 13  1  0
 12 11  1  0
 13 14  1  0
 15 14  1  1
 16 15  1  0
 16  6  1  0
 17 15  1  0
 18 17  2  0
 19 17  1  0
 20 27  1  0
 20 19  1  0
 20 21  1  6
 22 21  1  0
 23 22  2  0
 24 23  1  0
 25 24  1  0
 25 26  2  0
 26 22  1  0
 27 29  1  0
 28 27  2  0
M  END
$$$$
