PRH.pdb
     RDKit          3D

 29 30  0  0  1  0  0  0  0  0999 V2000
   11.4529  -18.5274   19.7264 N   0  0  0  0  0  0  0  0  0  0  0  0
   11.9648  -19.2091   18.5715 C   0  0  0  0  0  0  0  0  0  0  0  0
   12.8456  -18.1965   17.8323 C   0  0  0  0  0  0  0  0  0  0  0  0
   12.1870  -16.8902   18.2963 C   0  0  0  0  0  0  0  0  0  0  0  0
   12.0173  -17.2163   19.7734 C   0  0  1  0  0  0  0  0  0  0  0  0
   11.1863  -16.2254   20.4593 C   0  0  0  0  0  0  0  0  0  0  0  0
   11.6711  -15.1042   20.7378 O   0  0  0  0  0  0  0  0  0  0  0  0
    6.5521  -20.2665   18.5205 N   0  0  0  0  0  0  0  0  0  0  0  0
    6.2454  -18.8885   18.3491 C   0  0  0  0  0  0  0  0  0  0  0  0
    6.6352  -18.2266   17.3102 N   0  0  0  0  0  0  0  0  0  0  0  0
    5.4818  -18.2043   19.3527 N   0  0  0  0  0  0  0  0  0  0  0  0
    5.8468  -16.8642   19.7344 C   0  0  0  0  0  0  0  0  0  0  0  0
    7.2266  -16.9079   20.3760 C   0  0  0  0  0  0  0  0  0  0  0  0
    7.6468  -15.5837   20.9105 C   0  0  0  0  0  0  0  0  0  0  0  0
    9.0067  -15.5375   21.5403 C   0  0  2  0  0  0  0  0  0  0  0  0
    9.8409  -16.4907   20.8230 N   0  0  0  0  0  0  0  0  0  0  0  0
    8.9178  -15.8786   22.9788 C   0  0  0  0  0  0  0  0  0  0  0  0
    8.2318  -16.8653   23.3317 O   0  0  0  0  0  0  0  0  0  0  0  0
    6.5236  -17.1853   17.3264 N   0  0  0  0  0  0  0  0  0  0  0  0
    9.5787  -15.1365   24.0019 C   0  0  2  0  0  0  0  0  0  0  0  0
    9.3304  -15.4622   25.4094 C   0  0  0  0  0  0  0  0  0  0  0  0
    7.8344  -15.5267   25.6297 C   0  0  0  0  0  0  0  0  0  0  0  0
    7.2439  -14.1760   25.7912 C   0  0  0  0  0  0  0  0  0  0  0  0
    7.9156  -12.9570   25.7900 N   0  0  0  0  0  0  0  0  0  0  0  0
    7.0068  -11.9855   25.9651 C   0  0  0  0  0  0  0  0  0  0  0  0
    5.7836  -12.5276   26.0783 N   0  0  0  0  0  0  0  0  0  0  0  0
    5.9467  -13.8510   25.9707 C   0  0  0  0  0  0  0  0  0  0  0  0
    9.9820  -16.7451   25.7503 O   0  0  0  0  0  0  0  0  0  0  0  0
   10.4949  -17.4904   24.8517 O   0  0  0  0  0  0  0  0  0  0  0  0
  1  2  1  0
  3  2  1  0
  4  5  1  0
  4  3  1  0
  5  6  1  6
  5  1  1  0
  6  7  2  0
  9 11  1  0
  9  8  1  0
 10  9  2  0
 12 13  1  0
 12 11  1  0
 13 14  1  0
 15 14  1  6
 16 15  1  0
 16  6  1  0
 17 15  1  0
 18 17  2  0
 19 17  1  0
 20 27  1  0
 20 19  1  0
 20 21  1  6
 22 21  1  0
 23 22  2  0
 24 23  1  0
 25 24  1  0
 25 26  2  0
 26 22  1  0
 27 29  1  0
 28 27  2  0
M  END
$$$$
