PRH.pdb
     RDKit          3D

 29 30  0  0  1  0  0  0  0  0999 V2000
    8.6244  -14.7205   18.6932 N   0  0  0  0  0  0  0  0  0  0  0  0
    8.4196  -14.0454   17.4431 C   0  0  0  0  0  0  0  0  0  0  0  0
    8.1364  -12.5801   17.7894 C   0  0  0  0  0  0  0  0  0  0  0  0
    7.5601  -12.7524   19.2014 C   0  0  0  0  0  0  0  0  0  0  0  0
    8.5599  -13.7611   19.7492 C   0  0  1  0  0  0  0  0  0  0  0  0
    8.1324  -14.3088   21.0376 C   0  0  0  0  0  0  0  0  0  0  0  0
    7.9983  -13.5401   22.0178 O   0  0  0  0  0  0  0  0  0  0  0  0
    9.2751  -20.8973   23.3275 N   0  0  0  0  0  0  0  0  0  0  0  0
    9.5078  -21.2287   21.9643 C   0  0  0  0  0  0  0  0  0  0  0  0
   10.5167  -21.9488   21.5996 N   0  0  0  0  0  0  0  0  0  0  0  0
    8.6024  -20.7550   20.9573 N   0  0  0  0  0  0  0  0  0  0  0  0
    7.4745  -19.9442   21.3385 C   0  0  0  0  0  0  0  0  0  0  0  0
    7.9902  -18.5777   21.7676 C   0  0  0  0  0  0  0  0  0  0  0  0
    6.8904  -17.6489   22.1466 C   0  0  0  0  0  0  0  0  0  0  0  0
    7.3031  -16.2386   22.4450 C   0  0  2  0  0  0  0  0  0  0  0  0
    7.8623  -15.6898   21.2182 N   0  0  0  0  0  0  0  0  0  0  0  0
    8.2956  -16.2160   23.5440 C   0  0  0  0  0  0  0  0  0  0  0  0
    9.5164  -16.2411   23.2656 O   0  0  0  0  0  0  0  0  0  0  0  0
   10.6150  -22.1682   20.5803 N   0  0  0  0  0  0  0  0  0  0  0  0
    7.9358  -16.1665   24.9233 C   0  0  2  0  0  0  0  0  0  0  0  0
    8.9497  -15.8252   25.9254 C   0  0  0  0  0  0  0  0  0  0  0  0
    8.2732  -15.0845   27.0587 C   0  0  0  0  0  0  0  0  0  0  0  0
    9.2142  -14.8009   28.1691 C   0  0  0  0  0  0  0  0  0  0  0  0
   10.1983  -13.8175   28.2094 N   0  0  0  0  0  0  0  0  0  0  0  0
   10.8209  -13.9058   29.3946 C   0  0  0  0  0  0  0  0  0  0  0  0
   10.2799  -14.9015   30.1149 N   0  0  0  0  0  0  0  0  0  0  0  0
    9.3114  -15.4302   29.3587 C   0  0  0  0  0  0  0  0  0  0  0  0
    9.6148  -17.0555   26.4056 O   0  0  0  0  0  0  0  0  0  0  0  0
    9.0019  -18.1731   26.4404 O   0  0  0  0  0  0  0  0  0  0  0  0
  1  2  1  0
  3  2  1  0
  4  5  1  0
  4  3  1  0
  5  6  1  1
  5  1  1  0
  6  7  2  0
  9 11  1  0
  9  8  1  0
 10  9  2  0
 12 13  1  0
 12 11  1  0
 13 14  1  0
 15 14  1  6
 16 15  1  0
 16  6  1  0
 17 15  1  0
 18 17  2  0
 19 17  1  0
 20 27  1  0
 20 19  1  0
 20 21  1  1
 22 21  1  0
 23 22  2  0
 24 23  1  0
 25 24  1  0
 25 26  2  0
 26 22  1  0
 27 29  1  0
 28 27  2  0
M  END
$$$$
