PRH.pdb
     RDKit          3D

 29 30  0  0  1  0  0  0  0  0999 V2000
    9.2104  -14.2067   19.7109 N   0  0  0  0  0  0  0  0  0  0  0  0
    9.0153  -13.6413   18.4060 C   0  0  0  0  0  0  0  0  0  0  0  0
    7.7079  -12.8454   18.4756 C   0  0  0  0  0  0  0  0  0  0  0  0
    6.9982  -13.6077   19.6029 C   0  0  0  0  0  0  0  0  0  0  0  0
    8.1649  -13.7504   20.5701 C   0  0  1  0  0  0  0  0  0  0  0  0
    7.8507  -14.6588   21.6742 C   0  0  0  0  0  0  0  0  0  0  0  0
    6.8237  -14.4568   22.3626 O   0  0  0  0  0  0  0  0  0  0  0  0
   10.2062  -22.2543   20.0321 N   0  0  0  0  0  0  0  0  0  0  0  0
   11.0627  -21.1614   19.7251 C   0  0  0  0  0  0  0  0  0  0  0  0
   12.0457  -21.2769   18.8945 N   0  0  0  0  0  0  0  0  0  0  0  0
   10.8375  -19.8898   20.3501 N   0  0  0  0  0  0  0  0  0  0  0  0
    9.7852  -19.7515   21.3239 C   0  0  0  0  0  0  0  0  0  0  0  0
    9.7000  -18.2874   21.7323 C   0  0  0  0  0  0  0  0  0  0  0  0
    8.6077  -18.0334   22.7111 C   0  0  0  0  0  0  0  0  0  0  0  0
    8.4553  -16.6116   23.1621 C   0  0  2  0  0  0  0  0  0  0  0  0
    8.6738  -15.7688   21.9955 N   0  0  0  0  0  0  0  0  0  0  0  0
    9.4300  -16.3062   24.2346 C   0  0  0  0  0  0  0  0  0  0  0  0
   10.6552  -16.3920   23.9896 O   0  0  0  0  0  0  0  0  0  0  0  0
   12.6166  -20.4220   18.6940 N   0  0  0  0  0  0  0  0  0  0  0  0
    9.0479  -15.9138   25.5516 C   0  0  2  0  0  0  0  0  0  0  0  0
    8.6746  -16.9363   26.5332 C   0  0  0  0  0  0  0  0  0  0  0  0
    7.5413  -17.7597   25.9602 C   0  0  0  0  0  0  0  0  0  0  0  0
    7.1810  -18.8918   26.8477 C   0  0  0  0  0  0  0  0  0  0  0  0
    7.7232  -19.1911   28.0941 N   0  0  0  0  0  0  0  0  0  0  0  0
    7.1156  -20.2956   28.5535 C   0  0  0  0  0  0  0  0  0  0  0  0
    6.2088  -20.7170   27.6573 N   0  0  0  0  0  0  0  0  0  0  0  0
    6.2626  -19.8569   26.6342 C   0  0  0  0  0  0  0  0  0  0  0  0
    9.8473  -17.7792   26.8508 O   0  0  0  0  0  0  0  0  0  0  0  0
   10.3710  -18.5470   25.9778 O   0  0  0  0  0  0  0  0  0  0  0  0
  1  2  1  0
  3  2  1  0
  4  5  1  0
  4  3  1  0
  5  6  1  1
  5  1  1  0
  6  7  2  0
  9 11  1  0
  9  8  1  0
 10  9  2  0
 12 13  1  0
 12 11  1  0
 13 14  1  0
 15 14  1  6
 16 15  1  0
 16  6  1  0
 17 15  1  0
 18 17  2  0
 19 17  1  0
 20 27  1  0
 20 19  1  0
 20 21  1  6
 22 21  1  0
 23 22  2  0
 24 23  1  0
 25 24  1  0
 25 26  2  0
 26 22  1  0
 27 29  1  0
 28 27  2  0
M  END
$$$$
