PRH.pdb
     RDKit          3D

 29 30  0  0  1  0  0  0  0  0999 V2000
    9.0301  -13.8321   16.9751 N   0  0  0  0  0  0  0  0  0  0  0  0
    8.4038  -13.4119   15.7537 C   0  0  0  0  0  0  0  0  0  0  0  0
    6.9429  -13.1107   16.1035 C   0  0  0  0  0  0  0  0  0  0  0  0
    6.7704  -14.0318   17.3190 C   0  0  0  0  0  0  0  0  0  0  0  0
    8.0794  -13.7333   18.0362 C   0  0  1  0  0  0  0  0  0  0  0  0
    8.3161  -14.6568   19.1471 C   0  0  0  0  0  0  0  0  0  0  0  0
    7.3381  -15.1743   19.7348 O   0  0  0  0  0  0  0  0  0  0  0  0
    9.9593  -22.0459   17.4687 N   0  0  0  0  0  0  0  0  0  0  0  0
    9.8541  -22.1988   18.8786 C   0  0  0  0  0  0  0  0  0  0  0  0
   10.1334  -23.3149   19.4668 N   0  0  0  0  0  0  0  0  0  0  0  0
    9.4265  -21.0884   19.6800 N   0  0  0  0  0  0  0  0  0  0  0  0
    9.1825  -19.8129   19.0569 C   0  0  0  0  0  0  0  0  0  0  0  0
    9.6912  -18.7203   19.9872 C   0  0  0  0  0  0  0  0  0  0  0  0
    9.4415  -17.3549   19.4495 C   0  0  0  0  0  0  0  0  0  0  0  0
    9.9358  -16.2211   20.2971 C   0  0  2  0  0  0  0  0  0  0  0  0
    9.6235  -14.9899   19.5859 N   0  0  0  0  0  0  0  0  0  0  0  0
   11.3926  -16.3515   20.5296 C   0  0  0  0  0  0  0  0  0  0  0  0
   12.0794  -17.0347   19.7359 O   0  0  0  0  0  0  0  0  0  0  0  0
    9.9663  -23.3762   20.4989 N   0  0  0  0  0  0  0  0  0  0  0  0
   12.0696  -15.7341   21.6227 C   0  0  2  0  0  0  0  0  0  0  0  0
   12.4414  -16.5364   22.7917 C   0  0  0  0  0  0  0  0  0  0  0  0
   11.2402  -17.3554   23.2126 C   0  0  0  0  0  0  0  0  0  0  0  0
   11.5733  -18.2960   24.3096 C   0  0  0  0  0  0  0  0  0  0  0  0
   12.7955  -18.4314   24.9616 N   0  0  0  0  0  0  0  0  0  0  0  0
   12.6648  -19.3946   25.8864 C   0  0  0  0  0  0  0  0  0  0  0  0
   11.4140  -19.8820   25.8559 N   0  0  0  0  0  0  0  0  0  0  0  0
   10.7698  -19.2065   24.8978 C   0  0  0  0  0  0  0  0  0  0  0  0
   13.5949  -17.4005   22.4612 O   0  0  0  0  0  0  0  0  0  0  0  0
   14.7158  -17.2700   23.0548 O   0  0  0  0  0  0  0  0  0  0  0  0
  1  2  1  0
  3  2  1  0
  4  5  1  0
  4  3  1  0
  5  6  1  1
  5  1  1  0
  6  7  2  0
  9 11  1  0
  9  8  1  0
 10  9  2  0
 12 13  1  0
 12 11  1  0
 13 14  1  0
 15 14  1  6
 16 15  1  0
 16  6  1  0
 17 15  1  0
 18 17  2  0
 19 17  1  0
 20 27  1  0
 20 19  1  0
 20 21  1  6
 22 21  1  0
 23 22  2  0
 24 23  1  0
 25 24  1  0
 25 26  2  0
 26 22  1  0
 27 29  1  0
 28 27  2  0
M  END
$$$$
