PRH.pdb
     RDKit          3D

 29 30  0  0  1  0  0  0  0  0999 V2000
    9.3962  -14.2680   19.0969 N   0  0  0  0  0  0  0  0  0  0  0  0
    8.7524  -13.5320   18.0460 C   0  0  0  0  0  0  0  0  0  0  0  0
    7.6513  -12.7038   18.7161 C   0  0  0  0  0  0  0  0  0  0  0  0
    7.3801  -13.5783   19.9478 C   0  0  0  0  0  0  0  0  0  0  0  0
    8.8164  -13.8880   20.3455 C   0  0  1  0  0  0  0  0  0  0  0  0
    8.8856  -14.9191   21.3823 C   0  0  0  0  0  0  0  0  0  0  0  0
    8.2807  -14.7429   22.4652 O   0  0  0  0  0  0  0  0  0  0  0  0
    7.5897  -21.0183   20.0028 N   0  0  0  0  0  0  0  0  0  0  0  0
    8.1618  -20.9431   18.7030 C   0  0  0  0  0  0  0  0  0  0  0  0
    7.5768  -21.4518   17.6693 N   0  0  0  0  0  0  0  0  0  0  0  0
    9.4243  -20.2859   18.5235 N   0  0  0  0  0  0  0  0  0  0  0  0
   10.2260  -19.9576   19.6743 C   0  0  0  0  0  0  0  0  0  0  0  0
    9.4794  -18.9168   20.4970 C   0  0  0  0  0  0  0  0  0  0  0  0
   10.3120  -18.3586   21.5975 C   0  0  0  0  0  0  0  0  0  0  0  0
    9.7803  -17.1184   22.2512 C   0  0  2  0  0  0  0  0  0  0  0  0
    9.6187  -16.1205   21.2038 N   0  0  0  0  0  0  0  0  0  0  0  0
   10.7160  -16.6494   23.2992 C   0  0  0  0  0  0  0  0  0  0  0  0
   11.4037  -15.6239   23.0900 O   0  0  0  0  0  0  0  0  0  0  0  0
    8.0763  -21.3954   16.7505 N   0  0  0  0  0  0  0  0  0  0  0  0
   10.8818  -17.3088   24.5530 C   0  0  2  0  0  0  0  0  0  0  0  0
   10.9707  -16.5162   25.7829 C   0  0  0  0  0  0  0  0  0  0  0  0
    9.7608  -15.6100   25.8576 C   0  0  0  0  0  0  0  0  0  0  0  0
    9.7634  -14.7905   27.0935 C   0  0  0  0  0  0  0  0  0  0  0  0
   10.7345  -14.7721   28.0904 N   0  0  0  0  0  0  0  0  0  0  0  0
   10.3470  -13.8928   29.0269 C   0  0  0  0  0  0  0  0  0  0  0  0
    9.1717  -13.3475   28.6745 N   0  0  0  0  0  0  0  0  0  0  0  0
    8.8351  -13.9017   27.5045 C   0  0  0  0  0  0  0  0  0  0  0  0
   11.0453  -17.4148   26.9548 O   0  0  0  0  0  0  0  0  0  0  0  0
   11.8314  -17.1736   27.9294 O   0  0  0  0  0  0  0  0  0  0  0  0
  1  2  1  0
  3  2  1  0
  4  5  1  0
  4  3  1  0
  5  6  1  1
  5  1  1  0
  6  7  2  0
  9 11  1  0
  9  8  1  0
 10  9  2  0
 12 13  1  0
 12 11  1  0
 13 14  1  0
 15 14  1  6
 16 15  1  0
 16  6  1  0
 17 15  1  0
 18 17  2  0
 19 17  1  0
 20 27  1  0
 20 19  1  0
 20 21  1  6
 22 21  1  0
 23 22  2  0
 24 23  1  0
 25 24  1  0
 25 26  2  0
 26 22  1  0
 27 29  1  0
 28 27  2  0
M  END
$$$$
