PRH.pdb
     RDKit          3D

 29 30  0  0  1  0  0  0  0  0999 V2000
    8.9782  -14.3850   19.4171 N   0  0  0  0  0  0  0  0  0  0  0  0
    8.5826  -13.6431   18.2536 C   0  0  0  0  0  0  0  0  0  0  0  0
    7.7871  -12.4376   18.7648 C   0  0  0  0  0  0  0  0  0  0  0  0
    7.2696  -13.0101   20.0914 C   0  0  0  0  0  0  0  0  0  0  0  0
    8.5465  -13.6786   20.5808 C   0  0  1  0  0  0  0  0  0  0  0  0
    8.3051  -14.5282   21.7481 C   0  0  0  0  0  0  0  0  0  0  0  0
    7.7423  -14.0416   22.7562 O   0  0  0  0  0  0  0  0  0  0  0  0
   10.5080  -22.5411   21.2051 N   0  0  0  0  0  0  0  0  0  0  0  0
   10.8457  -21.6399   20.1582 C   0  0  0  0  0  0  0  0  0  0  0  0
   11.7665  -21.9123   19.2937 N   0  0  0  0  0  0  0  0  0  0  0  0
   10.1502  -20.3898   20.0500 N   0  0  0  0  0  0  0  0  0  0  0  0
    9.1333  -20.0550   21.0136 C   0  0  0  0  0  0  0  0  0  0  0  0
    9.3348  -18.6073   21.4392 C   0  0  0  0  0  0  0  0  0  0  0  0
    8.3025  -18.1518   22.4102 C   0  0  0  0  0  0  0  0  0  0  0  0
    8.4704  -16.7562   22.9320 C   0  0  2  0  0  0  0  0  0  0  0  0
    8.6884  -15.8938   21.7797 N   0  0  0  0  0  0  0  0  0  0  0  0
    9.6130  -16.6940   23.8723 C   0  0  0  0  0  0  0  0  0  0  0  0
   10.7465  -16.3865   23.4373 O   0  0  0  0  0  0  0  0  0  0  0  0
   11.9495  -21.2089   18.5396 N   0  0  0  0  0  0  0  0  0  0  0  0
    9.4953  -16.9684   25.2670 C   0  0  1  0  0  0  0  0  0  0  0  0
   10.6942  -16.9651   26.1104 C   0  0  0  0  0  0  0  0  0  0  0  0
   10.3055  -16.4910   27.4941 C   0  0  0  0  0  0  0  0  0  0  0  0
    9.7733  -15.1071   27.4717 C   0  0  0  0  0  0  0  0  0  0  0  0
    9.6095  -14.2851   26.3605 N   0  0  0  0  0  0  0  0  0  0  0  0
    9.0995  -13.1181   26.7828 C   0  0  0  0  0  0  0  0  0  0  0  0
    8.9294  -13.1559   28.1142 N   0  0  0  0  0  0  0  0  0  0  0  0
    9.3417  -14.3645   28.5124 C   0  0  0  0  0  0  0  0  0  0  0  0
   11.2839  -18.3206   26.1499 O   0  0  0  0  0  0  0  0  0  0  0  0
   12.3703  -18.5557   26.7746 O   0  0  0  0  0  0  0  0  0  0  0  0
  1  2  1  0
  3  2  1  0
  4  5  1  0
  4  3  1  0
  5  6  1  1
  5  1  1  0
  6  7  2  0
  9 11  1  0
  9  8  1  0
 10  9  2  0
 12 13  1  0
 12 11  1  0
 13 14  1  0
 15 14  1  6
 16 15  1  0
 16  6  1  0
 17 15  1  0
 18 17  2  0
 19 17  1  0
 20 27  1  0
 20 19  1  0
 20 21  1  1
 22 21  1  0
 23 22  2  0
 24 23  1  0
 25 24  1  0
 25 26  2  0
 26 22  1  0
 27 29  1  0
 28 27  2  0
M  END
$$$$
