PRH.pdb
     RDKit          3D

 29 30  0  0  1  0  0  0  0  0999 V2000
    8.9956  -14.1414   18.2061 N   0  0  0  0  0  0  0  0  0  0  0  0
    8.3658  -13.3526   17.1854 C   0  0  0  0  0  0  0  0  0  0  0  0
    7.4670  -12.3484   17.9142 C   0  0  0  0  0  0  0  0  0  0  0  0
    7.1934  -13.1321   19.2051 C   0  0  0  0  0  0  0  0  0  0  0  0
    8.6016  -13.6387   19.4835 C   0  0  1  0  0  0  0  0  0  0  0  0
    8.6214  -14.6342   20.5566 C   0  0  0  0  0  0  0  0  0  0  0  0
    8.1526  -14.3362   21.6796 O   0  0  0  0  0  0  0  0  0  0  0  0
   12.5303  -22.9593   21.4219 N   0  0  0  0  0  0  0  0  0  0  0  0
   12.6649  -21.6572   20.8663 C   0  0  0  0  0  0  0  0  0  0  0  0
   13.5260  -21.3965   19.9389 N   0  0  0  0  0  0  0  0  0  0  0  0
   11.8255  -20.5955   21.3421 N   0  0  0  0  0  0  0  0  0  0  0  0
   10.4232  -20.5946   21.0128 C   0  0  0  0  0  0  0  0  0  0  0  0
    9.7739  -19.3937   21.6864 C   0  0  0  0  0  0  0  0  0  0  0  0
    9.7566  -18.1910   20.8094 C   0  0  0  0  0  0  0  0  0  0  0  0
    9.1135  -16.9688   21.3932 C   0  0  2  0  0  0  0  0  0  0  0  0
    9.1565  -15.9347   20.3696 N   0  0  0  0  0  0  0  0  0  0  0  0
    9.8340  -16.5440   22.6155 C   0  0  0  0  0  0  0  0  0  0  0  0
   10.9176  -15.9263   22.5026 O   0  0  0  0  0  0  0  0  0  0  0  0
   13.5687  -20.4149   19.5764 N   0  0  0  0  0  0  0  0  0  0  0  0
    9.3576  -16.8018   23.9348 C   0  0  2  0  0  0  0  0  0  0  0  0
   10.0539  -16.2169   25.0844 C   0  0  0  0  0  0  0  0  0  0  0  0
    9.0392  -15.4900   25.9404 C   0  0  0  0  0  0  0  0  0  0  0  0
    9.6348  -15.0099   27.2107 C   0  0  0  0  0  0  0  0  0  0  0  0
   10.9447  -15.1861   27.6468 N   0  0  0  0  0  0  0  0  0  0  0  0
   11.0628  -14.5959   28.8460 C   0  0  0  0  0  0  0  0  0  0  0  0
    9.8875  -14.0498   29.1972 N   0  0  0  0  0  0  0  0  0  0  0  0
    9.0375  -14.3100   28.1976 C   0  0  0  0  0  0  0  0  0  0  0  0
   10.7421  -17.2796   25.8483 O   0  0  0  0  0  0  0  0  0  0  0  0
   10.3995  -18.5033   25.7429 O   0  0  0  0  0  0  0  0  0  0  0  0
  1  2  1  0
  3  2  1  0
  4  5  1  0
  4  3  1  0
  5  6  1  1
  5  1  1  0
  6  7  2  0
  9 11  1  0
  9  8  1  0
 10  9  2  0
 12 13  1  0
 12 11  1  0
 13 14  1  0
 15 14  1  6
 16 15  1  0
 16  6  1  0
 17 15  1  0
 18 17  2  0
 19 17  1  0
 20 27  1  0
 20 19  1  0
 20 21  1  1
 22 21  1  0
 23 22  2  0
 24 23  1  0
 25 24  1  0
 25 26  2  0
 26 22  1  0
 27 29  1  0
 28 27  2  0
M  END
$$$$
