DHD.pdb
     RDKit          3D

 27 27  0  0  1  0  0  0  0  0999 V2000
   43.2774  -10.1337   -5.8910 N   0  0  0  0  0  0  0  0  0  0  0  0
   43.2850   -9.2516   -7.0278 C   0  0  1  0  0  0  0  0  0  0  0  0
   43.9344   -9.8649   -8.2358 C   0  0  0  0  0  0  0  0  0  0  0  0
   45.3691  -10.1299   -7.9539 C   0  0  0  0  0  0  0  0  0  0  0  0
   45.8133  -11.3024   -8.0374 O   0  0  0  0  0  0  0  0  0  0  0  0
   41.9541   -8.7107   -7.2623 C   0  0  0  0  0  0  0  0  0  0  0  0
   41.1113   -9.4269   -7.8627 O   0  0  0  0  0  0  0  0  0  0  0  0
   46.2593   -9.1318   -7.5969 O   0  0  0  0  0  0  0  0  0  0  0  0
   41.5034   -7.4254   -6.8714 N   0  0  0  0  0  0  0  0  0  0  0  0
   40.1841   -6.9059   -7.1177 C   0  0  1  0  0  0  0  0  0  0  0  0
   39.8744   -5.7046   -6.2490 C   0  0  0  0  0  0  0  0  0  0  0  0
   38.4278   -5.3495   -6.4583 C   0  0  0  0  0  0  0  0  0  0  0  0
   37.3967   -6.1771   -6.8297 C   0  0  0  0  0  0  0  0  0  0  0  0
   36.2713   -5.4797   -6.9062 N   0  0  0  0  0  0  0  0  0  0  0  0
   36.5870   -4.2231   -6.5865 C   0  0  0  0  0  0  0  0  0  0  0  0
   37.8849   -4.1195   -6.3118 N   0  0  0  0  0  0  0  0  0  0  0  0
   40.0302   -6.4724   -8.5254 C   0  0  0  0  0  0  0  0  0  0  0  0
   41.0341   -5.9597   -9.0914 O   0  0  0  0  0  0  0  0  0  0  0  0
   38.8387   -6.6038   -9.2553 N   0  0  0  0  0  0  0  0  0  0  0  0
   38.8069   -6.1239  -10.6284 C   0  0  1  0  0  0  0  0  0  0  0  0
   37.9784   -7.0744  -11.4866 C   0  0  0  0  0  0  0  0  0  0  0  0
   37.9749   -6.5520  -12.8678 C   0  0  0  0  0  0  0  0  0  0  0  0
   38.7289   -5.5941  -13.1620 O   0  0  0  0  0  0  0  0  0  0  0  0
   38.2830   -4.7541  -10.6300 C   0  0  0  0  0  0  0  0  0  0  0  0
   37.3016   -4.4056   -9.9298 O   0  0  0  0  0  0  0  0  0  0  0  0
   37.1664   -7.0904  -13.8346 O   0  0  0  0  0  0  0  0  0  0  0  0
   38.8622   -3.7825  -11.4146 O   0  0  0  0  0  0  0  0  0  0  0  0
  2  1  1  1
  2  3  1  0
  3  4  1  0
  4  5  2  0
  6  2  1  0
  7  6  2  0
  8  4  1  0
  9  6  1  0
 10  9  1  0
 11 12  1  0
 10 11  1  1
 12 13  2  0
 13 14  1  0
 15 14  1  0
 16 12  1  0
 16 15  2  0
 17 10  1  0
 17 18  2  0
 19 17  1  0
 20 21  1  6
 20 19  1  0
 22 21  1  0
 22 26  1  0
 23 22  2  0
 24 20  1  0
 25 24  2  0
 27 24  1  0
M  END
$$$$
