DHD.pdb
     RDKit          3D

 27 27  0  0  1  0  0  0  0  0999 V2000
   25.6537  -11.7854  -15.3240 N   0  0  0  0  0  0  0  0  0  0  0  0
   25.3153  -11.2403  -16.6119 C   0  0  1  0  0  0  0  0  0  0  0  0
   25.3511  -12.2686  -17.7066 C   0  0  0  0  0  0  0  0  0  0  0  0
   26.7164  -12.8462  -17.8079 C   0  0  0  0  0  0  0  0  0  0  0  0
   27.0553  -13.7807  -17.0392 O   0  0  0  0  0  0  0  0  0  0  0  0
   24.0771  -10.4789  -16.5339 C   0  0  0  0  0  0  0  0  0  0  0  0
   23.7992   -9.6856  -17.4705 O   0  0  0  0  0  0  0  0  0  0  0  0
   27.6531  -12.3990  -18.7237 O   0  0  0  0  0  0  0  0  0  0  0  0
   23.1309  -10.5448  -15.4812 N   0  0  0  0  0  0  0  0  0  0  0  0
   21.8983   -9.8036  -15.4350 C   0  0  1  0  0  0  0  0  0  0  0  0
   20.8810  -10.4480  -14.5167 C   0  0  0  0  0  0  0  0  0  0  0  0
   19.5986   -9.6711  -14.6376 C   0  0  0  0  0  0  0  0  0  0  0  0
   19.0913   -8.7322  -13.7733 C   0  0  0  0  0  0  0  0  0  0  0  0
   17.9351   -8.2781  -14.2376 N   0  0  0  0  0  0  0  0  0  0  0  0
   17.7127   -8.9231  -15.3844 C   0  0  0  0  0  0  0  0  0  0  0  0
   18.7045   -9.7706  -15.6474 N   0  0  0  0  0  0  0  0  0  0  0  0
   22.1168   -8.4256  -14.9384 C   0  0  0  0  0  0  0  0  0  0  0  0
   23.1583   -8.2074  -14.2613 O   0  0  0  0  0  0  0  0  0  0  0  0
   21.2358   -7.3606  -15.1823 N   0  0  0  0  0  0  0  0  0  0  0  0
   21.6722   -6.0095  -14.8649 C   0  0  1  0  0  0  0  0  0  0  0  0
   22.9185   -5.6676  -15.6748 C   0  0  0  0  0  0  0  0  0  0  0  0
   23.2602   -4.2562  -15.4072 C   0  0  0  0  0  0  0  0  0  0  0  0
   23.2217   -3.8298  -14.2286 O   0  0  0  0  0  0  0  0  0  0  0  0
   20.5587   -5.0896  -15.1199 C   0  0  0  0  0  0  0  0  0  0  0  0
   20.5902   -3.8813  -14.7823 O   0  0  0  0  0  0  0  0  0  0  0  0
   23.6182   -3.4024  -16.4178 O   0  0  0  0  0  0  0  0  0  0  0  0
   19.4174   -5.5280  -15.7525 O   0  0  0  0  0  0  0  0  0  0  0  0
  2  1  1  1
  2  3  1  0
  3  4  1  0
  4  5  2  0
  6  2  1  0
  7  6  2  0
  8  4  1  0
  9  6  1  0
 10  9  1  0
 11 12  1  0
 10 11  1  1
 12 13  2  0
 13 14  1  0
 15 14  1  0
 16 12  1  0
 16 15  2  0
 17 10  1  0
 17 18  2  0
 19 17  1  0
 20 21  1  6
 20 19  1  0
 22 21  1  0
 22 26  1  0
 23 22  2  0
 24 20  1  0
 25 24  2  0
 27 24  1  0
M  END
$$$$
