DHD.pdb
     RDKit          3D

 27 27  0  0  1  0  0  0  0  0999 V2000
   27.1130  -20.9178  -10.9869 N   0  0  0  0  0  0  0  0  0  0  0  0
   25.7139  -21.1704  -11.2085 C   0  0  1  0  0  0  0  0  0  0  0  0
   24.8254  -20.3185  -10.3471 C   0  0  0  0  0  0  0  0  0  0  0  0
   25.0762  -20.6211   -8.9141 C   0  0  0  0  0  0  0  0  0  0  0  0
   26.2421  -20.5315   -8.4541 O   0  0  0  0  0  0  0  0  0  0  0  0
   25.4064  -21.1246  -12.6305 C   0  0  0  0  0  0  0  0  0  0  0  0
   25.6709  -20.0730  -13.2692 O   0  0  0  0  0  0  0  0  0  0  0  0
   24.0716  -21.0042   -8.0422 O   0  0  0  0  0  0  0  0  0  0  0  0
   24.8243  -22.1736  -13.3847 N   0  0  0  0  0  0  0  0  0  0  0  0
   24.5851  -22.1326  -14.8032 C   0  0  1  0  0  0  0  0  0  0  0  0
   25.0978  -23.3741  -15.5027 C   0  0  0  0  0  0  0  0  0  0  0  0
   26.5537  -23.1567  -15.8119 C   0  0  0  0  0  0  0  0  0  0  0  0
   27.2857  -22.0024  -15.6787 C   0  0  0  0  0  0  0  0  0  0  0  0
   28.5375  -22.2226  -16.0573 N   0  0  0  0  0  0  0  0  0  0  0  0
   28.5972  -23.5036  -16.4264 C   0  0  0  0  0  0  0  0  0  0  0  0
   27.4104  -24.0892  -16.2870 N   0  0  0  0  0  0  0  0  0  0  0  0
   23.1380  -22.0344  -15.1026 C   0  0  0  0  0  0  0  0  0  0  0  0
   22.3298  -22.3104  -14.1745 O   0  0  0  0  0  0  0  0  0  0  0  0
   22.6251  -21.6513  -16.3515 N   0  0  0  0  0  0  0  0  0  0  0  0
   21.4896  -20.7425  -16.3887 C   0  0  1  0  0  0  0  0  0  0  0  0
   21.8294  -19.4631  -15.6313 C   0  0  0  0  0  0  0  0  0  0  0  0
   20.6796  -18.5446  -15.7536 C   0  0  0  0  0  0  0  0  0  0  0  0
   19.5174  -18.9984  -15.6272 O   0  0  0  0  0  0  0  0  0  0  0  0
   21.1371  -20.4961  -17.7909 C   0  0  0  0  0  0  0  0  0  0  0  0
   21.9571  -20.6439  -18.7293 O   0  0  0  0  0  0  0  0  0  0  0  0
   20.8543  -17.2081  -16.0021 O   0  0  0  0  0  0  0  0  0  0  0  0
   19.8682  -20.0871  -18.1337 O   0  0  0  0  0  0  0  0  0  0  0  0
  2  1  1  6
  2  3  1  0
  3  4  1  0
  4  5  2  0
  6  2  1  0
  7  6  2  0
  8  4  1  0
  9  6  1  0
 10  9  1  0
 11 12  1  0
 10 11  1  6
 12 13  2  0
 13 14  1  0
 15 14  1  0
 16 12  1  0
 16 15  2  0
 17 10  1  0
 17 18  2  0
 19 17  1  0
 20 21  1  6
 20 19  1  0
 22 21  1  0
 22 26  1  0
 23 22  2  0
 24 20  1  0
 25 24  2  0
 27 24  1  0
M  END
$$$$
