DHD.pdb
     RDKit          3D

 27 27  0  0  1  0  0  0  0  0999 V2000
   22.1357  -13.3579  -16.4637 N   0  0  0  0  0  0  0  0  0  0  0  0
   21.3054  -12.1997  -16.2646 C   0  0  1  0  0  0  0  0  0  0  0  0
   20.0705  -12.5001  -15.4633 C   0  0  0  0  0  0  0  0  0  0  0  0
   19.1500  -13.3518  -16.2603 C   0  0  0  0  0  0  0  0  0  0  0  0
   19.3144  -13.4530  -17.5019 O   0  0  0  0  0  0  0  0  0  0  0  0
   22.0968  -11.0845  -15.7660 C   0  0  0  0  0  0  0  0  0  0  0  0
   22.3508  -11.0306  -14.5346 O   0  0  0  0  0  0  0  0  0  0  0  0
   18.0997  -14.0535  -15.6941 O   0  0  0  0  0  0  0  0  0  0  0  0
   22.6223  -10.0277  -16.5503 N   0  0  0  0  0  0  0  0  0  0  0  0
   23.3214   -8.8838  -16.0272 C   0  0  1  0  0  0  0  0  0  0  0  0
   24.6124   -8.6163  -16.7723 C   0  0  0  0  0  0  0  0  0  0  0  0
   25.6354   -9.6053  -16.2845 C   0  0  0  0  0  0  0  0  0  0  0  0
   25.4783  -10.5934  -15.3437 C   0  0  0  0  0  0  0  0  0  0  0  0
   26.6196  -11.2523  -15.1951 N   0  0  0  0  0  0  0  0  0  0  0  0
   27.4904  -10.6869  -16.0334 C   0  0  0  0  0  0  0  0  0  0  0  0
   26.9188   -9.6890  -16.7030 N   0  0  0  0  0  0  0  0  0  0  0  0
   22.4996   -7.6561  -16.1324 C   0  0  0  0  0  0  0  0  0  0  0  0
   21.9460   -7.4173  -17.2402 O   0  0  0  0  0  0  0  0  0  0  0  0
   22.3047   -6.7560  -15.0734 N   0  0  0  0  0  0  0  0  0  0  0  0
   21.4957   -5.5698  -15.3080 C   0  0  1  0  0  0  0  0  0  0  0  0
   20.2099   -5.6542  -14.4921 C   0  0  0  0  0  0  0  0  0  0  0  0
   19.4200   -4.4364  -14.7632 C   0  0  0  0  0  0  0  0  0  0  0  0
   19.7472   -3.3589  -14.2113 O   0  0  0  0  0  0  0  0  0  0  0  0
   22.2992   -4.3871  -14.9814 C   0  0  0  0  0  0  0  0  0  0  0  0
   22.9449   -4.2842  -13.9102 O   0  0  0  0  0  0  0  0  0  0  0  0
   18.3378   -4.4575  -15.6039 O   0  0  0  0  0  0  0  0  0  0  0  0
   22.3759   -3.3275  -15.8568 O   0  0  0  0  0  0  0  0  0  0  0  0
  2  1  1  1
  2  3  1  0
  3  4  1  0
  4  5  2  0
  6  2  1  0
  7  6  2  0
  8  4  1  0
  9  6  1  0
 10  9  1  0
 11 12  1  0
 10 11  1  6
 12 13  2  0
 13 14  1  0
 15 14  1  0
 16 12  1  0
 16 15  2  0
 17 10  1  0
 17 18  2  0
 19 17  1  0
 20 21  1  1
 20 19  1  0
 22 21  1  0
 22 26  1  0
 23 22  2  0
 24 20  1  0
 25 24  2  0
 27 24  1  0
M  END
$$$$
