DHD.pdb
     RDKit          3D

 27 27  0  0  1  0  0  0  0  0999 V2000
   25.3183  -21.2475  -17.9991 N   0  0  0  0  0  0  0  0  0  0  0  0
   24.9864  -20.0997  -17.1973 C   0  0  1  0  0  0  0  0  0  0  0  0
   24.3317  -19.0051  -17.9912 C   0  0  0  0  0  0  0  0  0  0  0  0
   25.2704  -18.5089  -19.0306 C   0  0  0  0  0  0  0  0  0  0  0  0
   26.4405  -18.1836  -18.7082 O   0  0  0  0  0  0  0  0  0  0  0  0
   24.2571  -20.5047  -16.0045 C   0  0  0  0  0  0  0  0  0  0  0  0
   23.4773  -21.4895  -16.0820 O   0  0  0  0  0  0  0  0  0  0  0  0
   24.9152  -18.3839  -20.3627 O   0  0  0  0  0  0  0  0  0  0  0  0
   24.3409  -19.8838  -14.7335 N   0  0  0  0  0  0  0  0  0  0  0  0
   23.5568  -20.2522  -13.5844 C   0  0  1  0  0  0  0  0  0  0  0  0
   24.0280  -19.5530  -12.3263 C   0  0  0  0  0  0  0  0  0  0  0  0
   23.2348  -20.1033  -11.1728 C   0  0  0  0  0  0  0  0  0  0  0  0
   23.4745  -21.2437  -10.4462 C   0  0  0  0  0  0  0  0  0  0  0  0
   22.5436  -21.3804   -9.5117 N   0  0  0  0  0  0  0  0  0  0  0  0
   21.7226  -20.3369   -9.6454 C   0  0  0  0  0  0  0  0  0  0  0  0
   22.1198  -19.5507  -10.6430 N   0  0  0  0  0  0  0  0  0  0  0  0
   22.1312  -19.8958  -13.7686 C   0  0  0  0  0  0  0  0  0  0  0  0
   21.8707  -18.8528  -14.4283 O   0  0  0  0  0  0  0  0  0  0  0  0
   21.0664  -20.6522  -13.2552 N   0  0  0  0  0  0  0  0  0  0  0  0
   19.7060  -20.2230  -13.5412 C   0  0  1  0  0  0  0  0  0  0  0  0
   19.4418  -20.3153  -15.0405 C   0  0  0  0  0  0  0  0  0  0  0  0
   18.0371  -19.9270  -15.2783 C   0  0  0  0  0  0  0  0  0  0  0  0
   17.4960  -19.0901  -14.5171 O   0  0  0  0  0  0  0  0  0  0  0  0
   18.7835  -21.0442  -12.7502 C   0  0  0  0  0  0  0  0  0  0  0  0
   18.8768  -22.2941  -12.6868 O   0  0  0  0  0  0  0  0  0  0  0  0
   17.3120  -20.4606  -16.3117 O   0  0  0  0  0  0  0  0  0  0  0  0
   17.7630  -20.4606  -12.0338 O   0  0  0  0  0  0  0  0  0  0  0  0
  2  1  1  6
  2  3  1  0
  3  4  1  0
  4  5  2  0
  6  2  1  0
  7  6  2  0
  8  4  1  0
  9  6  1  0
 10  9  1  0
 11 12  1  0
 10 11  1  1
 12 13  2  0
 13 14  1  0
 15 14  1  0
 16 12  1  0
 16 15  2  0
 17 10  1  0
 17 18  2  0
 19 17  1  0
 20 21  1  6
 20 19  1  0
 22 21  1  0
 22 26  1  0
 23 22  2  0
 24 20  1  0
 25 24  2  0
 27 24  1  0
M  END
$$$$
