DHD.pdb
     RDKit          3D

 27 27  0  0  1  0  0  0  0  0999 V2000
   45.7186  -11.3961   -6.6861 N   0  0  0  0  0  0  0  0  0  0  0  0
   44.8439  -10.6904   -5.7876 C   0  0  1  0  0  0  0  0  0  0  0  0
   45.5544   -9.6264   -5.0000 C   0  0  0  0  0  0  0  0  0  0  0  0
   46.5811  -10.2505   -4.1259 C   0  0  0  0  0  0  0  0  0  0  0  0
   46.6039  -11.4991   -3.9864 O   0  0  0  0  0  0  0  0  0  0  0  0
   43.6529  -10.2339   -6.4889 C   0  0  0  0  0  0  0  0  0  0  0  0
   43.7778   -9.7910   -7.6603 O   0  0  0  0  0  0  0  0  0  0  0  0
   47.5330   -9.5126   -3.4436 O   0  0  0  0  0  0  0  0  0  0  0  0
   42.3345  -10.2394   -5.9696 N   0  0  0  0  0  0  0  0  0  0  0  0
   41.1894   -9.6650   -6.6253 C   0  0  1  0  0  0  0  0  0  0  0  0
   39.8910  -10.2764   -6.1417 C   0  0  0  0  0  0  0  0  0  0  0  0
   38.7655   -9.5986   -6.8742 C   0  0  0  0  0  0  0  0  0  0  0  0
   38.4056   -9.7387   -8.1921 C   0  0  0  0  0  0  0  0  0  0  0  0
   37.3579   -8.9683   -8.4519 N   0  0  0  0  0  0  0  0  0  0  0  0
   37.0577   -8.3468   -7.3099 C   0  0  0  0  0  0  0  0  0  0  0  0
   37.8946   -8.7115   -6.3417 N   0  0  0  0  0  0  0  0  0  0  0  0
   41.1004   -8.2080   -6.3754 C   0  0  0  0  0  0  0  0  0  0  0  0
   41.3097   -7.8035   -5.1991 O   0  0  0  0  0  0  0  0  0  0  0  0
   40.8015   -7.2638   -7.3697 N   0  0  0  0  0  0  0  0  0  0  0  0
   40.7316   -5.8591   -6.9975 C   0  0  1  0  0  0  0  0  0  0  0  0
   42.0473   -5.1692   -7.3426 C   0  0  0  0  0  0  0  0  0  0  0  0
   41.9510   -3.7629   -6.9027 C   0  0  0  0  0  0  0  0  0  0  0  0
   41.2242   -3.4765   -5.9217 O   0  0  0  0  0  0  0  0  0  0  0  0
   39.5789   -5.2556   -7.6744 C   0  0  0  0  0  0  0  0  0  0  0  0
   39.1147   -5.7070   -8.7495 O   0  0  0  0  0  0  0  0  0  0  0  0
   42.6379   -2.7641   -7.5424 O   0  0  0  0  0  0  0  0  0  0  0  0
   38.9523   -4.1512   -7.1427 O   0  0  0  0  0  0  0  0  0  0  0  0
  2  1  1  6
  2  3  1  0
  3  4  1  0
  4  5  2  0
  6  2  1  0
  7  6  2  0
  8  4  1  0
  9  6  1  0
 10  9  1  0
 11 12  1  0
 10 11  1  1
 12 13  2  0
 13 14  1  0
 15 14  1  0
 16 12  1  0
 16 15  2  0
 17 10  1  0
 17 18  2  0
 19 17  1  0
 20 21  1  6
 20 19  1  0
 22 21  1  0
 22 26  1  0
 23 22  2  0
 24 20  1  0
 25 24  2  0
 27 24  1  0
M  END
$$$$
