DHD.pdb
     RDKit          3D

 27 27  0  0  1  0  0  0  0  0999 V2000
   15.8112  -10.6540   -9.8429 N   0  0  0  0  0  0  0  0  0  0  0  0
   15.3312   -9.9345  -10.9929 C   0  0  1  0  0  0  0  0  0  0  0  0
   13.9093  -10.2736  -11.3395 C   0  0  0  0  0  0  0  0  0  0  0  0
   13.7081  -11.7432  -11.2514 C   0  0  0  0  0  0  0  0  0  0  0  0
   14.6801  -12.4885  -10.9706 O   0  0  0  0  0  0  0  0  0  0  0  0
   15.5992   -8.5108  -10.8519 C   0  0  0  0  0  0  0  0  0  0  0  0
   15.2562   -7.7392  -11.7851 O   0  0  0  0  0  0  0  0  0  0  0  0
   12.4806  -12.3457  -11.4669 O   0  0  0  0  0  0  0  0  0  0  0  0
   16.2237   -7.8931   -9.7400 N   0  0  0  0  0  0  0  0  0  0  0  0
   16.4650   -6.4802   -9.6116 C   0  0  1  0  0  0  0  0  0  0  0  0
   16.2611   -5.9949   -8.1916 C   0  0  0  0  0  0  0  0  0  0  0  0
   14.7813   -5.8442   -7.9677 C   0  0  0  0  0  0  0  0  0  0  0  0
   13.7670   -5.9798   -8.8835 C   0  0  0  0  0  0  0  0  0  0  0  0
   12.6001   -5.7676   -8.2903 N   0  0  0  0  0  0  0  0  0  0  0  0
   12.8730   -5.5004   -7.0117 C   0  0  0  0  0  0  0  0  0  0  0  0
   14.1850   -5.5408   -6.7924 N   0  0  0  0  0  0  0  0  0  0  0  0
   17.8542   -6.1345   -9.9911 C   0  0  0  0  0  0  0  0  0  0  0  0
   18.7829   -6.5429   -9.2416 O   0  0  0  0  0  0  0  0  0  0  0  0
   18.1873   -5.3867  -11.1310 N   0  0  0  0  0  0  0  0  0  0  0  0
   19.5619   -5.4177  -11.6068 C   0  0  1  0  0  0  0  0  0  0  0  0
   19.9920   -6.8618  -11.8433 C   0  0  0  0  0  0  0  0  0  0  0  0
   21.3600   -6.8423  -12.3988 C   0  0  0  0  0  0  0  0  0  0  0  0
   22.1118   -5.8723  -12.1410 O   0  0  0  0  0  0  0  0  0  0  0  0
   19.6541   -4.5922  -12.8155 C   0  0  0  0  0  0  0  0  0  0  0  0
   20.7409   -4.1215  -13.2305 O   0  0  0  0  0  0  0  0  0  0  0  0
   21.8261   -7.8603  -13.1894 O   0  0  0  0  0  0  0  0  0  0  0  0
   18.5289   -4.2999  -13.5528 O   0  0  0  0  0  0  0  0  0  0  0  0
  2  1  1  1
  2  3  1  0
  3  4  1  0
  4  5  2  0
  6  2  1  0
  7  6  2  0
  8  4  1  0
  9  6  1  0
 10  9  1  0
 11 12  1  0
 10 11  1  1
 12 13  2  0
 13 14  1  0
 15 14  1  0
 16 12  1  0
 16 15  2  0
 17 10  1  0
 17 18  2  0
 19 17  1  0
 20 21  1  6
 20 19  1  0
 22 21  1  0
 22 26  1  0
 23 22  2  0
 24 20  1  0
 25 24  2  0
 27 24  1  0
M  END
$$$$
