HKE.pdb
     RDKit          3D

 29 29  0  0  1  0  0  0  0  0999 V2000
    5.5349  -14.9664   20.7557 N   0  0  0  0  0  0  0  0  0  0  0  0
    6.7923  -15.5327   21.1871 C   0  0  1  0  0  0  0  0  0  0  0  0
    7.8196  -14.4054   21.2588 C   0  0  0  0  0  0  0  0  0  0  0  0
    8.1405  -13.9654   19.8778 C   0  0  0  0  0  0  0  0  0  0  0  0
    7.5822  -14.4984   18.7186 C   0  0  0  0  0  0  0  0  0  0  0  0
    8.1026  -13.8631   17.6623 N   0  0  0  0  0  0  0  0  0  0  0  0
    8.9768  -12.9398   18.1091 C   0  0  0  0  0  0  0  0  0  0  0  0
    8.9884  -13.0155   19.4717 N   0  0  0  0  0  0  0  0  0  0  0  0
    6.6825  -16.1402   22.5417 C   0  0  0  0  0  0  0  0  0  0  0  0
    6.1719  -15.4830   23.4824 O   0  0  0  0  0  0  0  0  0  0  0  0
    7.1647  -17.4604   22.7296 N   0  0  0  0  0  0  0  0  0  0  0  0
    7.0278  -18.0839   24.0130 C   0  0  1  0  0  0  0  0  0  0  0  0
    6.7555  -19.5440   24.0166 C   0  0  0  0  0  0  0  0  0  0  0  0
    5.4834  -20.0206   23.4392 C   0  0  0  0  0  0  0  0  0  0  0  0
    5.3481  -21.5117   23.3588 C   0  0  0  0  0  0  0  0  0  0  0  0
    3.9944  -21.7599   22.6608 C   0  0  0  0  0  0  0  0  0  0  0  0
    4.2555  -21.7989   21.2377 N   0  0  0  0  0  0  0  0  0  0  0  0
    8.3594  -17.8471   24.7084 C   0  0  0  0  0  0  0  0  0  0  0  0
    9.4451  -17.8945   24.0960 O   0  0  0  0  0  0  0  0  0  0  0  0
    8.3420  -17.5657   26.0933 N   0  0  0  0  0  0  0  0  0  0  0  0
    9.6174  -17.2331   26.8094 C   0  0  1  0  0  0  0  0  0  0  0  0
    9.2486  -16.1349   27.7239 C   0  0  0  0  0  0  0  0  0  0  0  0
   10.2950  -15.7096   28.6704 C   0  0  0  0  0  0  0  0  0  0  0  0
    9.9163  -14.6587   29.6065 C   0  0  0  0  0  0  0  0  0  0  0  0
    8.7362  -14.2085   29.6080 O   0  0  0  0  0  0  0  0  0  0  0  0
   10.2347  -18.4389   27.3053 C   0  0  0  0  0  0  0  0  0  0  0  0
   11.6264  -18.5290   27.5172 O   0  0  0  0  0  0  0  0  0  0  0  0
   10.8596  -14.1501   30.5088 O   0  0  0  0  0  0  0  0  0  0  0  0
    9.5906  -19.4681   27.5765 O   0  0  0  0  0  0  0  0  0  0  0  0
  2  1  1  1
  2  3  1  0
  3  4  1  0
  4  8  1  0
  5  4  2  0
  5  6  1  0
  6  7  1  0
  8  7  2  0
  9 10  2  0
  9  2  1  0
 11  9  1  0
 12 13  1  6
 12 11  1  0
 13 14  1  0
 14 15  1  0
 15 16  1  0
 16 17  1  0
 18 12  1  0
 19 18  2  0
 20 18  1  0
 21 20  1  0
 21 22  1  1
 23 24  1  0
 23 22  1  0
 24 25  2  0
 26 27  1  0
 26 21  1  0
 28 24  1  0
 29 26  2  0
M  END
$$$$
