HKE.pdb
     RDKit          3D

 29 29  0  0  1  0  0  0  0  0999 V2000
    9.4004  -17.5725   16.7255 N   0  0  0  0  0  0  0  0  0  0  0  0
   10.4605  -18.1500   17.5195 C   0  0  1  0  0  0  0  0  0  0  0  0
   11.7881  -17.5865   17.0184 C   0  0  0  0  0  0  0  0  0  0  0  0
   12.0701  -18.1548   15.6762 C   0  0  0  0  0  0  0  0  0  0  0  0
   13.1182  -19.0224   15.3793 C   0  0  0  0  0  0  0  0  0  0  0  0
   13.0652  -19.3270   14.0775 N   0  0  0  0  0  0  0  0  0  0  0  0
   12.0156  -18.6813   13.5317 C   0  0  0  0  0  0  0  0  0  0  0  0
   11.4151  -17.9659   14.5267 N   0  0  0  0  0  0  0  0  0  0  0  0
   10.3238  -17.7918   18.9580 C   0  0  0  0  0  0  0  0  0  0  0  0
   10.1282  -16.5961   19.2889 O   0  0  0  0  0  0  0  0  0  0  0  0
   10.4202  -18.8268   19.9225 N   0  0  0  0  0  0  0  0  0  0  0  0
   10.1902  -18.5245   21.3047 C   0  0  1  0  0  0  0  0  0  0  0  0
    9.0923  -19.2682   21.9736 C   0  0  0  0  0  0  0  0  0  0  0  0
    7.9926  -19.7927   21.1404 C   0  0  0  0  0  0  0  0  0  0  0  0
    7.0269  -20.6848   21.8614 C   0  0  0  0  0  0  0  0  0  0  0  0
    6.0584  -21.1977   20.7749 C   0  0  0  0  0  0  0  0  0  0  0  0
    5.1448  -22.1136   21.4238 N   0  0  0  0  0  0  0  0  0  0  0  0
   11.4949  -18.8721   22.0047 C   0  0  0  0  0  0  0  0  0  0  0  0
   12.4110  -19.4935   21.4297 O   0  0  0  0  0  0  0  0  0  0  0  0
   11.6524  -18.4676   23.3497 N   0  0  0  0  0  0  0  0  0  0  0  0
   12.9737  -17.9420   23.8273 C   0  0  1  0  0  0  0  0  0  0  0  0
   13.4095  -17.0210   22.7595 C   0  0  0  0  0  0  0  0  0  0  0  0
   14.7941  -17.1965   22.2867 C   0  0  0  0  0  0  0  0  0  0  0  0
   15.4493  -15.9975   21.7792 C   0  0  0  0  0  0  0  0  0  0  0  0
   15.4039  -14.9235   22.4424 O   0  0  0  0  0  0  0  0  0  0  0  0
   12.8632  -17.4966   25.1950 C   0  0  0  0  0  0  0  0  0  0  0  0
   11.6173  -17.1797   25.7756 O   0  0  0  0  0  0  0  0  0  0  0  0
   16.1340  -16.0364   20.5576 O   0  0  0  0  0  0  0  0  0  0  0  0
   13.8460  -17.3635   25.9460 O   0  0  0  0  0  0  0  0  0  0  0  0
  2  1  1  6
  2  3  1  0
  3  4  1  0
  4  8  1  0
  5  4  2  0
  5  6  1  0
  6  7  1  0
  8  7  2  0
  9 10  2  0
  9  2  1  0
 11  9  1  0
 12 13  1  1
 12 11  1  0
 13 14  1  0
 14 15  1  0
 15 16  1  0
 16 17  1  0
 18 12  1  0
 19 18  2  0
 20 18  1  0
 21 20  1  0
 21 22  1  6
 23 24  1  0
 23 22  1  0
 24 25  2  0
 26 27  1  0
 26 21  1  0
 28 24  1  0
 29 26  2  0
M  END
$$$$
