HKE.pdb
     RDKit          3D

 29 29  0  0  1  0  0  0  0  0999 V2000
    7.4285  -17.7897   20.2294 N   0  0  0  0  0  0  0  0  0  0  0  0
    8.6237  -17.0259   19.9536 C   0  0  1  0  0  0  0  0  0  0  0  0
    8.6104  -15.7871   20.8460 C   0  0  0  0  0  0  0  0  0  0  0  0
    8.1105  -14.6353   20.0539 C   0  0  0  0  0  0  0  0  0  0  0  0
    7.7867  -14.6762   18.7001 C   0  0  0  0  0  0  0  0  0  0  0  0
    7.3733  -13.4610   18.3226 N   0  0  0  0  0  0  0  0  0  0  0  0
    7.4222  -12.6433   19.3927 C   0  0  0  0  0  0  0  0  0  0  0  0
    7.8769  -13.3798   20.4478 N   0  0  0  0  0  0  0  0  0  0  0  0
    9.8541  -17.8035   20.2665 C   0  0  0  0  0  0  0  0  0  0  0  0
    9.8840  -18.5461   21.2790 O   0  0  0  0  0  0  0  0  0  0  0  0
   10.9688  -17.6793   19.3989 N   0  0  0  0  0  0  0  0  0  0  0  0
   12.1401  -18.4696   19.6403 C   0  0  1  0  0  0  0  0  0  0  0  0
   13.0666  -18.6516   18.4938 C   0  0  0  0  0  0  0  0  0  0  0  0
   14.2585  -19.5011   18.6846 C   0  0  0  0  0  0  0  0  0  0  0  0
   15.1579  -19.6015   17.4892 C   0  0  0  0  0  0  0  0  0  0  0  0
   16.3096  -20.5321   17.9240 C   0  0  0  0  0  0  0  0  0  0  0  0
   17.2305  -20.6108   16.8102 N   0  0  0  0  0  0  0  0  0  0  0  0
   12.8875  -17.7367   20.7435 C   0  0  0  0  0  0  0  0  0  0  0  0
   12.9437  -16.4915   20.7925 O   0  0  0  0  0  0  0  0  0  0  0  0
   13.5313  -18.5117   21.7345 N   0  0  0  0  0  0  0  0  0  0  0  0
   14.2070  -17.8404   22.8934 C   0  0  1  0  0  0  0  0  0  0  0  0
   13.8288  -18.6585   24.0622 C   0  0  0  0  0  0  0  0  0  0  0  0
   14.4989  -18.3153   25.3291 C   0  0  0  0  0  0  0  0  0  0  0  0
   14.1962  -19.1800   26.4627 C   0  0  0  0  0  0  0  0  0  0  0  0
   13.2739  -20.0384   26.3745 O   0  0  0  0  0  0  0  0  0  0  0  0
   15.5919  -17.5872   22.5790 C   0  0  0  0  0  0  0  0  0  0  0  0
   16.3003  -16.5113   23.1539 O   0  0  0  0  0  0  0  0  0  0  0  0
   14.9311  -19.0629   27.6497 O   0  0  0  0  0  0  0  0  0  0  0  0
   16.2476  -18.2908   21.7900 O   0  0  0  0  0  0  0  0  0  0  0  0
  2  1  1  1
  2  3  1  0
  3  4  1  0
  4  8  1  0
  5  4  2  0
  5  6  1  0
  6  7  1  0
  8  7  2  0
  9 10  2  0
  9  2  1  0
 11  9  1  0
 12 13  1  6
 12 11  1  0
 13 14  1  0
 14 15  1  0
 15 16  1  0
 16 17  1  0
 18 12  1  0
 19 18  2  0
 20 18  1  0
 21 20  1  0
 21 22  1  1
 23 24  1  0
 23 22  1  0
 24 25  2  0
 26 27  1  0
 26 21  1  0
 28 24  1  0
 29 26  2  0
M  END
$$$$
