HKE.pdb
     RDKit          3D

 29 29  0  0  1  0  0  0  0  0999 V2000
    8.5749  -17.8004   18.8036 N   0  0  0  0  0  0  0  0  0  0  0  0
    9.9306  -17.3690   19.0562 C   0  0  1  0  0  0  0  0  0  0  0  0
   10.4707  -16.7321   17.7779 C   0  0  0  0  0  0  0  0  0  0  0  0
   10.4069  -17.7332   16.6837 C   0  0  0  0  0  0  0  0  0  0  0  0
   11.1569  -18.9053   16.6274 C   0  0  0  0  0  0  0  0  0  0  0  0
   10.8421  -19.5607   15.5042 N   0  0  0  0  0  0  0  0  0  0  0  0
    9.9138  -18.8447   14.8395 C   0  0  0  0  0  0  0  0  0  0  0  0
    9.6575  -17.7254   15.5771 N   0  0  0  0  0  0  0  0  0  0  0  0
    9.9869  -16.3470   20.1372 C   0  0  0  0  0  0  0  0  0  0  0  0
   11.0210  -15.6497   20.2854 O   0  0  0  0  0  0  0  0  0  0  0  0
    8.8550  -16.1911   20.9770 N   0  0  0  0  0  0  0  0  0  0  0  0
    9.0197  -15.6202   22.2815 C   0  0  1  0  0  0  0  0  0  0  0  0
    7.8156  -15.0022   22.8931 C   0  0  0  0  0  0  0  0  0  0  0  0
    7.9540  -14.3551   24.2125 C   0  0  0  0  0  0  0  0  0  0  0  0
    6.7024  -13.7152   24.7343 C   0  0  0  0  0  0  0  0  0  0  0  0
    7.1235  -12.9999   26.0353 C   0  0  0  0  0  0  0  0  0  0  0  0
    5.9501  -12.3196   26.5403 N   0  0  0  0  0  0  0  0  0  0  0  0
    9.4597  -16.7781   23.1639 C   0  0  0  0  0  0  0  0  0  0  0  0
    9.5852  -17.9380   22.7224 O   0  0  0  0  0  0  0  0  0  0  0  0
    9.7298  -16.5077   24.5245 N   0  0  0  0  0  0  0  0  0  0  0  0
   10.9285  -17.1174   25.1890 C   0  0  1  0  0  0  0  0  0  0  0  0
   12.0469  -16.8181   24.2736 C   0  0  0  0  0  0  0  0  0  0  0  0
   13.3633  -17.3446   24.6756 C   0  0  0  0  0  0  0  0  0  0  0  0
   14.4873  -16.9569   23.8326 C   0  0  0  0  0  0  0  0  0  0  0  0
   14.9124  -15.7677   23.8532 O   0  0  0  0  0  0  0  0  0  0  0  0
   10.9773  -16.7254   26.5765 C   0  0  0  0  0  0  0  0  0  0  0  0
   11.6330  -17.5099   27.5483 O   0  0  0  0  0  0  0  0  0  0  0  0
   15.1003  -17.9041   23.0022 O   0  0  0  0  0  0  0  0  0  0  0  0
   10.4514  -15.6826   27.0052 O   0  0  0  0  0  0  0  0  0  0  0  0
  2  1  1  6
  2  3  1  0
  3  4  1  0
  4  8  1  0
  5  4  2  0
  5  6  1  0
  6  7  1  0
  8  7  2  0
  9 10  2  0
  9  2  1  0
 11  9  1  0
 12 13  1  1
 12 11  1  0
 13 14  1  0
 14 15  1  0
 15 16  1  0
 16 17  1  0
 18 12  1  0
 19 18  2  0
 20 18  1  0
 21 20  1  0
 21 22  1  6
 23 24  1  0
 23 22  1  0
 24 25  2  0
 26 27  1  0
 26 21  1  0
 28 24  1  0
 29 26  2  0
M  END
$$$$
