HKE.pdb
     RDKit          3D

 29 29  0  0  1  0  0  0  0  0999 V2000
   13.0241  -17.1458   16.4474 N   0  0  0  0  0  0  0  0  0  0  0  0
   11.8576  -17.5474   17.1997 C   0  0  1  0  0  0  0  0  0  0  0  0
   11.9802  -19.0387   17.5031 C   0  0  0  0  0  0  0  0  0  0  0  0
   11.5614  -19.8047   16.3023 C   0  0  0  0  0  0  0  0  0  0  0  0
   12.4272  -20.3244   15.3432 C   0  0  0  0  0  0  0  0  0  0  0  0
   11.7032  -20.9504   14.4083 N   0  0  0  0  0  0  0  0  0  0  0  0
   10.4007  -20.8477   14.7389 C   0  0  0  0  0  0  0  0  0  0  0  0
   10.3307  -20.1413   15.9045 N   0  0  0  0  0  0  0  0  0  0  0  0
   11.7663  -16.8214   18.4962 C   0  0  0  0  0  0  0  0  0  0  0  0
   12.8077  -16.5946   19.1607 O   0  0  0  0  0  0  0  0  0  0  0  0
   10.4882  -16.4031   18.9460 N   0  0  0  0  0  0  0  0  0  0  0  0
   10.3886  -15.5751   20.1118 C   0  0  1  0  0  0  0  0  0  0  0  0
    9.0879  -14.8931   20.3331 C   0  0  0  0  0  0  0  0  0  0  0  0
    8.5866  -13.9838   19.2840 C   0  0  0  0  0  0  0  0  0  0  0  0
    7.2005  -13.4605   19.5143 C   0  0  0  0  0  0  0  0  0  0  0  0
    6.9195  -12.5171   18.3257 C   0  0  0  0  0  0  0  0  0  0  0  0
    5.5652  -12.0318   18.4845 N   0  0  0  0  0  0  0  0  0  0  0  0
   10.6382  -16.5136   21.2823 C   0  0  0  0  0  0  0  0  0  0  0  0
   10.1013  -17.6370   21.3577 O   0  0  0  0  0  0  0  0  0  0  0  0
   11.5103  -16.0780   22.3055 N   0  0  0  0  0  0  0  0  0  0  0  0
   11.7901  -16.9640   23.4832 C   0  0  1  0  0  0  0  0  0  0  0  0
   13.2630  -17.0271   23.5526 C   0  0  0  0  0  0  0  0  0  0  0  0
   13.8193  -17.8193   24.6638 C   0  0  0  0  0  0  0  0  0  0  0  0
   15.2738  -17.8817   24.7340 C   0  0  0  0  0  0  0  0  0  0  0  0
   15.9416  -16.8331   24.9571 O   0  0  0  0  0  0  0  0  0  0  0  0
   11.0091  -16.5379   24.6188 C   0  0  0  0  0  0  0  0  0  0  0  0
   10.8946  -17.3286   25.7813 O   0  0  0  0  0  0  0  0  0  0  0  0
   15.9323  -19.1058   24.5588 O   0  0  0  0  0  0  0  0  0  0  0  0
   10.3914  -15.4585   24.6501 O   0  0  0  0  0  0  0  0  0  0  0  0
  2  1  1  1
  2  3  1  0
  3  4  1  0
  4  8  1  0
  5  4  2  0
  5  6  1  0
  6  7  1  0
  8  7  2  0
  9 10  2  0
  9  2  1  0
 11  9  1  0
 12 13  1  1
 12 11  1  0
 13 14  1  0
 14 15  1  0
 15 16  1  0
 16 17  1  0
 18 12  1  0
 19 18  2  0
 20 18  1  0
 21 20  1  0
 21 22  1  1
 23 24  1  0
 23 22  1  0
 24 25  2  0
 26 27  1  0
 26 21  1  0
 28 24  1  0
 29 26  2  0
M  END
$$$$
