HKE.pdb
     RDKit          3D

 29 29  0  0  1  0  0  0  0  0999 V2000
   11.1569  -14.3200   19.3248 N   0  0  0  0  0  0  0  0  0  0  0  0
    9.7999  -14.2049   19.8076 C   0  0  1  0  0  0  0  0  0  0  0  0
    8.9745  -15.3203   19.1705 C   0  0  0  0  0  0  0  0  0  0  0  0
    8.7384  -14.9825   17.7444 C   0  0  0  0  0  0  0  0  0  0  0  0
    8.3460  -13.7322   17.2731 C   0  0  0  0  0  0  0  0  0  0  0  0
    8.2291  -13.7946   15.9417 N   0  0  0  0  0  0  0  0  0  0  0  0
    8.5344  -15.0461   15.5458 C   0  0  0  0  0  0  0  0  0  0  0  0
    8.8449  -15.7631   16.6648 N   0  0  0  0  0  0  0  0  0  0  0  0
    9.7294  -14.3688   21.2856 C   0  0  0  0  0  0  0  0  0  0  0  0
   10.6970  -14.8756   21.9055 O   0  0  0  0  0  0  0  0  0  0  0  0
    8.5552  -13.9413   21.9559 N   0  0  0  0  0  0  0  0  0  0  0  0
    8.5603  -13.8339   23.3853 C   0  0  1  0  0  0  0  0  0  0  0  0
    7.4101  -13.1251   24.0023 C   0  0  0  0  0  0  0  0  0  0  0  0
    7.3851  -12.9765   25.4707 C   0  0  0  0  0  0  0  0  0  0  0  0
    6.2132  -12.2096   26.0059 C   0  0  0  0  0  0  0  0  0  0  0  0
    6.4347  -12.1413   27.5317 C   0  0  0  0  0  0  0  0  0  0  0  0
    5.2613  -11.5125   28.0996 N   0  0  0  0  0  0  0  0  0  0  0  0
    8.5581  -15.2697   23.8867 C   0  0  0  0  0  0  0  0  0  0  0  0
    7.7575  -16.1223   23.4531 O   0  0  0  0  0  0  0  0  0  0  0  0
    9.5025  -15.6268   24.8755 N   0  0  0  0  0  0  0  0  0  0  0  0
    9.6197  -17.0536   25.3235 C   0  0  1  0  0  0  0  0  0  0  0  0
   10.8809  -17.5251   24.7191 C   0  0  0  0  0  0  0  0  0  0  0  0
   11.2971  -18.8903   25.0864 C   0  0  0  0  0  0  0  0  0  0  0  0
   12.5591  -19.3450   24.5164 C   0  0  0  0  0  0  0  0  0  0  0  0
   12.9658  -18.8681   23.4198 O   0  0  0  0  0  0  0  0  0  0  0  0
    9.3962  -17.1451   26.7457 C   0  0  0  0  0  0  0  0  0  0  0  0
    9.4728  -16.0137   27.5848 O   0  0  0  0  0  0  0  0  0  0  0  0
   13.3246  -20.3081   25.1866 O   0  0  0  0  0  0  0  0  0  0  0  0
    9.1241  -18.2135   27.3218 O   0  0  0  0  0  0  0  0  0  0  0  0
  2  1  1  6
  2  3  1  0
  3  4  1  0
  4  8  1  0
  5  4  2  0
  5  6  1  0
  6  7  1  0
  8  7  2  0
  9 10  2  0
  9  2  1  0
 11  9  1  0
 12 13  1  1
 12 11  1  0
 13 14  1  0
 14 15  1  0
 15 16  1  0
 16 17  1  0
 18 12  1  0
 19 18  2  0
 20 18  1  0
 21 20  1  0
 21 22  1  1
 23 24  1  0
 23 22  1  0
 24 25  2  0
 26 27  1  0
 26 21  1  0
 28 24  1  0
 29 26  2  0
M  END
$$$$
