HKE.pdb
     RDKit          3D

 29 29  0  0  1  0  0  0  0  0999 V2000
    7.4004  -18.0251   19.3009 N   0  0  0  0  0  0  0  0  0  0  0  0
    8.7839  -17.6107   19.2546 C   0  0  1  0  0  0  0  0  0  0  0  0
    8.8966  -16.4454   18.2745 C   0  0  0  0  0  0  0  0  0  0  0  0
    8.5401  -16.9292   16.9170 C   0  0  0  0  0  0  0  0  0  0  0  0
    8.7860  -18.2126   16.4352 C   0  0  0  0  0  0  0  0  0  0  0  0
    8.3333  -18.2914   15.1787 N   0  0  0  0  0  0  0  0  0  0  0  0
    7.8051  -17.0985   14.8408 C   0  0  0  0  0  0  0  0  0  0  0  0
    7.9400  -16.2731   15.9192 N   0  0  0  0  0  0  0  0  0  0  0  0
    9.2584  -17.1391   20.5845 C   0  0  0  0  0  0  0  0  0  0  0  0
    9.2931  -15.9090   20.8360 O   0  0  0  0  0  0  0  0  0  0  0  0
    9.6616  -18.1075   21.5387 N   0  0  0  0  0  0  0  0  0  0  0  0
   10.2195  -17.6763   22.7866 C   0  0  1  0  0  0  0  0  0  0  0  0
    9.7615  -18.3953   24.0029 C   0  0  0  0  0  0  0  0  0  0  0  0
   10.4708  -18.1453   25.2730 C   0  0  0  0  0  0  0  0  0  0  0  0
   10.1076  -19.0764   26.3907 C   0  0  0  0  0  0  0  0  0  0  0  0
   10.9985  -18.6535   27.5777 C   0  0  0  0  0  0  0  0  0  0  0  0
   10.6080  -19.4684   28.7083 N   0  0  0  0  0  0  0  0  0  0  0  0
   11.7179  -17.8931   22.6425 C   0  0  0  0  0  0  0  0  0  0  0  0
   12.2070  -19.0197   22.4247 O   0  0  0  0  0  0  0  0  0  0  0  0
   12.5640  -16.7675   22.7624 N   0  0  0  0  0  0  0  0  0  0  0  0
   14.0491  -16.9242   22.6207 C   0  0  1  0  0  0  0  0  0  0  0  0
   14.4285  -15.9206   21.6073 C   0  0  0  0  0  0  0  0  0  0  0  0
   15.8743  -15.7664   21.3672 C   0  0  0  0  0  0  0  0  0  0  0  0
   16.2540  -14.7246   20.4213 C   0  0  0  0  0  0  0  0  0  0  0  0
   15.3833  -13.9226   19.9810 O   0  0  0  0  0  0  0  0  0  0  0  0
   14.6709  -16.9394   23.9223 C   0  0  0  0  0  0  0  0  0  0  0  0
   14.0115  -16.4455   25.0673 O   0  0  0  0  0  0  0  0  0  0  0  0
   17.5861  -14.6089   20.0031 O   0  0  0  0  0  0  0  0  0  0  0  0
   15.8159  -17.3832   24.1214 O   0  0  0  0  0  0  0  0  0  0  0  0
  2  1  1  1
  2  3  1  0
  3  4  1  0
  4  8  1  0
  5  4  2  0
  5  6  1  0
  6  7  1  0
  8  7  2  0
  9 10  2  0
  9  2  1  0
 11  9  1  0
 12 13  1  1
 12 11  1  0
 13 14  1  0
 14 15  1  0
 15 16  1  0
 16 17  1  0
 18 12  1  0
 19 18  2  0
 20 18  1  0
 21 20  1  0
 21 22  1  6
 23 24  1  0
 23 22  1  0
 24 25  2  0
 26 27  1  0
 26 21  1  0
 28 24  1  0
 29 26  2  0
M  END
$$$$
