HKE.pdb
     RDKit          3D

 29 29  0  0  1  0  0  0  0  0999 V2000
    8.9420  -18.4496   16.5424 N   0  0  0  0  0  0  0  0  0  0  0  0
   10.0907  -19.1378   17.0853 C   0  0  1  0  0  0  0  0  0  0  0  0
   11.3414  -18.3562   16.6900 C   0  0  0  0  0  0  0  0  0  0  0  0
   11.5385  -18.4832   15.2241 C   0  0  0  0  0  0  0  0  0  0  0  0
   11.3657  -17.4540   14.3019 C   0  0  0  0  0  0  0  0  0  0  0  0
   11.6279  -17.9280   13.0785 N   0  0  0  0  0  0  0  0  0  0  0  0
   11.9632  -19.2287   13.1886 C   0  0  0  0  0  0  0  0  0  0  0  0
   11.9034  -19.5541   14.5127 N   0  0  0  0  0  0  0  0  0  0  0  0
   10.0392  -19.1998   18.5718 C   0  0  0  0  0  0  0  0  0  0  0  0
    9.7937  -18.1605   19.2329 O   0  0  0  0  0  0  0  0  0  0  0  0
   10.2720  -20.4481   19.2029 N   0  0  0  0  0  0  0  0  0  0  0  0
   10.2317  -20.5319   20.6333 C   0  0  1  0  0  0  0  0  0  0  0  0
    9.3072  -21.5389   21.2140 C   0  0  0  0  0  0  0  0  0  0  0  0
    9.3774  -21.7996   22.6652 C   0  0  0  0  0  0  0  0  0  0  0  0
    8.5140  -22.9277   23.1446 C   0  0  0  0  0  0  0  0  0  0  0  0
    8.7974  -23.0420   24.6573 C   0  0  0  0  0  0  0  0  0  0  0  0
    8.0645  -24.1942   25.1370 N   0  0  0  0  0  0  0  0  0  0  0  0
   11.6499  -20.8957   21.0452 C   0  0  0  0  0  0  0  0  0  0  0  0
   12.2557  -21.8672   20.5502 O   0  0  0  0  0  0  0  0  0  0  0  0
   12.2819  -20.0928   22.0215 N   0  0  0  0  0  0  0  0  0  0  0  0
   13.6676  -20.4274   22.4885 C   0  0  1  0  0  0  0  0  0  0  0  0
   14.4799  -19.2610   22.0914 C   0  0  0  0  0  0  0  0  0  0  0  0
   15.9065  -19.3185   22.4567 C   0  0  0  0  0  0  0  0  0  0  0  0
   16.7317  -18.2196   21.9712 C   0  0  0  0  0  0  0  0  0  0  0  0
   17.1124  -18.1989   20.7671 O   0  0  0  0  0  0  0  0  0  0  0  0
   13.6321  -20.8779   23.8585 C   0  0  0  0  0  0  0  0  0  0  0  0
   14.5903  -21.7778   24.3705 O   0  0  0  0  0  0  0  0  0  0  0  0
   17.0996  -17.1828   22.8386 O   0  0  0  0  0  0  0  0  0  0  0  0
   12.7658  -20.5086   24.6713 O   0  0  0  0  0  0  0  0  0  0  0  0
  2  1  1  1
  2  3  1  0
  3  4  1  0
  4  8  1  0
  5  4  2  0
  5  6  1  0
  6  7  1  0
  8  7  2  0
  9 10  2  0
  9  2  1  0
 11  9  1  0
 12 13  1  6
 12 11  1  0
 13 14  1  0
 14 15  1  0
 15 16  1  0
 16 17  1  0
 18 12  1  0
 19 18  2  0
 20 18  1  0
 21 20  1  0
 21 22  1  1
 23 24  1  0
 23 22  1  0
 24 25  2  0
 26 27  1  0
 26 21  1  0
 28 24  1  0
 29 26  2  0
M  END
$$$$
