IMP.pdb
     RDKit          3D

 24 24  0  0  1  0  0  0  0  0999 V2000
   19.8799  -17.3231  -17.5924 C   0  0  0  0  0  0  0  0  0  0  0  0
   20.1625  -18.7626  -17.2250 C   0  0  0  0  0  0  0  0  0  0  0  0
   21.5674  -18.8972  -16.7429 C   0  0  2  0  0  0  0  0  0  0  0  0
   21.9888  -20.3244  -16.5551 C   0  0  0  0  0  0  0  0  0  0  0  0
   21.8516  -18.0133  -15.5473 C   0  0  2  0  0  0  0  0  0  0  0  0
   21.8341  -16.6435  -16.1085 N   0  0  0  0  0  0  0  0  0  0  0  0
   23.1447  -18.2729  -14.8998 C   0  0  0  0  0  0  0  0  0  0  0  0
   24.2095  -17.9282  -15.5148 O   0  0  0  0  0  0  0  0  0  0  0  0
   24.3335  -21.3973   -8.8115 C   0  0  0  0  0  0  0  0  0  0  0  0
   25.1547  -19.8030   -9.0659 S   0  0  0  0  0  0  0  0  0  0  0  0
   25.6735  -19.6501  -10.8288 C   0  0  0  0  0  0  0  0  0  0  0  0
   24.4664  -19.3350  -11.5992 C   0  0  0  0  0  0  0  0  0  0  0  0
   24.7054  -19.1245  -13.0882 C   0  0  2  0  0  0  0  0  0  0  0  0
   23.3252  -18.8787  -13.6345 N   0  0  0  0  0  0  0  0  0  0  0  0
   25.2718  -20.2924  -13.7538 C   0  0  0  0  0  0  0  0  0  0  0  0
   24.4964  -21.3215  -13.8384 O   0  0  0  0  0  0  0  0  0  0  0  0
   26.5570  -20.4625  -14.3318 N   0  0  0  0  0  0  0  0  0  0  0  0
   27.5512  -19.4329  -14.2607 C   0  0  0  0  0  0  0  0  0  0  0  0
   28.8428  -20.1686  -14.5209 C   0  0  0  0  0  0  0  0  0  0  0  0
   28.4116  -21.2130  -15.5668 C   0  0  0  0  0  0  0  0  0  0  0  0
   27.0316  -21.5901  -15.0213 C   0  0  1  0  0  0  0  0  0  0  0  0
   27.1735  -22.7934  -14.1353 C   0  0  0  0  0  0  0  0  0  0  0  0
   27.1943  -22.6301  -12.8989 O   0  0  0  0  0  0  0  0  0  0  0  0
   27.2765  -24.0344  -14.6868 O   0  0  0  0  0  0  0  0  0  0  0  0
  1  2  1  0
  3  2  1  0
  3  4  1  1
  5  3  1  0
  5  6  1  6
  7  8  2  0
  7  5  1  0
 10  9  1  0
 11 12  1  0
 11 10  1  0
 13 12  1  1
 13 15  1  0
 13 14  1  0
 14  7  1  0
 15 17  1  0
 16 15  2  0
 17 21  1  0
 17 18  1  0
 19 18  1  0
 20 19  1  0
 20 21  1  0
 21 22  1  1
 22 23  2  0
 22 24  1  0
M  END
$$$$
