IMP.pdb
     RDKit          3D

 24 24  0  0  1  0  0  0  0  0999 V2000
   28.6288  -13.6867  -16.4735 C   0  0  0  0  0  0  0  0  0  0  0  0
   27.2067  -13.2939  -16.1411 C   0  0  0  0  0  0  0  0  0  0  0  0
   27.0274  -11.8258  -16.3329 C   0  0  2  0  0  0  0  0  0  0  0  0
   28.0630  -11.0100  -15.6175 C   0  0  0  0  0  0  0  0  0  0  0  0
   25.6056  -11.3808  -16.0642 C   0  0  2  0  0  0  0  0  0  0  0  0
   24.7884  -12.2778  -16.9122 N   0  0  0  0  0  0  0  0  0  0  0  0
   25.3368   -9.9791  -16.4133 C   0  0  0  0  0  0  0  0  0  0  0  0
   25.8214   -9.0653  -15.6645 O   0  0  0  0  0  0  0  0  0  0  0  0
   25.8071   -8.6351  -23.0417 C   0  0  0  0  0  0  0  0  0  0  0  0
   24.5200   -8.1226  -21.8747 S   0  0  0  0  0  0  0  0  0  0  0  0
   25.1602   -8.2580  -20.1508 C   0  0  0  0  0  0  0  0  0  0  0  0
   24.0250   -8.0084  -19.2571 C   0  0  0  0  0  0  0  0  0  0  0  0
   24.3642   -8.0698  -17.7739 C   0  0  2  0  0  0  0  0  0  0  0  0
   24.5785   -9.5377  -17.5228 N   0  0  0  0  0  0  0  0  0  0  0  0
   23.2839   -7.5999  -16.9137 C   0  0  0  0  0  0  0  0  0  0  0  0
   22.2648   -8.3864  -16.8118 O   0  0  0  0  0  0  0  0  0  0  0  0
   23.1907   -6.3995  -16.1619 N   0  0  0  0  0  0  0  0  0  0  0  0
   24.2528   -5.4377  -16.1541 C   0  0  0  0  0  0  0  0  0  0  0  0
   23.5802   -4.1703  -15.6864 C   0  0  0  0  0  0  0  0  0  0  0  0
   22.5712   -4.7054  -14.6538 C   0  0  0  0  0  0  0  0  0  0  0  0
   22.1161   -5.9868  -15.3574 C   0  0  1  0  0  0  0  0  0  0  0  0
   20.8783   -5.6892  -16.1525 C   0  0  0  0  0  0  0  0  0  0  0  0
   20.9693   -5.5936  -17.3928 O   0  0  0  0  0  0  0  0  0  0  0  0
   19.6848   -5.5292  -15.5163 O   0  0  0  0  0  0  0  0  0  0  0  0
  1  2  1  0
  3  2  1  0
  3  4  1  1
  5  3  1  0
  5  6  1  6
  7  8  2  0
  7  5  1  0
 10  9  1  0
 11 12  1  0
 11 10  1  0
 13 12  1  6
 13 15  1  0
 13 14  1  0
 14  7  1  0
 15 17  1  0
 16 15  2  0
 17 21  1  0
 17 18  1  0
 19 18  1  0
 20 19  1  0
 20 21  1  0
 21 22  1  6
 22 23  2  0
 22 24  1  0
M  END
$$$$
