IMP.pdb
     RDKit          3D

 24 24  0  0  1  0  0  0  0  0999 V2000
   20.9917  -14.0919  -19.7917 C   0  0  0  0  0  0  0  0  0  0  0  0
   20.4708  -14.4522  -18.4183 C   0  0  0  0  0  0  0  0  0  0  0  0
   19.5101  -13.4119  -17.9505 C   0  0  2  0  0  0  0  0  0  0  0  0
   20.0477  -12.0174  -18.0777 C   0  0  0  0  0  0  0  0  0  0  0  0
   18.9438  -13.7266  -16.5823 C   0  0  2  0  0  0  0  0  0  0  0  0
   18.2866  -15.0403  -16.7655 N   0  0  0  0  0  0  0  0  0  0  0  0
   17.9686  -12.7426  -16.0929 C   0  0  0  0  0  0  0  0  0  0  0  0
   16.8689  -12.6125  -16.7288 O   0  0  0  0  0  0  0  0  0  0  0  0
   14.6744   -9.4458   -9.9046 C   0  0  0  0  0  0  0  0  0  0  0  0
   15.7020  -10.6621  -10.7682 S   0  0  0  0  0  0  0  0  0  0  0  0
   15.8721  -10.1799  -12.5399 C   0  0  0  0  0  0  0  0  0  0  0  0
   16.8137  -11.1256  -13.1472 C   0  0  0  0  0  0  0  0  0  0  0  0
   17.1110  -10.8637  -14.6174 C   0  0  2  0  0  0  0  0  0  0  0  0
   18.1353  -11.9108  -14.9610 N   0  0  0  0  0  0  0  0  0  0  0  0
   17.6862   -9.5463  -14.8653 C   0  0  0  0  0  0  0  0  0  0  0  0
   18.8441   -9.3306  -14.3361 O   0  0  0  0  0  0  0  0  0  0  0  0
   17.1589   -8.4614  -15.6135 N   0  0  0  0  0  0  0  0  0  0  0  0
   15.8731   -8.5407  -16.2410 C   0  0  0  0  0  0  0  0  0  0  0  0
   15.5014   -7.0965  -16.4719 C   0  0  0  0  0  0  0  0  0  0  0  0
   16.8621   -6.4679  -16.8243 C   0  0  0  0  0  0  0  0  0  0  0  0
   17.7696   -7.2183  -15.8457 C   0  0  1  0  0  0  0  0  0  0  0  0
   17.9135   -6.4011  -14.5950 C   0  0  0  0  0  0  0  0  0  0  0  0
   18.5532   -5.3316  -14.6463 O   0  0  0  0  0  0  0  0  0  0  0  0
   17.3498   -6.8332  -13.4329 O   0  0  0  0  0  0  0  0  0  0  0  0
  1  2  1  0
  3  2  1  0
  3  4  1  1
  5  3  1  0
  5  6  1  6
  7  8  2  0
  7  5  1  0
 10  9  1  0
 11 12  1  0
 11 10  1  0
 13 12  1  1
 13 15  1  0
 13 14  1  0
 14  7  1  0
 15 17  1  0
 16 15  2  0
 17 21  1  0
 17 18  1  0
 19 18  1  0
 20 19  1  0
 20 21  1  0
 21 22  1  1
 22 23  2  0
 22 24  1  0
M  END
$$$$
