IMP.pdb
     RDKit          3D

 24 24  0  0  1  0  0  0  0  0999 V2000
   19.3398  -22.0264  -16.3777 C   0  0  0  0  0  0  0  0  0  0  0  0
   19.6414  -21.9379  -14.8983 C   0  0  0  0  0  0  0  0  0  0  0  0
   20.9586  -21.2708  -14.6876 C   0  0  2  0  0  0  0  0  0  0  0  0
   22.0313  -21.7900  -15.5983 C   0  0  0  0  0  0  0  0  0  0  0  0
   21.3587  -21.2377  -13.2280 C   0  0  2  0  0  0  0  0  0  0  0  0
   20.3078  -20.4114  -12.5922 N   0  0  0  0  0  0  0  0  0  0  0  0
   22.6803  -20.6460  -12.9788 C   0  0  0  0  0  0  0  0  0  0  0  0
   22.8291  -19.3930  -13.1749 O   0  0  0  0  0  0  0  0  0  0  0  0
   27.0889  -19.6352   -7.9727 C   0  0  0  0  0  0  0  0  0  0  0  0
   26.3344  -21.1716   -8.5653 S   0  0  0  0  0  0  0  0  0  0  0  0
   25.1473  -20.7924   -9.9244 C   0  0  0  0  0  0  0  0  0  0  0  0
   25.7719  -21.2468  -11.1707 C   0  0  0  0  0  0  0  0  0  0  0  0
   25.1595  -20.6582  -12.4345 C   0  0  2  0  0  0  0  0  0  0  0  0
   23.8251  -21.3464  -12.5320 N   0  0  0  0  0  0  0  0  0  0  0  0
   25.9271  -20.9512  -13.6397 C   0  0  0  0  0  0  0  0  0  0  0  0
   25.9212  -22.1842  -14.0233 O   0  0  0  0  0  0  0  0  0  0  0  0
   26.6798  -20.0725  -14.4619 N   0  0  0  0  0  0  0  0  0  0  0  0
   26.9318  -18.7165  -14.0731 C   0  0  0  0  0  0  0  0  0  0  0  0
   28.1179  -18.3200  -14.9176 C   0  0  0  0  0  0  0  0  0  0  0  0
   27.8271  -19.0502  -16.2415 C   0  0  0  0  0  0  0  0  0  0  0  0
   27.2602  -20.3679  -15.7062 C   0  0  1  0  0  0  0  0  0  0  0  0
   28.3748  -21.3679  -15.6024 C   0  0  0  0  0  0  0  0  0  0  0  0
   28.8030  -21.9007  -16.6457 O   0  0  0  0  0  0  0  0  0  0  0  0
   28.8985  -21.6770  -14.3838 O   0  0  0  0  0  0  0  0  0  0  0  0
  1  2  1  0
  3  2  1  0
  3  4  1  6
  5  3  1  0
  5  6  1  1
  7  8  2  0
  7  5  1  0
 10  9  1  0
 11 12  1  0
 11 10  1  0
 13 12  1  1
 13 15  1  0
 13 14  1  0
 14  7  1  0
 15 17  1  0
 16 15  2  0
 17 21  1  0
 17 18  1  0
 19 18  1  0
 20 19  1  0
 20 21  1  0
 21 22  1  1
 22 23  2  0
 22 24  1  0
M  END
$$$$
