IMP.pdb
     RDKit          3D

 24 24  0  0  1  0  0  0  0  0999 V2000
   21.2403  -21.2818  -16.8931 C   0  0  0  0  0  0  0  0  0  0  0  0
   21.2183  -20.4061  -15.6603 C   0  0  0  0  0  0  0  0  0  0  0  0
   22.5798  -20.3476  -15.0545 C   0  0  2  0  0  0  0  0  0  0  0  0
   23.2163  -21.6981  -14.9109 C   0  0  0  0  0  0  0  0  0  0  0  0
   22.6097  -19.5195  -13.7876 C   0  0  2  0  0  0  0  0  0  0  0  0
   22.1943  -18.1715  -14.2366 N   0  0  0  0  0  0  0  0  0  0  0  0
   23.9291  -19.4489  -13.1449 C   0  0  0  0  0  0  0  0  0  0  0  0
   24.8593  -18.8088  -13.7413 O   0  0  0  0  0  0  0  0  0  0  0  0
   26.1654  -18.5516   -6.9446 C   0  0  0  0  0  0  0  0  0  0  0  0
   26.4005  -20.2958   -7.3732 S   0  0  0  0  0  0  0  0  0  0  0  0
   26.7813  -20.4438   -9.1713 C   0  0  0  0  0  0  0  0  0  0  0  0
   25.5194  -20.2387   -9.8893 C   0  0  0  0  0  0  0  0  0  0  0  0
   25.6790  -19.9491  -11.3756 C   0  0  2  0  0  0  0  0  0  0  0  0
   24.2725  -20.0328  -11.9031 N   0  0  0  0  0  0  0  0  0  0  0  0
   26.5001  -20.9336  -12.0716 C   0  0  0  0  0  0  0  0  0  0  0  0
   26.0733  -22.1516  -12.0290 O   0  0  0  0  0  0  0  0  0  0  0  0
   27.7043  -20.7467  -12.7995 N   0  0  0  0  0  0  0  0  0  0  0  0
   28.2846  -19.4469  -12.9641 C   0  0  0  0  0  0  0  0  0  0  0  0
   29.7199  -19.7423  -13.3246 C   0  0  0  0  0  0  0  0  0  0  0  0
   29.5782  -21.0037  -14.1960 C   0  0  0  0  0  0  0  0  0  0  0  0
   28.4711  -21.7373  -13.4343 C   0  0  1  0  0  0  0  0  0  0  0  0
   29.1022  -22.6921  -12.4632 C   0  0  0  0  0  0  0  0  0  0  0  0
   29.0898  -22.4095  -11.2485 O   0  0  0  0  0  0  0  0  0  0  0  0
   29.6740  -23.8422  -12.9162 O   0  0  0  0  0  0  0  0  0  0  0  0
  1  2  1  0
  3  2  1  0
  3  4  1  1
  5  3  1  0
  5  6  1  6
  7  8  2  0
  7  5  1  0
 10  9  1  0
 11 12  1  0
 11 10  1  0
 13 12  1  1
 13 15  1  0
 13 14  1  0
 14  7  1  0
 15 17  1  0
 16 15  2  0
 17 21  1  0
 17 18  1  0
 19 18  1  0
 20 19  1  0
 20 21  1  0
 21 22  1  1
 22 23  2  0
 22 24  1  0
M  END
$$$$
