IMP.pdb
     RDKit          3D

 24 24  0  0  1  0  0  0  0  0999 V2000
   23.3863  -14.6778  -14.7776 C   0  0  0  0  0  0  0  0  0  0  0  0
   22.5869  -15.6505  -15.6155 C   0  0  0  0  0  0  0  0  0  0  0  0
   23.5087  -16.5534  -16.3634 C   0  0  2  0  0  0  0  0  0  0  0  0
   23.3306  -16.4723  -17.8505 C   0  0  0  0  0  0  0  0  0  0  0  0
   23.4930  -17.9669  -15.8218 C   0  0  2  0  0  0  0  0  0  0  0  0
   22.1550  -18.0926  -15.2010 N   0  0  0  0  0  0  0  0  0  0  0  0
   24.5360  -18.2416  -14.8241 C   0  0  0  0  0  0  0  0  0  0  0  0
   25.7574  -18.1193  -15.1761 O   0  0  0  0  0  0  0  0  0  0  0  0
   25.8274  -18.4093   -7.6760 C   0  0  0  0  0  0  0  0  0  0  0  0
   24.8912  -19.6447   -8.6132 S   0  0  0  0  0  0  0  0  0  0  0  0
   25.6904  -19.9112  -10.2535 C   0  0  0  0  0  0  0  0  0  0  0  0
   24.8297  -19.2702  -11.2526 C   0  0  0  0  0  0  0  0  0  0  0  0
   25.4246  -19.2111  -12.6531 C   0  0  2  0  0  0  0  0  0  0  0  0
   24.3107  -18.6346  -13.4841 N   0  0  0  0  0  0  0  0  0  0  0  0
   25.7779  -20.5217  -13.1871 C   0  0  0  0  0  0  0  0  0  0  0  0
   24.7944  -21.3394  -13.3645 O   0  0  0  0  0  0  0  0  0  0  0  0
   27.0523  -21.0313  -13.5488 N   0  0  0  0  0  0  0  0  0  0  0  0
   28.2412  -20.2448  -13.4026 C   0  0  0  0  0  0  0  0  0  0  0  0
   29.3480  -21.2706  -13.4088 C   0  0  0  0  0  0  0  0  0  0  0  0
   28.8262  -22.2988  -14.4291 C   0  0  0  0  0  0  0  0  0  0  0  0
   27.3369  -22.3024  -14.0739 C   0  0  1  0  0  0  0  0  0  0  0  0
   27.0762  -23.4066  -13.0911 C   0  0  0  0  0  0  0  0  0  0  0  0
   27.0821  -24.5860  -13.4970 O   0  0  0  0  0  0  0  0  0  0  0  0
   26.8392  -23.1096  -11.7833 O   0  0  0  0  0  0  0  0  0  0  0  0
  1  2  1  0
  3  2  1  0
  3  4  1  6
  5  3  1  0
  5  6  1  1
  7  8  2  0
  7  5  1  0
 10  9  1  0
 11 12  1  0
 11 10  1  0
 13 12  1  1
 13 15  1  0
 13 14  1  0
 14  7  1  0
 15 17  1  0
 16 15  2  0
 17 21  1  0
 17 18  1  0
 19 18  1  0
 20 19  1  0
 20 21  1  0
 21 22  1  1
 22 23  2  0
 22 24  1  0
M  END
$$$$
