IMP.pdb
     RDKit          3D

 24 24  0  0  1  0  0  0  0  0999 V2000
   19.2909  -14.1995  -18.5335 C   0  0  0  0  0  0  0  0  0  0  0  0
   20.4475  -13.3959  -19.0846 C   0  0  0  0  0  0  0  0  0  0  0  0
   20.6881  -12.1990  -18.2281 C   0  0  2  0  0  0  0  0  0  0  0  0
   19.4293  -11.4563  -17.8911 C   0  0  0  0  0  0  0  0  0  0  0  0
   21.7920  -11.3167  -18.7708 C   0  0  2  0  0  0  0  0  0  0  0  0
   22.8632  -12.2726  -19.1316 N   0  0  0  0  0  0  0  0  0  0  0  0
   22.3034  -10.3309  -17.8089 C   0  0  0  0  0  0  0  0  0  0  0  0
   21.4636   -9.5801  -17.2075 O   0  0  0  0  0  0  0  0  0  0  0  0
   27.5419  -12.5322  -16.4967 C   0  0  0  0  0  0  0  0  0  0  0  0
   27.4241  -11.1362  -15.3484 S   0  0  0  0  0  0  0  0  0  0  0  0
   25.6684  -10.5867  -15.2226 C   0  0  0  0  0  0  0  0  0  0  0  0
   25.5120   -9.4564  -16.1432 C   0  0  0  0  0  0  0  0  0  0  0  0
   24.0669   -9.0980  -16.4624 C   0  0  2  0  0  0  0  0  0  0  0  0
   23.6643  -10.1322  -17.4783 N   0  0  0  0  0  0  0  0  0  0  0  0
   23.9170   -7.7742  -17.0564 C   0  0  0  0  0  0  0  0  0  0  0  0
   24.3699   -7.6437  -18.2586 O   0  0  0  0  0  0  0  0  0  0  0  0
   23.3365   -6.6020  -16.5053 N   0  0  0  0  0  0  0  0  0  0  0  0
   22.7414   -6.6040  -15.2017 C   0  0  0  0  0  0  0  0  0  0  0  0
   22.7170   -5.1440  -14.8207 C   0  0  0  0  0  0  0  0  0  0  0  0
   22.4129   -4.4661  -16.1693 C   0  0  0  0  0  0  0  0  0  0  0  0
   23.2555   -5.3354  -17.1066 C   0  0  1  0  0  0  0  0  0  0  0  0
   24.5998   -4.6923  -17.2856 C   0  0  0  0  0  0  0  0  0  0  0  0
   25.5808   -5.1729  -16.6837 O   0  0  0  0  0  0  0  0  0  0  0  0
   24.7296   -3.6041  -18.0942 O   0  0  0  0  0  0  0  0  0  0  0  0
  1  2  1  0
  3  2  1  0
  3  4  1  6
  5  3  1  0
  5  6  1  1
  7  8  2  0
  7  5  1  0
 10  9  1  0
 11 12  1  0
 11 10  1  0
 13 12  1  6
 13 15  1  0
 13 14  1  0
 14  7  1  0
 15 17  1  0
 16 15  2  0
 17 21  1  0
 17 18  1  0
 19 18  1  0
 20 19  1  0
 20 21  1  0
 21 22  1  1
 22 23  2  0
 22 24  1  0
M  END
$$$$
