IMP.pdb
     RDKit          3D

 24 24  0  0  1  0  0  0  0  0999 V2000
   20.7050  -21.9692  -14.9788 C   0  0  0  0  0  0  0  0  0  0  0  0
   21.2096  -22.4480  -13.6359 C   0  0  0  0  0  0  0  0  0  0  0  0
   22.5244  -21.8131  -13.3317 C   0  0  2  0  0  0  0  0  0  0  0  0
   23.6781  -22.7628  -13.4609 C   0  0  0  0  0  0  0  0  0  0  0  0
   22.5047  -21.0491  -12.0250 C   0  0  2  0  0  0  0  0  0  0  0  0
   21.5309  -19.9606  -12.2667 N   0  0  0  0  0  0  0  0  0  0  0  0
   23.8040  -20.4822  -11.6388 C   0  0  0  0  0  0  0  0  0  0  0  0
   24.2744  -19.5190  -12.3329 O   0  0  0  0  0  0  0  0  0  0  0  0
   26.8704  -18.5665   -5.9454 C   0  0  0  0  0  0  0  0  0  0  0  0
   27.4839  -20.1712   -6.5196 S   0  0  0  0  0  0  0  0  0  0  0  0
   27.5372  -20.1882   -8.3627 C   0  0  0  0  0  0  0  0  0  0  0  0
   26.1793  -20.4958   -8.8224 C   0  0  0  0  0  0  0  0  0  0  0  0
   25.9686  -20.3327  -10.3216 C   0  0  2  0  0  0  0  0  0  0  0  0
   24.5977  -20.9095  -10.5487 N   0  0  0  0  0  0  0  0  0  0  0  0
   26.9302  -21.0790  -11.1253 C   0  0  0  0  0  0  0  0  0  0  0  0
   27.0115  -22.3429  -10.8734 O   0  0  0  0  0  0  0  0  0  0  0  0
   27.7912  -20.6177  -12.1552 N   0  0  0  0  0  0  0  0  0  0  0  0
   27.7454  -19.2619  -12.6168 C   0  0  0  0  0  0  0  0  0  0  0  0
   29.0794  -19.0734  -13.2965 C   0  0  0  0  0  0  0  0  0  0  0  0
   29.3056  -20.4510  -13.9460 C   0  0  0  0  0  0  0  0  0  0  0  0
   28.7617  -21.3637  -12.8435 C   0  0  1  0  0  0  0  0  0  0  0  0
   29.8994  -21.7880  -11.9611 C   0  0  0  0  0  0  0  0  0  0  0  0
   30.7378  -22.5959  -12.4084 O   0  0  0  0  0  0  0  0  0  0  0  0
   30.0004  -21.2907  -10.6973 O   0  0  0  0  0  0  0  0  0  0  0  0
  1  2  1  0
  3  2  1  0
  3  4  1  1
  5  3  1  0
  5  6  1  6
  7  8  2  0
  7  5  1  0
 10  9  1  0
 11 12  1  0
 11 10  1  0
 13 12  1  1
 13 15  1  0
 13 14  1  0
 14  7  1  0
 15 17  1  0
 16 15  2  0
 17 21  1  0
 17 18  1  0
 19 18  1  0
 20 19  1  0
 20 21  1  0
 21 22  1  1
 22 23  2  0
 22 24  1  0
M  END
$$$$
