DTS.pdb
     RDKit          3D

 22 21  0  0  1  0  0  0  0  0999 V2000
    9.2009  -14.9566   14.2523 N   0  0  0  0  0  0  0  0  0  0  0  0
    8.7809  -15.8559   15.2811 C   0  0  1  0  0  0  0  0  0  0  0  0
    9.1569  -17.2991   15.0022 C   0  0  0  0  0  0  0  0  0  0  0  0
    8.6342  -17.7338   13.6906 C   0  0  0  0  0  0  0  0  0  0  0  0
    7.4308  -18.0838   13.5757 O   0  0  0  0  0  0  0  0  0  0  0  0
    9.2845  -15.3951   16.5818 C   0  0  0  0  0  0  0  0  0  0  0  0
   10.4455  -14.9207   16.6531 O   0  0  0  0  0  0  0  0  0  0  0  0
    9.4439  -17.7683   12.5674 O   0  0  0  0  0  0  0  0  0  0  0  0
    7.8121  -12.7883   18.7535 C   0  0  0  0  0  0  0  0  0  0  0  0
    8.1519  -13.9144   19.6808 C   0  0  1  0  0  0  0  0  0  0  0  0
    6.9506  -14.4809   20.1043 O   0  0  0  0  0  0  0  0  0  0  0  0
    9.0496  -14.9463   19.0332 C   0  0  2  0  0  0  0  0  0  0  0  0
    8.5347  -15.4482   17.8004 N   0  0  0  0  0  0  0  0  0  0  0  0
    9.3731  -16.0372   19.9856 C   0  0  0  0  0  0  0  0  0  0  0  0
    8.8858  -17.1686   19.7631 O   0  0  0  0  0  0  0  0  0  0  0  0
   12.3634  -17.5015   20.7453 O   0  0  0  0  0  0  0  0  0  0  0  0
   11.2322  -18.0358   21.3895 C   0  0  0  0  0  0  0  0  0  0  0  0
   10.5494  -16.8521   22.0630 C   0  0  2  0  0  0  0  0  0  0  0  0
   10.2014  -15.8320   21.1142 N   0  0  0  0  0  0  0  0  0  0  0  0
   11.3562  -16.3475   23.1962 C   0  0  0  0  0  0  0  0  0  0  0  0
   11.7330  -15.1491   23.1656 O   0  0  0  0  0  0  0  0  0  0  0  0
   11.7321  -17.1010   24.2990 O   0  0  0  0  0  0  0  0  0  0  0  0
  2  1  1  6
  2  3  1  0
  3  4  1  0
  4  5  2  0
  4  8  1  0
  6 13  1  0
  6  2  1  0
  7  6  2  0
 10  9  1  6
 10 12  1  0
 11 10  1  0
 12 13  1  6
 12 14  1  0
 14 19  1  0
 14 15  2  0
 17 16  1  0
 18 17  1  6
 19 18  1  0
 20 18  1  0
 20 22  1  0
 21 20  2  0
M  END
$$$$
