DTS.pdb
     RDKit          3D

 22 21  0  0  1  0  0  0  0  0999 V2000
   15.1189  -15.7515   17.8968 N   0  0  0  0  0  0  0  0  0  0  0  0
   14.1976  -14.8473   17.2829 C   0  0  1  0  0  0  0  0  0  0  0  0
   13.9629  -15.1409   15.8130 C   0  0  0  0  0  0  0  0  0  0  0  0
   15.2330  -15.0976   15.0597 C   0  0  0  0  0  0  0  0  0  0  0  0
   16.3089  -14.8233   15.6523 O   0  0  0  0  0  0  0  0  0  0  0  0
   12.9437  -14.8181   18.0475 C   0  0  0  0  0  0  0  0  0  0  0  0
   12.0764  -13.9545   17.7644 O   0  0  0  0  0  0  0  0  0  0  0  0
   15.2732  -15.3534   13.6990 O   0  0  0  0  0  0  0  0  0  0  0  0
   10.7731  -18.0079   19.5044 C   0  0  0  0  0  0  0  0  0  0  0  0
   10.3457  -16.5757   19.4047 C   0  0  1  0  0  0  0  0  0  0  0  0
    9.1825  -16.4357   20.1602 O   0  0  0  0  0  0  0  0  0  0  0  0
   11.4217  -15.6173   19.8671 C   0  0  2  0  0  0  0  0  0  0  0  0
   12.6301  -15.7198   19.1147 N   0  0  0  0  0  0  0  0  0  0  0  0
   11.6613  -15.7558   21.3249 C   0  0  0  0  0  0  0  0  0  0  0  0
   12.7605  -16.2288   21.6925 O   0  0  0  0  0  0  0  0  0  0  0  0
    9.9340  -15.2358   25.8282 O   0  0  0  0  0  0  0  0  0  0  0  0
    9.6416  -15.0223   24.4685 C   0  0  0  0  0  0  0  0  0  0  0  0
   10.8420  -15.5648   23.7031 C   0  0  2  0  0  0  0  0  0  0  0  0
   10.6972  -15.3735   22.2873 N   0  0  0  0  0  0  0  0  0  0  0  0
   11.1218  -16.9684   24.0789 C   0  0  0  0  0  0  0  0  0  0  0  0
   10.4608  -17.8746   23.5125 O   0  0  0  0  0  0  0  0  0  0  0  0
   12.0651  -17.3649   25.0161 O   0  0  0  0  0  0  0  0  0  0  0  0
  2  1  1  1
  2  3  1  0
  3  4  1  0
  4  5  2  0
  4  8  1  0
  6 13  1  0
  6  2  1  0
  7  6  2  0
 10  9  1  1
 10 12  1  0
 11 10  1  0
 12 13  1  6
 12 14  1  0
 14 19  1  0
 14 15  2  0
 17 16  1  0
 18 17  1  1
 19 18  1  0
 20 18  1  0
 20 22  1  0
 21 20  2  0
M  END
$$$$
