DTS.pdb
     RDKit          3D

 22 21  0  0  1  0  0  0  0  0999 V2000
    5.8559  -19.2921   16.7761 N   0  0  0  0  0  0  0  0  0  0  0  0
    5.8062  -20.1994   17.8797 C   0  0  1  0  0  0  0  0  0  0  0  0
    6.8535  -21.2943   17.7997 C   0  0  0  0  0  0  0  0  0  0  0  0
    6.7584  -22.0190   16.5158 C   0  0  0  0  0  0  0  0  0  0  0  0
    7.6317  -21.8441   15.6266 O   0  0  0  0  0  0  0  0  0  0  0  0
    5.8828  -19.4527   19.1424 C   0  0  0  0  0  0  0  0  0  0  0  0
    6.5379  -18.3815   19.1789 O   0  0  0  0  0  0  0  0  0  0  0  0
    5.7190  -22.8978   16.2594 O   0  0  0  0  0  0  0  0  0  0  0  0
    3.1065  -17.9414   21.1241 C   0  0  0  0  0  0  0  0  0  0  0  0
    3.9303  -18.7321   22.0936 C   0  0  1  0  0  0  0  0  0  0  0  0
    3.2099  -19.8832   22.4089 O   0  0  0  0  0  0  0  0  0  0  0  0
    5.2998  -19.0718   21.5468 C   0  0  2  0  0  0  0  0  0  0  0  0
    5.2533  -19.8643   20.3608 N   0  0  0  0  0  0  0  0  0  0  0  0
    6.1488  -19.6897   22.5952 C   0  0  0  0  0  0  0  0  0  0  0  0
    6.2509  -20.9374   22.6019 O   0  0  0  0  0  0  0  0  0  0  0  0
    9.1790  -17.7797   24.3662 O   0  0  0  0  0  0  0  0  0  0  0  0
    9.0791  -19.1769   24.4990 C   0  0  0  0  0  0  0  0  0  0  0  0
    7.5913  -19.4667   24.6526 C   0  0  2  0  0  0  0  0  0  0  0  0
    6.8304  -18.9179   23.5655 N   0  0  0  0  0  0  0  0  0  0  0  0
    7.1018  -19.0427   25.9831 C   0  0  0  0  0  0  0  0  0  0  0  0
    6.1727  -18.1980   26.0290 O   0  0  0  0  0  0  0  0  0  0  0  0
    7.5933  -19.5091   27.1939 O   0  0  0  0  0  0  0  0  0  0  0  0
  2  1  1  6
  2  3  1  0
  3  4  1  0
  4  5  2  0
  4  8  1  0
  6 13  1  0
  6  2  1  0
  7  6  2  0
 10  9  1  6
 10 12  1  0
 11 10  1  0
 12 13  1  6
 12 14  1  0
 14 19  1  0
 14 15  2  0
 17 16  1  0
 18 17  1  6
 19 18  1  0
 20 18  1  0
 20 22  1  0
 21 20  2  0
M  END
$$$$
