DTS.pdb
     RDKit          3D

 22 21  0  0  1  0  0  0  0  0999 V2000
   13.5583  -15.1186   16.6907 N   0  0  0  0  0  0  0  0  0  0  0  0
   13.7439  -14.9154   18.0935 C   0  0  1  0  0  0  0  0  0  0  0  0
   14.8266  -13.9013   18.4115 C   0  0  0  0  0  0  0  0  0  0  0  0
   16.1537  -14.4039   18.0007 C   0  0  0  0  0  0  0  0  0  0  0  0
   16.5694  -15.5114   18.4302 O   0  0  0  0  0  0  0  0  0  0  0  0
   12.4614  -14.5695   18.7208 C   0  0  0  0  0  0  0  0  0  0  0  0
   11.6869  -13.7770   18.1290 O   0  0  0  0  0  0  0  0  0  0  0  0
   16.9655  -13.6790   17.1440 O   0  0  0  0  0  0  0  0  0  0  0  0
    9.6598  -16.5447   19.0342 C   0  0  0  0  0  0  0  0  0  0  0  0
    9.6079  -15.1278   19.5175 C   0  0  1  0  0  0  0  0  0  0  0  0
    8.3518  -14.9294   20.0887 O   0  0  0  0  0  0  0  0  0  0  0  0
   10.7156  -14.8103   20.4985 C   0  0  2  0  0  0  0  0  0  0  0  0
   12.0194  -15.0788   19.9839 N   0  0  0  0  0  0  0  0  0  0  0  0
   10.4807  -15.4874   21.7977 C   0  0  0  0  0  0  0  0  0  0  0  0
   10.8766  -16.6688   21.9192 O   0  0  0  0  0  0  0  0  0  0  0  0
    7.8676  -13.9330   24.5417 O   0  0  0  0  0  0  0  0  0  0  0  0
    9.0291  -14.4378   25.1550 C   0  0  0  0  0  0  0  0  0  0  0  0
    9.6108  -15.4391   24.1651 C   0  0  2  0  0  0  0  0  0  0  0  0
    9.8339  -14.8423   22.8783 N   0  0  0  0  0  0  0  0  0  0  0  0
    8.7879  -16.6676   24.1063 C   0  0  0  0  0  0  0  0  0  0  0  0
    8.2050  -16.9370   23.0263 O   0  0  0  0  0  0  0  0  0  0  0  0
    8.6084  -17.5524   25.1600 O   0  0  0  0  0  0  0  0  0  0  0  0
  2  1  1  6
  2  3  1  0
  3  4  1  0
  4  5  2  0
  4  8  1  0
  6 13  1  0
  6  2  1  0
  7  6  2  0
 10  9  1  1
 10 12  1  0
 11 10  1  0
 12 13  1  6
 12 14  1  0
 14 19  1  0
 14 15  2  0
 17 16  1  0
 18 17  1  1
 19 18  1  0
 20 18  1  0
 20 22  1  0
 21 20  2  0
M  END
$$$$
