DTS.pdb
     RDKit          3D

 22 21  0  0  1  0  0  0  0  0999 V2000
   13.1169  -19.6231   18.5129 N   0  0  0  0  0  0  0  0  0  0  0  0
   13.6261  -18.3389   18.8806 C   0  0  1  0  0  0  0  0  0  0  0  0
   14.1519  -17.5449   17.6995 C   0  0  0  0  0  0  0  0  0  0  0  0
   15.2648  -18.2588   17.0405 C   0  0  0  0  0  0  0  0  0  0  0  0
   15.3595  -18.2580   15.7856 O   0  0  0  0  0  0  0  0  0  0  0  0
   12.6080  -17.5969   19.6360 C   0  0  0  0  0  0  0  0  0  0  0  0
   12.6321  -16.3410   19.6212 O   0  0  0  0  0  0  0  0  0  0  0  0
   16.2204  -18.9398   17.7762 O   0  0  0  0  0  0  0  0  0  0  0  0
    8.7370  -18.3073   19.6275 C   0  0  0  0  0  0  0  0  0  0  0  0
    9.1976  -18.0684   21.0326 C   0  0  1  0  0  0  0  0  0  0  0  0
    9.1630  -19.2943   21.6954 O   0  0  0  0  0  0  0  0  0  0  0  0
   10.5770  -17.4488   21.0918 C   0  0  2  0  0  0  0  0  0  0  0  0
   11.5683  -18.2119   20.4048 N   0  0  0  0  0  0  0  0  0  0  0  0
   10.9683  -17.1639   22.4945 C   0  0  0  0  0  0  0  0  0  0  0  0
   11.9164  -17.8214   22.9800 O   0  0  0  0  0  0  0  0  0  0  0  0
    8.4920  -14.9366   24.8446 O   0  0  0  0  0  0  0  0  0  0  0  0
    9.8414  -14.7013   25.1667 C   0  0  0  0  0  0  0  0  0  0  0  0
   10.6006  -15.9204   24.6582 C   0  0  2  0  0  0  0  0  0  0  0  0
   10.3088  -16.1875   23.2778 N   0  0  0  0  0  0  0  0  0  0  0  0
   10.3820  -17.0885   25.5399 C   0  0  0  0  0  0  0  0  0  0  0  0
   10.7631  -17.0066   26.7344 O   0  0  0  0  0  0  0  0  0  0  0  0
    9.7840  -18.2772   25.1466 O   0  0  0  0  0  0  0  0  0  0  0  0
  2  1  1  6
  2  3  1  0
  3  4  1  0
  4  5  2  0
  4  8  1  0
  6 13  1  0
  6  2  1  0
  7  6  2  0
 10  9  1  6
 10 12  1  0
 11 10  1  0
 12 13  1  1
 12 14  1  0
 14 19  1  0
 14 15  2  0
 17 16  1  0
 18 17  1  1
 19 18  1  0
 20 18  1  0
 20 22  1  0
 21 20  2  0
M  END
$$$$
