DTS.pdb
     RDKit          3D

 22 21  0  0  1  0  0  0  0  0999 V2000
    9.8675  -15.5659   14.4080 N   0  0  0  0  0  0  0  0  0  0  0  0
    8.8900  -15.8671   15.4066 C   0  0  1  0  0  0  0  0  0  0  0  0
    8.4981  -17.3325   15.4352 C   0  0  0  0  0  0  0  0  0  0  0  0
    7.6165  -17.6625   14.2966 C   0  0  0  0  0  0  0  0  0  0  0  0
    7.4459  -16.8295   13.3688 O   0  0  0  0  0  0  0  0  0  0  0  0
    9.3545  -15.3937   16.7173 C   0  0  0  0  0  0  0  0  0  0  0  0
   10.5851  -15.2234   16.9034 O   0  0  0  0  0  0  0  0  0  0  0  0
    6.9622  -18.8809   14.2212 O   0  0  0  0  0  0  0  0  0  0  0  0
    7.5345  -12.6589   19.1500 C   0  0  0  0  0  0  0  0  0  0  0  0
    8.0001  -13.8748   19.8907 C   0  0  1  0  0  0  0  0  0  0  0  0
    6.8689  -14.6225   20.2146 O   0  0  0  0  0  0  0  0  0  0  0  0
    8.9919  -14.6936   19.0931 C   0  0  2  0  0  0  0  0  0  0  0  0
    8.4904  -15.1063   17.8223 N   0  0  0  0  0  0  0  0  0  0  0  0
    9.4936  -15.8395   19.8913 C   0  0  0  0  0  0  0  0  0  0  0  0
    9.7292  -16.9109   19.2884 O   0  0  0  0  0  0  0  0  0  0  0  0
   12.9744  -17.0698   22.1293 O   0  0  0  0  0  0  0  0  0  0  0  0
   12.1069  -16.2166   21.4227 C   0  0  0  0  0  0  0  0  0  0  0  0
   10.7214  -16.4729   22.0019 C   0  0  2  0  0  0  0  0  0  0  0  0
    9.7071  -15.7502   21.2871 N   0  0  0  0  0  0  0  0  0  0  0  0
   10.7006  -16.2235   23.4604 C   0  0  0  0  0  0  0  0  0  0  0  0
   10.2316  -15.1306   23.8661 O   0  0  0  0  0  0  0  0  0  0  0  0
   11.1627  -17.1099   24.4226 O   0  0  0  0  0  0  0  0  0  0  0  0
  2  1  1  6
  2  3  1  0
  3  4  1  0
  4  5  2  0
  4  8  1  0
  6 13  1  0
  6  2  1  0
  7  6  2  0
 10  9  1  6
 10 12  1  0
 11 10  1  0
 12 13  1  6
 12 14  1  0
 14 19  1  0
 14 15  2  0
 17 16  1  0
 18 17  1  6
 19 18  1  0
 20 18  1  0
 20 22  1  0
 21 20  2  0
M  END
$$$$
