DTS.pdb
     RDKit          3D

 22 21  0  0  1  0  0  0  0  0999 V2000
    8.8217  -18.4782   17.9490 N   0  0  0  0  0  0  0  0  0  0  0  0
    9.7509  -17.4118   17.7424 C   0  0  1  0  0  0  0  0  0  0  0  0
    9.4625  -16.6029   16.4916 C   0  0  0  0  0  0  0  0  0  0  0  0
    9.6613  -17.4227   15.2788 C   0  0  0  0  0  0  0  0  0  0  0  0
    8.7242  -18.1401   14.8417 O   0  0  0  0  0  0  0  0  0  0  0  0
    9.8163  -16.5682   18.9431 C   0  0  0  0  0  0  0  0  0  0  0  0
   10.7594  -15.7467   19.0610 O   0  0  0  0  0  0  0  0  0  0  0  0
   10.8684  -17.4243   14.5997 O   0  0  0  0  0  0  0  0  0  0  0  0
    7.1664  -14.3350   20.8142 C   0  0  0  0  0  0  0  0  0  0  0  0
    7.7977  -15.2872   21.7830 C   0  0  1  0  0  0  0  0  0  0  0  0
    6.8456  -16.2574   22.0922 O   0  0  0  0  0  0  0  0  0  0  0  0
    9.0640  -15.9117   21.2386 C   0  0  2  0  0  0  0  0  0  0  0  0
    8.8649  -16.6139   20.0122 N   0  0  0  0  0  0  0  0  0  0  0  0
    9.7179  -16.7604   22.2652 C   0  0  0  0  0  0  0  0  0  0  0  0
    9.5687  -18.0002   22.1775 O   0  0  0  0  0  0  0  0  0  0  0  0
   12.9485  -15.5263   24.3295 O   0  0  0  0  0  0  0  0  0  0  0  0
   12.6448  -16.8981   24.2540 C   0  0  0  0  0  0  0  0  0  0  0  0
   11.1266  -16.9854   24.3456 C   0  0  2  0  0  0  0  0  0  0  0  0
   10.4892  -16.2123   23.3171 N   0  0  0  0  0  0  0  0  0  0  0  0
   10.6561  -16.6492   25.7078 C   0  0  0  0  0  0  0  0  0  0  0  0
    9.7939  -15.7432   25.8280 O   0  0  0  0  0  0  0  0  0  0  0  0
   11.0969  -17.2618   26.8721 O   0  0  0  0  0  0  0  0  0  0  0  0
  2  1  1  1
  2  3  1  0
  3  4  1  0
  4  5  2  0
  4  8  1  0
  6 13  1  0
  6  2  1  0
  7  6  2  0
 10  9  1  6
 10 12  1  0
 11 10  1  0
 12 13  1  6
 12 14  1  0
 14 19  1  0
 14 15  2  0
 17 16  1  0
 18 17  1  1
 19 18  1  0
 20 18  1  0
 20 22  1  0
 21 20  2  0
M  END
$$$$
