DTS.pdb
     RDKit          3D

 22 21  0  0  1  0  0  0  0  0999 V2000
    7.5165  -16.2672   16.3766 N   0  0  0  0  0  0  0  0  0  0  0  0
    8.7490  -15.5519   16.2630 C   0  0  1  0  0  0  0  0  0  0  0  0
    8.6991  -14.4366   15.2356 C   0  0  0  0  0  0  0  0  0  0  0  0
    8.3419  -14.9656   13.9033 C   0  0  0  0  0  0  0  0  0  0  0  0
    8.1119  -16.1939   13.7532 O   0  0  0  0  0  0  0  0  0  0  0  0
    9.1674  -15.0670   17.5849 C   0  0  0  0  0  0  0  0  0  0  0  0
   10.2496  -14.4378   17.6896 O   0  0  0  0  0  0  0  0  0  0  0  0
    8.2526  -14.1354   12.7983 O   0  0  0  0  0  0  0  0  0  0  0  0
    7.3821  -12.8367   19.9580 C   0  0  0  0  0  0  0  0  0  0  0  0
    7.9076  -13.9549   20.8048 C   0  0  1  0  0  0  0  0  0  0  0  0
    6.8102  -14.6922   21.2471 O   0  0  0  0  0  0  0  0  0  0  0  0
    8.8949  -14.8285   20.0619 C   0  0  2  0  0  0  0  0  0  0  0  0
    8.4177  -15.2631   18.7890 N   0  0  0  0  0  0  0  0  0  0  0  0
    9.3353  -15.9652   20.9079 C   0  0  0  0  0  0  0  0  0  0  0  0
    9.0831  -17.1234   20.5052 O   0  0  0  0  0  0  0  0  0  0  0  0
   12.6169  -16.8791   21.8971 O   0  0  0  0  0  0  0  0  0  0  0  0
   11.5171  -17.7096   22.1811 C   0  0  0  0  0  0  0  0  0  0  0  0
   10.5338  -16.8359   22.9497 C   0  0  2  0  0  0  0  0  0  0  0  0
   10.0186  -15.7739   22.1320 N   0  0  0  0  0  0  0  0  0  0  0  0
   11.1248  -16.3623   24.2210 C   0  0  0  0  0  0  0  0  0  0  0  0
   11.2073  -15.1226   24.4084 O   0  0  0  0  0  0  0  0  0  0  0  0
   11.5991  -17.1878   25.2304 O   0  0  0  0  0  0  0  0  0  0  0  0
  2  1  1  1
  2  3  1  0
  3  4  1  0
  4  5  2  0
  4  8  1  0
  6 13  1  0
  6  2  1  0
  7  6  2  0
 10  9  1  6
 10 12  1  0
 11 10  1  0
 12 13  1  6
 12 14  1  0
 14 19  1  0
 14 15  2  0
 17 16  1  0
 18 17  1  6
 19 18  1  0
 20 18  1  0
 20 22  1  0
 21 20  2  0
M  END
$$$$
