DTS.pdb
     RDKit          3D

 22 21  0  0  1  0  0  0  0  0999 V2000
    8.8192  -15.3399   14.8454 N   0  0  0  0  0  0  0  0  0  0  0  0
    8.7893  -16.3084   15.8964 C   0  0  1  0  0  0  0  0  0  0  0  0
    9.5052  -17.5978   15.5402 C   0  0  0  0  0  0  0  0  0  0  0  0
    8.8064  -18.3010   14.4449 C   0  0  0  0  0  0  0  0  0  0  0  0
    9.1053  -18.0572   13.2469 O   0  0  0  0  0  0  0  0  0  0  0  0
    9.3059  -15.7141   17.1365 C   0  0  0  0  0  0  0  0  0  0  0  0
   10.4072  -15.1104   17.1110 O   0  0  0  0  0  0  0  0  0  0  0  0
    7.8162  -19.2342   14.7035 O   0  0  0  0  0  0  0  0  0  0  0  0
    7.6035  -13.1476   19.2941 C   0  0  0  0  0  0  0  0  0  0  0  0
    8.1141  -14.2085   20.2201 C   0  0  1  0  0  0  0  0  0  0  0  0
    7.0113  -14.9328   20.6704 O   0  0  0  0  0  0  0  0  0  0  0  0
    9.1337  -15.1110   19.5599 C   0  0  2  0  0  0  0  0  0  0  0  0
    8.6332  -15.7735   18.3991 N   0  0  0  0  0  0  0  0  0  0  0  0
    9.7078  -16.0653   20.5403 C   0  0  0  0  0  0  0  0  0  0  0  0
    9.2991  -17.2482   20.5102 O   0  0  0  0  0  0  0  0  0  0  0  0
   13.1869  -15.2434   22.5623 O   0  0  0  0  0  0  0  0  0  0  0  0
   12.7780  -16.5779   22.3833 C   0  0  0  0  0  0  0  0  0  0  0  0
   11.2572  -16.5537   22.4702 C   0  0  2  0  0  0  0  0  0  0  0  0
   10.6849  -15.6772   21.4872 N   0  0  0  0  0  0  0  0  0  0  0  0
   10.8083  -16.2598   23.8492 C   0  0  0  0  0  0  0  0  0  0  0  0
   11.2391  -16.9877   24.7784 O   0  0  0  0  0  0  0  0  0  0  0  0
    9.9412  -15.2345   24.1988 O   0  0  0  0  0  0  0  0  0  0  0  0
  2  1  1  6
  2  3  1  0
  3  4  1  0
  4  5  2  0
  4  8  1  0
  6 13  1  0
  6  2  1  0
  7  6  2  0
 10  9  1  6
 10 12  1  0
 11 10  1  0
 12 13  1  6
 12 14  1  0
 14 19  1  0
 14 15  2  0
 17 16  1  0
 18 17  1  1
 19 18  1  0
 20 18  1  0
 20 22  1  0
 21 20  2  0
M  END
$$$$
