DTS.pdb
     RDKit          3D

 22 21  0  0  1  0  0  0  0  0999 V2000
   12.1857  -16.2812   17.7246 N   0  0  0  0  0  0  0  0  0  0  0  0
   12.9391  -15.3236   18.4722 C   0  0  1  0  0  0  0  0  0  0  0  0
   13.7081  -14.3532   17.5954 C   0  0  0  0  0  0  0  0  0  0  0  0
   15.0975  -14.8138   17.3958 C   0  0  0  0  0  0  0  0  0  0  0  0
   15.4570  -15.9398   17.8279 O   0  0  0  0  0  0  0  0  0  0  0  0
   12.0600  -14.6311   19.4237 C   0  0  0  0  0  0  0  0  0  0  0  0
   12.5431  -13.7350   20.1597 O   0  0  0  0  0  0  0  0  0  0  0  0
   16.0295  -14.0288   16.7374 O   0  0  0  0  0  0  0  0  0  0  0  0
    8.4617  -13.0549   18.8095 C   0  0  0  0  0  0  0  0  0  0  0  0
    8.4573  -13.9256   20.0284 C   0  0  1  0  0  0  0  0  0  0  0  0
    7.7766  -15.0970   19.6998 O   0  0  0  0  0  0  0  0  0  0  0  0
    9.8531  -14.2224   20.5323 C   0  0  2  0  0  0  0  0  0  0  0  0
   10.6636  -14.9079   19.5783 N   0  0  0  0  0  0  0  0  0  0  0  0
    9.8046  -14.9337   21.8336 C   0  0  0  0  0  0  0  0  0  0  0  0
   10.2997  -16.0822   21.8888 O   0  0  0  0  0  0  0  0  0  0  0  0
    7.2423  -13.6068   24.7617 O   0  0  0  0  0  0  0  0  0  0  0  0
    8.4326  -14.1360   25.2940 C   0  0  0  0  0  0  0  0  0  0  0  0
    8.9860  -15.0598   24.2163 C   0  0  2  0  0  0  0  0  0  0  0  0
    9.2247  -14.3560   22.9877 N   0  0  0  0  0  0  0  0  0  0  0  0
    8.1297  -16.2551   24.0499 C   0  0  0  0  0  0  0  0  0  0  0  0
    7.5593  -16.4235   22.9430 O   0  0  0  0  0  0  0  0  0  0  0  0
    7.9057  -17.2120   25.0292 O   0  0  0  0  0  0  0  0  0  0  0  0
  2  1  1  6
  2  3  1  0
  3  4  1  0
  4  5  2  0
  4  8  1  0
  6 13  1  0
  6  2  1  0
  7  6  2  0
 10  9  1  6
 10 12  1  0
 11 10  1  0
 12 13  1  6
 12 14  1  0
 14 19  1  0
 14 15  2  0
 17 16  1  0
 18 17  1  1
 19 18  1  0
 20 18  1  0
 20 22  1  0
 21 20  2  0
M  END
$$$$
