DTS.pdb
     RDKit          3D

 22 21  0  0  1  0  0  0  0  0999 V2000
    8.0833  -16.0490   15.8340 N   0  0  0  0  0  0  0  0  0  0  0  0
    8.3700  -16.9317   16.9214 C   0  0  1  0  0  0  0  0  0  0  0  0
    9.2339  -18.1124   16.5196 C   0  0  0  0  0  0  0  0  0  0  0  0
    8.4843  -19.0382   15.6458 C   0  0  0  0  0  0  0  0  0  0  0  0
    7.4669  -18.6346   15.0246 O   0  0  0  0  0  0  0  0  0  0  0  0
    8.9531  -16.1747   18.0371 C   0  0  0  0  0  0  0  0  0  0  0  0
   10.0893  -15.6578   17.8959 O   0  0  0  0  0  0  0  0  0  0  0  0
    8.8754  -20.3577   15.4895 O   0  0  0  0  0  0  0  0  0  0  0  0
    7.5651  -13.2273   20.0850 C   0  0  0  0  0  0  0  0  0  0  0  0
    8.0543  -14.2677   21.0452 C   0  0  1  0  0  0  0  0  0  0  0  0
    6.9324  -14.8635   21.6195 O   0  0  0  0  0  0  0  0  0  0  0  0
    8.9446  -15.2953   20.3808 C   0  0  2  0  0  0  0  0  0  0  0  0
    8.3092  -15.9786   19.3009 N   0  0  0  0  0  0  0  0  0  0  0  0
    9.5031  -16.2369   21.3824 C   0  0  0  0  0  0  0  0  0  0  0  0
    8.9408  -17.3474   21.5152 O   0  0  0  0  0  0  0  0  0  0  0  0
   13.0421  -15.3538   23.2847 O   0  0  0  0  0  0  0  0  0  0  0  0
   12.7174  -16.7183   23.1725 C   0  0  0  0  0  0  0  0  0  0  0  0
   11.1950  -16.7768   23.1738 C   0  0  2  0  0  0  0  0  0  0  0  0
   10.6316  -15.9151   22.1728 N   0  0  0  0  0  0  0  0  0  0  0  0
   10.6549  -16.5314   24.5294 C   0  0  0  0  0  0  0  0  0  0  0  0
   11.0592  -17.2629   25.4677 O   0  0  0  0  0  0  0  0  0  0  0  0
    9.7289  -15.5483   24.8476 O   0  0  0  0  0  0  0  0  0  0  0  0
  2  1  1  6
  2  3  1  0
  3  4  1  0
  4  5  2  0
  4  8  1  0
  6 13  1  0
  6  2  1  0
  7  6  2  0
 10  9  1  6
 10 12  1  0
 11 10  1  0
 12 13  1  6
 12 14  1  0
 14 19  1  0
 14 15  2  0
 17 16  1  0
 18 17  1  1
 19 18  1  0
 20 18  1  0
 20 22  1  0
 21 20  2  0
M  END
$$$$
