GVM.pdb
     RDKit          3D

 20 19  0  0  1  0  0  0  0  0999 V2000
    8.3906  -18.7575   18.3991 N   0  0  0  0  0  0  0  0  0  0  0  0
    7.5164  -17.9465   19.2062 C   0  0  0  0  0  0  0  0  0  0  0  0
    8.2597  -16.8562   19.8761 C   0  0  0  0  0  0  0  0  0  0  0  0
    9.4863  -16.9524   20.0837 O   0  0  0  0  0  0  0  0  0  0  0  0
    8.2280  -13.0332   19.2227 C   0  0  0  0  0  0  0  0  0  0  0  0
    8.0829  -13.2589   20.6863 C   0  0  1  0  0  0  0  0  0  0  0  0
    6.6992  -12.8063   21.1041 C   0  0  0  0  0  0  0  0  0  0  0  0
    8.3071  -14.6771   21.1251 C   0  0  2  0  0  0  0  0  0  0  0  0
    7.6324  -15.6435   20.3211 N   0  0  0  0  0  0  0  0  0  0  0  0
    8.0381  -14.8491   22.5793 C   0  0  0  0  0  0  0  0  0  0  0  0
    6.9452  -15.3414   22.9449 O   0  0  0  0  0  0  0  0  0  0  0  0
    6.4963  -11.4706   27.4072 C   0  0  0  0  0  0  0  0  0  0  0  0
    7.0641  -12.4091   25.9657 S   0  0  0  0  0  0  0  0  0  0  0  0
    6.7157  -14.1857   26.2929 C   0  0  0  0  0  0  0  0  0  0  0  0
    7.2456  -14.9859   25.1483 C   0  0  0  0  0  0  0  0  0  0  0  0
    8.7047  -14.7673   24.9526 C   0  0  2  0  0  0  0  0  0  0  0  0
    8.9968  -14.4649   23.5368 N   0  0  0  0  0  0  0  0  0  0  0  0
    9.5230  -15.9114   25.3933 C   0  0  0  0  0  0  0  0  0  0  0  0
   10.5118  -15.8351   26.1375 O   0  0  0  0  0  0  0  0  0  0  0  0
    9.1827  -17.2045   24.9534 O   0  0  0  0  0  0  0  0  0  0  0  0
  1  2  1  0
  3  2  1  0
  4  3  2  0
  6  5  1  6
  6  8  1  0
  7  6  1  0
  8  9  1  6
  8 10  1  0
  9  3  1  0
 10 17  1  0
 11 10  2  0
 12 13  1  0
 13 14  1  0
 16 15  1  6
 15 14  1  0
 16 18  1  0
 17 16  1  0
 18 19  2  0
 18 20  1  0
M  END
$$$$
