GVM.pdb
     RDKit          3D

 20 19  0  0  1  0  0  0  0  0999 V2000
    6.3838  -18.9632   19.4291 N   0  0  0  0  0  0  0  0  0  0  0  0
    6.0643  -17.7696   20.1685 C   0  0  0  0  0  0  0  0  0  0  0  0
    7.2713  -16.9492   20.4137 C   0  0  0  0  0  0  0  0  0  0  0  0
    8.4058  -17.4685   20.4244 O   0  0  0  0  0  0  0  0  0  0  0  0
    7.7551  -13.2504   18.9587 C   0  0  0  0  0  0  0  0  0  0  0  0
    8.2885  -13.3471   20.3445 C   0  0  1  0  0  0  0  0  0  0  0  0
    7.4125  -12.5092   21.2526 C   0  0  0  0  0  0  0  0  0  0  0  0
    8.3842  -14.7460   20.8809 C   0  0  2  0  0  0  0  0  0  0  0  0
    7.2173  -15.5338   20.6502 N   0  0  0  0  0  0  0  0  0  0  0  0
    8.8140  -14.7575   22.3064 C   0  0  0  0  0  0  0  0  0  0  0  0
    9.9036  -14.2240   22.6208 O   0  0  0  0  0  0  0  0  0  0  0  0
    6.2046  -11.0101   27.2235 C   0  0  0  0  0  0  0  0  0  0  0  0
    6.0007  -12.7685   26.8392 S   0  0  0  0  0  0  0  0  0  0  0  0
    7.4863  -13.3016   25.8939 C   0  0  0  0  0  0  0  0  0  0  0  0
    7.3304  -14.7473   25.5518 C   0  0  0  0  0  0  0  0  0  0  0  0
    8.4481  -15.2347   24.6985 C   0  0  2  0  0  0  0  0  0  0  0  0
    8.0097  -15.3592   23.2936 N   0  0  0  0  0  0  0  0  0  0  0  0
    9.0064  -16.5191   25.1583 C   0  0  0  0  0  0  0  0  0  0  0  0
    8.8389  -17.6108   24.5948 O   0  0  0  0  0  0  0  0  0  0  0  0
    9.7952  -16.5432   26.3238 O   0  0  0  0  0  0  0  0  0  0  0  0
  1  2  1  0
  3  2  1  0
  4  3  2  0
  6  5  1  6
  6  8  1  0
  7  6  1  0
  8  9  1  1
  8 10  1  0
  9  3  1  0
 10 17  1  0
 11 10  2  0
 12 13  1  0
 13 14  1  0
 16 15  1  1
 15 14  1  0
 16 18  1  0
 17 16  1  0
 18 19  2  0
 18 20  1  0
M  END
$$$$
