GVM.pdb
     RDKit          3D

 20 19  0  0  1  0  0  0  0  0999 V2000
    6.2284  -19.0818   19.9651 N   0  0  0  0  0  0  0  0  0  0  0  0
    5.9983  -17.7890   20.5560 C   0  0  0  0  0  0  0  0  0  0  0  0
    7.2240  -16.9601   20.5313 C   0  0  0  0  0  0  0  0  0  0  0  0
    8.3451  -17.4817   20.3641 O   0  0  0  0  0  0  0  0  0  0  0  0
    7.6965  -13.2045   19.0535 C   0  0  0  0  0  0  0  0  0  0  0  0
    8.2866  -13.3493   20.4118 C   0  0  1  0  0  0  0  0  0  0  0  0
    7.4595  -12.5304   21.3811 C   0  0  0  0  0  0  0  0  0  0  0  0
    8.3881  -14.7649   20.9013 C   0  0  2  0  0  0  0  0  0  0  0  0
    7.2040  -15.5335   20.6946 N   0  0  0  0  0  0  0  0  0  0  0  0
    8.8750  -14.8244   22.3071 C   0  0  0  0  0  0  0  0  0  0  0  0
   10.0669  -14.5263   22.5544 O   0  0  0  0  0  0  0  0  0  0  0  0
    6.2486  -10.8115   26.9880 C   0  0  0  0  0  0  0  0  0  0  0  0
    6.2089  -12.6211   26.9147 S   0  0  0  0  0  0  0  0  0  0  0  0
    7.5327  -13.1544   25.7537 C   0  0  0  0  0  0  0  0  0  0  0  0
    7.5061  -14.6453   25.6655 C   0  0  0  0  0  0  0  0  0  0  0  0
    8.5410  -15.1599   24.7277 C   0  0  2  0  0  0  0  0  0  0  0  0
    8.0110  -15.2105   23.3501 N   0  0  0  0  0  0  0  0  0  0  0  0
    9.0552  -16.4876   25.1091 C   0  0  0  0  0  0  0  0  0  0  0  0
    8.7405  -17.5564   24.5651 O   0  0  0  0  0  0  0  0  0  0  0  0
    9.9765  -16.5849   26.1689 O   0  0  0  0  0  0  0  0  0  0  0  0
  1  2  1  0
  3  2  1  0
  4  3  2  0
  6  5  1  6
  6  8  1  0
  7  6  1  0
  8  9  1  1
  8 10  1  0
  9  3  1  0
 10 17  1  0
 11 10  2  0
 12 13  1  0
 13 14  1  0
 16 15  1  1
 15 14  1  0
 16 18  1  0
 17 16  1  0
 18 19  2  0
 18 20  1  0
M  END
$$$$
