GVM.pdb
     RDKit          3D

 20 19  0  0  1  0  0  0  0  0999 V2000
    6.9854  -19.6125   20.7552 N   0  0  0  0  0  0  0  0  0  0  0  0
    6.5850  -18.4544   21.5113 C   0  0  0  0  0  0  0  0  0  0  0  0
    7.6122  -17.3908   21.4513 C   0  0  0  0  0  0  0  0  0  0  0  0
    8.7527  -17.6281   21.0041 O   0  0  0  0  0  0  0  0  0  0  0  0
    6.9783  -13.7361   20.0736 C   0  0  0  0  0  0  0  0  0  0  0  0
    7.7611  -13.6882   21.3382 C   0  0  1  0  0  0  0  0  0  0  0  0
    6.8677  -13.1408   22.4319 C   0  0  0  0  0  0  0  0  0  0  0  0
    8.3380  -15.0065   21.7663 C   0  0  2  0  0  0  0  0  0  0  0  0
    7.3694  -16.0463   21.8936 N   0  0  0  0  0  0  0  0  0  0  0  0
    9.1913  -14.8630   22.9779 C   0  0  0  0  0  0  0  0  0  0  0  0
   10.0201  -13.9246   23.0344 O   0  0  0  0  0  0  0  0  0  0  0  0
    6.8384  -11.5142   25.6738 C   0  0  0  0  0  0  0  0  0  0  0  0
    7.1102  -12.2937   27.2862 S   0  0  0  0  0  0  0  0  0  0  0  0
    8.3858  -13.5998   27.0586 C   0  0  0  0  0  0  0  0  0  0  0  0
    8.2423  -14.1601   25.6814 C   0  0  0  0  0  0  0  0  0  0  0  0
    9.2407  -15.2316   25.4162 C   0  0  2  0  0  0  0  0  0  0  0  0
    9.0728  -15.7681   24.0504 N   0  0  0  0  0  0  0  0  0  0  0  0
    9.1757  -16.3341   26.3924 C   0  0  0  0  0  0  0  0  0  0  0  0
    9.3722  -16.2187   27.6112 O   0  0  0  0  0  0  0  0  0  0  0  0
    8.8693  -17.6310   25.9390 O   0  0  0  0  0  0  0  0  0  0  0  0
  1  2  1  0
  3  2  1  0
  4  3  2  0
  6  5  1  6
  6  8  1  0
  7  6  1  0
  8  9  1  1
  8 10  1  0
  9  3  1  0
 10 17  1  0
 11 10  2  0
 12 13  1  0
 13 14  1  0
 16 15  1  1
 15 14  1  0
 16 18  1  0
 17 16  1  0
 18 19  2  0
 18 20  1  0
M  END
$$$$
