GVM.pdb
     RDKit          3D

 20 19  0  0  1  0  0  0  0  0999 V2000
    7.5576  -19.0861   19.4353 N   0  0  0  0  0  0  0  0  0  0  0  0
    7.1802  -18.2947   20.5775 C   0  0  0  0  0  0  0  0  0  0  0  0
    7.9597  -17.0385   20.6432 C   0  0  0  0  0  0  0  0  0  0  0  0
    9.1856  -17.0341   20.4111 O   0  0  0  0  0  0  0  0  0  0  0  0
    8.1502  -12.0670   20.9798 C   0  0  0  0  0  0  0  0  0  0  0  0
    7.4083  -13.3301   20.7182 C   0  0  1  0  0  0  0  0  0  0  0  0
    7.0695  -13.3877   19.2431 C   0  0  0  0  0  0  0  0  0  0  0  0
    8.1389  -14.5786   21.1203 C   0  0  2  0  0  0  0  0  0  0  0  0
    7.3697  -15.7709   20.9710 N   0  0  0  0  0  0  0  0  0  0  0  0
    8.7411  -14.4478   22.4757 C   0  0  0  0  0  0  0  0  0  0  0  0
    9.3025  -13.3736   22.7943 O   0  0  0  0  0  0  0  0  0  0  0  0
    7.0382  -11.0335   26.7438 C   0  0  0  0  0  0  0  0  0  0  0  0
    6.1269  -12.5990   26.7513 S   0  0  0  0  0  0  0  0  0  0  0  0
    7.3570  -13.9534   26.5585 C   0  0  0  0  0  0  0  0  0  0  0  0
    7.4621  -14.2879   25.1064 C   0  0  0  0  0  0  0  0  0  0  0  0
    8.6230  -15.1770   24.8290 C   0  0  2  0  0  0  0  0  0  0  0  0
    8.6834  -15.5153   23.3926 N   0  0  0  0  0  0  0  0  0  0  0  0
    8.6047  -16.4152   25.6286 C   0  0  0  0  0  0  0  0  0  0  0  0
    8.1994  -17.5161   25.2273 O   0  0  0  0  0  0  0  0  0  0  0  0
    9.0768  -16.3795   26.9541 O   0  0  0  0  0  0  0  0  0  0  0  0
  1  2  1  0
  3  2  1  0
  4  3  2  0
  6  5  1  6
  6  8  1  0
  7  6  1  0
  8  9  1  1
  8 10  1  0
  9  3  1  0
 10 17  1  0
 11 10  2  0
 12 13  1  0
 13 14  1  0
 16 15  1  6
 15 14  1  0
 16 18  1  0
 17 16  1  0
 18 19  2  0
 18 20  1  0
M  END
$$$$
