GVM.pdb
     RDKit          3D

 20 19  0  0  1  0  0  0  0  0999 V2000
    7.5939  -18.9792   18.6965 N   0  0  0  0  0  0  0  0  0  0  0  0
    6.9174  -18.2578   19.7430 C   0  0  0  0  0  0  0  0  0  0  0  0
    7.6998  -17.0789   20.1766 C   0  0  0  0  0  0  0  0  0  0  0  0
    8.9394  -17.1452   20.3020 O   0  0  0  0  0  0  0  0  0  0  0  0
    8.3079  -12.2937   21.1579 C   0  0  0  0  0  0  0  0  0  0  0  0
    7.4352  -13.3852   20.6465 C   0  0  1  0  0  0  0  0  0  0  0  0
    7.4673  -13.3520   19.1326 C   0  0  0  0  0  0  0  0  0  0  0  0
    7.8020  -14.7577   21.1320 C   0  0  2  0  0  0  0  0  0  0  0  0
    7.0973  -15.8099   20.4749 N   0  0  0  0  0  0  0  0  0  0  0  0
    7.7248  -14.8521   22.6159 C   0  0  0  0  0  0  0  0  0  0  0  0
    6.6726  -15.2771   23.1477 O   0  0  0  0  0  0  0  0  0  0  0  0
    7.0515  -11.5063   27.7784 C   0  0  0  0  0  0  0  0  0  0  0  0
    6.0790  -12.8167   26.9920 S   0  0  0  0  0  0  0  0  0  0  0  0
    6.8240  -13.1403   25.3412 C   0  0  0  0  0  0  0  0  0  0  0  0
    7.2784  -14.5628   25.3027 C   0  0  0  0  0  0  0  0  0  0  0  0
    8.6994  -14.6753   24.8748 C   0  0  2  0  0  0  0  0  0  0  0  0
    8.8182  -14.4696   23.4171 N   0  0  0  0  0  0  0  0  0  0  0  0
    9.3121  -15.9641   25.2442 C   0  0  0  0  0  0  0  0  0  0  0  0
    9.2365  -17.0060   24.5762 O   0  0  0  0  0  0  0  0  0  0  0  0
   10.0467  -16.0532   26.4416 O   0  0  0  0  0  0  0  0  0  0  0  0
  1  2  1  0
  3  2  1  0
  4  3  2  0
  6  5  1  1
  6  8  1  0
  7  6  1  0
  8  9  1  6
  8 10  1  0
  9  3  1  0
 10 17  1  0
 11 10  2  0
 12 13  1  0
 13 14  1  0
 16 15  1  6
 15 14  1  0
 16 18  1  0
 17 16  1  0
 18 19  2  0
 18 20  1  0
M  END
$$$$
