GVM.pdb
     RDKit          3D

 20 19  0  0  1  0  0  0  0  0999 V2000
    5.2665  -18.9041   20.5805 N   0  0  0  0  0  0  0  0  0  0  0  0
    5.1375  -17.5832   21.1392 C   0  0  0  0  0  0  0  0  0  0  0  0
    6.4556  -16.9235   21.2709 C   0  0  0  0  0  0  0  0  0  0  0  0
    7.4878  -17.5932   21.4777 O   0  0  0  0  0  0  0  0  0  0  0  0
    7.8965  -14.1675   18.8922 C   0  0  0  0  0  0  0  0  0  0  0  0
    8.1470  -13.7780   20.3064 C   0  0  1  0  0  0  0  0  0  0  0  0
    7.2806  -12.5791   20.6318 C   0  0  0  0  0  0  0  0  0  0  0  0
    7.9009  -14.8690   21.3079 C   0  0  2  0  0  0  0  0  0  0  0  0
    6.6292  -15.5014   21.1717 N   0  0  0  0  0  0  0  0  0  0  0  0
    8.1681  -14.4067   22.6977 C   0  0  0  0  0  0  0  0  0  0  0  0
    7.6306  -13.3502   23.1046 O   0  0  0  0  0  0  0  0  0  0  0  0
    6.7583  -11.6074   27.6745 C   0  0  0  0  0  0  0  0  0  0  0  0
    7.2082  -12.5272   26.1802 S   0  0  0  0  0  0  0  0  0  0  0  0
    7.0063  -14.3174   26.5536 C   0  0  0  0  0  0  0  0  0  0  0  0
    7.3451  -15.0939   25.3233 C   0  0  0  0  0  0  0  0  0  0  0  0
    8.7966  -15.0141   25.0042 C   0  0  2  0  0  0  0  0  0  0  0  0
    9.0139  -15.1439   23.5491 N   0  0  0  0  0  0  0  0  0  0  0  0
    9.5996  -16.0243   25.7165 C   0  0  0  0  0  0  0  0  0  0  0  0
    9.4822  -17.2513   25.5822 O   0  0  0  0  0  0  0  0  0  0  0  0
   10.5846  -15.5967   26.6265 O   0  0  0  0  0  0  0  0  0  0  0  0
  1  2  1  0
  3  2  1  0
  4  3  2  0
  6  5  1  6
  6  8  1  0
  7  6  1  0
  8  9  1  1
  8 10  1  0
  9  3  1  0
 10 17  1  0
 11 10  2  0
 12 13  1  0
 13 14  1  0
 16 15  1  6
 15 14  1  0
 16 18  1  0
 17 16  1  0
 18 19  2  0
 18 20  1  0
M  END
$$$$
