GVM.pdb
     RDKit          3D

 20 19  0  0  1  0  0  0  0  0999 V2000
    5.8095  -20.1299   21.9235 N   0  0  0  0  0  0  0  0  0  0  0  0
    5.6886  -18.8569   22.5856 C   0  0  0  0  0  0  0  0  0  0  0  0
    6.7936  -17.9474   22.2093 C   0  0  0  0  0  0  0  0  0  0  0  0
    7.9731  -18.3531   22.1786 O   0  0  0  0  0  0  0  0  0  0  0  0
    6.2415  -13.6024   21.7965 C   0  0  0  0  0  0  0  0  0  0  0  0
    7.2306  -14.3681   20.9904 C   0  0  1  0  0  0  0  0  0  0  0  0
    8.4399  -13.4868   20.7562 C   0  0  0  0  0  0  0  0  0  0  0  0
    7.6617  -15.6695   21.6022 C   0  0  2  0  0  0  0  0  0  0  0  0
    6.5857  -16.5694   21.8627 N   0  0  0  0  0  0  0  0  0  0  0  0
    8.5324  -15.4538   22.7905 C   0  0  0  0  0  0  0  0  0  0  0  0
    9.5953  -14.8028   22.6597 O   0  0  0  0  0  0  0  0  0  0  0  0
    7.1161  -10.6263   26.9582 C   0  0  0  0  0  0  0  0  0  0  0  0
    6.5542  -12.3185   27.2778 S   0  0  0  0  0  0  0  0  0  0  0  0
    7.9381  -13.4499   26.8421 C   0  0  0  0  0  0  0  0  0  0  0  0
    7.5319  -14.2487   25.6470 C   0  0  0  0  0  0  0  0  0  0  0  0
    8.5904  -15.2146   25.2448 C   0  0  2  0  0  0  0  0  0  0  0  0
    8.1708  -15.9730   24.0488 N   0  0  0  0  0  0  0  0  0  0  0  0
    8.9549  -16.1519   26.3224 C   0  0  0  0  0  0  0  0  0  0  0  0
    8.6496  -17.3532   26.3548 O   0  0  0  0  0  0  0  0  0  0  0  0
    9.7076  -15.6790   27.4137 O   0  0  0  0  0  0  0  0  0  0  0  0
  1  2  1  0
  3  2  1  0
  4  3  2  0
  6  5  1  1
  6  8  1  0
  7  6  1  0
  8  9  1  1
  8 10  1  0
  9  3  1  0
 10 17  1  0
 11 10  2  0
 12 13  1  0
 13 14  1  0
 16 15  1  1
 15 14  1  0
 16 18  1  0
 17 16  1  0
 18 19  2  0
 18 20  1  0
M  END
$$$$
