GVM.pdb
     RDKit          3D

 20 19  0  0  1  0  0  0  0  0999 V2000
    5.3462  -20.1491   23.5711 N   0  0  0  0  0  0  0  0  0  0  0  0
    5.2169  -18.7173   23.6535 C   0  0  0  0  0  0  0  0  0  0  0  0
    6.4307  -18.0373   23.1495 C   0  0  0  0  0  0  0  0  0  0  0  0
    7.4531  -18.6893   22.8554 O   0  0  0  0  0  0  0  0  0  0  0  0
    6.6792  -13.7037   22.0846 C   0  0  0  0  0  0  0  0  0  0  0  0
    7.4592  -14.8526   21.5499 C   0  0  1  0  0  0  0  0  0  0  0  0
    8.7835  -14.3307   21.0323 C   0  0  0  0  0  0  0  0  0  0  0  0
    7.7001  -15.9577   22.5372 C   0  0  2  0  0  0  0  0  0  0  0  0
    6.5099  -16.6147   22.9699 N   0  0  0  0  0  0  0  0  0  0  0  0
    8.5515  -15.5030   23.6708 C   0  0  0  0  0  0  0  0  0  0  0  0
    8.4188  -14.3348   24.1049 O   0  0  0  0  0  0  0  0  0  0  0  0
    9.2364  -12.7904   27.5561 C   0  0  0  0  0  0  0  0  0  0  0  0
    9.2737  -14.4232   28.3396 S   0  0  0  0  0  0  0  0  0  0  0  0
    9.0088  -15.6748   27.0173 C   0  0  0  0  0  0  0  0  0  0  0  0
   10.3448  -16.1235   26.5223 C   0  0  0  0  0  0  0  0  0  0  0  0
   10.5501  -15.7668   25.0920 C   0  0  2  0  0  0  0  0  0  0  0  0
    9.4960  -16.3710   24.2521 N   0  0  0  0  0  0  0  0  0  0  0  0
   11.8757  -16.1633   24.5837 C   0  0  0  0  0  0  0  0  0  0  0  0
   12.0784  -17.0416   23.7323 O   0  0  0  0  0  0  0  0  0  0  0  0
   13.0208  -15.5144   25.0825 O   0  0  0  0  0  0  0  0  0  0  0  0
  1  2  1  0
  3  2  1  0
  4  3  2  0
  6  5  1  1
  6  8  1  0
  7  6  1  0
  8  9  1  1
  8 10  1  0
  9  3  1  0
 10 17  1  0
 11 10  2  0
 12 13  1  0
 13 14  1  0
 16 15  1  1
 15 14  1  0
 16 18  1  0
 17 16  1  0
 18 19  2  0
 18 20  1  0
M  END
$$$$
