TNI.pdb
     RDKit          3D

 24 23  0  0  1  0  0  0  0  0999 V2000
    8.6123  -12.4506   18.7652 C   0  0  0  0  0  0  0  0  0  0  0  0
    8.5814  -13.2519   20.0313 C   0  0  1  0  0  0  0  0  0  0  0  0
    7.8523  -12.5981   21.0125 O   0  0  0  0  0  0  0  0  0  0  0  0
    8.0066  -14.6395   19.8528 C   0  0  2  0  0  0  0  0  0  0  0  0
    6.7111  -14.6359   19.2453 N   0  0  0  0  0  0  0  0  0  0  0  0
    8.0179  -15.4050   21.1361 C   0  0  0  0  0  0  0  0  0  0  0  0
    6.9456  -15.5666   21.7719 O   0  0  0  0  0  0  0  0  0  0  0  0
   11.4747  -19.1156   24.3494 N   0  0  0  0  0  0  0  0  0  0  0  0
   10.1492  -18.7698   23.9895 C   0  0  0  0  0  0  0  0  0  0  0  0
    9.2399  -19.1900   24.7372 O   0  0  0  0  0  0  0  0  0  0  0  0
    9.9254  -17.9675   22.8031 C   0  0  0  0  0  0  0  0  0  0  0  0
    9.1424  -16.7212   22.9257 C   0  0  2  0  0  0  0  0  0  0  0  0
    9.2108  -15.9601   21.6649 N   0  0  0  0  0  0  0  0  0  0  0  0
    9.3917  -15.8430   24.0597 C   0  0  0  0  0  0  0  0  0  0  0  0
   10.3690  -15.0343   24.0053 O   0  0  0  0  0  0  0  0  0  0  0  0
    6.2498  -12.2314   25.6062 C   0  0  0  0  0  0  0  0  0  0  0  0
    7.3608  -13.1716   25.4910 C   0  0  0  0  0  0  0  0  0  0  0  0
    7.8782  -13.9461   26.6293 C   0  0  2  0  0  0  0  0  0  0  0  0
    8.1848  -12.9575   27.7605 C   0  0  0  0  0  0  0  0  0  0  0  0
    8.9315  -14.9041   26.3855 C   0  0  2  0  0  0  0  0  0  0  0  0
    8.6561  -15.7820   25.2337 N   0  0  0  0  0  0  0  0  0  0  0  0
    9.4857  -15.7462   27.4208 C   0  0  0  0  0  0  0  0  0  0  0  0
    9.1145  -16.9815   27.4777 O   0  0  0  0  0  0  0  0  0  0  0  0
   10.3960  -15.4369   28.4060 O   0  0  0  0  0  0  0  0  0  0  0  0
  2  3  1  0
  2  1  1  6
  4  2  1  0
  4  5  1  1
  6  7  2  0
  6  4  1  0
  9  8  1  0
  9 11  1  0
 10  9  2  0
 12 11  1  6
 12 13  1  0
 13  6  1  0
 14 12  1  0
 15 14  2  0
 17 16  1  0
 18 17  1  0
 18 20  1  0
 18 19  1  1
 20 22  1  0
 20 21  1  6
 21 14  1  0
 22 24  1  0
 23 22  2  0
M  END
$$$$
