TNI.pdb
     RDKit          3D

 24 23  0  0  1  0  0  0  0  0999 V2000
    9.6354  -13.9240   18.2865 C   0  0  0  0  0  0  0  0  0  0  0  0
    9.1285  -14.3676   19.6253 C   0  0  1  0  0  0  0  0  0  0  0  0
    9.4641  -13.4507   20.6095 O   0  0  0  0  0  0  0  0  0  0  0  0
    7.6320  -14.5831   19.6623 C   0  0  2  0  0  0  0  0  0  0  0  0
    6.8906  -13.4494   19.2012 N   0  0  0  0  0  0  0  0  0  0  0  0
    7.1779  -15.0338   21.0128 C   0  0  0  0  0  0  0  0  0  0  0  0
    6.4772  -14.2664   21.7201 O   0  0  0  0  0  0  0  0  0  0  0  0
    7.3321  -19.8325   24.6853 N   0  0  0  0  0  0  0  0  0  0  0  0
    6.5617  -18.7239   24.2569 C   0  0  0  0  0  0  0  0  0  0  0  0
    5.6766  -18.3219   25.0427 O   0  0  0  0  0  0  0  0  0  0  0  0
    6.8351  -18.1313   22.9626 C   0  0  0  0  0  0  0  0  0  0  0  0
    7.0626  -16.6742   22.8824 C   0  0  2  0  0  0  0  0  0  0  0  0
    7.5156  -16.3113   21.5270 N   0  0  0  0  0  0  0  0  0  0  0  0
    7.9064  -16.0382   23.8838 C   0  0  0  0  0  0  0  0  0  0  0  0
    9.1584  -15.9778   23.6813 O   0  0  0  0  0  0  0  0  0  0  0  0
    6.1609  -11.4899   25.9012 C   0  0  0  0  0  0  0  0  0  0  0  0
    6.9712  -12.6411   25.5144 C   0  0  0  0  0  0  0  0  0  0  0  0
    7.6720  -13.4928   26.4873 C   0  0  2  0  0  0  0  0  0  0  0  0
    8.5779  -12.5858   27.3285 C   0  0  0  0  0  0  0  0  0  0  0  0
    8.3226  -14.6902   26.0081 C   0  0  2  0  0  0  0  0  0  0  0  0
    7.4856  -15.4661   25.0749 N   0  0  0  0  0  0  0  0  0  0  0  0
    8.9557  -15.6480   26.8856 C   0  0  0  0  0  0  0  0  0  0  0  0
    8.2774  -16.6769   27.2703 O   0  0  0  0  0  0  0  0  0  0  0  0
   10.2311  -15.6499   27.4035 O   0  0  0  0  0  0  0  0  0  0  0  0
  2  3  1  0
  2  1  1  6
  4  2  1  0
  4  5  1  1
  6  7  2  0
  6  4  1  0
  9  8  1  0
  9 11  1  0
 10  9  2  0
 12 11  1  6
 12 13  1  0
 13  6  1  0
 14 12  1  0
 15 14  2  0
 17 16  1  0
 18 17  1  0
 18 20  1  0
 18 19  1  6
 20 22  1  0
 20 21  1  1
 21 14  1  0
 22 24  1  0
 23 22  2  0
M  END
$$$$
