TNI.pdb
     RDKit          3D

 24 23  0  0  1  0  0  0  0  0999 V2000
    9.2922  -12.4274   18.3637 C   0  0  0  0  0  0  0  0  0  0  0  0
    8.9780  -13.1685   19.6278 C   0  0  1  0  0  0  0  0  0  0  0  0
    8.2101  -12.3897   20.4797 O   0  0  0  0  0  0  0  0  0  0  0  0
    8.2569  -14.4776   19.3958 C   0  0  2  0  0  0  0  0  0  0  0  0
    7.0578  -14.3291   18.6290 N   0  0  0  0  0  0  0  0  0  0  0  0
    8.0108  -15.2010   20.6800 C   0  0  0  0  0  0  0  0  0  0  0  0
    6.8538  -15.2177   21.1712 O   0  0  0  0  0  0  0  0  0  0  0  0
   11.3035  -18.5396   21.2520 N   0  0  0  0  0  0  0  0  0  0  0  0
   10.7131  -18.1444   22.4774 C   0  0  0  0  0  0  0  0  0  0  0  0
   11.4905  -17.9658   23.4398 O   0  0  0  0  0  0  0  0  0  0  0  0
    9.2754  -17.9731   22.5463 C   0  0  0  0  0  0  0  0  0  0  0  0
    8.7254  -16.6038   22.6090 C   0  0  2  0  0  0  0  0  0  0  0  0
    9.0505  -15.8756   21.3690 N   0  0  0  0  0  0  0  0  0  0  0  0
    9.0228  -15.7793   23.7714 C   0  0  0  0  0  0  0  0  0  0  0  0
   10.0248  -15.0005   23.7301 O   0  0  0  0  0  0  0  0  0  0  0  0
    5.9022  -12.2221   25.4803 C   0  0  0  0  0  0  0  0  0  0  0  0
    7.0540  -13.1069   25.3319 C   0  0  0  0  0  0  0  0  0  0  0  0
    7.5687  -13.9449   26.4256 C   0  0  2  0  0  0  0  0  0  0  0  0
    7.8835  -13.0208   27.6079 C   0  0  0  0  0  0  0  0  0  0  0  0
    8.6155  -14.8948   26.1282 C   0  0  2  0  0  0  0  0  0  0  0  0
    8.3102  -15.7412   24.9604 N   0  0  0  0  0  0  0  0  0  0  0  0
    9.1970  -15.7643   27.1252 C   0  0  0  0  0  0  0  0  0  0  0  0
    8.7926  -16.9888   27.1893 O   0  0  0  0  0  0  0  0  0  0  0  0
   10.1656  -15.4928   28.0647 O   0  0  0  0  0  0  0  0  0  0  0  0
  2  3  1  0
  2  1  1  6
  4  2  1  0
  4  5  1  1
  6  7  2  0
  6  4  1  0
  9  8  1  0
  9 11  1  0
 10  9  2  0
 12 11  1  1
 12 13  1  0
 13  6  1  0
 14 12  1  0
 15 14  2  0
 17 16  1  0
 18 17  1  0
 18 20  1  0
 18 19  1  1
 20 22  1  0
 20 21  1  6
 21 14  1  0
 22 24  1  0
 23 22  2  0
M  END
$$$$
