TNI.pdb
     RDKit          3D

 24 23  0  0  1  0  0  0  0  0999 V2000
    7.9207  -12.5667   17.4361 C   0  0  0  0  0  0  0  0  0  0  0  0
    7.7828  -13.6782   18.4320 C   0  0  1  0  0  0  0  0  0  0  0  0
    7.9747  -14.9107   17.8270 O   0  0  0  0  0  0  0  0  0  0  0  0
    8.7382  -13.5640   19.5990 C   0  0  2  0  0  0  0  0  0  0  0  0
   10.1123  -13.6527   19.2096 N   0  0  0  0  0  0  0  0  0  0  0  0
    8.4011  -14.5405   20.6788 C   0  0  0  0  0  0  0  0  0  0  0  0
    7.2490  -14.5369   21.1814 O   0  0  0  0  0  0  0  0  0  0  0  0
    8.6634  -19.6370   23.3254 N   0  0  0  0  0  0  0  0  0  0  0  0
    9.5790  -18.5565   23.3119 C   0  0  0  0  0  0  0  0  0  0  0  0
   10.3293  -18.4478   24.3057 O   0  0  0  0  0  0  0  0  0  0  0  0
    9.5952  -17.6582   22.1744 C   0  0  0  0  0  0  0  0  0  0  0  0
    8.9929  -16.3174   22.3194 C   0  0  2  0  0  0  0  0  0  0  0  0
    9.3484  -15.4799   21.1594 N   0  0  0  0  0  0  0  0  0  0  0  0
    9.2052  -15.5815   23.5574 C   0  0  0  0  0  0  0  0  0  0  0  0
   10.2760  -14.9137   23.6974 O   0  0  0  0  0  0  0  0  0  0  0  0
    6.8383  -11.4017   27.0624 C   0  0  0  0  0  0  0  0  0  0  0  0
    7.7339  -12.5454   26.9160 C   0  0  0  0  0  0  0  0  0  0  0  0
    7.5735  -13.5612   25.8645 C   0  0  2  0  0  0  0  0  0  0  0  0
    6.0997  -13.9837   25.8502 C   0  0  0  0  0  0  0  0  0  0  0  0
    8.5016  -14.6677   25.8318 C   0  0  2  0  0  0  0  0  0  0  0  0
    8.3401  -15.5196   24.6395 N   0  0  0  0  0  0  0  0  0  0  0  0
    8.7034  -15.5601   26.9503 C   0  0  0  0  0  0  0  0  0  0  0  0
    8.2471  -16.7652   26.8699 O   0  0  0  0  0  0  0  0  0  0  0  0
    9.3395  -15.3299   28.1491 O   0  0  0  0  0  0  0  0  0  0  0  0
  2  3  1  0
  2  1  1  6
  4  2  1  0
  4  5  1  6
  6  7  2  0
  6  4  1  0
  9  8  1  0
  9 11  1  0
 10  9  2  0
 12 11  1  1
 12 13  1  0
 13  6  1  0
 14 12  1  0
 15 14  2  0
 17 16  1  0
 18 17  1  0
 18 20  1  0
 18 19  1  1
 20 22  1  0
 20 21  1  6
 21 14  1  0
 22 24  1  0
 23 22  2  0
M  END
$$$$
