TNI.pdb
     RDKit          3D

 24 23  0  0  1  0  0  0  0  0999 V2000
    8.2404  -12.7721   18.1526 C   0  0  0  0  0  0  0  0  0  0  0  0
    7.5307  -13.4990   19.2544 C   0  0  1  0  0  0  0  0  0  0  0  0
    6.2492  -13.8570   18.8652 O   0  0  0  0  0  0  0  0  0  0  0  0
    8.2544  -14.7428   19.7201 C   0  0  2  0  0  0  0  0  0  0  0  0
    8.4025  -15.7244   18.6894 N   0  0  0  0  0  0  0  0  0  0  0  0
    7.6232  -15.3150   20.9477 C   0  0  0  0  0  0  0  0  0  0  0  0
    6.4463  -15.7535   20.8938 O   0  0  0  0  0  0  0  0  0  0  0  0
    7.2906  -19.5308   24.2373 N   0  0  0  0  0  0  0  0  0  0  0  0
    6.7034  -18.2647   23.9955 C   0  0  0  0  0  0  0  0  0  0  0  0
    5.7152  -17.9639   24.6993 O   0  0  0  0  0  0  0  0  0  0  0  0
    7.2667  -17.4087   22.9703 C   0  0  0  0  0  0  0  0  0  0  0  0
    7.6604  -16.0319   23.3319 C   0  0  2  0  0  0  0  0  0  0  0  0
    8.3156  -15.3797   22.1834 N   0  0  0  0  0  0  0  0  0  0  0  0
    8.4371  -15.8183   24.5445 C   0  0  0  0  0  0  0  0  0  0  0  0
    9.6805  -16.0752   24.5290 O   0  0  0  0  0  0  0  0  0  0  0  0
    6.3446  -11.7340   27.2742 C   0  0  0  0  0  0  0  0  0  0  0  0
    7.3049  -12.6711   26.6985 C   0  0  0  0  0  0  0  0  0  0  0  0
    8.0511  -13.6510   27.5024 C   0  0  2  0  0  0  0  0  0  0  0  0
    8.9099  -12.8699   28.5040 C   0  0  0  0  0  0  0  0  0  0  0  0
    8.7624  -14.7036   26.8148 C   0  0  2  0  0  0  0  0  0  0  0  0
    7.9601  -15.3455   25.7577 N   0  0  0  0  0  0  0  0  0  0  0  0
    9.4579  -15.7657   27.5049 C   0  0  0  0  0  0  0  0  0  0  0  0
   10.5787  -15.4954   28.0861 O   0  0  0  0  0  0  0  0  0  0  0  0
    9.1041  -17.0869   27.6594 O   0  0  0  0  0  0  0  0  0  0  0  0
  2  3  1  0
  2  1  1  6
  4  2  1  0
  4  5  1  6
  6  7  2  0
  6  4  1  0
  9  8  1  0
  9 11  1  0
 10  9  2  0
 12 11  1  6
 12 13  1  0
 13  6  1  0
 14 12  1  0
 15 14  2  0
 17 16  1  0
 18 17  1  0
 18 20  1  0
 18 19  1  6
 20 22  1  0
 20 21  1  6
 21 14  1  0
 22 24  1  0
 23 22  2  0
M  END
$$$$
