TNI.pdb
     RDKit          3D

 24 23  0  0  1  0  0  0  0  0999 V2000
    8.9908  -12.5930   20.2663 C   0  0  0  0  0  0  0  0  0  0  0  0
    7.9881  -13.2139   19.3416 C   0  0  1  0  0  0  0  0  0  0  0  0
    8.0880  -12.6730   18.0690 O   0  0  0  0  0  0  0  0  0  0  0  0
    8.1170  -14.7170   19.2341 C   0  0  2  0  0  0  0  0  0  0  0  0
    7.2102  -15.2914   18.2877 N   0  0  0  0  0  0  0  0  0  0  0  0
    8.0130  -15.3717   20.5733 C   0  0  0  0  0  0  0  0  0  0  0  0
    6.8796  -15.5897   21.0713 O   0  0  0  0  0  0  0  0  0  0  0  0
   10.4908  -18.9924   20.6135 N   0  0  0  0  0  0  0  0  0  0  0  0
    9.4724  -18.6888   21.5499 C   0  0  0  0  0  0  0  0  0  0  0  0
    8.3863  -19.2912   21.4088 O   0  0  0  0  0  0  0  0  0  0  0  0
    9.7391  -17.7199   22.5946 C   0  0  0  0  0  0  0  0  0  0  0  0
    8.9829  -16.4512   22.5965 C   0  0  2  0  0  0  0  0  0  0  0  0
    9.1627  -15.7583   21.3076 N   0  0  0  0  0  0  0  0  0  0  0  0
    9.1728  -15.5213   23.7004 C   0  0  0  0  0  0  0  0  0  0  0  0
   10.2162  -14.7981   23.7198 O   0  0  0  0  0  0  0  0  0  0  0  0
    5.6812  -11.9845   25.3053 C   0  0  0  0  0  0  0  0  0  0  0  0
    6.8654  -12.8223   25.1400 C   0  0  0  0  0  0  0  0  0  0  0  0
    7.4746  -13.5782   26.2449 C   0  0  2  0  0  0  0  0  0  0  0  0
    7.7707  -12.5865   27.3761 C   0  0  0  0  0  0  0  0  0  0  0  0
    8.5705  -14.4699   25.9442 C   0  0  2  0  0  0  0  0  0  0  0  0
    8.3128  -15.3235   24.7702 N   0  0  0  0  0  0  0  0  0  0  0  0
    9.1943  -15.3143   26.9372 C   0  0  0  0  0  0  0  0  0  0  0  0
   10.2031  -14.8515   27.5968 O   0  0  0  0  0  0  0  0  0  0  0  0
    8.8727  -16.5962   27.3220 O   0  0  0  0  0  0  0  0  0  0  0  0
  2  3  1  0
  2  1  1  1
  4  2  1  0
  4  5  1  6
  6  7  2  0
  6  4  1  0
  9  8  1  0
  9 11  1  0
 10  9  2  0
 12 11  1  1
 12 13  1  0
 13  6  1  0
 14 12  1  0
 15 14  2  0
 17 16  1  0
 18 17  1  0
 18 20  1  0
 18 19  1  1
 20 22  1  0
 20 21  1  6
 21 14  1  0
 22 24  1  0
 23 22  2  0
M  END
$$$$
