TNI.pdb
     RDKit          3D

 24 23  0  0  1  0  0  0  0  0999 V2000
    8.7161  -12.6149   20.3031 C   0  0  0  0  0  0  0  0  0  0  0  0
    7.8004  -13.4106   19.4231 C   0  0  1  0  0  0  0  0  0  0  0  0
    7.8203  -12.9276   18.1238 O   0  0  0  0  0  0  0  0  0  0  0  0
    8.1281  -14.8868   19.3900 C   0  0  2  0  0  0  0  0  0  0  0  0
    7.2464  -15.6382   18.5500 N   0  0  0  0  0  0  0  0  0  0  0  0
    8.2080  -15.4600   20.7677 C   0  0  0  0  0  0  0  0  0  0  0  0
    7.1514  -15.6636   21.4175 O   0  0  0  0  0  0  0  0  0  0  0  0
    9.3897  -19.5623   21.6895 N   0  0  0  0  0  0  0  0  0  0  0  0
   10.3877  -18.5591   21.6276 C   0  0  0  0  0  0  0  0  0  0  0  0
   11.1675  -18.6067   20.6519 O   0  0  0  0  0  0  0  0  0  0  0  0
   10.4484  -17.5572   22.6734 C   0  0  0  0  0  0  0  0  0  0  0  0
    9.4471  -16.4715   22.6758 C   0  0  2  0  0  0  0  0  0  0  0  0
    9.4494  -15.7844   21.3714 N   0  0  0  0  0  0  0  0  0  0  0  0
    9.4675  -15.4988   23.7588 C   0  0  0  0  0  0  0  0  0  0  0  0
   10.3328  -14.5700   23.7321 O   0  0  0  0  0  0  0  0  0  0  0  0
    6.1206  -11.9983   25.2145 C   0  0  0  0  0  0  0  0  0  0  0  0
    7.2931  -12.8665   25.1587 C   0  0  0  0  0  0  0  0  0  0  0  0
    7.7201  -13.7121   26.2839 C   0  0  2  0  0  0  0  0  0  0  0  0
    7.9220  -12.7986   27.4986 C   0  0  0  0  0  0  0  0  0  0  0  0
    8.7986  -14.6485   26.0680 C   0  0  2  0  0  0  0  0  0  0  0  0
    8.6177  -15.4653   24.8541 N   0  0  0  0  0  0  0  0  0  0  0  0
    9.2845  -15.5411   27.0953 C   0  0  0  0  0  0  0  0  0  0  0  0
    9.8210  -15.0321   28.1536 O   0  0  0  0  0  0  0  0  0  0  0  0
    9.2653  -16.9168   27.1393 O   0  0  0  0  0  0  0  0  0  0  0  0
  2  3  1  0
  2  1  1  1
  4  2  1  0
  4  5  1  6
  6  7  2  0
  6  4  1  0
  9  8  1  0
  9 11  1  0
 10  9  2  0
 12 11  1  6
 12 13  1  0
 13  6  1  0
 14 12  1  0
 15 14  2  0
 17 16  1  0
 18 17  1  0
 18 20  1  0
 18 19  1  1
 20 22  1  0
 20 21  1  6
 21 14  1  0
 22 24  1  0
 23 22  2  0
M  END
$$$$
