TNI.pdb
     RDKit          3D

 24 23  0  0  1  0  0  0  0  0999 V2000
    8.5679  -12.6175   20.0362 C   0  0  0  0  0  0  0  0  0  0  0  0
    8.0967  -13.3764   18.8329 C   0  0  1  0  0  0  0  0  0  0  0  0
    8.7417  -12.9364   17.6872 O   0  0  0  0  0  0  0  0  0  0  0  0
    8.2928  -14.8716   18.9481 C   0  0  2  0  0  0  0  0  0  0  0  0
    7.8620  -15.5850   17.7849 N   0  0  0  0  0  0  0  0  0  0  0  0
    7.6690  -15.4102   20.1947 C   0  0  0  0  0  0  0  0  0  0  0  0
    6.4179  -15.5040   20.2721 O   0  0  0  0  0  0  0  0  0  0  0  0
    5.7339  -18.3512   24.0109 N   0  0  0  0  0  0  0  0  0  0  0  0
    7.1210  -18.3817   23.7260 C   0  0  0  0  0  0  0  0  0  0  0  0
    7.8464  -18.9847   24.5462 O   0  0  0  0  0  0  0  0  0  0  0  0
    7.6111  -17.7280   22.5286 C   0  0  0  0  0  0  0  0  0  0  0  0
    7.7644  -16.2590   22.5335 C   0  0  2  0  0  0  0  0  0  0  0  0
    8.4505  -15.8225   21.3037 N   0  0  0  0  0  0  0  0  0  0  0  0
    8.3585  -15.6180   23.6977 C   0  0  0  0  0  0  0  0  0  0  0  0
    9.6053  -15.3780   23.6956 O   0  0  0  0  0  0  0  0  0  0  0  0
    5.8537  -11.5307   25.9802 C   0  0  0  0  0  0  0  0  0  0  0  0
    6.8397  -12.5305   25.5805 C   0  0  0  0  0  0  0  0  0  0  0  0
    7.4557  -13.4735   26.5264 C   0  0  2  0  0  0  0  0  0  0  0  0
    8.1109  -12.6493   27.6409 C   0  0  0  0  0  0  0  0  0  0  0  0
    8.2976  -14.5224   25.9996 C   0  0  2  0  0  0  0  0  0  0  0  0
    7.6958  -15.2208   24.8492 N   0  0  0  0  0  0  0  0  0  0  0  0
    8.8998  -15.5408   26.8294 C   0  0  0  0  0  0  0  0  0  0  0  0
    8.2741  -16.6589   26.9880 O   0  0  0  0  0  0  0  0  0  0  0  0
   10.0954  -15.5193   27.5112 O   0  0  0  0  0  0  0  0  0  0  0  0
  2  3  1  0
  2  1  1  1
  4  2  1  0
  4  5  1  6
  6  7  2  0
  6  4  1  0
  9  8  1  0
  9 11  1  0
 10  9  2  0
 12 11  1  1
 12 13  1  0
 13  6  1  0
 14 12  1  0
 15 14  2  0
 17 16  1  0
 18 17  1  0
 18 20  1  0
 18 19  1  1
 20 22  1  0
 20 21  1  6
 21 14  1  0
 22 24  1  0
 23 22  2  0
M  END
$$$$
