TNI.pdb
     RDKit          3D

 24 23  0  0  1  0  0  0  0  0999 V2000
    8.7212  -12.5180   20.2533 C   0  0  0  0  0  0  0  0  0  0  0  0
    8.1252  -13.1899   19.0536 C   0  0  1  0  0  0  0  0  0  0  0  0
    8.6210  -12.6397   17.8817 O   0  0  0  0  0  0  0  0  0  0  0  0
    8.3623  -14.6832   19.0189 C   0  0  2  0  0  0  0  0  0  0  0  0
    7.7479  -15.3226   17.8958 N   0  0  0  0  0  0  0  0  0  0  0  0
    7.9728  -15.3286   20.3092 C   0  0  0  0  0  0  0  0  0  0  0  0
    6.7557  -15.4670   20.5914 O   0  0  0  0  0  0  0  0  0  0  0  0
    9.2682  -19.2489   20.4956 N   0  0  0  0  0  0  0  0  0  0  0  0
    8.3291  -18.6733   21.3860 C   0  0  0  0  0  0  0  0  0  0  0  0
    7.1238  -18.9140   21.1586 O   0  0  0  0  0  0  0  0  0  0  0  0
    8.8055  -17.8567   22.4848 C   0  0  0  0  0  0  0  0  0  0  0  0
    8.4831  -16.4154   22.4905 C   0  0  2  0  0  0  0  0  0  0  0  0
    8.9413  -15.7941   21.2344 N   0  0  0  0  0  0  0  0  0  0  0  0
    8.8912  -15.6082   23.6312 C   0  0  0  0  0  0  0  0  0  0  0  0
   10.0454  -15.0790   23.6258 O   0  0  0  0  0  0  0  0  0  0  0  0
    5.6985  -11.9637   25.7032 C   0  0  0  0  0  0  0  0  0  0  0  0
    6.8213  -12.8356   25.3706 C   0  0  0  0  0  0  0  0  0  0  0  0
    7.5627  -13.6094   26.3781 C   0  0  2  0  0  0  0  0  0  0  0  0
    8.0582  -12.6256   27.4446 C   0  0  0  0  0  0  0  0  0  0  0  0
    8.5703  -14.5395   25.9242 C   0  0  2  0  0  0  0  0  0  0  0  0
    8.1365  -15.3368   24.7625 N   0  0  0  0  0  0  0  0  0  0  0  0
    9.2610  -15.4477   26.8110 C   0  0  0  0  0  0  0  0  0  0  0  0
    8.7672  -16.6261   26.9963 O   0  0  0  0  0  0  0  0  0  0  0  0
   10.4223  -15.2586   27.5254 O   0  0  0  0  0  0  0  0  0  0  0  0
  2  3  1  0
  2  1  1  1
  4  2  1  0
  4  5  1  6
  6  7  2  0
  6  4  1  0
  9  8  1  0
  9 11  1  0
 10  9  2  0
 12 11  1  1
 12 13  1  0
 13  6  1  0
 14 12  1  0
 15 14  2  0
 17 16  1  0
 18 17  1  0
 18 20  1  0
 18 19  1  1
 20 22  1  0
 20 21  1  6
 21 14  1  0
 22 24  1  0
 23 22  2  0
M  END
$$$$
