TNI.pdb
     RDKit          3D

 24 23  0  0  1  0  0  0  0  0999 V2000
    7.1352  -12.7992   19.3910 C   0  0  0  0  0  0  0  0  0  0  0  0
    7.7576  -13.6173   20.4815 C   0  0  1  0  0  0  0  0  0  0  0  0
    6.9179  -13.6948   21.5819 O   0  0  0  0  0  0  0  0  0  0  0  0
    8.1143  -15.0229   20.0520 C   0  0  2  0  0  0  0  0  0  0  0  0
    7.0274  -15.7105   19.4246 N   0  0  0  0  0  0  0  0  0  0  0  0
    8.6925  -15.8099   21.1831 C   0  0  0  0  0  0  0  0  0  0  0  0
    8.0629  -16.7988   21.6369 O   0  0  0  0  0  0  0  0  0  0  0  0
   11.5319  -18.4078   21.1087 N   0  0  0  0  0  0  0  0  0  0  0  0
   12.3970  -17.3962   21.5928 C   0  0  0  0  0  0  0  0  0  0  0  0
   13.5285  -17.3297   21.0657 O   0  0  0  0  0  0  0  0  0  0  0  0
   11.9342  -16.5155   22.6470 C   0  0  0  0  0  0  0  0  0  0  0  0
   10.4804  -16.3348   22.8345 C   0  0  2  0  0  0  0  0  0  0  0  0
    9.9403  -15.4737   21.7666 N   0  0  0  0  0  0  0  0  0  0  0  0
    9.9880  -15.8979   24.1329 C   0  0  0  0  0  0  0  0  0  0  0  0
   10.5568  -16.3319   25.1818 O   0  0  0  0  0  0  0  0  0  0  0  0
    8.0665  -11.7144   27.3022 C   0  0  0  0  0  0  0  0  0  0  0  0
    7.1886  -12.7849   26.8388 C   0  0  0  0  0  0  0  0  0  0  0  0
    7.4468  -13.5629   25.6176 C   0  0  2  0  0  0  0  0  0  0  0  0
    6.0891  -13.9542   25.0224 C   0  0  0  0  0  0  0  0  0  0  0  0
    8.3939  -14.6516   25.6849 C   0  0  2  0  0  0  0  0  0  0  0  0
    8.9338  -15.0274   24.3656 N   0  0  0  0  0  0  0  0  0  0  0  0
    8.1265  -15.8863   26.3863 C   0  0  0  0  0  0  0  0  0  0  0  0
    7.5561  -16.8508   25.7450 O   0  0  0  0  0  0  0  0  0  0  0  0
    8.3974  -16.2267   27.6923 O   0  0  0  0  0  0  0  0  0  0  0  0
  2  3  1  0
  2  1  1  6
  4  2  1  0
  4  5  1  1
  6  7  2  0
  6  4  1  0
  9  8  1  0
  9 11  1  0
 10  9  2  0
 12 11  1  1
 12 13  1  0
 13  6  1  0
 14 12  1  0
 15 14  2  0
 17 16  1  0
 18 17  1  0
 18 20  1  0
 18 19  1  1
 20 22  1  0
 20 21  1  6
 21 14  1  0
 22 24  1  0
 23 22  2  0
M  END
$$$$
