TNI.pdb
     RDKit          3D

 24 23  0  0  1  0  0  0  0  0999 V2000
    9.0473  -12.9388   18.5042 C   0  0  0  0  0  0  0  0  0  0  0  0
    8.7357  -13.5627   19.8307 C   0  0  1  0  0  0  0  0  0  0  0  0
    8.3120  -12.6056   20.7399 O   0  0  0  0  0  0  0  0  0  0  0  0
    7.6855  -14.6484   19.7546 C   0  0  2  0  0  0  0  0  0  0  0  0
    6.4557  -14.1995   19.1771 N   0  0  0  0  0  0  0  0  0  0  0  0
    7.4727  -15.2971   21.0838 C   0  0  0  0  0  0  0  0  0  0  0  0
    6.4258  -15.0502   21.7344 O   0  0  0  0  0  0  0  0  0  0  0  0
   10.6849  -18.9900   23.9880 N   0  0  0  0  0  0  0  0  0  0  0  0
    9.9590  -18.5151   22.8683 C   0  0  0  0  0  0  0  0  0  0  0  0
   10.5868  -18.4304   21.7908 O   0  0  0  0  0  0  0  0  0  0  0  0
    8.5624  -18.1620   23.0296 C   0  0  0  0  0  0  0  0  0  0  0  0
    8.1811  -16.7357   22.9886 C   0  0  2  0  0  0  0  0  0  0  0  0
    8.4228  -16.1906   21.6402 N   0  0  0  0  0  0  0  0  0  0  0  0
    8.7157  -15.8356   24.0003 C   0  0  0  0  0  0  0  0  0  0  0  0
    9.7353  -15.1333   23.7185 O   0  0  0  0  0  0  0  0  0  0  0  0
    5.9542  -12.0205   25.7926 C   0  0  0  0  0  0  0  0  0  0  0  0
    7.0550  -12.9491   25.5531 C   0  0  0  0  0  0  0  0  0  0  0  0
    7.7384  -13.6793   26.6315 C   0  0  2  0  0  0  0  0  0  0  0  0
    8.2431  -12.6442   27.6437 C   0  0  0  0  0  0  0  0  0  0  0  0
    8.7209  -14.6750   26.2709 C   0  0  2  0  0  0  0  0  0  0  0  0
    8.2200  -15.6463   25.2815 N   0  0  0  0  0  0  0  0  0  0  0  0
    9.4703  -15.4322   27.2471 C   0  0  0  0  0  0  0  0  0  0  0  0
    9.1331  -16.6583   27.4703 O   0  0  0  0  0  0  0  0  0  0  0  0
   10.5446  -15.0462   28.0164 O   0  0  0  0  0  0  0  0  0  0  0  0
  2  3  1  0
  2  1  1  6
  4  2  1  0
  4  5  1  1
  6  7  2  0
  6  4  1  0
  9  8  1  0
  9 11  1  0
 10  9  2  0
 12 11  1  6
 12 13  1  0
 13  6  1  0
 14 12  1  0
 15 14  2  0
 17 16  1  0
 18 17  1  0
 18 20  1  0
 18 19  1  1
 20 22  1  0
 20 21  1  1
 21 14  1  0
 22 24  1  0
 23 22  2  0
M  END
$$$$
