TGC.pdb
     RDKit          3D

 18 17  0  0  1  0  0  0  0  0999 V2000
   14.6114  -11.3582  -17.8601 C   0  0  0  0  0  0  0  0  0  0  0  0
   16.0312  -10.9776  -17.5878 C   0  0  1  0  0  0  0  0  0  0  0  0
   16.5659  -10.3896  -18.7449 O   0  0  0  0  0  0  0  0  0  0  0  0
   16.1133   -9.9042  -16.4988 C   0  0  2  0  0  0  0  0  0  0  0  0
   15.4202   -8.7541  -16.9929 N   0  0  0  0  0  0  0  0  0  0  0  0
   17.5233   -9.6025  -16.1450 C   0  0  0  0  0  0  0  0  0  0  0  0
   18.2157  -10.3936  -15.4613 O   0  0  0  0  0  0  0  0  0  0  0  0
   18.1137   -8.3894  -16.5869 N   0  0  0  0  0  0  0  0  0  0  0  0
   19.4357   -7.9700  -16.2619 C   0  0  0  0  0  0  0  0  0  0  0  0
   19.4937   -7.0155  -15.1371 C   0  0  0  0  0  0  0  0  0  0  0  0
   18.4528   -6.4123  -14.7738 O   0  0  0  0  0  0  0  0  0  0  0  0
   20.7140   -6.7686  -14.4577 N   0  0  0  0  0  0  0  0  0  0  0  0
   20.8740   -5.7930  -13.4148 C   0  0  1  0  0  0  0  0  0  0  0  0
   21.3655   -6.5217  -12.1663 C   0  0  0  0  0  0  0  0  0  0  0  0
   20.2167   -7.7919  -11.6240 S   0  0  0  0  0  0  0  0  0  0  0  0
   21.9193   -4.7762  -13.7706 C   0  0  0  0  0  0  0  0  0  0  0  0
   22.6915   -4.9513  -14.7460 O   0  0  0  0  0  0  0  0  0  0  0  0
   22.0361   -3.6292  -13.0154 O   0  0  0  0  0  0  0  0  0  0  0  0
  2  1  1  6
  3  2  1  0
  4  6  1  0
  4  5  1  6
  4  2  1  0
  6  7  2  0
  8  9  1  0
  8  6  1  0
 10 11  2  0
 10  9  1  0
 12 10  1  0
 13 12  1  0
 13 14  1  1
 14 15  1  0
 16 13  1  0
 17 16  2  0
 18 16  1  0
M  END
$$$$
