TGC.pdb
     RDKit          3D

 18 17  0  0  1  0  0  0  0  0999 V2000
   17.4444  -14.3008  -17.1842 C   0  0  0  0  0  0  0  0  0  0  0  0
   18.5211  -13.3924  -17.6846 C   0  0  1  0  0  0  0  0  0  0  0  0
   17.9251  -12.2170  -18.1680 O   0  0  0  0  0  0  0  0  0  0  0  0
   19.4438  -12.9532  -16.5441 C   0  0  2  0  0  0  0  0  0  0  0  0
   18.6229  -12.3011  -15.5705 N   0  0  0  0  0  0  0  0  0  0  0  0
   20.5335  -12.0754  -17.0404 C   0  0  0  0  0  0  0  0  0  0  0  0
   21.5089  -12.5331  -17.6820 O   0  0  0  0  0  0  0  0  0  0  0  0
   20.4802  -10.6795  -16.7877 N   0  0  0  0  0  0  0  0  0  0  0  0
   21.4054   -9.7293  -17.3079 C   0  0  0  0  0  0  0  0  0  0  0  0
   21.1614   -8.3498  -16.8417 C   0  0  0  0  0  0  0  0  0  0  0  0
   21.9209   -7.4201  -17.2134 O   0  0  0  0  0  0  0  0  0  0  0  0
   20.0765   -8.0581  -15.9760 N   0  0  0  0  0  0  0  0  0  0  0  0
   19.7420   -6.7378  -15.5180 C   0  0  1  0  0  0  0  0  0  0  0  0
   18.3524   -6.8009  -14.8885 C   0  0  0  0  0  0  0  0  0  0  0  0
   17.1734   -7.6692  -15.9293 S   0  0  0  0  0  0  0  0  0  0  0  0
   20.6879   -6.2718  -14.4497 C   0  0  0  0  0  0  0  0  0  0  0  0
   20.6487   -5.0936  -14.0152 O   0  0  0  0  0  0  0  0  0  0  0  0
   21.6169   -7.1500  -13.9345 O   0  0  0  0  0  0  0  0  0  0  0  0
  2  1  1  1
  3  2  1  0
  4  6  1  0
  4  5  1  1
  4  2  1  0
  6  7  2  0
  8  9  1  0
  8  6  1  0
 10 11  2  0
 10  9  1  0
 12 10  1  0
 13 12  1  0
 13 14  1  1
 14 15  1  0
 16 13  1  0
 17 16  2  0
 18 16  1  0
M  END
$$$$
