TGC.pdb
     RDKit          3D

 18 17  0  0  1  0  0  0  0  0999 V2000
   24.8548  -12.8833  -16.8494 C   0  0  0  0  0  0  0  0  0  0  0  0
   24.4371  -11.4680  -16.6098 C   0  0  1  0  0  0  0  0  0  0  0  0
   23.8434  -11.3862  -15.3404 O   0  0  0  0  0  0  0  0  0  0  0  0
   25.6519  -10.5369  -16.5625 C   0  0  2  0  0  0  0  0  0  0  0  0
   26.5628  -11.0872  -15.6062 N   0  0  0  0  0  0  0  0  0  0  0  0
   25.2528   -9.1473  -16.2249 C   0  0  0  0  0  0  0  0  0  0  0  0
   25.5202   -8.6361  -15.1114 O   0  0  0  0  0  0  0  0  0  0  0  0
   24.5494   -8.3674  -17.1801 N   0  0  0  0  0  0  0  0  0  0  0  0
   24.0856   -7.0396  -16.9539 C   0  0  0  0  0  0  0  0  0  0  0  0
   22.8424   -6.9745  -16.1602 C   0  0  0  0  0  0  0  0  0  0  0  0
   22.1439   -8.0077  -16.0053 O   0  0  0  0  0  0  0  0  0  0  0  0
   22.4236   -5.7560  -15.5674 N   0  0  0  0  0  0  0  0  0  0  0  0
   21.1551   -5.5682  -14.9188 C   0  0  1  0  0  0  0  0  0  0  0  0
   21.2845   -4.3715  -13.9795 C   0  0  0  0  0  0  0  0  0  0  0  0
   22.3677   -4.7136  -12.5876 S   0  0  0  0  0  0  0  0  0  0  0  0
   20.0768   -5.2357  -15.9086 C   0  0  0  0  0  0  0  0  0  0  0  0
   18.8736   -5.1543  -15.5566 O   0  0  0  0  0  0  0  0  0  0  0  0
   20.4099   -5.0154  -17.2278 O   0  0  0  0  0  0  0  0  0  0  0  0
  2  1  1  1
  3  2  1  0
  4  6  1  0
  4  5  1  1
  4  2  1  0
  6  7  2  0
  8  9  1  0
  8  6  1  0
 10 11  2  0
 10  9  1  0
 12 10  1  0
 13 12  1  0
 13 14  1  1
 14 15  1  0
 16 13  1  0
 17 16  2  0
 18 16  1  0
M  END
$$$$
