TGC.pdb
     RDKit          3D

 18 17  0  0  1  0  0  0  0  0999 V2000
   13.8813  -10.8276   -9.9057 C   0  0  0  0  0  0  0  0  0  0  0  0
   14.6867   -9.6004  -10.1886 C   0  0  1  0  0  0  0  0  0  0  0  0
   14.0128   -8.8365  -11.1545 O   0  0  0  0  0  0  0  0  0  0  0  0
   14.7854   -8.7094   -8.9471 C   0  0  2  0  0  0  0  0  0  0  0  0
   13.4492   -8.4828   -8.4885 N   0  0  0  0  0  0  0  0  0  0  0  0
   15.4994   -7.4430   -9.2483 C   0  0  0  0  0  0  0  0  0  0  0  0
   14.9433   -6.3260   -9.1227 O   0  0  0  0  0  0  0  0  0  0  0  0
   16.8476   -7.4856   -9.6909 N   0  0  0  0  0  0  0  0  0  0  0  0
   17.6489   -6.3365   -9.9494 C   0  0  0  0  0  0  0  0  0  0  0  0
   18.9938   -6.6575  -10.4669 C   0  0  0  0  0  0  0  0  0  0  0  0
   19.5922   -7.6849  -10.0599 O   0  0  0  0  0  0  0  0  0  0  0  0
   19.6228   -5.8182  -11.4217 N   0  0  0  0  0  0  0  0  0  0  0  0
   20.6974   -6.2356  -12.2795 C   0  0  1  0  0  0  0  0  0  0  0  0
   20.1891   -7.3951  -13.1329 C   0  0  0  0  0  0  0  0  0  0  0  0
   21.1053   -8.9114  -12.8346 S   0  0  0  0  0  0  0  0  0  0  0  0
   21.1036   -5.1406  -13.2224 C   0  0  0  0  0  0  0  0  0  0  0  0
   20.2691   -4.2996  -13.6404 O   0  0  0  0  0  0  0  0  0  0  0  0
   22.4146   -5.0540  -13.6386 O   0  0  0  0  0  0  0  0  0  0  0  0
  2  1  1  1
  3  2  1  0
  4  6  1  0
  4  5  1  6
  4  2  1  0
  6  7  2  0
  8  9  1  0
  8  6  1  0
 10 11  2  0
 10  9  1  0
 12 10  1  0
 13 12  1  0
 13 14  1  6
 14 15  1  0
 16 13  1  0
 17 16  2  0
 18 16  1  0
M  END
$$$$
