TGC.pdb
     RDKit          3D

 18 17  0  0  1  0  0  0  0  0999 V2000
   17.4264  -12.5359  -18.7266 C   0  0  0  0  0  0  0  0  0  0  0  0
   17.6706  -13.7052  -17.8277 C   0  0  1  0  0  0  0  0  0  0  0  0
   18.1511  -14.7722  -18.6030 O   0  0  0  0  0  0  0  0  0  0  0  0
   18.7750  -13.3970  -16.8127 C   0  0  2  0  0  0  0  0  0  0  0  0
   19.0849  -14.6251  -16.1471 N   0  0  0  0  0  0  0  0  0  0  0  0
   18.3548  -12.3339  -15.8654 C   0  0  0  0  0  0  0  0  0  0  0  0
   17.3703  -12.4811  -15.1028 O   0  0  0  0  0  0  0  0  0  0  0  0
   19.0793  -11.1142  -15.8130 N   0  0  0  0  0  0  0  0  0  0  0  0
   18.6692   -9.9626  -15.0815 C   0  0  0  0  0  0  0  0  0  0  0  0
   18.5942   -8.7369  -15.9012 C   0  0  0  0  0  0  0  0  0  0  0  0
   19.0733   -8.7307  -17.0630 O   0  0  0  0  0  0  0  0  0  0  0  0
   17.9860   -7.5609  -15.3929 N   0  0  0  0  0  0  0  0  0  0  0  0
   17.9121   -6.3167  -16.1082 C   0  0  1  0  0  0  0  0  0  0  0  0
   16.9047   -5.4239  -15.3878 C   0  0  0  0  0  0  0  0  0  0  0  0
   15.2801   -6.1831  -15.2779 S   0  0  0  0  0  0  0  0  0  0  0  0
   19.2287   -5.5959  -16.0924 C   0  0  0  0  0  0  0  0  0  0  0  0
   20.1958   -6.0230  -15.4137 O   0  0  0  0  0  0  0  0  0  0  0  0
   19.3819   -4.4447  -16.8346 O   0  0  0  0  0  0  0  0  0  0  0  0
  2  1  1  6
  3  2  1  0
  4  6  1  0
  4  5  1  1
  4  2  1  0
  6  7  2  0
  8  9  1  0
  8  6  1  0
 10 11  2  0
 10  9  1  0
 12 10  1  0
 13 12  1  0
 13 14  1  1
 14 15  1  0
 16 13  1  0
 17 16  2  0
 18 16  1  0
M  END
$$$$
