TGC.pdb
     RDKit          3D

 18 17  0  0  1  0  0  0  0  0999 V2000
   12.2692   -9.0958   -8.5875 C   0  0  0  0  0  0  0  0  0  0  0  0
   13.1937   -7.9595   -8.8856 C   0  0  1  0  0  0  0  0  0  0  0  0
   13.7739   -7.5282   -7.6823 O   0  0  0  0  0  0  0  0  0  0  0  0
   14.3579   -8.4154   -9.7697 C   0  0  2  0  0  0  0  0  0  0  0  0
   15.0312   -9.4635   -9.0658 N   0  0  0  0  0  0  0  0  0  0  0  0
   15.2627   -7.2841  -10.0948 C   0  0  0  0  0  0  0  0  0  0  0  0
   14.8635   -6.2834  -10.7365 O   0  0  0  0  0  0  0  0  0  0  0  0
   16.6176   -7.3255   -9.6730 N   0  0  0  0  0  0  0  0  0  0  0  0
   17.5695   -6.2933   -9.9131 C   0  0  0  0  0  0  0  0  0  0  0  0
   18.8281   -6.7775  -10.5141 C   0  0  0  0  0  0  0  0  0  0  0  0
   19.2304   -7.9428  -10.2701 O   0  0  0  0  0  0  0  0  0  0  0  0
   19.5930   -5.9415  -11.3671 N   0  0  0  0  0  0  0  0  0  0  0  0
   20.7667   -6.3704  -12.0767 C   0  0  1  0  0  0  0  0  0  0  0  0
   20.3700   -7.5463  -12.9661 C   0  0  0  0  0  0  0  0  0  0  0  0
   21.7659   -8.2042  -13.8860 S   0  0  0  0  0  0  0  0  0  0  0  0
   21.2862   -5.2907  -12.9809 C   0  0  0  0  0  0  0  0  0  0  0  0
   20.5054   -4.4881  -13.5506 O   0  0  0  0  0  0  0  0  0  0  0  0
   22.6434   -5.1756  -13.1916 O   0  0  0  0  0  0  0  0  0  0  0  0
  2  1  1  1
  3  2  1  0
  4  6  1  0
  4  5  1  1
  4  2  1  0
  6  7  2  0
  8  9  1  0
  8  6  1  0
 10 11  2  0
 10  9  1  0
 12 10  1  0
 13 12  1  0
 13 14  1  6
 14 15  1  0
 16 13  1  0
 17 16  2  0
 18 16  1  0
M  END
$$$$
