TGC.pdb
     RDKit          3D

 18 17  0  0  1  0  0  0  0  0999 V2000
   23.2579    1.7994  -10.1174 C   0  0  0  0  0  0  0  0  0  0  0  0
   24.4009    1.2519   -9.3245 C   0  0  1  0  0  0  0  0  0  0  0  0
   25.3831    0.7917  -10.2156 O   0  0  0  0  0  0  0  0  0  0  0  0
   25.0719    2.3513   -8.4962 C   0  0  2  0  0  0  0  0  0  0  0  0
   26.1618    1.7417   -7.7979 N   0  0  0  0  0  0  0  0  0  0  0  0
   24.1042    2.9980   -7.5745 C   0  0  0  0  0  0  0  0  0  0  0  0
   23.1528    3.6955   -7.9999 O   0  0  0  0  0  0  0  0  0  0  0  0
   24.2500    2.8291   -6.1725 N   0  0  0  0  0  0  0  0  0  0  0  0
   23.4085    3.4338   -5.1950 C   0  0  0  0  0  0  0  0  0  0  0  0
   23.7824    3.1019   -3.8058 C   0  0  0  0  0  0  0  0  0  0  0  0
   23.1590    3.6246   -2.8480 O   0  0  0  0  0  0  0  0  0  0  0  0
   24.8406    2.1969   -3.5362 N   0  0  0  0  0  0  0  0  0  0  0  0
   25.3426    1.9110   -2.2204 C   0  0  1  0  0  0  0  0  0  0  0  0
   25.6558    0.4181   -2.1552 C   0  0  0  0  0  0  0  0  0  0  0  0
   24.2937   -0.5331   -1.4715 S   0  0  0  0  0  0  0  0  0  0  0  0
   26.6261    2.6418   -1.9522 C   0  0  0  0  0  0  0  0  0  0  0  0
   27.2165    3.2747   -2.8628 O   0  0  0  0  0  0  0  0  0  0  0  0
   27.1685    2.6196   -0.6854 O   0  0  0  0  0  0  0  0  0  0  0  0
  2  1  1  6
  3  2  1  0
  4  6  1  0
  4  5  1  1
  4  2  1  0
  6  7  2  0
  8  9  1  0
  8  6  1  0
 10 11  2  0
 10  9  1  0
 12 10  1  0
 13 12  1  0
 13 14  1  6
 14 15  1  0
 16 13  1  0
 17 16  2  0
 18 16  1  0
M  END
$$$$
