TGC.pdb
     RDKit          3D

 18 17  0  0  1  0  0  0  0  0999 V2000
   20.4471  -13.7663  -17.5647 C   0  0  0  0  0  0  0  0  0  0  0  0
   21.6220  -13.3275  -18.3784 C   0  0  1  0  0  0  0  0  0  0  0  0
   21.5970  -14.0113  -19.6041 O   0  0  0  0  0  0  0  0  0  0  0  0
   21.5232  -11.8401  -18.7289 C   0  0  2  0  0  0  0  0  0  0  0  0
   22.6067  -11.5474  -19.6162 N   0  0  0  0  0  0  0  0  0  0  0  0
   21.5518  -10.9959  -17.5080 C   0  0  0  0  0  0  0  0  0  0  0  0
   20.8050  -11.2280  -16.5276 O   0  0  0  0  0  0  0  0  0  0  0  0
   22.4440   -9.8940  -17.4374 N   0  0  0  0  0  0  0  0  0  0  0  0
   22.4746   -8.9472  -16.3735 C   0  0  0  0  0  0  0  0  0  0  0  0
   21.2612   -8.1100  -16.2916 C   0  0  0  0  0  0  0  0  0  0  0  0
   20.7547   -7.6379  -17.3404 O   0  0  0  0  0  0  0  0  0  0  0  0
   20.6566   -7.8300  -15.0396 N   0  0  0  0  0  0  0  0  0  0  0  0
   19.4740   -7.0304  -14.8754 C   0  0  1  0  0  0  0  0  0  0  0  0
   18.7293   -7.5463  -13.6464 C   0  0  0  0  0  0  0  0  0  0  0  0
   18.1922   -9.2494  -13.8422 S   0  0  0  0  0  0  0  0  0  0  0  0
   19.8161   -5.5929  -14.6110 C   0  0  0  0  0  0  0  0  0  0  0  0
   18.9210   -4.7147  -14.5355 O   0  0  0  0  0  0  0  0  0  0  0  0
   21.1350   -5.2275  -14.4476 O   0  0  0  0  0  0  0  0  0  0  0  0
  2  1  1  1
  3  2  1  0
  4  6  1  0
  4  5  1  6
  4  2  1  0
  6  7  2  0
  8  9  1  0
  8  6  1  0
 10 11  2  0
 10  9  1  0
 12 10  1  0
 13 12  1  0
 13 14  1  1
 14 15  1  0
 16 13  1  0
 17 16  2  0
 18 16  1  0
M  END
$$$$
