TGC.pdb
     RDKit          3D

 18 17  0  0  1  0  0  0  0  0999 V2000
   22.3610  -17.9395  -18.4731 C   0  0  0  0  0  0  0  0  0  0  0  0
   22.2775  -18.9239  -17.3512 C   0  0  1  0  0  0  0  0  0  0  0  0
   22.9247  -20.1058  -17.7447 O   0  0  0  0  0  0  0  0  0  0  0  0
   23.0389  -18.4215  -16.1212 C   0  0  2  0  0  0  0  0  0  0  0  0
   23.1111  -19.5137  -15.1999 N   0  0  0  0  0  0  0  0  0  0  0  0
   22.3809  -17.2291  -15.5302 C   0  0  0  0  0  0  0  0  0  0  0  0
   21.3332  -17.3241  -14.8475 O   0  0  0  0  0  0  0  0  0  0  0  0
   22.9437  -15.9423  -15.7367 N   0  0  0  0  0  0  0  0  0  0  0  0
   22.4053  -14.7322  -15.2122 C   0  0  0  0  0  0  0  0  0  0  0  0
   21.6869  -13.9209  -16.2148 C   0  0  0  0  0  0  0  0  0  0  0  0
   21.6907  -14.2705  -17.4220 O   0  0  0  0  0  0  0  0  0  0  0  0
   20.9892  -12.7467  -15.8326 N   0  0  0  0  0  0  0  0  0  0  0  0
   20.2584  -11.9095  -16.7437 C   0  0  1  0  0  0  0  0  0  0  0  0
   19.3137  -11.0376  -15.9200 C   0  0  0  0  0  0  0  0  0  0  0  0
   18.2469  -12.0118  -14.8521 S   0  0  0  0  0  0  0  0  0  0  0  0
   21.1729  -10.9829  -17.4909 C   0  0  0  0  0  0  0  0  0  0  0  0
   22.3993  -10.9251  -17.2246 O   0  0  0  0  0  0  0  0  0  0  0  0
   20.6605  -10.1801  -18.4872 O   0  0  0  0  0  0  0  0  0  0  0  0
  2  1  1  6
  3  2  1  0
  4  6  1  0
  4  5  1  1
  4  2  1  0
  6  7  2  0
  8  9  1  0
  8  6  1  0
 10 11  2  0
 10  9  1  0
 12 10  1  0
 13 12  1  0
 13 14  1  1
 14 15  1  0
 16 13  1  0
 17 16  2  0
 18 16  1  0
M  END
$$$$
