CHP.pdb
     RDKit          3D

 24 25  0  0  1  0  0  0  0  0999 V2000
   12.3346  -19.4396   16.3833 N   0  0  0  0  0  0  0  0  0  0  0  0
   11.2850  -19.7211   17.3048 C   0  0  1  0  0  0  0  0  0  0  0  0
   11.5373  -20.9754   18.1062 C   0  0  0  0  0  0  0  0  0  0  0  0
   10.7232  -22.3604   17.2691 S   0  0  0  0  0  0  0  0  0  0  0  0
   10.9806  -18.5556   18.1356 C   0  0  0  0  0  0  0  0  0  0  0  0
   11.9734  -17.8986   18.6002 O   0  0  0  0  0  0  0  0  0  0  0  0
    9.7020  -18.0965   18.4665 N   0  0  0  0  0  0  0  0  0  0  0  0
    9.4506  -16.8861   19.2610 C   0  0  1  0  0  0  0  0  0  0  0  0
    8.0819  -16.3392   18.8462 C   0  0  0  0  0  0  0  0  0  0  0  0
    7.8657  -15.0374   19.5629 C   0  0  0  0  0  0  0  0  0  0  0  0
    7.1255  -14.8094   20.7071 C   0  0  0  0  0  0  0  0  0  0  0  0
    7.1874  -13.5035   21.0184 N   0  0  0  0  0  0  0  0  0  0  0  0
    7.9460  -12.9028   20.1019 C   0  0  0  0  0  0  0  0  0  0  0  0
    8.3522  -13.8178   19.2313 N   0  0  0  0  0  0  0  0  0  0  0  0
    9.3537  -17.2763   20.6667 C   0  0  0  0  0  0  0  0  0  0  0  0
    8.8164  -18.3999   20.9592 O   0  0  0  0  0  0  0  0  0  0  0  0
    9.8243  -16.4828   21.7255 N   0  0  0  0  0  0  0  0  0  0  0  0
   10.3266  -15.0883   21.5790 C   0  0  0  0  0  0  0  0  0  0  0  0
   11.3687  -15.0142   22.6783 C   0  0  0  0  0  0  0  0  0  0  0  0
   10.6808  -15.7330   23.7899 C   0  0  0  0  0  0  0  0  0  0  0  0
    9.8647  -16.8099   23.1196 C   0  0  1  0  0  0  0  0  0  0  0  0
    8.4795  -16.8322   23.7054 C   0  0  0  0  0  0  0  0  0  0  0  0
    8.3448  -17.1814   24.8897 O   0  0  0  0  0  0  0  0  0  0  0  0
    7.3942  -16.4735   22.9422 O   0  0  0  0  0  0  0  0  0  0  0  0
  2  1  1  1
  3  2  1  0
  4  3  1  0
  5  2  1  0
  5  6  2  0
  7  5  1  0
  8  7  1  0
  9 10  1  0
  8  9  1  6
 10 14  1  0
 11 12  1  0
 11 10  2  0
 12 13  1  0
 13 14  2  0
 15 17  1  0
 15  8  1  0
 16 15  2  0
 17 18  1  0
 19 18  1  0
 20 19  1  0
 20 21  1  0
 21 17  1  0
 21 22  1  1
 22 24  1  0
 23 22  2  0
M  END
$$$$
