CHP.pdb
     RDKit          3D

 24 25  0  0  1  0  0  0  0  0999 V2000
    7.7950  -16.3618   19.3549 N   0  0  0  0  0  0  0  0  0  0  0  0
    8.1725  -15.2154   20.1120 C   0  0  1  0  0  0  0  0  0  0  0  0
    7.8591  -13.9212   19.4008 C   0  0  0  0  0  0  0  0  0  0  0  0
    8.4824  -12.5511   20.4086 S   0  0  0  0  0  0  0  0  0  0  0  0
    7.6318  -15.2743   21.4704 C   0  0  0  0  0  0  0  0  0  0  0  0
    6.3597  -15.2546   21.5903 O   0  0  0  0  0  0  0  0  0  0  0  0
    8.3814  -15.3501   22.6483 N   0  0  0  0  0  0  0  0  0  0  0  0
    7.7905  -15.5422   23.9800 C   0  0  1  0  0  0  0  0  0  0  0  0
    8.1458  -16.9582   24.4415 C   0  0  0  0  0  0  0  0  0  0  0  0
    7.2708  -17.9231   23.6942 C   0  0  0  0  0  0  0  0  0  0  0  0
    5.9014  -18.0798   23.7912 C   0  0  0  0  0  0  0  0  0  0  0  0
    5.5093  -19.0536   22.9522 N   0  0  0  0  0  0  0  0  0  0  0  0
    6.5938  -19.5146   22.3295 C   0  0  0  0  0  0  0  0  0  0  0  0
    7.6474  -18.8403   22.7716 N   0  0  0  0  0  0  0  0  0  0  0  0
    8.4364  -14.6104   24.9033 C   0  0  0  0  0  0  0  0  0  0  0  0
    9.6989  -14.4264   24.8110 O   0  0  0  0  0  0  0  0  0  0  0  0
    7.7435  -13.8954   25.8936 N   0  0  0  0  0  0  0  0  0  0  0  0
    6.2607  -13.8601   26.0302 C   0  0  0  0  0  0  0  0  0  0  0  0
    6.0319  -12.4727   26.5983 C   0  0  0  0  0  0  0  0  0  0  0  0
    7.1444  -12.3682   27.5867 C   0  0  0  0  0  0  0  0  0  0  0  0
    8.2927  -13.1288   26.9720 C   0  0  1  0  0  0  0  0  0  0  0  0
    8.9147  -14.0270   28.0058 C   0  0  0  0  0  0  0  0  0  0  0  0
    8.6692  -15.2435   27.9557 O   0  0  0  0  0  0  0  0  0  0  0  0
    9.7337  -13.5066   28.9792 O   0  0  0  0  0  0  0  0  0  0  0  0
  2  1  1  6
  3  2  1  0
  4  3  1  0
  5  2  1  0
  5  6  2  0
  7  5  1  0
  8  7  1  0
  9 10  1  0
  8  9  1  1
 10 14  1  0
 11 12  1  0
 11 10  2  0
 12 13  1  0
 13 14  2  0
 15 17  1  0
 15  8  1  0
 16 15  2  0
 17 18  1  0
 19 18  1  0
 20 19  1  0
 20 21  1  0
 21 17  1  0
 21 22  1  1
 22 24  1  0
 23 22  2  0
M  END
$$$$
