CHP.pdb
     RDKit          3D

 24 25  0  0  1  0  0  0  0  0999 V2000
    7.7969  -14.9209   18.1294 N   0  0  0  0  0  0  0  0  0  0  0  0
    8.3588  -14.1947   19.2189 C   0  0  1  0  0  0  0  0  0  0  0  0
    8.3092  -12.7008   19.0075 C   0  0  0  0  0  0  0  0  0  0  0  0
    9.1167  -11.8983   20.4167 S   0  0  0  0  0  0  0  0  0  0  0  0
    7.7797  -14.6178   20.4944 C   0  0  0  0  0  0  0  0  0  0  0  0
    6.5225  -14.8463   20.5138 O   0  0  0  0  0  0  0  0  0  0  0  0
    8.4777  -14.7943   21.6930 N   0  0  0  0  0  0  0  0  0  0  0  0
    7.8651  -15.3103   22.9250 C   0  0  1  0  0  0  0  0  0  0  0  0
    8.0598  -16.8290   22.9349 C   0  0  0  0  0  0  0  0  0  0  0  0
    7.4592  -17.3657   24.2023 C   0  0  0  0  0  0  0  0  0  0  0  0
    8.1169  -17.8644   25.3103 C   0  0  0  0  0  0  0  0  0  0  0  0
    7.2101  -18.2429   26.2272 N   0  0  0  0  0  0  0  0  0  0  0  0
    5.9995  -17.9963   25.7272 C   0  0  0  0  0  0  0  0  0  0  0  0
    6.1463  -17.4721   24.5173 N   0  0  0  0  0  0  0  0  0  0  0  0
    8.6075  -14.7706   24.0631 C   0  0  0  0  0  0  0  0  0  0  0  0
    9.8828  -14.8707   24.0710 O   0  0  0  0  0  0  0  0  0  0  0  0
    7.9958  -14.1388   25.1580 N   0  0  0  0  0  0  0  0  0  0  0  0
    6.5257  -13.9625   25.3200 C   0  0  0  0  0  0  0  0  0  0  0  0
    6.4501  -12.6579   26.0896 C   0  0  0  0  0  0  0  0  0  0  0  0
    7.5657  -12.8229   27.0662 C   0  0  0  0  0  0  0  0  0  0  0  0
    8.6243  -13.6048   26.3294 C   0  0  1  0  0  0  0  0  0  0  0  0
    9.1419  -14.7086   27.2104 C   0  0  0  0  0  0  0  0  0  0  0  0
    8.8071  -15.8764   26.9521 O   0  0  0  0  0  0  0  0  0  0  0  0
    9.9651  -14.4238   28.2736 O   0  0  0  0  0  0  0  0  0  0  0  0
  2  1  1  6
  3  2  1  0
  4  3  1  0
  5  2  1  0
  5  6  2  0
  7  5  1  0
  8  7  1  0
  9 10  1  0
  8  9  1  6
 10 14  1  0
 11 12  1  0
 11 10  2  0
 12 13  1  0
 13 14  2  0
 15 17  1  0
 15  8  1  0
 16 15  2  0
 17 18  1  0
 19 18  1  0
 20 19  1  0
 20 21  1  0
 21 17  1  0
 21 22  1  1
 22 24  1  0
 23 22  2  0
M  END
$$$$
