CHP.pdb
     RDKit          3D

 24 25  0  0  1  0  0  0  0  0999 V2000
    7.7801  -16.4477   19.4803 N   0  0  0  0  0  0  0  0  0  0  0  0
    8.2114  -15.3222   20.2401 C   0  0  1  0  0  0  0  0  0  0  0  0
    7.9774  -14.0142   19.5236 C   0  0  0  0  0  0  0  0  0  0  0  0
    8.6234  -12.6742   20.5573 S   0  0  0  0  0  0  0  0  0  0  0  0
    7.6529  -15.3486   21.5924 C   0  0  0  0  0  0  0  0  0  0  0  0
    6.3874  -15.2082   21.7008 O   0  0  0  0  0  0  0  0  0  0  0  0
    8.3791  -15.5135   22.7759 N   0  0  0  0  0  0  0  0  0  0  0  0
    7.7622  -15.5866   24.1077 C   0  0  1  0  0  0  0  0  0  0  0  0
    8.0420  -16.9835   24.6685 C   0  0  0  0  0  0  0  0  0  0  0  0
    7.1149  -17.9505   23.9897 C   0  0  0  0  0  0  0  0  0  0  0  0
    6.2243  -17.6973   22.9642 C   0  0  0  0  0  0  0  0  0  0  0  0
    5.5839  -18.8353   22.6465 N   0  0  0  0  0  0  0  0  0  0  0  0
    6.0465  -19.7981   23.4435 C   0  0  0  0  0  0  0  0  0  0  0  0
    6.9615  -19.2713   24.2469 N   0  0  0  0  0  0  0  0  0  0  0  0
    8.4407  -14.6265   24.9769 C   0  0  0  0  0  0  0  0  0  0  0  0
    9.7028  -14.4623   24.8477 O   0  0  0  0  0  0  0  0  0  0  0  0
    7.7799  -13.8633   25.9531 N   0  0  0  0  0  0  0  0  0  0  0  0
    6.3003  -13.7759   26.1001 C   0  0  0  0  0  0  0  0  0  0  0  0
    6.1216  -12.3673   26.6328 C   0  0  0  0  0  0  0  0  0  0  0  0
    7.2453  -12.2732   27.6094 C   0  0  0  0  0  0  0  0  0  0  0  0
    8.3630  -13.0868   27.0064 C   0  0  1  0  0  0  0  0  0  0  0  0
    8.9644  -13.9773   28.0589 C   0  0  0  0  0  0  0  0  0  0  0  0
    8.6673  -15.1833   28.0522 O   0  0  0  0  0  0  0  0  0  0  0  0
    9.8210  -13.4615   29.0019 O   0  0  0  0  0  0  0  0  0  0  0  0
  2  1  1  6
  3  2  1  0
  4  3  1  0
  5  2  1  0
  5  6  2  0
  7  5  1  0
  8  7  1  0
  9 10  1  0
  8  9  1  1
 10 14  1  0
 11 12  1  0
 11 10  2  0
 12 13  1  0
 13 14  2  0
 15 17  1  0
 15  8  1  0
 16 15  2  0
 17 18  1  0
 19 18  1  0
 20 19  1  0
 20 21  1  0
 21 17  1  0
 21 22  1  1
 22 24  1  0
 23 22  2  0
M  END
$$$$
