CHP.pdb
     RDKit          3D

 24 25  0  0  1  0  0  0  0  0999 V2000
    7.4650  -14.3092   18.6448 N   0  0  0  0  0  0  0  0  0  0  0  0
    8.3055  -13.9950   19.7515 C   0  0  1  0  0  0  0  0  0  0  0  0
    8.6628  -12.5295   19.8111 C   0  0  0  0  0  0  0  0  0  0  0  0
   10.0723  -12.2409   18.7104 S   0  0  0  0  0  0  0  0  0  0  0  0
    7.7475  -14.5055   21.0042 C   0  0  0  0  0  0  0  0  0  0  0  0
    6.4875  -14.3758   21.1740 O   0  0  0  0  0  0  0  0  0  0  0  0
    8.4684  -15.1220   22.0314 N   0  0  0  0  0  0  0  0  0  0  0  0
    7.8638  -15.5833   23.2889 C   0  0  1  0  0  0  0  0  0  0  0  0
    8.0739  -17.0976   23.3723 C   0  0  0  0  0  0  0  0  0  0  0  0
    7.5884  -17.5602   24.7161 C   0  0  0  0  0  0  0  0  0  0  0  0
    8.3379  -18.0472   25.7696 C   0  0  0  0  0  0  0  0  0  0  0  0
    7.5178  -18.3508   26.7901 N   0  0  0  0  0  0  0  0  0  0  0  0
    6.2725  -18.0684   26.4083 C   0  0  0  0  0  0  0  0  0  0  0  0
    6.3126  -17.5959   25.1693 N   0  0  0  0  0  0  0  0  0  0  0  0
    8.6032  -14.9812   24.3972 C   0  0  0  0  0  0  0  0  0  0  0  0
    9.8722  -15.1347   24.4475 O   0  0  0  0  0  0  0  0  0  0  0  0
    7.9954  -14.2333   25.4187 N   0  0  0  0  0  0  0  0  0  0  0  0
    6.5259  -14.0392   25.5651 C   0  0  0  0  0  0  0  0  0  0  0  0
    6.4535  -12.6584   26.1882 C   0  0  0  0  0  0  0  0  0  0  0  0
    7.5721  -12.7171   27.1735 C   0  0  0  0  0  0  0  0  0  0  0  0
    8.6280  -13.5755   26.5230 C   0  0  1  0  0  0  0  0  0  0  0  0
    9.1478  -14.5771   27.5173 C   0  0  0  0  0  0  0  0  0  0  0  0
    8.7749  -15.7576   27.4163 O   0  0  0  0  0  0  0  0  0  0  0  0
   10.0142  -14.1879   28.5108 O   0  0  0  0  0  0  0  0  0  0  0  0
  2  1  1  6
  3  2  1  0
  4  3  1  0
  5  2  1  0
  5  6  2  0
  7  5  1  0
  8  7  1  0
  9 10  1  0
  8  9  1  1
 10 14  1  0
 11 12  1  0
 11 10  2  0
 12 13  1  0
 13 14  2  0
 15 17  1  0
 15  8  1  0
 16 15  2  0
 17 18  1  0
 19 18  1  0
 20 19  1  0
 20 21  1  0
 21 17  1  0
 21 22  1  1
 22 24  1  0
 23 22  2  0
M  END
$$$$
