CHP.pdb
     RDKit          3D

 24 25  0  0  1  0  0  0  0  0999 V2000
    8.5145  -17.0460   19.4246 N   0  0  0  0  0  0  0  0  0  0  0  0
    9.2529  -16.4902   20.5090 C   0  0  1  0  0  0  0  0  0  0  0  0
   10.1482  -15.3533   20.0792 C   0  0  0  0  0  0  0  0  0  0  0  0
   11.7048  -16.0519   19.4703 S   0  0  0  0  0  0  0  0  0  0  0  0
    8.3751  -16.1439   21.6273 C   0  0  0  0  0  0  0  0  0  0  0  0
    7.2114  -15.7027   21.3369 O   0  0  0  0  0  0  0  0  0  0  0  0
    8.6948  -16.2523   22.9842 N   0  0  0  0  0  0  0  0  0  0  0  0
    7.7595  -15.9293   24.0707 C   0  0  1  0  0  0  0  0  0  0  0  0
    7.3491  -17.2477   24.7322 C   0  0  0  0  0  0  0  0  0  0  0  0
    6.4163  -17.9646   23.7988 C   0  0  0  0  0  0  0  0  0  0  0  0
    6.7268  -18.9348   22.8655 C   0  0  0  0  0  0  0  0  0  0  0  0
    5.6024  -19.3155   22.2355 N   0  0  0  0  0  0  0  0  0  0  0  0
    4.5923  -18.6117   22.7462 C   0  0  0  0  0  0  0  0  0  0  0  0
    5.0767  -17.8039   23.6806 N   0  0  0  0  0  0  0  0  0  0  0  0
    8.4800  -15.1467   25.0738 C   0  0  0  0  0  0  0  0  0  0  0  0
    9.7389  -15.3284   25.2102 O   0  0  0  0  0  0  0  0  0  0  0  0
    7.8645  -14.1945   25.9025 N   0  0  0  0  0  0  0  0  0  0  0  0
    6.4165  -13.8480   25.8624 C   0  0  0  0  0  0  0  0  0  0  0  0
    6.4339  -12.3851   26.2618 C   0  0  0  0  0  0  0  0  0  0  0  0
    7.4464  -12.3872   27.3573 C   0  0  0  0  0  0  0  0  0  0  0  0
    8.4605  -13.4296   26.9570 C   0  0  1  0  0  0  0  0  0  0  0  0
    8.7799  -14.3035   28.1387 C   0  0  0  0  0  0  0  0  0  0  0  0
    8.3152  -15.4551   28.1642 O   0  0  0  0  0  0  0  0  0  0  0  0
    9.5676  -13.8321   29.1616 O   0  0  0  0  0  0  0  0  0  0  0  0
  2  1  1  6
  3  2  1  0
  4  3  1  0
  5  2  1  0
  5  6  2  0
  7  5  1  0
  8  7  1  0
  9 10  1  0
  8  9  1  1
 10 14  1  0
 11 12  1  0
 11 10  2  0
 12 13  1  0
 13 14  2  0
 15 17  1  0
 15  8  1  0
 16 15  2  0
 17 18  1  0
 19 18  1  0
 20 19  1  0
 20 21  1  0
 21 17  1  0
 21 22  1  1
 22 24  1  0
 23 22  2  0
M  END
$$$$
