DWP.pdb
     RDKit          3D

 30 32  0  0  1  0  0  0  0  0999 V2000
   28.4960  -18.0724  -18.4748 N   0  0  0  0  0  0  0  0  0  0  0  0
   27.1180  -18.4316  -18.2712 C   0  0  1  0  0  0  0  0  0  0  0  0
   26.4388  -18.9373  -19.5158 C   0  0  0  0  0  0  0  0  0  0  0  0
   25.9954  -17.8889  -20.4386 C   0  0  0  0  0  0  0  0  0  0  0  0
   24.7985  -17.7616  -20.7595 O   0  0  0  0  0  0  0  0  0  0  0  0
   26.9373  -19.3421  -17.1130 C   0  0  0  0  0  0  0  0  0  0  0  0
   26.9043  -20.5873  -17.2742 O   0  0  0  0  0  0  0  0  0  0  0  0
   26.9265  -17.0183  -20.9672 O   0  0  0  0  0  0  0  0  0  0  0  0
   26.7909  -18.8558  -15.7787 N   0  0  0  0  0  0  0  0  0  0  0  0
   26.6490  -19.7472  -14.6509 C   0  0  1  0  0  0  0  0  0  0  0  0
   27.3766  -19.1961  -13.4693 C   0  0  0  0  0  0  0  0  0  0  0  0
   27.4214  -20.0373  -12.2734 C   0  0  0  0  0  0  0  0  0  0  0  0
   28.1311  -21.2461  -12.1598 C   0  0  0  0  0  0  0  0  0  0  0  0
   27.9621  -21.7986  -10.9744 N   0  0  0  0  0  0  0  0  0  0  0  0
   27.1472  -20.9772  -10.2843 C   0  0  0  0  0  0  0  0  0  0  0  0
   26.6994  -21.1312   -8.9945 C   0  0  0  0  0  0  0  0  0  0  0  0
   25.8760  -20.1607   -8.4586 C   0  0  0  0  0  0  0  0  0  0  0  0
   25.5218  -19.0673   -9.2171 C   0  0  0  0  0  0  0  0  0  0  0  0
   25.9735  -18.9221  -10.5052 C   0  0  0  0  0  0  0  0  0  0  0  0
   26.7989  -19.8841  -11.0607 C   0  0  0  0  0  0  0  0  0  0  0  0
   25.1692  -19.8622  -14.3698 C   0  0  0  0  0  0  0  0  0  0  0  0
   24.5787  -18.7922  -14.0677 O   0  0  0  0  0  0  0  0  0  0  0  0
   24.4577  -21.0450  -14.4277 N   0  0  0  0  0  0  0  0  0  0  0  0
   24.9225  -22.2440  -15.1553 C   0  0  0  0  0  0  0  0  0  0  0  0
   24.7432  -23.2685  -14.0566 C   0  0  0  0  0  0  0  0  0  0  0  0
   23.5648  -22.7729  -13.2399 C   0  0  0  0  0  0  0  0  0  0  0  0
   23.1937  -21.4369  -13.9558 C   0  0  1  0  0  0  0  0  0  0  0  0
   22.4335  -20.5976  -13.0528 C   0  0  0  0  0  0  0  0  0  0  0  0
   23.1854  -20.0400  -11.9767 O   0  0  0  0  0  0  0  0  0  0  0  0
   21.2519  -20.2942  -13.0692 O   0  0  0  0  0  0  0  0  0  0  0  0
  2  1  1  6
  3  2  1  0
  3  4  1  0
  4  5  2  0
  6  2  1  0
  6  7  2  0
  8  4  1  0
  9  6  1  0
 10  9  1  0
 10 11  1  1
 12 13  2  0
 12 11  1  0
 14 13  1  0
 15 20  2  0
 15 14  1  0
 16 15  1  0
 17 18  1  0
 17 16  2  0
 18 19  2  0
 19 20  1  0
 20 12  1  0
 21 10  1  0
 22 21  2  0
 23 27  1  0
 23 21  1  0
 24 23  1  0
 25 24  1  0
 25 26  1  0
 26 27  1  0
 28 29  1  0
 27 28  1  1
 30 28  2  0
M  END
$$$$
