DWP.pdb
     RDKit          3D

 30 32  0  0  1  0  0  0  0  0999 V2000
   25.3661  -15.3466  -19.6058 N   0  0  0  0  0  0  0  0  0  0  0  0
   25.4218  -16.7733  -19.4300 C   0  0  1  0  0  0  0  0  0  0  0  0
   26.0943  -17.4929  -20.5685 C   0  0  0  0  0  0  0  0  0  0  0  0
   25.2947  -17.5803  -21.7933 C   0  0  0  0  0  0  0  0  0  0  0  0
   24.0770  -17.8416  -21.7639 O   0  0  0  0  0  0  0  0  0  0  0  0
   25.9738  -17.1580  -18.1070 C   0  0  0  0  0  0  0  0  0  0  0  0
   27.0883  -16.7227  -17.7251 O   0  0  0  0  0  0  0  0  0  0  0  0
   25.9045  -17.3678  -23.0129 O   0  0  0  0  0  0  0  0  0  0  0  0
   25.2779  -18.0309  -17.2171 N   0  0  0  0  0  0  0  0  0  0  0  0
   25.8500  -18.4580  -15.9614 C   0  0  1  0  0  0  0  0  0  0  0  0
   24.9992  -17.9905  -14.8269 C   0  0  0  0  0  0  0  0  0  0  0  0
   25.4212  -18.3838  -13.4827 C   0  0  0  0  0  0  0  0  0  0  0  0
   26.5160  -17.8413  -12.7865 C   0  0  0  0  0  0  0  0  0  0  0  0
   26.6724  -18.4113  -11.6077 N   0  0  0  0  0  0  0  0  0  0  0  0
   25.6954  -19.3324  -11.4977 C   0  0  0  0  0  0  0  0  0  0  0  0
   25.4474  -20.1676  -10.4353 C   0  0  0  0  0  0  0  0  0  0  0  0
   24.3775  -21.0374  -10.5119 C   0  0  0  0  0  0  0  0  0  0  0  0
   23.5861  -21.0527  -11.6388 C   0  0  0  0  0  0  0  0  0  0  0  0
   23.8419  -20.2150  -12.6957 C   0  0  0  0  0  0  0  0  0  0  0  0
   24.9099  -19.3366  -12.6386 C   0  0  0  0  0  0  0  0  0  0  0  0
   25.9153  -19.9666  -16.0029 C   0  0  0  0  0  0  0  0  0  0  0  0
   24.8357  -20.5602  -16.2618 O   0  0  0  0  0  0  0  0  0  0  0  0
   27.0644  -20.7003  -15.7792 N   0  0  0  0  0  0  0  0  0  0  0  0
   28.4230  -20.1201  -15.8055 C   0  0  0  0  0  0  0  0  0  0  0  0
   28.9328  -20.6584  -14.4867 C   0  0  0  0  0  0  0  0  0  0  0  0
   28.2261  -21.9878  -14.3005 C   0  0  0  0  0  0  0  0  0  0  0  0
   27.3125  -22.0662  -15.5632 C   0  0  1  0  0  0  0  0  0  0  0  0
   26.2312  -22.9992  -15.3223 C   0  0  0  0  0  0  0  0  0  0  0  0
   26.6239  -24.3690  -15.2608 O   0  0  0  0  0  0  0  0  0  0  0  0
   25.0386  -22.7960  -15.1646 O   0  0  0  0  0  0  0  0  0  0  0  0
  2  1  1  6
  3  2  1  0
  3  4  1  0
  4  5  2  0
  6  2  1  0
  6  7  2  0
  8  4  1  0
  9  6  1  0
 10  9  1  0
 10 11  1  1
 12 13  2  0
 12 11  1  0
 14 13  1  0
 15 20  2  0
 15 14  1  0
 16 15  1  0
 17 18  1  0
 17 16  2  0
 18 19  2  0
 19 20  1  0
 20 12  1  0
 21 10  1  0
 22 21  2  0
 23 27  1  0
 23 21  1  0
 24 23  1  0
 25 24  1  0
 25 26  1  0
 26 27  1  0
 28 29  1  0
 27 28  1  1
 30 28  2  0
M  END
$$$$
