DWP.pdb
     RDKit          3D

 30 32  0  0  1  0  0  0  0  0999 V2000
   12.1719  -18.6611    4.7737 N   0  0  0  0  0  0  0  0  0  0  0  0
   12.6829  -17.7796    5.7891 C   0  0  1  0  0  0  0  0  0  0  0  0
   11.7745  -17.6471    6.9821 C   0  0  0  0  0  0  0  0  0  0  0  0
   10.7467  -16.6105    6.8552 C   0  0  0  0  0  0  0  0  0  0  0  0
   10.6399  -15.9157    5.8266 O   0  0  0  0  0  0  0  0  0  0  0  0
   14.0798  -18.1065    6.1696 C   0  0  0  0  0  0  0  0  0  0  0  0
   14.4013  -19.2784    6.4871 O   0  0  0  0  0  0  0  0  0  0  0  0
    9.8725  -16.3964    7.9013 O   0  0  0  0  0  0  0  0  0  0  0  0
   15.1116  -17.1202    6.1964 N   0  0  0  0  0  0  0  0  0  0  0  0
   16.4693  -17.4433    6.5690 C   0  0  1  0  0  0  0  0  0  0  0  0
   17.4286  -16.6863    5.7110 C   0  0  0  0  0  0  0  0  0  0  0  0
   17.4732  -17.0504    4.2950 C   0  0  0  0  0  0  0  0  0  0  0  0
   17.0660  -18.2872    3.7637 C   0  0  0  0  0  0  0  0  0  0  0  0
   17.2491  -18.3389    2.4588 N   0  0  0  0  0  0  0  0  0  0  0  0
   17.7745  -17.1510    2.1008 C   0  0  0  0  0  0  0  0  0  0  0  0
   18.1217  -16.7350    0.8382 C   0  0  0  0  0  0  0  0  0  0  0  0
   18.6342  -15.4628    0.6773 C   0  0  0  0  0  0  0  0  0  0  0  0
   18.7868  -14.6419    1.7723 C   0  0  0  0  0  0  0  0  0  0  0  0
   18.4377  -15.0663    3.0302 C   0  0  0  0  0  0  0  0  0  0  0  0
   17.9230  -16.3380    3.2125 C   0  0  0  0  0  0  0  0  0  0  0  0
   16.6251  -17.0610    8.0221 C   0  0  0  0  0  0  0  0  0  0  0  0
   16.4419  -15.8462    8.2973 O   0  0  0  0  0  0  0  0  0  0  0  0
   16.9469  -17.9508    9.0287 N   0  0  0  0  0  0  0  0  0  0  0  0
   16.7459  -19.4109    8.9244 C   0  0  0  0  0  0  0  0  0  0  0  0
   18.1250  -19.8676    9.3472 C   0  0  0  0  0  0  0  0  0  0  0  0
   18.6090  -18.8151   10.3266 C   0  0  0  0  0  0  0  0  0  0  0  0
   17.4281  -17.7950   10.3395 C   0  0  1  0  0  0  0  0  0  0  0  0
   17.8998  -16.5130   10.8211 C   0  0  0  0  0  0  0  0  0  0  0  0
   18.7718  -15.8215    9.9292 O   0  0  0  0  0  0  0  0  0  0  0  0
   17.6679  -15.9339   11.8696 O   0  0  0  0  0  0  0  0  0  0  0  0
  2  1  1  6
  3  2  1  0
  3  4  1  0
  4  5  2  0
  6  2  1  0
  6  7  2  0
  8  4  1  0
  9  6  1  0
 10  9  1  0
 10 11  1  6
 12 13  2  0
 12 11  1  0
 14 13  1  0
 15 20  2  0
 15 14  1  0
 16 15  1  0
 17 18  1  0
 17 16  2  0
 18 19  2  0
 19 20  1  0
 20 12  1  0
 21 10  1  0
 22 21  2  0
 23 27  1  0
 23 21  1  0
 24 23  1  0
 25 24  1  0
 25 26  1  0
 26 27  1  0
 28 29  1  0
 27 28  1  6
 30 28  2  0
M  END
$$$$
