IHA.pdb
     RDKit          3D

 24 24  0  0  1  0  0  0  0  0999 V2000
    8.5204  -12.3882   27.6945 C   0  0  0  0  0  0  0  0  0  0  0  0
    7.7404  -13.6061   27.1789 C   0  0  0  0  0  0  0  0  0  0  0  0
    7.0293  -13.1620   25.9376 C   0  0  2  0  0  0  0  0  0  0  0  0
    6.1363  -11.9979   26.2591 C   0  0  0  0  0  0  0  0  0  0  0  0
    6.2900  -14.2587   25.2241 C   0  0  2  0  0  0  0  0  0  0  0  0
    5.3881  -14.9314   26.1156 N   0  0  0  0  0  0  0  0  0  0  0  0
    7.1841  -15.2604   24.5938 C   0  0  0  0  0  0  0  0  0  0  0  0
    7.1767  -16.4694   24.9378 O   0  0  0  0  0  0  0  0  0  0  0  0
    8.0881  -14.8881   23.5715 N   0  0  0  0  0  0  0  0  0  0  0  0
    8.9781  -15.7574   22.8625 C   0  0  1  0  0  0  0  0  0  0  0  0
    9.5903  -15.1868   21.6217 C   0  0  0  0  0  0  0  0  0  0  0  0
    8.6676  -14.6845   20.6105 C   0  0  0  0  0  0  0  0  0  0  0  0
    7.3790  -15.0073   20.3237 C   0  0  0  0  0  0  0  0  0  0  0  0
    7.0132  -14.2337   19.2697 N   0  0  0  0  0  0  0  0  0  0  0  0
    8.0447  -13.4552   18.9144 C   0  0  0  0  0  0  0  0  0  0  0  0
    9.0673  -13.7169   19.7240 N   0  0  0  0  0  0  0  0  0  0  0  0
   10.0978  -16.2200   23.7806 C   0  0  0  0  0  0  0  0  0  0  0  0
   10.8740  -15.3846   24.3054 O   0  0  0  0  0  0  0  0  0  0  0  0
   11.0001  -19.4552   25.3851 C   0  0  0  0  0  0  0  0  0  0  0  0
   11.3938  -18.0558   24.9170 C   0  0  2  0  0  0  0  0  0  0  0  0
   10.3087  -17.5861   24.0768 N   0  0  0  0  0  0  0  0  0  0  0  0
   12.6836  -18.0637   24.2306 C   0  0  0  0  0  0  0  0  0  0  0  0
   12.7489  -18.0487   22.9796 O   0  0  0  0  0  0  0  0  0  0  0  0
   13.8568  -18.0880   24.9639 O   0  0  0  0  0  0  0  0  0  0  0  0
  2  3  1  0
  2  1  1  0
  3  4  1  1
  3  5  1  0
  5  6  1  1
  7  5  1  0
  7  9  1  0
  8  7  2  0
 10  9  1  0
 11 12  1  0
 10 11  1  6
 12 16  1  0
 13 12  2  0
 13 14  1  0
 14 15  1  0
 16 15  2  0
 17 10  1  0
 18 17  2  0
 20 21  1  0
 20 19  1  6
 21 17  1  0
 22 20  1  0
 23 22  2  0
 24 22  1  0
M  END
$$$$
