IHA.pdb
     RDKit          3D

 24 24  0  0  1  0  0  0  0  0999 V2000
    7.6961  -11.7604   21.4326 C   0  0  0  0  0  0  0  0  0  0  0  0
    7.2831  -13.2076   21.7372 C   0  0  0  0  0  0  0  0  0  0  0  0
    8.1750  -14.0867   20.9154 C   0  0  2  0  0  0  0  0  0  0  0  0
    8.1127  -13.6612   19.4763 C   0  0  0  0  0  0  0  0  0  0  0  0
    7.9131  -15.5574   21.0796 C   0  0  2  0  0  0  0  0  0  0  0  0
    6.5793  -15.8887   20.6651 N   0  0  0  0  0  0  0  0  0  0  0  0
    8.1239  -16.0435   22.4650 C   0  0  0  0  0  0  0  0  0  0  0  0
    7.1748  -16.1622   23.2806 O   0  0  0  0  0  0  0  0  0  0  0  0
    9.4147  -16.3949   22.9247 N   0  0  0  0  0  0  0  0  0  0  0  0
    9.7444  -16.9353   24.2091 C   0  0  1  0  0  0  0  0  0  0  0  0
   10.8136  -17.9825   24.2171 C   0  0  0  0  0  0  0  0  0  0  0  0
   11.0898  -18.6230   25.4976 C   0  0  0  0  0  0  0  0  0  0  0  0
   10.5540  -18.4402   26.7330 C   0  0  0  0  0  0  0  0  0  0  0  0
   11.1981  -19.2995   27.5636 N   0  0  0  0  0  0  0  0  0  0  0  0
   12.1059  -19.9934   26.8633 C   0  0  0  0  0  0  0  0  0  0  0  0
   12.0547  -19.5932   25.5957 N   0  0  0  0  0  0  0  0  0  0  0  0
   10.1592  -15.8193   25.1542 C   0  0  0  0  0  0  0  0  0  0  0  0
   11.1274  -15.0731   24.8687 O   0  0  0  0  0  0  0  0  0  0  0  0
    8.7470  -13.6018   27.4821 C   0  0  0  0  0  0  0  0  0  0  0  0
    9.9121  -14.5774   27.3309 C   0  0  2  0  0  0  0  0  0  0  0  0
    9.4843  -15.5789   26.3729 N   0  0  0  0  0  0  0  0  0  0  0  0
   10.3023  -15.1493   28.6175 C   0  0  0  0  0  0  0  0  0  0  0  0
   10.8065  -14.4351   29.5148 O   0  0  0  0  0  0  0  0  0  0  0  0
   10.1165  -16.4991   28.8590 O   0  0  0  0  0  0  0  0  0  0  0  0
  2  3  1  0
  2  1  1  0
  3  4  1  6
  3  5  1  0
  5  6  1  1
  7  5  1  0
  7  9  1  0
  8  7  2  0
 10  9  1  0
 11 12  1  0
 10 11  1  6
 12 16  1  0
 13 12  2  0
 13 14  1  0
 14 15  1  0
 16 15  2  0
 17 10  1  0
 18 17  2  0
 20 21  1  0
 20 19  1  1
 21 17  1  0
 22 20  1  0
 23 22  2  0
 24 22  1  0
M  END
$$$$
