IHA.pdb
     RDKit          3D

 24 24  0  0  1  0  0  0  0  0999 V2000
    7.2037  -11.8577   19.6831 C   0  0  0  0  0  0  0  0  0  0  0  0
    7.9439  -13.1798   19.4349 C   0  0  0  0  0  0  0  0  0  0  0  0
    7.9724  -13.9044   20.7456 C   0  0  2  0  0  0  0  0  0  0  0  0
    8.5928  -13.0246   21.7930 C   0  0  0  0  0  0  0  0  0  0  0  0
    8.6238  -15.2575   20.6887 C   0  0  2  0  0  0  0  0  0  0  0  0
    7.9884  -16.0900   19.7069 N   0  0  0  0  0  0  0  0  0  0  0  0
    8.6298  -15.9651   21.9922 C   0  0  0  0  0  0  0  0  0  0  0  0
    7.5947  -16.4997   22.4643 O   0  0  0  0  0  0  0  0  0  0  0  0
    9.8131  -16.0654   22.7607 N   0  0  0  0  0  0  0  0  0  0  0  0
    9.9362  -16.6438   24.0648 C   0  0  1  0  0  0  0  0  0  0  0  0
   10.9051  -17.7785   24.1822 C   0  0  0  0  0  0  0  0  0  0  0  0
   10.5655  -19.0029   23.4669 C   0  0  0  0  0  0  0  0  0  0  0  0
    9.3705  -19.5182   23.0753 C   0  0  0  0  0  0  0  0  0  0  0  0
    9.6426  -20.6950   22.4556 N   0  0  0  0  0  0  0  0  0  0  0  0
   10.9667  -20.9023   22.4634 C   0  0  0  0  0  0  0  0  0  0  0  0
   11.5491  -19.8767   23.0786 N   0  0  0  0  0  0  0  0  0  0  0  0
   10.3236  -15.5761   25.0751 C   0  0  0  0  0  0  0  0  0  0  0  0
   11.4140  -14.9640   24.9649 O   0  0  0  0  0  0  0  0  0  0  0  0
    8.6269  -13.3918   27.4077 C   0  0  0  0  0  0  0  0  0  0  0  0
    9.8599  -14.2617   27.1724 C   0  0  2  0  0  0  0  0  0  0  0  0
    9.4872  -15.2334   26.1621 N   0  0  0  0  0  0  0  0  0  0  0  0
   10.3248  -14.8787   28.4125 C   0  0  0  0  0  0  0  0  0  0  0  0
   10.7448  -14.1792   29.3632 O   0  0  0  0  0  0  0  0  0  0  0  0
   10.3053  -16.2555   28.5494 O   0  0  0  0  0  0  0  0  0  0  0  0
  2  3  1  0
  2  1  1  0
  3  4  1  1
  3  5  1  0
  5  6  1  6
  7  5  1  0
  7  9  1  0
  8  7  2  0
 10  9  1  0
 11 12  1  0
 10 11  1  6
 12 16  1  0
 13 12  2  0
 13 14  1  0
 14 15  1  0
 16 15  2  0
 17 10  1  0
 18 17  2  0
 20 21  1  0
 20 19  1  1
 21 17  1  0
 22 20  1  0
 23 22  2  0
 24 22  1  0
M  END
$$$$
