IHA.pdb
     RDKit          3D

 24 24  0  0  1  0  0  0  0  0999 V2000
    6.8868  -11.3158   27.6485 C   0  0  0  0  0  0  0  0  0  0  0  0
    6.0870  -12.1692   26.6538 C   0  0  0  0  0  0  0  0  0  0  0  0
    6.9637  -13.3263   26.2845 C   0  0  2  0  0  0  0  0  0  0  0  0
    8.3022  -12.8180   25.8307 C   0  0  0  0  0  0  0  0  0  0  0  0
    6.3523  -14.2703   25.2877 C   0  0  2  0  0  0  0  0  0  0  0  0
    5.0979  -14.7778   25.7668 N   0  0  0  0  0  0  0  0  0  0  0  0
    7.2334  -15.4108   24.9372 C   0  0  0  0  0  0  0  0  0  0  0  0
    7.2516  -16.4704   25.6133 O   0  0  0  0  0  0  0  0  0  0  0  0
    8.0955  -15.3475   23.8175 N   0  0  0  0  0  0  0  0  0  0  0  0
    8.9789  -16.3784   23.3624 C   0  0  1  0  0  0  0  0  0  0  0  0
    9.5151  -16.2076   21.9756 C   0  0  0  0  0  0  0  0  0  0  0  0
    8.5376  -16.2085   20.8936 C   0  0  0  0  0  0  0  0  0  0  0  0
    7.2168  -16.5280   20.8699 C   0  0  0  0  0  0  0  0  0  0  0  0
    6.8027  -16.3610   19.5879 N   0  0  0  0  0  0  0  0  0  0  0  0
    7.8363  -15.9506   18.8399 C   0  0  0  0  0  0  0  0  0  0  0  0
    8.9079  -15.8514   19.6219 N   0  0  0  0  0  0  0  0  0  0  0  0
   10.1537  -16.5183   24.3168 C   0  0  0  0  0  0  0  0  0  0  0  0
   10.8695  -15.5245   24.5919 O   0  0  0  0  0  0  0  0  0  0  0  0
   11.3112  -19.0711   26.7289 C   0  0  0  0  0  0  0  0  0  0  0  0
   11.6480  -17.9304   25.7709 C   0  0  2  0  0  0  0  0  0  0  0  0
   10.4840  -17.7514   24.9241 N   0  0  0  0  0  0  0  0  0  0  0  0
   12.8662  -18.2088   25.0137 C   0  0  0  0  0  0  0  0  0  0  0  0
   12.8190  -18.4740   23.7902 O   0  0  0  0  0  0  0  0  0  0  0  0
   14.0958  -18.1818   25.6479 O   0  0  0  0  0  0  0  0  0  0  0  0
  2  3  1  0
  2  1  1  0
  3  4  1  6
  3  5  1  0
  5  6  1  1
  7  5  1  0
  7  9  1  0
  8  7  2  0
 10  9  1  0
 11 12  1  0
 10 11  1  6
 12 16  1  0
 13 12  2  0
 13 14  1  0
 14 15  1  0
 16 15  2  0
 17 10  1  0
 18 17  2  0
 20 21  1  0
 20 19  1  1
 21 17  1  0
 22 20  1  0
 23 22  2  0
 24 22  1  0
M  END
$$$$
