IHA.pdb
     RDKit          3D

 24 24  0  0  1  0  0  0  0  0999 V2000
    6.9499  -12.4991   19.7597 C   0  0  0  0  0  0  0  0  0  0  0  0
    7.7498  -12.8815   18.5061 C   0  0  0  0  0  0  0  0  0  0  0  0
    8.9014  -13.7170   18.9744 C   0  0  2  0  0  0  0  0  0  0  0  0
    9.6544  -12.9804   20.0451 C   0  0  0  0  0  0  0  0  0  0  0  0
    9.8077  -14.1913   17.8733 C   0  0  2  0  0  0  0  0  0  0  0  0
    9.0544  -14.8236   16.8277 N   0  0  0  0  0  0  0  0  0  0  0  0
   10.8650  -15.1217   18.3385 C   0  0  0  0  0  0  0  0  0  0  0  0
   10.6905  -16.3663   18.3685 O   0  0  0  0  0  0  0  0  0  0  0  0
   12.1220  -14.6379   18.7706 N   0  0  0  0  0  0  0  0  0  0  0  0
   13.2037  -15.4195   19.2897 C   0  0  1  0  0  0  0  0  0  0  0  0
   14.5769  -14.8983   19.0021 C   0  0  0  0  0  0  0  0  0  0  0  0
   15.0715  -15.0785   17.6424 C   0  0  0  0  0  0  0  0  0  0  0  0
   14.9226  -16.0967   16.7547 C   0  0  0  0  0  0  0  0  0  0  0  0
   15.6098  -15.7397   15.6396 N   0  0  0  0  0  0  0  0  0  0  0  0
   16.1679  -14.5363   15.8313 C   0  0  0  0  0  0  0  0  0  0  0  0
   15.8496  -14.1150   17.0523 N   0  0  0  0  0  0  0  0  0  0  0  0
   13.0570  -15.5799   20.7941 C   0  0  0  0  0  0  0  0  0  0  0  0
   13.0293  -14.5708   21.5401 O   0  0  0  0  0  0  0  0  0  0  0  0
   12.2682  -18.4158   23.0698 C   0  0  0  0  0  0  0  0  0  0  0  0
   12.8745  -17.0327   22.8429 C   0  0  2  0  0  0  0  0  0  0  0  0
   12.9476  -16.8497   21.4059 N   0  0  0  0  0  0  0  0  0  0  0  0
   14.1726  -16.9023   23.5008 C   0  0  0  0  0  0  0  0  0  0  0  0
   15.2368  -16.9357   22.8405 O   0  0  0  0  0  0  0  0  0  0  0  0
   14.2389  -16.7390   24.8732 O   0  0  0  0  0  0  0  0  0  0  0  0
  2  3  1  0
  2  1  1  0
  3  4  1  1
  3  5  1  0
  5  6  1  6
  7  5  1  0
  7  9  1  0
  8  7  2  0
 10  9  1  0
 11 12  1  0
 10 11  1  1
 12 16  1  0
 13 12  2  0
 13 14  1  0
 14 15  1  0
 16 15  2  0
 17 10  1  0
 18 17  2  0
 20 21  1  0
 20 19  1  6
 21 17  1  0
 22 20  1  0
 23 22  2  0
 24 22  1  0
M  END
$$$$
