IHA.pdb
     RDKit          3D

 24 24  0  0  1  0  0  0  0  0999 V2000
    7.2804  -11.8246   19.4099 C   0  0  0  0  0  0  0  0  0  0  0  0
    8.0543  -12.9130   18.6521 C   0  0  0  0  0  0  0  0  0  0  0  0
    8.2679  -14.0357   19.6203 C   0  0  2  0  0  0  0  0  0  0  0  0
    8.8943  -13.5033   20.8773 C   0  0  0  0  0  0  0  0  0  0  0  0
    9.0358  -15.1984   19.0572 C   0  0  2  0  0  0  0  0  0  0  0  0
    8.3969  -15.7102   17.8780 N   0  0  0  0  0  0  0  0  0  0  0  0
    9.2235  -16.3064   20.0253 C   0  0  0  0  0  0  0  0  0  0  0  0
    8.3380  -17.1769   20.2208 O   0  0  0  0  0  0  0  0  0  0  0  0
   10.4186  -16.4256   20.7726 N   0  0  0  0  0  0  0  0  0  0  0  0
   10.7788  -17.5085   21.6375 C   0  0  1  0  0  0  0  0  0  0  0  0
   12.0237  -18.2504   21.2637 C   0  0  0  0  0  0  0  0  0  0  0  0
   11.9917  -18.9862   20.0053 C   0  0  0  0  0  0  0  0  0  0  0  0
   11.1465  -19.9434   19.5400 C   0  0  0  0  0  0  0  0  0  0  0  0
   11.5966  -20.2886   18.3066 N   0  0  0  0  0  0  0  0  0  0  0  0
   12.6881  -19.5669   18.0169 C   0  0  0  0  0  0  0  0  0  0  0  0
   12.9459  -18.7633   19.0452 N   0  0  0  0  0  0  0  0  0  0  0  0
   10.9288  -17.0088   23.0652 C   0  0  0  0  0  0  0  0  0  0  0  0
   11.7762  -16.1253   23.3426 O   0  0  0  0  0  0  0  0  0  0  0  0
    9.0918  -17.6385   26.2621 C   0  0  0  0  0  0  0  0  0  0  0  0
   10.2981  -17.0919   25.5018 C   0  0  2  0  0  0  0  0  0  0  0  0
   10.1344  -17.5090   24.1222 N   0  0  0  0  0  0  0  0  0  0  0  0
   11.5547  -17.5497   26.0903 C   0  0  0  0  0  0  0  0  0  0  0  0
   12.1800  -18.5196   25.6026 O   0  0  0  0  0  0  0  0  0  0  0  0
   12.0707  -16.9094   27.2031 O   0  0  0  0  0  0  0  0  0  0  0  0
  2  3  1  0
  2  1  1  0
  3  4  1  1
  3  5  1  0
  5  6  1  6
  7  5  1  0
  7  9  1  0
  8  7  2  0
 10  9  1  0
 11 12  1  0
 10 11  1  6
 12 16  1  0
 13 12  2  0
 13 14  1  0
 14 15  1  0
 16 15  2  0
 17 10  1  0
 18 17  2  0
 20 21  1  0
 20 19  1  1
 21 17  1  0
 22 20  1  0
 23 22  2  0
 24 22  1  0
M  END
$$$$
