IHA.pdb
     RDKit          3D

 24 24  0  0  1  0  0  0  0  0999 V2000
    6.9475  -11.7731   27.8905 C   0  0  0  0  0  0  0  0  0  0  0  0
    6.1552  -12.6917   26.9493 C   0  0  0  0  0  0  0  0  0  0  0  0
    7.1588  -13.5695   26.2667 C   0  0  2  0  0  0  0  0  0  0  0  0
    8.3023  -12.7327   25.7687 C   0  0  0  0  0  0  0  0  0  0  0  0
    6.5834  -14.4384   25.1840 C   0  0  2  0  0  0  0  0  0  0  0  0
    5.5107  -15.2457   25.6921 N   0  0  0  0  0  0  0  0  0  0  0  0
    7.5871  -15.3188   24.5376 C   0  0  0  0  0  0  0  0  0  0  0  0
    7.8320  -16.4752   24.9652 O   0  0  0  0  0  0  0  0  0  0  0  0
    8.3138  -14.8848   23.4043 N   0  0  0  0  0  0  0  0  0  0  0  0
    9.2633  -15.6517   22.6554 C   0  0  1  0  0  0  0  0  0  0  0  0
    9.6408  -15.0912   21.3201 C   0  0  0  0  0  0  0  0  0  0  0  0
    8.5482  -14.8246   20.3919 C   0  0  0  0  0  0  0  0  0  0  0  0
    7.2238  -15.1247   20.4459 C   0  0  0  0  0  0  0  0  0  0  0  0
    6.6736  -14.6481   19.3000 N   0  0  0  0  0  0  0  0  0  0  0  0
    7.6288  -14.0703   18.5585 C   0  0  0  0  0  0  0  0  0  0  0  0
    8.7842  -14.1684   19.2105 N   0  0  0  0  0  0  0  0  0  0  0  0
   10.5323  -15.8495   23.4685 C   0  0  0  0  0  0  0  0  0  0  0  0
   11.1100  -14.8659   23.9924 O   0  0  0  0  0  0  0  0  0  0  0  0
   12.4649  -18.8290   24.6335 C   0  0  0  0  0  0  0  0  0  0  0  0
   12.3671  -17.3314   24.3510 C   0  0  2  0  0  0  0  0  0  0  0  0
   11.1053  -17.1268   23.6656 N   0  0  0  0  0  0  0  0  0  0  0  0
   13.5159  -16.8546   23.5843 C   0  0  0  0  0  0  0  0  0  0  0  0
   13.4349  -16.6706   22.3478 O   0  0  0  0  0  0  0  0  0  0  0  0
   14.7162  -16.5996   24.2239 O   0  0  0  0  0  0  0  0  0  0  0  0
  2  3  1  0
  2  1  1  0
  3  4  1  6
  3  5  1  0
  5  6  1  1
  7  5  1  0
  7  9  1  0
  8  7  2  0
 10  9  1  0
 11 12  1  0
 10 11  1  6
 12 16  1  0
 13 12  2  0
 13 14  1  0
 14 15  1  0
 16 15  2  0
 17 10  1  0
 18 17  2  0
 20 21  1  0
 20 19  1  6
 21 17  1  0
 22 20  1  0
 23 22  2  0
 24 22  1  0
M  END
$$$$
