IHA.pdb
     RDKit          3D

 24 24  0  0  1  0  0  0  0  0999 V2000
    5.7951  -11.0872   26.9713 C   0  0  0  0  0  0  0  0  0  0  0  0
    5.3563  -12.2754   26.1034 C   0  0  0  0  0  0  0  0  0  0  0  0
    6.5406  -13.1865   25.9988 C   0  0  2  0  0  0  0  0  0  0  0  0
    7.7126  -12.4262   25.4474 C   0  0  0  0  0  0  0  0  0  0  0  0
    6.2794  -14.4525   25.2323 C   0  0  2  0  0  0  0  0  0  0  0  0
    5.0995  -15.1101   25.7179 N   0  0  0  0  0  0  0  0  0  0  0  0
    7.4138  -15.4075   25.2654 C   0  0  0  0  0  0  0  0  0  0  0  0
    7.5775  -16.2141   26.2156 O   0  0  0  0  0  0  0  0  0  0  0  0
    8.3639  -15.4459   24.2182 N   0  0  0  0  0  0  0  0  0  0  0  0
    9.4991  -16.3142   24.1285 C   0  0  1  0  0  0  0  0  0  0  0  0
   10.1935  -16.3389   22.8029 C   0  0  0  0  0  0  0  0  0  0  0  0
    9.3664  -16.6336   21.6387 C   0  0  0  0  0  0  0  0  0  0  0  0
    8.3758  -17.5429   21.4413 C   0  0  0  0  0  0  0  0  0  0  0  0
    7.9602  -17.3878   20.1583 N   0  0  0  0  0  0  0  0  0  0  0  0
    8.6724  -16.4117   19.5784 C   0  0  0  0  0  0  0  0  0  0  0  0
    9.5390  -15.9375   20.4693 N   0  0  0  0  0  0  0  0  0  0  0  0
   10.5183  -15.9533   25.1970 C   0  0  0  0  0  0  0  0  0  0  0  0
   11.4055  -15.0964   24.9640 O   0  0  0  0  0  0  0  0  0  0  0  0
   10.7911  -14.8963   28.1628 C   0  0  0  0  0  0  0  0  0  0  0  0
   11.4010  -16.1536   27.5468 C   0  0  2  0  0  0  0  0  0  0  0  0
   10.5103  -16.5567   26.4754 N   0  0  0  0  0  0  0  0  0  0  0  0
   11.5978  -17.1993   28.5481 C   0  0  0  0  0  0  0  0  0  0  0  0
   10.9542  -18.2728   28.4950 O   0  0  0  0  0  0  0  0  0  0  0  0
   12.5064  -17.0114   29.5748 O   0  0  0  0  0  0  0  0  0  0  0  0
  2  3  1  0
  2  1  1  0
  3  4  1  6
  3  5  1  0
  5  6  1  1
  7  5  1  0
  7  9  1  0
  8  7  2  0
 10  9  1  0
 11 12  1  0
 10 11  1  6
 12 16  1  0
 13 12  2  0
 13 14  1  0
 14 15  1  0
 16 15  2  0
 17 10  1  0
 18 17  2  0
 20 21  1  0
 20 19  1  1
 21 17  1  0
 22 20  1  0
 23 22  2  0
 24 22  1  0
M  END
$$$$
