IHA.pdb
     RDKit          3D

 24 24  0  0  1  0  0  0  0  0999 V2000
    7.3978  -11.6981   19.2960 C   0  0  0  0  0  0  0  0  0  0  0  0
    8.0032  -12.5134   18.1443 C   0  0  0  0  0  0  0  0  0  0  0  0
    8.8429  -13.5817   18.7745 C   0  0  2  0  0  0  0  0  0  0  0  0
    9.7986  -12.9591   19.7517 C   0  0  0  0  0  0  0  0  0  0  0  0
    9.5454  -14.4749   17.7910 C   0  0  2  0  0  0  0  0  0  0  0  0
    8.6242  -14.9863   16.8161 N   0  0  0  0  0  0  0  0  0  0  0  0
   10.2559  -15.6106   18.4278 C   0  0  0  0  0  0  0  0  0  0  0  0
    9.6980  -16.7202   18.6221 O   0  0  0  0  0  0  0  0  0  0  0  0
   11.6018  -15.4857   18.8447 N   0  0  0  0  0  0  0  0  0  0  0  0
   12.4427  -16.5351   19.3369 C   0  0  1  0  0  0  0  0  0  0  0  0
   13.6955  -16.7821   18.5564 C   0  0  0  0  0  0  0  0  0  0  0  0
   13.5283  -17.2204   17.1758 C   0  0  0  0  0  0  0  0  0  0  0  0
   13.6138  -16.5478   15.9980 C   0  0  0  0  0  0  0  0  0  0  0  0
   13.3516  -17.4505   15.0186 N   0  0  0  0  0  0  0  0  0  0  0  0
   13.1107  -18.6465   15.5734 C   0  0  0  0  0  0  0  0  0  0  0  0
   13.2142  -18.5258   16.8941 N   0  0  0  0  0  0  0  0  0  0  0  0
   12.8243  -16.2635   20.7830 C   0  0  0  0  0  0  0  0  0  0  0  0
   13.4227  -15.2045   21.0932 O   0  0  0  0  0  0  0  0  0  0  0  0
   11.9681  -17.8966   24.0237 C   0  0  0  0  0  0  0  0  0  0  0  0
   12.8017  -16.9019   23.2188 C   0  0  2  0  0  0  0  0  0  0  0  0
   12.5268  -17.1757   21.8212 N   0  0  0  0  0  0  0  0  0  0  0  0
   14.2212  -17.0007   23.5504 C   0  0  0  0  0  0  0  0  0  0  0  0
   15.0253  -17.5747   22.7801 O   0  0  0  0  0  0  0  0  0  0  0  0
   14.6951  -16.4554   24.7306 O   0  0  0  0  0  0  0  0  0  0  0  0
  2  3  1  0
  2  1  1  0
  3  4  1  1
  3  5  1  0
  5  6  1  6
  7  5  1  0
  7  9  1  0
  8  7  2  0
 10  9  1  0
 11 12  1  0
 10 11  1  6
 12 16  1  0
 13 12  2  0
 13 14  1  0
 14 15  1  0
 16 15  2  0
 17 10  1  0
 18 17  2  0
 20 21  1  0
 20 19  1  1
 21 17  1  0
 22 20  1  0
 23 22  2  0
 24 22  1  0
M  END
$$$$
