IHA.pdb
     RDKit          3D

 24 24  0  0  1  0  0  0  0  0999 V2000
    6.8925  -11.8766   27.1677 C   0  0  0  0  0  0  0  0  0  0  0  0
    6.2005  -12.8803   26.2342 C   0  0  0  0  0  0  0  0  0  0  0  0
    7.2226  -13.9218   25.8962 C   0  0  2  0  0  0  0  0  0  0  0  0
    8.4660  -13.2568   25.3791 C   0  0  0  0  0  0  0  0  0  0  0  0
    6.7278  -14.9926   24.9651 C   0  0  2  0  0  0  0  0  0  0  0  0
    5.5453  -15.6174   25.4866 N   0  0  0  0  0  0  0  0  0  0  0  0
    7.7398  -16.0378   24.6764 C   0  0  0  0  0  0  0  0  0  0  0  0
    7.9246  -17.0158   25.4442 O   0  0  0  0  0  0  0  0  0  0  0  0
    8.5435  -15.9718   23.5142 N   0  0  0  0  0  0  0  0  0  0  0  0
    9.5458  -16.9138   23.1162 C   0  0  1  0  0  0  0  0  0  0  0  0
   10.1441  -16.6910   21.7625 C   0  0  0  0  0  0  0  0  0  0  0  0
    9.2244  -16.7122   20.6313 C   0  0  0  0  0  0  0  0  0  0  0  0
    8.2412  -17.5833   20.2828 C   0  0  0  0  0  0  0  0  0  0  0  0
    7.7103  -17.1212   19.1219 N   0  0  0  0  0  0  0  0  0  0  0  0
    8.3461  -15.9975   18.7621 C   0  0  0  0  0  0  0  0  0  0  0  0
    9.2770  -15.7308   19.6742 N   0  0  0  0  0  0  0  0  0  0  0  0
   10.6703  -16.9431   24.1386 C   0  0  0  0  0  0  0  0  0  0  0  0
   11.4294  -15.9527   24.2754 O   0  0  0  0  0  0  0  0  0  0  0  0
   11.5101  -18.8860   27.1191 C   0  0  0  0  0  0  0  0  0  0  0  0
   12.0252  -18.1561   25.8804 C   0  0  2  0  0  0  0  0  0  0  0  0
   10.9046  -18.0667   24.9638 N   0  0  0  0  0  0  0  0  0  0  0  0
   13.1824  -18.8345   25.3013 C   0  0  0  0  0  0  0  0  0  0  0  0
   13.0970  -19.4333   24.2042 O   0  0  0  0  0  0  0  0  0  0  0  0
   14.3957  -18.8217   25.9665 O   0  0  0  0  0  0  0  0  0  0  0  0
  2  3  1  0
  2  1  1  0
  3  4  1  6
  3  5  1  0
  5  6  1  1
  7  5  1  0
  7  9  1  0
  8  7  2  0
 10  9  1  0
 11 12  1  0
 10 11  1  6
 12 16  1  0
 13 12  2  0
 13 14  1  0
 14 15  1  0
 16 15  2  0
 17 10  1  0
 18 17  2  0
 20 21  1  0
 20 19  1  1
 21 17  1  0
 22 20  1  0
 23 22  2  0
 24 22  1  0
M  END
$$$$
