IHA.pdb
     RDKit          3D

 24 24  0  0  1  0  0  0  0  0999 V2000
    7.9989  -12.0567   20.8006 C   0  0  0  0  0  0  0  0  0  0  0  0
    7.7659  -13.4968   20.3217 C   0  0  0  0  0  0  0  0  0  0  0  0
    8.6065  -13.6787   19.0953 C   0  0  2  0  0  0  0  0  0  0  0  0
    8.2710  -12.6116   18.0930 C   0  0  0  0  0  0  0  0  0  0  0  0
    8.5354  -15.0556   18.4971 C   0  0  2  0  0  0  0  0  0  0  0  0
    7.2196  -15.3258   17.9908 N   0  0  0  0  0  0  0  0  0  0  0  0
    8.9199  -16.1310   19.4434 C   0  0  0  0  0  0  0  0  0  0  0  0
    8.0722  -16.7238   20.1577 O   0  0  0  0  0  0  0  0  0  0  0  0
   10.2692  -16.5333   19.5790 N   0  0  0  0  0  0  0  0  0  0  0  0
   10.7735  -17.5414   20.4621 C   0  0  1  0  0  0  0  0  0  0  0  0
   11.9710  -18.2933   19.9715 C   0  0  0  0  0  0  0  0  0  0  0  0
   12.4388  -19.3924   20.8077 C   0  0  0  0  0  0  0  0  0  0  0  0
   11.7667  -20.3291   21.5274 C   0  0  0  0  0  0  0  0  0  0  0  0
   12.7074  -21.1014   22.1286 N   0  0  0  0  0  0  0  0  0  0  0  0
   13.9257  -20.6561   21.7915 C   0  0  0  0  0  0  0  0  0  0  0  0
   13.7820  -19.6097   20.9828 N   0  0  0  0  0  0  0  0  0  0  0  0
   11.1109  -16.9311   21.8128 C   0  0  0  0  0  0  0  0  0  0  0  0
   11.8048  -15.8874   21.8820 O   0  0  0  0  0  0  0  0  0  0  0  0
    9.6867  -16.8618   25.1035 C   0  0  0  0  0  0  0  0  0  0  0  0
   10.9991  -16.9574   24.3284 C   0  0  2  0  0  0  0  0  0  0  0  0
   10.6654  -17.5030   23.0265 N   0  0  0  0  0  0  0  0  0  0  0  0
   11.9878  -17.7588   25.0458 C   0  0  0  0  0  0  0  0  0  0  0  0
   13.0179  -17.2330   25.5275 O   0  0  0  0  0  0  0  0  0  0  0  0
   11.7934  -19.1200   25.2013 O   0  0  0  0  0  0  0  0  0  0  0  0
  2  3  1  0
  2  1  1  0
  3  4  1  6
  3  5  1  0
  5  6  1  1
  7  5  1  0
  7  9  1  0
  8  7  2  0
 10  9  1  0
 11 12  1  0
 10 11  1  6
 12 16  1  0
 13 12  2  0
 13 14  1  0
 14 15  1  0
 16 15  2  0
 17 10  1  0
 18 17  2  0
 20 21  1  0
 20 19  1  1
 21 17  1  0
 22 20  1  0
 23 22  2  0
 24 22  1  0
M  END
$$$$
