WLQ.pdb
     RDKit          3D

 32 33  0  0  1  0  0  0  0  0999 V2000
   27.1628  -18.6713   -8.0616 N   0  0  0  0  0  0  0  0  0  0  0  0
   26.9810  -20.0123   -8.5514 C   0  0  1  0  0  0  0  0  0  0  0  0
   26.3485  -20.8550   -7.4871 C   0  0  0  0  0  0  0  0  0  0  0  0
   27.0567  -20.6276   -6.2045 C   0  0  0  0  0  0  0  0  0  0  0  0
   26.4718  -20.5756   -4.9283 C   0  0  0  0  0  0  0  0  0  0  0  0
   27.4124  -20.3904   -3.9930 N   0  0  0  0  0  0  0  0  0  0  0  0
   28.6231  -20.3130   -4.5857 C   0  0  0  0  0  0  0  0  0  0  0  0
   29.8932  -20.1194   -4.0554 C   0  0  0  0  0  0  0  0  0  0  0  0
   30.9897  -20.0650   -4.8898 C   0  0  0  0  0  0  0  0  0  0  0  0
   30.7695  -20.2083   -6.2416 C   0  0  0  0  0  0  0  0  0  0  0  0
   29.4939  -20.4024   -6.7674 C   0  0  0  0  0  0  0  0  0  0  0  0
   28.4049  -20.4579   -5.9427 C   0  0  0  0  0  0  0  0  0  0  0  0
   26.1861  -20.0149   -9.8152 C   0  0  0  0  0  0  0  0  0  0  0  0
   25.2836  -19.1600   -9.9824 O   0  0  0  0  0  0  0  0  0  0  0  0
   28.5765  -21.8376  -14.8261 C   0  0  0  0  0  0  0  0  0  0  0  0
   27.5654  -20.9739  -14.1095 C   0  0  2  0  0  0  0  0  0  0  0  0
   28.1220  -19.6276  -13.8386 C   0  0  0  0  0  0  0  0  0  0  0  0
   26.8058  -21.6376  -13.0408 C   0  0  0  0  0  0  0  0  0  0  0  0
   25.8809  -20.8778  -12.1848 C   0  0  2  0  0  0  0  0  0  0  0  0
   26.4212  -20.9488  -10.8220 N   0  0  0  0  0  0  0  0  0  0  0  0
   24.4534  -21.2229  -12.1977 C   0  0  0  0  0  0  0  0  0  0  0  0
   23.9174  -22.1136  -11.5017 O   0  0  0  0  0  0  0  0  0  0  0  0
   20.0101  -16.9219  -13.1006 N   0  0  0  0  0  0  0  0  0  0  0  0
   19.2523  -18.1076  -13.0965 C   0  0  0  0  0  0  0  0  0  0  0  0
   18.0207  -18.0664  -13.2550 O   0  0  0  0  0  0  0  0  0  0  0  0
   19.9113  -19.4417  -12.9018 C   0  0  0  0  0  0  0  0  0  0  0  0
   21.3979  -19.3344  -13.0887 C   0  0  0  0  0  0  0  0  0  0  0  0
   22.0822  -20.6272  -12.9199 C   0  0  2  0  0  0  0  0  0  0  0  0
   23.5318  -20.5140  -13.0673 N   0  0  0  0  0  0  0  0  0  0  0  0
   21.5263  -21.7095  -13.7205 C   0  0  0  0  0  0  0  0  0  0  0  0
   21.9775  -22.0470  -14.8277 O   0  0  0  0  0  0  0  0  0  0  0  0
   20.4105  -22.4688  -13.2874 O   0  0  0  0  0  0  0  0  0  0  0  0
  2  1  1  1
  2 13  1  0
  3  2  1  0
  4  3  1  0
  5  4  2  0
  6  5  1  0
  7  6  1  0
  7 12  2  0
  8  7  1  0
  9  8  2  0
  9 10  1  0
 10 11  2  0
 11 12  1  0
 12  4  1  0
 13 14  2  0
 13 20  1  0
 16 18  1  0
 16 15  1  1
 16 17  1  0
 19 18  1  6
 19 21  1  0
 20 19  1  0
 21 29  1  0
 22 21  2  0
 24 23  1  0
 25 24  2  0
 26 24  1  0
 27 26  1  0
 28 27  1  6
 28 30  1  0
 29 28  1  0
 30 31  2  0
 30 32  1  0
M  END
$$$$
