WLQ.pdb
     RDKit          3D

 32 33  0  0  1  0  0  0  0  0999 V2000
   25.4889  -18.8032  -17.6311 N   0  0  0  0  0  0  0  0  0  0  0  0
   24.7568  -18.5484  -16.4184 C   0  0  1  0  0  0  0  0  0  0  0  0
   23.3395  -18.1973  -16.7508 C   0  0  0  0  0  0  0  0  0  0  0  0
   23.3117  -16.8717  -17.4145 C   0  0  0  0  0  0  0  0  0  0  0  0
   23.3436  -16.6327  -18.7985 C   0  0  0  0  0  0  0  0  0  0  0  0
   23.2667  -15.3185  -19.0453 N   0  0  0  0  0  0  0  0  0  0  0  0
   23.1838  -14.6482  -17.8760 C   0  0  0  0  0  0  0  0  0  0  0  0
   23.0954  -13.2884  -17.6028 C   0  0  0  0  0  0  0  0  0  0  0  0
   23.0337  -12.8483  -16.2974 C   0  0  0  0  0  0  0  0  0  0  0  0
   23.0634  -13.7996  -15.3022 C   0  0  0  0  0  0  0  0  0  0  0  0
   23.1518  -15.1615  -15.5822 C   0  0  0  0  0  0  0  0  0  0  0  0
   23.2120  -15.6012  -16.8754 C   0  0  0  0  0  0  0  0  0  0  0  0
   24.8428  -19.7138  -15.4891 C   0  0  0  0  0  0  0  0  0  0  0  0
   24.9419  -20.8738  -15.9560 O   0  0  0  0  0  0  0  0  0  0  0  0
   25.9137  -20.1529   -9.4157 C   0  0  0  0  0  0  0  0  0  0  0  0
   25.5687  -20.8979  -10.6837 C   0  0  2  0  0  0  0  0  0  0  0  0
   26.3867  -22.1269  -10.8104 C   0  0  0  0  0  0  0  0  0  0  0  0
   25.3800  -20.0647  -11.8794 C   0  0  0  0  0  0  0  0  0  0  0  0
   24.8356  -20.6353  -13.1218 C   0  0  2  0  0  0  0  0  0  0  0  0
   24.8155  -19.5467  -14.1062 N   0  0  0  0  0  0  0  0  0  0  0  0
   23.5389  -21.3238  -13.0803 C   0  0  0  0  0  0  0  0  0  0  0  0
   23.2948  -22.3702  -12.4394 O   0  0  0  0  0  0  0  0  0  0  0  0
   17.9004  -20.5291  -11.6511 N   0  0  0  0  0  0  0  0  0  0  0  0
   19.0484  -19.8056  -11.2785 C   0  0  0  0  0  0  0  0  0  0  0  0
   19.0627  -19.1500  -10.2232 O   0  0  0  0  0  0  0  0  0  0  0  0
   20.2752  -19.8096  -12.1428 C   0  0  0  0  0  0  0  0  0  0  0  0
   20.0127  -20.5248  -13.4376 C   0  0  0  0  0  0  0  0  0  0  0  0
   21.0962  -21.4546  -13.7977 C   0  0  2  0  0  0  0  0  0  0  0  0
   22.4044  -20.8035  -13.8220 N   0  0  0  0  0  0  0  0  0  0  0  0
   20.8426  -22.2344  -15.0015 C   0  0  0  0  0  0  0  0  0  0  0  0
   21.5625  -22.1907  -16.0130 O   0  0  0  0  0  0  0  0  0  0  0  0
   19.7363  -23.1141  -15.1085 O   0  0  0  0  0  0  0  0  0  0  0  0
  2  1  1  6
  2 13  1  0
  3  2  1  0
  4  3  1  0
  5  4  2  0
  6  5  1  0
  7  6  1  0
  7 12  2  0
  8  7  1  0
  9  8  2  0
  9 10  1  0
 10 11  2  0
 11 12  1  0
 12  4  1  0
 13 14  2  0
 13 20  1  0
 16 18  1  0
 16 15  1  1
 16 17  1  0
 19 18  1  1
 19 21  1  0
 20 19  1  0
 21 29  1  0
 22 21  2  0
 24 23  1  0
 25 24  2  0
 26 24  1  0
 27 26  1  0
 28 27  1  6
 28 30  1  0
 29 28  1  0
 30 31  2  0
 30 32  1  0
M  END
$$$$
