WLQ.pdb
     RDKit          3D

 32 33  0  0  1  0  0  0  0  0999 V2000
   27.7645  -20.1346  -17.5613 N   0  0  0  0  0  0  0  0  0  0  0  0
   26.9205  -19.9404  -16.4118 C   0  0  1  0  0  0  0  0  0  0  0  0
   25.4840  -20.0684  -16.8153 C   0  0  0  0  0  0  0  0  0  0  0  0
   25.0933  -18.8732  -17.6011 C   0  0  0  0  0  0  0  0  0  0  0  0
   25.4469  -18.6005  -18.9330 C   0  0  0  0  0  0  0  0  0  0  0  0
   24.8899  -17.4510  -19.3359 N   0  0  0  0  0  0  0  0  0  0  0  0
   24.1664  -16.9261  -18.3239 C   0  0  0  0  0  0  0  0  0  0  0  0
   23.4183  -15.7576  -18.2413 C   0  0  0  0  0  0  0  0  0  0  0  0
   22.7700  -15.4336  -17.0681 C   0  0  0  0  0  0  0  0  0  0  0  0
   22.8974  -16.3037  -16.0084 C   0  0  0  0  0  0  0  0  0  0  0  0
   23.6485  -17.4737  -16.0973 C   0  0  0  0  0  0  0  0  0  0  0  0
   24.2916  -17.7984  -17.2593 C   0  0  0  0  0  0  0  0  0  0  0  0
   27.2827  -20.8901  -15.3182 C   0  0  0  0  0  0  0  0  0  0  0  0
   27.5450  -22.0849  -15.5954 O   0  0  0  0  0  0  0  0  0  0  0  0
   30.1277  -22.1840  -12.0714 C   0  0  0  0  0  0  0  0  0  0  0  0
   29.5243  -20.8189  -11.8386 C   0  0  2  0  0  0  0  0  0  0  0  0
   30.2975  -20.0690  -10.8209 C   0  0  0  0  0  0  0  0  0  0  0  0
   28.0572  -20.7763  -11.7643 C   0  0  0  0  0  0  0  0  0  0  0  0
   27.2277  -21.3711  -12.8244 C   0  0  2  0  0  0  0  0  0  0  0  0
   27.3374  -20.4820  -13.9871 N   0  0  0  0  0  0  0  0  0  0  0  0
   25.8213  -21.6818  -12.5373 C   0  0  0  0  0  0  0  0  0  0  0  0
   25.4167  -22.4149  -11.6078 O   0  0  0  0  0  0  0  0  0  0  0  0
   20.8045  -18.8457  -14.5885 N   0  0  0  0  0  0  0  0  0  0  0  0
   20.2226  -19.7269  -13.6583 C   0  0  0  0  0  0  0  0  0  0  0  0
   18.9871  -19.8326  -13.5810 O   0  0  0  0  0  0  0  0  0  0  0  0
   21.0770  -20.5547  -12.7436 C   0  0  0  0  0  0  0  0  0  0  0  0
   22.5319  -20.2357  -12.9391 C   0  0  0  0  0  0  0  0  0  0  0  0
   23.3532  -21.4430  -13.1294 C   0  0  2  0  0  0  0  0  0  0  0  0
   24.7615  -21.1282  -13.3610 N   0  0  0  0  0  0  0  0  0  0  0  0
   22.8254  -22.3792  -14.1124 C   0  0  0  0  0  0  0  0  0  0  0  0
   21.8397  -23.1072  -13.9080 O   0  0  0  0  0  0  0  0  0  0  0  0
   23.4088  -22.5309  -15.3953 O   0  0  0  0  0  0  0  0  0  0  0  0
  2  1  1  6
  2 13  1  0
  3  2  1  0
  4  3  1  0
  5  4  2  0
  6  5  1  0
  7  6  1  0
  7 12  2  0
  8  7  1  0
  9  8  2  0
  9 10  1  0
 10 11  2  0
 11 12  1  0
 12  4  1  0
 13 14  2  0
 13 20  1  0
 16 18  1  0
 16 15  1  1
 16 17  1  0
 19 18  1  1
 19 21  1  0
 20 19  1  0
 21 29  1  0
 22 21  2  0
 24 23  1  0
 25 24  2  0
 26 24  1  0
 27 26  1  0
 28 27  1  6
 28 30  1  0
 29 28  1  0
 30 31  2  0
 30 32  1  0
M  END
$$$$
