WLQ.pdb
     RDKit          3D

 32 33  0  0  1  0  0  0  0  0999 V2000
   23.2947  -19.9264   -8.4612 N   0  0  0  0  0  0  0  0  0  0  0  0
   24.7021  -20.1257   -8.6866 C   0  0  1  0  0  0  0  0  0  0  0  0
   25.1820  -21.2882   -7.8737 C   0  0  0  0  0  0  0  0  0  0  0  0
   25.8787  -20.7809   -6.6671 C   0  0  0  0  0  0  0  0  0  0  0  0
   25.2829  -20.4533   -5.4378 C   0  0  0  0  0  0  0  0  0  0  0  0
   26.2150  -20.0622   -4.5591 N   0  0  0  0  0  0  0  0  0  0  0  0
   27.4303  -20.1102   -5.1455 C   0  0  0  0  0  0  0  0  0  0  0  0
   28.6951  -19.7980   -4.6612 C   0  0  0  0  0  0  0  0  0  0  0  0
   29.7984  -19.9222   -5.4792 C   0  0  0  0  0  0  0  0  0  0  0  0
   29.5900  -20.3599   -6.7681 C   0  0  0  0  0  0  0  0  0  0  0  0
   28.3196  -20.6716   -7.2478 C   0  0  0  0  0  0  0  0  0  0  0  0
   27.2239  -20.5507   -6.4391 C   0  0  0  0  0  0  0  0  0  0  0  0
   24.9892  -20.3016  -10.1412 C   0  0  0  0  0  0  0  0  0  0  0  0
   24.0453  -20.5185  -10.9383 O   0  0  0  0  0  0  0  0  0  0  0  0
   30.3641  -20.3775  -13.2572 C   0  0  0  0  0  0  0  0  0  0  0  0
   28.8648  -20.2145  -13.3430 C   0  0  2  0  0  0  0  0  0  0  0  0
   28.5110  -19.0200  -14.1453 C   0  0  0  0  0  0  0  0  0  0  0  0
   28.1266  -20.4547  -12.0952 C   0  0  0  0  0  0  0  0  0  0  0  0
   26.6582  -20.3668  -12.0551 C   0  0  2  0  0  0  0  0  0  0  0  0
   26.2876  -20.2312  -10.6414 N   0  0  0  0  0  0  0  0  0  0  0  0
   25.8645  -21.4192  -12.7029 C   0  0  0  0  0  0  0  0  0  0  0  0
   25.6718  -22.5671  -12.2440 O   0  0  0  0  0  0  0  0  0  0  0  0
   19.3619  -21.7225  -14.6731 N   0  0  0  0  0  0  0  0  0  0  0  0
   20.4173  -22.1642  -13.8538 C   0  0  0  0  0  0  0  0  0  0  0  0
   20.2698  -22.2330  -12.6221 O   0  0  0  0  0  0  0  0  0  0  0  0
   21.7379  -22.5603  -14.4464 C   0  0  0  0  0  0  0  0  0  0  0  0
   22.8340  -21.6565  -13.9580 C   0  0  0  0  0  0  0  0  0  0  0  0
   24.1541  -22.0324  -14.4910 C   0  0  2  0  0  0  0  0  0  0  0  0
   25.2244  -21.1765  -13.9833 N   0  0  0  0  0  0  0  0  0  0  0  0
   24.1981  -22.1747  -15.9399 C   0  0  0  0  0  0  0  0  0  0  0  0
   24.3531  -21.2202  -16.7198 O   0  0  0  0  0  0  0  0  0  0  0  0
   24.0640  -23.4342  -16.5762 O   0  0  0  0  0  0  0  0  0  0  0  0
  2  1  1  6
  2 13  1  0
  3  2  1  0
  4  3  1  0
  5  4  2  0
  6  5  1  0
  7  6  1  0
  7 12  2  0
  8  7  1  0
  9  8  2  0
  9 10  1  0
 10 11  2  0
 11 12  1  0
 12  4  1  0
 13 14  2  0
 13 20  1  0
 16 18  1  0
 16 15  1  1
 16 17  1  0
 19 18  1  1
 19 21  1  0
 20 19  1  0
 21 29  1  0
 22 21  2  0
 24 23  1  0
 25 24  2  0
 26 24  1  0
 27 26  1  0
 28 27  1  6
 28 30  1  0
 29 28  1  0
 30 31  2  0
 30 32  1  0
M  END
$$$$
