WLQ.pdb
     RDKit          3D

 32 33  0  0  1  0  0  0  0  0999 V2000
   27.0477  -20.9789  -12.8313 N   0  0  0  0  0  0  0  0  0  0  0  0
   26.0807  -20.4606  -11.8998 C   0  0  1  0  0  0  0  0  0  0  0  0
   24.7081  -20.9069  -12.2993 C   0  0  0  0  0  0  0  0  0  0  0  0
   24.3284  -20.2324  -13.5641 C   0  0  0  0  0  0  0  0  0  0  0  0
   25.1877  -19.5238  -14.4202 C   0  0  0  0  0  0  0  0  0  0  0  0
   24.5149  -19.0777  -15.4890 N   0  0  0  0  0  0  0  0  0  0  0  0
   23.2224  -19.4567  -15.3938 C   0  0  0  0  0  0  0  0  0  0  0  0
   22.1375  -19.2351  -16.2338 C   0  0  0  0  0  0  0  0  0  0  0  0
   20.8931  -19.7266  -15.8999 C   0  0  0  0  0  0  0  0  0  0  0  0
   20.7812  -20.4305  -14.7216 C   0  0  0  0  0  0  0  0  0  0  0  0
   21.8725  -20.6497  -13.8836 C   0  0  0  0  0  0  0  0  0  0  0  0
   23.1078  -20.1648  -14.2125 C   0  0  0  0  0  0  0  0  0  0  0  0
   26.4172  -20.8642  -10.5024 C   0  0  0  0  0  0  0  0  0  0  0  0
   26.3601  -22.0737  -10.1750 O   0  0  0  0  0  0  0  0  0  0  0  0
   28.6646  -20.4889   -5.6682 C   0  0  0  0  0  0  0  0  0  0  0  0
   28.2235  -19.1331   -6.1672 C   0  0  2  0  0  0  0  0  0  0  0  0
   27.4377  -18.4219   -5.1316 C   0  0  0  0  0  0  0  0  0  0  0  0
   27.7392  -19.0926   -7.5541 C   0  0  0  0  0  0  0  0  0  0  0  0
   26.9342  -20.1932   -8.1075 C   0  0  2  0  0  0  0  0  0  0  0  0
   26.7957  -19.9263   -9.5441 N   0  0  0  0  0  0  0  0  0  0  0  0
   25.6285  -20.4923   -7.5052 C   0  0  0  0  0  0  0  0  0  0  0  0
   25.4174  -20.6698   -6.2849 O   0  0  0  0  0  0  0  0  0  0  0  0
   18.6998  -21.9915   -9.4182 N   0  0  0  0  0  0  0  0  0  0  0  0
   19.6381  -20.9514   -9.2842 C   0  0  0  0  0  0  0  0  0  0  0  0
   19.6125  -19.9789  -10.0571 O   0  0  0  0  0  0  0  0  0  0  0  0
   20.6852  -20.9929   -8.2101 C   0  0  0  0  0  0  0  0  0  0  0  0
   22.0531  -20.7707   -8.7900 C   0  0  0  0  0  0  0  0  0  0  0  0
   23.1101  -20.7912   -7.7652 C   0  0  2  0  0  0  0  0  0  0  0  0
   24.4432  -20.6079   -8.3357 N   0  0  0  0  0  0  0  0  0  0  0  0
   23.0463  -21.9304   -6.8598 C   0  0  0  0  0  0  0  0  0  0  0  0
   23.8780  -22.8532   -6.8568 O   0  0  0  0  0  0  0  0  0  0  0  0
   22.0123  -22.0716   -5.9007 O   0  0  0  0  0  0  0  0  0  0  0  0
  2  1  1  6
  2 13  1  0
  3  2  1  0
  4  3  1  0
  5  4  2  0
  6  5  1  0
  7  6  1  0
  7 12  2  0
  8  7  1  0
  9  8  2  0
  9 10  1  0
 10 11  2  0
 11 12  1  0
 12  4  1  0
 13 14  2  0
 13 20  1  0
 16 18  1  0
 16 15  1  1
 16 17  1  0
 19 18  1  1
 19 21  1  0
 20 19  1  0
 21 29  1  0
 22 21  2  0
 24 23  1  0
 25 24  2  0
 26 24  1  0
 27 26  1  0
 28 27  1  6
 28 30  1  0
 29 28  1  0
 30 31  2  0
 30 32  1  0
M  END
$$$$
