WLQ.pdb
     RDKit          3D

 32 33  0  0  1  0  0  0  0  0999 V2000
   28.2936  -20.9842  -15.6690 N   0  0  0  0  0  0  0  0  0  0  0  0
   27.3173  -20.1154  -15.0662 C   0  0  1  0  0  0  0  0  0  0  0  0
   26.4623  -19.5033  -16.1325 C   0  0  0  0  0  0  0  0  0  0  0  0
   27.1506  -18.3092  -16.6793 C   0  0  0  0  0  0  0  0  0  0  0  0
   27.7456  -18.1989  -17.9471 C   0  0  0  0  0  0  0  0  0  0  0  0
   28.2425  -16.9674  -18.1219 N   0  0  0  0  0  0  0  0  0  0  0  0
   28.0084  -16.2297  -17.0154 C   0  0  0  0  0  0  0  0  0  0  0  0
   28.3314  -14.9140  -16.7052 C   0  0  0  0  0  0  0  0  0  0  0  0
   27.9846  -14.3880  -15.4785 C   0  0  0  0  0  0  0  0  0  0  0  0
   27.3189  -15.2109  -14.5975 C   0  0  0  0  0  0  0  0  0  0  0  0
   26.9976  -16.5291  -14.9143 C   0  0  0  0  0  0  0  0  0  0  0  0
   27.3389  -17.0531  -16.1300 C   0  0  0  0  0  0  0  0  0  0  0  0
   26.5066  -20.8490  -14.0495 C   0  0  0  0  0  0  0  0  0  0  0  0
   26.1502  -22.0303  -14.2747 O   0  0  0  0  0  0  0  0  0  0  0  0
   25.6000  -22.4922   -9.5113 C   0  0  0  0  0  0  0  0  0  0  0  0
   26.0933  -21.0685   -9.6187 C   0  0  2  0  0  0  0  0  0  0  0  0
   26.3484  -20.4978   -8.2752 C   0  0  0  0  0  0  0  0  0  0  0  0
   25.4033  -20.2295  -10.6084 C   0  0  0  0  0  0  0  0  0  0  0  0
   25.0828  -20.7470  -11.9482 C   0  0  2  0  0  0  0  0  0  0  0  0
   26.1317  -20.2521  -12.8477 N   0  0  0  0  0  0  0  0  0  0  0  0
   23.7506  -20.4898  -12.5104 C   0  0  0  0  0  0  0  0  0  0  0  0
   23.3667  -19.4020  -12.9948 O   0  0  0  0  0  0  0  0  0  0  0  0
   19.6506  -24.3752  -14.5488 N   0  0  0  0  0  0  0  0  0  0  0  0
   19.1155  -23.1719  -15.0449 C   0  0  0  0  0  0  0  0  0  0  0  0
   17.9668  -23.1431  -15.5176 O   0  0  0  0  0  0  0  0  0  0  0  0
   19.9160  -21.9030  -15.0142 C   0  0  0  0  0  0  0  0  0  0  0  0
   21.2539  -22.1321  -14.3706 C   0  0  0  0  0  0  0  0  0  0  0  0
   21.4317  -21.3398  -13.1423 C   0  0  2  0  0  0  0  0  0  0  0  0
   22.7468  -21.5385  -12.5364 N   0  0  0  0  0  0  0  0  0  0  0  0
   20.3499  -21.4781  -12.1769 C   0  0  0  0  0  0  0  0  0  0  0  0
   20.3499  -22.3165  -11.2601 O   0  0  0  0  0  0  0  0  0  0  0  0
   19.1983  -20.6526  -12.2146 O   0  0  0  0  0  0  0  0  0  0  0  0
  2  1  1  6
  2 13  1  0
  3  2  1  0
  4  3  1  0
  5  4  2  0
  6  5  1  0
  7  6  1  0
  7 12  2  0
  8  7  1  0
  9  8  2  0
  9 10  1  0
 10 11  2  0
 11 12  1  0
 12  4  1  0
 13 14  2  0
 13 20  1  0
 16 18  1  0
 16 15  1  1
 16 17  1  0
 19 18  1  1
 19 21  1  0
 20 19  1  0
 21 29  1  0
 22 21  2  0
 24 23  1  0
 25 24  2  0
 26 24  1  0
 27 26  1  0
 28 27  1  6
 28 30  1  0
 29 28  1  0
 30 31  2  0
 30 32  1  0
M  END
$$$$
