WLQ.pdb
     RDKit          3D

 32 33  0  0  1  0  0  0  0  0999 V2000
   28.6789  -20.1776  -17.1850 N   0  0  0  0  0  0  0  0  0  0  0  0
   27.8265  -19.8900  -16.0616 C   0  0  1  0  0  0  0  0  0  0  0  0
   26.3940  -20.0761  -16.4565 C   0  0  0  0  0  0  0  0  0  0  0  0
   25.9674  -18.9253  -17.2885 C   0  0  0  0  0  0  0  0  0  0  0  0
   26.8036  -18.0977  -18.0561 C   0  0  0  0  0  0  0  0  0  0  0  0
   26.0776  -17.1811  -18.7094 N   0  0  0  0  0  0  0  0  0  0  0  0
   24.7712  -17.3525  -18.4146 C   0  0  0  0  0  0  0  0  0  0  0  0
   23.6393  -16.6594  -18.8272 C   0  0  0  0  0  0  0  0  0  0  0  0
   22.3945  -17.0307  -18.3643 C   0  0  0  0  0  0  0  0  0  0  0  0
   22.3299  -18.0961  -17.4943 C   0  0  0  0  0  0  0  0  0  0  0  0
   23.4681  -18.7873  -17.0844 C   0  0  0  0  0  0  0  0  0  0  0  0
   24.7035  -18.4224  -17.5423 C   0  0  0  0  0  0  0  0  0  0  0  0
   28.1971  -20.7284  -14.8831 C   0  0  0  0  0  0  0  0  0  0  0  0
   28.4057  -21.9558  -15.0357 O   0  0  0  0  0  0  0  0  0  0  0  0
   30.0335  -20.3632   -9.1897 C   0  0  0  0  0  0  0  0  0  0  0  0
   29.3508  -21.0783  -10.3318 C   0  0  2  0  0  0  0  0  0  0  0  0
   30.2266  -22.1362  -10.8881 C   0  0  0  0  0  0  0  0  0  0  0  0
   28.6181  -20.2195  -11.2726 C   0  0  0  0  0  0  0  0  0  0  0  0
   27.8288  -20.7999  -12.3706 C   0  0  2  0  0  0  0  0  0  0  0  0
   28.3181  -20.1802  -13.6079 N   0  0  0  0  0  0  0  0  0  0  0  0
   26.3629  -20.7397  -12.3024 C   0  0  0  0  0  0  0  0  0  0  0  0
   25.6760  -19.6978  -12.3901 O   0  0  0  0  0  0  0  0  0  0  0  0
   22.4923  -25.4983  -13.8360 N   0  0  0  0  0  0  0  0  0  0  0  0
   21.5988  -24.4657  -13.4959 C   0  0  0  0  0  0  0  0  0  0  0  0
   20.3763  -24.6129  -13.6617 O   0  0  0  0  0  0  0  0  0  0  0  0
   22.0998  -23.1701  -12.9280 C   0  0  0  0  0  0  0  0  0  0  0  0
   23.5950  -23.1936  -12.7848 C   0  0  0  0  0  0  0  0  0  0  0  0
   24.1241  -21.9540  -12.1919 C   0  0  2  0  0  0  0  0  0  0  0  0
   25.5837  -21.9507  -12.1170 N   0  0  0  0  0  0  0  0  0  0  0  0
   23.5033  -21.5804  -10.9283 C   0  0  0  0  0  0  0  0  0  0  0  0
   24.0716  -21.6785   -9.8280 O   0  0  0  0  0  0  0  0  0  0  0  0
   22.1827  -21.0699  -10.8613 O   0  0  0  0  0  0  0  0  0  0  0  0
  2  1  1  6
  2 13  1  0
  3  2  1  0
  4  3  1  0
  5  4  2  0
  6  5  1  0
  7  6  1  0
  7 12  2  0
  8  7  1  0
  9  8  2  0
  9 10  1  0
 10 11  2  0
 11 12  1  0
 12  4  1  0
 13 14  2  0
 13 20  1  0
 16 18  1  0
 16 15  1  6
 16 17  1  0
 19 18  1  1
 19 21  1  0
 20 19  1  0
 21 29  1  0
 22 21  2  0
 24 23  1  0
 25 24  2  0
 26 24  1  0
 27 26  1  0
 28 27  1  1
 28 30  1  0
 29 28  1  0
 30 31  2  0
 30 32  1  0
M  END
$$$$
