WLQ.pdb
     RDKit          3D

 32 33  0  0  1  0  0  0  0  0999 V2000
   24.1873  -18.9498  -10.9575 N   0  0  0  0  0  0  0  0  0  0  0  0
   25.3147  -19.8092  -11.2061 C   0  0  1  0  0  0  0  0  0  0  0  0
   25.1578  -21.0813  -10.4316 C   0  0  0  0  0  0  0  0  0  0  0  0
   25.3370  -20.7948   -8.9879 C   0  0  0  0  0  0  0  0  0  0  0  0
   24.3221  -20.7382   -8.0182 C   0  0  0  0  0  0  0  0  0  0  0  0
   24.8464  -20.4920   -6.8105 N   0  0  0  0  0  0  0  0  0  0  0  0
   26.1873  -20.3774   -6.9201 C   0  0  0  0  0  0  0  0  0  0  0  0
   27.1664  -20.1184   -5.9683 C   0  0  0  0  0  0  0  0  0  0  0  0
   28.4909  -20.0371   -6.3437 C   0  0  0  0  0  0  0  0  0  0  0  0
   28.7881  -20.2207   -7.6757 C   0  0  0  0  0  0  0  0  0  0  0  0
   27.8022  -20.4803   -8.6253 C   0  0  0  0  0  0  0  0  0  0  0  0
   26.4883  -20.5626   -8.2562 C   0  0  0  0  0  0  0  0  0  0  0  0
   25.4818  -20.0596  -12.6684 C   0  0  0  0  0  0  0  0  0  0  0  0
   24.5199  -19.8549  -13.4470 O   0  0  0  0  0  0  0  0  0  0  0  0
   28.4815  -18.1605  -15.5653 C   0  0  0  0  0  0  0  0  0  0  0  0
   29.1310  -19.2438  -14.7368 C   0  0  2  0  0  0  0  0  0  0  0  0
   30.6036  -19.2187  -14.9000 C   0  0  0  0  0  0  0  0  0  0  0  0
   28.4541  -20.5481  -14.7521 C   0  0  0  0  0  0  0  0  0  0  0  0
   26.9910  -20.6436  -14.6265 C   0  0  2  0  0  0  0  0  0  0  0  0
   26.6868  -20.5186  -13.1961 N   0  0  0  0  0  0  0  0  0  0  0  0
   26.3013  -21.8035  -15.2062 C   0  0  0  0  0  0  0  0  0  0  0  0
   26.5592  -23.0010  -14.9518 O   0  0  0  0  0  0  0  0  0  0  0  0
   20.3810  -23.0015  -15.9674 N   0  0  0  0  0  0  0  0  0  0  0  0
   21.1079  -24.2053  -16.0226 C   0  0  0  0  0  0  0  0  0  0  0  0
   20.5336  -25.2940  -15.8540 O   0  0  0  0  0  0  0  0  0  0  0  0
   22.5854  -24.2010  -16.2852 C   0  0  0  0  0  0  0  0  0  0  0  0
   23.1019  -22.7952  -16.4030 C   0  0  0  0  0  0  0  0  0  0  0  0
   24.5260  -22.7471  -16.7737 C   0  0  2  0  0  0  0  0  0  0  0  0
   25.2235  -21.6182  -16.1613 N   0  0  0  0  0  0  0  0  0  0  0  0
   24.7773  -22.8435  -18.2052 C   0  0  0  0  0  0  0  0  0  0  0  0
   24.7812  -21.8643  -18.9697 O   0  0  0  0  0  0  0  0  0  0  0  0
   25.0391  -24.0830  -18.8408 O   0  0  0  0  0  0  0  0  0  0  0  0
  2  1  1  6
  2 13  1  0
  3  2  1  0
  4  3  1  0
  5  4  2  0
  6  5  1  0
  7  6  1  0
  7 12  2  0
  8  7  1  0
  9  8  2  0
  9 10  1  0
 10 11  2  0
 11 12  1  0
 12  4  1  0
 13 14  2  0
 13 20  1  0
 16 18  1  0
 16 15  1  6
 16 17  1  0
 19 18  1  1
 19 21  1  0
 20 19  1  0
 21 29  1  0
 22 21  2  0
 24 23  1  0
 25 24  2  0
 26 24  1  0
 27 26  1  0
 28 27  1  6
 28 30  1  0
 29 28  1  0
 30 31  2  0
 30 32  1  0
M  END
$$$$
