WLQ.pdb
     RDKit          3D

 32 33  0  0  1  0  0  0  0  0999 V2000
   26.1188  -18.2969  -14.1058 N   0  0  0  0  0  0  0  0  0  0  0  0
   26.6768  -19.6031  -14.3382 C   0  0  1  0  0  0  0  0  0  0  0  0
   27.9808  -19.4713  -15.0628 C   0  0  0  0  0  0  0  0  0  0  0  0
   27.8188  -18.5108  -16.1807 C   0  0  0  0  0  0  0  0  0  0  0  0
   28.4938  -17.2881  -16.3322 C   0  0  0  0  0  0  0  0  0  0  0  0
   28.1303  -16.6952  -17.4769 N   0  0  0  0  0  0  0  0  0  0  0  0
   27.2279  -17.4707  -18.1151 C   0  0  0  0  0  0  0  0  0  0  0  0
   26.5529  -17.2928  -19.3170 C   0  0  0  0  0  0  0  0  0  0  0  0
   25.6550  -18.2444  -19.7529 C   0  0  0  0  0  0  0  0  0  0  0  0
   25.4649  -19.3526  -18.9578 C   0  0  0  0  0  0  0  0  0  0  0  0
   26.1447  -19.5256  -17.7540 C   0  0  0  0  0  0  0  0  0  0  0  0
   27.0363  -18.5845  -17.3196 C   0  0  0  0  0  0  0  0  0  0  0  0
   26.8204  -20.3568  -13.0575 C   0  0  0  0  0  0  0  0  0  0  0  0
   27.3696  -21.4845  -13.0593 O   0  0  0  0  0  0  0  0  0  0  0  0
   27.3783  -21.3023   -7.8581 C   0  0  0  0  0  0  0  0  0  0  0  0
   26.7412  -19.9573   -8.1164 C   0  0  2  0  0  0  0  0  0  0  0  0
   25.5574  -19.7607   -7.2471 C   0  0  0  0  0  0  0  0  0  0  0  0
   26.6371  -19.5637   -9.5285 C   0  0  0  0  0  0  0  0  0  0  0  0
   26.3377  -20.5576  -10.5716 C   0  0  2  0  0  0  0  0  0  0  0  0
   26.3568  -19.8377  -11.8505 N   0  0  0  0  0  0  0  0  0  0  0  0
   25.1214  -21.3719  -10.4504 C   0  0  0  0  0  0  0  0  0  0  0  0
   25.0931  -22.6142  -10.3048 O   0  0  0  0  0  0  0  0  0  0  0  0
   19.7389  -23.0573   -8.4142 N   0  0  0  0  0  0  0  0  0  0  0  0
   19.3275  -22.5068   -9.6422 C   0  0  0  0  0  0  0  0  0  0  0  0
   18.1263  -22.2700   -9.8535 O   0  0  0  0  0  0  0  0  0  0  0  0
   20.3255  -22.1946  -10.7186 C   0  0  0  0  0  0  0  0  0  0  0  0
   21.4968  -21.4401  -10.1571 C   0  0  0  0  0  0  0  0  0  0  0  0
   22.6499  -21.4262  -11.0728 C   0  0  2  0  0  0  0  0  0  0  0  0
   23.8105  -20.7496  -10.4973 N   0  0  0  0  0  0  0  0  0  0  0  0
   22.3435  -20.9553  -12.4167 C   0  0  0  0  0  0  0  0  0  0  0  0
   22.6568  -21.5715  -13.4488 O   0  0  0  0  0  0  0  0  0  0  0  0
   21.6546  -19.7384  -12.6482 O   0  0  0  0  0  0  0  0  0  0  0  0
  2  1  1  1
  2 13  1  0
  3  2  1  0
  4  3  1  0
  5  4  2  0
  6  5  1  0
  7  6  1  0
  7 12  2  0
  8  7  1  0
  9  8  2  0
  9 10  1  0
 10 11  2  0
 11 12  1  0
 12  4  1  0
 13 14  2  0
 13 20  1  0
 16 18  1  0
 16 15  1  6
 16 17  1  0
 19 18  1  1
 19 21  1  0
 20 19  1  0
 21 29  1  0
 22 21  2  0
 24 23  1  0
 25 24  2  0
 26 24  1  0
 27 26  1  0
 28 27  1  1
 28 30  1  0
 29 28  1  0
 30 31  2  0
 30 32  1  0
M  END
$$$$
