WLQ.pdb
     RDKit          3D

 32 33  0  0  1  0  0  0  0  0999 V2000
   27.5192  -20.5060  -16.4514 N   0  0  0  0  0  0  0  0  0  0  0  0
   26.7700  -19.7073  -15.5174 C   0  0  1  0  0  0  0  0  0  0  0  0
   25.9457  -18.7031  -16.2623 C   0  0  0  0  0  0  0  0  0  0  0  0
   26.8191  -17.5868  -16.6979 C   0  0  0  0  0  0  0  0  0  0  0  0
   27.5965  -17.5454  -17.8672 C   0  0  0  0  0  0  0  0  0  0  0  0
   28.2320  -16.3702  -17.9616 N   0  0  0  0  0  0  0  0  0  0  0  0
   27.9166  -15.6045  -16.8952 C   0  0  0  0  0  0  0  0  0  0  0  0
   28.3200  -14.3245  -16.5338 C   0  0  0  0  0  0  0  0  0  0  0  0
   27.8556  -13.7574  -15.3657 C   0  0  0  0  0  0  0  0  0  0  0  0
   26.9935  -14.5039  -14.5938 C   0  0  0  0  0  0  0  0  0  0  0  0
   26.5923  -15.7865  -14.9615 C   0  0  0  0  0  0  0  0  0  0  0  0
   27.0500  -16.3511  -16.1194 C   0  0  0  0  0  0  0  0  0  0  0  0
   25.9359  -20.5691  -14.6283 C   0  0  0  0  0  0  0  0  0  0  0  0
   25.4821  -21.6543  -15.0639 O   0  0  0  0  0  0  0  0  0  0  0  0
   26.5740  -22.4054  -10.5196 C   0  0  0  0  0  0  0  0  0  0  0  0
   26.2898  -20.9238  -10.4438 C   0  0  2  0  0  0  0  0  0  0  0  0
   26.6334  -20.3904   -9.1047 C   0  0  0  0  0  0  0  0  0  0  0  0
   25.0309  -20.4854  -11.0623 C   0  0  0  0  0  0  0  0  0  0  0  0
   24.6863  -20.8773  -12.4382 C   0  0  2  0  0  0  0  0  0  0  0  0
   25.6451  -20.1976  -13.3174 N   0  0  0  0  0  0  0  0  0  0  0  0
   23.3110  -20.6753  -12.9123 C   0  0  0  0  0  0  0  0  0  0  0  0
   22.7970  -19.5698  -13.1934 O   0  0  0  0  0  0  0  0  0  0  0  0
   20.4031  -22.9321  -17.0531 N   0  0  0  0  0  0  0  0  0  0  0  0
   19.1982  -22.7635  -16.3459 C   0  0  0  0  0  0  0  0  0  0  0  0
   18.1189  -22.6778  -16.9554 O   0  0  0  0  0  0  0  0  0  0  0  0
   19.1898  -22.6841  -14.8474 C   0  0  0  0  0  0  0  0  0  0  0  0
   20.5771  -22.8541  -14.2967 C   0  0  0  0  0  0  0  0  0  0  0  0
   21.0575  -21.6507  -13.5975 C   0  0  2  0  0  0  0  0  0  0  0  0
   22.4192  -21.8071  -13.0900 N   0  0  0  0  0  0  0  0  0  0  0  0
   20.1437  -21.1399  -12.5848 C   0  0  0  0  0  0  0  0  0  0  0  0
   20.3320  -21.2652  -11.3633 O   0  0  0  0  0  0  0  0  0  0  0  0
   18.9522  -20.4518  -12.9255 O   0  0  0  0  0  0  0  0  0  0  0  0
  2  1  1  6
  2 13  1  0
  3  2  1  0
  4  3  1  0
  5  4  2  0
  6  5  1  0
  7  6  1  0
  7 12  2  0
  8  7  1  0
  9  8  2  0
  9 10  1  0
 10 11  2  0
 11 12  1  0
 12  4  1  0
 13 14  2  0
 13 20  1  0
 16 18  1  0
 16 15  1  1
 16 17  1  0
 19 18  1  1
 19 21  1  0
 20 19  1  0
 21 29  1  0
 22 21  2  0
 24 23  1  0
 25 24  2  0
 26 24  1  0
 27 26  1  0
 28 27  1  1
 28 30  1  0
 29 28  1  0
 30 31  2  0
 30 32  1  0
M  END
$$$$
