WLQ.pdb
     RDKit          3D

 32 33  0  0  1  0  0  0  0  0999 V2000
   25.7883  -18.8185  -11.0480 N   0  0  0  0  0  0  0  0  0  0  0  0
   26.3340  -20.1154  -11.3506 C   0  0  1  0  0  0  0  0  0  0  0  0
   25.7652  -21.1323  -10.4098 C   0  0  0  0  0  0  0  0  0  0  0  0
   25.9850  -20.6787   -9.0154 C   0  0  0  0  0  0  0  0  0  0  0  0
   24.9984  -20.2369   -8.1183 C   0  0  0  0  0  0  0  0  0  0  0  0
   25.5472  -19.9393   -6.9333 N   0  0  0  0  0  0  0  0  0  0  0  0
   26.8778  -20.1619   -6.9883 C   0  0  0  0  0  0  0  0  0  0  0  0
   27.8752  -19.9984   -6.0343 C   0  0  0  0  0  0  0  0  0  0  0  0
   29.1861  -20.2898   -6.3479 C   0  0  0  0  0  0  0  0  0  0  0  0
   29.4515  -20.7397   -7.6221 C   0  0  0  0  0  0  0  0  0  0  0  0
   28.4473  -20.9020   -8.5742 C   0  0  0  0  0  0  0  0  0  0  0  0
   27.1466  -20.6151   -8.2660 C   0  0  0  0  0  0  0  0  0  0  0  0
   26.0917  -20.4754  -12.7791 C   0  0  0  0  0  0  0  0  0  0  0  0
   25.1427  -19.9411  -13.4014 O   0  0  0  0  0  0  0  0  0  0  0  0
   29.8633  -23.3853  -16.7283 C   0  0  0  0  0  0  0  0  0  0  0  0
   28.6432  -22.5072  -16.5799 C   0  0  2  0  0  0  0  0  0  0  0  0
   28.6598  -21.4113  -17.5771 C   0  0  0  0  0  0  0  0  0  0  0  0
   28.2577  -22.1823  -15.1995 C   0  0  0  0  0  0  0  0  0  0  0  0
   26.9496  -21.5779  -14.9008 C   0  0  2  0  0  0  0  0  0  0  0  0
   26.8974  -21.3965  -13.4453 N   0  0  0  0  0  0  0  0  0  0  0  0
   25.7322  -22.2400  -15.3871 C   0  0  0  0  0  0  0  0  0  0  0  0
   25.4174  -22.3846  -16.5893 O   0  0  0  0  0  0  0  0  0  0  0  0
   22.8013  -27.4798  -14.1047 N   0  0  0  0  0  0  0  0  0  0  0  0
   21.7308  -26.5871  -13.9111 C   0  0  0  0  0  0  0  0  0  0  0  0
   20.5737  -27.0159  -13.7668 O   0  0  0  0  0  0  0  0  0  0  0  0
   21.9617  -25.1048  -13.8745 C   0  0  0  0  0  0  0  0  0  0  0  0
   23.4152  -24.7863  -14.0808 C   0  0  0  0  0  0  0  0  0  0  0  0
   23.6172  -23.5749  -14.8930 C   0  0  2  0  0  0  0  0  0  0  0  0
   24.7702  -22.7932  -14.4508 N   0  0  0  0  0  0  0  0  0  0  0  0
   22.4234  -22.7571  -15.0583 C   0  0  0  0  0  0  0  0  0  0  0  0
   22.2035  -21.7225  -14.4068 O   0  0  0  0  0  0  0  0  0  0  0  0
   21.4078  -23.0886  -15.9899 O   0  0  0  0  0  0  0  0  0  0  0  0
  2  1  1  1
  2 13  1  0
  3  2  1  0
  4  3  1  0
  5  4  2  0
  6  5  1  0
  7  6  1  0
  7 12  2  0
  8  7  1  0
  9  8  2  0
  9 10  1  0
 10 11  2  0
 11 12  1  0
 12  4  1  0
 13 14  2  0
 13 20  1  0
 16 18  1  0
 16 15  1  1
 16 17  1  0
 19 18  1  1
 19 21  1  0
 20 19  1  0
 21 29  1  0
 22 21  2  0
 24 23  1  0
 25 24  2  0
 26 24  1  0
 27 26  1  0
 28 27  1  1
 28 30  1  0
 29 28  1  0
 30 31  2  0
 30 32  1  0
M  END
$$$$
