VRE.pdb
     RDKit          3D

 28 27  0  0  1  0  0  0  0  0999 V2000
   19.1794  -22.2184  -11.3190 C   0  0  0  0  0  0  0  0  0  0  0  0
   18.5522  -22.6723  -12.6117 C   0  0  2  0  0  0  0  0  0  0  0  0
   17.0576  -22.4735  -12.5069 C   0  0  0  0  0  0  0  0  0  0  0  0
   18.8104  -24.1376  -12.8523 C   0  0  2  0  0  0  0  0  0  0  0  0
   18.2460  -24.5418  -14.1070 N   0  0  0  0  0  0  0  0  0  0  0  0
   18.4282  -25.0049  -11.7132 C   0  0  0  0  0  0  0  0  0  0  0  0
   17.2462  -25.0946  -11.3585 O   0  0  0  0  0  0  0  0  0  0  0  0
   20.1063  -31.8243  -10.6531 N   0  0  0  0  0  0  0  0  0  0  0  0
   21.0378  -31.5368  -11.6879 C   0  0  0  0  0  0  0  0  0  0  0  0
   21.1736  -32.3166  -12.7001 N   0  0  0  0  0  0  0  0  0  0  0  0
   21.8583  -30.3568  -11.6284 N   0  0  0  0  0  0  0  0  0  0  0  0
   21.7114  -29.4761  -10.4986 C   0  0  0  0  0  0  0  0  0  0  0  0
   20.4829  -28.6093  -10.7355 C   0  0  0  0  0  0  0  0  0  0  0  0
   20.3461  -27.5392   -9.7046 C   0  0  0  0  0  0  0  0  0  0  0  0
   19.1634  -26.6397   -9.9295 C   0  0  2  0  0  0  0  0  0  0  0  0
   19.3980  -25.7427  -11.0095 N   0  0  0  0  0  0  0  0  0  0  0  0
   18.8186  -25.9449   -8.6619 C   0  0  0  0  0  0  0  0  0  0  0  0
   19.5366  -24.9855   -8.2532 O   0  0  0  0  0  0  0  0  0  0  0  0
   21.7840  -32.0839  -13.5033 N   0  0  0  0  0  0  0  0  0  0  0  0
   17.7077  -26.2987   -7.8622 C   0  0  2  0  0  0  0  0  0  0  0  0
   17.3481  -25.5911   -6.6193 C   0  0  0  0  0  0  0  0  0  0  0  0
   16.1388  -24.7705   -6.8178 C   0  0  0  0  0  0  0  0  0  0  0  0
   15.5659  -24.0551   -5.6662 C   0  0  0  0  0  0  0  0  0  0  0  0
   14.3014  -23.3573   -5.7601 O   0  0  0  0  0  0  0  0  0  0  0  0
   13.6071  -23.2336   -6.7856 C   0  0  0  0  0  0  0  0  0  0  0  0
   17.2798  -26.5278   -5.5172 O   0  0  0  0  0  0  0  0  0  0  0  0
   17.2056  -27.9159   -5.6181 O   0  0  0  0  0  0  0  0  0  0  0  0
   13.7413  -22.7318   -4.6154 O   0  0  0  0  0  0  0  0  0  0  0  0
  2  1  1  1
  3  2  1  0
  4  5  1  6
  4  2  1  0
  6  4  1  0
  7  6  2  0
  9  8  1  0
  9 10  2  0
 11  9  1  0
 12 11  1  0
 13 12  1  0
 14 13  1  0
 15 14  1  1
 15 16  1  0
 16  6  1  0
 17 15  1  0
 17 18  2  0
 19 17  1  0
 20 19  1  0
 20 21  1  6
 22 21  1  0
 23 22  1  0
 24 23  2  0
 25 20  1  0
 26 25  1  0
 27 23  1  0
 28 25  2  0
M  END
$$$$
