VRE.pdb
     RDKit          3D

 28 27  0  0  1  0  0  0  0  0999 V2000
   27.8338  -22.8080  -17.5991 C   0  0  0  0  0  0  0  0  0  0  0  0
   28.0647  -21.3743  -17.1971 C   0  0  2  0  0  0  0  0  0  0  0  0
   28.3298  -21.3378  -15.7095 C   0  0  0  0  0  0  0  0  0  0  0  0
   26.8452  -20.5326  -17.4726 C   0  0  2  0  0  0  0  0  0  0  0  0
   27.1657  -19.1400  -17.3535 N   0  0  0  0  0  0  0  0  0  0  0  0
   25.6503  -20.9435  -16.6985 C   0  0  0  0  0  0  0  0  0  0  0  0
   25.0742  -22.0097  -16.9477 O   0  0  0  0  0  0  0  0  0  0  0  0
   23.3120  -21.2624   -8.5612 N   0  0  0  0  0  0  0  0  0  0  0  0
   24.5246  -21.0241   -9.2638 C   0  0  0  0  0  0  0  0  0  0  0  0
   25.6671  -21.1851   -8.6982 N   0  0  0  0  0  0  0  0  0  0  0  0
   24.5041  -20.5937  -10.6362 N   0  0  0  0  0  0  0  0  0  0  0  0
   23.3908  -19.8005  -11.0891 C   0  0  0  0  0  0  0  0  0  0  0  0
   23.0887  -20.1937  -12.5281 C   0  0  0  0  0  0  0  0  0  0  0  0
   24.2727  -20.0120  -13.4180 C   0  0  0  0  0  0  0  0  0  0  0  0
   24.0158  -20.4104  -14.8441 C   0  0  2  0  0  0  0  0  0  0  0  0
   25.1435  -20.1320  -15.6666 N   0  0  0  0  0  0  0  0  0  0  0  0
   22.7704  -19.7584  -15.3261 C   0  0  0  0  0  0  0  0  0  0  0  0
   22.6059  -18.5138  -15.1617 O   0  0  0  0  0  0  0  0  0  0  0  0
   26.5592  -20.9588   -9.1725 N   0  0  0  0  0  0  0  0  0  0  0  0
   21.7292  -20.4613  -15.9747 C   0  0  2  0  0  0  0  0  0  0  0  0
   20.5296  -19.8032  -16.5248 C   0  0  0  0  0  0  0  0  0  0  0  0
   20.1087  -20.4518  -17.7807 C   0  0  0  0  0  0  0  0  0  0  0  0
   21.1301  -21.0729  -18.6394 C   0  0  0  0  0  0  0  0  0  0  0  0
   20.7793  -21.7313  -19.8795 O   0  0  0  0  0  0  0  0  0  0  0  0
   19.6275  -21.8977  -20.3206 C   0  0  0  0  0  0  0  0  0  0  0  0
   19.5033  -19.7121  -15.5074 O   0  0  0  0  0  0  0  0  0  0  0  0
   18.4975  -18.7500  -15.4345 O   0  0  0  0  0  0  0  0  0  0  0  0
   21.7924  -22.2612  -20.7211 O   0  0  0  0  0  0  0  0  0  0  0  0
  2  1  1  1
  3  2  1  0
  4  5  1  1
  4  2  1  0
  6  4  1  0
  7  6  2  0
  9  8  1  0
  9 10  2  0
 11  9  1  0
 12 11  1  0
 13 12  1  0
 14 13  1  0
 15 14  1  1
 15 16  1  0
 16  6  1  0
 17 15  1  0
 17 18  2  0
 19 17  1  0
 20 19  1  0
 20 21  1  6
 22 21  1  0
 23 22  1  0
 24 23  2  0
 25 20  1  0
 26 25  1  0
 27 23  1  0
 28 25  2  0
M  END
$$$$
