VRE.pdb
     RDKit          3D

 28 27  0  0  1  0  0  0  0  0999 V2000
   24.3630  -20.1665  -18.9351 C   0  0  0  0  0  0  0  0  0  0  0  0
   23.3062  -19.1116  -19.1373 C   0  0  2  0  0  0  0  0  0  0  0  0
   23.9007  -18.0018  -19.9736 C   0  0  0  0  0  0  0  0  0  0  0  0
   22.8738  -18.5203  -17.8201 C   0  0  2  0  0  0  0  0  0  0  0  0
   23.9371  -17.7447  -17.2510 N   0  0  0  0  0  0  0  0  0  0  0  0
   22.2848  -19.5098  -16.8875 C   0  0  0  0  0  0  0  0  0  0  0  0
   21.3480  -20.2341  -17.2465 O   0  0  0  0  0  0  0  0  0  0  0  0
   25.0003  -24.4641  -14.0901 N   0  0  0  0  0  0  0  0  0  0  0  0
   25.8026  -23.3200  -14.3515 C   0  0  0  0  0  0  0  0  0  0  0  0
   26.6265  -23.2929  -15.3372 N   0  0  0  0  0  0  0  0  0  0  0  0
   25.7122  -22.1544  -13.5135 N   0  0  0  0  0  0  0  0  0  0  0  0
   24.8046  -22.1826  -12.3958 C   0  0  0  0  0  0  0  0  0  0  0  0
   23.3946  -21.9756  -12.9304 C   0  0  0  0  0  0  0  0  0  0  0  0
   23.1676  -20.5709  -13.3798 C   0  0  0  0  0  0  0  0  0  0  0  0
   22.2250  -20.4608  -14.5451 C   0  0  2  0  0  0  0  0  0  0  0  0
   22.7743  -19.6468  -15.5754 N   0  0  0  0  0  0  0  0  0  0  0  0
   20.9008  -19.9817  -14.0704 C   0  0  0  0  0  0  0  0  0  0  0  0
   20.6695  -18.7391  -13.9958 O   0  0  0  0  0  0  0  0  0  0  0  0
   27.2059  -22.4629  -15.5550 N   0  0  0  0  0  0  0  0  0  0  0  0
   19.8546  -20.8515  -13.6863 C   0  0  1  0  0  0  0  0  0  0  0  0
   18.4978  -20.3839  -13.3468 C   0  0  0  0  0  0  0  0  0  0  0  0
   17.9259  -19.5951  -14.4540 C   0  0  0  0  0  0  0  0  0  0  0  0
   16.5178  -19.1740  -14.3762 C   0  0  0  0  0  0  0  0  0  0  0  0
   15.9056  -18.3794  -15.4195 O   0  0  0  0  0  0  0  0  0  0  0  0
   16.4563  -17.9972  -16.4681 C   0  0  0  0  0  0  0  0  0  0  0  0
   17.6856  -21.4978  -12.9037 O   0  0  0  0  0  0  0  0  0  0  0  0
   16.6063  -21.4330  -12.0242 O   0  0  0  0  0  0  0  0  0  0  0  0
   14.5541  -17.9610  -15.3020 O   0  0  0  0  0  0  0  0  0  0  0  0
  2  1  1  1
  3  2  1  0
  4  5  1  1
  4  2  1  0
  6  4  1  0
  7  6  2  0
  9  8  1  0
  9 10  2  0
 11  9  1  0
 12 11  1  0
 13 12  1  0
 14 13  1  0
 15 14  1  1
 15 16  1  0
 16  6  1  0
 17 15  1  0
 17 18  2  0
 19 17  1  0
 20 19  1  0
 20 21  1  1
 22 21  1  0
 23 22  1  0
 24 23  2  0
 25 20  1  0
 26 25  1  0
 27 23  1  0
 28 25  2  0
M  END
$$$$
