VRE.pdb
     RDKit          3D

 28 27  0  0  1  0  0  0  0  0999 V2000
   22.5050  -19.2128  -18.8158 C   0  0  0  0  0  0  0  0  0  0  0  0
   24.0095  -19.1304  -18.8076 C   0  0  2  0  0  0  0  0  0  0  0  0
   24.4906  -19.1372  -20.2405 C   0  0  0  0  0  0  0  0  0  0  0  0
   24.6122  -20.3225  -18.1095 C   0  0  2  0  0  0  0  0  0  0  0  0
   24.8298  -21.3878  -19.0442 N   0  0  0  0  0  0  0  0  0  0  0  0
   23.8778  -20.7327  -16.8896 C   0  0  0  0  0  0  0  0  0  0  0  0
   22.9568  -21.5564  -16.9558 O   0  0  0  0  0  0  0  0  0  0  0  0
   24.5508  -21.3988   -8.8569 N   0  0  0  0  0  0  0  0  0  0  0  0
   25.6501  -21.0760   -9.6984 C   0  0  0  0  0  0  0  0  0  0  0  0
   26.7653  -21.7088   -9.6129 N   0  0  0  0  0  0  0  0  0  0  0  0
   25.5420  -20.0253  -10.6749 N   0  0  0  0  0  0  0  0  0  0  0  0
   24.2874  -19.3289  -10.7962 C   0  0  0  0  0  0  0  0  0  0  0  0
   23.5156  -19.9497  -11.9519 C   0  0  0  0  0  0  0  0  0  0  0  0
   24.2209  -19.7723  -13.2549 C   0  0  0  0  0  0  0  0  0  0  0  0
   23.4707  -20.3459  -14.4240 C   0  0  2  0  0  0  0  0  0  0  0  0
   24.2084  -20.1952  -15.6319 N   0  0  0  0  0  0  0  0  0  0  0  0
   22.1157  -19.7393  -14.4916 C   0  0  0  0  0  0  0  0  0  0  0  0
   21.9899  -18.5015  -14.7262 O   0  0  0  0  0  0  0  0  0  0  0  0
   27.6141  -21.4113  -10.1256 N   0  0  0  0  0  0  0  0  0  0  0  0
   20.9257  -20.4795  -14.3050 C   0  0  2  0  0  0  0  0  0  0  0  0
   19.5793  -19.8938  -14.4425 C   0  0  0  0  0  0  0  0  0  0  0  0
   18.6199  -20.9015  -14.9318 C   0  0  0  0  0  0  0  0  0  0  0  0
   18.0584  -21.8728  -13.9792 C   0  0  0  0  0  0  0  0  0  0  0  0
   17.8406  -23.2556  -14.3467 O   0  0  0  0  0  0  0  0  0  0  0  0
   18.0934  -23.7687  -15.4520 C   0  0  0  0  0  0  0  0  0  0  0  0
   19.1988  -19.2307  -13.2128 O   0  0  0  0  0  0  0  0  0  0  0  0
   18.1556  -18.3198  -13.0558 O   0  0  0  0  0  0  0  0  0  0  0  0
   17.2900  -24.1682  -13.4088 O   0  0  0  0  0  0  0  0  0  0  0  0
  2  1  1  6
  3  2  1  0
  4  5  1  6
  4  2  1  0
  6  4  1  0
  7  6  2  0
  9  8  1  0
  9 10  2  0
 11  9  1  0
 12 11  1  0
 13 12  1  0
 14 13  1  0
 15 14  1  1
 15 16  1  0
 16  6  1  0
 17 15  1  0
 17 18  2  0
 19 17  1  0
 20 19  1  0
 20 21  1  6
 22 21  1  0
 23 22  1  0
 24 23  2  0
 25 20  1  0
 26 25  1  0
 27 23  1  0
 28 25  2  0
M  END
$$$$
