TLD.pdb
     RDKit          3D

 24 23  0  0  1  0  0  0  0  0999 V2000
    6.8325  -16.7407   20.9211 C   0  0  0  0  0  0  0  0  0  0  0  0
    7.6745  -15.7413   20.1967 C   0  0  1  0  0  0  0  0  0  0  0  0
    7.4853  -15.6897   18.8346 O   0  0  0  0  0  0  0  0  0  0  0  0
    7.6266  -14.3563   20.8460 C   0  0  2  0  0  0  0  0  0  0  0  0
    8.1648  -13.3683   19.9660 N   0  0  0  0  0  0  0  0  0  0  0  0
    8.2766  -14.3292   22.1602 C   0  0  0  0  0  0  0  0  0  0  0  0
    9.5244  -14.2760   22.2100 O   0  0  0  0  0  0  0  0  0  0  0  0
    7.8849  -11.5407   25.9635 C   0  0  0  0  0  0  0  0  0  0  0  0
    6.7798  -12.4897   25.5636 C   0  0  2  0  0  0  0  0  0  0  0  0
    5.6102  -12.2045   26.5020 C   0  0  0  0  0  0  0  0  0  0  0  0
    7.1348  -13.9258   25.7016 C   0  0  0  0  0  0  0  0  0  0  0  0
    8.1355  -14.4002   24.6910 C   0  0  2  0  0  0  0  0  0  0  0  0
    7.5402  -14.3615   23.3490 N   0  0  0  0  0  0  0  0  0  0  0  0
    8.5494  -15.8087   24.9434 C   0  0  0  0  0  0  0  0  0  0  0  0
    8.2746  -16.7013   24.1086 O   0  0  0  0  0  0  0  0  0  0  0  0
    9.2512  -16.1803   26.1065 N   0  0  0  0  0  0  0  0  0  0  0  0
   10.1865  -17.2928   26.0442 C   0  0  1  0  0  0  0  0  0  0  0  0
   11.3624  -16.9566   25.1658 C   0  0  0  0  0  0  0  0  0  0  0  0
   11.4952  -17.9583   24.0925 C   0  0  0  0  0  0  0  0  0  0  0  0
   11.7190  -17.4665   22.9240 O   0  0  0  0  0  0  0  0  0  0  0  0
   10.6126  -17.5063   27.4556 C   0  0  0  0  0  0  0  0  0  0  0  0
   11.0071  -18.7395   27.9162 O   0  0  0  0  0  0  0  0  0  0  0  0
   11.4060  -19.3152   24.2026 O   0  0  0  0  0  0  0  0  0  0  0  0
   10.6352  -16.5697   28.3033 O   0  0  0  0  0  0  0  0  0  0  0  0
  2  4  1  0
  2  1  1  1
  3  2  1  0
  4  5  1  6
  6  4  1  0
  6  7  2  0
  9  8  1  1
  9 11  1  0
  9 10  1  0
 12 11  1  1
 12 13  1  0
 13  6  1  0
 14 12  1  0
 15 14  2  0
 16 14  1  0
 17 16  1  0
 17 21  1  0
 17 18  1  6
 19 20  2  0
 19 18  1  0
 21 22  1  0
 23 19  1  0
 24 21  2  0
M  END
$$$$
