TLD.pdb
     RDKit          3D

 24 23  0  0  1  0  0  0  0  0999 V2000
    7.9517  -13.7889   20.1901 C   0  0  0  0  0  0  0  0  0  0  0  0
    7.0395  -14.7582   20.8689 C   0  0  1  0  0  0  0  0  0  0  0  0
    6.1529  -15.4097   20.0423 O   0  0  0  0  0  0  0  0  0  0  0  0
    7.7909  -15.7193   21.7930 C   0  0  2  0  0  0  0  0  0  0  0  0
    6.9184  -16.7444   22.2709 N   0  0  0  0  0  0  0  0  0  0  0  0
    8.4715  -15.0259   22.8913 C   0  0  0  0  0  0  0  0  0  0  0  0
    9.5631  -14.4630   22.6588 O   0  0  0  0  0  0  0  0  0  0  0  0
    7.3434  -11.4634   25.2962 C   0  0  0  0  0  0  0  0  0  0  0  0
    6.6420  -12.7577   25.6348 C   0  0  2  0  0  0  0  0  0  0  0  0
    5.5563  -12.4038   26.6477 C   0  0  0  0  0  0  0  0  0  0  0  0
    7.5242  -13.7816   26.2517 C   0  0  0  0  0  0  0  0  0  0  0  0
    8.5740  -14.3130   25.3226 C   0  0  2  0  0  0  0  0  0  0  0  0
    7.9335  -14.9800   24.1816 N   0  0  0  0  0  0  0  0  0  0  0  0
    9.4396  -15.3256   25.9892 C   0  0  0  0  0  0  0  0  0  0  0  0
    9.6672  -15.2432   27.2183 O   0  0  0  0  0  0  0  0  0  0  0  0
   10.0215  -16.3914   25.2759 N   0  0  0  0  0  0  0  0  0  0  0  0
   10.8617  -17.3435   25.9858 C   0  0  1  0  0  0  0  0  0  0  0  0
   10.0891  -18.5898   26.3282 C   0  0  0  0  0  0  0  0  0  0  0  0
   10.3153  -18.9540   27.7386 C   0  0  0  0  0  0  0  0  0  0  0  0
   11.0885  -18.1513   28.3829 O   0  0  0  0  0  0  0  0  0  0  0  0
   11.9738  -17.6423   25.0408 C   0  0  0  0  0  0  0  0  0  0  0  0
   13.0691  -18.3811   25.4190 O   0  0  0  0  0  0  0  0  0  0  0  0
    9.8079  -20.0247   28.4151 O   0  0  0  0  0  0  0  0  0  0  0  0
   11.9716  -17.2352   23.8447 O   0  0  0  0  0  0  0  0  0  0  0  0
  2  4  1  0
  2  1  1  6
  3  2  1  0
  4  5  1  1
  6  4  1  0
  6  7  2  0
  9  8  1  1
  9 11  1  0
  9 10  1  0
 12 11  1  1
 12 13  1  0
 13  6  1  0
 14 12  1  0
 15 14  2  0
 16 14  1  0
 17 16  1  0
 17 21  1  0
 17 18  1  6
 19 20  2  0
 19 18  1  0
 21 22  1  0
 23 19  1  0
 24 21  2  0
M  END
$$$$
