TLD.pdb
     RDKit          3D

 24 23  0  0  1  0  0  0  0  0999 V2000
    6.3306  -16.4449   19.6064 C   0  0  0  0  0  0  0  0  0  0  0  0
    7.0835  -16.3081   20.8897 C   0  0  1  0  0  0  0  0  0  0  0  0
    7.9647  -17.3283   21.1665 O   0  0  0  0  0  0  0  0  0  0  0  0
    7.7211  -14.9261   21.0491 C   0  0  2  0  0  0  0  0  0  0  0  0
    8.6557  -14.6780   19.9977 N   0  0  0  0  0  0  0  0  0  0  0  0
    8.3241  -14.7346   22.3720 C   0  0  0  0  0  0  0  0  0  0  0  0
    9.5690  -14.7779   22.4744 O   0  0  0  0  0  0  0  0  0  0  0  0
    8.0046  -11.4799   25.9003 C   0  0  0  0  0  0  0  0  0  0  0  0
    6.8062  -12.3430   25.5832 C   0  0  2  0  0  0  0  0  0  0  0  0
    5.7025  -11.9136   26.5462 C   0  0  0  0  0  0  0  0  0  0  0  0
    7.0389  -13.7976   25.7766 C   0  0  0  0  0  0  0  0  0  0  0  0
    8.0883  -14.3670   24.8698 C   0  0  2  0  0  0  0  0  0  0  0  0
    7.5462  -14.5071   23.5120 N   0  0  0  0  0  0  0  0  0  0  0  0
    8.5198  -15.7236   25.3086 C   0  0  0  0  0  0  0  0  0  0  0  0
    7.7651  -16.7079   25.1335 O   0  0  0  0  0  0  0  0  0  0  0  0
    9.7674  -15.9441   25.9237 N   0  0  0  0  0  0  0  0  0  0  0  0
   10.1973  -17.3095   26.1833 C   0  0  1  0  0  0  0  0  0  0  0  0
   11.4591  -17.6279   25.4258 C   0  0  0  0  0  0  0  0  0  0  0  0
   11.9791  -18.9439   25.8390 C   0  0  0  0  0  0  0  0  0  0  0  0
   11.0743  -19.8298   26.0707 O   0  0  0  0  0  0  0  0  0  0  0  0
   10.4259  -17.3591   27.6546 C   0  0  0  0  0  0  0  0  0  0  0  0
   10.0778  -16.3162   28.4789 O   0  0  0  0  0  0  0  0  0  0  0  0
   13.2828  -19.3123   26.0001 O   0  0  0  0  0  0  0  0  0  0  0  0
   10.9498  -18.3582   28.2234 O   0  0  0  0  0  0  0  0  0  0  0  0
  2  4  1  0
  2  1  1  6
  3  2  1  0
  4  5  1  6
  6  4  1  0
  6  7  2  0
  9  8  1  1
  9 11  1  0
  9 10  1  0
 12 11  1  1
 12 13  1  0
 13  6  1  0
 14 12  1  0
 15 14  2  0
 16 14  1  0
 17 16  1  0
 17 21  1  0
 17 18  1  6
 19 20  2  0
 19 18  1  0
 21 22  1  0
 23 19  1  0
 24 21  2  0
M  END
$$$$
