TLD.pdb
     RDKit          3D

 24 23  0  0  1  0  0  0  0  0999 V2000
    7.7500  -18.4576   20.5553 C   0  0  0  0  0  0  0  0  0  0  0  0
    8.1462  -17.6117   21.7215 C   0  0  1  0  0  0  0  0  0  0  0  0
    9.1360  -18.1372   22.5202 O   0  0  0  0  0  0  0  0  0  0  0  0
    8.4259  -16.1608   21.3230 C   0  0  2  0  0  0  0  0  0  0  0  0
    9.4000  -16.1034   20.2798 N   0  0  0  0  0  0  0  0  0  0  0  0
    8.8028  -15.3262   22.4683 C   0  0  0  0  0  0  0  0  0  0  0  0
    9.9933  -14.9616   22.5773 O   0  0  0  0  0  0  0  0  0  0  0  0
    5.8458  -12.2269   27.0248 C   0  0  0  0  0  0  0  0  0  0  0  0
    7.1190  -12.5950   26.3000 C   0  0  2  0  0  0  0  0  0  0  0  0
    7.7247  -11.2840   25.8058 C   0  0  0  0  0  0  0  0  0  0  0  0
    6.9120  -13.4744   25.1204 C   0  0  0  0  0  0  0  0  0  0  0  0
    8.1788  -14.0645   24.5775 C   0  0  2  0  0  0  0  0  0  0  0  0
    7.8701  -14.9322   23.4335 N   0  0  0  0  0  0  0  0  0  0  0  0
    8.8724  -14.9089   25.5899 C   0  0  0  0  0  0  0  0  0  0  0  0
    9.2284  -14.4110   26.6828 O   0  0  0  0  0  0  0  0  0  0  0  0
    9.1471  -16.2709   25.3595 N   0  0  0  0  0  0  0  0  0  0  0  0
    9.8193  -17.0424   26.3936 C   0  0  1  0  0  0  0  0  0  0  0  0
    9.1550  -18.3805   26.5818 C   0  0  0  0  0  0  0  0  0  0  0  0
    9.8642  -19.1568   27.6150 C   0  0  0  0  0  0  0  0  0  0  0  0
    9.4850  -20.3826   27.7201 O   0  0  0  0  0  0  0  0  0  0  0  0
   11.2156  -17.1995   25.8987 C   0  0  0  0  0  0  0  0  0  0  0  0
   11.6449  -16.6058   24.7361 O   0  0  0  0  0  0  0  0  0  0  0  0
   10.8518  -18.7250   28.4514 O   0  0  0  0  0  0  0  0  0  0  0  0
   12.0786  -17.8840   26.5177 O   0  0  0  0  0  0  0  0  0  0  0  0
  2  4  1  0
  2  1  1  6
  3  2  1  0
  4  5  1  6
  6  4  1  0
  6  7  2  0
  9  8  1  6
  9 11  1  0
  9 10  1  0
 12 11  1  1
 12 13  1  0
 13  6  1  0
 14 12  1  0
 15 14  2  0
 16 14  1  0
 17 16  1  0
 17 21  1  0
 17 18  1  6
 19 20  2  0
 19 18  1  0
 21 22  1  0
 23 19  1  0
 24 21  2  0
M  END
$$$$
