TLD.pdb
     RDKit          3D

 24 23  0  0  1  0  0  0  0  0999 V2000
    6.7091  -17.4616   21.7287 C   0  0  0  0  0  0  0  0  0  0  0  0
    7.1398  -16.5570   20.6202 C   0  0  1  0  0  0  0  0  0  0  0  0
    6.6513  -16.8791   19.3746 O   0  0  0  0  0  0  0  0  0  0  0  0
    6.9409  -15.0785   20.9614 C   0  0  2  0  0  0  0  0  0  0  0  0
    7.1629  -14.2615   19.8109 N   0  0  0  0  0  0  0  0  0  0  0  0
    7.7581  -14.6500   22.1010 C   0  0  0  0  0  0  0  0  0  0  0  0
    8.9377  -14.2936   21.8916 O   0  0  0  0  0  0  0  0  0  0  0  0
    7.8218  -11.5387   25.7608 C   0  0  0  0  0  0  0  0  0  0  0  0
    6.7163  -12.5617   25.6470 C   0  0  2  0  0  0  0  0  0  0  0  0
    5.7718  -12.3033   26.8179 C   0  0  0  0  0  0  0  0  0  0  0  0
    7.1817  -13.9696   25.7393 C   0  0  0  0  0  0  0  0  0  0  0  0
    8.0671  -14.3886   24.6043 C   0  0  2  0  0  0  0  0  0  0  0  0
    7.2538  -14.6310   23.4056 N   0  0  0  0  0  0  0  0  0  0  0  0
    8.7876  -15.6570   24.9056 C   0  0  0  0  0  0  0  0  0  0  0  0
    8.1498  -16.7302   25.0089 O   0  0  0  0  0  0  0  0  0  0  0  0
   10.1844  -15.6948   25.0813 N   0  0  0  0  0  0  0  0  0  0  0  0
   10.8566  -16.9839   25.1355 C   0  0  1  0  0  0  0  0  0  0  0  0
   12.2729  -16.8718   24.6365 C   0  0  0  0  0  0  0  0  0  0  0  0
   12.9639  -18.1660   24.7797 C   0  0  0  0  0  0  0  0  0  0  0  0
   14.1895  -18.0804   25.1643 O   0  0  0  0  0  0  0  0  0  0  0  0
   10.8218  -17.3667   26.5748 C   0  0  0  0  0  0  0  0  0  0  0  0
   11.3006  -18.5769   27.0159 O   0  0  0  0  0  0  0  0  0  0  0  0
   12.4568  -19.4118   24.5514 O   0  0  0  0  0  0  0  0  0  0  0  0
   10.3527  -16.6033   27.4656 O   0  0  0  0  0  0  0  0  0  0  0  0
  2  4  1  0
  2  1  1  1
  3  2  1  0
  4  5  1  6
  6  4  1  0
  6  7  2  0
  9  8  1  1
  9 11  1  0
  9 10  1  0
 12 11  1  1
 12 13  1  0
 13  6  1  0
 14 12  1  0
 15 14  2  0
 16 14  1  0
 17 16  1  0
 17 21  1  0
 17 18  1  1
 19 20  2  0
 19 18  1  0
 21 22  1  0
 23 19  1  0
 24 21  2  0
M  END
$$$$
