ECT.pdb
     RDKit          3D

 23 22  0  0  1  0  0  0  0  0999 V2000
   20.1229  -11.7644  -17.8372 N   0  0  0  0  0  0  0  0  0  0  0  0
   19.1769  -11.0312  -17.0541 C   0  0  1  0  0  0  0  0  0  0  0  0
   18.3511  -12.0367  -16.2528 C   0  0  0  0  0  0  0  0  0  0  0  0
   18.4136  -13.3963  -16.8549 C   0  0  0  0  0  0  0  0  0  0  0  0
   17.5757  -14.3234  -16.0688 C   0  0  0  0  0  0  0  0  0  0  0  0
   16.9580  -13.9072  -15.0589 O   0  0  0  0  0  0  0  0  0  0  0  0
   19.8585  -10.1531  -16.0425 C   0  0  0  0  0  0  0  0  0  0  0  0
   19.1465   -9.5690  -15.1844 O   0  0  0  0  0  0  0  0  0  0  0  0
   17.4359  -15.6636  -16.4031 O   0  0  0  0  0  0  0  0  0  0  0  0
   21.2645   -9.9678  -16.0289 N   0  0  0  0  0  0  0  0  0  0  0  0
   21.8427   -9.1976  -14.9134 C   0  0  1  0  0  0  0  0  0  0  0  0
   23.2784   -9.6703  -14.7596 C   0  0  0  0  0  0  0  0  0  0  0  0
   23.4172  -11.2926  -13.9970 S   0  0  0  0  0  0  0  0  0  0  0  0
   21.8348   -7.7529  -15.2559 C   0  0  0  0  0  0  0  0  0  0  0  0
   22.2930   -7.4315  -16.3799 O   0  0  0  0  0  0  0  0  0  0  0  0
   20.1535   -3.3268  -15.3037 C   0  0  0  0  0  0  0  0  0  0  0  0
   19.9894   -4.7200  -14.7275 C   0  0  1  0  0  0  0  0  0  0  0  0
   19.0074   -5.3677  -15.4398 O   0  0  0  0  0  0  0  0  0  0  0  0
   21.3277   -5.3800  -14.7564 C   0  0  2  0  0  0  0  0  0  0  0  0
   21.3411   -6.7613  -14.3852 N   0  0  0  0  0  0  0  0  0  0  0  0
   22.4082   -4.5797  -14.1154 C   0  0  0  0  0  0  0  0  0  0  0  0
   22.5338   -4.6165  -12.8789 O   0  0  0  0  0  0  0  0  0  0  0  0
   23.2808   -3.7946  -14.8489 O   0  0  0  0  0  0  0  0  0  0  0  0
  2  1  1  1
  2  7  1  0
  3  2  1  0
  4  3  1  0
  5  6  2  0
  5  4  1  0
  7  8  2  0
  9  5  1  0
 10  7  1  0
 10 11  1  0
 11 14  1  0
 11 12  1  6
 13 12  1  0
 14 20  1  0
 15 14  2  0
 17 18  1  0
 17 16  1  6
 19 17  1  0
 19 20  1  1
 21 23  1  0
 21 19  1  0
 22 21  2  0
M  END
$$$$
