ECT.pdb
     RDKit          3D

 23 22  0  0  1  0  0  0  0  0999 V2000
   18.4709  -11.9915  -18.5791 N   0  0  0  0  0  0  0  0  0  0  0  0
   19.3705  -10.8909  -18.7372 C   0  0  1  0  0  0  0  0  0  0  0  0
   18.6335   -9.7875  -19.4952 C   0  0  0  0  0  0  0  0  0  0  0  0
   18.6135  -10.0518  -20.9596 C   0  0  0  0  0  0  0  0  0  0  0  0
   19.9431   -9.7625  -21.5319 C   0  0  0  0  0  0  0  0  0  0  0  0
   20.3098   -8.5737  -21.6965 O   0  0  0  0  0  0  0  0  0  0  0  0
   19.7572  -10.2976  -17.4116 C   0  0  0  0  0  0  0  0  0  0  0  0
   18.9624  -10.4305  -16.4446 O   0  0  0  0  0  0  0  0  0  0  0  0
   20.8265  -10.7669  -21.9038 O   0  0  0  0  0  0  0  0  0  0  0  0
   20.9784   -9.6013  -17.2235 N   0  0  0  0  0  0  0  0  0  0  0  0
   21.2779   -9.0977  -15.8713 C   0  0  1  0  0  0  0  0  0  0  0  0
   22.4749   -9.8882  -15.3705 C   0  0  0  0  0  0  0  0  0  0  0  0
   23.1781   -9.2319  -13.8515 S   0  0  0  0  0  0  0  0  0  0  0  0
   21.6368   -7.6591  -15.9495 C   0  0  0  0  0  0  0  0  0  0  0  0
   22.4723   -7.3274  -16.8262 O   0  0  0  0  0  0  0  0  0  0  0  0
   20.2936   -4.7042  -17.0919 C   0  0  0  0  0  0  0  0  0  0  0  0
   20.5853   -4.3264  -15.6525 C   0  0  1  0  0  0  0  0  0  0  0  0
   19.3896   -4.2438  -14.9781 O   0  0  0  0  0  0  0  0  0  0  0  0
   21.5468   -5.3303  -15.1092 C   0  0  2  0  0  0  0  0  0  0  0  0
   21.0830   -6.6834  -15.0972 N   0  0  0  0  0  0  0  0  0  0  0  0
   22.1998   -4.9124  -13.8373 C   0  0  0  0  0  0  0  0  0  0  0  0
   22.8274   -3.8396  -13.8053 O   0  0  0  0  0  0  0  0  0  0  0  0
   22.1323   -5.6773  -12.6857 O   0  0  0  0  0  0  0  0  0  0  0  0
  2  1  1  1
  2  7  1  0
  3  2  1  0
  4  3  1  0
  5  6  2  0
  5  4  1  0
  7  8  2  0
  9  5  1  0
 10  7  1  0
 10 11  1  0
 11 14  1  0
 11 12  1  6
 13 12  1  0
 14 20  1  0
 15 14  2  0
 17 18  1  0
 17 16  1  6
 19 17  1  0
 19 20  1  1
 21 23  1  0
 21 19  1  0
 22 21  2  0
M  END
$$$$
