ECT.pdb
     RDKit          3D

 23 22  0  0  1  0  0  0  0  0999 V2000
   19.7905  -15.0884  -15.6182 N   0  0  0  0  0  0  0  0  0  0  0  0
   19.2464  -14.8561  -16.9203 C   0  0  1  0  0  0  0  0  0  0  0  0
   18.3656  -16.0515  -17.2812 C   0  0  0  0  0  0  0  0  0  0  0  0
   19.1745  -17.2853  -17.4774 C   0  0  0  0  0  0  0  0  0  0  0  0
   19.0640  -17.7303  -18.8806 C   0  0  0  0  0  0  0  0  0  0  0  0
   18.0712  -18.4041  -19.2483 O   0  0  0  0  0  0  0  0  0  0  0  0
   18.3435  -13.6547  -16.9364 C   0  0  0  0  0  0  0  0  0  0  0  0
   17.7961  -13.3351  -18.0239 O   0  0  0  0  0  0  0  0  0  0  0  0
   20.0283  -17.4305  -19.8334 O   0  0  0  0  0  0  0  0  0  0  0  0
   18.0948  -12.8816  -15.7737 N   0  0  0  0  0  0  0  0  0  0  0  0
   17.2285  -11.6974  -15.9114 C   0  0  1  0  0  0  0  0  0  0  0  0
   16.1321  -11.8398  -14.8693 C   0  0  0  0  0  0  0  0  0  0  0  0
   15.2536  -13.4055  -14.9677 S   0  0  0  0  0  0  0  0  0  0  0  0
   18.0192  -10.4729  -15.6289 C   0  0  0  0  0  0  0  0  0  0  0  0
   18.8347  -10.5288  -14.6758 O   0  0  0  0  0  0  0  0  0  0  0  0
   20.6756   -8.8394  -17.2983 C   0  0  0  0  0  0  0  0  0  0  0  0
   19.6422   -7.7366  -17.1731 C   0  0  1  0  0  0  0  0  0  0  0  0
   19.0731   -7.5374  -18.4090 O   0  0  0  0  0  0  0  0  0  0  0  0
   18.6877   -8.1337  -16.0967 C   0  0  2  0  0  0  0  0  0  0  0  0
   17.8882   -9.2862  -16.3771 N   0  0  0  0  0  0  0  0  0  0  0  0
   17.9139   -6.9953  -15.5274 C   0  0  0  0  0  0  0  0  0  0  0  0
   16.6718   -7.0529  -15.5215 O   0  0  0  0  0  0  0  0  0  0  0  0
   18.5294   -5.8724  -15.0023 O   0  0  0  0  0  0  0  0  0  0  0  0
  2  1  1  1
  2  7  1  0
  3  2  1  0
  4  3  1  0
  5  6  2  0
  5  4  1  0
  7  8  2  0
  9  5  1  0
 10  7  1  0
 10 11  1  0
 11 14  1  0
 11 12  1  1
 13 12  1  0
 14 20  1  0
 15 14  2  0
 17 18  1  0
 17 16  1  6
 19 17  1  0
 19 20  1  6
 21 23  1  0
 21 19  1  0
 22 21  2  0
M  END
$$$$
