ECT.pdb
     RDKit          3D

 23 22  0  0  1  0  0  0  0  0999 V2000
   20.0324  -15.0333  -16.4122 N   0  0  0  0  0  0  0  0  0  0  0  0
   19.5447  -14.4860  -17.6403 C   0  0  1  0  0  0  0  0  0  0  0  0
   18.3086  -15.2845  -18.0519 C   0  0  0  0  0  0  0  0  0  0  0  0
   18.1870  -16.5438  -17.2681 C   0  0  0  0  0  0  0  0  0  0  0  0
   17.2035  -16.3572  -16.1832 C   0  0  0  0  0  0  0  0  0  0  0  0
   17.5369  -15.7616  -15.1302 O   0  0  0  0  0  0  0  0  0  0  0  0
   19.0840  -13.0658  -17.4688 C   0  0  0  0  0  0  0  0  0  0  0  0
   18.6794  -12.4436  -18.4855 O   0  0  0  0  0  0  0  0  0  0  0  0
   15.8977  -16.8196  -16.2764 O   0  0  0  0  0  0  0  0  0  0  0  0
   19.0925  -12.4163  -16.2080 N   0  0  0  0  0  0  0  0  0  0  0  0
   18.7718  -10.9783  -16.1767 C   0  0  1  0  0  0  0  0  0  0  0  0
   17.5874  -10.8195  -15.2385 C   0  0  0  0  0  0  0  0  0  0  0  0
   17.4465   -9.1684  -14.5408 S   0  0  0  0  0  0  0  0  0  0  0  0
   19.9320  -10.2264  -15.6352 C   0  0  0  0  0  0  0  0  0  0  0  0
   20.4637  -10.6748  -14.5898 O   0  0  0  0  0  0  0  0  0  0  0  0
   23.2677   -9.7333  -16.7406 C   0  0  0  0  0  0  0  0  0  0  0  0
   22.7751   -8.3105  -16.5598 C   0  0  1  0  0  0  0  0  0  0  0  0
   22.5770   -7.7618  -17.8051 O   0  0  0  0  0  0  0  0  0  0  0  0
   21.5611   -8.3607  -15.6932 C   0  0  2  0  0  0  0  0  0  0  0  0
   20.4412   -9.0612  -16.2422 N   0  0  0  0  0  0  0  0  0  0  0  0
   21.2032   -7.0509  -15.0808 C   0  0  0  0  0  0  0  0  0  0  0  0
   20.0598   -6.5950  -15.2564 O   0  0  0  0  0  0  0  0  0  0  0  0
   22.1000   -6.3210  -14.3202 O   0  0  0  0  0  0  0  0  0  0  0  0
  2  1  1  1
  2  7  1  0
  3  2  1  0
  4  3  1  0
  5  6  2  0
  5  4  1  0
  7  8  2  0
  9  5  1  0
 10  7  1  0
 10 11  1  0
 11 14  1  0
 11 12  1  1
 13 12  1  0
 14 20  1  0
 15 14  2  0
 17 18  1  0
 17 16  1  6
 19 17  1  0
 19 20  1  6
 21 23  1  0
 21 19  1  0
 22 21  2  0
M  END
$$$$
