ECT.pdb
     RDKit          3D

 23 22  0  0  1  0  0  0  0  0999 V2000
   20.8705  -11.8359  -18.2756 N   0  0  0  0  0  0  0  0  0  0  0  0
   20.2931  -11.5444  -16.9999 C   0  0  1  0  0  0  0  0  0  0  0  0
   19.8975  -12.8696  -16.3499 C   0  0  0  0  0  0  0  0  0  0  0  0
   18.7745  -13.5203  -17.0782 C   0  0  0  0  0  0  0  0  0  0  0  0
   17.5092  -13.2693  -16.3605 C   0  0  0  0  0  0  0  0  0  0  0  0
   16.9496  -12.1496  -16.4490 O   0  0  0  0  0  0  0  0  0  0  0  0
   21.2910  -10.9084  -16.0733 C   0  0  0  0  0  0  0  0  0  0  0  0
   20.9207  -10.6212  -14.9051 O   0  0  0  0  0  0  0  0  0  0  0  0
   16.8957  -14.2363  -15.5755 O   0  0  0  0  0  0  0  0  0  0  0  0
   22.6218  -10.6273  -16.4750 N   0  0  0  0  0  0  0  0  0  0  0  0
   23.4928   -9.9262  -15.5149 C   0  0  1  0  0  0  0  0  0  0  0  0
   24.9190  -10.3279  -15.8514 C   0  0  0  0  0  0  0  0  0  0  0  0
   26.1568   -9.3879  -14.9475 S   0  0  0  0  0  0  0  0  0  0  0  0
   23.3406   -8.4599  -15.6913 C   0  0  0  0  0  0  0  0  0  0  0  0
   23.8847   -7.9480  -16.7005 O   0  0  0  0  0  0  0  0  0  0  0  0
   20.1563   -6.2592  -15.3260 C   0  0  0  0  0  0  0  0  0  0  0  0
   21.4771   -5.7383  -15.8589 C   0  0  1  0  0  0  0  0  0  0  0  0
   21.3885   -4.3702  -15.9667 O   0  0  0  0  0  0  0  0  0  0  0  0
   22.5547   -6.2301  -14.9510 C   0  0  2  0  0  0  0  0  0  0  0  0
   22.6232   -7.6496  -14.7890 N   0  0  0  0  0  0  0  0  0  0  0  0
   22.6522   -5.4782  -13.6688 C   0  0  0  0  0  0  0  0  0  0  0  0
   22.7126   -6.1119  -12.6008 O   0  0  0  0  0  0  0  0  0  0  0  0
   22.6789   -4.0951  -13.6232 O   0  0  0  0  0  0  0  0  0  0  0  0
  2  1  1  6
  2  7  1  0
  3  2  1  0
  4  3  1  0
  5  6  2  0
  5  4  1  0
  7  8  2  0
  9  5  1  0
 10  7  1  0
 10 11  1  0
 11 14  1  0
 11 12  1  6
 13 12  1  0
 14 20  1  0
 15 14  2  0
 17 18  1  0
 17 16  1  1
 19 17  1  0
 19 20  1  1
 21 23  1  0
 21 19  1  0
 22 21  2  0
M  END
$$$$
