ECT.pdb
     RDKit          3D

 23 22  0  0  1  0  0  0  0  0999 V2000
   18.7969  -15.0909  -18.1230 N   0  0  0  0  0  0  0  0  0  0  0  0
   18.3102  -13.8541  -17.5946 C   0  0  1  0  0  0  0  0  0  0  0  0
   17.7444  -14.1289  -16.2020 C   0  0  0  0  0  0  0  0  0  0  0  0
   16.2833  -14.4078  -16.2523 C   0  0  0  0  0  0  0  0  0  0  0  0
   15.7968  -14.7382  -14.8983 C   0  0  0  0  0  0  0  0  0  0  0  0
   14.5824  -14.9951  -14.7138 O   0  0  0  0  0  0  0  0  0  0  0  0
   19.4203  -12.8592  -17.4034 C   0  0  0  0  0  0  0  0  0  0  0  0
   20.5751  -13.1723  -17.7942 O   0  0  0  0  0  0  0  0  0  0  0  0
   16.6393  -14.7795  -13.7955 O   0  0  0  0  0  0  0  0  0  0  0  0
   19.2039  -11.5929  -16.8024 N   0  0  0  0  0  0  0  0  0  0  0  0
   20.3105  -10.6202  -16.8382 C   0  0  1  0  0  0  0  0  0  0  0  0
   20.5308  -10.2691  -18.2999 C   0  0  0  0  0  0  0  0  0  0  0  0
   19.0355   -9.7224  -19.1352 S   0  0  0  0  0  0  0  0  0  0  0  0
   19.9165   -9.3980  -16.0930 C   0  0  0  0  0  0  0  0  0  0  0  0
   18.7894   -8.9101  -16.3543 O   0  0  0  0  0  0  0  0  0  0  0  0
   19.2253   -8.8572  -12.6206 C   0  0  0  0  0  0  0  0  0  0  0  0
   20.2529   -7.7838  -12.9233 C   0  0  1  0  0  0  0  0  0  0  0  0
   21.4379   -8.1407  -12.3236 O   0  0  0  0  0  0  0  0  0  0  0  0
   20.3191   -7.6287  -14.4061 C   0  0  2  0  0  0  0  0  0  0  0  0
   20.7430   -8.7885  -15.1282 N   0  0  0  0  0  0  0  0  0  0  0  0
   20.9845   -6.3727  -14.8517 C   0  0  0  0  0  0  0  0  0  0  0  0
   20.5915   -5.2861  -14.3925 O   0  0  0  0  0  0  0  0  0  0  0  0
   22.0282   -6.3715  -15.7606 O   0  0  0  0  0  0  0  0  0  0  0  0
  2  1  1  1
  2  7  1  0
  3  2  1  0
  4  3  1  0
  5  6  2  0
  5  4  1  0
  7  8  2  0
  9  5  1  0
 10  7  1  0
 10 11  1  0
 11 14  1  0
 11 12  1  6
 13 12  1  0
 14 20  1  0
 15 14  2  0
 17 18  1  0
 17 16  1  6
 19 17  1  0
 19 20  1  6
 21 23  1  0
 21 19  1  0
 22 21  2  0
M  END
$$$$
