CSC.pdb
     RDKit          3D

 19 18  0  0  1  0  0  0  0  0999 V2000
   15.5958  -10.6174  -13.1933 N   0  0  0  0  0  0  0  0  0  0  0  0
   15.5997   -9.3047  -12.6370 C   0  0  1  0  0  0  0  0  0  0  0  0
   16.0222   -9.4408  -11.1672 C   0  0  0  0  0  0  0  0  0  0  0  0
   14.6577  -10.2062  -10.2205 S   0  0  0  0  0  0  0  0  0  0  0  0
   16.5400   -8.3747  -13.2668 C   0  0  0  0  0  0  0  0  0  0  0  0
   17.6391   -8.8349  -13.6733 O   0  0  0  0  0  0  0  0  0  0  0  0
   15.9790   -4.2536  -13.6226 O   0  0  0  0  0  0  0  0  0  0  0  0
   16.6038   -4.8909  -14.7139 C   0  0  0  0  0  0  0  0  0  0  0  0
   17.2551   -6.1524  -14.1551 C   0  0  2  0  0  0  0  0  0  0  0  0
   16.3116   -6.9844  -13.4582 N   0  0  0  0  0  0  0  0  0  0  0  0
   18.4424   -5.8211  -13.3325 C   0  0  0  0  0  0  0  0  0  0  0  0
   18.3047   -5.5023  -12.1233 O   0  0  0  0  0  0  0  0  0  0  0  0
   19.7729   -5.8412  -13.8394 N   0  0  0  0  0  0  0  0  0  0  0  0
   20.9250   -5.5029  -13.0001 C   0  0  1  0  0  0  0  0  0  0  0  0
   21.6725   -6.8170  -12.7494 C   0  0  0  0  0  0  0  0  0  0  0  0
   22.3971   -7.4103  -14.3129 S   0  0  0  0  0  0  0  0  0  0  0  0
   21.7874   -4.5028  -13.6311 C   0  0  0  0  0  0  0  0  0  0  0  0
   21.6285   -4.1446  -14.8227 O   0  0  0  0  0  0  0  0  0  0  0  0
   22.8157   -3.9249  -12.9012 O   0  0  0  0  0  0  0  0  0  0  0  0
  2  5  1  0
  2  1  1  6
  3  2  1  0
  4  3  1  0
  5  6  2  0
  7  8  1  0
  9  8  1  1
 10  9  1  0
 10  5  1  0
 11 12  2  0
 11  9  1  0
 13 11  1  0
 14 17  1  0
 14 13  1  0
 14 15  1  6
 16 15  1  0
 17 19  1  0
 18 17  2  0
M  END
$$$$
