CSC.pdb
     RDKit          3D

 19 18  0  0  1  0  0  0  0  0999 V2000
   23.3480  -13.4335  -18.1216 N   0  0  0  0  0  0  0  0  0  0  0  0
   22.8824  -12.2416  -18.7502 C   0  0  1  0  0  0  0  0  0  0  0  0
   21.4132  -12.4776  -19.1287 C   0  0  0  0  0  0  0  0  0  0  0  0
   21.3325  -13.7169  -20.4709 S   0  0  0  0  0  0  0  0  0  0  0  0
   22.9180  -11.0474  -17.9026 C   0  0  0  0  0  0  0  0  0  0  0  0
   22.5726  -11.1705  -16.6982 O   0  0  0  0  0  0  0  0  0  0  0  0
   25.6124   -7.9262  -17.6147 O   0  0  0  0  0  0  0  0  0  0  0  0
   24.2968   -7.5327  -17.9338 C   0  0  0  0  0  0  0  0  0  0  0  0
   23.3835   -8.6414  -17.4193 C   0  0  2  0  0  0  0  0  0  0  0  0
   23.3137   -9.7508  -18.3317 N   0  0  0  0  0  0  0  0  0  0  0  0
   22.0472   -8.1099  -17.0618 C   0  0  0  0  0  0  0  0  0  0  0  0
   21.1600   -7.9838  -17.9449 O   0  0  0  0  0  0  0  0  0  0  0  0
   21.6910   -7.7200  -15.7395 N   0  0  0  0  0  0  0  0  0  0  0  0
   20.3541   -7.2157  -15.4159 C   0  0  1  0  0  0  0  0  0  0  0  0
   20.1252   -7.5302  -13.9337 C   0  0  0  0  0  0  0  0  0  0  0  0
   20.1257   -9.3364  -13.6898 S   0  0  0  0  0  0  0  0  0  0  0  0
   20.2277   -5.7837  -15.6901 C   0  0  0  0  0  0  0  0  0  0  0  0
   21.2115   -5.0817  -16.0259 O   0  0  0  0  0  0  0  0  0  0  0  0
   18.9884   -5.1706  -15.5793 O   0  0  0  0  0  0  0  0  0  0  0  0
  2  5  1  0
  2  1  1  1
  3  2  1  0
  4  3  1  0
  5  6  2  0
  7  8  1  0
  9  8  1  6
 10  9  1  0
 10  5  1  0
 11 12  2  0
 11  9  1  0
 13 11  1  0
 14 17  1  0
 14 13  1  0
 14 15  1  1
 16 15  1  0
 17 19  1  0
 18 17  2  0
M  END
$$$$
