CSC.pdb
     RDKit          3D

 19 18  0  0  1  0  0  0  0  0999 V2000
   11.7950   -8.9158   -8.1673 N   0  0  0  0  0  0  0  0  0  0  0  0
   12.9121   -9.2294   -8.9958 C   0  0  1  0  0  0  0  0  0  0  0  0
   12.3754   -9.4161  -10.4221 C   0  0  0  0  0  0  0  0  0  0  0  0
   11.4057  -10.9646  -10.4990 S   0  0  0  0  0  0  0  0  0  0  0  0
   13.9397   -8.1875   -9.0596 C   0  0  0  0  0  0  0  0  0  0  0  0
   13.6096   -7.0155   -8.7396 O   0  0  0  0  0  0  0  0  0  0  0  0
   17.5741   -8.5810  -10.9213 O   0  0  0  0  0  0  0  0  0  0  0  0
   17.6644   -7.8215   -9.7371 C   0  0  0  0  0  0  0  0  0  0  0  0
   16.2527   -7.3247   -9.4404 C   0  0  2  0  0  0  0  0  0  0  0  0
   15.2896   -8.3927   -9.4564 N   0  0  0  0  0  0  0  0  0  0  0  0
   15.8806   -6.2055  -10.3375 C   0  0  0  0  0  0  0  0  0  0  0  0
   15.3532   -6.4399  -11.4555 O   0  0  0  0  0  0  0  0  0  0  0  0
   16.0884   -4.8368  -10.0046 N   0  0  0  0  0  0  0  0  0  0  0  0
   15.7658   -3.7562  -10.9398 C   0  0  1  0  0  0  0  0  0  0  0  0
   15.0277   -2.6898  -10.1235 C   0  0  0  0  0  0  0  0  0  0  0  0
   13.4568   -3.3778   -9.5067 S   0  0  0  0  0  0  0  0  0  0  0  0
   16.9631   -3.2121  -11.5822 C   0  0  0  0  0  0  0  0  0  0  0  0
   18.1132   -3.6309  -11.3080 O   0  0  0  0  0  0  0  0  0  0  0  0
   16.8372   -2.2024  -12.5248 O   0  0  0  0  0  0  0  0  0  0  0  0
  2  5  1  0
  2  1  1  1
  3  2  1  0
  4  3  1  0
  5  6  2  0
  7  8  1  0
  9  8  1  6
 10  9  1  0
 10  5  1  0
 11 12  2  0
 11  9  1  0
 13 11  1  0
 14 17  1  0
 14 13  1  0
 14 15  1  1
 16 15  1  0
 17 19  1  0
 18 17  2  0
M  END
$$$$
