CSC.pdb
     RDKit          3D

 19 18  0  0  1  0  0  0  0  0999 V2000
   19.9287  -12.5373  -18.1590 N   0  0  0  0  0  0  0  0  0  0  0  0
   20.2833  -11.2986  -18.7694 C   0  0  1  0  0  0  0  0  0  0  0  0
   18.9771  -10.6308  -19.2225 C   0  0  0  0  0  0  0  0  0  0  0  0
   18.5194  -11.2702  -20.8735 S   0  0  0  0  0  0  0  0  0  0  0  0
   20.9619  -10.3504  -17.8828 C   0  0  0  0  0  0  0  0  0  0  0  0
   20.4410  -10.1184  -16.7604 O   0  0  0  0  0  0  0  0  0  0  0  0
   24.9754   -9.5952  -17.2190 O   0  0  0  0  0  0  0  0  0  0  0  0
   24.2345   -8.4616  -17.6108 C   0  0  0  0  0  0  0  0  0  0  0  0
   22.7810   -8.7581  -17.2544 C   0  0  2  0  0  0  0  0  0  0  0  0
   22.1699   -9.6652  -18.1881 N   0  0  0  0  0  0  0  0  0  0  0  0
   22.0068   -7.5061  -17.0832 C   0  0  0  0  0  0  0  0  0  0  0  0
   21.4397   -6.9733  -18.0718 O   0  0  0  0  0  0  0  0  0  0  0  0
   21.8588   -6.8457  -15.8304 N   0  0  0  0  0  0  0  0  0  0  0  0
   21.2122   -5.5357  -15.7188 C   0  0  1  0  0  0  0  0  0  0  0  0
   19.7344   -5.8117  -15.4223 C   0  0  0  0  0  0  0  0  0  0  0  0
   18.9091   -4.2559  -14.9532 S   0  0  0  0  0  0  0  0  0  0  0  0
   21.8266   -4.7086  -14.6794 C   0  0  0  0  0  0  0  0  0  0  0  0
   22.4942   -5.2066  -13.7415 O   0  0  0  0  0  0  0  0  0  0  0  0
   21.6742   -3.3305  -14.7199 O   0  0  0  0  0  0  0  0  0  0  0  0
  2  5  1  0
  2  1  1  1
  3  2  1  0
  4  3  1  0
  5  6  2  0
  7  8  1  0
  9  8  1  6
 10  9  1  0
 10  5  1  0
 11 12  2  0
 11  9  1  0
 13 11  1  0
 14 17  1  0
 14 13  1  0
 14 15  1  1
 16 15  1  0
 17 19  1  0
 18 17  2  0
M  END
$$$$
