CSC.pdb
     RDKit          3D

 19 18  0  0  1  0  0  0  0  0999 V2000
   21.6109  -11.5253  -17.6931 N   0  0  0  0  0  0  0  0  0  0  0  0
   20.5823  -10.6424  -18.1348 C   0  0  1  0  0  0  0  0  0  0  0  0
   19.3578  -10.8979  -17.2445 C   0  0  0  0  0  0  0  0  0  0  0  0
   18.6731  -12.5496  -17.6280 S   0  0  0  0  0  0  0  0  0  0  0  0
   20.9048   -9.2183  -18.0182 C   0  0  0  0  0  0  0  0  0  0  0  0
   21.9272   -8.8991  -17.3564 O   0  0  0  0  0  0  0  0  0  0  0  0
   18.5502   -6.0684  -19.4011 O   0  0  0  0  0  0  0  0  0  0  0  0
   19.9342   -5.9430  -19.6381 C   0  0  0  0  0  0  0  0  0  0  0  0
   20.6268   -6.8012  -18.5838 C   0  0  2  0  0  0  0  0  0  0  0  0
   20.1524   -8.1588  -18.5954 N   0  0  0  0  0  0  0  0  0  0  0  0
   20.5382   -6.1758  -17.2433 C   0  0  0  0  0  0  0  0  0  0  0  0
   19.5261   -6.3689  -16.5212 O   0  0  0  0  0  0  0  0  0  0  0  0
   21.5584   -5.3430  -16.7021 N   0  0  0  0  0  0  0  0  0  0  0  0
   21.4211   -4.7056  -15.3901 C   0  0  1  0  0  0  0  0  0  0  0  0
   22.7076   -5.0262  -14.6217 C   0  0  0  0  0  0  0  0  0  0  0  0
   22.6459   -4.2375  -12.9798 S   0  0  0  0  0  0  0  0  0  0  0  0
   21.2042   -3.2626  -15.5022 C   0  0  0  0  0  0  0  0  0  0  0  0
   21.7405   -2.5779  -16.4061 O   0  0  0  0  0  0  0  0  0  0  0  0
   20.3830   -2.6191  -14.5881 O   0  0  0  0  0  0  0  0  0  0  0  0
  2  5  1  0
  2  1  1  1
  3  2  1  0
  4  3  1  0
  5  6  2  0
  7  8  1  0
  9  8  1  6
 10  9  1  0
 10  5  1  0
 11 12  2  0
 11  9  1  0
 13 11  1  0
 14 17  1  0
 14 13  1  0
 14 15  1  1
 16 15  1  0
 17 19  1  0
 18 17  2  0
M  END
$$$$
