CSC.pdb
     RDKit          3D

 19 18  0  0  1  0  0  0  0  0999 V2000
   29.6406  -23.4577  -17.9771 N   0  0  0  0  0  0  0  0  0  0  0  0
   28.3265  -23.1787  -17.4995 C   0  0  1  0  0  0  0  0  0  0  0  0
   27.6779  -24.5269  -17.1547 C   0  0  0  0  0  0  0  0  0  0  0  0
   26.7737  -25.1478  -18.6178 S   0  0  0  0  0  0  0  0  0  0  0  0
   28.2763  -22.3585  -16.2868 C   0  0  0  0  0  0  0  0  0  0  0  0
   29.2755  -22.3789  -15.5212 O   0  0  0  0  0  0  0  0  0  0  0  0
   25.6046  -19.1803  -15.4549 O   0  0  0  0  0  0  0  0  0  0  0  0
   26.9554  -19.2375  -15.0555 C   0  0  0  0  0  0  0  0  0  0  0  0
   27.2424  -20.7004  -14.7309 C   0  0  2  0  0  0  0  0  0  0  0  0
   27.1834  -21.5351  -15.9004 N   0  0  0  0  0  0  0  0  0  0  0  0
   26.3690  -21.1862  -13.6368 C   0  0  0  0  0  0  0  0  0  0  0  0
   25.3344  -21.8511  -13.9017 O   0  0  0  0  0  0  0  0  0  0  0  0
   26.6342  -20.9407  -12.2595 N   0  0  0  0  0  0  0  0  0  0  0  0
   25.6182  -21.1563  -11.2262 C   0  0  1  0  0  0  0  0  0  0  0  0
   26.2310  -20.6581   -9.9129 C   0  0  0  0  0  0  0  0  0  0  0  0
   25.0600  -20.9518   -8.5476 S   0  0  0  0  0  0  0  0  0  0  0  0
   24.3668  -20.4633  -11.5356 C   0  0  0  0  0  0  0  0  0  0  0  0
   24.3498  -19.3174  -12.0456 O   0  0  0  0  0  0  0  0  0  0  0  0
   23.1551  -21.0804  -11.2620 O   0  0  0  0  0  0  0  0  0  0  0  0
  2  5  1  0
  2  1  1  1
  3  2  1  0
  4  3  1  0
  5  6  2  0
  7  8  1  0
  9  8  1  6
 10  9  1  0
 10  5  1  0
 11 12  2  0
 11  9  1  0
 13 11  1  0
 14 17  1  0
 14 13  1  0
 14 15  1  1
 16 15  1  0
 17 19  1  0
 18 17  2  0
M  END
$$$$
