CSC.pdb
     RDKit          3D

 19 18  0  0  1  0  0  0  0  0999 V2000
   19.7025   -9.9914  -14.9044 N   0  0  0  0  0  0  0  0  0  0  0  0
   20.3010   -8.8994  -15.5986 C   0  0  1  0  0  0  0  0  0  0  0  0
   19.6966   -8.8787  -17.0099 C   0  0  0  0  0  0  0  0  0  0  0  0
   20.3252  -10.3148  -17.9515 S   0  0  0  0  0  0  0  0  0  0  0  0
   20.0476   -7.5838  -15.0067 C   0  0  0  0  0  0  0  0  0  0  0  0
   18.8698   -7.3154  -14.6518 O   0  0  0  0  0  0  0  0  0  0  0  0
   22.4351   -5.1205  -12.6483 O   0  0  0  0  0  0  0  0  0  0  0  0
   21.9389   -4.5129  -13.8197 C   0  0  0  0  0  0  0  0  0  0  0  0
   20.6967   -5.3045  -14.2173 C   0  0  2  0  0  0  0  0  0  0  0  0
   21.0300   -6.5771  -14.7982 N   0  0  0  0  0  0  0  0  0  0  0  0
   19.8030   -4.4979  -15.0812 C   0  0  0  0  0  0  0  0  0  0  0  0
   20.0567   -4.3676  -16.3065 O   0  0  0  0  0  0  0  0  0  0  0  0
   18.6369   -3.8389  -14.5977 N   0  0  0  0  0  0  0  0  0  0  0  0
   17.8109   -2.9943  -15.4642 C   0  0  1  0  0  0  0  0  0  0  0  0
   16.4853   -3.7400  -15.6510 C   0  0  0  0  0  0  0  0  0  0  0  0
   15.3581   -2.7284  -16.6649 S   0  0  0  0  0  0  0  0  0  0  0  0
   17.6056   -1.6616  -14.8953 C   0  0  0  0  0  0  0  0  0  0  0  0
   17.4826   -1.4774  -13.6606 O   0  0  0  0  0  0  0  0  0  0  0  0
   17.5430   -0.5593  -15.7350 O   0  0  0  0  0  0  0  0  0  0  0  0
  2  5  1  0
  2  1  1  1
  3  2  1  0
  4  3  1  0
  5  6  2  0
  7  8  1  0
  9  8  1  6
 10  9  1  0
 10  5  1  0
 11 12  2  0
 11  9  1  0
 13 11  1  0
 14 17  1  0
 14 13  1  0
 14 15  1  1
 16 15  1  0
 17 19  1  0
 18 17  2  0
M  END
$$$$
