CSC.pdb
     RDKit          3D

 19 18  0  0  1  0  0  0  0  0999 V2000
   13.4317   -9.4559   -8.4328 N   0  0  0  0  0  0  0  0  0  0  0  0
   14.5773   -9.4076   -9.2801 C   0  0  1  0  0  0  0  0  0  0  0  0
   14.1498   -9.9632  -10.6460 C   0  0  0  0  0  0  0  0  0  0  0  0
   13.9809  -11.7801  -10.5269 S   0  0  0  0  0  0  0  0  0  0  0  0
   15.1104   -8.0634   -9.5142 C   0  0  0  0  0  0  0  0  0  0  0  0
   14.2905   -7.1116   -9.5962 O   0  0  0  0  0  0  0  0  0  0  0  0
   18.9968   -7.1817  -10.6467 O   0  0  0  0  0  0  0  0  0  0  0  0
   18.4486   -6.2609   -9.7307 C   0  0  0  0  0  0  0  0  0  0  0  0
   16.9332   -6.3894   -9.8524 C   0  0  2  0  0  0  0  0  0  0  0  0
   16.4883   -7.7430   -9.6575 N   0  0  0  0  0  0  0  0  0  0  0  0
   16.4479   -5.8054  -11.1249 C   0  0  0  0  0  0  0  0  0  0  0  0
   16.3894   -6.5131  -12.1635 O   0  0  0  0  0  0  0  0  0  0  0  0
   16.0298   -4.4502  -11.2520 N   0  0  0  0  0  0  0  0  0  0  0  0
   15.6843   -3.8664  -12.5505 C   0  0  1  0  0  0  0  0  0  0  0  0
   14.2352   -3.3826  -12.4303 C   0  0  0  0  0  0  0  0  0  0  0  0
   13.1348   -4.8163  -12.1951 S   0  0  0  0  0  0  0  0  0  0  0  0
   16.5888   -2.7765  -12.9191 C   0  0  0  0  0  0  0  0  0  0  0  0
   17.4270   -2.3066  -12.1128 O   0  0  0  0  0  0  0  0  0  0  0  0
   16.5287   -2.2368  -14.1955 O   0  0  0  0  0  0  0  0  0  0  0  0
  2  5  1  0
  2  1  1  1
  3  2  1  0
  4  3  1  0
  5  6  2  0
  7  8  1  0
  9  8  1  6
 10  9  1  0
 10  5  1  0
 11 12  2  0
 11  9  1  0
 13 11  1  0
 14 17  1  0
 14 13  1  0
 14 15  1  1
 16 15  1  0
 17 19  1  0
 18 17  2  0
M  END
$$$$
