CSC.pdb
     RDKit          3D

 19 18  0  0  1  0  0  0  0  0999 V2000
   19.0503  -14.7770  -17.7112 N   0  0  0  0  0  0  0  0  0  0  0  0
   18.3620  -13.5850  -17.3393 C   0  0  1  0  0  0  0  0  0  0  0  0
   18.0196  -13.7105  -15.8479 C   0  0  0  0  0  0  0  0  0  0  0  0
   16.5826  -14.8249  -15.6553 S   0  0  0  0  0  0  0  0  0  0  0  0
   19.1397  -12.3537  -17.4964 C   0  0  0  0  0  0  0  0  0  0  0  0
   20.3563  -12.3812  -17.1738 O   0  0  0  0  0  0  0  0  0  0  0  0
   19.8004   -7.8913  -19.1958 O   0  0  0  0  0  0  0  0  0  0  0  0
   18.8469   -8.9214  -19.0647 C   0  0  0  0  0  0  0  0  0  0  0  0
   19.4682   -9.9621  -18.1380 C   0  0  2  0  0  0  0  0  0  0  0  0
   18.6295  -11.1204  -17.9870 N   0  0  0  0  0  0  0  0  0  0  0  0
   19.8513   -9.3601  -16.8392 C   0  0  0  0  0  0  0  0  0  0  0  0
   19.0011   -9.2493  -15.9185 O   0  0  0  0  0  0  0  0  0  0  0  0
   21.1630   -8.8834  -16.5570 N   0  0  0  0  0  0  0  0  0  0  0  0
   21.4750   -8.1662  -15.3182 C   0  0  1  0  0  0  0  0  0  0  0  0
   22.9201   -8.5328  -14.9637 C   0  0  0  0  0  0  0  0  0  0  0  0
   22.9426  -10.1293  -14.0849 S   0  0  0  0  0  0  0  0  0  0  0  0
   21.3050   -6.7200  -15.4649 C   0  0  0  0  0  0  0  0  0  0  0  0
   21.4193   -5.9351  -14.4932 O   0  0  0  0  0  0  0  0  0  0  0  0
   21.0081   -6.1869  -16.7106 O   0  0  0  0  0  0  0  0  0  0  0  0
  2  5  1  0
  2  1  1  1
  3  2  1  0
  4  3  1  0
  5  6  2  0
  7  8  1  0
  9  8  1  6
 10  9  1  0
 10  5  1  0
 11 12  2  0
 11  9  1  0
 13 11  1  0
 14 17  1  0
 14 13  1  0
 14 15  1  6
 16 15  1  0
 17 19  1  0
 18 17  2  0
M  END
$$$$
