CSC.pdb
     RDKit          3D

 19 18  0  0  1  0  0  0  0  0999 V2000
   29.7870  -37.4755   -5.0785 N   0  0  0  0  0  0  0  0  0  0  0  0
   28.3765  -37.3573   -4.9079 C   0  0  1  0  0  0  0  0  0  0  0  0
   27.8862  -38.6757   -4.2922 C   0  0  0  0  0  0  0  0  0  0  0  0
   26.0658  -38.6195   -4.1286 S   0  0  0  0  0  0  0  0  0  0  0  0
   27.9560  -36.2828   -4.0055 C   0  0  0  0  0  0  0  0  0  0  0  0
   28.6028  -36.1253   -2.9369 O   0  0  0  0  0  0  0  0  0  0  0  0
   25.4890  -32.3019   -2.9075 O   0  0  0  0  0  0  0  0  0  0  0  0
   25.6838  -33.2664   -3.9170 C   0  0  0  0  0  0  0  0  0  0  0  0
   26.4931  -34.3924   -3.2805 C   0  0  2  0  0  0  0  0  0  0  0  0
   26.8692  -35.3962   -4.2392 N   0  0  0  0  0  0  0  0  0  0  0  0
   25.7889  -34.9585   -2.1060 C   0  0  0  0  0  0  0  0  0  0  0  0
   24.8550  -35.7860   -2.2671 O   0  0  0  0  0  0  0  0  0  0  0  0
   26.1119  -34.6149   -0.7625 N   0  0  0  0  0  0  0  0  0  0  0  0
   25.3881  -35.1848    0.3766 C   0  0  1  0  0  0  0  0  0  0  0  0
   26.4386  -35.4563    1.4588 C   0  0  0  0  0  0  0  0  0  0  0  0
   27.9005  -36.2386    0.7022 S   0  0  0  0  0  0  0  0  0  0  0  0
   24.3343  -34.2909    0.8588 C   0  0  0  0  0  0  0  0  0  0  0  0
   24.0730  -33.2038    0.2901 O   0  0  0  0  0  0  0  0  0  0  0  0
   23.5940  -34.6436    1.9774 O   0  0  0  0  0  0  0  0  0  0  0  0
  2  5  1  0
  2  1  1  1
  3  2  1  0
  4  3  1  0
  5  6  2  0
  7  8  1  0
  9  8  1  6
 10  9  1  0
 10  5  1  0
 11 12  2  0
 11  9  1  0
 13 11  1  0
 14 17  1  0
 14 13  1  0
 14 15  1  1
 16 15  1  0
 17 19  1  0
 18 17  2  0
M  END
$$$$
