MKC.pdb
     RDKit          3D

 24 23  0  0  1  0  0  0  0  0999 V2000
    7.6967  -11.5746   20.1756 C   0  0  0  0  0  0  0  0  0  0  0  0
    8.1282  -12.7059   18.8525 S   0  0  0  0  0  0  0  0  0  0  0  0
    7.6542  -14.3870   19.3238 C   0  0  0  0  0  0  0  0  0  0  0  0
    7.5742  -14.5366   20.8335 C   0  0  0  0  0  0  0  0  0  0  0  0
    7.2599  -15.9864   21.1227 C   0  0  2  0  0  0  0  0  0  0  0  0
    5.9230  -16.2625   20.6405 N   0  0  0  0  0  0  0  0  0  0  0  0
    7.3370  -16.3151   22.5449 C   0  0  0  0  0  0  0  0  0  0  0  0
    6.5570  -15.7595   23.3566 O   0  0  0  0  0  0  0  0  0  0  0  0
    8.2595  -17.2487   23.1024 N   0  0  0  0  0  0  0  0  0  0  0  0
    8.4794  -17.3322   24.5440 C   0  0  1  0  0  0  0  0  0  0  0  0
    9.2290  -18.6093   24.7841 C   0  0  0  0  0  0  0  0  0  0  0  0
    9.4391  -18.9327   26.2394 C   0  0  0  0  0  0  0  0  0  0  0  0
    8.1916  -19.4423   26.9026 C   0  0  0  0  0  0  0  0  0  0  0  0
    8.3662  -19.6009   28.3979 C   0  0  0  0  0  0  0  0  0  0  0  0
    7.1605  -20.0247   29.0484 N   0  0  0  0  0  0  0  0  0  0  0  0
    9.2019  -16.1399   25.0425 C   0  0  0  0  0  0  0  0  0  0  0  0
   10.3106  -15.8144   24.5528 O   0  0  0  0  0  0  0  0  0  0  0  0
    8.6842  -15.3197   26.0822 N   0  0  0  0  0  0  0  0  0  0  0  0
    9.5012  -14.3207   26.7441 C   0  0  1  0  0  0  0  0  0  0  0  0
    8.7350  -13.0391   26.9862 C   0  0  0  0  0  0  0  0  0  0  0  0
    7.3152  -12.9829   25.8914 S   0  0  0  0  0  0  0  0  0  0  0  0
    9.9025  -14.8402   28.0874 C   0  0  0  0  0  0  0  0  0  0  0  0
    9.4346  -15.9263   28.5296 O   0  0  0  0  0  0  0  0  0  0  0  0
   10.7941  -14.1494   28.8811 O   0  0  0  0  0  0  0  0  0  0  0  0
  1  2  1  0
  2  3  1  0
  4  3  1  0
  5  4  1  0
  5  6  1  1
  7  8  2  0
  7  5  1  0
  9  7  1  0
 10  9  1  0
 10 11  1  6
 12 13  1  0
 12 11  1  0
 13 14  1  0
 14 15  1  0
 16 17  2  0
 16 10  1  0
 18 16  1  0
 19 18  1  0
 19 20  1  1
 20 21  1  0
 22 19  1  0
 23 22  2  0
 24 22  1  0
M  END
$$$$
