MKC.pdb
     RDKit          3D

 24 23  0  0  1  0  0  0  0  0999 V2000
    8.5519  -11.8109   19.6907 C   0  0  0  0  0  0  0  0  0  0  0  0
    8.1293  -12.8886   18.3208 S   0  0  0  0  0  0  0  0  0  0  0  0
    8.0838  -14.6021   18.8991 C   0  0  0  0  0  0  0  0  0  0  0  0
    7.3371  -14.7218   20.2167 C   0  0  0  0  0  0  0  0  0  0  0  0
    7.3385  -16.1838   20.5998 C   0  0  2  0  0  0  0  0  0  0  0  0
    6.3937  -16.8740   19.7472 N   0  0  0  0  0  0  0  0  0  0  0  0
    6.9791  -16.4083   21.9987 C   0  0  0  0  0  0  0  0  0  0  0  0
    5.7746  -16.3577   22.3490 O   0  0  0  0  0  0  0  0  0  0  0  0
    7.9202  -16.6898   23.0324 N   0  0  0  0  0  0  0  0  0  0  0  0
    7.5245  -16.7026   24.4384 C   0  0  1  0  0  0  0  0  0  0  0  0
    7.8791  -18.0618   24.9651 C   0  0  0  0  0  0  0  0  0  0  0  0
    7.6004  -18.2423   26.4336 C   0  0  0  0  0  0  0  0  0  0  0  0
    8.0689  -19.5727   26.9500 C   0  0  0  0  0  0  0  0  0  0  0  0
    7.8526  -19.7123   28.4417 C   0  0  0  0  0  0  0  0  0  0  0  0
    8.3348  -20.9632   28.9505 N   0  0  0  0  0  0  0  0  0  0  0  0
    8.1817  -15.6072   25.1868 C   0  0  0  0  0  0  0  0  0  0  0  0
    9.4256  -15.4508   25.1280 O   0  0  0  0  0  0  0  0  0  0  0  0
    7.4490  -14.6949   25.9945 N   0  0  0  0  0  0  0  0  0  0  0  0
    8.1050  -13.6317   26.7314 C   0  0  1  0  0  0  0  0  0  0  0  0
    7.1072  -12.6679   27.3345 C   0  0  0  0  0  0  0  0  0  0  0  0
    6.0556  -12.0156   26.0360 S   0  0  0  0  0  0  0  0  0  0  0  0
    8.8630  -14.2329   27.8713 C   0  0  0  0  0  0  0  0  0  0  0  0
    8.8276  -15.4757   28.0908 O   0  0  0  0  0  0  0  0  0  0  0  0
    9.6215  -13.4486   28.7149 O   0  0  0  0  0  0  0  0  0  0  0  0
  1  2  1  0
  2  3  1  0
  4  3  1  0
  5  4  1  0
  5  6  1  6
  7  8  2  0
  7  5  1  0
  9  7  1  0
 10  9  1  0
 10 11  1  1
 12 13  1  0
 12 11  1  0
 13 14  1  0
 14 15  1  0
 16 17  2  0
 16 10  1  0
 18 16  1  0
 19 18  1  0
 19 20  1  1
 20 21  1  0
 22 19  1  0
 23 22  2  0
 24 22  1  0
M  END
$$$$
