MKC.pdb
     RDKit          3D

 24 23  0  0  1  0  0  0  0  0999 V2000
    6.6117  -11.6924   26.4213 C   0  0  0  0  0  0  0  0  0  0  0  0
    7.1735  -12.8904   27.6319 S   0  0  0  0  0  0  0  0  0  0  0  0
    7.3267  -14.5115   26.8436 C   0  0  0  0  0  0  0  0  0  0  0  0
    6.0146  -14.9464   26.2134 C   0  0  0  0  0  0  0  0  0  0  0  0
    6.2512  -16.2959   25.5752 C   0  0  2  0  0  0  0  0  0  0  0  0
    6.8238  -17.1728   26.5748 N   0  0  0  0  0  0  0  0  0  0  0  0
    7.1448  -16.2329   24.4202 C   0  0  0  0  0  0  0  0  0  0  0  0
    8.0571  -17.0856   24.2902 O   0  0  0  0  0  0  0  0  0  0  0  0
    7.0597  -15.2461   23.3944 N   0  0  0  0  0  0  0  0  0  0  0  0
    7.9896  -15.2377   22.2680 C   0  0  1  0  0  0  0  0  0  0  0  0
    7.5929  -14.0796   21.4007 C   0  0  0  0  0  0  0  0  0  0  0  0
    8.3373  -14.0089   20.0940 C   0  0  0  0  0  0  0  0  0  0  0  0
    7.8603  -12.8850   19.2191 C   0  0  0  0  0  0  0  0  0  0  0  0
    8.5809  -12.8549   17.8881 C   0  0  0  0  0  0  0  0  0  0  0  0
    8.6322  -14.1447   17.2636 N   0  0  0  0  0  0  0  0  0  0  0  0
    9.3918  -15.1512   22.7354 C   0  0  0  0  0  0  0  0  0  0  0  0
    9.7572  -14.2155   23.4878 O   0  0  0  0  0  0  0  0  0  0  0  0
   10.3757  -16.1071   22.3616 N   0  0  0  0  0  0  0  0  0  0  0  0
   11.7610  -15.9757   22.7707 C   0  0  1  0  0  0  0  0  0  0  0  0
   12.2280  -17.1750   23.5656 C   0  0  0  0  0  0  0  0  0  0  0  0
   11.1868  -17.3669   25.0135 S   0  0  0  0  0  0  0  0  0  0  0  0
   12.6197  -15.9110   21.5484 C   0  0  0  0  0  0  0  0  0  0  0  0
   12.1222  -16.0563   20.3971 O   0  0  0  0  0  0  0  0  0  0  0  0
   13.9780  -15.6911   21.6429 O   0  0  0  0  0  0  0  0  0  0  0  0
  1  2  1  0
  2  3  1  0
  4  3  1  0
  5  4  1  0
  5  6  1  1
  7  8  2  0
  7  5  1  0
  9  7  1  0
 10  9  1  0
 10 11  1  6
 12 13  1  0
 12 11  1  0
 13 14  1  0
 14 15  1  0
 16 17  2  0
 16 10  1  0
 18 16  1  0
 19 18  1  0
 19 20  1  1
 20 21  1  0
 22 19  1  0
 23 22  2  0
 24 22  1  0
M  END
$$$$
