MKC.pdb
     RDKit          3D

 24 23  0  0  1  0  0  0  0  0999 V2000
    8.6452  -11.5882   19.6296 C   0  0  0  0  0  0  0  0  0  0  0  0
    8.0434  -12.7577   18.4104 S   0  0  0  0  0  0  0  0  0  0  0  0
    8.0716  -14.4240   19.1140 C   0  0  0  0  0  0  0  0  0  0  0  0
    7.5240  -14.4355   20.5311 C   0  0  0  0  0  0  0  0  0  0  0  0
    7.6988  -15.8382   21.0661 C   0  0  2  0  0  0  0  0  0  0  0  0
    6.9159  -16.7354   20.2427 N   0  0  0  0  0  0  0  0  0  0  0  0
    7.2805  -15.9743   22.4601 C   0  0  0  0  0  0  0  0  0  0  0  0
    6.5444  -15.0994   22.9786 O   0  0  0  0  0  0  0  0  0  0  0  0
    7.6548  -17.0591   23.3065 N   0  0  0  0  0  0  0  0  0  0  0  0
    7.3961  -17.0268   24.7437 C   0  0  1  0  0  0  0  0  0  0  0  0
    7.6928  -18.4045   25.2579 C   0  0  0  0  0  0  0  0  0  0  0  0
    7.5236  -18.5531   26.7465 C   0  0  0  0  0  0  0  0  0  0  0  0
    7.8370  -19.9414   27.2265 C   0  0  0  0  0  0  0  0  0  0  0  0
    7.7328  -20.0600   28.7321 C   0  0  0  0  0  0  0  0  0  0  0  0
    8.0168  -21.3861   29.1981 N   0  0  0  0  0  0  0  0  0  0  0  0
    8.2055  -15.9796   25.4072 C   0  0  0  0  0  0  0  0  0  0  0  0
    9.4155  -15.8254   25.1119 O   0  0  0  0  0  0  0  0  0  0  0  0
    7.6614  -15.1126   26.3940 N   0  0  0  0  0  0  0  0  0  0  0  0
    8.4286  -14.0157   26.9524 C   0  0  1  0  0  0  0  0  0  0  0  0
    7.5478  -13.0342   27.6935 C   0  0  0  0  0  0  0  0  0  0  0  0
    6.0378  -12.7736   26.7611 S   0  0  0  0  0  0  0  0  0  0  0  0
    9.3948  -14.5643   27.9528 C   0  0  0  0  0  0  0  0  0  0  0  0
    9.4002  -15.7929   28.2440 O   0  0  0  0  0  0  0  0  0  0  0  0
   10.3069  -13.7458   28.5855 O   0  0  0  0  0  0  0  0  0  0  0  0
  1  2  1  0
  2  3  1  0
  4  3  1  0
  5  4  1  0
  5  6  1  6
  7  8  2  0
  7  5  1  0
  9  7  1  0
 10  9  1  0
 10 11  1  1
 12 13  1  0
 12 11  1  0
 13 14  1  0
 14 15  1  0
 16 17  2  0
 16 10  1  0
 18 16  1  0
 19 18  1  0
 19 20  1  1
 20 21  1  0
 22 19  1  0
 23 22  2  0
 24 22  1  0
M  END
$$$$
