MKC.pdb
     RDKit          3D

 24 23  0  0  1  0  0  0  0  0999 V2000
    7.4836  -11.5843   20.9667 C   0  0  0  0  0  0  0  0  0  0  0  0
    7.2582  -12.2972   19.3365 S   0  0  0  0  0  0  0  0  0  0  0  0
    7.4807  -14.0900   19.4309 C   0  0  0  0  0  0  0  0  0  0  0  0
    8.5676  -14.4610   20.4256 C   0  0  0  0  0  0  0  0  0  0  0  0
    8.5478  -15.9655   20.5683 C   0  0  2  0  0  0  0  0  0  0  0  0
    7.2252  -16.4345   20.2124 N   0  0  0  0  0  0  0  0  0  0  0  0
    8.8712  -16.4154   21.9209 C   0  0  0  0  0  0  0  0  0  0  0  0
    7.9548  -16.5552   22.7676 O   0  0  0  0  0  0  0  0  0  0  0  0
   10.1901  -16.7185   22.3705 N   0  0  0  0  0  0  0  0  0  0  0  0
   10.4463  -17.1456   23.7436 C   0  0  1  0  0  0  0  0  0  0  0  0
   11.7314  -17.9190   23.7131 C   0  0  0  0  0  0  0  0  0  0  0  0
   11.6154  -19.2762   23.0718 C   0  0  0  0  0  0  0  0  0  0  0  0
   12.9376  -19.9818   22.9726 C   0  0  0  0  0  0  0  0  0  0  0  0
   12.7951  -21.3814   22.4136 C   0  0  0  0  0  0  0  0  0  0  0  0
   14.0397  -22.0934   22.3956 N   0  0  0  0  0  0  0  0  0  0  0  0
   10.4959  -15.9854   24.6619 C   0  0  0  0  0  0  0  0  0  0  0  0
   11.2450  -15.0088   24.4166 O   0  0  0  0  0  0  0  0  0  0  0  0
    9.7112  -15.9217   25.8459 N   0  0  0  0  0  0  0  0  0  0  0  0
    9.8966  -14.8709   26.8283 C   0  0  1  0  0  0  0  0  0  0  0  0
    8.6142  -14.1116   27.0873 C   0  0  0  0  0  0  0  0  0  0  0  0
    7.7327  -13.8941   25.5404 S   0  0  0  0  0  0  0  0  0  0  0  0
   10.2966  -15.4924   28.1280 C   0  0  0  0  0  0  0  0  0  0  0  0
   10.3728  -16.7466   28.2517 O   0  0  0  0  0  0  0  0  0  0  0  0
   10.5935  -14.7149   29.2279 O   0  0  0  0  0  0  0  0  0  0  0  0
  1  2  1  0
  2  3  1  0
  4  3  1  0
  5  4  1  0
  5  6  1  1
  7  8  2  0
  7  5  1  0
  9  7  1  0
 10  9  1  0
 10 11  1  6
 12 13  1  0
 12 11  1  0
 13 14  1  0
 14 15  1  0
 16 17  2  0
 16 10  1  0
 18 16  1  0
 19 18  1  0
 19 20  1  1
 20 21  1  0
 22 19  1  0
 23 22  2  0
 24 22  1  0
M  END
$$$$
