MKC.pdb
     RDKit          3D

 24 23  0  0  1  0  0  0  0  0999 V2000
    8.9053  -11.7866   19.6936 C   0  0  0  0  0  0  0  0  0  0  0  0
    8.1486  -12.8008   18.4226 S   0  0  0  0  0  0  0  0  0  0  0  0
    8.0797  -14.5176   18.9888 C   0  0  0  0  0  0  0  0  0  0  0  0
    7.7353  -14.5996   20.4662 C   0  0  0  0  0  0  0  0  0  0  0  0
    7.6831  -16.0651   20.8320 C   0  0  2  0  0  0  0  0  0  0  0  0
    6.5414  -16.6555   20.1659 N   0  0  0  0  0  0  0  0  0  0  0  0
    7.5714  -16.2910   22.2718 C   0  0  0  0  0  0  0  0  0  0  0  0
    6.4588  -16.1615   22.8389 O   0  0  0  0  0  0  0  0  0  0  0  0
    8.6630  -16.6594   23.1120 N   0  0  0  0  0  0  0  0  0  0  0  0
    8.5095  -16.7521   24.5617 C   0  0  1  0  0  0  0  0  0  0  0  0
    9.3919  -17.8799   25.0090 C   0  0  0  0  0  0  0  0  0  0  0  0
    9.4287  -18.0748   26.5015 C   0  0  0  0  0  0  0  0  0  0  0  0
   10.3791  -19.1607   26.9177 C   0  0  0  0  0  0  0  0  0  0  0  0
   10.4211  -19.3349   28.4209 C   0  0  0  0  0  0  0  0  0  0  0  0
   11.3011  -20.3923   28.8255 N   0  0  0  0  0  0  0  0  0  0  0  0
    8.8440  -15.4669   25.2161 C   0  0  0  0  0  0  0  0  0  0  0  0
    9.9463  -14.9077   24.9984 O   0  0  0  0  0  0  0  0  0  0  0  0
    7.9487  -14.8145   26.1074 N   0  0  0  0  0  0  0  0  0  0  0  0
    8.3215  -13.6026   26.8116 C   0  0  1  0  0  0  0  0  0  0  0  0
    7.1109  -12.8638   27.3377 C   0  0  0  0  0  0  0  0  0  0  0  0
    6.0661  -12.3841   25.9608 S   0  0  0  0  0  0  0  0  0  0  0  0
    9.1483  -13.9721   28.0012 C   0  0  0  0  0  0  0  0  0  0  0  0
    9.3458  -15.1818   28.3040 O   0  0  0  0  0  0  0  0  0  0  0  0
    9.7184  -13.0039   28.8011 O   0  0  0  0  0  0  0  0  0  0  0  0
  1  2  1  0
  2  3  1  0
  4  3  1  0
  5  4  1  0
  5  6  1  6
  7  8  2  0
  7  5  1  0
  9  7  1  0
 10  9  1  0
 10 11  1  1
 12 13  1  0
 12 11  1  0
 13 14  1  0
 14 15  1  0
 16 17  2  0
 16 10  1  0
 18 16  1  0
 19 18  1  0
 19 20  1  1
 20 21  1  0
 22 19  1  0
 23 22  2  0
 24 22  1  0
M  END
$$$$
