MKC.pdb
     RDKit          3D

 24 23  0  0  1  0  0  0  0  0999 V2000
    6.6527  -14.5845   17.2733 C   0  0  0  0  0  0  0  0  0  0  0  0
    7.9468  -13.4484   17.7745 S   0  0  0  0  0  0  0  0  0  0  0  0
    7.4946  -12.6832   19.3501 C   0  0  0  0  0  0  0  0  0  0  0  0
    7.3428  -13.7234   20.4469 C   0  0  0  0  0  0  0  0  0  0  0  0
    8.6875  -13.8587   21.1234 C   0  0  2  0  0  0  0  0  0  0  0  0
    9.5920  -14.5126   20.2013 N   0  0  0  0  0  0  0  0  0  0  0  0
    8.6274  -14.6263   22.3659 C   0  0  0  0  0  0  0  0  0  0  0  0
    7.7719  -14.3359   23.2376 O   0  0  0  0  0  0  0  0  0  0  0  0
    9.4930  -15.7159   22.6770 N   0  0  0  0  0  0  0  0  0  0  0  0
    9.3784  -16.4420   23.9392 C   0  0  1  0  0  0  0  0  0  0  0  0
   10.0290  -17.7759   23.7204 C   0  0  0  0  0  0  0  0  0  0  0  0
    9.1750  -18.7580   22.9636 C   0  0  0  0  0  0  0  0  0  0  0  0
    9.8647  -20.0746   22.7473 C   0  0  0  0  0  0  0  0  0  0  0  0
    9.0267  -21.0269   21.9211 C   0  0  0  0  0  0  0  0  0  0  0  0
    9.6878  -22.2781   21.6889 N   0  0  0  0  0  0  0  0  0  0  0  0
    9.9916  -15.6792   25.0501 C   0  0  0  0  0  0  0  0  0  0  0  0
   11.1649  -15.2441   24.9543 O   0  0  0  0  0  0  0  0  0  0  0  0
    9.2938  -15.4069   26.2586 N   0  0  0  0  0  0  0  0  0  0  0  0
    9.8541  -14.5508   27.2867 C   0  0  1  0  0  0  0  0  0  0  0  0
    8.8311  -13.5741   27.8232 C   0  0  0  0  0  0  0  0  0  0  0  0
    8.0726  -12.6998   26.4530 S   0  0  0  0  0  0  0  0  0  0  0  0
   10.2814  -15.4005   28.4403 C   0  0  0  0  0  0  0  0  0  0  0  0
   10.0631  -16.6441   28.4466 O   0  0  0  0  0  0  0  0  0  0  0  0
   10.9255  -14.8515   29.5293 O   0  0  0  0  0  0  0  0  0  0  0  0
  1  2  1  0
  2  3  1  0
  4  3  1  0
  5  4  1  0
  5  6  1  6
  7  8  2  0
  7  5  1  0
  9  7  1  0
 10  9  1  0
 10 11  1  6
 12 13  1  0
 12 11  1  0
 13 14  1  0
 14 15  1  0
 16 17  2  0
 16 10  1  0
 18 16  1  0
 19 18  1  0
 19 20  1  1
 20 21  1  0
 22 19  1  0
 23 22  2  0
 24 22  1  0
M  END
$$$$
