NSI.pdb
     RDKit          3D

 23 22  0  0  1  0  0  0  0  0999 V2000
   15.5442  -13.1485  -10.7747 N   0  0  0  0  0  0  0  0  0  0  0  0
   14.9628  -11.9035  -11.1574 C   0  0  0  0  0  0  0  0  0  0  0  0
   13.7456  -11.7412  -10.8808 O   0  0  0  0  0  0  0  0  0  0  0  0
   15.7967  -10.8953  -11.8404 C   0  0  0  0  0  0  0  0  0  0  0  0
   14.9799  -10.1176  -12.8295 C   0  0  2  0  0  0  0  0  0  0  0  0
   14.5552  -11.0070  -13.8903 N   0  0  0  0  0  0  0  0  0  0  0  0
   15.7726   -9.0071  -13.4060 C   0  0  0  0  0  0  0  0  0  0  0  0
   16.5048   -9.1998  -14.4043 O   0  0  0  0  0  0  0  0  0  0  0  0
   15.9208   -5.3272  -11.5622 O   0  0  0  0  0  0  0  0  0  0  0  0
   15.7912   -5.2934  -12.9439 C   0  0  0  0  0  0  0  0  0  0  0  0
   16.3724   -6.5719  -13.5123 C   0  0  2  0  0  0  0  0  0  0  0  0
   15.7265   -7.7011  -12.8484 N   0  0  0  0  0  0  0  0  0  0  0  0
   17.8297   -6.5720  -13.2383 C   0  0  0  0  0  0  0  0  0  0  0  0
   18.2261   -6.9507  -12.0875 O   0  0  0  0  0  0  0  0  0  0  0  0
   22.9470   -8.6783  -15.0558 C   0  0  0  0  0  0  0  0  0  0  0  0
   22.3625   -7.5267  -14.2872 C   0  0  0  0  0  0  0  0  0  0  0  0
   20.9075   -7.3646  -14.6799 C   0  0  2  0  0  0  0  0  0  0  0  0
   20.8374   -6.9216  -16.1288 C   0  0  0  0  0  0  0  0  0  0  0  0
   20.2202   -6.3214  -13.8273 C   0  0  2  0  0  0  0  0  0  0  0  0
   18.8268   -6.1856  -14.1523 N   0  0  0  0  0  0  0  0  0  0  0  0
   20.9459   -5.0388  -14.0129 C   0  0  0  0  0  0  0  0  0  0  0  0
   20.4190   -3.9877  -14.7164 O   0  0  0  0  0  0  0  0  0  0  0  0
   22.0866   -4.9126  -13.5056 O   0  0  0  0  0  0  0  0  0  0  0  0
  1  2  1  0
  2  4  1  0
  3  2  2  0
  4  5  1  0
  5  7  1  0
  5  6  1  6
  7 12  1  0
  7  8  2  0
 10  9  1  0
 11 10  1  1
 11 13  1  0
 12 11  1  0
 13 14  2  0
 13 20  1  0
 16 17  1  0
 16 15  1  0
 17 19  1  0
 17 18  1  6
 19 21  1  0
 19 20  1  6
 21 22  1  0
 23 21  2  0
M  END
$$$$
