NSI.pdb
     RDKit          3D

 23 22  0  0  1  0  0  0  0  0999 V2000
   14.3585  -12.1182   -9.4183 N   0  0  0  0  0  0  0  0  0  0  0  0
   15.0346  -12.0407  -10.6718 C   0  0  0  0  0  0  0  0  0  0  0  0
   15.3062  -13.1336  -11.2342 O   0  0  0  0  0  0  0  0  0  0  0  0
   15.3724  -10.7172  -11.2308 C   0  0  0  0  0  0  0  0  0  0  0  0
   15.0069   -9.6282  -10.2661 C   0  0  2  0  0  0  0  0  0  0  0  0
   13.5666   -9.5935  -10.1208 N   0  0  0  0  0  0  0  0  0  0  0  0
   15.4842   -8.3136  -10.7540 C   0  0  0  0  0  0  0  0  0  0  0  0
   14.8775   -7.7185  -11.6747 O   0  0  0  0  0  0  0  0  0  0  0  0
   17.4286   -5.9780   -8.4199 O   0  0  0  0  0  0  0  0  0  0  0  0
   17.0346   -5.3893   -9.6137 C   0  0  0  0  0  0  0  0  0  0  0  0
   17.1360   -6.4238  -10.7158 C   0  0  2  0  0  0  0  0  0  0  0  0
   16.6348   -7.6937  -10.1970 N   0  0  0  0  0  0  0  0  0  0  0  0
   18.5638   -6.5455  -11.0975 C   0  0  0  0  0  0  0  0  0  0  0  0
   19.3665   -7.0802  -10.2642 O   0  0  0  0  0  0  0  0  0  0  0  0
   20.6011   -9.4974  -14.5438 C   0  0  0  0  0  0  0  0  0  0  0  0
   20.3370   -8.6004  -13.3673 C   0  0  0  0  0  0  0  0  0  0  0  0
   20.8222   -7.2032  -13.6987 C   0  0  2  0  0  0  0  0  0  0  0  0
   22.3232   -7.2435  -13.9126 C   0  0  0  0  0  0  0  0  0  0  0  0
   20.5254   -6.2363  -12.5741 C   0  0  2  0  0  0  0  0  0  0  0  0
   19.1163   -6.1163  -12.3180 N   0  0  0  0  0  0  0  0  0  0  0  0
   21.1222   -4.9257  -12.9380 C   0  0  0  0  0  0  0  0  0  0  0  0
   22.4463   -4.6363  -12.7371 O   0  0  0  0  0  0  0  0  0  0  0  0
   20.3849   -4.0487  -13.4495 O   0  0  0  0  0  0  0  0  0  0  0  0
  1  2  1  0
  2  4  1  0
  3  2  2  0
  4  5  1  0
  5  7  1  0
  5  6  1  6
  7 12  1  0
  7  8  2  0
 10  9  1  0
 11 10  1  1
 11 13  1  0
 12 11  1  0
 13 14  2  0
 13 20  1  0
 16 17  1  0
 16 15  1  0
 17 19  1  0
 17 18  1  1
 19 21  1  0
 19 20  1  6
 21 22  1  0
 23 21  2  0
M  END
$$$$
