NSI.pdb
     RDKit          3D

 23 22  0  0  1  0  0  0  0  0999 V2000
   18.1779  -12.3684  -19.3033 N   0  0  0  0  0  0  0  0  0  0  0  0
   17.7726  -12.8774  -18.0340 C   0  0  0  0  0  0  0  0  0  0  0  0
   17.1247  -13.9566  -18.0403 O   0  0  0  0  0  0  0  0  0  0  0  0
   18.1247  -12.1319  -16.8099 C   0  0  0  0  0  0  0  0  0  0  0  0
   19.0106  -10.9668  -17.1383 C   0  0  2  0  0  0  0  0  0  0  0  0
   20.3523  -11.4520  -17.3851 N   0  0  0  0  0  0  0  0  0  0  0  0
   19.0361   -9.9960  -16.0197 C   0  0  0  0  0  0  0  0  0  0  0  0
   17.9856   -9.7154  -15.3972 O   0  0  0  0  0  0  0  0  0  0  0  0
   22.3256   -9.2639  -13.9776 O   0  0  0  0  0  0  0  0  0  0  0  0
   21.1256   -8.8087  -13.4487 C   0  0  0  0  0  0  0  0  0  0  0  0
   20.2498   -8.3291  -14.5881 C   0  0  2  0  0  0  0  0  0  0  0  0
   20.2427   -9.3596  -15.6230 N   0  0  0  0  0  0  0  0  0  0  0  0
   20.8318   -7.0700  -15.1124 C   0  0  0  0  0  0  0  0  0  0  0  0
   21.6611   -7.1458  -16.0773 O   0  0  0  0  0  0  0  0  0  0  0  0
   17.8792   -2.9152  -15.7718 C   0  0  0  0  0  0  0  0  0  0  0  0
   19.0592   -3.7385  -16.2058 C   0  0  0  0  0  0  0  0  0  0  0  0
   20.2272   -3.4422  -15.2863 C   0  0  2  0  0  0  0  0  0  0  0  0
   20.9931   -2.2534  -15.8345 C   0  0  0  0  0  0  0  0  0  0  0  0
   21.1718   -4.6203  -15.1992 C   0  0  2  0  0  0  0  0  0  0  0  0
   20.5427   -5.7804  -14.6301 N   0  0  0  0  0  0  0  0  0  0  0  0
   22.3483   -4.1957  -14.3981 C   0  0  0  0  0  0  0  0  0  0  0  0
   23.5245   -3.7900  -14.9721 O   0  0  0  0  0  0  0  0  0  0  0  0
   22.2621   -4.2090  -13.1464 O   0  0  0  0  0  0  0  0  0  0  0  0
  1  2  1  0
  2  4  1  0
  3  2  2  0
  4  5  1  0
  5  7  1  0
  5  6  1  1
  7 12  1  0
  7  8  2  0
 10  9  1  0
 11 10  1  1
 11 13  1  0
 12 11  1  0
 13 14  2  0
 13 20  1  0
 16 17  1  0
 16 15  1  0
 17 19  1  0
 17 18  1  6
 19 21  1  0
 19 20  1  1
 21 22  1  0
 23 21  2  0
M  END
$$$$
