NSI.pdb
     RDKit          3D

 23 22  0  0  1  0  0  0  0  0999 V2000
   22.0791  -12.4217  -20.7013 N   0  0  0  0  0  0  0  0  0  0  0  0
   20.8948  -11.7181  -21.0713 C   0  0  0  0  0  0  0  0  0  0  0  0
   20.6031  -11.7105  -22.2957 O   0  0  0  0  0  0  0  0  0  0  0  0
   20.0927  -11.0523  -20.0265 C   0  0  0  0  0  0  0  0  0  0  0  0
   20.7056  -11.2667  -18.6742 C   0  0  2  0  0  0  0  0  0  0  0  0
   20.3405  -12.5841  -18.1968 N   0  0  0  0  0  0  0  0  0  0  0  0
   20.2276  -10.2452  -17.7140 C   0  0  0  0  0  0  0  0  0  0  0  0
   19.0408   -9.8451  -17.7495 O   0  0  0  0  0  0  0  0  0  0  0  0
   22.1875   -9.7857  -14.3363 O   0  0  0  0  0  0  0  0  0  0  0  0
   20.8811   -9.3170  -14.3609 C   0  0  0  0  0  0  0  0  0  0  0  0
   20.6016   -8.7457  -15.7359 C   0  0  2  0  0  0  0  0  0  0  0  0
   21.0937   -9.6933  -16.7323 N   0  0  0  0  0  0  0  0  0  0  0  0
   21.3205   -7.4535  -15.8480 C   0  0  0  0  0  0  0  0  0  0  0  0
   22.5037   -7.4618  -16.3219 O   0  0  0  0  0  0  0  0  0  0  0  0
   18.9112   -2.7973  -17.2185 C   0  0  0  0  0  0  0  0  0  0  0  0
   19.8268   -3.9821  -17.0911 C   0  0  0  0  0  0  0  0  0  0  0  0
   20.7125   -3.7876  -15.8764 C   0  0  2  0  0  0  0  0  0  0  0  0
   21.6179   -2.5947  -16.1160 C   0  0  0  0  0  0  0  0  0  0  0  0
   21.5784   -5.0023  -15.6264 C   0  0  2  0  0  0  0  0  0  0  0  0
   20.8013   -6.2013  -15.4718 N   0  0  0  0  0  0  0  0  0  0  0  0
   22.3981   -4.7298  -14.4181 C   0  0  0  0  0  0  0  0  0  0  0  0
   22.0809   -5.2305  -13.1828 O   0  0  0  0  0  0  0  0  0  0  0  0
   23.4215   -4.0130  -14.5329 O   0  0  0  0  0  0  0  0  0  0  0  0
  1  2  1  0
  2  4  1  0
  3  2  2  0
  4  5  1  0
  5  7  1  0
  5  6  1  1
  7 12  1  0
  7  8  2  0
 10  9  1  0
 11 10  1  1
 11 13  1  0
 12 11  1  0
 13 14  2  0
 13 20  1  0
 16 17  1  0
 16 15  1  0
 17 19  1  0
 17 18  1  6
 19 21  1  0
 19 20  1  1
 21 22  1  0
 23 21  2  0
M  END
$$$$
