NSI.pdb
     RDKit          3D

 23 22  0  0  1  0  0  0  0  0999 V2000
   18.9023  -16.0367  -19.7837 N   0  0  0  0  0  0  0  0  0  0  0  0
   19.1034  -15.7150  -18.4087 C   0  0  0  0  0  0  0  0  0  0  0  0
   18.4323  -16.3738  -17.5719 O   0  0  0  0  0  0  0  0  0  0  0  0
   20.0631  -14.6538  -18.0469 C   0  0  0  0  0  0  0  0  0  0  0  0
   20.6923  -14.0698  -19.2770 C   0  0  2  0  0  0  0  0  0  0  0  0
   21.7367  -14.9604  -19.7382 N   0  0  0  0  0  0  0  0  0  0  0  0
   21.2731  -12.7384  -18.9872 C   0  0  0  0  0  0  0  0  0  0  0  0
   22.4620  -12.6325  -18.6062 O   0  0  0  0  0  0  0  0  0  0  0  0
   20.2081   -9.1552  -20.8145 O   0  0  0  0  0  0  0  0  0  0  0  0
   20.1303   -9.1892  -19.4290 C   0  0  0  0  0  0  0  0  0  0  0  0
   21.1006  -10.2350  -18.9190 C   0  0  2  0  0  0  0  0  0  0  0  0
   20.5054  -11.5517  -19.1314 N   0  0  0  0  0  0  0  0  0  0  0  0
   21.3173   -9.9898  -17.4726 C   0  0  0  0  0  0  0  0  0  0  0  0
   20.4706  -10.4664  -16.6476 O   0  0  0  0  0  0  0  0  0  0  0  0
   25.8077  -10.9370  -15.0826 C   0  0  0  0  0  0  0  0  0  0  0  0
   24.3756  -10.7447  -15.4957 C   0  0  0  0  0  0  0  0  0  0  0  0
   23.9004   -9.3937  -14.9991 C   0  0  2  0  0  0  0  0  0  0  0  0
   23.8661   -9.4132  -13.4830 C   0  0  0  0  0  0  0  0  0  0  0  0
   22.5100   -9.0794  -15.5048 C   0  0  2  0  0  0  0  0  0  0  0  0
   22.3926   -9.2670  -16.9248 N   0  0  0  0  0  0  0  0  0  0  0  0
   22.1953   -7.6807  -15.1165 C   0  0  0  0  0  0  0  0  0  0  0  0
   22.2184   -6.6433  -16.0114 O   0  0  0  0  0  0  0  0  0  0  0  0
   21.8965   -7.4391  -13.9221 O   0  0  0  0  0  0  0  0  0  0  0  0
  1  2  1  0
  2  4  1  0
  3  2  2  0
  4  5  1  0
  5  7  1  0
  5  6  1  1
  7 12  1  0
  7  8  2  0
 10  9  1  0
 11 10  1  1
 11 13  1  0
 12 11  1  0
 13 14  2  0
 13 20  1  0
 16 17  1  0
 16 15  1  0
 17 19  1  0
 17 18  1  1
 19 21  1  0
 19 20  1  6
 21 22  1  0
 23 21  2  0
M  END
$$$$
