NSI.pdb
     RDKit          3D

 23 22  0  0  1  0  0  0  0  0999 V2000
   30.6429  -26.2103  -15.8411 N   0  0  0  0  0  0  0  0  0  0  0  0
   30.4387  -24.8076  -15.9997 C   0  0  0  0  0  0  0  0  0  0  0  0
   31.3603  -24.0541  -15.5905 O   0  0  0  0  0  0  0  0  0  0  0  0
   29.1897  -24.3239  -16.6195 C   0  0  0  0  0  0  0  0  0  0  0  0
   28.2775  -25.4725  -16.9336 C   0  0  2  0  0  0  0  0  0  0  0  0
   28.6565  -26.0370  -18.2120 N   0  0  0  0  0  0  0  0  0  0  0  0
   26.8678  -25.0214  -16.9931 C   0  0  0  0  0  0  0  0  0  0  0  0
   26.5578  -23.9856  -17.6262 O   0  0  0  0  0  0  0  0  0  0  0  0
   24.3304  -27.6939  -16.2933 O   0  0  0  0  0  0  0  0  0  0  0  0
   23.5693  -26.5438  -16.1349 C   0  0  0  0  0  0  0  0  0  0  0  0
   24.4348  -25.3456  -16.4671 C   0  0  2  0  0  0  0  0  0  0  0  0
   25.8341  -25.7441  -16.3393 N   0  0  0  0  0  0  0  0  0  0  0  0
   24.1113  -24.2672  -15.5020 C   0  0  0  0  0  0  0  0  0  0  0  0
   24.5451  -24.3771  -14.3086 O   0  0  0  0  0  0  0  0  0  0  0  0
   25.0952  -19.2618  -16.3829 C   0  0  0  0  0  0  0  0  0  0  0  0
   24.8846  -20.6102  -15.7538 C   0  0  0  0  0  0  0  0  0  0  0  0
   23.4419  -20.7192  -15.3017 C   0  0  2  0  0  0  0  0  0  0  0  0
   23.2062  -19.7335  -14.1734 C   0  0  0  0  0  0  0  0  0  0  0  0
   23.1272  -22.1093  -14.7955 C   0  0  2  0  0  0  0  0  0  0  0  0
   23.3567  -23.1166  -15.7946 N   0  0  0  0  0  0  0  0  0  0  0  0
   21.7138  -22.1130  -14.3389 C   0  0  0  0  0  0  0  0  0  0  0  0
   21.3588  -21.8862  -13.0351 O   0  0  0  0  0  0  0  0  0  0  0  0
   20.8090  -22.3323  -15.1801 O   0  0  0  0  0  0  0  0  0  0  0  0
  1  2  1  0
  2  4  1  0
  3  2  2  0
  4  5  1  0
  5  7  1  0
  5  6  1  6
  7 12  1  0
  7  8  2  0
 10  9  1  0
 11 10  1  1
 11 13  1  0
 12 11  1  0
 13 14  2  0
 13 20  1  0
 16 17  1  0
 16 15  1  0
 17 19  1  0
 17 18  1  1
 19 21  1  0
 19 20  1  6
 21 22  1  0
 23 21  2  0
M  END
$$$$
