NSI.pdb
     RDKit          3D

 23 22  0  0  1  0  0  0  0  0999 V2000
   18.4299  -16.1409  -18.3034 N   0  0  0  0  0  0  0  0  0  0  0  0
   18.1993  -16.1602  -16.8959 C   0  0  0  0  0  0  0  0  0  0  0  0
   17.3534  -16.9918  -16.4748 O   0  0  0  0  0  0  0  0  0  0  0  0
   18.9451  -15.2284  -16.0279 C   0  0  0  0  0  0  0  0  0  0  0  0
   19.9269  -14.4292  -16.8325 C   0  0  2  0  0  0  0  0  0  0  0  0
   21.0226  -15.2902  -17.2261 N   0  0  0  0  0  0  0  0  0  0  0  0
   20.4532  -13.2938  -16.0401 C   0  0  0  0  0  0  0  0  0  0  0  0
   19.7359  -12.7320  -15.1800 O   0  0  0  0  0  0  0  0  0  0  0  0
   24.2571  -11.9655  -16.7229 O   0  0  0  0  0  0  0  0  0  0  0  0
   23.8062  -11.7947  -15.4212 C   0  0  0  0  0  0  0  0  0  0  0  0
   22.2947  -11.6946  -15.4458 C   0  0  2  0  0  0  0  0  0  0  0  0
   21.7762  -12.8122  -16.2303 N   0  0  0  0  0  0  0  0  0  0  0  0
   21.9330  -10.4033  -16.0787 C   0  0  0  0  0  0  0  0  0  0  0  0
   21.8923  -10.3470  -17.3515 O   0  0  0  0  0  0  0  0  0  0  0  0
   17.9712   -6.8006  -17.5867 C   0  0  0  0  0  0  0  0  0  0  0  0
   19.4101   -6.7172  -17.1612 C   0  0  0  0  0  0  0  0  0  0  0  0
   19.7896   -8.0082  -16.4634 C   0  0  2  0  0  0  0  0  0  0  0  0
   18.9726   -8.1365  -15.1920 C   0  0  0  0  0  0  0  0  0  0  0  0
   21.2560   -8.0231  -16.0928 C   0  0  2  0  0  0  0  0  0  0  0  0
   21.6258   -9.2183  -15.3856 N   0  0  0  0  0  0  0  0  0  0  0  0
   21.5276   -6.8090  -15.2814 C   0  0  0  0  0  0  0  0  0  0  0  0
   21.7105   -5.5722  -15.8420 O   0  0  0  0  0  0  0  0  0  0  0  0
   21.5922   -6.9199  -14.0332 O   0  0  0  0  0  0  0  0  0  0  0  0
  1  2  1  0
  2  4  1  0
  3  2  2  0
  4  5  1  0
  5  7  1  0
  5  6  1  1
  7 12  1  0
  7  8  2  0
 10  9  1  0
 11 10  1  6
 11 13  1  0
 12 11  1  0
 13 14  2  0
 13 20  1  0
 16 17  1  0
 16 15  1  0
 17 19  1  0
 17 18  1  1
 19 21  1  0
 19 20  1  1
 21 22  1  0
 23 21  2  0
M  END
$$$$
