NSI.pdb
     RDKit          3D

 23 22  0  0  1  0  0  0  0  0999 V2000
   16.2428  -15.9677  -14.5383 N   0  0  0  0  0  0  0  0  0  0  0  0
   16.2008  -15.1451  -15.7028 C   0  0  0  0  0  0  0  0  0  0  0  0
   15.0808  -15.0185  -16.2633 O   0  0  0  0  0  0  0  0  0  0  0  0
   17.4406  -14.5010  -16.1786 C   0  0  0  0  0  0  0  0  0  0  0  0
   17.2082  -13.8155  -17.4924 C   0  0  2  0  0  0  0  0  0  0  0  0
   17.4381  -14.7625  -18.5633 N   0  0  0  0  0  0  0  0  0  0  0  0
   18.1233  -12.6615  -17.6507 C   0  0  0  0  0  0  0  0  0  0  0  0
   19.3324  -12.8418  -17.9255 O   0  0  0  0  0  0  0  0  0  0  0  0
   16.6646   -8.8952  -17.1380 O   0  0  0  0  0  0  0  0  0  0  0  0
   17.7162   -8.9792  -18.0403 C   0  0  0  0  0  0  0  0  0  0  0  0
   18.5566  -10.1893  -17.6870 C   0  0  2  0  0  0  0  0  0  0  0  0
   17.6609  -11.3270  -17.4969 N   0  0  0  0  0  0  0  0  0  0  0  0
   19.2867   -9.8872  -16.4321 C   0  0  0  0  0  0  0  0  0  0  0  0
   18.7743  -10.2710  -15.3299 O   0  0  0  0  0  0  0  0  0  0  0  0
   23.9596  -11.5038  -15.1993 C   0  0  0  0  0  0  0  0  0  0  0  0
   22.5480  -10.9990  -15.3045 C   0  0  0  0  0  0  0  0  0  0  0  0
   22.5361   -9.5131  -15.0054 C   0  0  2  0  0  0  0  0  0  0  0  0
   23.0663   -9.2916  -13.6018 C   0  0  0  0  0  0  0  0  0  0  0  0
   21.1355   -8.9473  -15.0821 C   0  0  2  0  0  0  0  0  0  0  0  0
   20.5142   -9.2046  -16.3522 N   0  0  0  0  0  0  0  0  0  0  0  0
   21.2230   -7.4901  -14.8084 C   0  0  0  0  0  0  0  0  0  0  0  0
   21.1779   -6.9732  -13.5403 O   0  0  0  0  0  0  0  0  0  0  0  0
   21.3431   -6.7009  -15.7765 O   0  0  0  0  0  0  0  0  0  0  0  0
  1  2  1  0
  2  4  1  0
  3  2  2  0
  4  5  1  0
  5  7  1  0
  5  6  1  6
  7 12  1  0
  7  8  2  0
 10  9  1  0
 11 10  1  1
 11 13  1  0
 12 11  1  0
 13 14  2  0
 13 20  1  0
 16 17  1  0
 16 15  1  0
 17 19  1  0
 17 18  1  1
 19 21  1  0
 19 20  1  6
 21 22  1  0
 23 21  2  0
M  END
$$$$
