CCF.pdb
     RDKit          3D

 24 24  0  0  1  0  0  0  0  0999 V2000
   10.1035  -18.7183   18.6648 N   0  0  0  0  0  0  0  0  0  0  0  0
    9.3424  -18.6971   19.9008 C   0  0  1  0  0  0  0  0  0  0  0  0
    9.6555  -19.9049   20.7339 C   0  0  0  0  0  0  0  0  0  0  0  0
    8.7483  -19.7793   22.3005 S   0  0  0  0  0  0  0  0  0  0  0  0
    9.4976  -17.4211   20.6144 C   0  0  0  0  0  0  0  0  0  0  0  0
   10.6643  -17.0406   20.8938 O   0  0  0  0  0  0  0  0  0  0  0  0
    8.4070  -16.5889   21.0091 N   0  0  0  0  0  0  0  0  0  0  0  0
    8.5610  -15.3222   21.6457 C   0  0  1  0  0  0  0  0  0  0  0  0
    7.2548  -14.5688   21.7862 C   0  0  0  0  0  0  0  0  0  0  0  0
    5.8239  -15.5661   21.3556 S   0  0  0  0  0  0  0  0  0  0  0  0
    9.2369  -15.4420   22.9833 C   0  0  0  0  0  0  0  0  0  0  0  0
   10.4211  -15.0524   23.1495 O   0  0  0  0  0  0  0  0  0  0  0  0
    8.5120  -16.0058   24.0635 N   0  0  0  0  0  0  0  0  0  0  0  0
    9.1923  -16.1596   25.3499 C   0  0  1  0  0  0  0  0  0  0  0  0
    9.5949  -14.8215   25.8797 C   0  0  0  0  0  0  0  0  0  0  0  0
    8.4139  -13.9819   26.1244 C   0  0  0  0  0  0  0  0  0  0  0  0
    8.5241  -12.9005   26.9731 C   0  0  0  0  0  0  0  0  0  0  0  0
    7.4507  -12.0525   27.2216 C   0  0  0  0  0  0  0  0  0  0  0  0
    6.2384  -12.2754   26.6190 C   0  0  0  0  0  0  0  0  0  0  0  0
    6.1191  -13.3536   25.7693 C   0  0  0  0  0  0  0  0  0  0  0  0
    7.1866  -14.1893   25.5278 C   0  0  0  0  0  0  0  0  0  0  0  0
    8.3152  -16.8462   26.3114 C   0  0  0  0  0  0  0  0  0  0  0  0
    7.1458  -17.1520   25.9559 O   0  0  0  0  0  0  0  0  0  0  0  0
    8.7409  -17.1566   27.5645 O   0  0  0  0  0  0  0  0  0  0  0  0
  2  1  1  6
  2  5  1  0
  3  2  1  0
  4  3  1  0
  5  6  2  0
  7  8  1  0
  7  5  1  0
  8 11  1  0
  9 10  1  0
  8  9  1  1
 11 12  2  0
 11 13  1  0
 13 14  1  0
 14 22  1  0
 14 15  1  1
 16 15  1  0
 16 17  2  0
 18 17  1  0
 19 18  2  0
 20 21  2  0
 20 19  1  0
 21 16  1  0
 22 23  2  0
 22 24  1  0
M  END
$$$$
