CCF.pdb
     RDKit          3D

 24 24  0  0  1  0  0  0  0  0999 V2000
    7.1796  -19.6522   20.2822 N   0  0  0  0  0  0  0  0  0  0  0  0
    7.1258  -18.9886   21.5722 C   0  0  1  0  0  0  0  0  0  0  0  0
    7.2283  -19.9897   22.6851 C   0  0  0  0  0  0  0  0  0  0  0  0
    5.9040  -19.6631   23.8820 S   0  0  0  0  0  0  0  0  0  0  0  0
    8.1006  -17.8919   21.6620 C   0  0  0  0  0  0  0  0  0  0  0  0
    9.2382  -18.0719   21.1545 O   0  0  0  0  0  0  0  0  0  0  0  0
    7.8357  -16.6371   22.2889 N   0  0  0  0  0  0  0  0  0  0  0  0
    8.8060  -15.6037   22.4449 C   0  0  1  0  0  0  0  0  0  0  0  0
    8.3421  -14.2700   21.8975 C   0  0  0  0  0  0  0  0  0  0  0  0
    6.6420  -13.8890   22.3352 S   0  0  0  0  0  0  0  0  0  0  0  0
    9.2439  -15.4529   23.8752 C   0  0  0  0  0  0  0  0  0  0  0  0
   10.2004  -14.6974   24.1852 O   0  0  0  0  0  0  0  0  0  0  0  0
    8.5558  -16.1822   24.8777 N   0  0  0  0  0  0  0  0  0  0  0  0
    9.0274  -16.0767   26.2589 C   0  0  1  0  0  0  0  0  0  0  0  0
    7.8932  -15.7125   27.1611 C   0  0  0  0  0  0  0  0  0  0  0  0
    7.3835  -14.3718   26.8411 C   0  0  0  0  0  0  0  0  0  0  0  0
    8.1883  -13.2758   27.0715 C   0  0  0  0  0  0  0  0  0  0  0  0
    7.7736  -11.9852   26.7625 C   0  0  0  0  0  0  0  0  0  0  0  0
    6.5352  -11.7689   26.2130 C   0  0  0  0  0  0  0  0  0  0  0  0
    5.7243  -12.8581   25.9793 C   0  0  0  0  0  0  0  0  0  0  0  0
    6.1416  -14.1337   26.2878 C   0  0  0  0  0  0  0  0  0  0  0  0
    9.6337  -17.3467   26.6887 C   0  0  0  0  0  0  0  0  0  0  0  0
   10.1474  -17.4168   27.8370 O   0  0  0  0  0  0  0  0  0  0  0  0
    9.6468  -18.4375   25.8775 O   0  0  0  0  0  0  0  0  0  0  0  0
  2  1  1  6
  2  5  1  0
  3  2  1  0
  4  3  1  0
  5  6  2  0
  7  8  1  0
  7  5  1  0
  8 11  1  0
  9 10  1  0
  8  9  1  1
 11 12  2  0
 11 13  1  0
 13 14  1  0
 14 22  1  0
 14 15  1  1
 16 15  1  0
 16 17  2  0
 18 17  1  0
 19 18  2  0
 20 21  2  0
 20 19  1  0
 21 16  1  0
 22 23  2  0
 22 24  1  0
M  END
$$$$
