CCF.pdb
     RDKit          3D

 24 24  0  0  1  0  0  0  0  0999 V2000
    5.5405  -17.3290   19.2877 N   0  0  0  0  0  0  0  0  0  0  0  0
    6.5265  -16.6464   20.1059 C   0  0  1  0  0  0  0  0  0  0  0  0
    6.5391  -15.1774   19.8012 C   0  0  0  0  0  0  0  0  0  0  0  0
    7.9613  -14.8195   18.7324 S   0  0  0  0  0  0  0  0  0  0  0  0
    6.3623  -16.9604   21.5327 C   0  0  0  0  0  0  0  0  0  0  0  0
    5.3511  -16.5008   22.1244 O   0  0  0  0  0  0  0  0  0  0  0  0
    7.2788  -17.7539   22.2865 N   0  0  0  0  0  0  0  0  0  0  0  0
    7.2715  -17.8437   23.7097 C   0  0  1  0  0  0  0  0  0  0  0  0
    7.0947  -19.2616   24.2115 C   0  0  0  0  0  0  0  0  0  0  0  0
    7.3698  -19.4156   25.9801 S   0  0  0  0  0  0  0  0  0  0  0  0
    8.4996  -17.2273   24.3198 C   0  0  0  0  0  0  0  0  0  0  0  0
    9.6391  -17.4252   23.8258 O   0  0  0  0  0  0  0  0  0  0  0  0
    8.3516  -16.4124   25.4706 N   0  0  0  0  0  0  0  0  0  0  0  0
    9.5560  -15.8466   26.0792 C   0  0  1  0  0  0  0  0  0  0  0  0
    9.6748  -14.3985   25.7297 C   0  0  0  0  0  0  0  0  0  0  0  0
    8.5312  -13.6405   26.2564 C   0  0  0  0  0  0  0  0  0  0  0  0
    8.6922  -12.8967   27.4064 C   0  0  0  0  0  0  0  0  0  0  0  0
    7.6565  -12.1360   27.9372 C   0  0  0  0  0  0  0  0  0  0  0  0
    6.4316  -12.1074   27.3196 C   0  0  0  0  0  0  0  0  0  0  0  0
    6.2617  -12.8476   26.1699 C   0  0  0  0  0  0  0  0  0  0  0  0
    7.2921  -13.5987   25.6498 C   0  0  0  0  0  0  0  0  0  0  0  0
    9.5169  -16.0172   27.5402 C   0  0  0  0  0  0  0  0  0  0  0  0
   10.4911  -15.6073   28.2261 O   0  0  0  0  0  0  0  0  0  0  0  0
    8.4565  -16.6013   28.1586 O   0  0  0  0  0  0  0  0  0  0  0  0
  2  1  1  6
  2  5  1  0
  3  2  1  0
  4  3  1  0
  5  6  2  0
  7  8  1  0
  7  5  1  0
  8 11  1  0
  9 10  1  0
  8  9  1  6
 11 12  2  0
 11 13  1  0
 13 14  1  0
 14 22  1  0
 14 15  1  1
 16 15  1  0
 16 17  2  0
 18 17  1  0
 19 18  2  0
 20 21  2  0
 20 19  1  0
 21 16  1  0
 22 23  2  0
 22 24  1  0
M  END
$$$$
