CCF.pdb
     RDKit          3D

 24 24  0  0  1  0  0  0  0  0999 V2000
    8.5326  -14.4186   17.6602 N   0  0  0  0  0  0  0  0  0  0  0  0
    9.1293  -14.2750   18.9758 C   0  0  1  0  0  0  0  0  0  0  0  0
    9.2531  -12.8257   19.3436 C   0  0  0  0  0  0  0  0  0  0  0  0
    7.5872  -12.1254   19.5081 S   0  0  0  0  0  0  0  0  0  0  0  0
    8.4335  -15.0906   19.9818 C   0  0  0  0  0  0  0  0  0  0  0  0
    7.3911  -15.7003   19.6273 O   0  0  0  0  0  0  0  0  0  0  0  0
    8.8678  -15.2327   21.3342 N   0  0  0  0  0  0  0  0  0  0  0  0
    8.4450  -16.2835   22.2006 C   0  0  1  0  0  0  0  0  0  0  0  0
    8.6348  -17.6595   21.5971 C   0  0  0  0  0  0  0  0  0  0  0  0
    8.1874  -18.9842   22.7250 S   0  0  0  0  0  0  0  0  0  0  0  0
    9.1149  -16.2100   23.5445 C   0  0  0  0  0  0  0  0  0  0  0  0
   10.3682  -16.1789   23.6444 O   0  0  0  0  0  0  0  0  0  0  0  0
    8.3045  -16.1760   24.7074 N   0  0  0  0  0  0  0  0  0  0  0  0
    8.9590  -15.9949   26.0036 C   0  0  1  0  0  0  0  0  0  0  0  0
    7.9635  -15.5397   27.0210 C   0  0  0  0  0  0  0  0  0  0  0  0
    7.3960  -14.2366   26.6471 C   0  0  0  0  0  0  0  0  0  0  0  0
    8.2106  -13.1238   26.6534 C   0  0  0  0  0  0  0  0  0  0  0  0
    7.7394  -11.8696   26.2819 C   0  0  0  0  0  0  0  0  0  0  0  0
    6.4332  -11.7076   25.8945 C   0  0  0  0  0  0  0  0  0  0  0  0
    5.6120  -12.8140   25.8851 C   0  0  0  0  0  0  0  0  0  0  0  0
    6.0856  -14.0534   26.2543 C   0  0  0  0  0  0  0  0  0  0  0  0
    9.5913  -17.2515   26.4352 C   0  0  0  0  0  0  0  0  0  0  0  0
    9.3259  -18.3117   25.8084 O   0  0  0  0  0  0  0  0  0  0  0  0
   10.4517  -17.2885   27.4871 O   0  0  0  0  0  0  0  0  0  0  0  0
  2  1  1  6
  2  5  1  0
  3  2  1  0
  4  3  1  0
  5  6  2  0
  7  8  1  0
  7  5  1  0
  8 11  1  0
  9 10  1  0
  8  9  1  6
 11 12  2  0
 11 13  1  0
 13 14  1  0
 14 22  1  0
 14 15  1  1
 16 15  1  0
 16 17  2  0
 18 17  1  0
 19 18  2  0
 20 21  2  0
 20 19  1  0
 21 16  1  0
 22 23  2  0
 22 24  1  0
M  END
$$$$
