MVR.pdb
     RDKit          3D

 27 26  0  0  1  0  0  0  0  0999 V2000
    7.1600  -18.7950   20.5178 C   0  0  0  0  0  0  0  0  0  0  0  0
    5.6496  -17.9969   19.9162 S   0  0  0  0  0  0  0  0  0  0  0  0
    5.8666  -16.1698   19.8681 C   0  0  0  0  0  0  0  0  0  0  0  0
    6.6441  -15.8156   21.0881 C   0  0  0  0  0  0  0  0  0  0  0  0
    6.8981  -14.3405   21.2858 C   0  0  2  0  0  0  0  0  0  0  0  0
    7.7358  -13.9638   20.1146 N   0  0  0  0  0  0  0  0  0  0  0  0
    7.6737  -14.0655   22.5022 C   0  0  0  0  0  0  0  0  0  0  0  0
    8.9129  -14.3624   22.6049 O   0  0  0  0  0  0  0  0  0  0  0  0
    5.7149  -12.7537   26.0395 C   0  0  0  0  0  0  0  0  0  0  0  0
    7.1282  -12.3426   25.7703 C   0  0  1  0  0  0  0  0  0  0  0  0
    7.8408  -12.1462   27.0748 C   0  0  0  0  0  0  0  0  0  0  0  0
    7.7892  -13.4100   24.9106 C   0  0  2  0  0  0  0  0  0  0  0  0
    7.0793  -13.4549   23.6125 N   0  0  0  0  0  0  0  0  0  0  0  0
    7.7213  -14.7578   25.5408 C   0  0  0  0  0  0  0  0  0  0  0  0
    6.7733  -15.5181   25.1622 O   0  0  0  0  0  0  0  0  0  0  0  0
   13.6382  -18.0351   22.7306 N   0  0  0  0  0  0  0  0  0  0  0  0
   13.3083  -19.3119   23.2558 C   0  0  0  0  0  0  0  0  0  0  0  0
   14.1365  -20.3117   23.2866 N   0  0  0  0  0  0  0  0  0  0  0  0
   12.0084  -19.5268   23.7790 N   0  0  0  0  0  0  0  0  0  0  0  0
   10.9845  -18.5202   23.8055 C   0  0  0  0  0  0  0  0  0  0  0  0
   11.1731  -17.6643   25.0533 C   0  0  0  0  0  0  0  0  0  0  0  0
   10.1733  -16.5528   25.1488 C   0  0  0  0  0  0  0  0  0  0  0  0
    9.4258  -16.4440   26.4208 C   0  0  2  0  0  0  0  0  0  0  0  0
    8.6195  -15.2425   26.5081 N   0  0  0  0  0  0  0  0  0  0  0  0
   10.2072  -16.7182   27.6547 C   0  0  0  0  0  0  0  0  0  0  0  0
   10.1438  -17.9313   28.3454 O   0  0  0  0  0  0  0  0  0  0  0  0
   10.9813  -15.8684   28.1599 O   0  0  0  0  0  0  0  0  0  0  0  0
  2  1  1  0
  3  2  1  0
  4  5  1  0
  4  3  1  0
  5  6  1  6
  7 13  1  0
  7  5  1  0
  8  7  2  0
 10  9  1  1
 10 12  1  0
 11 10  1  0
 12 13  1  6
 14 15  2  0
 14 12  1  0
 16 17  1  0
 17 19  1  0
 18 17  2  0
 19 20  1  0
 20 21  1  0
 21 22  1  0
 23 22  1  6
 23 24  1  0
 24 14  1  0
 25 23  1  0
 26 25  1  0
 27 25  2  0
M  END
$$$$
