MVR.pdb
     RDKit          3D

 27 26  0  0  1  0  0  0  0  0999 V2000
    6.5668  -10.9138   26.4024 C   0  0  0  0  0  0  0  0  0  0  0  0
    6.4541  -12.4287   27.3885 S   0  0  0  0  0  0  0  0  0  0  0  0
    5.6386  -13.7642   26.4195 C   0  0  0  0  0  0  0  0  0  0  0  0
    6.6166  -14.1677   25.3711 C   0  0  0  0  0  0  0  0  0  0  0  0
    6.1148  -15.1896   24.3794 C   0  0  2  0  0  0  0  0  0  0  0  0
    5.8999  -16.4098   25.2042 N   0  0  0  0  0  0  0  0  0  0  0  0
    7.1151  -15.5096   23.3528 C   0  0  0  0  0  0  0  0  0  0  0  0
    7.6349  -16.6724   23.2433 O   0  0  0  0  0  0  0  0  0  0  0  0
    7.0835  -13.5513   19.6946 C   0  0  0  0  0  0  0  0  0  0  0  0
    8.4280  -13.7354   20.3249 C   0  0  1  0  0  0  0  0  0  0  0  0
    8.8156  -12.4734   21.0355 C   0  0  0  0  0  0  0  0  0  0  0  0
    8.3631  -14.9280   21.2678 C   0  0  2  0  0  0  0  0  0  0  0  0
    7.5427  -14.5411   22.4375 N   0  0  0  0  0  0  0  0  0  0  0  0
    9.7131  -15.3391   21.7443 C   0  0  0  0  0  0  0  0  0  0  0  0
   10.5478  -15.6992   20.8534 O   0  0  0  0  0  0  0  0  0  0  0  0
   13.2493  -17.3553   29.5198 N   0  0  0  0  0  0  0  0  0  0  0  0
   12.1495  -16.5807   29.0667 C   0  0  0  0  0  0  0  0  0  0  0  0
   11.5997  -15.6354   29.7673 N   0  0  0  0  0  0  0  0  0  0  0  0
   11.6075  -16.8389   27.7825 N   0  0  0  0  0  0  0  0  0  0  0  0
   12.1225  -17.8363   26.8870 C   0  0  0  0  0  0  0  0  0  0  0  0
   12.4025  -17.1836   25.5377 C   0  0  0  0  0  0  0  0  0  0  0  0
   11.1920  -16.5230   24.9523 C   0  0  0  0  0  0  0  0  0  0  0  0
   11.3546  -15.9112   23.6153 C   0  0  2  0  0  0  0  0  0  0  0  0
   10.1242  -15.3541   23.0889 N   0  0  0  0  0  0  0  0  0  0  0  0
   12.1053  -16.7214   22.6212 C   0  0  0  0  0  0  0  0  0  0  0  0
   13.4178  -16.4347   22.2365 O   0  0  0  0  0  0  0  0  0  0  0  0
   11.6025  -17.7248   22.0581 O   0  0  0  0  0  0  0  0  0  0  0  0
  2  1  1  0
  3  2  1  0
  4  5  1  0
  4  3  1  0
  5  6  1  1
  7 13  1  0
  7  5  1  0
  8  7  2  0
 10  9  1  1
 10 12  1  0
 11 10  1  0
 12 13  1  1
 14 15  2  0
 14 12  1  0
 16 17  1  0
 17 19  1  0
 18 17  2  0
 19 20  1  0
 20 21  1  0
 21 22  1  0
 23 22  1  1
 23 24  1  0
 24 14  1  0
 25 23  1  0
 26 25  1  0
 27 25  2  0
M  END
$$$$
