MVR.pdb
     RDKit          3D

 27 26  0  0  1  0  0  0  0  0999 V2000
    8.4985  -17.9460   18.9737 C   0  0  0  0  0  0  0  0  0  0  0  0
    6.7316  -17.7613   19.3263 S   0  0  0  0  0  0  0  0  0  0  0  0
    6.3084  -15.9860   19.5641 C   0  0  0  0  0  0  0  0  0  0  0  0
    7.0690  -15.5390   20.7642 C   0  0  0  0  0  0  0  0  0  0  0  0
    6.8336  -14.1070   21.1809 C   0  0  2  0  0  0  0  0  0  0  0  0
    7.5131  -13.3122   20.1218 N   0  0  0  0  0  0  0  0  0  0  0  0
    7.4716  -13.7868   22.4645 C   0  0  0  0  0  0  0  0  0  0  0  0
    8.7284  -13.5783   22.5702 O   0  0  0  0  0  0  0  0  0  0  0  0
    6.9675  -12.7914   27.2625 C   0  0  0  0  0  0  0  0  0  0  0  0
    6.3417  -12.9144   25.9089 C   0  0  1  0  0  0  0  0  0  0  0  0
    5.8128  -11.5762   25.4877 C   0  0  0  0  0  0  0  0  0  0  0  0
    7.3843  -13.4505   24.9388 C   0  0  2  0  0  0  0  0  0  0  0  0
    6.7175  -13.6922   23.6396 N   0  0  0  0  0  0  0  0  0  0  0  0
    7.9865  -14.7274   25.4132 C   0  0  0  0  0  0  0  0  0  0  0  0
    7.1951  -15.7143   25.5539 O   0  0  0  0  0  0  0  0  0  0  0  0
   15.3130  -17.3975   22.4005 N   0  0  0  0  0  0  0  0  0  0  0  0
   15.2105  -16.7007   23.6329 C   0  0  0  0  0  0  0  0  0  0  0  0
   16.1491  -15.9388   24.1075 N   0  0  0  0  0  0  0  0  0  0  0  0
   14.0269  -16.8316   24.4021 N   0  0  0  0  0  0  0  0  0  0  0  0
   13.0410  -17.8515   24.1785 C   0  0  0  0  0  0  0  0  0  0  0  0
   11.9227  -17.6825   25.2012 C   0  0  0  0  0  0  0  0  0  0  0  0
   11.1571  -16.4083   25.0160 C   0  0  0  0  0  0  0  0  0  0  0  0
   10.0208  -16.1804   25.9355 C   0  0  2  0  0  0  0  0  0  0  0  0
    9.3480  -14.9165   25.7094 N   0  0  0  0  0  0  0  0  0  0  0  0
   10.2867  -16.4559   27.3714 C   0  0  0  0  0  0  0  0  0  0  0  0
   10.0868  -15.5102   28.3806 O   0  0  0  0  0  0  0  0  0  0  0  0
   10.7124  -17.5670   27.7725 O   0  0  0  0  0  0  0  0  0  0  0  0
  2  1  1  0
  3  2  1  0
  4  5  1  0
  4  3  1  0
  5  6  1  6
  7 13  1  0
  7  5  1  0
  8  7  2  0
 10  9  1  1
 10 12  1  0
 11 10  1  0
 12 13  1  6
 14 15  2  0
 14 12  1  0
 16 17  1  0
 17 19  1  0
 18 17  2  0
 19 20  1  0
 20 21  1  0
 21 22  1  0
 23 22  1  6
 23 24  1  0
 24 14  1  0
 25 23  1  0
 26 25  1  0
 27 25  2  0
M  END
$$$$
