MVR.pdb
     RDKit          3D

 27 26  0  0  1  0  0  0  0  0999 V2000
    7.8011  -11.6284   24.6661 C   0  0  0  0  0  0  0  0  0  0  0  0
    6.5257  -11.4807   25.9435 S   0  0  0  0  0  0  0  0  0  0  0  0
    6.5575  -12.9491   27.0526 C   0  0  0  0  0  0  0  0  0  0  0  0
    7.3103  -14.0035   26.3178 C   0  0  0  0  0  0  0  0  0  0  0  0
    7.3788  -15.3457   27.0058 C   0  0  2  0  0  0  0  0  0  0  0  0
    8.1359  -15.0659   28.2564 N   0  0  0  0  0  0  0  0  0  0  0  0
    8.1397  -16.3331   26.2292 C   0  0  0  0  0  0  0  0  0  0  0  0
    9.4127  -16.4259   26.3011 O   0  0  0  0  0  0  0  0  0  0  0  0
    7.1078  -20.0443   25.7405 C   0  0  0  0  0  0  0  0  0  0  0  0
    7.4031  -19.4514   24.3988 C   0  0  1  0  0  0  0  0  0  0  0  0
    6.1119  -19.1302   23.7076 C   0  0  0  0  0  0  0  0  0  0  0  0
    8.2719  -18.2174   24.5936 C   0  0  2  0  0  0  0  0  0  0  0  0
    7.4916  -17.2276   25.3698 N   0  0  0  0  0  0  0  0  0  0  0  0
    8.6705  -17.6028   23.2969 C   0  0  0  0  0  0  0  0  0  0  0  0
    7.7494  -17.0336   22.6277 O   0  0  0  0  0  0  0  0  0  0  0  0
    8.1917  -14.0266   17.0599 N   0  0  0  0  0  0  0  0  0  0  0  0
    8.0169  -13.4505   18.3454 C   0  0  0  0  0  0  0  0  0  0  0  0
    7.0170  -12.6832   18.6587 N   0  0  0  0  0  0  0  0  0  0  0  0
    8.9761  -13.7149   19.3551 N   0  0  0  0  0  0  0  0  0  0  0  0
    9.9919  -14.7237   19.2435 C   0  0  0  0  0  0  0  0  0  0  0  0
   10.8625  -14.6810   20.4946 C   0  0  0  0  0  0  0  0  0  0  0  0
   10.2793  -15.4623   21.6320 C   0  0  0  0  0  0  0  0  0  0  0  0
   10.4266  -16.9329   21.5677 C   0  0  2  0  0  0  0  0  0  0  0  0
    9.9741  -17.6051   22.7697 N   0  0  0  0  0  0  0  0  0  0  0  0
   11.7376  -17.4298   21.0748 C   0  0  0  0  0  0  0  0  0  0  0  0
   12.0982  -17.4241   19.7247 O   0  0  0  0  0  0  0  0  0  0  0  0
   12.6127  -17.8911   21.8481 O   0  0  0  0  0  0  0  0  0  0  0  0
  2  1  1  0
  3  2  1  0
  4  5  1  0
  4  3  1  0
  5  6  1  1
  7 13  1  0
  7  5  1  0
  8  7  2  0
 10  9  1  1
 10 12  1  0
 11 10  1  0
 12 13  1  1
 14 15  2  0
 14 12  1  0
 16 17  1  0
 17 19  1  0
 18 17  2  0
 19 20  1  0
 20 21  1  0
 21 22  1  0
 23 22  1  1
 23 24  1  0
 24 14  1  0
 25 23  1  0
 26 25  1  0
 27 25  2  0
M  END
$$$$
