MVR.pdb
     RDKit          3D

 27 26  0  0  1  0  0  0  0  0999 V2000
    7.1526  -11.0028   26.4991 C   0  0  0  0  0  0  0  0  0  0  0  0
    5.5352  -11.7577   26.8059 S   0  0  0  0  0  0  0  0  0  0  0  0
    5.5453  -13.5246   26.2909 C   0  0  0  0  0  0  0  0  0  0  0  0
    6.9309  -13.8092   25.8245 C   0  0  0  0  0  0  0  0  0  0  0  0
    7.0593  -14.9454   24.8384 C   0  0  2  0  0  0  0  0  0  0  0  0
    6.4362  -16.0993   25.5424 N   0  0  0  0  0  0  0  0  0  0  0  0
    8.4601  -15.2889   24.5615 C   0  0  0  0  0  0  0  0  0  0  0  0
    9.2443  -14.5036   23.9270 O   0  0  0  0  0  0  0  0  0  0  0  0
   12.1802  -18.4813   25.0536 C   0  0  0  0  0  0  0  0  0  0  0  0
   10.8388  -18.0047   25.5144 C   0  0  1  0  0  0  0  0  0  0  0  0
   10.9463  -17.5265   26.9313 C   0  0  0  0  0  0  0  0  0  0  0  0
   10.3635  -16.9076   24.5732 C   0  0  2  0  0  0  0  0  0  0  0  0
    9.0015  -16.5060   24.9909 N   0  0  0  0  0  0  0  0  0  0  0  0
   10.3145  -17.3669   23.1572 C   0  0  0  0  0  0  0  0  0  0  0  0
    9.6001  -18.3918   22.9138 O   0  0  0  0  0  0  0  0  0  0  0  0
    9.1153  -11.7808   19.8735 N   0  0  0  0  0  0  0  0  0  0  0  0
    8.5223  -13.0705   19.8807 C   0  0  0  0  0  0  0  0  0  0  0  0
    7.6131  -13.4382   20.7320 N   0  0  0  0  0  0  0  0  0  0  0  0
    8.9326  -14.0229   18.9142 N   0  0  0  0  0  0  0  0  0  0  0  0
    8.4047  -15.3561   18.8364 C   0  0  0  0  0  0  0  0  0  0  0  0
    9.0247  -16.1928   19.9504 C   0  0  0  0  0  0  0  0  0  0  0  0
   10.4728  -16.4926   19.7111 C   0  0  0  0  0  0  0  0  0  0  0  0
   11.1633  -17.2881   20.7497 C   0  0  2  0  0  0  0  0  0  0  0  0
   10.9901  -16.7549   22.0865 N   0  0  0  0  0  0  0  0  0  0  0  0
   12.5677  -17.6670   20.4457 C   0  0  0  0  0  0  0  0  0  0  0  0
   13.6318  -17.4188   21.3170 O   0  0  0  0  0  0  0  0  0  0  0  0
   12.8904  -18.2395   19.3758 O   0  0  0  0  0  0  0  0  0  0  0  0
  2  1  1  0
  3  2  1  0
  4  5  1  0
  4  3  1  0
  5  6  1  1
  7 13  1  0
  7  5  1  0
  8  7  2  0
 10  9  1  6
 10 12  1  0
 11 10  1  0
 12 13  1  1
 14 15  2  0
 14 12  1  0
 16 17  1  0
 17 19  1  0
 18 17  2  0
 19 20  1  0
 20 21  1  0
 21 22  1  0
 23 22  1  6
 23 24  1  0
 24 14  1  0
 25 23  1  0
 26 25  1  0
 27 25  2  0
M  END
$$$$
