MVR.pdb
     RDKit          3D

 27 26  0  0  1  0  0  0  0  0999 V2000
    7.1386  -11.4690   26.5683 C   0  0  0  0  0  0  0  0  0  0  0  0
    5.6763  -12.4871   26.8928 S   0  0  0  0  0  0  0  0  0  0  0  0
    6.1731  -14.2173   27.2762 C   0  0  0  0  0  0  0  0  0  0  0  0
    7.0943  -14.6329   26.1820 C   0  0  0  0  0  0  0  0  0  0  0  0
    6.5256  -15.6336   25.2048 C   0  0  2  0  0  0  0  0  0  0  0  0
    6.4366  -16.8915   25.9954 N   0  0  0  0  0  0  0  0  0  0  0  0
    7.4239  -15.8773   24.0688 C   0  0  0  0  0  0  0  0  0  0  0  0
    8.1870  -16.9012   24.0078 O   0  0  0  0  0  0  0  0  0  0  0  0
    8.9313  -14.5244   19.5714 C   0  0  0  0  0  0  0  0  0  0  0  0
    8.0801  -14.2244   20.7648 C   0  0  1  0  0  0  0  0  0  0  0  0
    6.6377  -14.2339   20.3556 C   0  0  0  0  0  0  0  0  0  0  0  0
    8.3768  -15.2547   21.8445 C   0  0  2  0  0  0  0  0  0  0  0  0
    7.4785  -14.9873   22.9901 N   0  0  0  0  0  0  0  0  0  0  0  0
    9.7881  -15.1821   22.3150 C   0  0  0  0  0  0  0  0  0  0  0  0
   10.0226  -14.4106   23.2999 O   0  0  0  0  0  0  0  0  0  0  0  0
    9.5527  -16.7791   28.4518 N   0  0  0  0  0  0  0  0  0  0  0  0
   10.4842  -15.7238   28.2685 C   0  0  0  0  0  0  0  0  0  0  0  0
   10.4263  -14.5953   28.9086 N   0  0  0  0  0  0  0  0  0  0  0  0
   11.5419  -15.8920   27.3397 N   0  0  0  0  0  0  0  0  0  0  0  0
   11.5131  -16.8433   26.2644 C   0  0  0  0  0  0  0  0  0  0  0  0
   11.6843  -16.0960   24.9463 C   0  0  0  0  0  0  0  0  0  0  0  0
   11.7116  -17.0121   23.7613 C   0  0  0  0  0  0  0  0  0  0  0  0
   12.0316  -16.3944   22.4557 C   0  0  2  0  0  0  0  0  0  0  0  0
   10.8625  -15.8976   21.7573 N   0  0  0  0  0  0  0  0  0  0  0  0
   12.9523  -17.1686   21.5832 C   0  0  0  0  0  0  0  0  0  0  0  0
   14.3286  -16.9332   21.5254 O   0  0  0  0  0  0  0  0  0  0  0  0
   12.5477  -18.0922   20.8351 O   0  0  0  0  0  0  0  0  0  0  0  0
  2  1  1  0
  3  2  1  0
  4  5  1  0
  4  3  1  0
  5  6  1  1
  7 13  1  0
  7  5  1  0
  8  7  2  0
 10  9  1  6
 10 12  1  0
 11 10  1  0
 12 13  1  1
 14 15  2  0
 14 12  1  0
 16 17  1  0
 17 19  1  0
 18 17  2  0
 19 20  1  0
 20 21  1  0
 21 22  1  0
 23 22  1  1
 23 24  1  0
 24 14  1  0
 25 23  1  0
 26 25  1  0
 27 25  2  0
M  END
$$$$
