PAF.pdb
     RDKit          3D

 24 25  0  0  1  0  0  0  0  0999 V2000
    8.8620  -15.0199   18.5326 N   0  0  0  0  0  0  0  0  0  0  0  0
    8.0313  -14.6435   17.4236 C   0  0  0  0  0  0  0  0  0  0  0  0
    7.8791  -13.1244   17.5722 C   0  0  0  0  0  0  0  0  0  0  0  0
    7.7245  -13.0047   19.0744 C   0  0  0  0  0  0  0  0  0  0  0  0
    8.7312  -14.0340   19.5574 C   0  0  1  0  0  0  0  0  0  0  0  0
    8.3392  -14.6528   20.8237 C   0  0  0  0  0  0  0  0  0  0  0  0
    8.1181  -13.9886   21.8852 O   0  0  0  0  0  0  0  0  0  0  0  0
    7.7587  -18.2437   21.8059 C   0  0  0  0  0  0  0  0  0  0  0  0
    7.8929  -16.7687   22.1119 C   0  0  2  0  0  0  0  0  0  0  0  0
    8.1919  -16.0618   20.8961 N   0  0  0  0  0  0  0  0  0  0  0  0
    8.9212  -16.5090   23.1620 C   0  0  0  0  0  0  0  0  0  0  0  0
   10.1284  -16.4430   22.8209 O   0  0  0  0  0  0  0  0  0  0  0  0
    8.5791  -16.3352   24.5283 N   0  0  0  0  0  0  0  0  0  0  0  0
    9.4784  -15.8969   25.5612 C   0  0  1  0  0  0  0  0  0  0  0  0
    9.7574  -14.4032   25.5594 C   0  0  0  0  0  0  0  0  0  0  0  0
    8.5554  -13.6069   25.9764 C   0  0  0  0  0  0  0  0  0  0  0  0
    8.3394  -13.1491   27.2506 C   0  0  0  0  0  0  0  0  0  0  0  0
    7.1702  -12.4272   27.5177 C   0  0  0  0  0  0  0  0  0  0  0  0
    6.2241  -12.1550   26.5539 C   0  0  0  0  0  0  0  0  0  0  0  0
    6.4479  -12.6176   25.2760 C   0  0  0  0  0  0  0  0  0  0  0  0
    7.5892  -13.3259   25.0025 C   0  0  0  0  0  0  0  0  0  0  0  0
    9.1835  -16.4335   26.8994 C   0  0  0  0  0  0  0  0  0  0  0  0
    9.9545  -16.2645   27.8743 O   0  0  0  0  0  0  0  0  0  0  0  0
    8.0205  -17.1561   27.1236 O   0  0  0  0  0  0  0  0  0  0  0  0
  1  5  1  0
  2  1  1  0
  2  3  1  0
  3  4  1  0
  5  4  1  0
  5  6  1  1
  6  7  2  0
  9  8  1  6
 10  9  1  0
 10  6  1  0
 11 12  2  0
 11  9  1  0
 13 11  1  0
 14 13  1  0
 14 22  1  0
 14 15  1  1
 16 21  1  0
 16 15  1  0
 17 16  2  0
 18 19  2  0
 18 17  1  0
 19 20  1  0
 20 21  2  0
 22 24  1  0
 23 22  2  0
M  END
$$$$
