PAF.pdb
     RDKit          3D

 24 25  0  0  1  0  0  0  0  0999 V2000
    9.2885  -14.3779   19.3448 N   0  0  0  0  0  0  0  0  0  0  0  0
    8.7221  -13.9291   18.1041 C   0  0  0  0  0  0  0  0  0  0  0  0
    7.7803  -12.7906   18.5161 C   0  0  0  0  0  0  0  0  0  0  0  0
    7.1829  -13.3668   19.7833 C   0  0  0  0  0  0  0  0  0  0  0  0
    8.3977  -14.0320   20.4060 C   0  0  1  0  0  0  0  0  0  0  0  0
    8.0491  -15.2137   21.1949 C   0  0  0  0  0  0  0  0  0  0  0  0
    7.2080  -16.0859   20.8094 O   0  0  0  0  0  0  0  0  0  0  0  0
   10.1970  -17.1641   21.8333 C   0  0  0  0  0  0  0  0  0  0  0  0
    9.2152  -16.6792   22.8765 C   0  0  2  0  0  0  0  0  0  0  0  0
    8.6666  -15.4187   22.4555 N   0  0  0  0  0  0  0  0  0  0  0  0
    9.8424  -16.5784   24.2272 C   0  0  0  0  0  0  0  0  0  0  0  0
   10.7851  -17.3573   24.5142 O   0  0  0  0  0  0  0  0  0  0  0  0
    9.4085  -15.6337   25.1932 N   0  0  0  0  0  0  0  0  0  0  0  0
    9.1012  -15.9303   26.5663 C   0  0  1  0  0  0  0  0  0  0  0  0
    7.6863  -15.5683   26.9860 C   0  0  0  0  0  0  0  0  0  0  0  0
    7.3309  -14.1603   26.6064 C   0  0  0  0  0  0  0  0  0  0  0  0
    6.0628  -13.7444   26.2923 C   0  0  0  0  0  0  0  0  0  0  0  0
    5.8612  -12.4046   25.9404 C   0  0  0  0  0  0  0  0  0  0  0  0
    6.8837  -11.4822   25.8961 C   0  0  0  0  0  0  0  0  0  0  0  0
    8.1548  -11.9070   26.2134 C   0  0  0  0  0  0  0  0  0  0  0  0
    8.3646  -13.2167   26.5592 C   0  0  0  0  0  0  0  0  0  0  0  0
    9.5173  -17.2694   27.0124 C   0  0  0  0  0  0  0  0  0  0  0  0
    9.0623  -18.3190   26.4979 O   0  0  0  0  0  0  0  0  0  0  0  0
   10.4437  -17.4103   28.0357 O   0  0  0  0  0  0  0  0  0  0  0  0
  1  5  1  0
  2  1  1  0
  2  3  1  0
  3  4  1  0
  5  4  1  0
  5  6  1  6
  6  7  2  0
  9  8  1  6
 10  9  1  0
 10  6  1  0
 11 12  2  0
 11  9  1  0
 13 11  1  0
 14 13  1  0
 14 22  1  0
 14 15  1  6
 16 21  1  0
 16 15  1  0
 17 16  2  0
 18 19  2  0
 18 17  1  0
 19 20  1  0
 20 21  2  0
 22 24  1  0
 23 22  2  0
M  END
$$$$
