PAF.pdb
     RDKit          3D

 24 25  0  0  1  0  0  0  0  0999 V2000
    6.9404  -18.5017   20.4742 N   0  0  0  0  0  0  0  0  0  0  0  0
    6.1728  -18.8556   19.3135 C   0  0  0  0  0  0  0  0  0  0  0  0
    7.2105  -19.4372   18.3451 C   0  0  0  0  0  0  0  0  0  0  0  0
    8.3698  -18.4896   18.5755 C   0  0  0  0  0  0  0  0  0  0  0  0
    8.2973  -18.2954   20.0799 C   0  0  1  0  0  0  0  0  0  0  0  0
    8.7626  -16.9733   20.4992 C   0  0  0  0  0  0  0  0  0  0  0  0
    9.9796  -16.6104   20.4367 O   0  0  0  0  0  0  0  0  0  0  0  0
    6.9815  -13.8251   21.4358 C   0  0  0  0  0  0  0  0  0  0  0  0
    8.1950  -14.7265   21.4816 C   0  0  2  0  0  0  0  0  0  0  0  0
    7.8288  -16.0322   21.0039 N   0  0  0  0  0  0  0  0  0  0  0  0
    8.7889  -14.7917   22.8494 C   0  0  0  0  0  0  0  0  0  0  0  0
    9.7756  -14.0608   23.1141 O   0  0  0  0  0  0  0  0  0  0  0  0
    8.2756  -15.6503   23.8560 N   0  0  0  0  0  0  0  0  0  0  0  0
    8.7548  -15.7236   25.2098 C   0  0  1  0  0  0  0  0  0  0  0  0
    7.6842  -15.5146   26.2677 C   0  0  0  0  0  0  0  0  0  0  0  0
    7.2525  -14.0797   26.3539 C   0  0  0  0  0  0  0  0  0  0  0  0
    5.9660  -13.6495   26.1552 C   0  0  0  0  0  0  0  0  0  0  0  0
    5.6915  -12.2802   26.2499 C   0  0  0  0  0  0  0  0  0  0  0  0
    6.6597  -11.3425   26.5353 C   0  0  0  0  0  0  0  0  0  0  0  0
    7.9498  -11.7819   26.7342 C   0  0  0  0  0  0  0  0  0  0  0  0
    8.2308  -13.1205   26.6437 C   0  0  0  0  0  0  0  0  0  0  0  0
    9.6336  -16.8707   25.4880 C   0  0  0  0  0  0  0  0  0  0  0  0
    9.8607  -17.7634   24.6365 O   0  0  0  0  0  0  0  0  0  0  0  0
   10.2477  -16.9987   26.7256 O   0  0  0  0  0  0  0  0  0  0  0  0
  1  5  1  0
  2  1  1  0
  2  3  1  0
  3  4  1  0
  5  4  1  0
  5  6  1  6
  6  7  2  0
  9  8  1  1
 10  9  1  0
 10  6  1  0
 11 12  2  0
 11  9  1  0
 13 11  1  0
 14 13  1  0
 14 22  1  0
 14 15  1  1
 16 21  1  0
 16 15  1  0
 17 16  2  0
 18 19  2  0
 18 17  1  0
 19 20  1  0
 20 21  2  0
 22 24  1  0
 23 22  2  0
M  END
$$$$
