PAF.pdb
     RDKit          3D

 24 25  0  0  1  0  0  0  0  0999 V2000
    6.4446  -18.6399   21.2772 N   0  0  0  0  0  0  0  0  0  0  0  0
    5.2941  -18.8989   20.4581 C   0  0  0  0  0  0  0  0  0  0  0  0
    5.8844  -19.4329   19.1469 C   0  0  0  0  0  0  0  0  0  0  0  0
    7.0877  -18.5256   18.9921 C   0  0  0  0  0  0  0  0  0  0  0  0
    7.5738  -18.4332   20.4278 C   0  0  1  0  0  0  0  0  0  0  0  0
    8.2155  -17.1520   20.7227 C   0  0  0  0  0  0  0  0  0  0  0  0
    9.3955  -16.8610   20.3492 O   0  0  0  0  0  0  0  0  0  0  0  0
    6.8946  -13.9076   21.9947 C   0  0  0  0  0  0  0  0  0  0  0  0
    8.0391  -14.8709   21.7721 C   0  0  2  0  0  0  0  0  0  0  0  0
    7.5064  -16.1695   21.4605 N   0  0  0  0  0  0  0  0  0  0  0  0
    8.9582  -14.9248   22.9469 C   0  0  0  0  0  0  0  0  0  0  0  0
   10.0361  -14.2816   22.8995 O   0  0  0  0  0  0  0  0  0  0  0  0
    8.6533  -15.6770   24.1111 N   0  0  0  0  0  0  0  0  0  0  0  0
    9.5301  -15.8593   25.2362 C   0  0  1  0  0  0  0  0  0  0  0  0
    9.7145  -14.6205   26.0964 C   0  0  0  0  0  0  0  0  0  0  0  0
    8.4680  -13.7865   26.1547 C   0  0  0  0  0  0  0  0  0  0  0  0
    8.4535  -12.4175   26.0829 C   0  0  0  0  0  0  0  0  0  0  0  0
    7.2247  -11.7518   26.1626 C   0  0  0  0  0  0  0  0  0  0  0  0
    6.0252  -12.4134   26.3102 C   0  0  0  0  0  0  0  0  0  0  0  0
    6.0473  -13.7887   26.3812 C   0  0  0  0  0  0  0  0  0  0  0  0
    7.2447  -14.4516   26.3045 C   0  0  0  0  0  0  0  0  0  0  0  0
    9.2784  -17.0803   26.0181 C   0  0  0  0  0  0  0  0  0  0  0  0
    8.2920  -17.8242   25.8009 O   0  0  0  0  0  0  0  0  0  0  0  0
   10.1434  -17.4495   27.0382 O   0  0  0  0  0  0  0  0  0  0  0  0
  1  5  1  0
  2  1  1  0
  2  3  1  0
  3  4  1  0
  5  4  1  0
  5  6  1  6
  6  7  2  0
  9  8  1  1
 10  9  1  0
 10  6  1  0
 11 12  2  0
 11  9  1  0
 13 11  1  0
 14 13  1  0
 14 22  1  0
 14 15  1  1
 16 21  1  0
 16 15  1  0
 17 16  2  0
 18 19  2  0
 18 17  1  0
 19 20  1  0
 20 21  2  0
 22 24  1  0
 23 22  2  0
M  END
$$$$
