TGR.pdb
     RDKit          3D

 23 22  0  0  1  0  0  0  0  0999 V2000
   27.5397  -21.0835  -10.7796 C   0  0  0  0  0  0  0  0  0  0  0  0
   26.0232  -21.0213  -10.8339 C   0  0  1  0  0  0  0  0  0  0  0  0
   25.6475  -19.7128  -10.6108 O   0  0  0  0  0  0  0  0  0  0  0  0
   25.5506  -21.5596  -12.1695 C   0  0  2  0  0  0  0  0  0  0  0  0
   26.1402  -20.8329  -13.2561 N   0  0  0  0  0  0  0  0  0  0  0  0
   24.0862  -21.6621  -12.2643 C   0  0  0  0  0  0  0  0  0  0  0  0
   23.5078  -22.8043  -12.2937 O   0  0  0  0  0  0  0  0  0  0  0  0
   23.2788  -20.4923  -12.3257 N   0  0  0  0  0  0  0  0  0  0  0  0
   21.8403  -20.5408  -12.4201 C   0  0  0  0  0  0  0  0  0  0  0  0
   21.4181  -20.6133  -13.8274 C   0  0  0  0  0  0  0  0  0  0  0  0
   22.2264  -20.2410  -14.7403 O   0  0  0  0  0  0  0  0  0  0  0  0
   23.6087  -23.6811  -14.4213 N   0  0  0  0  0  0  0  0  0  0  0  0
   23.0442  -24.9432  -14.7961 C   0  0  0  0  0  0  0  0  0  0  0  0
   23.5109  -26.0161  -14.2629 N   0  0  0  0  0  0  0  0  0  0  0  0
   21.9875  -25.0385  -15.7350 N   0  0  0  0  0  0  0  0  0  0  0  0
   21.2984  -23.8848  -16.2615 C   0  0  0  0  0  0  0  0  0  0  0  0
   20.0327  -23.7177  -15.4201 C   0  0  0  0  0  0  0  0  0  0  0  0
   19.2371  -22.5642  -15.9612 C   0  0  0  0  0  0  0  0  0  0  0  0
   19.8414  -21.2323  -15.6945 C   0  0  2  0  0  0  0  0  0  0  0  0
   20.1693  -21.0729  -14.2768 N   0  0  0  0  0  0  0  0  0  0  0  0
   18.9352  -20.1482  -16.0650 C   0  0  0  0  0  0  0  0  0  0  0  0
   18.2075  -19.6076  -15.2052 O   0  0  0  0  0  0  0  0  0  0  0  0
   18.8636  -19.6966  -17.3619 O   0  0  0  0  0  0  0  0  0  0  0  0
  2  1  1  6
  2  4  1  0
  3  2  1  0
  4  5  1  6
  6  4  1  0
  6  8  1  0
  7  6  2  0
  9  8  1  0
  9 10  1  0
 10 20  1  0
 10 11  2  0
 13 12  1  0
 13 14  2  0
 15 13  1  0
 16 17  1  0
 16 15  1  0
 18 17  1  0
 19 18  1  1
 20 19  1  0
 21 23  1  0
 21 19  1  0
 22 21  2  0
M  END
$$$$
