TGR.pdb
     RDKit          3D

 23 22  0  0  1  0  0  0  0  0999 V2000
   28.1232  -19.6203  -14.9111 C   0  0  0  0  0  0  0  0  0  0  0  0
   26.6515  -19.3258  -14.6791 C   0  0  1  0  0  0  0  0  0  0  0  0
   26.1065  -18.9307  -15.8832 O   0  0  0  0  0  0  0  0  0  0  0  0
   25.9841  -20.5549  -14.0953 C   0  0  2  0  0  0  0  0  0  0  0  0
   26.0279  -21.6524  -15.0174 N   0  0  0  0  0  0  0  0  0  0  0  0
   24.6350  -20.2859  -13.5742 C   0  0  0  0  0  0  0  0  0  0  0  0
   24.4696  -19.7613  -12.4178 O   0  0  0  0  0  0  0  0  0  0  0  0
   23.4821  -20.6034  -14.3450 N   0  0  0  0  0  0  0  0  0  0  0  0
   22.1408  -20.3219  -13.8955 C   0  0  0  0  0  0  0  0  0  0  0  0
   21.5510  -21.5088  -13.2572 C   0  0  0  0  0  0  0  0  0  0  0  0
   22.1833  -22.6153  -13.2948 O   0  0  0  0  0  0  0  0  0  0  0  0
   16.5444  -25.0167   -7.5044 N   0  0  0  0  0  0  0  0  0  0  0  0
   17.8715  -25.4663   -7.2060 C   0  0  0  0  0  0  0  0  0  0  0  0
   18.0248  -26.5759   -6.5747 N   0  0  0  0  0  0  0  0  0  0  0  0
   19.0148  -24.7225   -7.5888 N   0  0  0  0  0  0  0  0  0  0  0  0
   18.9344  -23.4688   -8.2994 C   0  0  0  0  0  0  0  0  0  0  0  0
   19.1245  -23.7998   -9.7799 C   0  0  0  0  0  0  0  0  0  0  0  0
   19.6097  -22.5710  -10.4951 C   0  0  0  0  0  0  0  0  0  0  0  0
   19.7807  -22.7502  -11.9610 C   0  0  2  0  0  0  0  0  0  0  0  0
   20.3187  -21.5398  -12.5842 N   0  0  0  0  0  0  0  0  0  0  0  0
   18.5118  -23.0597  -12.6152 C   0  0  0  0  0  0  0  0  0  0  0  0
   17.8189  -22.1499  -13.1184 O   0  0  0  0  0  0  0  0  0  0  0  0
   18.0530  -24.3535  -12.6954 O   0  0  0  0  0  0  0  0  0  0  0  0
  2  1  1  6
  2  4  1  0
  3  2  1  0
  4  5  1  6
  6  4  1  0
  6  8  1  0
  7  6  2  0
  9  8  1  0
  9 10  1  0
 10 20  1  0
 10 11  2  0
 13 12  1  0
 13 14  2  0
 15 13  1  0
 16 17  1  0
 16 15  1  0
 18 17  1  0
 19 18  1  1
 20 19  1  0
 21 23  1  0
 21 19  1  0
 22 21  2  0
M  END
$$$$
