TGR.pdb
     RDKit          3D

 23 22  0  0  1  0  0  0  0  0999 V2000
   27.9886  -17.9131  -17.7659 C   0  0  0  0  0  0  0  0  0  0  0  0
   27.9202  -18.3109  -16.3018 C   0  0  1  0  0  0  0  0  0  0  0  0
   26.9032  -17.5859  -15.7159 O   0  0  0  0  0  0  0  0  0  0  0  0
   27.7200  -19.8099  -16.2023 C   0  0  2  0  0  0  0  0  0  0  0  0
   26.4947  -20.2093  -16.8315 N   0  0  0  0  0  0  0  0  0  0  0  0
   27.8635  -20.3210  -14.8304 C   0  0  0  0  0  0  0  0  0  0  0  0
   29.0031  -20.7003  -14.3862 O   0  0  0  0  0  0  0  0  0  0  0  0
   26.7371  -20.4055  -13.9653 N   0  0  0  0  0  0  0  0  0  0  0  0
   26.8366  -20.8442  -12.5949 C   0  0  0  0  0  0  0  0  0  0  0  0
   25.5264  -20.7628  -11.9310 C   0  0  0  0  0  0  0  0  0  0  0  0
   24.9074  -19.6485  -11.9089 O   0  0  0  0  0  0  0  0  0  0  0  0
   19.9565  -23.4403   -6.4594 N   0  0  0  0  0  0  0  0  0  0  0  0
   19.3009  -22.5978   -7.4146 C   0  0  0  0  0  0  0  0  0  0  0  0
   18.0291  -22.7062   -7.5697 N   0  0  0  0  0  0  0  0  0  0  0  0
   20.0157  -21.6508   -8.1887 N   0  0  0  0  0  0  0  0  0  0  0  0
   21.1381  -22.0059   -9.0239 C   0  0  0  0  0  0  0  0  0  0  0  0
   21.6644  -20.6986   -9.6170 C   0  0  0  0  0  0  0  0  0  0  0  0
   23.1306  -20.8507   -9.9061 C   0  0  0  0  0  0  0  0  0  0  0  0
   23.4374  -21.8172  -10.9933 C   0  0  2  0  0  0  0  0  0  0  0  0
   24.8683  -21.8321  -11.3017 N   0  0  0  0  0  0  0  0  0  0  0  0
   22.7219  -21.4861  -12.2230 C   0  0  0  0  0  0  0  0  0  0  0  0
   22.8735  -20.3704  -12.7646 O   0  0  0  0  0  0  0  0  0  0  0  0
   21.8709  -22.3908  -12.8132 O   0  0  0  0  0  0  0  0  0  0  0  0
  2  1  1  6
  2  4  1  0
  3  2  1  0
  4  5  1  1
  6  4  1  0
  6  8  1  0
  7  6  2  0
  9  8  1  0
  9 10  1  0
 10 20  1  0
 10 11  2  0
 13 12  1  0
 13 14  2  0
 15 13  1  0
 16 17  1  0
 16 15  1  0
 18 17  1  0
 19 18  1  1
 20 19  1  0
 21 23  1  0
 21 19  1  0
 22 21  2  0
M  END
$$$$
