TGR.pdb
     RDKit          3D

 23 22  0  0  1  0  0  0  0  0999 V2000
   27.3189  -18.0501  -14.0715 C   0  0  0  0  0  0  0  0  0  0  0  0
   27.5254  -19.0643  -15.1829 C   0  0  1  0  0  0  0  0  0  0  0  0
   28.5191  -18.5846  -16.0109 O   0  0  0  0  0  0  0  0  0  0  0  0
   27.8546  -20.4117  -14.5721 C   0  0  2  0  0  0  0  0  0  0  0  0
   28.3679  -21.3145  -15.5611 N   0  0  0  0  0  0  0  0  0  0  0  0
   26.7451  -20.9762  -13.7885 C   0  0  0  0  0  0  0  0  0  0  0  0
   25.7813  -21.5929  -14.3636 O   0  0  0  0  0  0  0  0  0  0  0  0
   26.7183  -20.8491  -12.3717 N   0  0  0  0  0  0  0  0  0  0  0  0
   25.6485  -21.3768  -11.5608 C   0  0  0  0  0  0  0  0  0  0  0  0
   24.3848  -20.6861  -11.8612 C   0  0  0  0  0  0  0  0  0  0  0  0
   24.3947  -19.4263  -12.0569 O   0  0  0  0  0  0  0  0  0  0  0  0
   21.3871  -18.3601  -18.9058 N   0  0  0  0  0  0  0  0  0  0  0  0
   20.6281  -17.7264  -17.8693 C   0  0  0  0  0  0  0  0  0  0  0  0
   19.8903  -16.7165  -18.1678 N   0  0  0  0  0  0  0  0  0  0  0  0
   20.6687  -18.1835  -16.5291 N   0  0  0  0  0  0  0  0  0  0  0  0
   21.4373  -19.3326  -16.1142 C   0  0  0  0  0  0  0  0  0  0  0  0
   21.0736  -19.5890  -14.6514 C   0  0  0  0  0  0  0  0  0  0  0  0
   22.2006  -20.3323  -13.9927 C   0  0  0  0  0  0  0  0  0  0  0  0
   21.9629  -20.6484  -12.5595 C   0  0  2  0  0  0  0  0  0  0  0  0
   23.1270  -21.3032  -11.9605 N   0  0  0  0  0  0  0  0  0  0  0  0
   20.8170  -21.5382  -12.3894 C   0  0  0  0  0  0  0  0  0  0  0  0
   20.9865  -22.7490  -12.1318 O   0  0  0  0  0  0  0  0  0  0  0  0
   19.5304  -21.0667  -12.5050 O   0  0  0  0  0  0  0  0  0  0  0  0
  2  1  1  1
  2  4  1  0
  3  2  1  0
  4  5  1  6
  6  4  1  0
  6  8  1  0
  7  6  2  0
  9  8  1  0
  9 10  1  0
 10 20  1  0
 10 11  2  0
 13 12  1  0
 13 14  2  0
 15 13  1  0
 16 17  1  0
 16 15  1  0
 18 17  1  0
 19 18  1  6
 20 19  1  0
 21 23  1  0
 21 19  1  0
 22 21  2  0
M  END
$$$$
