TGR.pdb
     RDKit          3D

 23 22  0  0  1  0  0  0  0  0999 V2000
   18.5683  -17.6852  -19.3792 C   0  0  0  0  0  0  0  0  0  0  0  0
   19.7141  -18.6231  -19.0417 C   0  0  1  0  0  0  0  0  0  0  0  0
   20.8935  -17.9634  -19.3192 O   0  0  0  0  0  0  0  0  0  0  0  0
   19.5957  -19.0522  -17.5930 C   0  0  2  0  0  0  0  0  0  0  0  0
   19.5903  -17.9163  -16.7175 N   0  0  0  0  0  0  0  0  0  0  0  0
   20.5812  -20.0759  -17.2124 C   0  0  0  0  0  0  0  0  0  0  0  0
   20.6351  -21.1974  -17.8282 O   0  0  0  0  0  0  0  0  0  0  0  0
   21.4978  -19.8420  -16.1497 N   0  0  0  0  0  0  0  0  0  0  0  0
   22.5555  -20.7634  -15.8142 C   0  0  0  0  0  0  0  0  0  0  0  0
   23.8238  -20.0439  -15.6199 C   0  0  0  0  0  0  0  0  0  0  0  0
   23.8569  -18.7814  -15.7945 O   0  0  0  0  0  0  0  0  0  0  0  0
   26.5014  -20.9279   -8.1478 N   0  0  0  0  0  0  0  0  0  0  0  0
   25.2077  -20.9101   -8.7628 C   0  0  0  0  0  0  0  0  0  0  0  0
   24.1705  -21.1300   -8.0355 N   0  0  0  0  0  0  0  0  0  0  0  0
   25.0431  -20.6559  -10.1467 N   0  0  0  0  0  0  0  0  0  0  0  0
   26.1506  -20.5865  -11.0697 C   0  0  0  0  0  0  0  0  0  0  0  0
   25.5484  -20.2920  -12.4439 C   0  0  0  0  0  0  0  0  0  0  0  0
   26.6537  -20.2468  -13.4602 C   0  0  0  0  0  0  0  0  0  0  0  0
   26.2084  -19.8561  -14.8238 C   0  0  2  0  0  0  0  0  0  0  0  0
   25.0417  -20.6340  -15.2439 N   0  0  0  0  0  0  0  0  0  0  0  0
   27.2621  -20.0671  -15.8132 C   0  0  0  0  0  0  0  0  0  0  0  0
   27.2492  -21.0772  -16.5484 O   0  0  0  0  0  0  0  0  0  0  0  0
   28.2869  -19.1622  -15.9608 O   0  0  0  0  0  0  0  0  0  0  0  0
  2  1  1  1
  2  4  1  0
  3  2  1  0
  4  5  1  1
  6  4  1  0
  6  8  1  0
  7  6  2  0
  9  8  1  0
  9 10  1  0
 10 20  1  0
 10 11  2  0
 13 12  1  0
 13 14  2  0
 15 13  1  0
 16 17  1  0
 16 15  1  0
 18 17  1  0
 19 18  1  1
 20 19  1  0
 21 23  1  0
 21 19  1  0
 22 21  2  0
M  END
$$$$
