TGR.pdb
     RDKit          3D

 23 22  0  0  1  0  0  0  0  0999 V2000
   29.3972  -17.9150  -18.9649 C   0  0  0  0  0  0  0  0  0  0  0  0
   27.9420  -17.5014  -18.8318 C   0  0  1  0  0  0  0  0  0  0  0  0
   27.4931  -17.1326  -20.0831 O   0  0  0  0  0  0  0  0  0  0  0  0
   27.1529  -18.6452  -18.2267 C   0  0  2  0  0  0  0  0  0  0  0  0
   27.1669  -19.7929  -19.0865 N   0  0  0  0  0  0  0  0  0  0  0  0
   25.8003  -18.2519  -17.8027 C   0  0  0  0  0  0  0  0  0  0  0  0
   25.6261  -17.3147  -16.9475 O   0  0  0  0  0  0  0  0  0  0  0  0
   24.6538  -18.9055  -18.3343 N   0  0  0  0  0  0  0  0  0  0  0  0
   23.3116  -18.6011  -17.9027 C   0  0  0  0  0  0  0  0  0  0  0  0
   22.7905  -19.6751  -17.0429 C   0  0  0  0  0  0  0  0  0  0  0  0
   23.4626  -20.7507  -16.9132 O   0  0  0  0  0  0  0  0  0  0  0  0
   25.9527  -21.1546  -10.6080 N   0  0  0  0  0  0  0  0  0  0  0  0
   24.6438  -20.9875  -10.0504 C   0  0  0  0  0  0  0  0  0  0  0  0
   24.4344  -21.3524   -8.8354 N   0  0  0  0  0  0  0  0  0  0  0  0
   23.5787  -20.4311  -10.8007 N   0  0  0  0  0  0  0  0  0  0  0  0
   23.6530  -20.2102  -12.2251 C   0  0  0  0  0  0  0  0  0  0  0  0
   22.3710  -19.4736  -12.6144 C   0  0  0  0  0  0  0  0  0  0  0  0
   22.4163  -19.1602  -14.0828 C   0  0  0  0  0  0  0  0  0  0  0  0
   21.4869  -19.9776  -14.9065 C   0  0  2  0  0  0  0  0  0  0  0  0
   21.5850  -19.6255  -16.3240 N   0  0  0  0  0  0  0  0  0  0  0  0
   20.0979  -19.7866  -14.4969 C   0  0  0  0  0  0  0  0  0  0  0  0
   19.4294  -18.8314  -14.9460 O   0  0  0  0  0  0  0  0  0  0  0  0
   19.4943  -20.6510  -13.6139 O   0  0  0  0  0  0  0  0  0  0  0  0
  2  1  1  6
  2  4  1  0
  3  2  1  0
  4  5  1  6
  6  4  1  0
  6  8  1  0
  7  6  2  0
  9  8  1  0
  9 10  1  0
 10 20  1  0
 10 11  2  0
 13 12  1  0
 13 14  2  0
 15 13  1  0
 16 17  1  0
 16 15  1  0
 18 17  1  0
 19 18  1  1
 20 19  1  0
 21 23  1  0
 21 19  1  0
 22 21  2  0
M  END
$$$$
