TGR.pdb
     RDKit          3D

 23 22  0  0  1  0  0  0  0  0999 V2000
   22.9057  -20.9773  -19.4443 C   0  0  0  0  0  0  0  0  0  0  0  0
   23.0923  -21.4550  -18.0148 C   0  0  1  0  0  0  0  0  0  0  0  0
   22.2148  -22.4980  -17.8018 O   0  0  0  0  0  0  0  0  0  0  0  0
   24.5426  -21.8414  -17.8046 C   0  0  2  0  0  0  0  0  0  0  0  0
   24.9709  -22.7921  -18.7892 N   0  0  0  0  0  0  0  0  0  0  0  0
   24.8334  -22.2611  -16.4250 C   0  0  0  0  0  0  0  0  0  0  0  0
   24.5216  -21.5154  -15.4317 O   0  0  0  0  0  0  0  0  0  0  0  0
   25.4689  -23.5069  -16.1636 N   0  0  0  0  0  0  0  0  0  0  0  0
   25.7338  -23.9829  -14.8280 C   0  0  0  0  0  0  0  0  0  0  0  0
   24.6175  -24.8098  -14.3444 C   0  0  0  0  0  0  0  0  0  0  0  0
   24.7318  -25.4215  -13.2316 O   0  0  0  0  0  0  0  0  0  0  0  0
   19.9134  -28.0057   -9.7345 N   0  0  0  0  0  0  0  0  0  0  0  0
   19.0488  -28.2679  -10.8462 C   0  0  0  0  0  0  0  0  0  0  0  0
   18.1457  -29.1757  -10.7308 N   0  0  0  0  0  0  0  0  0  0  0  0
   19.1626  -27.5537  -12.0644 N   0  0  0  0  0  0  0  0  0  0  0  0
   20.2147  -26.5992  -12.3199 C   0  0  0  0  0  0  0  0  0  0  0  0
   19.9912  -26.0817  -13.7412 C   0  0  0  0  0  0  0  0  0  0  0  0
   21.1375  -25.1878  -14.1196 C   0  0  0  0  0  0  0  0  0  0  0  0
   22.3617  -25.9175  -14.5431 C   0  0  2  0  0  0  0  0  0  0  0  0
   23.3952  -24.9927  -15.0116 N   0  0  0  0  0  0  0  0  0  0  0  0
   22.0795  -26.8541  -15.6280 C   0  0  0  0  0  0  0  0  0  0  0  0
   21.5675  -27.9681  -15.3874 O   0  0  0  0  0  0  0  0  0  0  0  0
   22.3660  -26.5328  -16.9340 O   0  0  0  0  0  0  0  0  0  0  0  0
  2  1  1  6
  2  4  1  0
  3  2  1  0
  4  5  1  6
  6  4  1  0
  6  8  1  0
  7  6  2  0
  9  8  1  0
  9 10  1  0
 10 20  1  0
 10 11  2  0
 13 12  1  0
 13 14  2  0
 15 13  1  0
 16 17  1  0
 16 15  1  0
 18 17  1  0
 19 18  1  6
 20 19  1  0
 21 23  1  0
 21 19  1  0
 22 21  2  0
M  END
$$$$
