TGR.pdb
     RDKit          3D

 23 22  0  0  1  0  0  0  0  0999 V2000
   29.0535  -18.0016  -21.0982 C   0  0  0  0  0  0  0  0  0  0  0  0
   28.8770  -17.3983  -19.7157 C   0  0  1  0  0  0  0  0  0  0  0  0
   28.2461  -16.1807  -19.8654 O   0  0  0  0  0  0  0  0  0  0  0  0
   28.1050  -18.3686  -18.8443 C   0  0  2  0  0  0  0  0  0  0  0  0
   26.8113  -18.6429  -19.3991 N   0  0  0  0  0  0  0  0  0  0  0  0
   28.0582  -17.9628  -17.4310 C   0  0  0  0  0  0  0  0  0  0  0  0
   29.1345  -17.8238  -16.7512 O   0  0  0  0  0  0  0  0  0  0  0  0
   26.8137  -17.7155  -16.7873 N   0  0  0  0  0  0  0  0  0  0  0  0
   26.7146  -17.3400  -15.3982 C   0  0  0  0  0  0  0  0  0  0  0  0
   26.6517  -18.5360  -14.5440 C   0  0  0  0  0  0  0  0  0  0  0  0
   26.8463  -19.6837  -15.0638 O   0  0  0  0  0  0  0  0  0  0  0  0
   22.6123  -20.6886   -7.9619 N   0  0  0  0  0  0  0  0  0  0  0  0
   23.6947  -21.5384   -7.5639 C   0  0  0  0  0  0  0  0  0  0  0  0
   23.4350  -22.6003   -6.8870 N   0  0  0  0  0  0  0  0  0  0  0  0
   25.0388  -21.2399   -7.8972 N   0  0  0  0  0  0  0  0  0  0  0  0
   25.4177  -20.0812   -8.6699 C   0  0  0  0  0  0  0  0  0  0  0  0
   25.7344  -20.5868  -10.0777 C   0  0  0  0  0  0  0  0  0  0  0  0
   26.2302  -19.4371  -10.9078 C   0  0  0  0  0  0  0  0  0  0  0  0
   26.3803  -19.7527  -12.3529 C   0  0  2  0  0  0  0  0  0  0  0  0
   26.3932  -18.5339  -13.1634 N   0  0  0  0  0  0  0  0  0  0  0  0
   25.2877  -20.5943  -12.8344 C   0  0  0  0  0  0  0  0  0  0  0  0
   24.2070  -20.0842  -13.1989 O   0  0  0  0  0  0  0  0  0  0  0  0
   25.4225  -21.9612  -12.9008 O   0  0  0  0  0  0  0  0  0  0  0  0
  2  1  1  6
  2  4  1  0
  3  2  1  0
  4  5  1  6
  6  4  1  0
  6  8  1  0
  7  6  2  0
  9  8  1  0
  9 10  1  0
 10 20  1  0
 10 11  2  0
 13 12  1  0
 13 14  2  0
 15 13  1  0
 16 17  1  0
 16 15  1  0
 18 17  1  0
 19 18  1  1
 20 19  1  0
 21 23  1  0
 21 19  1  0
 22 21  2  0
M  END
$$$$
