TGR.pdb
     RDKit          3D

 23 22  0  0  1  0  0  0  0  0999 V2000
   15.5053  -20.1311  -15.5035 C   0  0  0  0  0  0  0  0  0  0  0  0
   16.1486  -20.1133  -14.1278 C   0  0  1  0  0  0  0  0  0  0  0  0
   15.3933  -20.9176  -13.2997 O   0  0  0  0  0  0  0  0  0  0  0  0
   17.5905  -20.5643  -14.2468 C   0  0  2  0  0  0  0  0  0  0  0  0
   18.1749  -20.7699  -12.9534 N   0  0  0  0  0  0  0  0  0  0  0  0
   18.3965  -19.6955  -15.1183 C   0  0  0  0  0  0  0  0  0  0  0  0
   18.3737  -19.8379  -16.3908 O   0  0  0  0  0  0  0  0  0  0  0  0
   19.2207  -18.6760  -14.5655 N   0  0  0  0  0  0  0  0  0  0  0  0
   20.0167  -17.7894  -15.3785 C   0  0  0  0  0  0  0  0  0  0  0  0
   21.4422  -18.1382  -15.2779 C   0  0  0  0  0  0  0  0  0  0  0  0
   21.7835  -19.1858  -14.6363 O   0  0  0  0  0  0  0  0  0  0  0  0
   25.6386  -21.7842  -11.9715 N   0  0  0  0  0  0  0  0  0  0  0  0
   25.7995  -22.2818  -13.3052 C   0  0  0  0  0  0  0  0  0  0  0  0
   25.6241  -23.5362  -13.5262 N   0  0  0  0  0  0  0  0  0  0  0  0
   26.1444  -21.4294  -14.3829 N   0  0  0  0  0  0  0  0  0  0  0  0
   25.9696  -19.9973  -14.3385 C   0  0  0  0  0  0  0  0  0  0  0  0
   24.4640  -19.7499  -14.2408 C   0  0  0  0  0  0  0  0  0  0  0  0
   24.2058  -18.2733  -14.3398 C   0  0  0  0  0  0  0  0  0  0  0  0
   23.9018  -17.8017  -15.7165 C   0  0  2  0  0  0  0  0  0  0  0  0
   22.4984  -17.4053  -15.8436 N   0  0  0  0  0  0  0  0  0  0  0  0
   24.1609  -18.8415  -16.7092 C   0  0  0  0  0  0  0  0  0  0  0  0
   25.2712  -18.9137  -17.2775 O   0  0  0  0  0  0  0  0  0  0  0  0
   23.1951  -19.7634  -17.0382 O   0  0  0  0  0  0  0  0  0  0  0  0
  2  1  1  6
  2  4  1  0
  3  2  1  0
  4  5  1  1
  6  4  1  0
  6  8  1  0
  7  6  2  0
  9  8  1  0
  9 10  1  0
 10 20  1  0
 10 11  2  0
 13 12  1  0
 13 14  2  0
 15 13  1  0
 16 17  1  0
 16 15  1  0
 18 17  1  0
 19 18  1  1
 20 19  1  0
 21 23  1  0
 21 19  1  0
 22 21  2  0
M  END
$$$$
