EHM.pdb
     RDKit          3D

 28 28  0  0  1  0  0  0  0  0999 V2000
    9.5556  -13.0670   18.5886 N   0  0  0  0  0  0  0  0  0  0  0  0
    8.2976  -13.7258   18.6960 C   0  0  1  0  0  0  0  0  0  0  0  0
    7.8084  -14.3188   17.4284 C   0  0  0  0  0  0  0  0  0  0  0  0
    8.8605  -14.5610   16.3820 C   0  0  0  0  0  0  0  0  0  0  0  0
    8.3032  -15.1746   15.1745 C   0  0  0  0  0  0  0  0  0  0  0  0
    9.0228  -15.4457   14.1876 O   0  0  0  0  0  0  0  0  0  0  0  0
    8.3164  -14.8095   19.7401 C   0  0  0  0  0  0  0  0  0  0  0  0
    7.3024  -15.5330   19.8833 O   0  0  0  0  0  0  0  0  0  0  0  0
    6.9339  -15.4726   15.1045 O   0  0  0  0  0  0  0  0  0  0  0  0
    9.4473  -15.0262   20.5575 N   0  0  0  0  0  0  0  0  0  0  0  0
    9.5290  -16.1404   21.5361 C   0  0  1  0  0  0  0  0  0  0  0  0
   10.6484  -17.0409   21.1611 C   0  0  0  0  0  0  0  0  0  0  0  0
   10.3596  -18.0020   20.0969 C   0  0  0  0  0  0  0  0  0  0  0  0
   10.7279  -17.9168   18.7717 C   0  0  0  0  0  0  0  0  0  0  0  0
   10.2497  -18.9568   18.0905 N   0  0  0  0  0  0  0  0  0  0  0  0
    9.5691  -19.7241   18.9630 C   0  0  0  0  0  0  0  0  0  0  0  0
    9.6365  -19.1464   20.1728 N   0  0  0  0  0  0  0  0  0  0  0  0
    9.5299  -15.5521   22.8694 C   0  0  0  0  0  0  0  0  0  0  0  0
   10.3865  -14.6328   23.1464 O   0  0  0  0  0  0  0  0  0  0  0  0
    6.1800  -11.2016   28.0959 C   0  0  0  0  0  0  0  0  0  0  0  0
    6.0534  -12.3275   26.7241 S   0  0  0  0  0  0  0  0  0  0  0  0
    7.4029  -13.4774   26.5670 C   0  0  0  0  0  0  0  0  0  0  0  0
    7.4957  -14.1981   25.2579 C   0  0  0  0  0  0  0  0  0  0  0  0
    8.6697  -15.1606   25.1962 C   0  0  2  0  0  0  0  0  0  0  0  0
    8.6665  -15.8751   23.9351 N   0  0  0  0  0  0  0  0  0  0  0  0
    8.7639  -16.0345   26.3428 C   0  0  0  0  0  0  0  0  0  0  0  0
    8.7671  -17.4116   26.3527 O   0  0  0  0  0  0  0  0  0  0  0  0
    8.8563  -15.4904   27.4976 O   0  0  0  0  0  0  0  0  0  0  0  0
  2  1  1  6
  2  3  1  0
  2  7  1  0
  3  4  1  0
  5  4  1  0
  5  6  2  0
  7 10  1  0
  8  7  2  0
  9  5  1  0
 10 11  1  0
 11 12  1  6
 12 13  1  0
 13 17  1  0
 14 13  2  0
 14 15  1  0
 15 16  1  0
 17 16  2  0
 18 11  1  0
 18 19  2  0
 20 21  1  0
 21 22  1  0
 22 23  1  0
 24 23  1  1
 24 25  1  0
 25 18  1  0
 26 27  1  0
 26 24  1  0
 28 26  2  0
M  END
$$$$
