EHM.pdb
     RDKit          3D

 28 28  0  0  1  0  0  0  0  0999 V2000
   12.8378  -14.4937   18.0627 N   0  0  0  0  0  0  0  0  0  0  0  0
   12.9492  -14.7773   19.4538 C   0  0  1  0  0  0  0  0  0  0  0  0
   14.1697  -14.2297   20.0930 C   0  0  0  0  0  0  0  0  0  0  0  0
   15.4403  -14.4002   19.3076 C   0  0  0  0  0  0  0  0  0  0  0  0
   16.3360  -15.3847   19.9190 C   0  0  0  0  0  0  0  0  0  0  0  0
   16.9929  -15.1188   20.9500 O   0  0  0  0  0  0  0  0  0  0  0  0
   11.7567  -14.2823   20.2271 C   0  0  0  0  0  0  0  0  0  0  0  0
   11.5400  -13.0487   20.2858 O   0  0  0  0  0  0  0  0  0  0  0  0
   16.4731  -16.6600   19.3500 O   0  0  0  0  0  0  0  0  0  0  0  0
   10.8821  -15.1749   20.8846 N   0  0  0  0  0  0  0  0  0  0  0  0
    9.5742  -14.7501   21.4457 C   0  0  1  0  0  0  0  0  0  0  0  0
    8.4793  -15.3007   20.6075 C   0  0  0  0  0  0  0  0  0  0  0  0
    8.3404  -14.7089   19.2771 C   0  0  0  0  0  0  0  0  0  0  0  0
    9.0757  -13.6730   18.7426 C   0  0  0  0  0  0  0  0  0  0  0  0
    8.6365  -13.3760   17.5206 N   0  0  0  0  0  0  0  0  0  0  0  0
    7.6162  -14.2124   17.2509 C   0  0  0  0  0  0  0  0  0  0  0  0
    7.4391  -15.0156   18.3118 N   0  0  0  0  0  0  0  0  0  0  0  0
    9.5848  -15.0677   22.8679 C   0  0  0  0  0  0  0  0  0  0  0  0
   10.6439  -15.5837   23.3853 O   0  0  0  0  0  0  0  0  0  0  0  0
    6.2961  -10.5189   26.7020 C   0  0  0  0  0  0  0  0  0  0  0  0
    6.2305  -12.2949   26.7868 S   0  0  0  0  0  0  0  0  0  0  0  0
    7.5460  -13.1383   25.9347 C   0  0  0  0  0  0  0  0  0  0  0  0
    7.4956  -14.6342   25.9767 C   0  0  0  0  0  0  0  0  0  0  0  0
    8.6076  -15.2848   25.1712 C   0  0  2  0  0  0  0  0  0  0  0  0
    8.5357  -14.8637   23.7862 N   0  0  0  0  0  0  0  0  0  0  0  0
    8.6716  -16.7199   25.3250 C   0  0  0  0  0  0  0  0  0  0  0  0
    8.5148  -17.6782   24.3485 O   0  0  0  0  0  0  0  0  0  0  0  0
    8.8996  -17.1816   26.4967 O   0  0  0  0  0  0  0  0  0  0  0  0
  2  1  1  6
  2  3  1  0
  2  7  1  0
  3  4  1  0
  5  4  1  0
  5  6  2  0
  7 10  1  0
  8  7  2  0
  9  5  1  0
 10 11  1  0
 11 12  1  6
 12 13  1  0
 13 17  1  0
 14 13  2  0
 14 15  1  0
 15 16  1  0
 17 16  2  0
 18 11  1  0
 18 19  2  0
 20 21  1  0
 21 22  1  0
 22 23  1  0
 24 23  1  1
 24 25  1  0
 25 18  1  0
 26 27  1  0
 26 24  1  0
 28 26  2  0
M  END
$$$$
