EHM.pdb
     RDKit          3D

 28 28  0  0  1  0  0  0  0  0999 V2000
    9.4185  -13.5855   18.3825 N   0  0  0  0  0  0  0  0  0  0  0  0
    9.9774  -14.7249   19.0286 C   0  0  1  0  0  0  0  0  0  0  0  0
   11.4287  -14.6164   19.3110 C   0  0  0  0  0  0  0  0  0  0  0  0
   12.3310  -14.7799   18.1195 C   0  0  0  0  0  0  0  0  0  0  0  0
   13.7460  -14.7778   18.4978 C   0  0  0  0  0  0  0  0  0  0  0  0
   14.2023  -15.5975   19.3255 O   0  0  0  0  0  0  0  0  0  0  0  0
    9.2741  -15.0413   20.3210 C   0  0  0  0  0  0  0  0  0  0  0  0
    8.9033  -14.0970   21.0579 O   0  0  0  0  0  0  0  0  0  0  0  0
   14.6249  -13.8433   17.9293 O   0  0  0  0  0  0  0  0  0  0  0  0
    9.0255  -16.3733   20.7182 N   0  0  0  0  0  0  0  0  0  0  0  0
    8.3660  -16.7181   22.0035 C   0  0  1  0  0  0  0  0  0  0  0  0
    8.0506  -18.1688   22.0188 C   0  0  0  0  0  0  0  0  0  0  0  0
    7.4070  -18.6649   23.2351 C   0  0  0  0  0  0  0  0  0  0  0  0
    6.9737  -17.9235   24.3130 C   0  0  0  0  0  0  0  0  0  0  0  0
    6.4766  -18.7233   25.2551 N   0  0  0  0  0  0  0  0  0  0  0  0
    6.5819  -19.9863   24.8002 C   0  0  0  0  0  0  0  0  0  0  0  0
    7.1435  -19.9490   23.5815 N   0  0  0  0  0  0  0  0  0  0  0  0
    9.1901  -16.1768   23.0767 C   0  0  0  0  0  0  0  0  0  0  0  0
   10.0293  -15.2390   22.8081 O   0  0  0  0  0  0  0  0  0  0  0  0
    5.6415  -11.9007   27.7881 C   0  0  0  0  0  0  0  0  0  0  0  0
    5.9897  -12.9222   26.3735 S   0  0  0  0  0  0  0  0  0  0  0  0
    7.4239  -13.9643   26.5322 C   0  0  0  0  0  0  0  0  0  0  0  0
    7.7290  -14.8366   25.3541 C   0  0  0  0  0  0  0  0  0  0  0  0
    9.0188  -15.6223   25.5201 C   0  0  2  0  0  0  0  0  0  0  0  0
    9.1748  -16.5657   24.4309 N   0  0  0  0  0  0  0  0  0  0  0  0
    9.1637  -16.2307   26.8224 C   0  0  0  0  0  0  0  0  0  0  0  0
    9.1861  -17.5739   27.1254 O   0  0  0  0  0  0  0  0  0  0  0  0
    9.2874  -15.4521   27.8307 O   0  0  0  0  0  0  0  0  0  0  0  0
  2  1  1  1
  2  3  1  0
  2  7  1  0
  3  4  1  0
  5  4  1  0
  5  6  2  0
  7 10  1  0
  8  7  2  0
  9  5  1  0
 10 11  1  0
 11 12  1  1
 12 13  1  0
 13 17  1  0
 14 13  2  0
 14 15  1  0
 15 16  1  0
 17 16  2  0
 18 11  1  0
 18 19  2  0
 20 21  1  0
 21 22  1  0
 22 23  1  0
 24 23  1  1
 24 25  1  0
 25 18  1  0
 26 27  1  0
 26 24  1  0
 28 26  2  0
M  END
$$$$
