EHM.pdb
     RDKit          3D

 28 28  0  0  1  0  0  0  0  0999 V2000
   12.5879  -14.0800   17.8284 N   0  0  0  0  0  0  0  0  0  0  0  0
   12.8065  -15.0826   18.8157 C   0  0  1  0  0  0  0  0  0  0  0  0
   14.2272  -15.2628   19.1993 C   0  0  0  0  0  0  0  0  0  0  0  0
   15.0071  -13.9928   19.3978 C   0  0  0  0  0  0  0  0  0  0  0  0
   16.4212  -14.2544   19.6756 C   0  0  0  0  0  0  0  0  0  0  0  0
   17.1796  -14.7368   18.8054 O   0  0  0  0  0  0  0  0  0  0  0  0
   12.0155  -14.8210   20.0691 C   0  0  0  0  0  0  0  0  0  0  0  0
   12.3840  -13.9031   20.8397 O   0  0  0  0  0  0  0  0  0  0  0  0
   16.9553  -13.9636   20.9401 O   0  0  0  0  0  0  0  0  0  0  0  0
   10.8731  -15.5851   20.3929 N   0  0  0  0  0  0  0  0  0  0  0  0
    9.9770  -15.2479   21.5283 C   0  0  1  0  0  0  0  0  0  0  0  0
    8.5636  -15.3709   21.0904 C   0  0  0  0  0  0  0  0  0  0  0  0
    8.1766  -14.5346   19.9545 C   0  0  0  0  0  0  0  0  0  0  0  0
    8.0004  -14.9315   18.6466 C   0  0  0  0  0  0  0  0  0  0  0  0
    7.6905  -13.8850   17.8830 N   0  0  0  0  0  0  0  0  0  0  0  0
    7.6628  -12.8030   18.6841 C   0  0  0  0  0  0  0  0  0  0  0  0
    7.9564  -13.1970   19.9333 N   0  0  0  0  0  0  0  0  0  0  0  0
   10.4164  -16.0274   22.6785 C   0  0  0  0  0  0  0  0  0  0  0  0
   11.6592  -16.0044   23.0113 O   0  0  0  0  0  0  0  0  0  0  0  0
    9.8734  -13.3332   29.0801 C   0  0  0  0  0  0  0  0  0  0  0  0
   10.0802  -13.7180   27.3554 S   0  0  0  0  0  0  0  0  0  0  0  0
    8.9586  -14.9444   26.7180 C   0  0  0  0  0  0  0  0  0  0  0  0
    9.0587  -15.2182   25.2494 C   0  0  0  0  0  0  0  0  0  0  0  0
    9.5163  -16.6343   24.9431 C   0  0  2  0  0  0  0  0  0  0  0  0
    9.6121  -16.8314   23.5104 N   0  0  0  0  0  0  0  0  0  0  0  0
    8.7333  -17.6525   25.6045 C   0  0  0  0  0  0  0  0  0  0  0  0
    9.0829  -18.3975   26.7087 O   0  0  0  0  0  0  0  0  0  0  0  0
    7.5741  -17.9126   25.1281 O   0  0  0  0  0  0  0  0  0  0  0  0
  2  1  1  6
  2  3  1  0
  2  7  1  0
  3  4  1  0
  5  4  1  0
  5  6  2  0
  7 10  1  0
  8  7  2  0
  9  5  1  0
 10 11  1  0
 11 12  1  6
 12 13  1  0
 13 17  1  0
 14 13  2  0
 14 15  1  0
 15 16  1  0
 17 16  2  0
 18 11  1  0
 18 19  2  0
 20 21  1  0
 21 22  1  0
 22 23  1  0
 24 23  1  6
 24 25  1  0
 25 18  1  0
 26 27  1  0
 26 24  1  0
 28 26  2  0
M  END
$$$$
