EHM.pdb
     RDKit          3D

 28 28  0  0  1  0  0  0  0  0999 V2000
   10.5267  -13.8512   18.3715 N   0  0  0  0  0  0  0  0  0  0  0  0
   10.8675  -15.1037   18.9571 C   0  0  1  0  0  0  0  0  0  0  0  0
   12.2891  -15.2230   19.3604 C   0  0  0  0  0  0  0  0  0  0  0  0
   13.1000  -13.9623   19.2434 C   0  0  0  0  0  0  0  0  0  0  0  0
   14.4933  -14.2368   18.8849 C   0  0  0  0  0  0  0  0  0  0  0  0
   14.9992  -13.7834   17.8342 O   0  0  0  0  0  0  0  0  0  0  0  0
   10.0153  -15.4147   20.1580 C   0  0  0  0  0  0  0  0  0  0  0  0
    9.6269  -14.4721   20.8879 O   0  0  0  0  0  0  0  0  0  0  0  0
   15.2944  -15.0236   19.7263 O   0  0  0  0  0  0  0  0  0  0  0  0
    9.6470  -16.7399   20.4774 N   0  0  0  0  0  0  0  0  0  0  0  0
    8.7314  -17.0705   21.5991 C   0  0  1  0  0  0  0  0  0  0  0  0
    8.1877  -18.4378   21.4012 C   0  0  0  0  0  0  0  0  0  0  0  0
    7.3571  -18.9536   22.4892 C   0  0  0  0  0  0  0  0  0  0  0  0
    7.0894  -18.3450   23.6964 C   0  0  0  0  0  0  0  0  0  0  0  0
    6.3288  -19.1339   24.4538 N   0  0  0  0  0  0  0  0  0  0  0  0
    6.0965  -20.2575   23.7489 C   0  0  0  0  0  0  0  0  0  0  0  0
    6.7177  -20.1468   22.5641 N   0  0  0  0  0  0  0  0  0  0  0  0
    9.4372  -16.7785   22.8402 C   0  0  0  0  0  0  0  0  0  0  0  0
   10.6989  -17.0208   22.9137 O   0  0  0  0  0  0  0  0  0  0  0  0
   10.0870  -12.9670   29.7981 C   0  0  0  0  0  0  0  0  0  0  0  0
    9.1103  -13.3643   28.3650 S   0  0  0  0  0  0  0  0  0  0  0  0
    9.7968  -14.6242   27.3118 C   0  0  0  0  0  0  0  0  0  0  0  0
    9.0508  -14.8886   26.0408 C   0  0  0  0  0  0  0  0  0  0  0  0
    9.6605  -16.0139   25.2220 C   0  0  2  0  0  0  0  0  0  0  0  0
    8.8858  -16.2336   24.0168 N   0  0  0  0  0  0  0  0  0  0  0  0
    9.8881  -17.2237   25.9782 C   0  0  0  0  0  0  0  0  0  0  0  0
   11.0132  -17.5695   26.6931 O   0  0  0  0  0  0  0  0  0  0  0  0
    8.9495  -18.0935   26.0030 O   0  0  0  0  0  0  0  0  0  0  0  0
  2  1  1  1
  2  3  1  0
  2  7  1  0
  3  4  1  0
  5  4  1  0
  5  6  2  0
  7 10  1  0
  8  7  2  0
  9  5  1  0
 10 11  1  0
 11 12  1  1
 12 13  1  0
 13 17  1  0
 14 13  2  0
 14 15  1  0
 15 16  1  0
 17 16  2  0
 18 11  1  0
 18 19  2  0
 20 21  1  0
 21 22  1  0
 22 23  1  0
 24 23  1  1
 24 25  1  0
 25 18  1  0
 26 27  1  0
 26 24  1  0
 28 26  2  0
M  END
$$$$
