EHM.pdb
     RDKit          3D

 28 28  0  0  1  0  0  0  0  0999 V2000
   11.6153  -17.8225   18.8641 N   0  0  0  0  0  0  0  0  0  0  0  0
   10.6473  -18.0240   19.8889 C   0  0  1  0  0  0  0  0  0  0  0  0
   11.0532  -18.9987   20.9296 C   0  0  0  0  0  0  0  0  0  0  0  0
   12.5097  -18.9749   21.3018 C   0  0  0  0  0  0  0  0  0  0  0  0
   12.8102  -19.8922   22.4034 C   0  0  0  0  0  0  0  0  0  0  0  0
   13.7554  -19.6763   23.1941 O   0  0  0  0  0  0  0  0  0  0  0  0
   10.2775  -16.7369   20.5757 C   0  0  0  0  0  0  0  0  0  0  0  0
   11.1432  -15.8367   20.6864 O   0  0  0  0  0  0  0  0  0  0  0  0
   12.0314  -21.0440   22.5921 O   0  0  0  0  0  0  0  0  0  0  0  0
    8.9818  -16.5244   21.0953 N   0  0  0  0  0  0  0  0  0  0  0  0
    8.5310  -15.2080   21.6145 C   0  0  1  0  0  0  0  0  0  0  0  0
    7.3616  -14.7444   20.8259 C   0  0  0  0  0  0  0  0  0  0  0  0
    7.6524  -14.2974   19.4638 C   0  0  0  0  0  0  0  0  0  0  0  0
    7.3274  -14.9372   18.2873 C   0  0  0  0  0  0  0  0  0  0  0  0
    7.7934  -14.2526   17.2440 N   0  0  0  0  0  0  0  0  0  0  0  0
    8.4229  -13.1663   17.7308 C   0  0  0  0  0  0  0  0  0  0  0  0
    8.3368  -13.1952   19.0701 N   0  0  0  0  0  0  0  0  0  0  0  0
    8.3864  -15.3341   23.0592 C   0  0  0  0  0  0  0  0  0  0  0  0
    7.5671  -16.2066   23.5316 O   0  0  0  0  0  0  0  0  0  0  0  0
    6.3509  -11.4335   28.6063 C   0  0  0  0  0  0  0  0  0  0  0  0
    6.8821  -11.6450   26.9214 S   0  0  0  0  0  0  0  0  0  0  0  0
    6.2795  -13.1163   26.1212 C   0  0  0  0  0  0  0  0  0  0  0  0
    7.0398  -13.5563   24.9087 C   0  0  0  0  0  0  0  0  0  0  0  0
    8.4224  -14.0914   25.2413 C   0  0  2  0  0  0  0  0  0  0  0  0
    9.0679  -14.5914   24.0437 N   0  0  0  0  0  0  0  0  0  0  0  0
    8.4299  -15.0426   26.3287 C   0  0  0  0  0  0  0  0  0  0  0  0
    8.6823  -16.3947   26.2617 O   0  0  0  0  0  0  0  0  0  0  0  0
    8.1748  -14.6030   27.5034 O   0  0  0  0  0  0  0  0  0  0  0  0
  2  1  1  6
  2  3  1  0
  2  7  1  0
  3  4  1  0
  5  4  1  0
  5  6  2  0
  7 10  1  0
  8  7  2  0
  9  5  1  0
 10 11  1  0
 11 12  1  6
 12 13  1  0
 13 17  1  0
 14 13  2  0
 14 15  1  0
 15 16  1  0
 17 16  2  0
 18 11  1  0
 18 19  2  0
 20 21  1  0
 21 22  1  0
 22 23  1  0
 24 23  1  6
 24 25  1  0
 25 18  1  0
 26 27  1  0
 26 24  1  0
 28 26  2  0
M  END
$$$$
