VAP.pdb
     RDKit          3D

 20 20  0  0  1  0  0  0  0  0999 V2000
    7.6311  -12.4682   19.1524 C   0  0  0  0  0  0  0  0  0  0  0  0
    8.9037  -13.2179   19.3407 C   0  0  1  0  0  0  0  0  0  0  0  0
    9.7437  -12.4999   20.3771 C   0  0  0  0  0  0  0  0  0  0  0  0
    8.7245  -14.6313   19.8031 C   0  0  2  0  0  0  0  0  0  0  0  0
    8.1084  -15.4029   18.7448 N   0  0  0  0  0  0  0  0  0  0  0  0
    7.9175  -14.7817   21.0118 C   0  0  0  0  0  0  0  0  0  0  0  0
    6.6861  -15.0003   20.8691 O   0  0  0  0  0  0  0  0  0  0  0  0
    7.2064  -16.4482   23.4846 C   0  0  0  0  0  0  0  0  0  0  0  0
    7.6059  -14.9840   23.5262 C   0  0  2  0  0  0  0  0  0  0  0  0
    8.4061  -14.7018   22.3352 N   0  0  0  0  0  0  0  0  0  0  0  0
    8.3458  -14.6509   24.7591 C   0  0  0  0  0  0  0  0  0  0  0  0
    9.3761  -15.3011   25.0020 O   0  0  0  0  0  0  0  0  0  0  0  0
    7.9278  -13.6479   25.6377 N   0  0  0  0  0  0  0  0  0  0  0  0
    6.9915  -12.5793   25.1789 C   0  0  0  0  0  0  0  0  0  0  0  0
    6.0578  -12.3985   26.3516 C   0  0  0  0  0  0  0  0  0  0  0  0
    6.6791  -13.1829   27.4848 C   0  0  0  0  0  0  0  0  0  0  0  0
    8.1413  -13.2922   26.9939 C   0  0  1  0  0  0  0  0  0  0  0  0
    8.9337  -14.1284   27.8549 C   0  0  0  0  0  0  0  0  0  0  0  0
    9.8280  -13.7963   28.8437 O   0  0  0  0  0  0  0  0  0  0  0  0
    8.7900  -15.3989   27.6790 O   0  0  0  0  0  0  0  0  0  0  0  0
  2  1  1  1
  2  4  1  0
  3  2  1  0
  4  5  1  6
  6 10  1  0
  6  4  1  0
  7  6  2  0
  9  8  1  1
  9 10  1  0
  9 11  1  0
 11 13  1  0
 12 11  2  0
 13 14  1  0
 13 17  1  0
 14 15  1  0
 15 16  1  0
 17 18  1  1
 17 16  1  0
 18 19  1  0
 20 18  2  0
M  END
$$$$
