VAP.pdb
     RDKit          3D

 20 20  0  0  1  0  0  0  0  0999 V2000
    6.8471  -10.8959   27.1171 C   0  0  0  0  0  0  0  0  0  0  0  0
    7.3488  -11.9748   26.2220 C   0  0  1  0  0  0  0  0  0  0  0  0
    8.0694  -13.0094   27.0619 C   0  0  0  0  0  0  0  0  0  0  0  0
    6.2785  -12.6836   25.4503 C   0  0  2  0  0  0  0  0  0  0  0  0
    5.3961  -13.3623   26.3752 N   0  0  0  0  0  0  0  0  0  0  0  0
    6.7687  -13.6609   24.4810 C   0  0  0  0  0  0  0  0  0  0  0  0
    6.8633  -14.8589   24.8555 O   0  0  0  0  0  0  0  0  0  0  0  0
    7.9969  -13.6506   20.9120 C   0  0  0  0  0  0  0  0  0  0  0  0
    7.6376  -14.3698   22.2000 C   0  0  2  0  0  0  0  0  0  0  0  0
    7.1477  -13.3725   23.1507 N   0  0  0  0  0  0  0  0  0  0  0  0
    8.7853  -15.1161   22.7513 C   0  0  0  0  0  0  0  0  0  0  0  0
    9.6799  -14.4600   23.3105 O   0  0  0  0  0  0  0  0  0  0  0  0
    8.8886  -16.5070   22.6633 N   0  0  0  0  0  0  0  0  0  0  0  0
    7.6633  -17.3536   22.5595 C   0  0  0  0  0  0  0  0  0  0  0  0
    8.0485  -18.4132   21.5553 C   0  0  0  0  0  0  0  0  0  0  0  0
    9.5380  -18.2532   21.3535 C   0  0  0  0  0  0  0  0  0  0  0  0
    9.9224  -17.4774   22.6346 C   0  0  1  0  0  0  0  0  0  0  0  0
   11.3036  -17.0769   22.6235 C   0  0  0  0  0  0  0  0  0  0  0  0
   12.3657  -17.5173   23.3755 O   0  0  0  0  0  0  0  0  0  0  0  0
   11.6063  -16.1542   21.7733 O   0  0  0  0  0  0  0  0  0  0  0  0
  2  1  1  1
  2  4  1  0
  3  2  1  0
  4  5  1  1
  6 10  1  0
  6  4  1  0
  7  6  2  0
  9  8  1  6
  9 10  1  0
  9 11  1  0
 11 13  1  0
 12 11  2  0
 13 14  1  0
 13 17  1  0
 14 15  1  0
 15 16  1  0
 17 18  1  6
 17 16  1  0
 18 19  1  0
 20 18  2  0
M  END
$$$$
