VAP.pdb
     RDKit          3D

 20 20  0  0  1  0  0  0  0  0999 V2000
    8.0393  -12.3661   20.3780 C   0  0  0  0  0  0  0  0  0  0  0  0
    7.7520  -13.5459   19.5163 C   0  0  1  0  0  0  0  0  0  0  0  0
    8.5816  -13.4406   18.2530 C   0  0  0  0  0  0  0  0  0  0  0  0
    8.0625  -14.8655   20.1534 C   0  0  2  0  0  0  0  0  0  0  0  0
    7.6958  -15.9301   19.2442 N   0  0  0  0  0  0  0  0  0  0  0  0
    7.3931  -15.1005   21.4308 C   0  0  0  0  0  0  0  0  0  0  0  0
    6.2542  -15.6359   21.4042 O   0  0  0  0  0  0  0  0  0  0  0  0
    6.9285  -16.5859   23.9453 C   0  0  0  0  0  0  0  0  0  0  0  0
    7.2732  -15.1075   23.9697 C   0  0  2  0  0  0  0  0  0  0  0  0
    7.9199  -14.7752   22.7009 N   0  0  0  0  0  0  0  0  0  0  0  0
    8.1361  -14.7631   25.1164 C   0  0  0  0  0  0  0  0  0  0  0  0
    9.0906  -15.5192   25.3623 O   0  0  0  0  0  0  0  0  0  0  0  0
    7.9130  -13.6362   25.9121 N   0  0  0  0  0  0  0  0  0  0  0  0
    7.0603  -12.5150   25.4175 C   0  0  0  0  0  0  0  0  0  0  0  0
    6.2644  -12.1108   26.6352 C   0  0  0  0  0  0  0  0  0  0  0  0
    6.8986  -12.8479   27.7927 C   0  0  0  0  0  0  0  0  0  0  0  0
    8.2885  -13.1767   27.2003 C   0  0  1  0  0  0  0  0  0  0  0  0
    9.0612  -14.0118   28.0800 C   0  0  0  0  0  0  0  0  0  0  0  0
    9.9661  -13.6789   29.0588 O   0  0  0  0  0  0  0  0  0  0  0  0
    8.8845  -15.2820   27.9353 O   0  0  0  0  0  0  0  0  0  0  0  0
  2  1  1  1
  2  4  1  0
  3  2  1  0
  4  5  1  6
  6 10  1  0
  6  4  1  0
  7  6  2  0
  9  8  1  6
  9 10  1  0
  9 11  1  0
 11 13  1  0
 12 11  2  0
 13 14  1  0
 13 17  1  0
 14 15  1  0
 15 16  1  0
 17 18  1  1
 17 16  1  0
 18 19  1  0
 20 18  2  0
M  END
$$$$
