VAP.pdb
     RDKit          3D

 20 20  0  0  1  0  0  0  0  0999 V2000
   11.8548  -17.7011   16.8373 C   0  0  0  0  0  0  0  0  0  0  0  0
   11.4557  -17.1639   15.5073 C   0  0  1  0  0  0  0  0  0  0  0  0
   12.0990  -18.0090   14.4270 C   0  0  0  0  0  0  0  0  0  0  0  0
    9.9782  -17.1616   15.2609 C   0  0  2  0  0  0  0  0  0  0  0  0
    9.7165  -16.6156   13.9463 N   0  0  0  0  0  0  0  0  0  0  0  0
    9.1966  -16.4057   16.2370 C   0  0  0  0  0  0  0  0  0  0  0  0
    9.3184  -15.1529   16.2394 O   0  0  0  0  0  0  0  0  0  0  0  0
    6.5093  -17.0294   18.7847 C   0  0  0  0  0  0  0  0  0  0  0  0
    7.6810  -16.2135   18.2683 C   0  0  2  0  0  0  0  0  0  0  0  0
    8.3102  -16.9662   17.1839 N   0  0  0  0  0  0  0  0  0  0  0  0
    8.6499  -15.9050   19.3380 C   0  0  0  0  0  0  0  0  0  0  0  0
    9.4187  -16.8137   19.6938 O   0  0  0  0  0  0  0  0  0  0  0  0
    8.7232  -14.6485   19.9450 N   0  0  0  0  0  0  0  0  0  0  0  0
    8.3286  -13.4194   19.1950 C   0  0  0  0  0  0  0  0  0  0  0  0
    7.5889  -12.5984   20.2237 C   0  0  0  0  0  0  0  0  0  0  0  0
    7.8359  -13.2913   21.5444 C   0  0  0  0  0  0  0  0  0  0  0  0
    9.0979  -14.1184   21.2060 C   0  0  1  0  0  0  0  0  0  0  0  0
    9.4712  -14.9911   22.2864 C   0  0  0  0  0  0  0  0  0  0  0  0
    8.8626  -16.1250   22.7676 O   0  0  0  0  0  0  0  0  0  0  0  0
   10.5516  -14.6662   22.9132 O   0  0  0  0  0  0  0  0  0  0  0  0
  2  1  1  1
  2  4  1  0
  3  2  1  0
  4  5  1  6
  6 10  1  0
  6  4  1  0
  7  6  2  0
  9  8  1  1
  9 10  1  0
  9 11  1  0
 11 13  1  0
 12 11  2  0
 13 14  1  0
 13 17  1  0
 14 15  1  0
 15 16  1  0
 17 18  1  1
 17 16  1  0
 18 19  1  0
 20 18  2  0
M  END
$$$$
