VAP.pdb
     RDKit          3D

 20 20  0  0  1  0  0  0  0  0999 V2000
   11.5059  -18.2413   20.5857 C   0  0  0  0  0  0  0  0  0  0  0  0
   10.7571  -17.4395   21.5923 C   0  0  1  0  0  0  0  0  0  0  0  0
   11.3450  -16.0441   21.6394 C   0  0  0  0  0  0  0  0  0  0  0  0
    9.2926  -17.3046   21.3079 C   0  0  2  0  0  0  0  0  0  0  0  0
    9.1153  -16.7238   19.9941 N   0  0  0  0  0  0  0  0  0  0  0  0
    8.5544  -16.4932   22.2730 C   0  0  0  0  0  0  0  0  0  0  0  0
    8.3486  -15.2852   21.9851 O   0  0  0  0  0  0  0  0  0  0  0  0
    6.3362  -17.0287   25.2040 C   0  0  0  0  0  0  0  0  0  0  0  0
    7.2955  -16.1250   24.4502 C   0  0  2  0  0  0  0  0  0  0  0  0
    8.0491  -16.9533   23.5098 N   0  0  0  0  0  0  0  0  0  0  0  0
    8.1975  -15.3969   25.3637 C   0  0  0  0  0  0  0  0  0  0  0  0
    9.2210  -15.9867   25.7483 O   0  0  0  0  0  0  0  0  0  0  0  0
    7.9367  -14.0938   25.7956 N   0  0  0  0  0  0  0  0  0  0  0  0
    7.0210  -13.2062   25.0193 C   0  0  0  0  0  0  0  0  0  0  0  0
    6.2317  -12.4892   26.0882 C   0  0  0  0  0  0  0  0  0  0  0  0
    6.9243  -12.8212   27.3902 C   0  0  0  0  0  0  0  0  0  0  0  0
    8.3160  -13.2562   26.8755 C   0  0  1  0  0  0  0  0  0  0  0  0
    9.1459  -13.7591   27.9368 C   0  0  0  0  0  0  0  0  0  0  0  0
    9.3173  -15.0398   28.4040 O   0  0  0  0  0  0  0  0  0  0  0  0
    9.8480  -12.8726   28.5589 O   0  0  0  0  0  0  0  0  0  0  0  0
  2  1  1  6
  2  4  1  0
  3  2  1  0
  4  5  1  6
  6 10  1  0
  6  4  1  0
  7  6  2  0
  9  8  1  1
  9 10  1  0
  9 11  1  0
 11 13  1  0
 12 11  2  0
 13 14  1  0
 13 17  1  0
 14 15  1  0
 15 16  1  0
 17 18  1  1
 17 16  1  0
 18 19  1  0
 20 18  2  0
M  END
$$$$
