VAP.pdb
     RDKit          3D

 20 20  0  0  1  0  0  0  0  0999 V2000
   10.5419  -12.5214   20.4564 C   0  0  0  0  0  0  0  0  0  0  0  0
   10.0633  -13.7333   19.7358 C   0  0  1  0  0  0  0  0  0  0  0  0
   10.6500  -14.9606   20.4026 C   0  0  0  0  0  0  0  0  0  0  0  0
    8.5742  -13.8942   19.7208 C   0  0  2  0  0  0  0  0  0  0  0  0
    7.9912  -12.8468   18.9097 N   0  0  0  0  0  0  0  0  0  0  0  0
    7.9422  -13.8618   21.0378 C   0  0  0  0  0  0  0  0  0  0  0  0
    7.7289  -12.7348   21.5563 O   0  0  0  0  0  0  0  0  0  0  0  0
    6.2267  -16.2590   23.3539 C   0  0  0  0  0  0  0  0  0  0  0  0
    6.9309  -14.9367   23.1071 C   0  0  2  0  0  0  0  0  0  0  0  0
    7.5481  -14.9959   21.7827 N   0  0  0  0  0  0  0  0  0  0  0  0
    7.9320  -14.6438   24.1513 C   0  0  0  0  0  0  0  0  0  0  0  0
    8.9707  -15.3254   24.1562 O   0  0  0  0  0  0  0  0  0  0  0  0
    7.7463  -13.6443   25.1101 N   0  0  0  0  0  0  0  0  0  0  0  0
    6.9401  -12.4286   24.7924 C   0  0  0  0  0  0  0  0  0  0  0  0
    6.1519  -12.1854   26.0569 C   0  0  0  0  0  0  0  0  0  0  0  0
    6.7499  -13.1147   27.0884 C   0  0  0  0  0  0  0  0  0  0  0  0
    8.1303  -13.4022   26.4538 C   0  0  1  0  0  0  0  0  0  0  0  0
    8.8649  -14.3911   27.1958 C   0  0  0  0  0  0  0  0  0  0  0  0
    9.8253  -14.2453   28.1673 O   0  0  0  0  0  0  0  0  0  0  0  0
    8.5852  -15.6185   26.9109 O   0  0  0  0  0  0  0  0  0  0  0  0
  2  1  1  1
  2  4  1  0
  3  2  1  0
  4  5  1  6
  6 10  1  0
  6  4  1  0
  7  6  2  0
  9  8  1  1
  9 10  1  0
  9 11  1  0
 11 13  1  0
 12 11  2  0
 13 14  1  0
 13 17  1  0
 14 15  1  0
 15 16  1  0
 17 18  1  1
 17 16  1  0
 18 19  1  0
 20 18  2  0
M  END
$$$$
