VAP.pdb
     RDKit          3D

 20 20  0  0  1  0  0  0  0  0999 V2000
    9.9794  -14.8965   21.0139 C   0  0  0  0  0  0  0  0  0  0  0  0
    9.0923  -15.7303   20.1567 C   0  0  1  0  0  0  0  0  0  0  0  0
    9.9444  -16.4629   19.1407 C   0  0  0  0  0  0  0  0  0  0  0  0
    8.2976  -16.7559   20.9051 C   0  0  2  0  0  0  0  0  0  0  0  0
    7.3460  -17.3701   20.0040 N   0  0  0  0  0  0  0  0  0  0  0  0
    7.5691  -16.2403   22.0620 C   0  0  0  0  0  0  0  0  0  0  0  0
    6.6060  -15.4592   21.8457 O   0  0  0  0  0  0  0  0  0  0  0  0
    6.3770  -17.0299   25.2515 C   0  0  0  0  0  0  0  0  0  0  0  0
    7.1754  -15.9423   24.5553 C   0  0  2  0  0  0  0  0  0  0  0  0
    7.8566  -16.5466   23.4111 N   0  0  0  0  0  0  0  0  0  0  0  0
    8.1366  -15.2953   25.4695 C   0  0  0  0  0  0  0  0  0  0  0  0
    9.1178  -15.9636   25.8354 O   0  0  0  0  0  0  0  0  0  0  0  0
    7.9755  -13.9831   25.9222 N   0  0  0  0  0  0  0  0  0  0  0  0
    7.1469  -13.0105   25.1500 C   0  0  0  0  0  0  0  0  0  0  0  0
    6.4018  -12.2506   26.2209 C   0  0  0  0  0  0  0  0  0  0  0  0
    7.0449  -12.6607   27.5261 C   0  0  0  0  0  0  0  0  0  0  0  0
    8.4046  -13.1982   27.0228 C   0  0  1  0  0  0  0  0  0  0  0  0
    9.1745  -13.7856   28.0861 C   0  0  0  0  0  0  0  0  0  0  0  0
    9.1536  -15.0579   28.6043 O   0  0  0  0  0  0  0  0  0  0  0  0
   10.0263  -12.9992   28.6533 O   0  0  0  0  0  0  0  0  0  0  0  0
  2  1  1  1
  2  4  1  0
  3  2  1  0
  4  5  1  6
  6 10  1  0
  6  4  1  0
  7  6  2  0
  9  8  1  1
  9 10  1  0
  9 11  1  0
 11 13  1  0
 12 11  2  0
 13 14  1  0
 13 17  1  0
 14 15  1  0
 15 16  1  0
 17 18  1  1
 17 16  1  0
 18 19  1  0
 20 18  2  0
M  END
$$$$
