VAP.pdb
     RDKit          3D

 20 20  0  0  1  0  0  0  0  0999 V2000
   10.2229  -18.8268   20.5849 C   0  0  0  0  0  0  0  0  0  0  0  0
   10.0734  -17.9076   21.7466 C   0  0  1  0  0  0  0  0  0  0  0  0
   11.4394  -17.3719   22.1234 C   0  0  0  0  0  0  0  0  0  0  0  0
    9.1803  -16.7322   21.4923 C   0  0  2  0  0  0  0  0  0  0  0  0
    9.7329  -15.9401   20.4143 N   0  0  0  0  0  0  0  0  0  0  0  0
    8.9748  -15.8594   22.6459 C   0  0  0  0  0  0  0  0  0  0  0  0
    9.8115  -14.9391   22.8392 O   0  0  0  0  0  0  0  0  0  0  0  0
    6.3554  -15.2093   25.2501 C   0  0  0  0  0  0  0  0  0  0  0  0
    7.8032  -15.1724   24.7944 C   0  0  2  0  0  0  0  0  0  0  0  0
    7.9093  -15.9622   23.5683 N   0  0  0  0  0  0  0  0  0  0  0  0
    8.7203  -15.6752   25.8357 C   0  0  0  0  0  0  0  0  0  0  0  0
    8.8449  -16.9065   25.9432 O   0  0  0  0  0  0  0  0  0  0  0  0
    9.4344  -14.8230   26.6822 N   0  0  0  0  0  0  0  0  0  0  0  0
    9.5827  -13.3747   26.3515 C   0  0  0  0  0  0  0  0  0  0  0  0
    9.4239  -12.6880   27.6868 C   0  0  0  0  0  0  0  0  0  0  0  0
    9.4559  -13.7959   28.7148 C   0  0  0  0  0  0  0  0  0  0  0  0
   10.1429  -14.9212   27.9070 C   0  0  1  0  0  0  0  0  0  0  0  0
   10.1767  -16.1598   28.6369 C   0  0  0  0  0  0  0  0  0  0  0  0
    9.4322  -17.3046   28.4855 O   0  0  0  0  0  0  0  0  0  0  0  0
   11.0430  -16.2168   29.5919 O   0  0  0  0  0  0  0  0  0  0  0  0
  2  1  1  6
  2  4  1  0
  3  2  1  0
  4  5  1  6
  6 10  1  0
  6  4  1  0
  7  6  2  0
  9  8  1  1
  9 10  1  0
  9 11  1  0
 11 13  1  0
 12 11  2  0
 13 14  1  0
 13 17  1  0
 14 15  1  0
 15 16  1  0
 17 18  1  1
 17 16  1  0
 18 19  1  0
 20 18  2  0
M  END
$$$$
