AKK.pdb
     RDKit          3D

 24 23  0  0  1  0  0  0  0  0999 V2000
    8.1257  -20.0472   18.4237 C   0  0  0  0  0  0  0  0  0  0  0  0
    8.3841  -19.5948   19.8255 C   0  0  2  0  0  0  0  0  0  0  0  0
    7.1532  -19.5033   20.5910 N   0  0  0  0  0  0  0  0  0  0  0  0
    9.1673  -18.3342   19.9006 C   0  0  0  0  0  0  0  0  0  0  0  0
   10.3054  -18.2852   19.3673 O   0  0  0  0  0  0  0  0  0  0  0  0
    8.6960  -17.1671   20.5492 N   0  0  0  0  0  0  0  0  0  0  0  0
    9.5358  -15.9421   20.6395 C   0  0  1  0  0  0  0  0  0  0  0  0
    8.6250  -14.7924   20.4367 C   0  0  0  0  0  0  0  0  0  0  0  0
    8.2245  -14.4181   19.0774 C   0  0  0  0  0  0  0  0  0  0  0  0
    7.2941  -13.2491   18.9685 C   0  0  0  0  0  0  0  0  0  0  0  0
    7.0454  -13.0466   17.4703 C   0  0  0  0  0  0  0  0  0  0  0  0
    6.0923  -12.0104   17.2170 N   0  0  0  0  0  0  0  0  0  0  0  0
   10.1285  -15.9514   22.0004 C   0  0  0  0  0  0  0  0  0  0  0  0
    9.3654  -15.9271   23.0341 O   0  0  0  0  0  0  0  0  0  0  0  0
   11.5157  -15.9887   22.2764 N   0  0  0  0  0  0  0  0  0  0  0  0
   12.0183  -16.2037   23.6548 C   0  0  1  0  0  0  0  0  0  0  0  0
   11.5088  -17.5638   24.0682 C   0  0  0  0  0  0  0  0  0  0  0  0
   12.0155  -17.9218   25.4396 C   0  0  0  0  0  0  0  0  0  0  0  0
   11.5032  -19.3181   25.8035 C   0  0  0  0  0  0  0  0  0  0  0  0
   11.8595  -19.6668   27.2213 C   0  0  0  0  0  0  0  0  0  0  0  0
   11.3031  -20.9804   27.5443 N   0  0  0  0  0  0  0  0  0  0  0  0
   13.4730  -16.1108   23.6640 C   0  0  0  0  0  0  0  0  0  0  0  0
   14.2050  -15.8918   22.5261 O   0  0  0  0  0  0  0  0  0  0  0  0
   14.1172  -16.2361   24.7580 O   0  0  0  0  0  0  0  0  0  0  0  0
  2  1  1  6
  2  3  1  0
  4  2  1  0
  4  5  2  0
  6  4  1  0
  7  6  1  0
  8  9  1  0
  7  8  1  1
  9 10  1  0
 11 12  1  0
 11 10  1  0
 13 15  1  0
 13  7  1  0
 14 13  2  0
 16 15  1  0
 16 22  1  0
 16 17  1  6
 18 17  1  0
 19 18  1  0
 20 19  1  0
 21 20  1  0
 22 24  2  0
 22 23  1  0
M  END
$$$$
