AKK.pdb
     RDKit          3D

 24 23  0  0  1  0  0  0  0  0999 V2000
    7.4100  -13.2837   17.8552 C   0  0  0  0  0  0  0  0  0  0  0  0
    8.6291  -13.6803   18.6254 C   0  0  2  0  0  0  0  0  0  0  0  0
    9.6450  -14.2502   17.7579 N   0  0  0  0  0  0  0  0  0  0  0  0
    8.3321  -14.5726   19.7759 C   0  0  0  0  0  0  0  0  0  0  0  0
    7.4813  -14.2123   20.6294 O   0  0  0  0  0  0  0  0  0  0  0  0
    8.9636  -15.8254   19.9676 N   0  0  0  0  0  0  0  0  0  0  0  0
    8.6283  -16.6882   21.1326 C   0  0  1  0  0  0  0  0  0  0  0  0
    9.4452  -17.9156   20.9953 C   0  0  0  0  0  0  0  0  0  0  0  0
    9.4848  -18.8845   22.0942 C   0  0  0  0  0  0  0  0  0  0  0  0
    9.0311  -20.2723   21.7589 C   0  0  0  0  0  0  0  0  0  0  0  0
    9.1648  -21.0833   23.0520 C   0  0  0  0  0  0  0  0  0  0  0  0
   10.5300  -21.3657   23.3726 N   0  0  0  0  0  0  0  0  0  0  0  0
    8.9943  -15.9063   22.3400 C   0  0  0  0  0  0  0  0  0  0  0  0
   10.1852  -15.4405   22.4677 O   0  0  0  0  0  0  0  0  0  0  0  0
    8.1146  -15.6115   23.4082 N   0  0  0  0  0  0  0  0  0  0  0  0
    8.5198  -14.7030   24.5077 C   0  0  1  0  0  0  0  0  0  0  0  0
    7.2830  -13.9121   24.8615 C   0  0  0  0  0  0  0  0  0  0  0  0
    7.5481  -13.0208   26.0451 C   0  0  0  0  0  0  0  0  0  0  0  0
    6.2569  -12.2785   26.4000 C   0  0  0  0  0  0  0  0  0  0  0  0
    6.4618  -11.3869   27.5924 C   0  0  0  0  0  0  0  0  0  0  0  0
    5.1814  -10.7860   27.9652 N   0  0  0  0  0  0  0  0  0  0  0  0
    9.0362  -15.4866   25.6232 C   0  0  0  0  0  0  0  0  0  0  0  0
    8.6685  -16.7887   25.8422 O   0  0  0  0  0  0  0  0  0  0  0  0
    9.8621  -14.9666   26.4448 O   0  0  0  0  0  0  0  0  0  0  0  0
  2  1  1  6
  2  3  1  0
  4  2  1  0
  4  5  2  0
  6  4  1  0
  7  6  1  0
  8  9  1  0
  7  8  1  6
  9 10  1  0
 11 12  1  0
 11 10  1  0
 13 15  1  0
 13  7  1  0
 14 13  2  0
 16 15  1  0
 16 22  1  0
 16 17  1  1
 18 17  1  0
 19 18  1  0
 20 19  1  0
 21 20  1  0
 22 24  2  0
 22 23  1  0
M  END
$$$$
