AKK.pdb
     RDKit          3D

 24 23  0  0  1  0  0  0  0  0999 V2000
    7.2676  -12.6436   18.8551 C   0  0  0  0  0  0  0  0  0  0  0  0
    8.6518  -13.0867   19.2077 C   0  0  2  0  0  0  0  0  0  0  0  0
    9.4650  -13.2879   18.0213 N   0  0  0  0  0  0  0  0  0  0  0  0
    8.6786  -14.2783   20.0951 C   0  0  0  0  0  0  0  0  0  0  0  0
    7.9745  -14.2843   21.1373 O   0  0  0  0  0  0  0  0  0  0  0  0
    9.4650  -15.4251   19.8282 N   0  0  0  0  0  0  0  0  0  0  0  0
    9.4403  -16.6055   20.7338 C   0  0  1  0  0  0  0  0  0  0  0  0
    9.9145  -17.7583   19.9346 C   0  0  0  0  0  0  0  0  0  0  0  0
   10.1026  -19.0592   20.5829 C   0  0  0  0  0  0  0  0  0  0  0  0
   10.4402  -20.2004   19.6730 C   0  0  0  0  0  0  0  0  0  0  0  0
   10.6342  -21.4197   20.5804 C   0  0  0  0  0  0  0  0  0  0  0  0
   10.8135  -22.6257   19.8322 N   0  0  0  0  0  0  0  0  0  0  0  0
   10.3631  -16.2837   21.8511 C   0  0  0  0  0  0  0  0  0  0  0  0
   11.4538  -15.6447   21.6203 O   0  0  0  0  0  0  0  0  0  0  0  0
   10.1418  -16.6280   23.2055 N   0  0  0  0  0  0  0  0  0  0  0  0
   11.0726  -16.1859   24.2716 C   0  0  1  0  0  0  0  0  0  0  0  0
   10.1979  -15.7352   25.4171 C   0  0  0  0  0  0  0  0  0  0  0  0
   11.0361  -15.4130   26.6251 C   0  0  0  0  0  0  0  0  0  0  0  0
   10.1056  -15.0594   27.7885 C   0  0  0  0  0  0  0  0  0  0  0  0
   10.8942  -14.7439   29.0284 C   0  0  0  0  0  0  0  0  0  0  0  0
    9.9688  -14.5204   30.1389 N   0  0  0  0  0  0  0  0  0  0  0  0
   11.9624  -17.2839   24.6290 C   0  0  0  0  0  0  0  0  0  0  0  0
   13.2617  -17.0835   25.0166 O   0  0  0  0  0  0  0  0  0  0  0  0
   11.5443  -18.4885   24.5871 O   0  0  0  0  0  0  0  0  0  0  0  0
  2  1  1  6
  2  3  1  0
  4  2  1  0
  4  5  2  0
  6  4  1  0
  7  6  1  0
  8  9  1  0
  7  8  1  6
  9 10  1  0
 11 12  1  0
 11 10  1  0
 13 15  1  0
 13  7  1  0
 14 13  2  0
 16 15  1  0
 16 22  1  0
 16 17  1  1
 18 17  1  0
 19 18  1  0
 20 19  1  0
 21 20  1  0
 22 24  2  0
 22 23  1  0
M  END
$$$$
