AKK.pdb
     RDKit          3D

 24 23  0  0  1  0  0  0  0  0999 V2000
    7.1104  -17.8628   19.7843 C   0  0  0  0  0  0  0  0  0  0  0  0
    7.6425  -16.4777   19.5966 C   0  0  2  0  0  0  0  0  0  0  0  0
    8.5311  -16.3994   18.4504 N   0  0  0  0  0  0  0  0  0  0  0  0
    8.2799  -15.9231   20.8189 C   0  0  0  0  0  0  0  0  0  0  0  0
    9.5286  -15.9990   20.9494 O   0  0  0  0  0  0  0  0  0  0  0  0
    7.5480  -15.3043   21.8613 N   0  0  0  0  0  0  0  0  0  0  0  0
    8.2334  -14.7370   23.0539 C   0  0  1  0  0  0  0  0  0  0  0  0
    7.2055  -13.9884   23.8127 C   0  0  0  0  0  0  0  0  0  0  0  0
    7.5687  -13.3396   25.0758 C   0  0  0  0  0  0  0  0  0  0  0  0
    6.4755  -12.5728   25.7548 C   0  0  0  0  0  0  0  0  0  0  0  0
    7.1124  -11.9422   26.9975 C   0  0  0  0  0  0  0  0  0  0  0  0
    6.1561  -11.2386   27.7955 N   0  0  0  0  0  0  0  0  0  0  0  0
    8.7552  -15.8982   23.8172 C   0  0  0  0  0  0  0  0  0  0  0  0
    8.0290  -16.9478   23.9671 O   0  0  0  0  0  0  0  0  0  0  0  0
   10.0344  -15.9599   24.4186 N   0  0  0  0  0  0  0  0  0  0  0  0
   10.5154  -17.2001   25.0737 C   0  0  1  0  0  0  0  0  0  0  0  0
   11.7739  -17.5905   24.3362 C   0  0  0  0  0  0  0  0  0  0  0  0
   12.3956  -18.8094   24.9634 C   0  0  0  0  0  0  0  0  0  0  0  0
   13.6687  -19.1644   24.1904 C   0  0  0  0  0  0  0  0  0  0  0  0
   14.2821  -20.4299   24.7206 C   0  0  0  0  0  0  0  0  0  0  0  0
   15.5842  -20.6319   24.0856 N   0  0  0  0  0  0  0  0  0  0  0  0
   10.7385  -16.9480   26.4921 C   0  0  0  0  0  0  0  0  0  0  0  0
   10.9753  -15.6929   26.9895 O   0  0  0  0  0  0  0  0  0  0  0  0
   10.7204  -17.9132   27.3261 O   0  0  0  0  0  0  0  0  0  0  0  0
  2  1  1  1
  2  3  1  0
  4  2  1  0
  4  5  2  0
  6  4  1  0
  7  6  1  0
  8  9  1  0
  7  8  1  1
  9 10  1  0
 11 12  1  0
 11 10  1  0
 13 15  1  0
 13  7  1  0
 14 13  2  0
 16 15  1  0
 16 22  1  0
 16 17  1  6
 18 17  1  0
 19 18  1  0
 20 19  1  0
 21 20  1  0
 22 24  2  0
 22 23  1  0
M  END
$$$$
