AKK.pdb
     RDKit          3D

 24 23  0  0  1  0  0  0  0  0999 V2000
    8.6214  -15.2201   18.5970 C   0  0  0  0  0  0  0  0  0  0  0  0
    8.3747  -16.1366   19.7528 C   0  0  2  0  0  0  0  0  0  0  0  0
    6.9784  -16.5284   19.8332 N   0  0  0  0  0  0  0  0  0  0  0  0
    8.8637  -15.5942   21.0469 C   0  0  0  0  0  0  0  0  0  0  0  0
   10.0943  -15.3832   21.1992 O   0  0  0  0  0  0  0  0  0  0  0  0
    8.0077  -15.2969   22.1350 N   0  0  0  0  0  0  0  0  0  0  0  0
    8.5352  -14.6962   23.3900 C   0  0  1  0  0  0  0  0  0  0  0  0
    7.4127  -13.9496   24.0026 C   0  0  0  0  0  0  0  0  0  0  0  0
    7.5878  -13.3343   25.3213 C   0  0  0  0  0  0  0  0  0  0  0  0
    6.4175  -12.5563   25.8402 C   0  0  0  0  0  0  0  0  0  0  0  0
    6.8439  -12.0169   27.2094 C   0  0  0  0  0  0  0  0  0  0  0  0
    5.8413  -11.1822   27.7963 N   0  0  0  0  0  0  0  0  0  0  0  0
    8.9758  -15.8343   24.2350 C   0  0  0  0  0  0  0  0  0  0  0  0
    8.1549  -16.7824   24.5154 O   0  0  0  0  0  0  0  0  0  0  0  0
   10.2727  -15.9791   24.7817 N   0  0  0  0  0  0  0  0  0  0  0  0
   10.6682  -17.2131   25.5025 C   0  0  1  0  0  0  0  0  0  0  0  0
   12.0199  -17.5950   24.9483 C   0  0  0  0  0  0  0  0  0  0  0  0
   12.5555  -18.8106   25.6562 C   0  0  0  0  0  0  0  0  0  0  0  0
   13.9580  -19.1124   25.1212 C   0  0  0  0  0  0  0  0  0  0  0  0
   14.5048  -20.3721   25.7319 C   0  0  0  0  0  0  0  0  0  0  0  0
   15.8071  -20.6663   25.1346 N   0  0  0  0  0  0  0  0  0  0  0  0
   10.6904  -16.9547   26.9370 C   0  0  0  0  0  0  0  0  0  0  0  0
   10.5307  -15.6989   27.4624 O   0  0  0  0  0  0  0  0  0  0  0  0
   10.8653  -17.9142   27.7594 O   0  0  0  0  0  0  0  0  0  0  0  0
  2  1  1  6
  2  3  1  0
  4  2  1  0
  4  5  2  0
  6  4  1  0
  7  6  1  0
  8  9  1  0
  7  8  1  1
  9 10  1  0
 11 12  1  0
 11 10  1  0
 13 15  1  0
 13  7  1  0
 14 13  2  0
 16 15  1  0
 16 22  1  0
 16 17  1  6
 18 17  1  0
 19 18  1  0
 20 19  1  0
 21 20  1  0
 22 24  2  0
 22 23  1  0
M  END
$$$$
