AKK.pdb
     RDKit          3D

 24 23  0  0  1  0  0  0  0  0999 V2000
    4.3011  -20.6327   21.4166 C   0  0  0  0  0  0  0  0  0  0  0  0
    4.4297  -19.5500   22.4403 C   0  0  2  0  0  0  0  0  0  0  0  0
    3.2974  -18.6413   22.3995 N   0  0  0  0  0  0  0  0  0  0  0  0
    5.7198  -18.8169   22.3605 C   0  0  0  0  0  0  0  0  0  0  0  0
    6.7961  -19.4674   22.3412 O   0  0  0  0  0  0  0  0  0  0  0  0
    5.8058  -17.4047   22.3041 N   0  0  0  0  0  0  0  0  0  0  0  0
    7.1186  -16.7162   22.1756 C   0  0  1  0  0  0  0  0  0  0  0  0
    6.8504  -15.4210   21.5098 C   0  0  0  0  0  0  0  0  0  0  0  0
    7.7212  -14.9750   20.4185 C   0  0  0  0  0  0  0  0  0  0  0  0
    7.3612  -13.6641   19.7891 C   0  0  0  0  0  0  0  0  0  0  0  0
    8.3927  -13.4317   18.6803 C   0  0  0  0  0  0  0  0  0  0  0  0
    8.1717  -12.1997   17.9876 N   0  0  0  0  0  0  0  0  0  0  0  0
    7.6248  -16.5380   23.5596 C   0  0  0  0  0  0  0  0  0  0  0  0
    6.8446  -16.0885   24.4765 O   0  0  0  0  0  0  0  0  0  0  0  0
    8.9428  -16.8326   23.9812 N   0  0  0  0  0  0  0  0  0  0  0  0
    9.3754  -16.5841   25.3776 C   0  0  1  0  0  0  0  0  0  0  0  0
    9.8642  -17.9150   25.8972 C   0  0  0  0  0  0  0  0  0  0  0  0
    8.9785  -18.4030   27.0121 C   0  0  0  0  0  0  0  0  0  0  0  0
    9.4651  -19.7849   27.4569 C   0  0  0  0  0  0  0  0  0  0  0  0
    8.5983  -20.3295   28.5573 C   0  0  0  0  0  0  0  0  0  0  0  0
    9.1190  -21.6308   28.9758 N   0  0  0  0  0  0  0  0  0  0  0  0
   10.4038  -15.5511   25.3936 C   0  0  0  0  0  0  0  0  0  0  0  0
   10.7671  -14.8901   26.5381 O   0  0  0  0  0  0  0  0  0  0  0  0
   11.0050  -15.2272   24.3160 O   0  0  0  0  0  0  0  0  0  0  0  0
  2  1  1  6
  2  3  1  0
  4  2  1  0
  4  5  2  0
  6  4  1  0
  7  6  1  0
  8  9  1  0
  7  8  1  1
  9 10  1  0
 11 12  1  0
 11 10  1  0
 13 15  1  0
 13  7  1  0
 14 13  2  0
 16 15  1  0
 16 22  1  0
 16 17  1  6
 18 17  1  0
 19 18  1  0
 20 19  1  0
 21 20  1  0
 22 24  2  0
 22 23  1  0
M  END
$$$$
