AKK.pdb
     RDKit          3D

 24 23  0  0  1  0  0  0  0  0999 V2000
    6.4112  -20.1976   22.8785 C   0  0  0  0  0  0  0  0  0  0  0  0
    6.4010  -19.3381   21.6546 C   0  0  2  0  0  0  0  0  0  0  0  0
    6.2089  -20.1277   20.4509 N   0  0  0  0  0  0  0  0  0  0  0  0
    7.5940  -18.4590   21.5449 C   0  0  0  0  0  0  0  0  0  0  0  0
    8.7259  -18.9782   21.3683 O   0  0  0  0  0  0  0  0  0  0  0  0
    7.5260  -17.0471   21.6295 N   0  0  0  0  0  0  0  0  0  0  0  0
    8.7514  -16.2085   21.5341 C   0  0  1  0  0  0  0  0  0  0  0  0
    8.3285  -14.9102   20.9613 C   0  0  0  0  0  0  0  0  0  0  0  0
    8.1034  -14.7956   19.5176 C   0  0  0  0  0  0  0  0  0  0  0  0
    7.7219  -13.4347   19.0214 C   0  0  0  0  0  0  0  0  0  0  0  0
    7.5173  -13.5793   17.5098 C   0  0  0  0  0  0  0  0  0  0  0  0
    7.1024  -12.3527   16.9019 N   0  0  0  0  0  0  0  0  0  0  0  0
    9.2600  -16.0674   22.9214 C   0  0  0  0  0  0  0  0  0  0  0  0
    8.4426  -16.1017   23.9124 O   0  0  0  0  0  0  0  0  0  0  0  0
   10.6206  -15.8938   23.2686 N   0  0  0  0  0  0  0  0  0  0  0  0
   11.1670  -16.4471   24.5311 C   0  0  1  0  0  0  0  0  0  0  0  0
   10.9332  -17.9373   24.4594 C   0  0  0  0  0  0  0  0  0  0  0  0
   11.4539  -18.6127   25.6997 C   0  0  0  0  0  0  0  0  0  0  0  0
   11.2061  -20.1188   25.5797 C   0  0  0  0  0  0  0  0  0  0  0  0
   11.7452  -20.8477   26.7784 C   0  0  0  0  0  0  0  0  0  0  0  0
   11.3179  -22.2453   26.7195 N   0  0  0  0  0  0  0  0  0  0  0  0
   12.5765  -16.0943   24.6491 C   0  0  0  0  0  0  0  0  0  0  0  0
   13.3474  -15.7654   23.5645 O   0  0  0  0  0  0  0  0  0  0  0  0
   13.1421  -16.0844   25.7926 O   0  0  0  0  0  0  0  0  0  0  0  0
  2  1  1  1
  2  3  1  0
  4  2  1  0
  4  5  2  0
  6  4  1  0
  7  6  1  0
  8  9  1  0
  7  8  1  1
  9 10  1  0
 11 12  1  0
 11 10  1  0
 13 15  1  0
 13  7  1  0
 14 13  2  0
 16 15  1  0
 16 22  1  0
 16 17  1  6
 18 17  1  0
 19 18  1  0
 20 19  1  0
 21 20  1  0
 22 24  2  0
 22 23  1  0
M  END
$$$$
