AKK.pdb
     RDKit          3D

 24 23  0  0  1  0  0  0  0  0999 V2000
   10.0756  -18.4847   18.0473 C   0  0  0  0  0  0  0  0  0  0  0  0
    9.4312  -18.6395   19.3880 C   0  0  2  0  0  0  0  0  0  0  0  0
    7.9898  -18.7768   19.2734 N   0  0  0  0  0  0  0  0  0  0  0  0
    9.8018  -17.5649   20.3450 C   0  0  0  0  0  0  0  0  0  0  0  0
   11.0032  -17.4424   20.6965 O   0  0  0  0  0  0  0  0  0  0  0  0
    8.8627  -16.6569   20.8916 N   0  0  0  0  0  0  0  0  0  0  0  0
    9.2925  -15.5453   21.7824 C   0  0  1  0  0  0  0  0  0  0  0  0
    8.2068  -14.5388   21.7520 C   0  0  0  0  0  0  0  0  0  0  0  0
    8.1708  -13.5462   20.6742 C   0  0  0  0  0  0  0  0  0  0  0  0
    7.3373  -13.9053   19.4824 C   0  0  0  0  0  0  0  0  0  0  0  0
    7.4734  -12.7336   18.5046 C   0  0  0  0  0  0  0  0  0  0  0  0
    6.6685  -12.9107   17.3353 N   0  0  0  0  0  0  0  0  0  0  0  0
    9.4620  -16.1430   23.1305 C   0  0  0  0  0  0  0  0  0  0  0  0
    8.4608  -16.6905   23.7214 O   0  0  0  0  0  0  0  0  0  0  0  0
   10.6770  -16.1690   23.8549 N   0  0  0  0  0  0  0  0  0  0  0  0
   10.8867  -17.1266   24.9675 C   0  0  1  0  0  0  0  0  0  0  0  0
   10.7933  -18.5004   24.3476 C   0  0  0  0  0  0  0  0  0  0  0  0
   11.0415  -19.5639   25.3834 C   0  0  0  0  0  0  0  0  0  0  0  0
   10.8631  -20.9371   24.7300 C   0  0  0  0  0  0  0  0  0  0  0  0
   11.1269  -22.0388   25.7178 C   0  0  0  0  0  0  0  0  0  0  0  0
   10.7028  -23.3125   25.1371 N   0  0  0  0  0  0  0  0  0  0  0  0
   12.1763  -16.8694   25.5965 C   0  0  0  0  0  0  0  0  0  0  0  0
   13.1179  -16.0450   25.0374 O   0  0  0  0  0  0  0  0  0  0  0  0
   12.4688  -17.4202   26.7094 O   0  0  0  0  0  0  0  0  0  0  0  0
  2  1  1  6
  2  3  1  0
  4  2  1  0
  4  5  2  0
  6  4  1  0
  7  6  1  0
  8  9  1  0
  7  8  1  1
  9 10  1  0
 11 12  1  0
 11 10  1  0
 13 15  1  0
 13  7  1  0
 14 13  2  0
 16 15  1  0
 16 22  1  0
 16 17  1  6
 18 17  1  0
 19 18  1  0
 20 19  1  0
 21 20  1  0
 22 24  2  0
 22 23  1  0
M  END
$$$$
