AKK.pdb
     RDKit          3D

 24 23  0  0  1  0  0  0  0  0999 V2000
    4.7140  -19.1257   20.9711 C   0  0  0  0  0  0  0  0  0  0  0  0
    5.3283  -18.4114   22.1326 C   0  0  2  0  0  0  0  0  0  0  0  0
    4.3317  -17.6816   22.8966 N   0  0  0  0  0  0  0  0  0  0  0  0
    6.4676  -17.5380   21.7488 C   0  0  0  0  0  0  0  0  0  0  0  0
    7.4829  -18.0522   21.2132 O   0  0  0  0  0  0  0  0  0  0  0  0
    6.4736  -16.1373   21.9557 N   0  0  0  0  0  0  0  0  0  0  0  0
    7.6739  -15.3160   21.6413 C   0  0  1  0  0  0  0  0  0  0  0  0
    7.2005  -13.9213   21.4883 C   0  0  0  0  0  0  0  0  0  0  0  0
    7.1231  -13.3265   20.1511 C   0  0  0  0  0  0  0  0  0  0  0  0
    8.1020  -13.8499   19.1452 C   0  0  0  0  0  0  0  0  0  0  0  0
    7.7959  -13.1138   17.8367 C   0  0  0  0  0  0  0  0  0  0  0  0
    8.6337  -13.5513   16.7630 N   0  0  0  0  0  0  0  0  0  0  0  0
    8.5904  -15.4706   22.7987 C   0  0  0  0  0  0  0  0  0  0  0  0
    8.1272  -15.4218   23.9964 O   0  0  0  0  0  0  0  0  0  0  0  0
    9.9865  -15.6782   22.7007 N   0  0  0  0  0  0  0  0  0  0  0  0
   10.7850  -16.0937   23.8790 C   0  0  1  0  0  0  0  0  0  0  0  0
   10.2363  -17.4388   24.2912 C   0  0  0  0  0  0  0  0  0  0  0  0
   11.0704  -18.0325   25.3946 C   0  0  0  0  0  0  0  0  0  0  0  0
   10.4537  -19.3708   25.8107 C   0  0  0  0  0  0  0  0  0  0  0  0
   11.3017  -20.0521   26.8477 C   0  0  0  0  0  0  0  0  0  0  0  0
   10.6466  -21.2931   27.2603 N   0  0  0  0  0  0  0  0  0  0  0  0
   12.1974  -16.1375   23.5207 C   0  0  0  0  0  0  0  0  0  0  0  0
   13.1975  -16.0759   24.4560 O   0  0  0  0  0  0  0  0  0  0  0  0
   12.5465  -16.2347   22.2975 O   0  0  0  0  0  0  0  0  0  0  0  0
  2  1  1  6
  2  3  1  0
  4  2  1  0
  4  5  2  0
  6  4  1  0
  7  6  1  0
  8  9  1  0
  7  8  1  1
  9 10  1  0
 11 12  1  0
 11 10  1  0
 13 15  1  0
 13  7  1  0
 14 13  2  0
 16 15  1  0
 16 22  1  0
 16 17  1  6
 18 17  1  0
 19 18  1  0
 20 19  1  0
 21 20  1  0
 22 24  2  0
 22 23  1  0
M  END
$$$$
