NVP.pdb
     RDKit          3D

 23 23  0  0  1  0  0  0  0  0999 V2000
    9.4690  -18.0928   19.4805 N   0  0  0  0  0  0  0  0  0  0  0  0
   10.0607  -16.8299   19.4393 C   0  0  0  0  0  0  0  0  0  0  0  0
   10.6995  -16.5053   18.3989 O   0  0  0  0  0  0  0  0  0  0  0  0
   10.0118  -15.8183   20.5123 C   0  0  0  0  0  0  0  0  0  0  0  0
    9.3032  -16.2868   21.7500 C   0  0  2  0  0  0  0  0  0  0  0  0
    7.9080  -16.6169   21.4893 N   0  0  0  0  0  0  0  0  0  0  0  0
    9.3897  -15.3502   22.8736 C   0  0  0  0  0  0  0  0  0  0  0  0
   10.4300  -14.6770   23.0651 O   0  0  0  0  0  0  0  0  0  0  0  0
    7.1102  -13.5243   26.9573 C   0  0  0  0  0  0  0  0  0  0  0  0
    7.0570  -14.1319   25.5744 C   0  0  1  0  0  0  0  0  0  0  0  0
    6.4383  -13.1066   24.6070 C   0  0  0  0  0  0  0  0  0  0  0  0
    8.4543  -14.5096   25.0766 C   0  0  2  0  0  0  0  0  0  0  0  0
    8.3151  -15.1680   23.7796 N   0  0  0  0  0  0  0  0  0  0  0  0
    8.9756  -15.5124   26.0358 C   0  0  0  0  0  0  0  0  0  0  0  0
    8.8896  -16.7436   25.6806 O   0  0  0  0  0  0  0  0  0  0  0  0
    9.5339  -15.1470   27.2628 N   0  0  0  0  0  0  0  0  0  0  0  0
    9.1005  -13.9750   28.0420 C   0  0  0  0  0  0  0  0  0  0  0  0
   10.2592  -13.6924   28.9618 C   0  0  0  0  0  0  0  0  0  0  0  0
   11.3789  -14.6020   28.4793 C   0  0  0  0  0  0  0  0  0  0  0  0
   10.5627  -15.8066   28.0167 C   0  0  1  0  0  0  0  0  0  0  0  0
    9.9348  -16.4819   29.1893 C   0  0  0  0  0  0  0  0  0  0  0  0
    8.7049  -16.3397   29.3688 O   0  0  0  0  0  0  0  0  0  0  0  0
   10.6625  -17.2564   30.0808 O   0  0  0  0  0  0  0  0  0  0  0  0
  1  2  1  0
  2  3  2  0
  4  2  1  0
  4  5  1  0
  5  6  1  6
  7  5  1  0
  7  8  2  0
 10  9  1  1
 10 11  1  0
 10 12  1  0
 12 13  1  6
 13  7  1  0
 14 12  1  0
 15 14  2  0
 16 14  1  0
 16 17  1  0
 18 17  1  0
 19 18  1  0
 19 20  1  0
 20 16  1  0
 20 21  1  1
 21 23  1  0
 22 21  2  0
M  END
$$$$
