NVP.pdb
     RDKit          3D

 23 23  0  0  1  0  0  0  0  0999 V2000
   12.2171  -19.9594   20.3144 N   0  0  0  0  0  0  0  0  0  0  0  0
   11.9000  -19.7852   21.6619 C   0  0  0  0  0  0  0  0  0  0  0  0
   11.9715  -20.7893   22.4250 O   0  0  0  0  0  0  0  0  0  0  0  0
   11.4816  -18.5191   22.2935 C   0  0  0  0  0  0  0  0  0  0  0  0
   11.2837  -17.3957   21.3176 C   0  0  2  0  0  0  0  0  0  0  0  0
   12.5120  -17.0674   20.6056 N   0  0  0  0  0  0  0  0  0  0  0  0
   10.7177  -16.1834   21.9154 C   0  0  0  0  0  0  0  0  0  0  0  0
   11.4664  -15.2870   22.3714 O   0  0  0  0  0  0  0  0  0  0  0  0
    6.5949  -13.5253   22.9118 C   0  0  0  0  0  0  0  0  0  0  0  0
    7.3315  -14.5929   22.1361 C   0  0  1  0  0  0  0  0  0  0  0  0
    7.5073  -14.1162   20.6829 C   0  0  0  0  0  0  0  0  0  0  0  0
    8.7095  -14.8719   22.7412 C   0  0  2  0  0  0  0  0  0  0  0  0
    9.3185  -15.9757   22.0022 N   0  0  0  0  0  0  0  0  0  0  0  0
    8.4636  -15.3401   24.1260 C   0  0  0  0  0  0  0  0  0  0  0  0
    8.5906  -16.6008   24.3355 O   0  0  0  0  0  0  0  0  0  0  0  0
    8.1132  -14.4637   25.1555 N   0  0  0  0  0  0  0  0  0  0  0  0
    7.5470  -13.1230   24.9310 C   0  0  0  0  0  0  0  0  0  0  0  0
    7.8077  -12.3899   26.2207 C   0  0  0  0  0  0  0  0  0  0  0  0
    8.7168  -13.3094   27.0221 C   0  0  0  0  0  0  0  0  0  0  0  0
    8.1822  -14.6680   26.5751 C   0  0  1  0  0  0  0  0  0  0  0  0
    6.7987  -14.8712   27.0945 C   0  0  0  0  0  0  0  0  0  0  0  0
    6.6563  -15.2070   28.2912 O   0  0  0  0  0  0  0  0  0  0  0  0
    5.6729  -14.7018   26.3019 O   0  0  0  0  0  0  0  0  0  0  0  0
  1  2  1  0
  2  3  2  0
  4  2  1  0
  4  5  1  0
  5  6  1  1
  7  5  1  0
  7  8  2  0
 10  9  1  1
 10 11  1  0
 10 12  1  0
 12 13  1  6
 13  7  1  0
 14 12  1  0
 15 14  2  0
 16 14  1  0
 16 17  1  0
 18 17  1  0
 19 18  1  0
 19 20  1  0
 20 16  1  0
 20 21  1  1
 21 23  1  0
 22 21  2  0
M  END
$$$$
