NVP.pdb
     RDKit          3D

 23 23  0  0  1  0  0  0  0  0999 V2000
    9.0215  -17.7887   19.3022 N   0  0  0  0  0  0  0  0  0  0  0  0
    9.0763  -18.2093   20.6314 C   0  0  0  0  0  0  0  0  0  0  0  0
    8.7489  -19.4012   20.8926 O   0  0  0  0  0  0  0  0  0  0  0  0
    9.4869  -17.3825   21.7823 C   0  0  0  0  0  0  0  0  0  0  0  0
    9.0683  -15.9452   21.6712 C   0  0  2  0  0  0  0  0  0  0  0  0
    9.7199  -15.2707   20.5558 N   0  0  0  0  0  0  0  0  0  0  0  0
    9.2651  -15.1731   22.9010 C   0  0  0  0  0  0  0  0  0  0  0  0
   10.3824  -14.6703   23.1674 O   0  0  0  0  0  0  0  0  0  0  0  0
    7.1323  -13.3974   27.0850 C   0  0  0  0  0  0  0  0  0  0  0  0
    7.0477  -13.8743   25.6533 C   0  0  1  0  0  0  0  0  0  0  0  0
    6.5698  -12.7071   24.7704 C   0  0  0  0  0  0  0  0  0  0  0  0
    8.4073  -14.3612   25.1460 C   0  0  2  0  0  0  0  0  0  0  0  0
    8.2146  -14.9649   23.8293 N   0  0  0  0  0  0  0  0  0  0  0  0
    8.8323  -15.4354   26.0748 C   0  0  0  0  0  0  0  0  0  0  0  0
    8.5197  -16.6362   25.7433 O   0  0  0  0  0  0  0  0  0  0  0  0
    9.5371  -15.1658   27.2501 N   0  0  0  0  0  0  0  0  0  0  0  0
    9.2929  -13.9868   28.0980 C   0  0  0  0  0  0  0  0  0  0  0  0
   10.5555  -13.8440   28.9066 C   0  0  0  0  0  0  0  0  0  0  0  0
   11.5329  -14.8352   28.2932 C   0  0  0  0  0  0  0  0  0  0  0  0
   10.5659  -15.9429   27.8820 C   0  0  1  0  0  0  0  0  0  0  0  0
    9.9916  -16.5982   29.0928 C   0  0  0  0  0  0  0  0  0  0  0  0
    8.8154  -16.3214   29.4170 O   0  0  0  0  0  0  0  0  0  0  0  0
   10.7116  -17.4973   29.8657 O   0  0  0  0  0  0  0  0  0  0  0  0
  1  2  1  0
  2  3  2  0
  4  2  1  0
  4  5  1  0
  5  6  1  6
  7  5  1  0
  7  8  2  0
 10  9  1  1
 10 11  1  0
 10 12  1  0
 12 13  1  6
 13  7  1  0
 14 12  1  0
 15 14  2  0
 16 14  1  0
 16 17  1  0
 18 17  1  0
 19 18  1  0
 19 20  1  0
 20 16  1  0
 20 21  1  1
 21 23  1  0
 22 21  2  0
M  END
$$$$
