NVP.pdb
     RDKit          3D

 23 23  0  0  1  0  0  0  0  0999 V2000
   10.1012  -20.4770   20.8300 N   0  0  0  0  0  0  0  0  0  0  0  0
   10.0783  -20.1361   22.1827 C   0  0  0  0  0  0  0  0  0  0  0  0
    9.8204  -21.0448   23.0215 O   0  0  0  0  0  0  0  0  0  0  0  0
   10.3307  -18.7930   22.7389 C   0  0  0  0  0  0  0  0  0  0  0  0
   10.5271  -17.7349   21.6923 C   0  0  2  0  0  0  0  0  0  0  0  0
   11.8529  -17.7999   21.0911 N   0  0  0  0  0  0  0  0  0  0  0  0
   10.2644  -16.3740   22.1679 C   0  0  0  0  0  0  0  0  0  0  0  0
   11.1464  -15.7323   22.7861 O   0  0  0  0  0  0  0  0  0  0  0  0
    7.0136  -12.5617   22.3359 C   0  0  0  0  0  0  0  0  0  0  0  0
    7.5687  -13.8088   21.6872 C   0  0  1  0  0  0  0  0  0  0  0  0
    8.1757  -13.4292   20.3242 C   0  0  0  0  0  0  0  0  0  0  0  0
    8.6519  -14.4543   22.5549 C   0  0  2  0  0  0  0  0  0  0  0  0
    9.0184  -15.7339   21.9520 N   0  0  0  0  0  0  0  0  0  0  0  0
    8.0153  -14.7399   23.8627 C   0  0  0  0  0  0  0  0  0  0  0  0
    7.5581  -15.9284   24.0299 O   0  0  0  0  0  0  0  0  0  0  0  0
    7.9148  -13.7743   24.8669 N   0  0  0  0  0  0  0  0  0  0  0  0
    8.2590  -12.3555   24.6746 C   0  0  0  0  0  0  0  0  0  0  0  0
    8.4877  -11.8372   26.0702 C   0  0  0  0  0  0  0  0  0  0  0  0
    8.4748  -13.0722   26.9583 C   0  0  0  0  0  0  0  0  0  0  0  0
    7.4470  -13.9231   26.2163 C   0  0  1  0  0  0  0  0  0  0  0  0
    6.0946  -13.3028   26.3223 C   0  0  0  0  0  0  0  0  0  0  0  0
    5.4231  -13.5138   27.3566 O   0  0  0  0  0  0  0  0  0  0  0  0
    5.5599  -12.5058   25.3207 O   0  0  0  0  0  0  0  0  0  0  0  0
  1  2  1  0
  2  3  2  0
  4  2  1  0
  4  5  1  0
  5  6  1  1
  7  5  1  0
  7  8  2  0
 10  9  1  1
 10 11  1  0
 10 12  1  0
 12 13  1  6
 13  7  1  0
 14 12  1  0
 15 14  2  0
 16 14  1  0
 16 17  1  0
 18 17  1  0
 19 18  1  0
 19 20  1  0
 20 16  1  0
 20 21  1  6
 21 23  1  0
 22 21  2  0
M  END
$$$$
