NVP.pdb
     RDKit          3D

 23 23  0  0  1  0  0  0  0  0999 V2000
   11.2088  -19.1900   20.3376 N   0  0  0  0  0  0  0  0  0  0  0  0
   10.0746  -18.7063   20.9905 C   0  0  0  0  0  0  0  0  0  0  0  0
    8.9418  -19.0526   20.5514 O   0  0  0  0  0  0  0  0  0  0  0  0
   10.0695  -17.8135   22.1651 C   0  0  0  0  0  0  0  0  0  0  0  0
    9.5622  -16.4319   21.8694 C   0  0  2  0  0  0  0  0  0  0  0  0
   10.2570  -15.8241   20.7418 N   0  0  0  0  0  0  0  0  0  0  0  0
    9.5996  -15.5270   23.0213 C   0  0  0  0  0  0  0  0  0  0  0  0
   10.6616  -14.9409   23.3385 O   0  0  0  0  0  0  0  0  0  0  0  0
    6.9950  -13.5833   26.8510 C   0  0  0  0  0  0  0  0  0  0  0  0
    7.0758  -14.1214   25.4410 C   0  0  1  0  0  0  0  0  0  0  0  0
    6.6672  -13.0061   24.4616 C   0  0  0  0  0  0  0  0  0  0  0  0
    8.4933  -14.5897   25.1027 C   0  0  2  0  0  0  0  0  0  0  0  0
    8.4519  -15.2792   23.8150 N   0  0  0  0  0  0  0  0  0  0  0  0
    8.8538  -15.5893   26.1362 C   0  0  0  0  0  0  0  0  0  0  0  0
    8.5721  -16.8141   25.8714 O   0  0  0  0  0  0  0  0  0  0  0  0
    9.4691  -15.2281   27.3369 N   0  0  0  0  0  0  0  0  0  0  0  0
    9.1660  -13.9876   28.0703 C   0  0  0  0  0  0  0  0  0  0  0  0
   10.3646  -13.7798   28.9583 C   0  0  0  0  0  0  0  0  0  0  0  0
   11.3819  -14.8133   28.4987 C   0  0  0  0  0  0  0  0  0  0  0  0
   10.4446  -15.9517   28.1027 C   0  0  1  0  0  0  0  0  0  0  0  0
    9.7783  -16.5127   29.3137 C   0  0  0  0  0  0  0  0  0  0  0  0
   10.4499  -17.2402   30.0784 O   0  0  0  0  0  0  0  0  0  0  0  0
    8.4495  -16.2572   29.6187 O   0  0  0  0  0  0  0  0  0  0  0  0
  1  2  1  0
  2  3  2  0
  4  2  1  0
  4  5  1  0
  5  6  1  6
  7  5  1  0
  7  8  2  0
 10  9  1  1
 10 11  1  0
 10 12  1  0
 12 13  1  6
 13  7  1  0
 14 12  1  0
 15 14  2  0
 16 14  1  0
 16 17  1  0
 18 17  1  0
 19 18  1  0
 19 20  1  0
 20 16  1  0
 20 21  1  1
 21 23  1  0
 22 21  2  0
M  END
$$$$
