NVP.pdb
     RDKit          3D

 23 23  0  0  1  0  0  0  0  0999 V2000
   11.6611  -21.1748   18.1975 N   0  0  0  0  0  0  0  0  0  0  0  0
   10.6955  -20.1738   18.3085 C   0  0  0  0  0  0  0  0  0  0  0  0
    9.7611  -20.1510   17.4586 O   0  0  0  0  0  0  0  0  0  0  0  0
   10.6590  -19.1203   19.3408 C   0  0  0  0  0  0  0  0  0  0  0  0
   10.8736  -17.7373   18.7978 C   0  0  2  0  0  0  0  0  0  0  0  0
   12.2353  -17.5443   18.3161 N   0  0  0  0  0  0  0  0  0  0  0  0
   10.5243  -16.6696   19.7387 C   0  0  0  0  0  0  0  0  0  0  0  0
   11.3913  -16.1825   20.5021 O   0  0  0  0  0  0  0  0  0  0  0  0
    6.9068  -13.6692   21.4901 C   0  0  0  0  0  0  0  0  0  0  0  0
    7.5433  -14.4785   20.3837 C   0  0  1  0  0  0  0  0  0  0  0  0
    7.9880  -13.5210   19.2632 C   0  0  0  0  0  0  0  0  0  0  0  0
    8.7609  -15.2556   20.8902 C   0  0  2  0  0  0  0  0  0  0  0  0
    9.2087  -16.1493   19.8244 N   0  0  0  0  0  0  0  0  0  0  0  0
    8.2749  -16.0984   22.0086 C   0  0  0  0  0  0  0  0  0  0  0  0
    7.9329  -17.3007   21.7132 O   0  0  0  0  0  0  0  0  0  0  0  0
    8.1910  -15.6197   23.3180 N   0  0  0  0  0  0  0  0  0  0  0  0
    8.1051  -14.1904   23.6622 C   0  0  0  0  0  0  0  0  0  0  0  0
    8.5409  -14.1294   25.1027 C   0  0  0  0  0  0  0  0  0  0  0  0
    9.0659  -15.5221   25.4170 C   0  0  0  0  0  0  0  0  0  0  0  0
    8.1334  -16.3610   24.5464 C   0  0  1  0  0  0  0  0  0  0  0  0
    6.7405  -16.2964   25.0763 C   0  0  0  0  0  0  0  0  0  0  0  0
    5.9358  -15.5041   24.5379 O   0  0  0  0  0  0  0  0  0  0  0  0
    6.3101  -17.0791   26.1376 O   0  0  0  0  0  0  0  0  0  0  0  0
  1  2  1  0
  2  3  2  0
  4  2  1  0
  4  5  1  0
  5  6  1  1
  7  5  1  0
  7  8  2  0
 10  9  1  1
 10 11  1  0
 10 12  1  0
 12 13  1  6
 13  7  1  0
 14 12  1  0
 15 14  2  0
 16 14  1  0
 16 17  1  0
 18 17  1  0
 19 18  1  0
 19 20  1  0
 20 16  1  0
 20 21  1  1
 21 23  1  0
 22 21  2  0
M  END
$$$$
