NVP.pdb
     RDKit          3D

 23 23  0  0  1  0  0  0  0  0999 V2000
    9.0714  -16.2231   18.0969 N   0  0  0  0  0  0  0  0  0  0  0  0
    9.8903  -16.3256   19.2219 C   0  0  0  0  0  0  0  0  0  0  0  0
   10.7194  -17.2775   19.2700 O   0  0  0  0  0  0  0  0  0  0  0  0
    9.8818  -15.4138   20.3818 C   0  0  0  0  0  0  0  0  0  0  0  0
    9.5542  -16.0933   21.6797 C   0  0  2  0  0  0  0  0  0  0  0  0
    8.2845  -16.8058   21.6185 N   0  0  0  0  0  0  0  0  0  0  0  0
    9.5640  -15.1959   22.8381 C   0  0  0  0  0  0  0  0  0  0  0  0
   10.5197  -14.4065   23.0261 O   0  0  0  0  0  0  0  0  0  0  0  0
    7.1703  -13.5931   26.9336 C   0  0  0  0  0  0  0  0  0  0  0  0
    7.1754  -14.1677   25.5357 C   0  0  1  0  0  0  0  0  0  0  0  0
    6.5847  -13.1245   24.5698 C   0  0  0  0  0  0  0  0  0  0  0  0
    8.5940  -14.5219   25.0830 C   0  0  2  0  0  0  0  0  0  0  0  0
    8.5074  -15.1827   23.7826 N   0  0  0  0  0  0  0  0  0  0  0  0
    9.1011  -15.5157   26.0591 C   0  0  0  0  0  0  0  0  0  0  0  0
    8.9852  -16.7519   25.7305 O   0  0  0  0  0  0  0  0  0  0  0  0
    9.6774  -15.1372   27.2737 N   0  0  0  0  0  0  0  0  0  0  0  0
    9.2388  -13.9711   28.0588 C   0  0  0  0  0  0  0  0  0  0  0  0
   10.4106  -13.6654   28.9544 C   0  0  0  0  0  0  0  0  0  0  0  0
   11.5365  -14.5561   28.4513 C   0  0  0  0  0  0  0  0  0  0  0  0
   10.7329  -15.7763   28.0081 C   0  0  1  0  0  0  0  0  0  0  0  0
   10.1410  -16.4597   29.1946 C   0  0  0  0  0  0  0  0  0  0  0  0
   10.9095  -17.0527   29.9838 O   0  0  0  0  0  0  0  0  0  0  0  0
    8.7778  -16.4602   29.4509 O   0  0  0  0  0  0  0  0  0  0  0  0
  1  2  1  0
  2  3  2  0
  4  2  1  0
  4  5  1  0
  5  6  1  6
  7  5  1  0
  7  8  2  0
 10  9  1  1
 10 11  1  0
 10 12  1  0
 12 13  1  6
 13  7  1  0
 14 12  1  0
 15 14  2  0
 16 14  1  0
 16 17  1  0
 18 17  1  0
 19 18  1  0
 19 20  1  0
 20 16  1  0
 20 21  1  1
 21 23  1  0
 22 21  2  0
M  END
$$$$
