NVP.pdb
     RDKit          3D

 23 23  0  0  1  0  0  0  0  0999 V2000
   12.2773  -21.0169   21.6411 N   0  0  0  0  0  0  0  0  0  0  0  0
   11.8421  -19.7476   21.2587 C   0  0  0  0  0  0  0  0  0  0  0  0
   11.5219  -19.5671   20.0500 O   0  0  0  0  0  0  0  0  0  0  0  0
   11.7174  -18.5745   22.1447 C   0  0  0  0  0  0  0  0  0  0  0  0
   11.0883  -17.3834   21.4821 C   0  0  2  0  0  0  0  0  0  0  0  0
   11.9312  -16.8363   20.4268 N   0  0  0  0  0  0  0  0  0  0  0  0
   10.7065  -16.3189   22.4140 C   0  0  0  0  0  0  0  0  0  0  0  0
   11.5548  -15.4877   22.8159 O   0  0  0  0  0  0  0  0  0  0  0  0
    6.9936  -14.2737   25.1067 C   0  0  0  0  0  0  0  0  0  0  0  0
    7.4795  -15.1027   23.9401 C   0  0  1  0  0  0  0  0  0  0  0  0
    7.0890  -14.3921   22.6315 C   0  0  0  0  0  0  0  0  0  0  0  0
    8.9992  -15.2823   23.9777 C   0  0  2  0  0  0  0  0  0  0  0  0
    9.3797  -16.1857   22.8941 N   0  0  0  0  0  0  0  0  0  0  0  0
    9.3012  -15.9647   25.2585 C   0  0  0  0  0  0  0  0  0  0  0  0
    9.4005  -17.2445   25.2161 O   0  0  0  0  0  0  0  0  0  0  0  0
    9.4719  -15.2615   26.4530 N   0  0  0  0  0  0  0  0  0  0  0  0
    8.7760  -14.0023   26.7674 C   0  0  0  0  0  0  0  0  0  0  0  0
    9.6128  -13.3774   27.8527 C   0  0  0  0  0  0  0  0  0  0  0  0
   10.8692  -14.2320   27.9256 C   0  0  0  0  0  0  0  0  0  0  0  0
   10.2804  -15.6002   27.5903 C   0  0  1  0  0  0  0  0  0  0  0  0
    9.3844  -16.0573   28.6919 C   0  0  0  0  0  0  0  0  0  0  0  0
    8.1473  -15.9930   28.5174 O   0  0  0  0  0  0  0  0  0  0  0  0
    9.8724  -16.5477   29.8942 O   0  0  0  0  0  0  0  0  0  0  0  0
  1  2  1  0
  2  3  2  0
  4  2  1  0
  4  5  1  0
  5  6  1  6
  7  5  1  0
  7  8  2  0
 10  9  1  1
 10 11  1  0
 10 12  1  0
 12 13  1  6
 13  7  1  0
 14 12  1  0
 15 14  2  0
 16 14  1  0
 16 17  1  0
 18 17  1  0
 19 18  1  0
 19 20  1  0
 20 16  1  0
 20 21  1  1
 21 23  1  0
 22 21  2  0
M  END
$$$$
