NVP.pdb
     RDKit          3D

 23 23  0  0  1  0  0  0  0  0999 V2000
   10.3972  -18.5793   19.6370 N   0  0  0  0  0  0  0  0  0  0  0  0
   10.7268  -18.8605   20.9633 C   0  0  0  0  0  0  0  0  0  0  0  0
   11.1085  -20.0310   21.2465 O   0  0  0  0  0  0  0  0  0  0  0  0
   10.6719  -17.9065   22.0874 C   0  0  0  0  0  0  0  0  0  0  0  0
   10.0673  -16.5814   21.7239 C   0  0  2  0  0  0  0  0  0  0  0  0
   10.7632  -15.9502   20.6099 N   0  0  0  0  0  0  0  0  0  0  0  0
    9.9746  -15.6437   22.8461 C   0  0  0  0  0  0  0  0  0  0  0  0
   10.9339  -14.8866   23.1264 O   0  0  0  0  0  0  0  0  0  0  0  0
    7.0688  -13.8953   26.5404 C   0  0  0  0  0  0  0  0  0  0  0  0
    7.2835  -14.3859   25.1270 C   0  0  1  0  0  0  0  0  0  0  0  0
    6.8996  -13.2606   24.1491 C   0  0  0  0  0  0  0  0  0  0  0  0
    8.7433  -14.7796   24.8886 C   0  0  2  0  0  0  0  0  0  0  0  0
    8.8118  -15.5540   23.6514 N   0  0  0  0  0  0  0  0  0  0  0  0
    9.1135  -15.6822   26.0047 C   0  0  0  0  0  0  0  0  0  0  0  0
    9.0298  -16.9428   25.7737 O   0  0  0  0  0  0  0  0  0  0  0  0
    9.5336  -15.1967   27.2450 N   0  0  0  0  0  0  0  0  0  0  0  0
    8.9404  -14.0228   27.9074 C   0  0  0  0  0  0  0  0  0  0  0  0
    9.9896  -13.5853   28.8955 C   0  0  0  0  0  0  0  0  0  0  0  0
   11.2175  -14.4203   28.5651 C   0  0  0  0  0  0  0  0  0  0  0  0
   10.5457  -15.7173   28.1205 C   0  0  1  0  0  0  0  0  0  0  0  0
    9.8784  -16.3739   29.2819 C   0  0  0  0  0  0  0  0  0  0  0  0
   10.5970  -16.8886   30.1673 O   0  0  0  0  0  0  0  0  0  0  0  0
    8.4987  -16.4329   29.4129 O   0  0  0  0  0  0  0  0  0  0  0  0
  1  2  1  0
  2  3  2  0
  4  2  1  0
  4  5  1  0
  5  6  1  6
  7  5  1  0
  7  8  2  0
 10  9  1  1
 10 11  1  0
 10 12  1  0
 12 13  1  6
 13  7  1  0
 14 12  1  0
 15 14  2  0
 16 14  1  0
 16 17  1  0
 18 17  1  0
 19 18  1  0
 19 20  1  0
 20 16  1  0
 20 21  1  1
 21 23  1  0
 22 21  2  0
M  END
$$$$
