NVP.pdb
     RDKit          3D

 23 23  0  0  1  0  0  0  0  0999 V2000
   10.9673  -19.4705   20.2541 N   0  0  0  0  0  0  0  0  0  0  0  0
    9.9554  -18.8048   20.9466 C   0  0  0  0  0  0  0  0  0  0  0  0
    8.7579  -19.1280   20.7068 O   0  0  0  0  0  0  0  0  0  0  0  0
   10.1515  -17.7410   21.9499 C   0  0  0  0  0  0  0  0  0  0  0  0
    9.4451  -16.4594   21.6149 C   0  0  2  0  0  0  0  0  0  0  0  0
    9.9277  -15.8789   20.3684 N   0  0  0  0  0  0  0  0  0  0  0  0
    9.4973  -15.4566   22.6820 C   0  0  0  0  0  0  0  0  0  0  0  0
   10.4818  -14.6875   22.7877 O   0  0  0  0  0  0  0  0  0  0  0  0
    6.3501  -15.3667   25.6966 C   0  0  0  0  0  0  0  0  0  0  0  0
    7.1794  -14.1560   25.3352 C   0  0  1  0  0  0  0  0  0  0  0  0
    7.3007  -13.2514   26.5750 C   0  0  0  0  0  0  0  0  0  0  0  0
    8.5812  -14.5582   24.8703 C   0  0  2  0  0  0  0  0  0  0  0  0
    8.4510  -15.3156   23.6275 N   0  0  0  0  0  0  0  0  0  0  0  0
    9.1091  -15.4796   25.9046 C   0  0  0  0  0  0  0  0  0  0  0  0
    9.1615  -16.7238   25.5905 O   0  0  0  0  0  0  0  0  0  0  0  0
    9.5309  -15.0276   27.1570 N   0  0  0  0  0  0  0  0  0  0  0  0
    8.9157  -13.8936   27.8670 C   0  0  0  0  0  0  0  0  0  0  0  0
    9.9647  -13.4643   28.8589 C   0  0  0  0  0  0  0  0  0  0  0  0
   11.2095  -14.2551   28.4860 C   0  0  0  0  0  0  0  0  0  0  0  0
   10.5659  -15.5525   28.0026 C   0  0  1  0  0  0  0  0  0  0  0  0
    9.9290  -16.2669   29.1468 C   0  0  0  0  0  0  0  0  0  0  0  0
    8.6852  -16.2070   29.2668 O   0  0  0  0  0  0  0  0  0  0  0  0
   10.6633  -16.9899   30.0754 O   0  0  0  0  0  0  0  0  0  0  0  0
  1  2  1  0
  2  3  2  0
  4  2  1  0
  4  5  1  0
  5  6  1  6
  7  5  1  0
  7  8  2  0
 10  9  1  1
 10 11  1  0
 10 12  1  0
 12 13  1  6
 13  7  1  0
 14 12  1  0
 15 14  2  0
 16 14  1  0
 16 17  1  0
 18 17  1  0
 19 18  1  0
 19 20  1  0
 20 16  1  0
 20 21  1  1
 21 23  1  0
 22 21  2  0
M  END
$$$$
