TND.pdb
     RDKit          3D

 24 23  0  0  1  0  0  0  0  0999 V2000
   21.2771  -11.5443  -20.8776 C   0  0  0  0  0  0  0  0  0  0  0  0
   21.7033  -10.7640  -19.6589 C   0  0  1  0  0  0  0  0  0  0  0  0
   20.5412  -10.1904  -19.1292 O   0  0  0  0  0  0  0  0  0  0  0  0
   22.3008  -11.6675  -18.5900 C   0  0  2  0  0  0  0  0  0  0  0  0
   21.3368  -12.6393  -18.1417 N   0  0  0  0  0  0  0  0  0  0  0  0
   22.7637  -10.8775  -17.4221 C   0  0  0  0  0  0  0  0  0  0  0  0
   22.0526  -10.9755  -16.3722 O   0  0  0  0  0  0  0  0  0  0  0  0
   25.2264  -11.7553  -15.2202 N   0  0  0  0  0  0  0  0  0  0  0  0
   26.2345  -10.7844  -15.5355 C   0  0  0  0  0  0  0  0  0  0  0  0
   27.4054  -11.1444  -15.3117 O   0  0  0  0  0  0  0  0  0  0  0  0
   25.7754   -9.5054  -16.0743 C   0  0  0  0  0  0  0  0  0  0  0  0
   24.2912   -9.3380  -16.2252 C   0  0  2  0  0  0  0  0  0  0  0  0
   23.9034  -10.0702  -17.4463 N   0  0  0  0  0  0  0  0  0  0  0  0
   23.9495   -7.8972  -16.4156 C   0  0  0  0  0  0  0  0  0  0  0  0
   24.1139   -7.3930  -17.5488 O   0  0  0  0  0  0  0  0  0  0  0  0
   23.4497   -7.1006  -15.3525 N   0  0  0  0  0  0  0  0  0  0  0  0
   23.0020   -5.7346  -15.6817 C   0  0  1  0  0  0  0  0  0  0  0  0
   21.8492   -5.8143  -16.6448 C   0  0  0  0  0  0  0  0  0  0  0  0
   21.2398   -4.5206  -16.9728 C   0  0  0  0  0  0  0  0  0  0  0  0
   20.4680   -3.9025  -16.2126 O   0  0  0  0  0  0  0  0  0  0  0  0
   22.6116   -5.0502  -14.4308 C   0  0  0  0  0  0  0  0  0  0  0  0
   22.5871   -3.6953  -14.3209 O   0  0  0  0  0  0  0  0  0  0  0  0
   21.4988   -3.8878  -18.1966 O   0  0  0  0  0  0  0  0  0  0  0  0
   22.2934   -5.7430  -13.4372 O   0  0  0  0  0  0  0  0  0  0  0  0
  2  1  1  6
  2  4  1  0
  3  2  1  0
  4  5  1  1
  6  7  2  0
  6  4  1  0
  9  8  1  0
  9 10  2  0
 12 11  1  6
 11  9  1  0
 12 13  1  0
 13  6  1  0
 14 12  1  0
 15 14  2  0
 16 14  1  0
 17 21  1  0
 17 16  1  0
 17 18  1  6
 19 18  1  0
 20 19  2  0
 21 22  1  0
 23 19  1  0
 24 21  2  0
M  END
$$$$
