TND.pdb
     RDKit          3D

 24 23  0  0  1  0  0  0  0  0999 V2000
   17.9804  -12.9798  -17.4632 C   0  0  0  0  0  0  0  0  0  0  0  0
   19.0149  -12.2222  -16.6685 C   0  0  1  0  0  0  0  0  0  0  0  0
   20.0000  -13.1513  -16.3128 O   0  0  0  0  0  0  0  0  0  0  0  0
   19.6828  -11.1368  -17.5002 C   0  0  2  0  0  0  0  0  0  0  0  0
   20.3540  -11.7043  -18.6412 N   0  0  0  0  0  0  0  0  0  0  0  0
   20.6694  -10.3775  -16.6923 C   0  0  0  0  0  0  0  0  0  0  0  0
   20.2400   -9.9154  -15.5879 O   0  0  0  0  0  0  0  0  0  0  0  0
   25.5249  -12.0604  -16.4700 N   0  0  0  0  0  0  0  0  0  0  0  0
   24.8941  -10.9869  -15.7573 C   0  0  0  0  0  0  0  0  0  0  0  0
   24.9189  -11.0880  -14.5164 O   0  0  0  0  0  0  0  0  0  0  0  0
   24.3050   -9.9164  -16.5598 C   0  0  0  0  0  0  0  0  0  0  0  0
   22.9202   -9.4800  -16.1784 C   0  0  2  0  0  0  0  0  0  0  0  0
   21.9907  -10.1688  -17.0944 N   0  0  0  0  0  0  0  0  0  0  0  0
   22.7681   -8.0083  -16.3774 C   0  0  0  0  0  0  0  0  0  0  0  0
   22.7482   -7.5665  -17.5479 O   0  0  0  0  0  0  0  0  0  0  0  0
   22.6475   -7.1142  -15.2817 N   0  0  0  0  0  0  0  0  0  0  0  0
   22.4283   -5.6890  -15.5907 C   0  0  1  0  0  0  0  0  0  0  0  0
   21.1454   -5.5455  -16.3631 C   0  0  0  0  0  0  0  0  0  0  0  0
   20.7421   -4.1587  -16.6208 C   0  0  0  0  0  0  0  0  0  0  0  0
   21.3758   -3.3749  -17.3556 O   0  0  0  0  0  0  0  0  0  0  0  0
   22.3799   -4.9316  -14.3221 C   0  0  0  0  0  0  0  0  0  0  0  0
   22.3555   -5.5460  -13.1094 O   0  0  0  0  0  0  0  0  0  0  0  0
   19.5866   -3.6204  -16.0373 O   0  0  0  0  0  0  0  0  0  0  0  0
   22.3597   -3.6802  -14.3661 O   0  0  0  0  0  0  0  0  0  0  0  0
  2  1  1  6
  2  4  1  0
  3  2  1  0
  4  5  1  6
  6  7  2  0
  6  4  1  0
  9  8  1  0
  9 10  2  0
 12 11  1  6
 11  9  1  0
 12 13  1  0
 13  6  1  0
 14 12  1  0
 15 14  2  0
 16 14  1  0
 17 21  1  0
 17 16  1  0
 17 18  1  1
 19 18  1  0
 20 19  2  0
 21 22  1  0
 23 19  1  0
 24 21  2  0
M  END
$$$$
