TND.pdb
     RDKit          3D

 24 23  0  0  1  0  0  0  0  0999 V2000
   17.4893   -7.7143  -18.2345 C   0  0  0  0  0  0  0  0  0  0  0  0
   16.8571   -8.8128  -17.4165 C   0  0  1  0  0  0  0  0  0  0  0  0
   15.9573   -9.4704  -18.2641 O   0  0  0  0  0  0  0  0  0  0  0  0
   17.8849   -9.8346  -16.9523 C   0  0  2  0  0  0  0  0  0  0  0  0
   17.2449  -10.9430  -16.2918 N   0  0  0  0  0  0  0  0  0  0  0  0
   18.8631   -9.2209  -16.0200 C   0  0  0  0  0  0  0  0  0  0  0  0
   18.4195   -8.9375  -14.8622 O   0  0  0  0  0  0  0  0  0  0  0  0
   21.3343  -11.0168  -14.3429 N   0  0  0  0  0  0  0  0  0  0  0  0
   22.5064  -10.4975  -14.9872 C   0  0  0  0  0  0  0  0  0  0  0  0
   23.4813  -11.2717  -15.0176 O   0  0  0  0  0  0  0  0  0  0  0  0
   22.4197   -9.1407  -15.5241 C   0  0  0  0  0  0  0  0  0  0  0  0
   21.1098   -8.4311  -15.3388 C   0  0  2  0  0  0  0  0  0  0  0  0
   20.1913   -8.9606  -16.3652 N   0  0  0  0  0  0  0  0  0  0  0  0
   21.2772   -6.9660  -15.5722 C   0  0  0  0  0  0  0  0  0  0  0  0
   21.8191   -6.5926  -16.6364 O   0  0  0  0  0  0  0  0  0  0  0  0
   20.8406   -6.0035  -14.6249 N   0  0  0  0  0  0  0  0  0  0  0  0
   21.0871   -4.5837  -14.9384 C   0  0  1  0  0  0  0  0  0  0  0  0
   19.9881   -3.7502  -14.3381 C   0  0  0  0  0  0  0  0  0  0  0  0
   18.6607   -3.9852  -14.9170 C   0  0  0  0  0  0  0  0  0  0  0  0
   18.4166   -3.9388  -16.1394 O   0  0  0  0  0  0  0  0  0  0  0  0
   22.4087   -4.2020  -14.3971 C   0  0  0  0  0  0  0  0  0  0  0  0
   22.9718   -2.9890  -14.6425 O   0  0  0  0  0  0  0  0  0  0  0  0
   17.5586   -4.2840  -14.1037 O   0  0  0  0  0  0  0  0  0  0  0  0
   23.0319   -5.0254  -13.6885 O   0  0  0  0  0  0  0  0  0  0  0  0
  2  1  1  6
  2  4  1  0
  3  2  1  0
  4  5  1  1
  6  7  2  0
  6  4  1  0
  9  8  1  0
  9 10  2  0
 12 11  1  6
 11  9  1  0
 12 13  1  0
 13  6  1  0
 14 12  1  0
 15 14  2  0
 16 14  1  0
 17 21  1  0
 17 16  1  0
 17 18  1  1
 19 18  1  0
 20 19  2  0
 21 22  1  0
 23 19  1  0
 24 21  2  0
M  END
$$$$
