TND.pdb
     RDKit          3D

 24 23  0  0  1  0  0  0  0  0999 V2000
   10.8159   -8.5265  -12.8137 C   0  0  0  0  0  0  0  0  0  0  0  0
   10.7591   -9.0965  -11.4182 C   0  0  1  0  0  0  0  0  0  0  0  0
    9.4462   -9.5430  -11.2256 O   0  0  0  0  0  0  0  0  0  0  0  0
   11.6826  -10.2956  -11.2595 C   0  0  2  0  0  0  0  0  0  0  0  0
   11.5193  -10.9013   -9.9630 N   0  0  0  0  0  0  0  0  0  0  0  0
   13.1031   -9.9005  -11.4286 C   0  0  0  0  0  0  0  0  0  0  0  0
   13.5812   -9.1548  -10.5158 O   0  0  0  0  0  0  0  0  0  0  0  0
   16.0867  -12.0371  -11.1475 N   0  0  0  0  0  0  0  0  0  0  0  0
   16.4404  -12.0504  -12.5379 C   0  0  0  0  0  0  0  0  0  0  0  0
   17.0440  -13.0699  -12.9213 O   0  0  0  0  0  0  0  0  0  0  0  0
   16.0566  -10.8828  -13.3292 C   0  0  0  0  0  0  0  0  0  0  0  0
   15.2764   -9.8181  -12.6142 C   0  0  2  0  0  0  0  0  0  0  0  0
   13.8879  -10.3069  -12.5102 N   0  0  0  0  0  0  0  0  0  0  0  0
   15.2695   -8.5569  -13.4130 C   0  0  0  0  0  0  0  0  0  0  0  0
   14.3811   -8.4093  -14.2817 O   0  0  0  0  0  0  0  0  0  0  0  0
   16.2361   -7.5377  -13.2095 N   0  0  0  0  0  0  0  0  0  0  0  0
   16.1277   -6.3248  -14.0412 C   0  0  1  0  0  0  0  0  0  0  0  0
   14.8296   -5.6309  -13.7309 C   0  0  0  0  0  0  0  0  0  0  0  0
   14.6988   -4.2933  -14.3194 C   0  0  0  0  0  0  0  0  0  0  0  0
   14.9390   -4.0329  -15.5153 O   0  0  0  0  0  0  0  0  0  0  0  0
   17.2860   -5.4511  -13.7574 C   0  0  0  0  0  0  0  0  0  0  0  0
   17.6137   -4.3977  -14.5520 O   0  0  0  0  0  0  0  0  0  0  0  0
   14.2839   -3.1997  -13.5465 O   0  0  0  0  0  0  0  0  0  0  0  0
   17.9907   -5.6906  -12.7501 O   0  0  0  0  0  0  0  0  0  0  0  0
  2  1  1  6
  2  4  1  0
  3  2  1  0
  4  5  1  1
  6  7  2  0
  6  4  1  0
  9  8  1  0
  9 10  2  0
 12 11  1  6
 11  9  1  0
 12 13  1  0
 13  6  1  0
 14 12  1  0
 15 14  2  0
 16 14  1  0
 17 21  1  0
 17 16  1  0
 17 18  1  1
 19 18  1  0
 20 19  2  0
 21 22  1  0
 23 19  1  0
 24 21  2  0
M  END
$$$$
