TND.pdb
     RDKit          3D

 24 23  0  0  1  0  0  0  0  0999 V2000
   23.7911   -9.6850  -17.3375 C   0  0  0  0  0  0  0  0  0  0  0  0
   23.1480  -10.2580  -18.5760 C   0  0  1  0  0  0  0  0  0  0  0  0
   24.1158  -11.0632  -19.1887 O   0  0  0  0  0  0  0  0  0  0  0  0
   21.9580  -11.1436  -18.2367 C   0  0  2  0  0  0  0  0  0  0  0  0
   21.4493  -11.7945  -19.4166 N   0  0  0  0  0  0  0  0  0  0  0  0
   20.8654  -10.3538  -17.6162 C   0  0  0  0  0  0  0  0  0  0  0  0
   20.2725   -9.5324  -18.3852 O   0  0  0  0  0  0  0  0  0  0  0  0
   17.5034  -11.2853  -16.8284 N   0  0  0  0  0  0  0  0  0  0  0  0
   17.6251  -11.3279  -15.3996 C   0  0  0  0  0  0  0  0  0  0  0  0
   16.8594  -12.1250  -14.8260 O   0  0  0  0  0  0  0  0  0  0  0  0
   18.6190  -10.4435  -14.7939 C   0  0  0  0  0  0  0  0  0  0  0  0
   19.4333   -9.6074  -15.7380 C   0  0  2  0  0  0  0  0  0  0  0  0
   20.4912  -10.4838  -16.2768 N   0  0  0  0  0  0  0  0  0  0  0  0
   20.0863   -8.4839  -15.0029 C   0  0  0  0  0  0  0  0  0  0  0  0
   21.0200   -8.7534  -14.2148 O   0  0  0  0  0  0  0  0  0  0  0  0
   19.6747   -7.1368  -15.1779 N   0  0  0  0  0  0  0  0  0  0  0  0
   20.4182   -6.0995  -14.4389 C   0  0  1  0  0  0  0  0  0  0  0  0
   21.7427   -5.8696  -15.1140 C   0  0  0  0  0  0  0  0  0  0  0  0
   22.5189   -4.7516  -14.5662 C   0  0  0  0  0  0  0  0  0  0  0  0
   22.8237   -4.6403  -13.3619 O   0  0  0  0  0  0  0  0  0  0  0  0
   19.6066   -4.8643  -14.4117 C   0  0  0  0  0  0  0  0  0  0  0  0
   18.4412   -4.7451  -15.1019 O   0  0  0  0  0  0  0  0  0  0  0  0
   22.9752   -3.7140  -15.3912 O   0  0  0  0  0  0  0  0  0  0  0  0
   20.0072   -3.8932  -13.7298 O   0  0  0  0  0  0  0  0  0  0  0  0
  2  1  1  1
  2  4  1  0
  3  2  1  0
  4  5  1  6
  6  7  2  0
  6  4  1  0
  9  8  1  0
  9 10  2  0
 12 11  1  1
 11  9  1  0
 12 13  1  0
 13  6  1  0
 14 12  1  0
 15 14  2  0
 16 14  1  0
 17 21  1  0
 17 16  1  0
 17 18  1  6
 19 18  1  0
 20 19  2  0
 21 22  1  0
 23 19  1  0
 24 21  2  0
M  END
$$$$
