KPT.pdb
     RDKit          3D

 24 24  0  0  1  0  0  0  0  0999 V2000
    8.4409  -14.7479   21.0607 N   0  0  0  0  0  0  0  0  0  0  0  0
    7.5147  -14.9177   22.1821 C   0  0  1  0  0  0  0  0  0  0  0  0
    7.0694  -16.3663   22.2480 C   0  0  0  0  0  0  0  0  0  0  0  0
    6.4725  -16.8602   20.9887 C   0  0  0  0  0  0  0  0  0  0  0  0
    6.0176  -18.2608   20.9262 C   0  0  0  0  0  0  0  0  0  0  0  0
    5.5314  -18.7468   19.6072 C   0  0  0  0  0  0  0  0  0  0  0  0
    5.2299  -20.1870   19.6497 N   0  0  0  0  0  0  0  0  0  0  0  0
    8.2755  -14.5205   23.3855 C   0  0  0  0  0  0  0  0  0  0  0  0
    9.4953  -14.8821   23.5311 O   0  0  0  0  0  0  0  0  0  0  0  0
    7.7317  -13.7402   24.4231 N   0  0  0  0  0  0  0  0  0  0  0  0
    6.4423  -13.0839   24.3756 C   0  0  0  0  0  0  0  0  0  0  0  0
    6.0398  -13.1809   25.8561 C   0  0  0  0  0  0  0  0  0  0  0  0
    7.3437  -12.6397   26.4619 C   0  0  0  0  0  0  0  0  0  0  0  0
    8.3549  -13.4520   25.7273 C   0  0  1  0  0  0  0  0  0  0  0  0
    8.6954  -14.7171   26.4256 C   0  0  0  0  0  0  0  0  0  0  0  0
    7.8896  -15.6747   26.3495 O   0  0  0  0  0  0  0  0  0  0  0  0
   12.4983  -15.0055   28.2470 C   0  0  0  0  0  0  0  0  0  0  0  0
   11.9063  -16.1356   27.4711 C   0  0  1  0  0  0  0  0  0  0  0  0
   12.3880  -17.3399   28.0254 O   0  0  0  0  0  0  0  0  0  0  0  0
   10.3945  -16.1591   27.6001 C   0  0  2  0  0  0  0  0  0  0  0  0
    9.8832  -14.8902   27.1699 N   0  0  0  0  0  0  0  0  0  0  0  0
   10.0798  -16.4208   29.0272 C   0  0  0  0  0  0  0  0  0  0  0  0
   10.2356  -17.6822   29.5822 O   0  0  0  0  0  0  0  0  0  0  0  0
    9.6634  -15.4902   29.7573 O   0  0  0  0  0  0  0  0  0  0  0  0
  2  1  1  6
  3  2  1  0
  4  3  1  0
  5  6  1  0
  5  4  1  0
  7  6  1  0
  8  9  2  0
  8  2  1  0
 10  8  1  0
 11 10  1  0
 12 13  1  0
 12 11  1  0
 13 14  1  0
 14 10  1  0
 14 15  1  1
 16 15  2  0
 18 17  1  1
 19 18  1  0
 20 18  1  0
 20 21  1  1
 21 15  1  0
 22 23  1  0
 22 20  1  0
 24 22  2  0
M  END
$$$$
