KPT.pdb
     RDKit          3D

 24 24  0  0  1  0  0  0  0  0999 V2000
    8.5332  -16.9596   16.6063 N   0  0  0  0  0  0  0  0  0  0  0  0
    7.6719  -16.2510   17.5550 C   0  0  1  0  0  0  0  0  0  0  0  0
    6.5947  -17.1954   18.0543 C   0  0  0  0  0  0  0  0  0  0  0  0
    6.8359  -18.6099   17.6981 C   0  0  0  0  0  0  0  0  0  0  0  0
    7.0119  -19.5901   18.7847 C   0  0  0  0  0  0  0  0  0  0  0  0
    7.0758  -21.0224   18.3883 C   0  0  0  0  0  0  0  0  0  0  0  0
    7.4168  -21.8770   19.5373 N   0  0  0  0  0  0  0  0  0  0  0  0
    8.5661  -15.8102   18.6463 C   0  0  0  0  0  0  0  0  0  0  0  0
    9.6398  -16.4575   18.9073 O   0  0  0  0  0  0  0  0  0  0  0  0
    8.3107  -14.6827   19.4492 N   0  0  0  0  0  0  0  0  0  0  0  0
    7.2279  -13.7454   19.2383 C   0  0  0  0  0  0  0  0  0  0  0  0
    6.9192  -13.3634   20.6951 C   0  0  0  0  0  0  0  0  0  0  0  0
    8.3568  -13.0488   21.1365 C   0  0  0  0  0  0  0  0  0  0  0  0
    9.0767  -14.2530   20.6328 C   0  0  1  0  0  0  0  0  0  0  0  0
    9.1363  -15.3488   21.6327 C   0  0  0  0  0  0  0  0  0  0  0  0
    8.0618  -15.8848   21.9935 O   0  0  0  0  0  0  0  0  0  0  0  0
   11.0267  -18.4785   21.3672 C   0  0  0  0  0  0  0  0  0  0  0  0
   11.4496  -17.8849   22.6704 C   0  0  1  0  0  0  0  0  0  0  0  0
   12.6626  -17.1966   22.4586 O   0  0  0  0  0  0  0  0  0  0  0  0
   10.4396  -16.8659   23.1644 C   0  0  2  0  0  0  0  0  0  0  0  0
   10.3459  -15.8137   22.1945 N   0  0  0  0  0  0  0  0  0  0  0  0
   10.9279  -16.3625   24.4729 C   0  0  0  0  0  0  0  0  0  0  0  0
   10.8470  -17.1363   25.6210 O   0  0  0  0  0  0  0  0  0  0  0  0
   11.4266  -15.2149   24.5556 O   0  0  0  0  0  0  0  0  0  0  0  0
  2  1  1  6
  3  2  1  0
  4  3  1  0
  5  6  1  0
  5  4  1  0
  7  6  1  0
  8  9  2  0
  8  2  1  0
 10  8  1  0
 11 10  1  0
 12 13  1  0
 12 11  1  0
 13 14  1  0
 14 10  1  0
 14 15  1  1
 16 15  2  0
 18 17  1  6
 19 18  1  0
 20 18  1  0
 20 21  1  6
 21 15  1  0
 22 23  1  0
 22 20  1  0
 24 22  2  0
M  END
$$$$
