KPT.pdb
     RDKit          3D

 24 24  0  0  1  0  0  0  0  0999 V2000
    8.2884  -14.5442   21.4001 N   0  0  0  0  0  0  0  0  0  0  0  0
    7.4825  -14.9628   22.5488 C   0  0  1  0  0  0  0  0  0  0  0  0
    7.1532  -16.4379   22.4177 C   0  0  0  0  0  0  0  0  0  0  0  0
    5.7149  -16.7401   22.5797 C   0  0  0  0  0  0  0  0  0  0  0  0
    5.0665  -17.6282   21.5982 C   0  0  0  0  0  0  0  0  0  0  0  0
    3.6250  -17.9238   21.8151 C   0  0  0  0  0  0  0  0  0  0  0  0
    3.0685  -18.7039   20.6977 N   0  0  0  0  0  0  0  0  0  0  0  0
    8.3177  -14.6891   23.7372 C   0  0  0  0  0  0  0  0  0  0  0  0
    9.4488  -15.2714   23.8840 O   0  0  0  0  0  0  0  0  0  0  0  0
    7.9425  -13.7961   24.7584 N   0  0  0  0  0  0  0  0  0  0  0  0
    6.8175  -12.8877   24.6907 C   0  0  0  0  0  0  0  0  0  0  0  0
    6.3965  -12.8750   26.1692 C   0  0  0  0  0  0  0  0  0  0  0  0
    7.7814  -12.6057   26.7773 C   0  0  0  0  0  0  0  0  0  0  0  0
    8.6058  -13.6218   26.0631 C   0  0  1  0  0  0  0  0  0  0  0  0
    8.6734  -14.9184   26.7831 C   0  0  0  0  0  0  0  0  0  0  0  0
    7.5993  -15.5064   27.0528 O   0  0  0  0  0  0  0  0  0  0  0  0
   10.5965  -18.0364   25.9796 C   0  0  0  0  0  0  0  0  0  0  0  0
   11.0124  -17.6259   27.3538 C   0  0  1  0  0  0  0  0  0  0  0  0
   12.2163  -16.8993   27.2423 O   0  0  0  0  0  0  0  0  0  0  0  0
    9.9895  -16.6991   27.9843 C   0  0  2  0  0  0  0  0  0  0  0  0
    9.8900  -15.5179   27.1772 N   0  0  0  0  0  0  0  0  0  0  0  0
   10.4662  -16.3870   29.3551 C   0  0  0  0  0  0  0  0  0  0  0  0
   10.4841  -17.3516   30.3514 O   0  0  0  0  0  0  0  0  0  0  0  0
   10.8638  -15.2302   29.6314 O   0  0  0  0  0  0  0  0  0  0  0  0
  2  1  1  6
  3  2  1  0
  4  3  1  0
  5  6  1  0
  5  4  1  0
  7  6  1  0
  8  9  2  0
  8  2  1  0
 10  8  1  0
 11 10  1  0
 12 13  1  0
 12 11  1  0
 13 14  1  0
 14 10  1  0
 14 15  1  1
 16 15  2  0
 18 17  1  6
 19 18  1  0
 20 18  1  0
 20 21  1  6
 21 15  1  0
 22 23  1  0
 22 20  1  0
 24 22  2  0
M  END
$$$$
