KPT.pdb
     RDKit          3D

 24 24  0  0  1  0  0  0  0  0999 V2000
    9.1733  -16.9935   16.7394 N   0  0  0  0  0  0  0  0  0  0  0  0
    8.1799  -16.3284   17.5849 C   0  0  1  0  0  0  0  0  0  0  0  0
    7.0996  -17.3234   17.9645 C   0  0  0  0  0  0  0  0  0  0  0  0
    7.6267  -18.5767   18.5454 C   0  0  0  0  0  0  0  0  0  0  0  0
    6.6722  -19.6342   18.9238 C   0  0  0  0  0  0  0  0  0  0  0  0
    7.2399  -20.8436   19.5776 C   0  0  0  0  0  0  0  0  0  0  0  0
    6.1882  -21.8291   19.8769 N   0  0  0  0  0  0  0  0  0  0  0  0
    8.9260  -15.8485   18.7672 C   0  0  0  0  0  0  0  0  0  0  0  0
    9.9923  -16.4464   19.1486 O   0  0  0  0  0  0  0  0  0  0  0  0
    8.5315  -14.7350   19.5325 N   0  0  0  0  0  0  0  0  0  0  0  0
    7.4112  -13.8727   19.2214 C   0  0  0  0  0  0  0  0  0  0  0  0
    6.9581  -13.5021   20.6429 C   0  0  0  0  0  0  0  0  0  0  0  0
    8.3302  -13.0903   21.1977 C   0  0  0  0  0  0  0  0  0  0  0  0
    9.1666  -14.2477   20.7701 C   0  0  1  0  0  0  0  0  0  0  0  0
    9.2142  -15.3304   21.7847 C   0  0  0  0  0  0  0  0  0  0  0  0
    8.1589  -15.9603   22.0332 O   0  0  0  0  0  0  0  0  0  0  0  0
   11.3454  -18.2805   21.7100 C   0  0  0  0  0  0  0  0  0  0  0  0
   11.6035  -17.6684   23.0473 C   0  0  1  0  0  0  0  0  0  0  0  0
   12.7736  -16.8870   22.9466 O   0  0  0  0  0  0  0  0  0  0  0  0
   10.4777  -16.7346   23.4514 C   0  0  2  0  0  0  0  0  0  0  0  0
   10.3916  -15.6822   22.4811 N   0  0  0  0  0  0  0  0  0  0  0  0
   10.8059  -16.2096   24.8007 C   0  0  0  0  0  0  0  0  0  0  0  0
   10.7490  -17.0196   25.9250 O   0  0  0  0  0  0  0  0  0  0  0  0
   11.1432  -15.0100   24.9408 O   0  0  0  0  0  0  0  0  0  0  0  0
  2  1  1  6
  3  2  1  0
  4  3  1  0
  5  6  1  0
  5  4  1  0
  7  6  1  0
  8  9  2  0
  8  2  1  0
 10  8  1  0
 11 10  1  0
 12 13  1  0
 12 11  1  0
 13 14  1  0
 14 10  1  0
 14 15  1  1
 16 15  2  0
 18 17  1  6
 19 18  1  0
 20 18  1  0
 20 21  1  6
 21 15  1  0
 22 23  1  0
 22 20  1  0
 24 22  2  0
M  END
$$$$
