KPT.pdb
     RDKit          3D

 24 24  0  0  1  0  0  0  0  0999 V2000
    8.5182  -14.8083   21.4429 N   0  0  0  0  0  0  0  0  0  0  0  0
    7.4915  -14.4703   22.4307 C   0  0  1  0  0  0  0  0  0  0  0  0
    6.4464  -15.5694   22.4618 C   0  0  0  0  0  0  0  0  0  0  0  0
    7.0013  -16.9207   22.2333 C   0  0  0  0  0  0  0  0  0  0  0  0
    6.0830  -18.0733   22.2595 C   0  0  0  0  0  0  0  0  0  0  0  0
    5.0844  -18.1567   21.1602 C   0  0  0  0  0  0  0  0  0  0  0  0
    4.3963  -19.4580   21.1650 N   0  0  0  0  0  0  0  0  0  0  0  0
    8.2066  -14.3543   23.7191 C   0  0  0  0  0  0  0  0  0  0  0  0
    9.2969  -14.9964   23.9165 O   0  0  0  0  0  0  0  0  0  0  0  0
    7.7559  -13.5543   24.7858 N   0  0  0  0  0  0  0  0  0  0  0  0
    6.5710  -12.7234   24.7532 C   0  0  0  0  0  0  0  0  0  0  0  0
    6.1300  -12.8312   26.2220 C   0  0  0  0  0  0  0  0  0  0  0  0
    7.4843  -12.5051   26.8700 C   0  0  0  0  0  0  0  0  0  0  0  0
    8.3874  -13.4157   26.1103 C   0  0  1  0  0  0  0  0  0  0  0  0
    8.5358  -14.7465   26.7514 C   0  0  0  0  0  0  0  0  0  0  0  0
    7.5539  -15.5261   26.7392 O   0  0  0  0  0  0  0  0  0  0  0  0
   10.5967  -17.4872   25.8949 C   0  0  0  0  0  0  0  0  0  0  0  0
   10.9787  -17.2157   27.3126 C   0  0  1  0  0  0  0  0  0  0  0  0
   12.1349  -16.4076   27.3018 O   0  0  0  0  0  0  0  0  0  0  0  0
    9.8962  -16.4346   28.0342 C   0  0  2  0  0  0  0  0  0  0  0  0
    9.7303  -15.1731   27.3728 N   0  0  0  0  0  0  0  0  0  0  0  0
   10.3425  -16.2615   29.4395 C   0  0  0  0  0  0  0  0  0  0  0  0
   10.4867  -17.3466   30.2911 O   0  0  0  0  0  0  0  0  0  0  0  0
   10.5979  -15.1150   29.8785 O   0  0  0  0  0  0  0  0  0  0  0  0
  2  1  1  6
  3  2  1  0
  4  3  1  0
  5  6  1  0
  5  4  1  0
  7  6  1  0
  8  9  2  0
  8  2  1  0
 10  8  1  0
 11 10  1  0
 12 13  1  0
 12 11  1  0
 13 14  1  0
 14 10  1  0
 14 15  1  1
 16 15  2  0
 18 17  1  6
 19 18  1  0
 20 18  1  0
 20 21  1  6
 21 15  1  0
 22 23  1  0
 22 20  1  0
 24 22  2  0
M  END
$$$$
