KPT.pdb
     RDKit          3D

 24 24  0  0  1  0  0  0  0  0999 V2000
    9.1123  -16.8927   16.8555 N   0  0  0  0  0  0  0  0  0  0  0  0
    8.0518  -16.4456   17.7609 C   0  0  1  0  0  0  0  0  0  0  0  0
    7.1115  -17.6029   18.0398 C   0  0  0  0  0  0  0  0  0  0  0  0
    7.8066  -18.8569   18.4008 C   0  0  0  0  0  0  0  0  0  0  0  0
    6.9979  -20.0616   18.6598 C   0  0  0  0  0  0  0  0  0  0  0  0
    7.7369  -21.2886   19.0607 C   0  0  0  0  0  0  0  0  0  0  0  0
    6.8095  -22.3735   19.4211 N   0  0  0  0  0  0  0  0  0  0  0  0
    8.7441  -15.9916   18.9854 C   0  0  0  0  0  0  0  0  0  0  0  0
    9.8440  -16.5371   19.3496 O   0  0  0  0  0  0  0  0  0  0  0  0
    8.2604  -14.9594   19.8110 N   0  0  0  0  0  0  0  0  0  0  0  0
    7.0596  -14.1916   19.5575 C   0  0  0  0  0  0  0  0  0  0  0  0
    6.5976  -13.9361   21.0014 C   0  0  0  0  0  0  0  0  0  0  0  0
    7.9345  -13.4254   21.5601 C   0  0  0  0  0  0  0  0  0  0  0  0
    8.8678  -14.4766   21.0642 C   0  0  1  0  0  0  0  0  0  0  0  0
    9.0328  -15.5990   22.0217 C   0  0  0  0  0  0  0  0  0  0  0  0
    8.0950  -16.4226   22.1410 O   0  0  0  0  0  0  0  0  0  0  0  0
   12.8786  -16.5665   23.2373 C   0  0  0  0  0  0  0  0  0  0  0  0
   11.7597  -17.5536   23.1821 C   0  0  1  0  0  0  0  0  0  0  0  0
   12.0520  -18.5901   24.0931 O   0  0  0  0  0  0  0  0  0  0  0  0
   10.4507  -16.9269   23.6255 C   0  0  2  0  0  0  0  0  0  0  0  0
   10.1956  -15.7805   22.8026 N   0  0  0  0  0  0  0  0  0  0  0  0
   10.6050  -16.5524   25.0537 C   0  0  0  0  0  0  0  0  0  0  0  0
   10.6411  -17.5131   26.0532 O   0  0  0  0  0  0  0  0  0  0  0  0
   10.7060  -15.3449   25.3769 O   0  0  0  0  0  0  0  0  0  0  0  0
  2  1  1  6
  3  2  1  0
  4  3  1  0
  5  6  1  0
  5  4  1  0
  7  6  1  0
  8  9  2  0
  8  2  1  0
 10  8  1  0
 11 10  1  0
 12 13  1  0
 12 11  1  0
 13 14  1  0
 14 10  1  0
 14 15  1  1
 16 15  2  0
 18 17  1  1
 19 18  1  0
 20 18  1  0
 20 21  1  6
 21 15  1  0
 22 23  1  0
 22 20  1  0
 24 22  2  0
M  END
$$$$
