KPT.pdb
     RDKit          3D

 24 24  0  0  1  0  0  0  0  0999 V2000
   10.1569  -14.5362   15.8314 N   0  0  0  0  0  0  0  0  0  0  0  0
    8.9285  -14.5072   16.6278 C   0  0  1  0  0  0  0  0  0  0  0  0
    8.0689  -15.7033   16.2650 C   0  0  0  0  0  0  0  0  0  0  0  0
    8.8200  -16.9753   16.2034 C   0  0  0  0  0  0  0  0  0  0  0  0
    8.2246  -18.1758   16.8173 C   0  0  0  0  0  0  0  0  0  0  0  0
    7.0517  -18.7698   16.1216 C   0  0  0  0  0  0  0  0  0  0  0  0
    6.5888  -19.9880   16.8061 N   0  0  0  0  0  0  0  0  0  0  0  0
    9.3711  -14.5549   18.0373 C   0  0  0  0  0  0  0  0  0  0  0  0
   10.5031  -15.0683   18.3453 O   0  0  0  0  0  0  0  0  0  0  0  0
    8.6054  -14.0539   19.1068 N   0  0  0  0  0  0  0  0  0  0  0  0
    7.3088  -13.4246   18.9722 C   0  0  0  0  0  0  0  0  0  0  0  0
    6.6547  -13.8793   20.2871 C   0  0  0  0  0  0  0  0  0  0  0  0
    7.7951  -13.4793   21.2357 C   0  0  0  0  0  0  0  0  0  0  0  0
    8.9676  -14.0769   20.5354 C   0  0  1  0  0  0  0  0  0  0  0  0
    9.2521  -15.4671   20.9717 C   0  0  0  0  0  0  0  0  0  0  0  0
    8.4758  -16.3787   20.5995 O   0  0  0  0  0  0  0  0  0  0  0  0
   12.2436  -17.3703   20.3246 C   0  0  0  0  0  0  0  0  0  0  0  0
   12.0793  -17.4703   21.8054 C   0  0  1  0  0  0  0  0  0  0  0  0
   12.9218  -16.5077   22.3999 O   0  0  0  0  0  0  0  0  0  0  0  0
   10.6591  -17.1391   22.2250 C   0  0  2  0  0  0  0  0  0  0  0  0
   10.3553  -15.8085   21.7850 N   0  0  0  0  0  0  0  0  0  0  0  0
   10.6004  -17.2535   23.7040 C   0  0  0  0  0  0  0  0  0  0  0  0
   10.4000  -16.1412   24.5077 O   0  0  0  0  0  0  0  0  0  0  0  0
   10.7335  -18.3740   24.2510 O   0  0  0  0  0  0  0  0  0  0  0  0
  2  1  1  6
  3  2  1  0
  4  3  1  0
  5  6  1  0
  5  4  1  0
  7  6  1  0
  8  9  2  0
  8  2  1  0
 10  8  1  0
 11 10  1  0
 12 13  1  0
 12 11  1  0
 13 14  1  0
 14 10  1  0
 14 15  1  1
 16 15  2  0
 18 17  1  6
 19 18  1  0
 20 18  1  0
 20 21  1  1
 21 15  1  0
 22 23  1  0
 22 20  1  0
 24 22  2  0
M  END
$$$$
