KPT.pdb
     RDKit          3D

 24 24  0  0  1  0  0  0  0  0999 V2000
    8.6440  -16.6340   21.4920 N   0  0  0  0  0  0  0  0  0  0  0  0
    8.0021  -16.6160   22.8080 C   0  0  1  0  0  0  0  0  0  0  0  0
    8.2249  -17.9519   23.4914 C   0  0  0  0  0  0  0  0  0  0  0  0
    7.5991  -19.0901   22.7850 C   0  0  0  0  0  0  0  0  0  0  0  0
    7.7379  -20.4396   23.3613 C   0  0  0  0  0  0  0  0  0  0  0  0
    7.1106  -21.5564   22.6052 C   0  0  0  0  0  0  0  0  0  0  0  0
    7.6891  -21.6762   21.2569 N   0  0  0  0  0  0  0  0  0  0  0  0
    8.6441  -15.5071   23.5448 C   0  0  0  0  0  0  0  0  0  0  0  0
    9.9098  -15.3261   23.4720 O   0  0  0  0  0  0  0  0  0  0  0  0
    7.9329  -14.5991   24.3515 N   0  0  0  0  0  0  0  0  0  0  0  0
    6.5006  -14.6237   24.5594 C   0  0  0  0  0  0  0  0  0  0  0  0
    6.4333  -14.1142   26.0084 C   0  0  0  0  0  0  0  0  0  0  0  0
    7.3331  -12.8809   25.8370 C   0  0  0  0  0  0  0  0  0  0  0  0
    8.4980  -13.4780   25.1238 C   0  0  1  0  0  0  0  0  0  0  0  0
    9.5500  -13.9692   26.0490 C   0  0  0  0  0  0  0  0  0  0  0  0
   10.4199  -13.1581   26.4459 O   0  0  0  0  0  0  0  0  0  0  0  0
   10.3846  -13.5379   28.5381 C   0  0  0  0  0  0  0  0  0  0  0  0
   10.3111  -15.0106   28.7734 C   0  0  1  0  0  0  0  0  0  0  0  0
    9.0057  -15.3135   29.2141 O   0  0  0  0  0  0  0  0  0  0  0  0
   10.5382  -15.7851   27.4884 C   0  0  2  0  0  0  0  0  0  0  0  0
    9.6151  -15.3056   26.5012 N   0  0  0  0  0  0  0  0  0  0  0  0
   10.3149  -17.2203   27.7955 C   0  0  0  0  0  0  0  0  0  0  0  0
   11.2000  -17.9363   28.5874 O   0  0  0  0  0  0  0  0  0  0  0  0
    9.3082  -17.8097   27.3354 O   0  0  0  0  0  0  0  0  0  0  0  0
  2  1  1  6
  3  2  1  0
  4  3  1  0
  5  6  1  0
  5  4  1  0
  7  6  1  0
  8  9  2  0
  8  2  1  0
 10  8  1  0
 11 10  1  0
 12 13  1  0
 12 11  1  0
 13 14  1  0
 14 10  1  0
 14 15  1  1
 16 15  2  0
 18 17  1  6
 19 18  1  0
 20 18  1  0
 20 21  1  6
 21 15  1  0
 22 23  1  0
 22 20  1  0
 24 22  2  0
M  END
$$$$
