IDQ.pdb
     RDKit          3D

 26 25  0  0  1  0  0  0  0  0999 V2000
    7.9223  -12.3172   27.3293 C   0  0  0  0  0  0  0  0  0  0  0  0
    7.4035  -13.5748   26.7070 C   0  0  0  0  0  0  0  0  0  0  0  0
    7.2110  -13.4669   25.2105 C   0  0  2  0  0  0  0  0  0  0  0  0
    6.1751  -12.4125   24.8629 C   0  0  0  0  0  0  0  0  0  0  0  0
    6.8158  -14.8240   24.6792 C   0  0  2  0  0  0  0  0  0  0  0  0
    5.7581  -15.3453   25.5113 N   0  0  0  0  0  0  0  0  0  0  0  0
    7.9948  -15.7500   24.7133 C   0  0  0  0  0  0  0  0  0  0  0  0
    8.0446  -16.6372   25.5973 O   0  0  0  0  0  0  0  0  0  0  0  0
    9.0544  -15.6580   23.7820 N   0  0  0  0  0  0  0  0  0  0  0  0
   10.1118  -16.6461   23.8432 C   0  0  1  0  0  0  0  0  0  0  0  0
   11.1430  -16.2656   22.8059 C   0  0  0  0  0  0  0  0  0  0  0  0
   10.7703  -16.6718   21.4552 C   0  0  0  0  0  0  0  0  0  0  0  0
   10.2317  -17.7803   21.2527 O   0  0  0  0  0  0  0  0  0  0  0  0
   10.7374  -16.6730   25.2014 C   0  0  0  0  0  0  0  0  0  0  0  0
   11.2163  -15.6439   25.7348 O   0  0  0  0  0  0  0  0  0  0  0  0
   11.0263  -15.8034   20.4055 O   0  0  0  0  0  0  0  0  0  0  0  0
    8.9603  -21.6115   29.1307 N   0  0  0  0  0  0  0  0  0  0  0  0
    9.6687  -20.3785   29.1263 C   0  0  0  0  0  0  0  0  0  0  0  0
   10.4293  -20.1322   30.1218 O   0  0  0  0  0  0  0  0  0  0  0  0
    9.5450  -19.3979   28.0169 C   0  0  0  0  0  0  0  0  0  0  0  0
   10.4281  -18.2219   28.3044 C   0  0  0  0  0  0  0  0  0  0  0  0
   11.4697  -17.9780   27.2476 C   0  0  2  0  0  0  0  0  0  0  0  0
   10.8186  -17.8771   25.9569 N   0  0  0  0  0  0  0  0  0  0  0  0
   12.5321  -19.0077   27.2399 C   0  0  0  0  0  0  0  0  0  0  0  0
   12.7760  -19.8642   26.1844 O   0  0  0  0  0  0  0  0  0  0  0  0
   13.2589  -19.1122   28.2544 O   0  0  0  0  0  0  0  0  0  0  0  0
  2  1  1  0
  3  5  1  0
  3  2  1  0
  3  4  1  1
  5  6  1  1
  7  5  1  0
  7  8  2  0
  9  7  1  0
 10  9  1  0
 11 12  1  0
 10 11  1  6
 12 16  1  0
 13 12  2  0
 14 10  1  0
 15 14  2  0
 17 18  1  0
 18 19  2  0
 18 20  1  0
 20 21  1  0
 22 21  1  1
 22 23  1  0
 22 24  1  0
 23 14  1  0
 24 25  1  0
 26 24  2  0
M  END
$$$$
