IDQ.pdb
     RDKit          3D

 26 25  0  0  1  0  0  0  0  0999 V2000
    6.3014  -12.0824   27.1635 C   0  0  0  0  0  0  0  0  0  0  0  0
    5.9535  -13.1601   26.1862 C   0  0  0  0  0  0  0  0  0  0  0  0
    7.1603  -13.9108   25.6682 C   0  0  2  0  0  0  0  0  0  0  0  0
    8.1763  -12.9640   25.0544 C   0  0  0  0  0  0  0  0  0  0  0  0
    6.6912  -14.9400   24.6677 C   0  0  2  0  0  0  0  0  0  0  0  0
    5.7327  -15.8002   25.3191 N   0  0  0  0  0  0  0  0  0  0  0  0
    7.8560  -15.7499   24.1822 C   0  0  0  0  0  0  0  0  0  0  0  0
    8.0727  -16.8716   24.6980 O   0  0  0  0  0  0  0  0  0  0  0  0
    8.7205  -15.2926   23.1614 N   0  0  0  0  0  0  0  0  0  0  0  0
    9.7566  -16.1863   22.6858 C   0  0  1  0  0  0  0  0  0  0  0  0
   10.4191  -15.5174   21.5036 C   0  0  0  0  0  0  0  0  0  0  0  0
   11.4937  -16.3163   20.9244 C   0  0  0  0  0  0  0  0  0  0  0  0
   12.6243  -15.8190   20.7397 O   0  0  0  0  0  0  0  0  0  0  0  0
   10.7661  -16.4492   23.7575 C   0  0  0  0  0  0  0  0  0  0  0  0
   11.8388  -17.0571   23.5276 O   0  0  0  0  0  0  0  0  0  0  0  0
   11.2329  -17.6348   20.5850 O   0  0  0  0  0  0  0  0  0  0  0  0
   10.4279  -13.9258   29.5375 N   0  0  0  0  0  0  0  0  0  0  0  0
   11.3821  -14.9612   29.7360 C   0  0  0  0  0  0  0  0  0  0  0  0
   11.8560  -15.1084   30.9124 O   0  0  0  0  0  0  0  0  0  0  0  0
   11.8267  -15.8509   28.6321 C   0  0  0  0  0  0  0  0  0  0  0  0
   11.0818  -15.4887   27.3834 C   0  0  0  0  0  0  0  0  0  0  0  0
   11.4355  -16.3471   26.2004 C   0  0  2  0  0  0  0  0  0  0  0  0
   10.5543  -16.0183   25.0979 N   0  0  0  0  0  0  0  0  0  0  0  0
   11.4006  -17.7936   26.5095 C   0  0  0  0  0  0  0  0  0  0  0  0
   12.4440  -18.4899   27.0869 O   0  0  0  0  0  0  0  0  0  0  0  0
   10.3590  -18.4307   26.2308 O   0  0  0  0  0  0  0  0  0  0  0  0
  2  1  1  0
  3  5  1  0
  3  2  1  0
  3  4  1  6
  5  6  1  1
  7  5  1  0
  7  8  2  0
  9  7  1  0
 10  9  1  0
 11 12  1  0
 10 11  1  6
 12 16  1  0
 13 12  2  0
 14 10  1  0
 15 14  2  0
 17 18  1  0
 18 19  2  0
 18 20  1  0
 20 21  1  0
 22 21  1  1
 22 23  1  0
 22 24  1  0
 23 14  1  0
 24 25  1  0
 26 24  2  0
M  END
$$$$
