IDQ.pdb
     RDKit          3D

 26 25  0  0  1  0  0  0  0  0999 V2000
    6.2737  -11.2797   26.2592 C   0  0  0  0  0  0  0  0  0  0  0  0
    5.8745  -12.6104   25.7046 C   0  0  0  0  0  0  0  0  0  0  0  0
    7.0517  -13.5127   25.4076 C   0  0  2  0  0  0  0  0  0  0  0  0
    8.0690  -12.8170   24.5206 C   0  0  0  0  0  0  0  0  0  0  0  0
    6.5354  -14.7785   24.7662 C   0  0  2  0  0  0  0  0  0  0  0  0
    5.6545  -15.4336   25.7030 N   0  0  0  0  0  0  0  0  0  0  0  0
    7.6813  -15.6835   24.4251 C   0  0  0  0  0  0  0  0  0  0  0  0
    8.0902  -16.4966   25.2871 O   0  0  0  0  0  0  0  0  0  0  0  0
    8.3183  -15.6527   23.1635 N   0  0  0  0  0  0  0  0  0  0  0  0
    9.2791  -16.6911   22.8523 C   0  0  1  0  0  0  0  0  0  0  0  0
    9.6892  -16.5061   21.4096 C   0  0  0  0  0  0  0  0  0  0  0  0
    8.6391  -16.8743   20.4661 C   0  0  0  0  0  0  0  0  0  0  0  0
    7.7868  -17.7349   20.7707 O   0  0  0  0  0  0  0  0  0  0  0  0
   10.4770  -16.5920   23.7421 C   0  0  0  0  0  0  0  0  0  0  0  0
   11.2310  -15.5898   23.7351 O   0  0  0  0  0  0  0  0  0  0  0  0
    8.6084  -16.2501   19.2288 O   0  0  0  0  0  0  0  0  0  0  0  0
   11.2753  -20.1269   28.8337 N   0  0  0  0  0  0  0  0  0  0  0  0
   10.4477  -18.9824   28.6679 C   0  0  0  0  0  0  0  0  0  0  0  0
    9.5604  -18.7628   29.5592 O   0  0  0  0  0  0  0  0  0  0  0  0
   10.5908  -18.0624   27.5100 C   0  0  0  0  0  0  0  0  0  0  0  0
   11.7625  -18.4972   26.6832 C   0  0  0  0  0  0  0  0  0  0  0  0
   12.0045  -17.6304   25.4784 C   0  0  2  0  0  0  0  0  0  0  0  0
   10.8192  -17.6387   24.6447 N   0  0  0  0  0  0  0  0  0  0  0  0
   13.2069  -18.0310   24.7150 C   0  0  0  0  0  0  0  0  0  0  0  0
   13.1779  -18.5453   23.4337 O   0  0  0  0  0  0  0  0  0  0  0  0
   14.3249  -17.8964   25.2631 O   0  0  0  0  0  0  0  0  0  0  0  0
  2  1  1  0
  3  5  1  0
  3  2  1  0
  3  4  1  6
  5  6  1  1
  7  5  1  0
  7  8  2  0
  9  7  1  0
 10  9  1  0
 11 12  1  0
 10 11  1  6
 12 16  1  0
 13 12  2  0
 14 10  1  0
 15 14  2  0
 17 18  1  0
 18 19  2  0
 18 20  1  0
 20 21  1  0
 22 21  1  1
 22 23  1  0
 22 24  1  0
 23 14  1  0
 24 25  1  0
 26 24  2  0
M  END
$$$$
