IDQ.pdb
     RDKit          3D

 26 25  0  0  1  0  0  0  0  0999 V2000
    7.2000  -11.6793   19.6669 C   0  0  0  0  0  0  0  0  0  0  0  0
    7.4318  -13.0963   19.2471 C   0  0  0  0  0  0  0  0  0  0  0  0
    8.0588  -13.9464   20.3298 C   0  0  2  0  0  0  0  0  0  0  0  0
    9.3676  -13.3466   20.8124 C   0  0  0  0  0  0  0  0  0  0  0  0
    8.2585  -15.3417   19.7880 C   0  0  2  0  0  0  0  0  0  0  0  0
    6.9696  -15.8683   19.4082 N   0  0  0  0  0  0  0  0  0  0  0  0
    8.8768  -16.2150   20.8385 C   0  0  0  0  0  0  0  0  0  0  0  0
    8.1315  -16.7870   21.6683 O   0  0  0  0  0  0  0  0  0  0  0  0
   10.2732  -16.4167   20.9268 N   0  0  0  0  0  0  0  0  0  0  0  0
   10.7804  -17.2636   21.9870 C   0  0  1  0  0  0  0  0  0  0  0  0
   12.2212  -17.5802   21.6588 C   0  0  0  0  0  0  0  0  0  0  0  0
   12.8240  -18.5266   22.5911 C   0  0  0  0  0  0  0  0  0  0  0  0
   14.0391  -18.4545   22.8705 O   0  0  0  0  0  0  0  0  0  0  0  0
   10.6968  -16.5692   23.3090 C   0  0  0  0  0  0  0  0  0  0  0  0
   11.5033  -15.6676   23.6400 O   0  0  0  0  0  0  0  0  0  0  0  0
   12.0210  -19.5042   23.1580 O   0  0  0  0  0  0  0  0  0  0  0  0
    6.0320  -12.8287   25.1221 N   0  0  0  0  0  0  0  0  0  0  0  0
    6.5542  -14.0971   25.4969 C   0  0  0  0  0  0  0  0  0  0  0  0
    5.7685  -14.9033   26.0994 O   0  0  0  0  0  0  0  0  0  0  0  0
    7.9574  -14.4925   25.2096 C   0  0  0  0  0  0  0  0  0  0  0  0
    8.2260  -15.8274   25.8350 C   0  0  0  0  0  0  0  0  0  0  0  0
    9.6197  -16.3371   25.5920 C   0  0  2  0  0  0  0  0  0  0  0  0
    9.6905  -16.9023   24.2595 N   0  0  0  0  0  0  0  0  0  0  0  0
   10.0630  -17.3079   26.6168 C   0  0  0  0  0  0  0  0  0  0  0  0
   10.3618  -16.9759   27.9236 O   0  0  0  0  0  0  0  0  0  0  0  0
   10.1756  -18.5091   26.2809 O   0  0  0  0  0  0  0  0  0  0  0  0
  2  1  1  0
  3  5  1  0
  3  2  1  0
  3  4  1  6
  5  6  1  1
  7  5  1  0
  7  8  2  0
  9  7  1  0
 10  9  1  0
 11 12  1  0
 10 11  1  6
 12 16  1  0
 13 12  2  0
 14 10  1  0
 15 14  2  0
 17 18  1  0
 18 19  2  0
 18 20  1  0
 20 21  1  0
 22 21  1  1
 22 23  1  0
 22 24  1  0
 23 14  1  0
 24 25  1  0
 26 24  2  0
M  END
$$$$
