IDQ.pdb
     RDKit          3D

 26 25  0  0  1  0  0  0  0  0999 V2000
    6.0151  -11.1868   26.3334 C   0  0  0  0  0  0  0  0  0  0  0  0
    5.6612  -12.5162   25.7458 C   0  0  0  0  0  0  0  0  0  0  0  0
    6.8692  -13.3574   25.3975 C   0  0  2  0  0  0  0  0  0  0  0  0
    7.8057  -12.6152   24.4606 C   0  0  0  0  0  0  0  0  0  0  0  0
    6.3909  -14.6528   24.7865 C   0  0  2  0  0  0  0  0  0  0  0  0
    5.5290  -15.3111   25.7387 N   0  0  0  0  0  0  0  0  0  0  0  0
    7.5632  -15.5316   24.4673 C   0  0  0  0  0  0  0  0  0  0  0  0
    7.9542  -16.3578   25.3250 O   0  0  0  0  0  0  0  0  0  0  0  0
    8.2449  -15.4615   23.2308 N   0  0  0  0  0  0  0  0  0  0  0  0
    9.3294  -16.3911   22.9894 C   0  0  1  0  0  0  0  0  0  0  0  0
    9.7255  -16.2521   21.5376 C   0  0  0  0  0  0  0  0  0  0  0  0
   10.6788  -17.2688   21.1065 C   0  0  0  0  0  0  0  0  0  0  0  0
   11.7700  -16.9388   20.5964 O   0  0  0  0  0  0  0  0  0  0  0  0
   10.4984  -16.0857   23.8708 C   0  0  0  0  0  0  0  0  0  0  0  0
   11.2113  -15.0676   23.7029 O   0  0  0  0  0  0  0  0  0  0  0  0
   10.3479  -18.6044   21.2751 O   0  0  0  0  0  0  0  0  0  0  0  0
   10.7920  -16.5554   29.8412 N   0  0  0  0  0  0  0  0  0  0  0  0
   10.5466  -15.4188   29.0225 C   0  0  0  0  0  0  0  0  0  0  0  0
    9.9806  -14.4119   29.5664 O   0  0  0  0  0  0  0  0  0  0  0  0
   10.9253  -15.3805   27.5863 C   0  0  0  0  0  0  0  0  0  0  0  0
   11.5920  -16.6723   27.2228 C   0  0  0  0  0  0  0  0  0  0  0  0
   12.0254  -16.7429   25.7846 C   0  0  2  0  0  0  0  0  0  0  0  0
   10.8585  -16.9432   24.9488 N   0  0  0  0  0  0  0  0  0  0  0  0
   13.0495  -17.7832   25.5438 C   0  0  0  0  0  0  0  0  0  0  0  0
   14.3470  -17.7191   26.0124 O   0  0  0  0  0  0  0  0  0  0  0  0
   12.7221  -18.7882   24.8720 O   0  0  0  0  0  0  0  0  0  0  0  0
  2  1  1  0
  3  5  1  0
  3  2  1  0
  3  4  1  6
  5  6  1  1
  7  5  1  0
  7  8  2  0
  9  7  1  0
 10  9  1  0
 11 12  1  0
 10 11  1  6
 12 16  1  0
 13 12  2  0
 14 10  1  0
 15 14  2  0
 17 18  1  0
 18 19  2  0
 18 20  1  0
 20 21  1  0
 22 21  1  1
 22 23  1  0
 22 24  1  0
 23 14  1  0
 24 25  1  0
 26 24  2  0
M  END
$$$$
