IDQ.pdb
     RDKit          3D

 26 25  0  0  1  0  0  0  0  0999 V2000
    7.4790  -12.0994   22.3885 C   0  0  0  0  0  0  0  0  0  0  0  0
    7.3791  -13.5241   21.9431 C   0  0  0  0  0  0  0  0  0  0  0  0
    8.0181  -13.7761   20.5954 C   0  0  2  0  0  0  0  0  0  0  0  0
    7.3581  -12.9458   19.5089 C   0  0  0  0  0  0  0  0  0  0  0  0
    7.9289  -15.2526   20.2915 C   0  0  2  0  0  0  0  0  0  0  0  0
    6.5388  -15.6389   20.3282 N   0  0  0  0  0  0  0  0  0  0  0  0
    8.7021  -16.0327   21.3123 C   0  0  0  0  0  0  0  0  0  0  0  0
    8.0805  -16.6018   22.2402 O   0  0  0  0  0  0  0  0  0  0  0  0
   10.1102  -16.1496   21.2656 N   0  0  0  0  0  0  0  0  0  0  0  0
   10.7677  -16.9530   22.2758 C   0  0  1  0  0  0  0  0  0  0  0  0
   12.2269  -17.0488   21.8943 C   0  0  0  0  0  0  0  0  0  0  0  0
   12.9791  -17.9675   22.7419 C   0  0  0  0  0  0  0  0  0  0  0  0
   14.1919  -17.7726   22.9676 O   0  0  0  0  0  0  0  0  0  0  0  0
   10.6316  -16.3257   23.6267 C   0  0  0  0  0  0  0  0  0  0  0  0
   11.2890  -15.3107   23.9590 O   0  0  0  0  0  0  0  0  0  0  0  0
   12.3203  -19.0574   23.2892 O   0  0  0  0  0  0  0  0  0  0  0  0
    6.2938  -12.4428   26.5240 N   0  0  0  0  0  0  0  0  0  0  0  0
    6.6631  -13.7930   26.2737 C   0  0  0  0  0  0  0  0  0  0  0  0
    5.7272  -14.6214   26.0131 O   0  0  0  0  0  0  0  0  0  0  0  0
    8.0776  -14.2467   26.3083 C   0  0  0  0  0  0  0  0  0  0  0  0
    8.1307  -15.7050   25.9677 C   0  0  0  0  0  0  0  0  0  0  0  0
    9.5273  -16.2592   25.9075 C   0  0  2  0  0  0  0  0  0  0  0  0
    9.7430  -16.8559   24.6046 N   0  0  0  0  0  0  0  0  0  0  0  0
    9.8118  -17.2189   26.9970 C   0  0  0  0  0  0  0  0  0  0  0  0
   10.2540  -18.5119   26.7975 O   0  0  0  0  0  0  0  0  0  0  0  0
    9.6417  -16.8374   28.1777 O   0  0  0  0  0  0  0  0  0  0  0  0
  2  1  1  0
  3  5  1  0
  3  2  1  0
  3  4  1  6
  5  6  1  1
  7  5  1  0
  7  8  2  0
  9  7  1  0
 10  9  1  0
 11 12  1  0
 10 11  1  6
 12 16  1  0
 13 12  2  0
 14 10  1  0
 15 14  2  0
 17 18  1  0
 18 19  2  0
 18 20  1  0
 20 21  1  0
 22 21  1  6
 22 23  1  0
 22 24  1  0
 23 14  1  0
 24 25  1  0
 26 24  2  0
M  END
$$$$
