IDQ.pdb
     RDKit          3D

 26 25  0  0  1  0  0  0  0  0999 V2000
    6.0740  -11.4477   26.4627 C   0  0  0  0  0  0  0  0  0  0  0  0
    5.7135  -12.7947   25.9210 C   0  0  0  0  0  0  0  0  0  0  0  0
    6.9014  -13.5609   25.3825 C   0  0  2  0  0  0  0  0  0  0  0  0
    7.6729  -12.7379   24.3661 C   0  0  0  0  0  0  0  0  0  0  0  0
    6.4050  -14.8543   24.7817 C   0  0  2  0  0  0  0  0  0  0  0  0
    5.6208  -15.5442   25.7778 N   0  0  0  0  0  0  0  0  0  0  0  0
    7.5677  -15.7061   24.3683 C   0  0  0  0  0  0  0  0  0  0  0  0
    8.0115  -16.5594   25.1721 O   0  0  0  0  0  0  0  0  0  0  0  0
    8.1828  -15.5809   23.1016 N   0  0  0  0  0  0  0  0  0  0  0  0
    9.2805  -16.4693   22.7790 C   0  0  1  0  0  0  0  0  0  0  0  0
    9.7132  -16.1542   21.3657 C   0  0  0  0  0  0  0  0  0  0  0  0
   10.7745  -17.0321   20.8848 C   0  0  0  0  0  0  0  0  0  0  0  0
   11.6345  -16.6074   20.0849 O   0  0  0  0  0  0  0  0  0  0  0  0
   10.4238  -16.2672   23.7218 C   0  0  0  0  0  0  0  0  0  0  0  0
   11.2630  -15.3486   23.5639 O   0  0  0  0  0  0  0  0  0  0  0  0
   10.8072  -18.3431   21.3338 O   0  0  0  0  0  0  0  0  0  0  0  0
   11.6235  -15.2982   29.2361 N   0  0  0  0  0  0  0  0  0  0  0  0
   10.3124  -15.2657   28.6863 C   0  0  0  0  0  0  0  0  0  0  0  0
    9.3423  -15.0505   29.4881 O   0  0  0  0  0  0  0  0  0  0  0  0
   10.0557  -15.4714   27.2374 C   0  0  0  0  0  0  0  0  0  0  0  0
   11.3667  -15.5529   26.5163 C   0  0  0  0  0  0  0  0  0  0  0  0
   11.6172  -16.8876   25.8705 C   0  0  2  0  0  0  0  0  0  0  0  0
   10.6134  -17.1145   24.8501 N   0  0  0  0  0  0  0  0  0  0  0  0
   11.6590  -17.9990   26.8463 C   0  0  0  0  0  0  0  0  0  0  0  0
   12.5974  -18.1140   27.8529 O   0  0  0  0  0  0  0  0  0  0  0  0
   10.7886  -18.8949   26.7566 O   0  0  0  0  0  0  0  0  0  0  0  0
  2  1  1  0
  3  5  1  0
  3  2  1  0
  3  4  1  6
  5  6  1  1
  7  5  1  0
  7  8  2  0
  9  7  1  0
 10  9  1  0
 11 12  1  0
 10 11  1  6
 12 16  1  0
 13 12  2  0
 14 10  1  0
 15 14  2  0
 17 18  1  0
 18 19  2  0
 18 20  1  0
 20 21  1  0
 22 21  1  1
 22 23  1  0
 22 24  1  0
 23 14  1  0
 24 25  1  0
 26 24  2  0
M  END
$$$$
