IDQ.pdb
     RDKit          3D

 26 25  0  0  1  0  0  0  0  0999 V2000
    7.1256  -11.7695   19.5997 C   0  0  0  0  0  0  0  0  0  0  0  0
    7.4630  -13.1711   19.2005 C   0  0  0  0  0  0  0  0  0  0  0  0
    8.0570  -13.9878   20.3268 C   0  0  2  0  0  0  0  0  0  0  0  0
    9.2830  -13.3095   20.9119 C   0  0  0  0  0  0  0  0  0  0  0  0
    8.3875  -15.3633   19.7985 C   0  0  2  0  0  0  0  0  0  0  0  0
    7.1666  -15.9728   19.3284 N   0  0  0  0  0  0  0  0  0  0  0  0
    8.9879  -16.1995   20.8889 C   0  0  0  0  0  0  0  0  0  0  0  0
    8.2269  -16.7710   21.7047 O   0  0  0  0  0  0  0  0  0  0  0  0
   10.3845  -16.3669   21.0299 N   0  0  0  0  0  0  0  0  0  0  0  0
   10.8789  -17.0693   22.1964 C   0  0  1  0  0  0  0  0  0  0  0  0
   12.3446  -17.3534   21.9620 C   0  0  0  0  0  0  0  0  0  0  0  0
   12.5803  -18.2301   20.8200 C   0  0  0  0  0  0  0  0  0  0  0  0
   11.9203  -19.2811   20.6809 O   0  0  0  0  0  0  0  0  0  0  0  0
   10.7086  -16.2399   23.4292 C   0  0  0  0  0  0  0  0  0  0  0  0
   10.7835  -14.9882   23.4055 O   0  0  0  0  0  0  0  0  0  0  0  0
   13.5496  -17.8718   19.8960 O   0  0  0  0  0  0  0  0  0  0  0  0
    6.2639  -13.0178   25.7838 N   0  0  0  0  0  0  0  0  0  0  0  0
    6.5027  -14.3973   26.0325 C   0  0  0  0  0  0  0  0  0  0  0  0
    5.5459  -15.2115   25.8047 O   0  0  0  0  0  0  0  0  0  0  0  0
    7.8075  -14.8969   26.5382 C   0  0  0  0  0  0  0  0  0  0  0  0
    8.5365  -15.5767   25.4195 C   0  0  0  0  0  0  0  0  0  0  0  0
    9.8764  -16.1287   25.8211 C   0  0  2  0  0  0  0  0  0  0  0  0
   10.4519  -16.8375   24.6957 N   0  0  0  0  0  0  0  0  0  0  0  0
    9.8066  -16.9872   27.0240 C   0  0  0  0  0  0  0  0  0  0  0  0
    9.8820  -18.3660   26.9999 O   0  0  0  0  0  0  0  0  0  0  0  0
    9.6705  -16.4311   28.1378 O   0  0  0  0  0  0  0  0  0  0  0  0
  2  1  1  0
  3  5  1  0
  3  2  1  0
  3  4  1  6
  5  6  1  1
  7  5  1  0
  7  8  2  0
  9  7  1  0
 10  9  1  0
 11 12  1  0
 10 11  1  6
 12 16  1  0
 13 12  2  0
 14 10  1  0
 15 14  2  0
 17 18  1  0
 18 19  2  0
 18 20  1  0
 20 21  1  0
 22 21  1  6
 22 23  1  0
 22 24  1  0
 23 14  1  0
 24 25  1  0
 26 24  2  0
M  END
$$$$
