IDQ.pdb
     RDKit          3D

 26 25  0  0  1  0  0  0  0  0999 V2000
    8.2083  -12.0333   26.8715 C   0  0  0  0  0  0  0  0  0  0  0  0
    7.7783  -13.4243   26.5281 C   0  0  0  0  0  0  0  0  0  0  0  0
    7.0042  -13.5086   25.2312 C   0  0  2  0  0  0  0  0  0  0  0  0
    5.7512  -12.6524   25.2810 C   0  0  0  0  0  0  0  0  0  0  0  0
    6.6717  -14.9573   24.9650 C   0  0  2  0  0  0  0  0  0  0  0  0
    6.1271  -15.5261   26.1744 N   0  0  0  0  0  0  0  0  0  0  0  0
    7.9104  -15.7013   24.5643 C   0  0  0  0  0  0  0  0  0  0  0  0
    8.3302  -16.6235   25.3022 O   0  0  0  0  0  0  0  0  0  0  0  0
    8.6233  -15.3992   23.3815 N   0  0  0  0  0  0  0  0  0  0  0  0
    9.7046  -16.2785   22.9864 C   0  0  1  0  0  0  0  0  0  0  0  0
   10.0905  -15.9090   21.5728 C   0  0  0  0  0  0  0  0  0  0  0  0
   10.6113  -17.0382   20.8099 C   0  0  0  0  0  0  0  0  0  0  0  0
   10.9540  -16.8936   19.6176 O   0  0  0  0  0  0  0  0  0  0  0  0
   10.8804  -16.1186   23.8967 C   0  0  0  0  0  0  0  0  0  0  0  0
   11.7818  -15.2743   23.6786 O   0  0  0  0  0  0  0  0  0  0  0  0
   10.7171  -18.2708   21.4354 O   0  0  0  0  0  0  0  0  0  0  0  0
   10.8935  -17.1289   29.9368 N   0  0  0  0  0  0  0  0  0  0  0  0
   10.6731  -15.9110   29.2366 C   0  0  0  0  0  0  0  0  0  0  0  0
   10.0980  -14.9631   29.8697 O   0  0  0  0  0  0  0  0  0  0  0  0
   11.0874  -15.7245   27.8219 C   0  0  0  0  0  0  0  0  0  0  0  0
   11.7764  -16.9677   27.3473 C   0  0  0  0  0  0  0  0  0  0  0  0
   12.2077  -16.9054   25.9081 C   0  0  2  0  0  0  0  0  0  0  0  0
   11.0318  -16.9236   25.0613 N   0  0  0  0  0  0  0  0  0  0  0  0
   13.1538  -17.9834   25.5450 C   0  0  0  0  0  0  0  0  0  0  0  0
   12.8861  -18.9728   24.6195 O   0  0  0  0  0  0  0  0  0  0  0  0
   14.2706  -18.0028   26.1115 O   0  0  0  0  0  0  0  0  0  0  0  0
  2  1  1  0
  3  5  1  0
  3  2  1  0
  3  4  1  1
  5  6  1  1
  7  5  1  0
  7  8  2  0
  9  7  1  0
 10  9  1  0
 11 12  1  0
 10 11  1  6
 12 16  1  0
 13 12  2  0
 14 10  1  0
 15 14  2  0
 17 18  1  0
 18 19  2  0
 18 20  1  0
 20 21  1  0
 22 21  1  1
 22 23  1  0
 22 24  1  0
 23 14  1  0
 24 25  1  0
 26 24  2  0
M  END
$$$$
