IDQ.pdb
     RDKit          3D

 26 25  0  0  1  0  0  0  0  0999 V2000
    7.0344  -11.4920   19.9923 C   0  0  0  0  0  0  0  0  0  0  0  0
    7.1558  -12.9427   19.6476 C   0  0  0  0  0  0  0  0  0  0  0  0
    7.7760  -13.7703   20.7515 C   0  0  2  0  0  0  0  0  0  0  0  0
    9.1635  -13.2653   21.1055 C   0  0  0  0  0  0  0  0  0  0  0  0
    7.8114  -15.2129   20.3066 C   0  0  2  0  0  0  0  0  0  0  0  0
    6.4584  -15.6364   20.0366 N   0  0  0  0  0  0  0  0  0  0  0  0
    8.4074  -16.0667   21.3856 C   0  0  0  0  0  0  0  0  0  0  0  0
    7.6702  -16.4747   22.3137 O   0  0  0  0  0  0  0  0  0  0  0  0
    9.7739  -16.4289   21.3937 N   0  0  0  0  0  0  0  0  0  0  0  0
   10.2711  -17.2136   22.5052 C   0  0  1  0  0  0  0  0  0  0  0  0
   11.5910  -17.8126   22.0774 C   0  0  0  0  0  0  0  0  0  0  0  0
   12.0081  -18.9314   22.9157 C   0  0  0  0  0  0  0  0  0  0  0  0
   11.7218  -18.9539   24.1311 O   0  0  0  0  0  0  0  0  0  0  0  0
   10.4654  -16.3578   23.7162 C   0  0  0  0  0  0  0  0  0  0  0  0
   11.4272  -15.5597   23.8206 O   0  0  0  0  0  0  0  0  0  0  0  0
   12.7267  -19.9651   22.3354 O   0  0  0  0  0  0  0  0  0  0  0  0
    7.2139  -12.3059   26.2837 N   0  0  0  0  0  0  0  0  0  0  0  0
    6.6159  -13.5630   25.9938 C   0  0  0  0  0  0  0  0  0  0  0  0
    5.3521  -13.5868   25.8133 O   0  0  0  0  0  0  0  0  0  0  0  0
    7.4102  -14.8152   25.8992 C   0  0  0  0  0  0  0  0  0  0  0  0
    8.8614  -14.4869   26.0768 C   0  0  0  0  0  0  0  0  0  0  0  0
    9.7587  -15.6935   26.0583 C   0  0  2  0  0  0  0  0  0  0  0  0
    9.5609  -16.4104   24.8145 N   0  0  0  0  0  0  0  0  0  0  0  0
    9.5597  -16.5752   27.2297 C   0  0  0  0  0  0  0  0  0  0  0  0
   10.4245  -17.5878   27.5956 O   0  0  0  0  0  0  0  0  0  0  0  0
    8.5424  -16.3944   27.9373 O   0  0  0  0  0  0  0  0  0  0  0  0
  2  1  1  0
  3  5  1  0
  3  2  1  0
  3  4  1  6
  5  6  1  1
  7  5  1  0
  7  8  2  0
  9  7  1  0
 10  9  1  0
 11 12  1  0
 10 11  1  6
 12 16  1  0
 13 12  2  0
 14 10  1  0
 15 14  2  0
 17 18  1  0
 18 19  2  0
 18 20  1  0
 20 21  1  0
 22 21  1  1
 22 23  1  0
 22 24  1  0
 23 14  1  0
 24 25  1  0
 26 24  2  0
M  END
$$$$
