MKG.pdb
     RDKit          3D

 22 21  0  0  1  0  0  0  0  0999 V2000
   29.8778  -21.0191   -8.8622 C   0  0  0  0  0  0  0  0  0  0  0  0
   28.8330  -20.3585   -7.5366 S   0  0  0  0  0  0  0  0  0  0  0  0
   27.1877  -19.9754   -8.1357 C   0  0  0  0  0  0  0  0  0  0  0  0
   26.9452  -20.4097   -9.5561 C   0  0  0  0  0  0  0  0  0  0  0  0
   25.6175  -20.0019  -10.1099 C   0  0  2  0  0  0  0  0  0  0  0  0
   24.4786  -20.5935   -9.4925 N   0  0  0  0  0  0  0  0  0  0  0  0
   25.5746  -20.1224  -11.5949 C   0  0  0  0  0  0  0  0  0  0  0  0
   24.5795  -20.5996  -12.1983 O   0  0  0  0  0  0  0  0  0  0  0  0
   26.6674  -19.6978  -12.3871 N   0  0  0  0  0  0  0  0  0  0  0  0
   26.6164  -19.7641  -13.8737 C   0  0  1  0  0  0  0  0  0  0  0  0
   27.8426  -19.0274  -14.3894 C   0  0  0  0  0  0  0  0  0  0  0  0
   27.9000  -18.8805  -15.8687 C   0  0  0  0  0  0  0  0  0  0  0  0
   26.6483  -18.1935  -16.4160 C   0  0  0  0  0  0  0  0  0  0  0  0
   26.8309  -17.9357  -17.8689 C   0  0  0  0  0  0  0  0  0  0  0  0
   25.6613  -17.2581  -18.3901 N   0  0  0  0  0  0  0  0  0  0  0  0
   26.6766  -21.1839  -14.2377 C   0  0  0  0  0  0  0  0  0  0  0  0
   27.6019  -21.9047  -13.7818 O   0  0  0  0  0  0  0  0  0  0  0  0
   25.7163  -21.7816  -15.0908 N   0  0  0  0  0  0  0  0  0  0  0  0
   25.8415  -23.1738  -15.5387 C   0  0  0  0  0  0  0  0  0  0  0  0
   24.6460  -23.9074  -15.1075 C   0  0  0  0  0  0  0  0  0  0  0  0
   24.7280  -25.2408  -14.7323 O   0  0  0  0  0  0  0  0  0  0  0  0
   23.5036  -23.3383  -15.0669 O   0  0  0  0  0  0  0  0  0  0  0  0
  2  1  1  0
  3  2  1  0
  4  3  1  0
  4  5  1  0
  5  7  1  0
  5  6  1  1
  7  8  2  0
  9 10  1  0
  9  7  1  0
 10 11  1  6
 11 12  1  0
 13 12  1  0
 13 14  1  0
 14 15  1  0
 16 17  2  0
 16 10  1  0
 18 16  1  0
 19 18  1  0
 20 19  1  0
 21 20  1  0
 22 20  2  0
M  END
$$$$
