MKG.pdb
     RDKit          3D

 22 21  0  0  1  0  0  0  0  0999 V2000
   28.4728  -17.8112   -6.0829 C   0  0  0  0  0  0  0  0  0  0  0  0
   28.6101  -19.6149   -5.9695 S   0  0  0  0  0  0  0  0  0  0  0  0
   27.1883  -20.4224   -6.7036 C   0  0  0  0  0  0  0  0  0  0  0  0
   26.8459  -19.9124   -8.0776 C   0  0  0  0  0  0  0  0  0  0  0  0
   25.6784  -20.5931   -8.7174 C   0  0  2  0  0  0  0  0  0  0  0  0
   25.7229  -22.0164   -8.7362 N   0  0  0  0  0  0  0  0  0  0  0  0
   25.3725  -20.0251  -10.0610 C   0  0  0  0  0  0  0  0  0  0  0  0
   25.3845  -18.7868  -10.2816 O   0  0  0  0  0  0  0  0  0  0  0  0
   25.0538  -20.8716  -11.1490 N   0  0  0  0  0  0  0  0  0  0  0  0
   24.5997  -20.3160  -12.4536 C   0  0  1  0  0  0  0  0  0  0  0  0
   25.1590  -21.2242  -13.5373 C   0  0  0  0  0  0  0  0  0  0  0  0
   26.5977  -21.0059  -13.8465 C   0  0  0  0  0  0  0  0  0  0  0  0
   27.0664  -21.8902  -15.0026 C   0  0  0  0  0  0  0  0  0  0  0  0
   28.5092  -21.6352  -15.2560 C   0  0  0  0  0  0  0  0  0  0  0  0
   28.9989  -22.5728  -16.2460 N   0  0  0  0  0  0  0  0  0  0  0  0
   23.1334  -20.3625  -12.4476 C   0  0  0  0  0  0  0  0  0  0  0  0
   22.5412  -21.2391  -11.7661 O   0  0  0  0  0  0  0  0  0  0  0  0
   22.3502  -19.4419  -13.1867 N   0  0  0  0  0  0  0  0  0  0  0  0
   20.9189  -19.2566  -12.9191 C   0  0  0  0  0  0  0  0  0  0  0  0
   20.1713  -20.2566  -13.6899 C   0  0  0  0  0  0  0  0  0  0  0  0
   18.7860  -20.3105  -13.6280 O   0  0  0  0  0  0  0  0  0  0  0  0
   20.7752  -21.1000  -14.4346 O   0  0  0  0  0  0  0  0  0  0  0  0
  2  1  1  0
  3  2  1  0
  4  3  1  0
  4  5  1  0
  5  7  1  0
  5  6  1  6
  7  8  2  0
  9 10  1  0
  9  7  1  0
 10 11  1  6
 11 12  1  0
 13 12  1  0
 13 14  1  0
 14 15  1  0
 16 17  2  0
 16 10  1  0
 18 16  1  0
 19 18  1  0
 20 19  1  0
 21 20  1  0
 22 20  2  0
M  END
$$$$
