MKG.pdb
     RDKit          3D

 22 21  0  0  1  0  0  0  0  0999 V2000
   20.0902  -11.8283    6.4412 C   0  0  0  0  0  0  0  0  0  0  0  0
   19.7413  -11.8564    4.6628 S   0  0  0  0  0  0  0  0  0  0  0  0
   18.1668  -12.6422    4.3217 C   0  0  0  0  0  0  0  0  0  0  0  0
   17.9342  -13.8996    5.1154 C   0  0  0  0  0  0  0  0  0  0  0  0
   16.6210  -14.5641    4.8515 C   0  0  2  0  0  0  0  0  0  0  0  0
   15.4625  -13.7931    5.1540 N   0  0  0  0  0  0  0  0  0  0  0  0
   16.5581  -15.9273    5.4510 C   0  0  0  0  0  0  0  0  0  0  0  0
   16.1533  -16.1226    6.6258 O   0  0  0  0  0  0  0  0  0  0  0  0
   16.9573  -17.0635    4.7084 N   0  0  0  0  0  0  0  0  0  0  0  0
   17.0700  -18.4039    5.3469 C   0  0  1  0  0  0  0  0  0  0  0  0
   17.1532  -19.4222    4.2208 C   0  0  0  0  0  0  0  0  0  0  0  0
   15.8364  -19.8741    3.6961 C   0  0  0  0  0  0  0  0  0  0  0  0
   15.9950  -20.7426    2.4476 C   0  0  0  0  0  0  0  0  0  0  0  0
   14.6505  -21.1716    1.9796 C   0  0  0  0  0  0  0  0  0  0  0  0
   14.7866  -21.9427    0.7607 N   0  0  0  0  0  0  0  0  0  0  0  0
   18.3105  -18.3982    6.1299 C   0  0  0  0  0  0  0  0  0  0  0  0
   19.3725  -17.9669    5.6106 O   0  0  0  0  0  0  0  0  0  0  0  0
   18.3559  -18.8622    7.4678 N   0  0  0  0  0  0  0  0  0  0  0  0
   19.5844  -18.7923    8.2680 C   0  0  0  0  0  0  0  0  0  0  0  0
   20.2062  -20.1215    8.2773 C   0  0  0  0  0  0  0  0  0  0  0  0
   21.4149  -20.3354    8.9246 O   0  0  0  0  0  0  0  0  0  0  0  0
   19.6519  -21.1115    7.6914 O   0  0  0  0  0  0  0  0  0  0  0  0
  2  1  1  0
  3  2  1  0
  4  3  1  0
  4  5  1  0
  5  7  1  0
  5  6  1  1
  7  8  2  0
  9 10  1  0
  9  7  1  0
 10 11  1  6
 11 12  1  0
 13 12  1  0
 13 14  1  0
 14 15  1  0
 16 17  2  0
 16 10  1  0
 18 16  1  0
 19 18  1  0
 20 19  1  0
 21 20  1  0
 22 20  2  0
M  END
$$$$
