MKG.pdb
     RDKit          3D

 22 21  0  0  1  0  0  0  0  0999 V2000
   28.2864  -10.9055  -15.8030 C   0  0  0  0  0  0  0  0  0  0  0  0
   27.9508  -12.6789  -15.6373 S   0  0  0  0  0  0  0  0  0  0  0  0
   26.2457  -13.0580  -16.0394 C   0  0  0  0  0  0  0  0  0  0  0  0
   25.3085  -11.8947  -15.8570 C   0  0  0  0  0  0  0  0  0  0  0  0
   23.8959  -12.1682  -16.2636 C   0  0  2  0  0  0  0  0  0  0  0  0
   23.7253  -13.0899  -17.3357 N   0  0  0  0  0  0  0  0  0  0  0  0
   23.1268  -10.9099  -16.4798 C   0  0  0  0  0  0  0  0  0  0  0  0
   23.1848  -10.2685  -17.5603 O   0  0  0  0  0  0  0  0  0  0  0  0
   22.2938  -10.3871  -15.4626 N   0  0  0  0  0  0  0  0  0  0  0  0
   21.4902   -9.1526  -15.6798 C   0  0  1  0  0  0  0  0  0  0  0  0
   20.0486   -9.5013  -15.3445 C   0  0  0  0  0  0  0  0  0  0  0  0
   19.2931  -10.1442  -16.4531 C   0  0  0  0  0  0  0  0  0  0  0  0
   19.1317  -11.6480  -16.2275 C   0  0  0  0  0  0  0  0  0  0  0  0
   18.3102  -12.2194  -17.3272 C   0  0  0  0  0  0  0  0  0  0  0  0
   18.2098  -13.6549  -17.1596 N   0  0  0  0  0  0  0  0  0  0  0  0
   22.0059   -8.1413  -14.7508 C   0  0  0  0  0  0  0  0  0  0  0  0
   22.6245   -8.5038  -13.7167 O   0  0  0  0  0  0  0  0  0  0  0  0
   21.8346   -6.7538  -14.9808 N   0  0  0  0  0  0  0  0  0  0  0  0
   22.3539   -5.7467  -14.0477 C   0  0  0  0  0  0  0  0  0  0  0  0
   22.0821   -4.4167  -14.6049 C   0  0  0  0  0  0  0  0  0  0  0  0
   22.3907   -3.2696  -13.8876 O   0  0  0  0  0  0  0  0  0  0  0  0
   21.5560   -4.2822  -15.7607 O   0  0  0  0  0  0  0  0  0  0  0  0
  2  1  1  0
  3  2  1  0
  4  3  1  0
  4  5  1  0
  5  7  1  0
  5  6  1  6
  7  8  2  0
  9 10  1  0
  9  7  1  0
 10 11  1  1
 11 12  1  0
 13 12  1  0
 13 14  1  0
 14 15  1  0
 16 17  2  0
 16 10  1  0
 18 16  1  0
 19 18  1  0
 20 19  1  0
 21 20  1  0
 22 20  2  0
M  END
$$$$
