MKG.pdb
     RDKit          3D

 22 21  0  0  1  0  0  0  0  0999 V2000
   19.0434  -20.2537  -18.5116 C   0  0  0  0  0  0  0  0  0  0  0  0
   20.2588  -20.2613  -19.8562 S   0  0  0  0  0  0  0  0  0  0  0  0
   21.6803  -21.2713  -19.4416 C   0  0  0  0  0  0  0  0  0  0  0  0
   21.8425  -21.5096  -17.9645 C   0  0  0  0  0  0  0  0  0  0  0  0
   22.4373  -20.3612  -17.2140 C   0  0  2  0  0  0  0  0  0  0  0  0
   23.5714  -19.7457  -17.8167 N   0  0  0  0  0  0  0  0  0  0  0  0
   22.6788  -20.6989  -15.7824 C   0  0  0  0  0  0  0  0  0  0  0  0
   22.0303  -21.5990  -15.1896 O   0  0  0  0  0  0  0  0  0  0  0  0
   23.6593  -20.0085  -15.0316 N   0  0  0  0  0  0  0  0  0  0  0  0
   23.8439  -20.2682  -13.5771 C   0  0  1  0  0  0  0  0  0  0  0  0
   25.1287  -19.5672  -13.1645 C   0  0  0  0  0  0  0  0  0  0  0  0
   25.4352  -19.6417  -11.7107 C   0  0  0  0  0  0  0  0  0  0  0  0
   26.4174  -20.7715  -11.3988 C   0  0  0  0  0  0  0  0  0  0  0  0
   26.6998  -20.7814   -9.9391 C   0  0  0  0  0  0  0  0  0  0  0  0
   27.6290  -21.8502   -9.6339 N   0  0  0  0  0  0  0  0  0  0  0  0
   22.6903  -19.6769  -12.8905 C   0  0  0  0  0  0  0  0  0  0  0  0
   22.2168  -18.5842  -13.2971 O   0  0  0  0  0  0  0  0  0  0  0  0
   22.0793  -20.3016  -11.7753 N   0  0  0  0  0  0  0  0  0  0  0  0
   21.0107  -19.6455  -11.0123 C   0  0  0  0  0  0  0  0  0  0  0  0
   19.7332  -19.9118  -11.6834 C   0  0  0  0  0  0  0  0  0  0  0  0
   19.3532  -21.2088  -11.9979 O   0  0  0  0  0  0  0  0  0  0  0  0
   18.9416  -18.9590  -11.9937 O   0  0  0  0  0  0  0  0  0  0  0  0
  2  1  1  0
  3  2  1  0
  4  3  1  0
  4  5  1  0
  5  7  1  0
  5  6  1  6
  7  8  2  0
  9 10  1  0
  9  7  1  0
 10 11  1  1
 11 12  1  0
 13 12  1  0
 13 14  1  0
 14 15  1  0
 16 17  2  0
 16 10  1  0
 18 16  1  0
 19 18  1  0
 20 19  1  0
 21 20  1  0
 22 20  2  0
M  END
$$$$
