MKG.pdb
     RDKit          3D

 22 21  0  0  1  0  0  0  0  0999 V2000
   28.3208  -13.5400  -15.4750 C   0  0  0  0  0  0  0  0  0  0  0  0
   27.2533  -12.1096  -15.7903 S   0  0  0  0  0  0  0  0  0  0  0  0
   26.5448  -12.1776  -17.4354 C   0  0  0  0  0  0  0  0  0  0  0  0
   25.6112  -11.0368  -17.7391 C   0  0  0  0  0  0  0  0  0  0  0  0
   24.5668  -10.7972  -16.6962 C   0  0  2  0  0  0  0  0  0  0  0  0
   23.8308  -11.9430  -16.2793 N   0  0  0  0  0  0  0  0  0  0  0  0
   23.6740   -9.6591  -17.0557 C   0  0  0  0  0  0  0  0  0  0  0  0
   24.1108   -8.6142  -17.6030 O   0  0  0  0  0  0  0  0  0  0  0  0
   22.2856   -9.7165  -16.7895 N   0  0  0  0  0  0  0  0  0  0  0  0
   21.3715   -8.6196  -17.2115 C   0  0  1  0  0  0  0  0  0  0  0  0
   20.0377   -9.2650  -17.5527 C   0  0  0  0  0  0  0  0  0  0  0  0
   20.0530  -10.1070  -18.7791 C   0  0  0  0  0  0  0  0  0  0  0  0
   18.6816  -10.7240  -19.0564 C   0  0  0  0  0  0  0  0  0  0  0  0
   18.7655  -11.5665  -20.2787 C   0  0  0  0  0  0  0  0  0  0  0  0
   17.5312  -12.3076  -20.4404 N   0  0  0  0  0  0  0  0  0  0  0  0
   21.2299   -7.7191  -16.0622 C   0  0  0  0  0  0  0  0  0  0  0  0
   21.0954   -8.2004  -14.9072 O   0  0  0  0  0  0  0  0  0  0  0  0
   21.2438   -6.3098  -16.2065 N   0  0  0  0  0  0  0  0  0  0  0  0
   21.0378   -5.4144  -15.0618 C   0  0  0  0  0  0  0  0  0  0  0  0
   22.3360   -5.1795  -14.4192 C   0  0  0  0  0  0  0  0  0  0  0  0
   22.4374   -4.3645  -13.3007 O   0  0  0  0  0  0  0  0  0  0  0  0
   23.4016   -5.7178  -14.8722 O   0  0  0  0  0  0  0  0  0  0  0  0
  2  1  1  0
  3  2  1  0
  4  3  1  0
  4  5  1  0
  5  7  1  0
  5  6  1  6
  7  8  2  0
  9 10  1  0
  9  7  1  0
 10 11  1  1
 11 12  1  0
 13 12  1  0
 13 14  1  0
 14 15  1  0
 16 17  2  0
 16 10  1  0
 18 16  1  0
 19 18  1  0
 20 19  1  0
 21 20  1  0
 22 20  2  0
M  END
$$$$
