MKG.pdb
     RDKit          3D

 22 21  0  0  1  0  0  0  0  0999 V2000
   22.6623  -20.2882   -9.8739 C   0  0  0  0  0  0  0  0  0  0  0  0
   24.0678  -21.2445   -9.2453 S   0  0  0  0  0  0  0  0  0  0  0  0
   25.5214  -20.2136   -9.0532 C   0  0  0  0  0  0  0  0  0  0  0  0
   26.2185  -19.9037  -10.3506 C   0  0  0  0  0  0  0  0  0  0  0  0
   26.1214  -20.9847  -11.3790 C   0  0  2  0  0  0  0  0  0  0  0  0
   27.2723  -21.8112  -11.5222 N   0  0  0  0  0  0  0  0  0  0  0  0
   25.6409  -20.4625  -12.6898 C   0  0  0  0  0  0  0  0  0  0  0  0
   25.7949  -19.2606  -13.0273 O   0  0  0  0  0  0  0  0  0  0  0  0
   24.9863  -21.3132  -13.6115 N   0  0  0  0  0  0  0  0  0  0  0  0
   24.5486  -20.8170  -14.9453 C   0  0  1  0  0  0  0  0  0  0  0  0
   25.2963  -21.6352  -15.9864 C   0  0  0  0  0  0  0  0  0  0  0  0
   26.7640  -21.3956  -16.0249 C   0  0  0  0  0  0  0  0  0  0  0  0
   27.4442  -22.2365  -17.1059 C   0  0  0  0  0  0  0  0  0  0  0  0
   28.9043  -21.9557  -17.0936 C   0  0  0  0  0  0  0  0  0  0  0  0
   29.5777  -22.8585  -18.0048 N   0  0  0  0  0  0  0  0  0  0  0  0
   23.1050  -21.0614  -15.0365 C   0  0  0  0  0  0  0  0  0  0  0  0
   22.6237  -22.1276  -14.5728 O   0  0  0  0  0  0  0  0  0  0  0  0
   22.2216  -20.1269  -15.6310 N   0  0  0  0  0  0  0  0  0  0  0  0
   20.8069  -20.4417  -15.8634 C   0  0  0  0  0  0  0  0  0  0  0  0
   20.0209  -19.8810  -14.7584 C   0  0  0  0  0  0  0  0  0  0  0  0
   19.3551  -18.6720  -14.9025 O   0  0  0  0  0  0  0  0  0  0  0  0
   19.9306  -20.4900  -13.6397 O   0  0  0  0  0  0  0  0  0  0  0  0
  2  1  1  0
  3  2  1  0
  4  3  1  0
  4  5  1  0
  5  7  1  0
  5  6  1  6
  7  8  2  0
  9 10  1  0
  9  7  1  0
 10 11  1  6
 11 12  1  0
 13 12  1  0
 13 14  1  0
 14 15  1  0
 16 17  2  0
 16 10  1  0
 18 16  1  0
 19 18  1  0
 20 19  1  0
 21 20  1  0
 22 20  2  0
M  END
$$$$
