MKG.pdb
     RDKit          3D

 22 21  0  0  1  0  0  0  0  0999 V2000
   29.6857  -20.9337  -12.2704 C   0  0  0  0  0  0  0  0  0  0  0  0
   29.4735  -21.3116  -10.5105 S   0  0  0  0  0  0  0  0  0  0  0  0
   27.9258  -20.6566   -9.8871 C   0  0  0  0  0  0  0  0  0  0  0  0
   26.8096  -20.6791  -10.8963 C   0  0  0  0  0  0  0  0  0  0  0  0
   25.5006  -20.1707  -10.3829 C   0  0  2  0  0  0  0  0  0  0  0  0
   25.0278  -20.7733   -9.1823 N   0  0  0  0  0  0  0  0  0  0  0  0
   24.4571  -20.1499  -11.4470 C   0  0  0  0  0  0  0  0  0  0  0  0
   23.2504  -20.4095  -11.2048 O   0  0  0  0  0  0  0  0  0  0  0  0
   24.7935  -19.8328  -12.7842 N   0  0  0  0  0  0  0  0  0  0  0  0
   23.7445  -19.6778  -13.8294 C   0  0  1  0  0  0  0  0  0  0  0  0
   24.3144  -18.7499  -14.8907 C   0  0  0  0  0  0  0  0  0  0  0  0
   23.3184  -18.2523  -15.8775 C   0  0  0  0  0  0  0  0  0  0  0  0
   23.9793  -17.4109  -16.9700 C   0  0  0  0  0  0  0  0  0  0  0  0
   22.9495  -17.0098  -17.9648 C   0  0  0  0  0  0  0  0  0  0  0  0
   23.5627  -16.1933  -18.9925 N   0  0  0  0  0  0  0  0  0  0  0  0
   23.5009  -21.0123  -14.3877 C   0  0  0  0  0  0  0  0  0  0  0  0
   24.0409  -21.3397  -15.4762 O   0  0  0  0  0  0  0  0  0  0  0  0
   22.6732  -21.9593  -13.7355 N   0  0  0  0  0  0  0  0  0  0  0  0
   21.2808  -21.6555  -13.3843 C   0  0  0  0  0  0  0  0  0  0  0  0
   20.4273  -22.0195  -14.5211 C   0  0  0  0  0  0  0  0  0  0  0  0
   19.4735  -23.0202  -14.4010 O   0  0  0  0  0  0  0  0  0  0  0  0
   20.5410  -21.4261  -15.6460 O   0  0  0  0  0  0  0  0  0  0  0  0
  2  1  1  0
  3  2  1  0
  4  3  1  0
  4  5  1  0
  5  7  1  0
  5  6  1  1
  7  8  2  0
  9 10  1  0
  9  7  1  0
 10 11  1  6
 11 12  1  0
 13 12  1  0
 13 14  1  0
 14 15  1  0
 16 17  2  0
 16 10  1  0
 18 16  1  0
 19 18  1  0
 20 19  1  0
 21 20  1  0
 22 20  2  0
M  END
$$$$
