MKG.pdb
     RDKit          3D

 22 21  0  0  1  0  0  0  0  0999 V2000
   26.2076  -14.2338  -14.1422 C   0  0  0  0  0  0  0  0  0  0  0  0
   27.0118  -14.0759  -15.7589 S   0  0  0  0  0  0  0  0  0  0  0  0
   25.9003  -14.5412  -17.0859 C   0  0  0  0  0  0  0  0  0  0  0  0
   25.1573  -15.8248  -16.8299 C   0  0  0  0  0  0  0  0  0  0  0  0
   25.9979  -17.0572  -16.9308 C   0  0  2  0  0  0  0  0  0  0  0  0
   26.6028  -17.2947  -18.1980 N   0  0  0  0  0  0  0  0  0  0  0  0
   25.2830  -18.2604  -16.4178 C   0  0  0  0  0  0  0  0  0  0  0  0
   24.5901  -18.9959  -17.1667 O   0  0  0  0  0  0  0  0  0  0  0  0
   25.3610  -18.6206  -15.0518 N   0  0  0  0  0  0  0  0  0  0  0  0
   24.6646  -19.8287  -14.5299 C   0  0  1  0  0  0  0  0  0  0  0  0
   25.4758  -20.3265  -13.3440 C   0  0  0  0  0  0  0  0  0  0  0  0
   25.0367  -21.6402  -12.8012 C   0  0  0  0  0  0  0  0  0  0  0  0
   25.0099  -22.7178  -13.8858 C   0  0  0  0  0  0  0  0  0  0  0  0
   24.4814  -23.9800  -13.3043 C   0  0  0  0  0  0  0  0  0  0  0  0
   24.4100  -24.9946  -14.3361 N   0  0  0  0  0  0  0  0  0  0  0  0
   23.3310  -19.3966  -14.0977 C   0  0  0  0  0  0  0  0  0  0  0  0
   23.1755  -18.2442  -13.6168 O   0  0  0  0  0  0  0  0  0  0  0  0
   22.1968  -20.2384  -14.2077 N   0  0  0  0  0  0  0  0  0  0  0  0
   20.8866  -19.8420  -13.6778 C   0  0  0  0  0  0  0  0  0  0  0  0
   19.9330  -20.9247  -13.9451 C   0  0  0  0  0  0  0  0  0  0  0  0
   20.2639  -21.9679  -14.7982 O   0  0  0  0  0  0  0  0  0  0  0  0
   18.7779  -20.9336  -13.4007 O   0  0  0  0  0  0  0  0  0  0  0  0
  2  1  1  0
  3  2  1  0
  4  3  1  0
  4  5  1  0
  5  7  1  0
  5  6  1  6
  7  8  2  0
  9 10  1  0
  9  7  1  0
 10 11  1  1
 11 12  1  0
 13 12  1  0
 13 14  1  0
 14 15  1  0
 16 17  2  0
 16 10  1  0
 18 16  1  0
 19 18  1  0
 20 19  1  0
 21 20  1  0
 22 20  2  0
M  END
$$$$
