MKG.pdb
     RDKit          3D

 22 21  0  0  1  0  0  0  0  0999 V2000
   29.7669  -20.4101   -5.6814 C   0  0  0  0  0  0  0  0  0  0  0  0
   28.3403  -19.4891   -5.0474 S   0  0  0  0  0  0  0  0  0  0  0  0
   26.8531  -19.8794   -5.9686 C   0  0  0  0  0  0  0  0  0  0  0  0
   27.0261  -19.7919   -7.4611 C   0  0  0  0  0  0  0  0  0  0  0  0
   25.7944  -20.1103   -8.2467 C   0  0  2  0  0  0  0  0  0  0  0  0
   25.2695  -21.4230   -8.0741 N   0  0  0  0  0  0  0  0  0  0  0  0
   25.9458  -19.7530   -9.6857 C   0  0  0  0  0  0  0  0  0  0  0  0
   26.3054  -18.6057  -10.0552 O   0  0  0  0  0  0  0  0  0  0  0  0
   25.6864  -20.7058  -10.6991 N   0  0  0  0  0  0  0  0  0  0  0  0
   25.6521  -20.3165  -12.1358 C   0  0  1  0  0  0  0  0  0  0  0  0
   26.7019  -21.1576  -12.8449 C   0  0  0  0  0  0  0  0  0  0  0  0
   26.7657  -20.9558  -14.3174 C   0  0  0  0  0  0  0  0  0  0  0  0
   27.8443  -21.8290  -14.9598 C   0  0  0  0  0  0  0  0  0  0  0  0
   27.8844  -21.5562  -16.4209 C   0  0  0  0  0  0  0  0  0  0  0  0
   28.9974  -22.2684  -17.0149 N   0  0  0  0  0  0  0  0  0  0  0  0
   24.3101  -20.6408  -12.6316 C   0  0  0  0  0  0  0  0  0  0  0  0
   23.6668  -21.5892  -12.1118 O   0  0  0  0  0  0  0  0  0  0  0  0
   23.7027  -19.9129  -13.6844 N   0  0  0  0  0  0  0  0  0  0  0  0
   22.2867  -19.5285  -13.6407 C   0  0  0  0  0  0  0  0  0  0  0  0
   21.4966  -20.6051  -14.2490 C   0  0  0  0  0  0  0  0  0  0  0  0
   20.1287  -20.4638  -14.4351 O   0  0  0  0  0  0  0  0  0  0  0  0
   22.0467  -21.6957  -14.6211 O   0  0  0  0  0  0  0  0  0  0  0  0
  2  1  1  0
  3  2  1  0
  4  3  1  0
  4  5  1  0
  5  7  1  0
  5  6  1  6
  7  8  2  0
  9 10  1  0
  9  7  1  0
 10 11  1  6
 11 12  1  0
 13 12  1  0
 13 14  1  0
 14 15  1  0
 16 17  2  0
 16 10  1  0
 18 16  1  0
 19 18  1  0
 20 19  1  0
 21 20  1  0
 22 20  2  0
M  END
$$$$
