PLF.pdb
     RDKit          3D

 27 28  0  0  1  0  0  0  0  0999 V2000
   27.0900  -19.0395  -16.1895 N   0  0  0  0  0  0  0  0  0  0  0  0
   28.2420  -18.2262  -15.8886 C   0  0  0  0  0  0  0  0  0  0  0  0
   29.2540  -19.0868  -15.2104 C   0  0  0  0  0  0  0  0  0  0  0  0
   28.8467  -20.4838  -15.5408 C   0  0  0  0  0  0  0  0  0  0  0  0
   27.4076  -20.3976  -15.8777 C   0  0  1  0  0  0  0  0  0  0  0  0
   26.5122  -20.9800  -14.8522 C   0  0  0  0  0  0  0  0  0  0  0  0
   26.5761  -22.2249  -14.6668 O   0  0  0  0  0  0  0  0  0  0  0  0
   25.7324  -22.1718  -10.0840 C   0  0  0  0  0  0  0  0  0  0  0  0
   24.9168  -20.9563  -10.4763 C   0  0  1  0  0  0  0  0  0  0  0  0
   25.2291  -19.9016   -9.3931 C   0  0  0  0  0  0  0  0  0  0  0  0
   25.3459  -20.3664  -11.7548 C   0  0  0  0  0  0  0  0  0  0  0  0
   24.7647  -20.8514  -13.0198 C   0  0  2  0  0  0  0  0  0  0  0  0
   25.6082  -20.2421  -14.0834 N   0  0  0  0  0  0  0  0  0  0  0  0
   23.4060  -20.4517  -13.3588 C   0  0  0  0  0  0  0  0  0  0  0  0
   22.9863  -19.2672  -13.4152 O   0  0  0  0  0  0  0  0  0  0  0  0
   22.4463  -21.4532  -13.6583 N   0  0  0  0  0  0  0  0  0  0  0  0
   21.0446  -21.1117  -13.9087 C   0  0  1  0  0  0  0  0  0  0  0  0
   20.6336  -21.6518  -15.2394 C   0  0  0  0  0  0  0  0  0  0  0  0
   21.3281  -20.9802  -16.3603 C   0  0  0  0  0  0  0  0  0  0  0  0
   20.7587  -19.8468  -16.8953 C   0  0  0  0  0  0  0  0  0  0  0  0
   21.3961  -19.2021  -17.9477 C   0  0  0  0  0  0  0  0  0  0  0  0
   22.5900  -19.6636  -18.4784 C   0  0  0  0  0  0  0  0  0  0  0  0
   23.1488  -20.7940  -17.9378 C   0  0  0  0  0  0  0  0  0  0  0  0
   22.5152  -21.4423  -16.8853 C   0  0  0  0  0  0  0  0  0  0  0  0
   20.2093  -21.5285  -12.7790 C   0  0  0  0  0  0  0  0  0  0  0  0
   20.6045  -22.1849  -11.7981 O   0  0  0  0  0  0  0  0  0  0  0  0
   18.8556  -21.1707  -12.7823 O   0  0  0  0  0  0  0  0  0  0  0  0
  1  2  1  0
  3  2  1  0
  4  5  1  0
  4  3  1  0
  5  1  1  0
  5  6  1  1
  6  7  2  0
  9 10  1  1
  9  8  1  0
 11  9  1  0
 12 11  1  1
 12 13  1  0
 13  6  1  0
 14 15  2  0
 14 12  1  0
 16 14  1  0
 17 16  1  0
 17 18  1  6
 19 18  1  0
 19 20  2  0
 21 20  1  0
 22 21  2  0
 23 24  2  0
 23 22  1  0
 24 19  1  0
 25 17  1  0
 26 25  2  0
 27 25  1  0
M  END
$$$$
