PLF.pdb
     RDKit          3D

 27 28  0  0  1  0  0  0  0  0999 V2000
   28.6173  -20.8776  -15.2188 N   0  0  0  0  0  0  0  0  0  0  0  0
   28.4546  -20.3131  -16.5356 C   0  0  0  0  0  0  0  0  0  0  0  0
   27.5850  -19.1069  -16.4198 C   0  0  0  0  0  0  0  0  0  0  0  0
   27.6351  -18.7403  -14.9741 C   0  0  0  0  0  0  0  0  0  0  0  0
   28.0254  -19.9845  -14.2731 C   0  0  1  0  0  0  0  0  0  0  0  0
   26.9298  -20.6081  -13.4963 C   0  0  0  0  0  0  0  0  0  0  0  0
   26.5579  -21.7614  -13.8422 O   0  0  0  0  0  0  0  0  0  0  0  0
   26.2132  -19.9209   -8.0582 C   0  0  0  0  0  0  0  0  0  0  0  0
   26.2069  -20.6401   -9.3921 C   0  0  1  0  0  0  0  0  0  0  0  0
   25.7504  -22.0783   -9.0661 C   0  0  0  0  0  0  0  0  0  0  0  0
   25.2100  -20.0992  -10.3303 C   0  0  0  0  0  0  0  0  0  0  0  0
   25.1347  -20.6238  -11.7059 C   0  0  2  0  0  0  0  0  0  0  0  0
   26.2876  -20.0030  -12.4126 N   0  0  0  0  0  0  0  0  0  0  0  0
   23.9784  -20.2761  -12.5200 C   0  0  0  0  0  0  0  0  0  0  0  0
   23.7837  -19.1637  -13.0740 O   0  0  0  0  0  0  0  0  0  0  0  0
   22.9653  -21.2473  -12.7304 N   0  0  0  0  0  0  0  0  0  0  0  0
   21.7607  -20.9338  -13.5016 C   0  0  1  0  0  0  0  0  0  0  0  0
   21.5841  -21.9522  -14.5799 C   0  0  0  0  0  0  0  0  0  0  0  0
   22.6258  -21.8529  -15.6263 C   0  0  0  0  0  0  0  0  0  0  0  0
   23.6476  -22.7753  -15.6192 C   0  0  0  0  0  0  0  0  0  0  0  0
   24.6344  -22.6987  -16.5937 C   0  0  0  0  0  0  0  0  0  0  0  0
   24.6242  -21.7214  -17.5759 C   0  0  0  0  0  0  0  0  0  0  0  0
   23.6013  -20.8072  -17.5739 C   0  0  0  0  0  0  0  0  0  0  0  0
   22.6121  -20.8796  -16.6014 C   0  0  0  0  0  0  0  0  0  0  0  0
   20.6127  -20.7647  -12.6063 C   0  0  0  0  0  0  0  0  0  0  0  0
   20.6365  -20.9205  -11.3717 O   0  0  0  0  0  0  0  0  0  0  0  0
   19.3809  -20.3990  -13.1626 O   0  0  0  0  0  0  0  0  0  0  0  0
  1  2  1  0
  3  2  1  0
  4  5  1  0
  4  3  1  0
  5  1  1  0
  5  6  1  6
  6  7  2  0
  9 10  1  1
  9  8  1  0
 11  9  1  0
 12 11  1  1
 12 13  1  0
 13  6  1  0
 14 15  2  0
 14 12  1  0
 16 14  1  0
 17 16  1  0
 17 18  1  6
 19 18  1  0
 19 20  2  0
 21 20  1  0
 22 21  2  0
 23 24  2  0
 23 22  1  0
 24 19  1  0
 25 17  1  0
 26 25  2  0
 27 25  1  0
M  END
$$$$
