PLF.pdb
     RDKit          3D

 27 28  0  0  1  0  0  0  0  0999 V2000
   21.4616   -9.8100  -21.5119 N   0  0  0  0  0  0  0  0  0  0  0  0
   22.1971   -9.0093  -22.4591 C   0  0  0  0  0  0  0  0  0  0  0  0
   23.3251   -8.3536  -21.7363 C   0  0  0  0  0  0  0  0  0  0  0  0
   23.4854   -9.1477  -20.4830 C   0  0  0  0  0  0  0  0  0  0  0  0
   22.1778   -9.8103  -20.2752 C   0  0  1  0  0  0  0  0  0  0  0  0
   21.3911   -9.2527  -19.1514 C   0  0  0  0  0  0  0  0  0  0  0  0
   20.6511   -8.2627  -19.3972 O   0  0  0  0  0  0  0  0  0  0  0  0
   17.7421   -9.0700  -15.3979 C   0  0  0  0  0  0  0  0  0  0  0  0
   18.9148   -9.9689  -15.0618 C   0  0  1  0  0  0  0  0  0  0  0  0
   18.2822  -11.3320  -14.7084 C   0  0  0  0  0  0  0  0  0  0  0  0
   19.7966  -10.2157  -16.2142 C   0  0  0  0  0  0  0  0  0  0  0  0
   20.6546   -9.1329  -16.7283 C   0  0  2  0  0  0  0  0  0  0  0  0
   21.4175   -9.7512  -17.8462 N   0  0  0  0  0  0  0  0  0  0  0  0
   21.6774   -8.5806  -15.8510 C   0  0  0  0  0  0  0  0  0  0  0  0
   22.7428   -9.1600  -15.5167 O   0  0  0  0  0  0  0  0  0  0  0  0
   21.4939   -7.2821  -15.3087 N   0  0  0  0  0  0  0  0  0  0  0  0
   22.5539   -6.6208  -14.5451 C   0  0  1  0  0  0  0  0  0  0  0  0
   23.1979   -5.5751  -15.3954 C   0  0  0  0  0  0  0  0  0  0  0  0
   22.2743   -4.4662  -15.7230 C   0  0  0  0  0  0  0  0  0  0  0  0
   22.2980   -3.3415  -14.9295 C   0  0  0  0  0  0  0  0  0  0  0  0
   21.4389   -2.2899  -15.2214 C   0  0  0  0  0  0  0  0  0  0  0  0
   20.5559   -2.3356  -16.2883 C   0  0  0  0  0  0  0  0  0  0  0  0
   20.5405   -3.4611  -17.0727 C   0  0  0  0  0  0  0  0  0  0  0  0
   21.3978   -4.5154  -16.7848 C   0  0  0  0  0  0  0  0  0  0  0  0
   22.0358   -6.1491  -13.2580 C   0  0  0  0  0  0  0  0  0  0  0  0
   22.7216   -5.6458  -12.3493 O   0  0  0  0  0  0  0  0  0  0  0  0
   20.6627   -6.2639  -13.0089 O   0  0  0  0  0  0  0  0  0  0  0  0
  1  2  1  0
  3  2  1  0
  4  5  1  0
  4  3  1  0
  5  1  1  0
  5  6  1  1
  6  7  2  0
  9 10  1  6
  9  8  1  0
 11  9  1  0
 12 11  1  1
 12 13  1  0
 13  6  1  0
 14 15  2  0
 14 12  1  0
 16 14  1  0
 17 16  1  0
 17 18  1  6
 19 18  1  0
 19 20  2  0
 21 20  1  0
 22 21  2  0
 23 24  2  0
 23 22  1  0
 24 19  1  0
 25 17  1  0
 26 25  2  0
 27 25  1  0
M  END
$$$$
