PLF.pdb
     RDKit          3D

 27 28  0  0  1  0  0  0  0  0999 V2000
   31.4347  -23.0088  -12.1797 N   0  0  0  0  0  0  0  0  0  0  0  0
   32.6880  -22.6418  -12.7912 C   0  0  0  0  0  0  0  0  0  0  0  0
   33.3601  -21.6435  -11.9099 C   0  0  0  0  0  0  0  0  0  0  0  0
   32.6905  -21.7954  -10.5850 C   0  0  0  0  0  0  0  0  0  0  0  0
   31.3769  -22.4094  -10.8837 C   0  0  1  0  0  0  0  0  0  0  0  0
   30.2297  -21.4869  -10.7240 C   0  0  0  0  0  0  0  0  0  0  0  0
   30.2689  -20.6748   -9.7611 O   0  0  0  0  0  0  0  0  0  0  0  0
   28.0520  -18.2046  -13.7301 C   0  0  0  0  0  0  0  0  0  0  0  0
   26.9212  -19.1058  -13.2765 C   0  0  1  0  0  0  0  0  0  0  0  0
   26.1285  -19.4265  -14.5618 C   0  0  0  0  0  0  0  0  0  0  0  0
   27.3928  -20.3991  -12.7555 C   0  0  0  0  0  0  0  0  0  0  0  0
   28.0134  -20.4715  -11.4203 C   0  0  2  0  0  0  0  0  0  0  0  0
   29.1155  -21.4603  -11.5670 N   0  0  0  0  0  0  0  0  0  0  0  0
   27.2171  -20.9756  -10.3102 C   0  0  0  0  0  0  0  0  0  0  0  0
   26.9696  -22.1874  -10.0805 O   0  0  0  0  0  0  0  0  0  0  0  0
   26.6574  -20.0539   -9.3877 N   0  0  0  0  0  0  0  0  0  0  0  0
   25.9207  -20.5121   -8.2080 C   0  0  1  0  0  0  0  0  0  0  0  0
   26.0176  -19.4803   -7.1322 C   0  0  0  0  0  0  0  0  0  0  0  0
   27.2499  -19.6205   -6.3249 C   0  0  0  0  0  0  0  0  0  0  0  0
   27.3514  -20.6953   -5.4708 C   0  0  0  0  0  0  0  0  0  0  0  0
   28.5007  -20.8442   -4.7051 C   0  0  0  0  0  0  0  0  0  0  0  0
   29.5517  -19.9438   -4.7727 C   0  0  0  0  0  0  0  0  0  0  0  0
   29.4401  -18.8762   -5.6272 C   0  0  0  0  0  0  0  0  0  0  0  0
   28.2928  -18.7229   -6.3950 C   0  0  0  0  0  0  0  0  0  0  0  0
   24.5579  -20.9033   -8.5790 C   0  0  0  0  0  0  0  0  0  0  0  0
   23.9988  -20.6234   -9.6552 O   0  0  0  0  0  0  0  0  0  0  0  0
   23.8066  -21.6522   -7.6651 O   0  0  0  0  0  0  0  0  0  0  0  0
  1  2  1  0
  3  2  1  0
  4  5  1  0
  4  3  1  0
  5  1  1  0
  5  6  1  6
  6  7  2  0
  9 10  1  6
  9  8  1  0
 11  9  1  0
 12 11  1  6
 12 13  1  0
 13  6  1  0
 14 15  2  0
 14 12  1  0
 16 14  1  0
 17 16  1  0
 17 18  1  1
 19 18  1  0
 19 20  2  0
 21 20  1  0
 22 21  2  0
 23 24  2  0
 23 22  1  0
 24 19  1  0
 25 17  1  0
 26 25  2  0
 27 25  1  0
M  END
$$$$
