PLF.pdb
     RDKit          3D

 27 28  0  0  1  0  0  0  0  0999 V2000
   26.3282  -18.1577  -13.4896 N   0  0  0  0  0  0  0  0  0  0  0  0
   26.9355  -17.3189  -14.4930 C   0  0  0  0  0  0  0  0  0  0  0  0
   27.3974  -18.1918  -15.6108 C   0  0  0  0  0  0  0  0  0  0  0  0
   26.6409  -19.4660  -15.4347 C   0  0  0  0  0  0  0  0  0  0  0  0
   26.2453  -19.4869  -14.0081 C   0  0  1  0  0  0  0  0  0  0  0  0
   26.9877  -20.4736  -13.1909 C   0  0  0  0  0  0  0  0  0  0  0  0
   26.8753  -21.6886  -13.5060 O   0  0  0  0  0  0  0  0  0  0  0  0
   32.0532  -21.2341  -10.1451 C   0  0  0  0  0  0  0  0  0  0  0  0
   31.0581  -21.6717  -11.2010 C   0  0  1  0  0  0  0  0  0  0  0  0
   30.4054  -22.9478  -10.6274 C   0  0  0  0  0  0  0  0  0  0  0  0
   29.9642  -20.7058  -11.3930 C   0  0  0  0  0  0  0  0  0  0  0  0
   28.5631  -21.1594  -11.3265 C   0  0  2  0  0  0  0  0  0  0  0  0
   27.7985  -20.1449  -12.1012 N   0  0  0  0  0  0  0  0  0  0  0  0
   27.9057  -21.1973  -10.0277 C   0  0  0  0  0  0  0  0  0  0  0  0
   28.4157  -21.6342   -8.9640 O   0  0  0  0  0  0  0  0  0  0  0  0
   26.5787  -20.7080   -9.9111 N   0  0  0  0  0  0  0  0  0  0  0  0
   25.9372  -20.5557   -8.6037 C   0  0  1  0  0  0  0  0  0  0  0  0
   26.4008  -19.2851   -7.9697 C   0  0  0  0  0  0  0  0  0  0  0  0
   27.2643  -19.5241   -6.7919 C   0  0  0  0  0  0  0  0  0  0  0  0
   27.0384  -20.6520   -6.0356 C   0  0  0  0  0  0  0  0  0  0  0  0
   27.8390  -20.8938   -4.9265 C   0  0  0  0  0  0  0  0  0  0  0  0
   28.8606  -20.0345   -4.5552 C   0  0  0  0  0  0  0  0  0  0  0  0
   29.0771  -18.9135   -5.3158 C   0  0  0  0  0  0  0  0  0  0  0  0
   28.2792  -18.6673   -6.4259 C   0  0  0  0  0  0  0  0  0  0  0  0
   24.4840  -20.6982   -8.7300 C   0  0  0  0  0  0  0  0  0  0  0  0
   23.8355  -20.5352   -9.7798 O   0  0  0  0  0  0  0  0  0  0  0  0
   23.7462  -21.0448   -7.5915 O   0  0  0  0  0  0  0  0  0  0  0  0
  1  2  1  0
  3  2  1  0
  4  5  1  0
  4  3  1  0
  5  1  1  0
  5  6  1  1
  6  7  2  0
  9 10  1  1
  9  8  1  0
 11  9  1  0
 12 11  1  1
 12 13  1  0
 13  6  1  0
 14 15  2  0
 14 12  1  0
 16 14  1  0
 17 16  1  0
 17 18  1  6
 19 18  1  0
 19 20  2  0
 21 20  1  0
 22 21  2  0
 23 24  2  0
 23 22  1  0
 24 19  1  0
 25 17  1  0
 26 25  2  0
 27 25  1  0
M  END
$$$$
