PLF.pdb
     RDKit          3D

 27 28  0  0  1  0  0  0  0  0999 V2000
   31.4270  -28.2299  -21.2600 N   0  0  0  0  0  0  0  0  0  0  0  0
   30.9577  -29.1454  -22.2703 C   0  0  0  0  0  0  0  0  0  0  0  0
   29.5334  -28.8180  -22.5685 C   0  0  0  0  0  0  0  0  0  0  0  0
   29.3466  -27.4307  -22.0514 C   0  0  0  0  0  0  0  0  0  0  0  0
   30.4115  -27.2487  -21.0391 C   0  0  1  0  0  0  0  0  0  0  0  0
   29.9193  -27.2303  -19.6427 C   0  0  0  0  0  0  0  0  0  0  0  0
   29.8791  -28.3297  -19.0280 O   0  0  0  0  0  0  0  0  0  0  0  0
   31.3537  -23.4057  -16.0576 C   0  0  0  0  0  0  0  0  0  0  0  0
   30.9856  -24.7355  -16.6842 C   0  0  1  0  0  0  0  0  0  0  0  0
   31.2975  -25.7867  -15.5975 C   0  0  0  0  0  0  0  0  0  0  0  0
   29.5462  -24.8570  -16.9670 C   0  0  0  0  0  0  0  0  0  0  0  0
   29.0163  -26.0971  -17.5622 C   0  0  2  0  0  0  0  0  0  0  0  0
   29.5000  -26.0799  -18.9692 N   0  0  0  0  0  0  0  0  0  0  0  0
   27.5727  -26.2522  -17.6752 C   0  0  0  0  0  0  0  0  0  0  0  0
   26.8088  -25.5086  -18.3430 O   0  0  0  0  0  0  0  0  0  0  0  0
   26.9375  -27.3205  -16.9903 N   0  0  0  0  0  0  0  0  0  0  0  0
   25.5002  -27.5641  -17.1289 C   0  0  1  0  0  0  0  0  0  0  0  0
   25.1528  -27.6662  -18.5781 C   0  0  0  0  0  0  0  0  0  0  0  0
   25.4328  -29.0095  -19.1324 C   0  0  0  0  0  0  0  0  0  0  0  0
   26.6483  -29.2231  -19.7424 C   0  0  0  0  0  0  0  0  0  0  0  0
   26.9295  -30.4776  -20.2683 C   0  0  0  0  0  0  0  0  0  0  0  0
   26.0242  -31.5243  -20.1991 C   0  0  0  0  0  0  0  0  0  0  0  0
   24.8159  -31.3005  -19.5891 C   0  0  0  0  0  0  0  0  0  0  0  0
   24.5299  -30.0478  -19.0616 C   0  0  0  0  0  0  0  0  0  0  0  0
   25.0960  -28.7076  -16.3062 C   0  0  0  0  0  0  0  0  0  0  0  0
   23.9206  -29.0465  -16.0765 O   0  0  0  0  0  0  0  0  0  0  0  0
   26.0951  -29.4958  -15.7222 O   0  0  0  0  0  0  0  0  0  0  0  0
  1  2  1  0
  3  2  1  0
  4  5  1  0
  4  3  1  0
  5  1  1  0
  5  6  1  1
  6  7  2  0
  9 10  1  1
  9  8  1  0
 11  9  1  0
 12 11  1  6
 12 13  1  0
 13  6  1  0
 14 15  2  0
 14 12  1  0
 16 14  1  0
 17 16  1  0
 17 18  1  6
 19 18  1  0
 19 20  2  0
 21 20  1  0
 22 21  2  0
 23 24  2  0
 23 22  1  0
 24 19  1  0
 25 17  1  0
 26 25  2  0
 27 25  1  0
M  END
$$$$
