PLF.pdb
     RDKit          3D

 27 28  0  0  1  0  0  0  0  0999 V2000
   16.3924  -11.4769  -15.4395 N   0  0  0  0  0  0  0  0  0  0  0  0
   14.9683  -11.6244  -15.6101 C   0  0  0  0  0  0  0  0  0  0  0  0
   14.3507  -10.2678  -15.5545 C   0  0  0  0  0  0  0  0  0  0  0  0
   15.4805   -9.3260  -15.8064 C   0  0  0  0  0  0  0  0  0  0  0  0
   16.7015  -10.0816  -15.4458 C   0  0  1  0  0  0  0  0  0  0  0  0
   17.3444   -9.6261  -14.1921 C   0  0  0  0  0  0  0  0  0  0  0  0
   17.0072  -10.2049  -13.1246 O   0  0  0  0  0  0  0  0  0  0  0  0
   22.6361   -8.5902  -13.8504 C   0  0  0  0  0  0  0  0  0  0  0  0
   21.2546   -9.0376  -13.4172 C   0  0  1  0  0  0  0  0  0  0  0  0
   21.4662   -9.7047  -12.0412 C   0  0  0  0  0  0  0  0  0  0  0  0
   20.3336   -7.9127  -13.1871 C   0  0  0  0  0  0  0  0  0  0  0  0
   18.9249   -8.1752  -12.8412 C   0  0  2  0  0  0  0  0  0  0  0  0
   18.2935   -8.6031  -14.1188 N   0  0  0  0  0  0  0  0  0  0  0  0
   18.1030   -7.0636  -12.3832 C   0  0  0  0  0  0  0  0  0  0  0  0
   17.5022   -6.2454  -13.1262 O   0  0  0  0  0  0  0  0  0  0  0  0
   17.9407   -6.8537  -10.9891 N   0  0  0  0  0  0  0  0  0  0  0  0
   17.1247   -5.7511  -10.4767 C   0  0  1  0  0  0  0  0  0  0  0  0
   15.7219   -5.9040  -10.9666 C   0  0  0  0  0  0  0  0  0  0  0  0
   14.9585   -6.9056  -10.1894 C   0  0  0  0  0  0  0  0  0  0  0  0
   14.3513   -6.5008   -9.0222 C   0  0  0  0  0  0  0  0  0  0  0  0
   13.6297   -7.4264   -8.2792 C   0  0  0  0  0  0  0  0  0  0  0  0
   13.5006   -8.7479   -8.6754 C   0  0  0  0  0  0  0  0  0  0  0  0
   14.1097   -9.1407   -9.8403 C   0  0  0  0  0  0  0  0  0  0  0  0
   14.8324   -8.2188  -10.5868 C   0  0  0  0  0  0  0  0  0  0  0  0
   17.2714   -5.6421   -9.0226 C   0  0  0  0  0  0  0  0  0  0  0  0
   17.9027   -6.4380   -8.3034 O   0  0  0  0  0  0  0  0  0  0  0  0
   16.6610   -4.5646   -8.3693 O   0  0  0  0  0  0  0  0  0  0  0  0
  1  2  1  0
  3  2  1  0
  4  5  1  0
  4  3  1  0
  5  1  1  0
  5  6  1  1
  6  7  2  0
  9 10  1  1
  9  8  1  0
 11  9  1  0
 12 11  1  6
 12 13  1  0
 13  6  1  0
 14 15  2  0
 14 12  1  0
 16 14  1  0
 17 16  1  0
 17 18  1  1
 19 18  1  0
 19 20  2  0
 21 20  1  0
 22 21  2  0
 23 24  2  0
 23 22  1  0
 24 19  1  0
 25 17  1  0
 26 25  2  0
 27 25  1  0
M  END
$$$$
