PLF.pdb
     RDKit          3D

 27 28  0  0  1  0  0  0  0  0999 V2000
   18.7242  -14.2965  -18.4212 N   0  0  0  0  0  0  0  0  0  0  0  0
   18.2338  -15.1143  -19.5028 C   0  0  0  0  0  0  0  0  0  0  0  0
   19.0867  -14.8614  -20.7000 C   0  0  0  0  0  0  0  0  0  0  0  0
   20.3307  -14.2422  -20.1558 C   0  0  0  0  0  0  0  0  0  0  0  0
   19.9389  -13.6747  -18.8458 C   0  0  1  0  0  0  0  0  0  0  0  0
   19.8690  -12.1957  -18.8260 C   0  0  0  0  0  0  0  0  0  0  0  0
   20.9115  -11.5621  -19.1421 O   0  0  0  0  0  0  0  0  0  0  0  0
   17.7588   -7.5827  -20.3981 C   0  0  0  0  0  0  0  0  0  0  0  0
   16.9551   -8.2658  -19.3100 C   0  0  1  0  0  0  0  0  0  0  0  0
   15.5097   -8.3082  -19.8507 C   0  0  0  0  0  0  0  0  0  0  0  0
   17.3520   -9.6672  -19.0982 C   0  0  0  0  0  0  0  0  0  0  0  0
   18.6761   -9.9782  -18.5299 C   0  0  2  0  0  0  0  0  0  0  0  0
   18.7291  -11.4644  -18.4816 N   0  0  0  0  0  0  0  0  0  0  0  0
   18.9625   -9.5590  -17.1649 C   0  0  0  0  0  0  0  0  0  0  0  0
   18.4804  -10.0783  -16.1256 O   0  0  0  0  0  0  0  0  0  0  0  0
   19.8565   -8.4785  -16.9478 N   0  0  0  0  0  0  0  0  0  0  0  0
   20.1632   -8.0059  -15.5963 C   0  0  1  0  0  0  0  0  0  0  0  0
   21.5463   -8.4311  -15.2251 C   0  0  0  0  0  0  0  0  0  0  0  0
   21.9654   -7.9017  -13.9083 C   0  0  0  0  0  0  0  0  0  0  0  0
   21.9373   -8.7507  -12.8250 C   0  0  0  0  0  0  0  0  0  0  0  0
   22.3276   -8.2722  -11.5808 C   0  0  0  0  0  0  0  0  0  0  0  0
   22.7457   -6.9645  -11.3934 C   0  0  0  0  0  0  0  0  0  0  0  0
   22.7698   -6.1269  -12.4797 C   0  0  0  0  0  0  0  0  0  0  0  0
   22.3805   -6.6007  -13.7261 C   0  0  0  0  0  0  0  0  0  0  0  0
   19.9001   -6.5683  -15.4876 C   0  0  0  0  0  0  0  0  0  0  0  0
   20.0974   -5.7326  -16.3886 O   0  0  0  0  0  0  0  0  0  0  0  0
   19.3854   -6.0734  -14.2832 O   0  0  0  0  0  0  0  0  0  0  0  0
  1  2  1  0
  3  2  1  0
  4  5  1  0
  4  3  1  0
  5  1  1  0
  5  6  1  6
  6  7  2  0
  9 10  1  6
  9  8  1  0
 11  9  1  0
 12 11  1  1
 12 13  1  0
 13  6  1  0
 14 15  2  0
 14 12  1  0
 16 14  1  0
 17 16  1  0
 17 18  1  6
 19 18  1  0
 19 20  2  0
 21 20  1  0
 22 21  2  0
 23 24  2  0
 23 22  1  0
 24 19  1  0
 25 17  1  0
 26 25  2  0
 27 25  1  0
M  END
$$$$
