PLF.pdb
     RDKit          3D

 27 28  0  0  1  0  0  0  0  0999 V2000
   23.0228  -18.6243  -15.1821 N   0  0  0  0  0  0  0  0  0  0  0  0
   22.8636  -17.4333  -15.9791 C   0  0  0  0  0  0  0  0  0  0  0  0
   23.3908  -17.7148  -17.3457 C   0  0  0  0  0  0  0  0  0  0  0  0
   23.4277  -19.2037  -17.4389 C   0  0  0  0  0  0  0  0  0  0  0  0
   23.4716  -19.6779  -16.0370 C   0  0  1  0  0  0  0  0  0  0  0  0
   24.7817  -20.2348  -15.6296 C   0  0  0  0  0  0  0  0  0  0  0  0
   25.1616  -21.2953  -16.1946 O   0  0  0  0  0  0  0  0  0  0  0  0
   28.9944  -17.4391  -15.7866 C   0  0  0  0  0  0  0  0  0  0  0  0
   27.8591  -18.4384  -15.6912 C   0  0  1  0  0  0  0  0  0  0  0  0
   28.0826  -19.4076  -16.8718 C   0  0  0  0  0  0  0  0  0  0  0  0
   27.9203  -19.2608  -14.4720 C   0  0  0  0  0  0  0  0  0  0  0  0
   26.8930  -20.2892  -14.2268 C   0  0  2  0  0  0  0  0  0  0  0  0
   25.6166  -19.6630  -14.6657 N   0  0  0  0  0  0  0  0  0  0  0  0
   26.6409  -20.7065  -12.8545 C   0  0  0  0  0  0  0  0  0  0  0  0
   27.3847  -21.4566  -12.1714 O   0  0  0  0  0  0  0  0  0  0  0  0
   25.4693  -20.2484  -12.1979 N   0  0  0  0  0  0  0  0  0  0  0  0
   25.1147  -20.7216  -10.8583 C   0  0  1  0  0  0  0  0  0  0  0  0
   25.3402  -19.6246   -9.8699 C   0  0  0  0  0  0  0  0  0  0  0  0
   26.4564  -19.9195   -8.9440 C   0  0  0  0  0  0  0  0  0  0  0  0
   27.0566  -18.8674   -8.2898 C   0  0  0  0  0  0  0  0  0  0  0  0
   28.1055  -19.1243   -7.4163 C   0  0  0  0  0  0  0  0  0  0  0  0
   28.5692  -20.4087   -7.1809 C   0  0  0  0  0  0  0  0  0  0  0  0
   27.9640  -21.4499   -7.8381 C   0  0  0  0  0  0  0  0  0  0  0  0
   26.9146  -21.1981   -8.7126 C   0  0  0  0  0  0  0  0  0  0  0  0
   23.7655  -21.2940  -10.8611 C   0  0  0  0  0  0  0  0  0  0  0  0
   23.1600  -21.7089   -9.8559 O   0  0  0  0  0  0  0  0  0  0  0  0
   23.0846  -21.3916  -12.0807 O   0  0  0  0  0  0  0  0  0  0  0  0
  1  2  1  0
  3  2  1  0
  4  5  1  0
  4  3  1  0
  5  1  1  0
  5  6  1  1
  6  7  2  0
  9 10  1  6
  9  8  1  0
 11  9  1  0
 12 11  1  1
 12 13  1  0
 13  6  1  0
 14 15  2  0
 14 12  1  0
 16 14  1  0
 17 16  1  0
 17 18  1  1
 19 18  1  0
 19 20  2  0
 21 20  1  0
 22 21  2  0
 23 24  2  0
 23 22  1  0
 24 19  1  0
 25 17  1  0
 26 25  2  0
 27 25  1  0
M  END
$$$$
