PLF.pdb
     RDKit          3D

 27 28  0  0  1  0  0  0  0  0999 V2000
   19.9956  -12.1220  -19.3852 N   0  0  0  0  0  0  0  0  0  0  0  0
   19.9507  -13.5578  -19.2605 C   0  0  0  0  0  0  0  0  0  0  0  0
   18.8445  -13.9085  -18.3235 C   0  0  0  0  0  0  0  0  0  0  0  0
   17.9836  -12.6904  -18.2800 C   0  0  0  0  0  0  0  0  0  0  0  0
   18.8661  -11.5780  -18.6992 C   0  0  1  0  0  0  0  0  0  0  0  0
   19.2439  -10.6609  -17.5997 C   0  0  0  0  0  0  0  0  0  0  0  0
   18.3099  -10.1038  -16.9630 O   0  0  0  0  0  0  0  0  0  0  0  0
   21.9606   -9.4519  -13.0811 C   0  0  0  0  0  0  0  0  0  0  0  0
   22.7705   -9.3960  -14.3607 C   0  0  1  0  0  0  0  0  0  0  0  0
   24.0431  -10.2172  -14.0618 C   0  0  0  0  0  0  0  0  0  0  0  0
   22.1069  -10.0692  -15.4889 C   0  0  0  0  0  0  0  0  0  0  0  0
   20.9037   -9.4722  -16.0964 C   0  0  2  0  0  0  0  0  0  0  0  0
   20.5604  -10.3767  -17.2268 N   0  0  0  0  0  0  0  0  0  0  0  0
   21.0138   -8.1539  -16.7053 C   0  0  0  0  0  0  0  0  0  0  0  0
   21.6418   -7.8883  -17.7625 O   0  0  0  0  0  0  0  0  0  0  0  0
   20.3715   -7.0511  -16.0847 N   0  0  0  0  0  0  0  0  0  0  0  0
   20.3204   -5.7388  -16.7322 C   0  0  1  0  0  0  0  0  0  0  0  0
   19.7481   -5.8855  -18.1042 C   0  0  0  0  0  0  0  0  0  0  0  0
   19.5571   -4.5823  -18.7787 C   0  0  0  0  0  0  0  0  0  0  0  0
   20.6543   -3.9744  -19.3459 C   0  0  0  0  0  0  0  0  0  0  0  0
   20.4948   -2.7509  -19.9840 C   0  0  0  0  0  0  0  0  0  0  0  0
   19.2640   -2.1202  -20.0686 C   0  0  0  0  0  0  0  0  0  0  0  0
   18.1772   -2.7347  -19.4999 C   0  0  0  0  0  0  0  0  0  0  0  0
   18.3315   -3.9582  -18.8607 C   0  0  0  0  0  0  0  0  0  0  0  0
   19.6369   -4.7714  -15.8691 C   0  0  0  0  0  0  0  0  0  0  0  0
   19.6525   -3.5363  -16.0226 O   0  0  0  0  0  0  0  0  0  0  0  0
   18.9018   -5.2527  -14.7789 O   0  0  0  0  0  0  0  0  0  0  0  0
  1  2  1  0
  3  2  1  0
  4  5  1  0
  4  3  1  0
  5  1  1  0
  5  6  1  1
  6  7  2  0
  9 10  1  1
  9  8  1  0
 11  9  1  0
 12 11  1  6
 12 13  1  0
 13  6  1  0
 14 15  2  0
 14 12  1  0
 16 14  1  0
 17 16  1  0
 17 18  1  6
 19 18  1  0
 19 20  2  0
 21 20  1  0
 22 21  2  0
 23 24  2  0
 23 22  1  0
 24 19  1  0
 25 17  1  0
 26 25  2  0
 27 25  1  0
M  END
$$$$
