PLF.pdb
     RDKit          3D

 27 28  0  0  1  0  0  0  0  0999 V2000
   22.5621  -20.1234  -13.7765 N   0  0  0  0  0  0  0  0  0  0  0  0
   21.2848  -20.5827  -13.2900 C   0  0  0  0  0  0  0  0  0  0  0  0
   21.3673  -20.6978  -11.8051 C   0  0  0  0  0  0  0  0  0  0  0  0
   22.5488  -19.8691  -11.4253 C   0  0  0  0  0  0  0  0  0  0  0  0
   23.3770  -19.7924  -12.6501 C   0  0  1  0  0  0  0  0  0  0  0  0
   24.6244  -20.5875  -12.5853 C   0  0  0  0  0  0  0  0  0  0  0  0
   24.5554  -21.8017  -12.9156 O   0  0  0  0  0  0  0  0  0  0  0  0
   28.5317  -18.7461  -14.9906 C   0  0  0  0  0  0  0  0  0  0  0  0
   27.5048  -19.6174  -14.2958 C   0  0  1  0  0  0  0  0  0  0  0  0
   27.2177  -20.7630  -15.2899 C   0  0  0  0  0  0  0  0  0  0  0  0
   28.0262  -20.2569  -13.0769 C   0  0  0  0  0  0  0  0  0  0  0  0
   27.0987  -20.9081  -12.1342 C   0  0  2  0  0  0  0  0  0  0  0  0
   25.8633  -20.0803  -12.1842 N   0  0  0  0  0  0  0  0  0  0  0  0
   27.4550  -20.9458  -10.7227 C   0  0  0  0  0  0  0  0  0  0  0  0
   28.6265  -20.9935  -10.2667 O   0  0  0  0  0  0  0  0  0  0  0  0
   26.4225  -20.9271   -9.7494 N   0  0  0  0  0  0  0  0  0  0  0  0
   26.7283  -20.9209   -8.3174 C   0  0  1  0  0  0  0  0  0  0  0  0
   27.7617  -19.8796   -8.0363 C   0  0  0  0  0  0  0  0  0  0  0  0
   28.1045  -19.7979   -6.5990 C   0  0  0  0  0  0  0  0  0  0  0  0
   28.8809  -20.7965   -6.0558 C   0  0  0  0  0  0  0  0  0  0  0  0
   29.2136  -20.7369   -4.7085 C   0  0  0  0  0  0  0  0  0  0  0  0
   28.7885  -19.7024   -3.8907 C   0  0  0  0  0  0  0  0  0  0  0  0
   28.0151  -18.7124   -4.4422 C   0  0  0  0  0  0  0  0  0  0  0  0
   27.6797  -18.7675   -5.7890 C   0  0  0  0  0  0  0  0  0  0  0  0
   25.4950  -20.8063   -7.5339 C   0  0  0  0  0  0  0  0  0  0  0  0
   24.4129  -20.3628   -7.9599 O   0  0  0  0  0  0  0  0  0  0  0  0
   25.5125  -21.2230   -6.1973 O   0  0  0  0  0  0  0  0  0  0  0  0
  1  2  1  0
  3  2  1  0
  4  5  1  0
  4  3  1  0
  5  1  1  0
  5  6  1  1
  6  7  2  0
  9 10  1  6
  9  8  1  0
 11  9  1  0
 12 11  1  6
 12 13  1  0
 13  6  1  0
 14 15  2  0
 14 12  1  0
 16 14  1  0
 17 16  1  0
 17 18  1  6
 19 18  1  0
 19 20  2  0
 21 20  1  0
 22 21  2  0
 23 24  2  0
 23 22  1  0
 24 19  1  0
 25 17  1  0
 26 25  2  0
 27 25  1  0
M  END
$$$$
