DDE.pdb
     RDKit          3D

 26 25  0  0  1  0  0  0  0  0999 V2000
   10.4386  -17.1381   20.6150 N   0  0  0  0  0  0  0  0  0  0  0  0
   10.7478  -18.4335   21.2015 C   0  0  1  0  0  0  0  0  0  0  0  0
   11.4853  -19.2200   20.1437 C   0  0  0  0  0  0  0  0  0  0  0  0
   10.7059  -19.0941   18.8848 C   0  0  0  0  0  0  0  0  0  0  0  0
    9.4944  -19.4052   18.7911 O   0  0  0  0  0  0  0  0  0  0  0  0
   11.5197  -18.2918   22.4571 C   0  0  0  0  0  0  0  0  0  0  0  0
   11.6738  -19.2794   23.2204 O   0  0  0  0  0  0  0  0  0  0  0  0
   11.3292  -18.6102   17.7442 O   0  0  0  0  0  0  0  0  0  0  0  0
   12.1169  -17.0697   22.8666 N   0  0  0  0  0  0  0  0  0  0  0  0
   12.9054  -16.9059   24.0578 C   0  0  1  0  0  0  0  0  0  0  0  0
   13.7970  -15.6852   23.9957 C   0  0  0  0  0  0  0  0  0  0  0  0
   14.9636  -15.8646   23.1334 C   0  0  0  0  0  0  0  0  0  0  0  0
   15.4102  -15.0335   22.3213 O   0  0  0  0  0  0  0  0  0  0  0  0
   12.0057  -16.8672   25.2401 C   0  0  0  0  0  0  0  0  0  0  0  0
   11.2767  -15.8649   25.4459 O   0  0  0  0  0  0  0  0  0  0  0  0
   15.6391  -17.0860   23.2326 O   0  0  0  0  0  0  0  0  0  0  0  0
   11.9106  -17.9149   26.1805 N   0  0  0  0  0  0  0  0  0  0  0  0
   11.0293  -17.8226   27.3495 C   0  0  1  0  0  0  0  0  0  0  0  0
   10.3178  -19.0958   27.6046 C   0  0  0  0  0  0  0  0  0  0  0  0
   11.1857  -20.1122   28.2764 C   0  0  0  0  0  0  0  0  0  0  0  0
   10.4792  -21.4020   28.4821 C   0  0  0  0  0  0  0  0  0  0  0  0
    9.2962  -21.5067   28.1200 O   0  0  0  0  0  0  0  0  0  0  0  0
   11.7832  -17.3135   28.5156 C   0  0  0  0  0  0  0  0  0  0  0  0
   13.1349  -17.1950   28.6361 O   0  0  0  0  0  0  0  0  0  0  0  0
   11.1207  -22.4653   29.0642 O   0  0  0  0  0  0  0  0  0  0  0  0
   11.1022  -16.9405   29.5332 O   0  0  0  0  0  0  0  0  0  0  0  0
  2  3  1  0
  2  1  1  6
  3  4  1  0
  4  8  1  0
  4  5  2  0
  6  2  1  0
  6  7  2  0
  9  6  1  0
 10  9  1  0
 10 14  1  0
 10 11  1  6
 12 11  1  0
 13 12  2  0
 14 17  1  0
 15 14  2  0
 16 12  1  0
 17 18  1  0
 18 23  1  0
 18 19  1  1
 20 19  1  0
 21 20  1  0
 21 22  2  0
 23 26  2  0
 23 24  1  0
 25 21  1  0
M  END
$$$$
