DDE.pdb
     RDKit          3D

 26 25  0  0  1  0  0  0  0  0999 V2000
    9.2659  -13.8065   17.7391 N   0  0  0  0  0  0  0  0  0  0  0  0
    8.0793  -14.3047   18.4185 C   0  0  1  0  0  0  0  0  0  0  0  0
    7.1098  -14.7249   17.3392 C   0  0  0  0  0  0  0  0  0  0  0  0
    7.4854  -13.9873   16.1051 C   0  0  0  0  0  0  0  0  0  0  0  0
    8.4568  -13.1960   16.0447 O   0  0  0  0  0  0  0  0  0  0  0  0
    8.4097  -15.4025   19.3555 C   0  0  0  0  0  0  0  0  0  0  0  0
    7.5059  -15.9386   20.0465 O   0  0  0  0  0  0  0  0  0  0  0  0
    6.7387  -14.1682   14.9504 O   0  0  0  0  0  0  0  0  0  0  0  0
    9.7272  -15.9048   19.5280 N   0  0  0  0  0  0  0  0  0  0  0  0
   10.0888  -16.9469   20.4504 C   0  0  1  0  0  0  0  0  0  0  0  0
   10.8619  -18.0637   19.7842 C   0  0  0  0  0  0  0  0  0  0  0  0
   11.1561  -19.1789   20.6823 C   0  0  0  0  0  0  0  0  0  0  0  0
   10.3656  -19.6962   21.4929 O   0  0  0  0  0  0  0  0  0  0  0  0
   10.8469  -16.3568   21.5844 C   0  0  0  0  0  0  0  0  0  0  0  0
   11.6760  -15.4357   21.3781 O   0  0  0  0  0  0  0  0  0  0  0  0
   12.4484  -19.7124   20.6228 O   0  0  0  0  0  0  0  0  0  0  0  0
   10.6947  -16.7745   22.9236 N   0  0  0  0  0  0  0  0  0  0  0  0
   11.3581  -16.0742   24.0287 C   0  0  1  0  0  0  0  0  0  0  0  0
   10.5832  -16.1718   25.2866 C   0  0  0  0  0  0  0  0  0  0  0  0
   11.3454  -15.6648   26.4697 C   0  0  0  0  0  0  0  0  0  0  0  0
   10.5560  -15.7559   27.7241 C   0  0  0  0  0  0  0  0  0  0  0  0
    9.5161  -15.0863   27.8328 O   0  0  0  0  0  0  0  0  0  0  0  0
   12.7595  -16.5306   24.1514 C   0  0  0  0  0  0  0  0  0  0  0  0
   13.8306  -15.8018   24.5726 O   0  0  0  0  0  0  0  0  0  0  0  0
   10.9666  -16.5670   28.7510 O   0  0  0  0  0  0  0  0  0  0  0  0
   13.0087  -17.7436   23.8274 O   0  0  0  0  0  0  0  0  0  0  0  0
  2  3  1  0
  2  1  1  6
  3  4  1  0
  4  8  1  0
  4  5  2  0
  6  2  1  0
  6  7  2  0
  9  6  1  0
 10  9  1  0
 10 14  1  0
 10 11  1  6
 12 11  1  0
 13 12  2  0
 14 17  1  0
 15 14  2  0
 16 12  1  0
 17 18  1  0
 18 23  1  0
 18 19  1  1
 20 19  1  0
 21 20  1  0
 21 22  2  0
 23 26  2  0
 23 24  1  0
 25 21  1  0
M  END
$$$$
