DDE.pdb
     RDKit          3D

 26 25  0  0  1  0  0  0  0  0999 V2000
   13.1774  -16.4687   19.1971 N   0  0  0  0  0  0  0  0  0  0  0  0
   13.6031  -15.4698   20.1660 C   0  0  1  0  0  0  0  0  0  0  0  0
   13.5138  -14.1312   19.4719 C   0  0  0  0  0  0  0  0  0  0  0  0
   14.6383  -14.0674   18.5026 C   0  0  0  0  0  0  0  0  0  0  0  0
   15.5844  -14.8909   18.4905 O   0  0  0  0  0  0  0  0  0  0  0  0
   12.7925  -15.5323   21.4035 C   0  0  0  0  0  0  0  0  0  0  0  0
   13.0441  -14.7612   22.3647 O   0  0  0  0  0  0  0  0  0  0  0  0
   14.6630  -13.0551   17.5548 O   0  0  0  0  0  0  0  0  0  0  0  0
   11.7127  -16.4385   21.5785 N   0  0  0  0  0  0  0  0  0  0  0  0
   10.9109  -16.5323   22.7683 C   0  0  1  0  0  0  0  0  0  0  0  0
    9.4677  -16.8706   22.4657 C   0  0  0  0  0  0  0  0  0  0  0  0
    8.6175  -16.8925   23.6546 C   0  0  0  0  0  0  0  0  0  0  0  0
    9.0065  -16.8343   24.8357 O   0  0  0  0  0  0  0  0  0  0  0  0
   11.5222  -17.5204   23.6950 C   0  0  0  0  0  0  0  0  0  0  0  0
   12.2868  -18.4130   23.2513 O   0  0  0  0  0  0  0  0  0  0  0  0
    7.2378  -16.9881   23.4415 O   0  0  0  0  0  0  0  0  0  0  0  0
   11.2948  -17.5256   25.0877 N   0  0  0  0  0  0  0  0  0  0  0  0
   11.9723  -18.4772   25.9749 C   0  0  1  0  0  0  0  0  0  0  0  0
   13.4456  -18.3809   25.8635 C   0  0  0  0  0  0  0  0  0  0  0  0
   13.9919  -19.2185   24.7510 C   0  0  0  0  0  0  0  0  0  0  0  0
   15.4144  -19.5826   24.9720 C   0  0  0  0  0  0  0  0  0  0  0  0
   15.8638  -19.5863   26.1295 O   0  0  0  0  0  0  0  0  0  0  0  0
   11.4653  -18.3334   27.3568 C   0  0  0  0  0  0  0  0  0  0  0  0
   11.7592  -19.1201   28.4293 O   0  0  0  0  0  0  0  0  0  0  0  0
   16.2244  -19.9103   23.9149 O   0  0  0  0  0  0  0  0  0  0  0  0
   10.6578  -17.3667   27.5844 O   0  0  0  0  0  0  0  0  0  0  0  0
  2  3  1  0
  2  1  1  6
  3  4  1  0
  4  8  1  0
  4  5  2  0
  6  2  1  0
  6  7  2  0
  9  6  1  0
 10  9  1  0
 10 14  1  0
 10 11  1  6
 12 11  1  0
 13 12  2  0
 14 17  1  0
 15 14  2  0
 16 12  1  0
 17 18  1  0
 18 23  1  0
 18 19  1  1
 20 19  1  0
 21 20  1  0
 21 22  2  0
 23 26  2  0
 23 24  1  0
 25 21  1  0
M  END
$$$$
