DDE.pdb
     RDKit          3D

 26 25  0  0  1  0  0  0  0  0999 V2000
   10.9993  -16.7075   17.9244 N   0  0  0  0  0  0  0  0  0  0  0  0
   10.1777  -17.2401   19.0010 C   0  0  1  0  0  0  0  0  0  0  0  0
    9.2900  -18.2948   18.3838 C   0  0  0  0  0  0  0  0  0  0  0  0
    9.0390  -17.8845   16.9778 C   0  0  0  0  0  0  0  0  0  0  0  0
    9.6384  -16.9339   16.4206 O   0  0  0  0  0  0  0  0  0  0  0  0
   11.0073  -17.7625   20.1107 C   0  0  0  0  0  0  0  0  0  0  0  0
   10.5256  -18.5907   20.9255 O   0  0  0  0  0  0  0  0  0  0  0  0
    8.0992  -18.5733   16.2254 O   0  0  0  0  0  0  0  0  0  0  0  0
   12.3577  -17.3741   20.3190 N   0  0  0  0  0  0  0  0  0  0  0  0
   13.2138  -17.9145   21.3400 C   0  0  1  0  0  0  0  0  0  0  0  0
   14.6805  -17.7712   20.9979 C   0  0  0  0  0  0  0  0  0  0  0  0
   15.5561  -18.5555   21.8667 C   0  0  0  0  0  0  0  0  0  0  0  0
   15.5909  -18.5064   23.1101 O   0  0  0  0  0  0  0  0  0  0  0  0
   12.8900  -17.2736   22.6413 C   0  0  0  0  0  0  0  0  0  0  0  0
   13.4397  -16.1917   22.9662 O   0  0  0  0  0  0  0  0  0  0  0  0
   16.4365  -19.4435   21.2387 O   0  0  0  0  0  0  0  0  0  0  0  0
   11.9761  -17.8157   23.5698 N   0  0  0  0  0  0  0  0  0  0  0  0
   11.6730  -17.1400   24.8361 C   0  0  1  0  0  0  0  0  0  0  0  0
   10.2655  -16.6844   24.8939 C   0  0  0  0  0  0  0  0  0  0  0  0
    9.9022  -15.7995   23.7439 C   0  0  0  0  0  0  0  0  0  0  0  0
    8.5484  -15.2093   23.8987 C   0  0  0  0  0  0  0  0  0  0  0  0
    7.8655  -15.5165   24.8892 O   0  0  0  0  0  0  0  0  0  0  0  0
   12.0741  -17.9928   25.9759 C   0  0  0  0  0  0  0  0  0  0  0  0
   12.2500  -17.6094   27.2712 O   0  0  0  0  0  0  0  0  0  0  0  0
    8.0550  -14.3367   22.9626 O   0  0  0  0  0  0  0  0  0  0  0  0
   12.2842  -19.2317   25.7323 O   0  0  0  0  0  0  0  0  0  0  0  0
  2  3  1  0
  2  1  1  6
  3  4  1  0
  4  8  1  0
  4  5  2  0
  6  2  1  0
  6  7  2  0
  9  6  1  0
 10  9  1  0
 10 14  1  0
 10 11  1  6
 12 11  1  0
 13 12  2  0
 14 17  1  0
 15 14  2  0
 16 12  1  0
 17 18  1  0
 18 23  1  0
 18 19  1  1
 20 19  1  0
 21 20  1  0
 21 22  2  0
 23 26  2  0
 23 24  1  0
 25 21  1  0
M  END
$$$$
