DDE.pdb
     RDKit          3D

 26 25  0  0  1  0  0  0  0  0999 V2000
    8.7955  -16.9642   18.6192 N   0  0  0  0  0  0  0  0  0  0  0  0
    9.2073  -18.2990   19.0273 C   0  0  1  0  0  0  0  0  0  0  0  0
    9.4393  -19.0848   17.7584 C   0  0  0  0  0  0  0  0  0  0  0  0
    8.1786  -19.0271   16.9738 C   0  0  0  0  0  0  0  0  0  0  0  0
    7.1794  -18.3550   17.3248 O   0  0  0  0  0  0  0  0  0  0  0  0
   10.3994  -18.2560   19.9045 C   0  0  0  0  0  0  0  0  0  0  0  0
   10.8977  -19.3221   20.3482 O   0  0  0  0  0  0  0  0  0  0  0  0
    8.0801  -19.7443   15.7907 O   0  0  0  0  0  0  0  0  0  0  0  0
   11.0365  -17.0459   20.2886 N   0  0  0  0  0  0  0  0  0  0  0  0
   12.2100  -16.9685   21.1158 C   0  0  1  0  0  0  0  0  0  0  0  0
   12.9635  -15.6702   20.9276 C   0  0  0  0  0  0  0  0  0  0  0  0
   13.6518  -15.5825   19.6410 C   0  0  0  0  0  0  0  0  0  0  0  0
   14.2706  -16.5031   19.0759 O   0  0  0  0  0  0  0  0  0  0  0  0
   11.8236  -17.1764   22.5358 C   0  0  0  0  0  0  0  0  0  0  0  0
   11.0662  -16.3554   23.1106 O   0  0  0  0  0  0  0  0  0  0  0  0
   13.6092  -14.3467   18.9861 O   0  0  0  0  0  0  0  0  0  0  0  0
   12.2646  -18.2705   23.3103 N   0  0  0  0  0  0  0  0  0  0  0  0
   11.9389  -18.3857   24.7359 C   0  0  1  0  0  0  0  0  0  0  0  0
   10.6050  -18.9920   24.9487 C   0  0  0  0  0  0  0  0  0  0  0  0
   10.3520  -20.1529   24.0400 C   0  0  0  0  0  0  0  0  0  0  0  0
    9.1727  -20.9489   24.4652 C   0  0  0  0  0  0  0  0  0  0  0  0
    8.5928  -20.6513   25.5220 O   0  0  0  0  0  0  0  0  0  0  0  0
   13.0324  -19.0766   25.4529 C   0  0  0  0  0  0  0  0  0  0  0  0
   13.1202  -19.3144   26.7914 O   0  0  0  0  0  0  0  0  0  0  0  0
    8.7272  -21.9994   23.7043 O   0  0  0  0  0  0  0  0  0  0  0  0
   14.0134  -19.5028   24.7498 O   0  0  0  0  0  0  0  0  0  0  0  0
  2  3  1  0
  2  1  1  6
  3  4  1  0
  4  8  1  0
  4  5  2  0
  6  2  1  0
  6  7  2  0
  9  6  1  0
 10  9  1  0
 10 14  1  0
 10 11  1  1
 12 11  1  0
 13 12  2  0
 14 17  1  0
 15 14  2  0
 16 12  1  0
 17 18  1  0
 18 23  1  0
 18 19  1  6
 20 19  1  0
 21 20  1  0
 21 22  2  0
 23 26  2  0
 23 24  1  0
 25 21  1  0
M  END
$$$$
