DDE.pdb
     RDKit          3D

 26 25  0  0  1  0  0  0  0  0999 V2000
   10.1016  -18.4119   19.2879 N   0  0  0  0  0  0  0  0  0  0  0  0
   10.4532  -17.0053   19.4122 C   0  0  1  0  0  0  0  0  0  0  0  0
    9.6379  -16.2648   18.3786 C   0  0  0  0  0  0  0  0  0  0  0  0
    9.9471  -16.8763   17.0601 C   0  0  0  0  0  0  0  0  0  0  0  0
   10.7259  -17.8493   16.9181 O   0  0  0  0  0  0  0  0  0  0  0  0
   10.2277  -16.5079   20.7885 C   0  0  0  0  0  0  0  0  0  0  0  0
   10.4561  -15.3040   21.0719 O   0  0  0  0  0  0  0  0  0  0  0  0
    9.3559  -16.3616   15.9159 O   0  0  0  0  0  0  0  0  0  0  0  0
    9.7537  -17.3327   21.8434 N   0  0  0  0  0  0  0  0  0  0  0  0
    9.5116  -16.8806   23.1867 C   0  0  1  0  0  0  0  0  0  0  0  0
    8.3645  -17.6157   23.8444 C   0  0  0  0  0  0  0  0  0  0  0  0
    8.0660  -17.1341   25.1919 C   0  0  0  0  0  0  0  0  0  0  0  0
    8.6372  -16.1968   25.7792 O   0  0  0  0  0  0  0  0  0  0  0  0
   10.7641  -17.0006   23.9777 C   0  0  0  0  0  0  0  0  0  0  0  0
   11.2681  -18.1308   24.1944 O   0  0  0  0  0  0  0  0  0  0  0  0
    7.0417  -17.7902   25.8835 O   0  0  0  0  0  0  0  0  0  0  0  0
   11.4501  -15.8939   24.5216 N   0  0  0  0  0  0  0  0  0  0  0  0
   12.0084  -15.9247   25.8778 C   0  0  1  0  0  0  0  0  0  0  0  0
   10.9827  -15.6244   26.9025 C   0  0  0  0  0  0  0  0  0  0  0  0
   11.5140  -15.7402   28.2960 C   0  0  0  0  0  0  0  0  0  0  0  0
   10.4528  -15.5474   29.3166 C   0  0  0  0  0  0  0  0  0  0  0  0
   10.1854  -14.3969   29.6995 O   0  0  0  0  0  0  0  0  0  0  0  0
   12.7257  -17.1982   26.1034 C   0  0  0  0  0  0  0  0  0  0  0  0
   13.8621  -17.3873   26.8303 O   0  0  0  0  0  0  0  0  0  0  0  0
    9.7754  -16.6226   29.8323 O   0  0  0  0  0  0  0  0  0  0  0  0
   12.2359  -18.2482   25.5592 O   0  0  0  0  0  0  0  0  0  0  0  0
  2  3  1  0
  2  1  1  1
  3  4  1  0
  4  8  1  0
  4  5  2  0
  6  2  1  0
  6  7  2  0
  9  6  1  0
 10  9  1  0
 10 14  1  0
 10 11  1  1
 12 11  1  0
 13 12  2  0
 14 17  1  0
 15 14  2  0
 16 12  1  0
 17 18  1  0
 18 23  1  0
 18 19  1  1
 20 19  1  0
 21 20  1  0
 21 22  2  0
 23 26  2  0
 23 24  1  0
 25 21  1  0
M  END
$$$$
