DDE.pdb
     RDKit          3D

 26 25  0  0  1  0  0  0  0  0999 V2000
   11.2191  -17.6179   17.5464 N   0  0  0  0  0  0  0  0  0  0  0  0
    9.9327  -17.5957   18.2264 C   0  0  1  0  0  0  0  0  0  0  0  0
    8.9832  -18.4081   17.3779 C   0  0  0  0  0  0  0  0  0  0  0  0
    9.1311  -17.9296   15.9788 C   0  0  0  0  0  0  0  0  0  0  0  0
    9.2300  -16.7171   15.6728 O   0  0  0  0  0  0  0  0  0  0  0  0
   10.0420  -18.1012   19.6138 C   0  0  0  0  0  0  0  0  0  0  0  0
    9.0169  -18.1932   20.3366 O   0  0  0  0  0  0  0  0  0  0  0  0
    9.1641  -18.8524   14.9440 O   0  0  0  0  0  0  0  0  0  0  0  0
   11.2729  -18.5022   20.1984 N   0  0  0  0  0  0  0  0  0  0  0  0
   11.4164  -18.9921   21.5426 C   0  0  1  0  0  0  0  0  0  0  0  0
   12.6533  -19.8459   21.7161 C   0  0  0  0  0  0  0  0  0  0  0  0
   12.7524  -20.4577   23.0399 C   0  0  0  0  0  0  0  0  0  0  0  0
   13.7720  -20.5027   23.7528 O   0  0  0  0  0  0  0  0  0  0  0  0
   11.4068  -17.8441   22.4865 C   0  0  0  0  0  0  0  0  0  0  0  0
   12.3352  -16.9982   22.4612 O   0  0  0  0  0  0  0  0  0  0  0  0
   11.5906  -21.0471   23.5507 O   0  0  0  0  0  0  0  0  0  0  0  0
   10.3914  -17.6316   23.4431 N   0  0  0  0  0  0  0  0  0  0  0  0
   10.4587  -16.5258   24.4047 C   0  0  1  0  0  0  0  0  0  0  0  0
    9.1638  -15.8173   24.5205 C   0  0  0  0  0  0  0  0  0  0  0  0
    8.9915  -14.7640   23.4725 C   0  0  0  0  0  0  0  0  0  0  0  0
    7.7012  -14.0423   23.6121 C   0  0  0  0  0  0  0  0  0  0  0  0
    6.6399  -14.6800   23.5205 O   0  0  0  0  0  0  0  0  0  0  0  0
   10.9959  -17.0070   25.6958 C   0  0  0  0  0  0  0  0  0  0  0  0
   11.2733  -18.2940   26.0457 O   0  0  0  0  0  0  0  0  0  0  0  0
    7.6778  -12.6898   23.8387 O   0  0  0  0  0  0  0  0  0  0  0  0
   11.2296  -16.1267   26.5951 O   0  0  0  0  0  0  0  0  0  0  0  0
  2  3  1  0
  2  1  1  6
  3  4  1  0
  4  8  1  0
  4  5  2  0
  6  2  1  0
  6  7  2  0
  9  6  1  0
 10  9  1  0
 10 14  1  0
 10 11  1  6
 12 11  1  0
 13 12  2  0
 14 17  1  0
 15 14  2  0
 16 12  1  0
 17 18  1  0
 18 23  1  0
 18 19  1  1
 20 19  1  0
 21 20  1  0
 21 22  2  0
 23 26  2  0
 23 24  1  0
 25 21  1  0
M  END
$$$$
