DDE.pdb
     RDKit          3D

 26 25  0  0  1  0  0  0  0  0999 V2000
    7.6675  -12.6680   18.4796 N   0  0  0  0  0  0  0  0  0  0  0  0
    8.2724  -13.9804   18.6517 C   0  0  1  0  0  0  0  0  0  0  0  0
    9.0016  -14.2903   17.3657 C   0  0  0  0  0  0  0  0  0  0  0  0
    7.9679  -14.5087   16.3207 C   0  0  0  0  0  0  0  0  0  0  0  0
    6.7413  -14.5873   16.5714 O   0  0  0  0  0  0  0  0  0  0  0  0
    9.1561  -14.0205   19.8391 C   0  0  0  0  0  0  0  0  0  0  0  0
    9.9011  -13.0433   20.1070 O   0  0  0  0  0  0  0  0  0  0  0  0
    8.3563  -14.6343   14.9951 O   0  0  0  0  0  0  0  0  0  0  0  0
    9.2166  -15.1302   20.7237 N   0  0  0  0  0  0  0  0  0  0  0  0
   10.0944  -15.2218   21.8588 C   0  0  1  0  0  0  0  0  0  0  0  0
    9.4980  -16.0378   22.9846 C   0  0  0  0  0  0  0  0  0  0  0  0
   10.4011  -16.1997   24.1226 C   0  0  0  0  0  0  0  0  0  0  0  0
   11.5648  -15.7650   24.2032 O   0  0  0  0  0  0  0  0  0  0  0  0
   11.4057  -15.7680   21.4218 C   0  0  0  0  0  0  0  0  0  0  0  0
   11.4630  -16.8748   20.8302 O   0  0  0  0  0  0  0  0  0  0  0  0
    9.9081  -16.9105   25.2225 O   0  0  0  0  0  0  0  0  0  0  0  0
   12.6340  -15.1063   21.6333 N   0  0  0  0  0  0  0  0  0  0  0  0
   13.8800  -15.5820   21.0223 C   0  0  1  0  0  0  0  0  0  0  0  0
   14.3729  -14.6516   19.9813 C   0  0  0  0  0  0  0  0  0  0  0  0
   15.6809  -15.0848   19.3989 C   0  0  0  0  0  0  0  0  0  0  0  0
   16.1893  -14.1221   18.3891 C   0  0  0  0  0  0  0  0  0  0  0  0
   15.5805  -13.9969   17.3142 O   0  0  0  0  0  0  0  0  0  0  0  0
   14.8759  -15.8888   22.0718 C   0  0  0  0  0  0  0  0  0  0  0  0
   15.9811  -16.6765   21.9551 O   0  0  0  0  0  0  0  0  0  0  0  0
   17.3158  -13.3798   18.6360 O   0  0  0  0  0  0  0  0  0  0  0  0
   14.6900  -15.3635   23.2241 O   0  0  0  0  0  0  0  0  0  0  0  0
  2  3  1  0
  2  1  1  6
  3  4  1  0
  4  8  1  0
  4  5  2  0
  6  2  1  0
  6  7  2  0
  9  6  1  0
 10  9  1  0
 10 14  1  0
 10 11  1  1
 12 11  1  0
 13 12  2  0
 14 17  1  0
 15 14  2  0
 16 12  1  0
 17 18  1  0
 18 23  1  0
 18 19  1  6
 20 19  1  0
 21 20  1  0
 21 22  2  0
 23 26  2  0
 23 24  1  0
 25 21  1  0
M  END
$$$$
