DDE.pdb
     RDKit          3D

 26 25  0  0  1  0  0  0  0  0999 V2000
   15.8615  -15.8066   13.9414 N   0  0  0  0  0  0  0  0  0  0  0  0
   15.9075  -17.1221   14.5620 C   0  0  1  0  0  0  0  0  0  0  0  0
   17.2293  -17.7378   14.1682 C   0  0  0  0  0  0  0  0  0  0  0  0
   17.2474  -17.8185   12.6845 C   0  0  0  0  0  0  0  0  0  0  0  0
   16.6388  -18.7028   12.0356 O   0  0  0  0  0  0  0  0  0  0  0  0
   15.7253  -17.0380   16.0290 C   0  0  0  0  0  0  0  0  0  0  0  0
   16.0956  -16.0120   16.6551 O   0  0  0  0  0  0  0  0  0  0  0  0
   17.9666  -16.8790   11.9608 O   0  0  0  0  0  0  0  0  0  0  0  0
   15.1389  -18.0780   16.7986 N   0  0  0  0  0  0  0  0  0  0  0  0
   14.9171  -18.0169   18.2180 C   0  0  1  0  0  0  0  0  0  0  0  0
   13.6367  -18.7084   18.6317 C   0  0  0  0  0  0  0  0  0  0  0  0
   13.4224  -18.7114   20.0777 C   0  0  0  0  0  0  0  0  0  0  0  0
   13.6269  -17.7580   20.8515 O   0  0  0  0  0  0  0  0  0  0  0  0
   16.0970  -18.5818   18.9234 C   0  0  0  0  0  0  0  0  0  0  0  0
   16.5125  -19.7323   18.6371 O   0  0  0  0  0  0  0  0  0  0  0  0
   12.9426  -19.8988   20.6415 O   0  0  0  0  0  0  0  0  0  0  0  0
   16.8074  -17.8911   19.9281 N   0  0  0  0  0  0  0  0  0  0  0  0
   18.0428  -18.4304   20.5067 C   0  0  1  0  0  0  0  0  0  0  0  0
   19.2416  -17.9777   19.7650 C   0  0  0  0  0  0  0  0  0  0  0  0
   19.4969  -16.5128   19.9281 C   0  0  0  0  0  0  0  0  0  0  0  0
   20.7165  -16.0739   19.2036 C   0  0  0  0  0  0  0  0  0  0  0  0
   21.8308  -16.3241   19.6907 O   0  0  0  0  0  0  0  0  0  0  0  0
   18.0921  -18.1443   21.9569 C   0  0  0  0  0  0  0  0  0  0  0  0
   19.0457  -18.5426   22.8443 O   0  0  0  0  0  0  0  0  0  0  0  0
   20.6179  -15.4006   18.0129 O   0  0  0  0  0  0  0  0  0  0  0  0
   17.1372  -17.4467   22.4468 O   0  0  0  0  0  0  0  0  0  0  0  0
  2  3  1  0
  2  1  1  1
  3  4  1  0
  4  8  1  0
  4  5  2  0
  6  2  1  0
  6  7  2  0
  9  6  1  0
 10  9  1  0
 10 14  1  0
 10 11  1  6
 12 11  1  0
 13 12  2  0
 14 17  1  0
 15 14  2  0
 16 12  1  0
 17 18  1  0
 18 23  1  0
 18 19  1  6
 20 19  1  0
 21 20  1  0
 21 22  2  0
 23 26  2  0
 23 24  1  0
 25 21  1  0
M  END
$$$$
