FTC.pdb
     RDKit          3D

 25 25  0  0  1  0  0  0  0  0999 V2000
   19.9262  -15.5861  -16.4123 N   0  0  0  0  0  0  0  0  0  0  0  0
   18.8494  -14.8186  -17.0098 C   0  0  1  0  0  0  0  0  0  0  0  0
   17.6552  -14.9065  -16.0737 C   0  0  0  0  0  0  0  0  0  0  0  0
   17.0847  -16.2604  -16.0294 C   0  0  0  0  0  0  0  0  0  0  0  0
   16.2946  -16.7249  -17.0557 C   0  0  0  0  0  0  0  0  0  0  0  0
   15.7614  -17.9908  -17.0139 C   0  0  0  0  0  0  0  0  0  0  0  0
   16.0151  -18.8198  -15.9303 C   0  0  0  0  0  0  0  0  0  0  0  0
   16.8078  -18.3284  -14.9202 C   0  0  0  0  0  0  0  0  0  0  0  0
   17.3517  -17.0637  -14.9423 C   0  0  0  0  0  0  0  0  0  0  0  0
   19.2448  -13.3814  -17.1038 C   0  0  0  0  0  0  0  0  0  0  0  0
   20.1530  -12.8835  -16.3720 O   0  0  0  0  0  0  0  0  0  0  0  0
   19.4636   -9.5262  -20.0277 C   0  0  0  0  0  0  0  0  0  0  0  0
   19.0966  -10.9567  -19.7504 C   0  0  1  0  0  0  0  0  0  0  0  0
   20.1546  -11.7621  -20.2009 O   0  0  0  0  0  0  0  0  0  0  0  0
   18.9620  -11.1563  -18.2686 C   0  0  2  0  0  0  0  0  0  0  0  0
   18.5899  -12.5373  -18.0384 N   0  0  0  0  0  0  0  0  0  0  0  0
   17.9207  -10.2654  -17.6926 C   0  0  0  0  0  0  0  0  0  0  0  0
   16.7067  -10.4212  -17.9583 O   0  0  0  0  0  0  0  0  0  0  0  0
   18.2739   -9.2049  -16.8188 N   0  0  0  0  0  0  0  0  0  0  0  0
   17.3399   -8.3283  -16.1878 C   0  0  1  0  0  0  0  0  0  0  0  0
   17.9593   -7.4974  -15.0857 C   0  0  0  0  0  0  0  0  0  0  0  0
   19.5072   -6.7680  -15.7227 S   0  0  0  0  0  0  0  0  0  0  0  0
   16.8045   -7.3974  -17.2152 C   0  0  0  0  0  0  0  0  0  0  0  0
   17.3372   -7.3064  -18.4947 O   0  0  0  0  0  0  0  0  0  0  0  0
   15.8303   -6.6532  -16.9353 O   0  0  0  0  0  0  0  0  0  0  0  0
  2  1  1  1
  2  3  1  0
  2 10  1  0
  4  3  1  0
  4  9  2  0
  5  4  1  0
  6  5  2  0
  6  7  1  0
  7  8  2  0
  8  9  1  0
 10 16  1  0
 11 10  2  0
 13 12  1  1
 13 14  1  0
 15 13  1  0
 15 16  1  6
 17 15  1  0
 17 19  1  0
 18 17  2  0
 20 19  1  0
 20 23  1  0
 20 21  1  1
 21 22  1  0
 23 25  2  0
 23 24  1  0
M  END
$$$$
