FTC.pdb
     RDKit          3D

 25 25  0  0  1  0  0  0  0  0999 V2000
   24.1943  -18.2342  -18.1391 N   0  0  0  0  0  0  0  0  0  0  0  0
   23.7722  -18.8824  -16.9115 C   0  0  1  0  0  0  0  0  0  0  0  0
   22.6569  -19.8509  -17.2695 C   0  0  0  0  0  0  0  0  0  0  0  0
   21.4244  -19.1545  -17.6648 C   0  0  0  0  0  0  0  0  0  0  0  0
   20.5859  -18.6151  -16.7164 C   0  0  0  0  0  0  0  0  0  0  0  0
   19.4337  -17.9641  -17.0863 C   0  0  0  0  0  0  0  0  0  0  0  0
   19.1004  -17.8424  -18.4280 C   0  0  0  0  0  0  0  0  0  0  0  0
   19.9572  -18.3913  -19.3526 C   0  0  0  0  0  0  0  0  0  0  0  0
   21.1162  -19.0473  -19.0034 C   0  0  0  0  0  0  0  0  0  0  0  0
   24.9010  -19.6817  -16.3479 C   0  0  0  0  0  0  0  0  0  0  0  0
   25.8372  -20.1313  -17.0757 O   0  0  0  0  0  0  0  0  0  0  0  0
   27.1569  -18.5829  -15.7559 C   0  0  0  0  0  0  0  0  0  0  0  0
   27.0196  -18.9841  -14.3143 C   0  0  1  0  0  0  0  0  0  0  0  0
   26.3615  -17.9411  -13.6435 O   0  0  0  0  0  0  0  0  0  0  0  0
   26.1585  -20.2103  -14.2202 C   0  0  2  0  0  0  0  0  0  0  0  0
   24.9370  -19.9526  -14.9550 N   0  0  0  0  0  0  0  0  0  0  0  0
   25.8229  -20.5317  -12.8082 C   0  0  0  0  0  0  0  0  0  0  0  0
   24.9339  -19.9042  -12.1882 O   0  0  0  0  0  0  0  0  0  0  0  0
   26.5046  -21.5660  -12.1166 N   0  0  0  0  0  0  0  0  0  0  0  0
   26.6856  -21.6130  -10.7009 C   0  0  1  0  0  0  0  0  0  0  0  0
   27.9227  -20.8756  -10.2375 C   0  0  0  0  0  0  0  0  0  0  0  0
   29.2994  -21.3137  -11.3539 S   0  0  0  0  0  0  0  0  0  0  0  0
   25.5069  -20.9763  -10.0573 C   0  0  0  0  0  0  0  0  0  0  0  0
   24.6796  -21.6540   -9.1710 O   0  0  0  0  0  0  0  0  0  0  0  0
   25.2298  -19.7765  -10.3118 O   0  0  0  0  0  0  0  0  0  0  0  0
  2  1  1  6
  2  3  1  0
  2 10  1  0
  4  3  1  0
  4  9  2  0
  5  4  1  0
  6  5  2  0
  6  7  1  0
  7  8  2  0
  8  9  1  0
 10 16  1  0
 11 10  2  0
 13 12  1  6
 13 14  1  0
 15 13  1  0
 15 16  1  6
 17 15  1  0
 17 19  1  0
 18 17  2  0
 20 19  1  0
 20 23  1  0
 20 21  1  6
 21 22  1  0
 23 25  2  0
 23 24  1  0
M  END
$$$$
