FTC.pdb
     RDKit          3D

 25 25  0  0  1  0  0  0  0  0999 V2000
   28.2658  -21.4446   -9.0211 N   0  0  0  0  0  0  0  0  0  0  0  0
   27.0253  -20.6949   -8.9532 C   0  0  1  0  0  0  0  0  0  0  0  0
   27.3144  -19.4052   -8.2027 C   0  0  0  0  0  0  0  0  0  0  0  0
   27.7888  -19.6552   -6.8343 C   0  0  0  0  0  0  0  0  0  0  0  0
   29.1274  -19.5704   -6.5271 C   0  0  0  0  0  0  0  0  0  0  0  0
   29.5706  -19.8043   -5.2476 C   0  0  0  0  0  0  0  0  0  0  0  0
   28.6684  -20.1305   -4.2448 C   0  0  0  0  0  0  0  0  0  0  0  0
   27.3377  -20.2079   -4.5815 C   0  0  0  0  0  0  0  0  0  0  0  0
   26.8727  -19.9775   -5.8568 C   0  0  0  0  0  0  0  0  0  0  0  0
   26.5814  -20.3261  -10.3308 C   0  0  0  0  0  0  0  0  0  0  0  0
   27.3886  -19.8813  -11.2020 O   0  0  0  0  0  0  0  0  0  0  0  0
   26.8605  -21.1176  -12.9188 C   0  0  0  0  0  0  0  0  0  0  0  0
   25.3778  -21.3602  -12.8947 C   0  0  1  0  0  0  0  0  0  0  0  0
   25.1614  -22.6117  -12.2966 O   0  0  0  0  0  0  0  0  0  0  0  0
   24.7182  -20.3182  -12.0385 C   0  0  2  0  0  0  0  0  0  0  0  0
   25.2154  -20.4743  -10.6868 N   0  0  0  0  0  0  0  0  0  0  0  0
   23.2397  -20.4715  -12.0380 C   0  0  0  0  0  0  0  0  0  0  0  0
   22.6540  -21.1614  -11.1721 O   0  0  0  0  0  0  0  0  0  0  0  0
   22.4428  -19.8365  -13.0251 N   0  0  0  0  0  0  0  0  0  0  0  0
   21.0152  -19.8051  -13.0187 C   0  0  1  0  0  0  0  0  0  0  0  0
   20.4424  -18.7418  -13.9297 C   0  0  0  0  0  0  0  0  0  0  0  0
   18.6211  -18.8428  -13.8495 S   0  0  0  0  0  0  0  0  0  0  0  0
   20.5162  -21.1244  -13.4868 C   0  0  0  0  0  0  0  0  0  0  0  0
   19.4483  -21.7782  -12.8858 O   0  0  0  0  0  0  0  0  0  0  0  0
   21.0692  -21.6888  -14.4650 O   0  0  0  0  0  0  0  0  0  0  0  0
  2  1  1  6
  2  3  1  0
  2 10  1  0
  4  3  1  0
  4  9  2  0
  5  4  1  0
  6  5  2  0
  6  7  1  0
  7  8  2  0
  8  9  1  0
 10 16  1  0
 11 10  2  0
 13 12  1  1
 13 14  1  0
 15 13  1  0
 15 16  1  1
 17 15  1  0
 17 19  1  0
 18 17  2  0
 20 19  1  0
 20 23  1  0
 20 21  1  6
 21 22  1  0
 23 25  2  0
 23 24  1  0
M  END
$$$$
