FTC.pdb
     RDKit          3D

 25 25  0  0  1  0  0  0  0  0999 V2000
   25.0174  -18.5409  -15.5764 N   0  0  0  0  0  0  0  0  0  0  0  0
   26.0596  -18.7101  -14.5812 C   0  0  1  0  0  0  0  0  0  0  0  0
   26.8408  -17.4080  -14.5155 C   0  0  0  0  0  0  0  0  0  0  0  0
   27.6916  -17.2124  -15.6980 C   0  0  0  0  0  0  0  0  0  0  0  0
   28.7268  -18.0770  -15.9707 C   0  0  0  0  0  0  0  0  0  0  0  0
   29.5221  -17.8938  -17.0763 C   0  0  0  0  0  0  0  0  0  0  0  0
   29.2891  -16.8290  -17.9353 C   0  0  0  0  0  0  0  0  0  0  0  0
   28.2480  -15.9821  -17.6372 C   0  0  0  0  0  0  0  0  0  0  0  0
   27.4395  -16.1475  -16.5351 C   0  0  0  0  0  0  0  0  0  0  0  0
   25.4449  -18.9362  -13.2388 C   0  0  0  0  0  0  0  0  0  0  0  0
   24.4013  -18.3209  -12.8637 O   0  0  0  0  0  0  0  0  0  0  0  0
   23.8169  -21.6214  -12.2114 C   0  0  0  0  0  0  0  0  0  0  0  0
   24.9081  -21.6107  -11.1784 C   0  0  1  0  0  0  0  0  0  0  0  0
   25.9329  -22.4553  -11.6335 O   0  0  0  0  0  0  0  0  0  0  0  0
   25.4693  -20.2230  -11.0637 C   0  0  2  0  0  0  0  0  0  0  0  0
   26.0392  -19.8669  -12.3471 N   0  0  0  0  0  0  0  0  0  0  0  0
   26.5256  -20.1484  -10.0204 C   0  0  0  0  0  0  0  0  0  0  0  0
   27.7013  -20.5122  -10.2529 O   0  0  0  0  0  0  0  0  0  0  0  0
   26.2310  -19.6595   -8.7216 N   0  0  0  0  0  0  0  0  0  0  0  0
   27.1381  -19.6873   -7.6191 C   0  0  1  0  0  0  0  0  0  0  0  0
   27.0457  -18.4557   -6.7454 C   0  0  0  0  0  0  0  0  0  0  0  0
   28.0944  -18.7200   -5.2744 S   0  0  0  0  0  0  0  0  0  0  0  0
   26.8156  -20.8690   -6.7776 C   0  0  0  0  0  0  0  0  0  0  0  0
   27.7804  -21.5637   -6.0595 O   0  0  0  0  0  0  0  0  0  0  0  0
   25.6273  -21.2727   -6.6987 O   0  0  0  0  0  0  0  0  0  0  0  0
  2  1  1  6
  2  3  1  0
  2 10  1  0
  4  3  1  0
  4  9  2  0
  5  4  1  0
  6  5  2  0
  6  7  1  0
  7  8  2  0
  8  9  1  0
 10 16  1  0
 11 10  2  0
 13 12  1  6
 13 14  1  0
 15 13  1  0
 15 16  1  6
 17 15  1  0
 17 19  1  0
 18 17  2  0
 20 19  1  0
 20 23  1  0
 20 21  1  1
 21 22  1  0
 23 25  2  0
 23 24  1  0
M  END
$$$$
