FTC.pdb
     RDKit          3D

 25 25  0  0  1  0  0  0  0  0999 V2000
   25.1886  -22.0184  -13.5963 N   0  0  0  0  0  0  0  0  0  0  0  0
   24.0096  -21.2575  -13.2272 C   0  0  1  0  0  0  0  0  0  0  0  0
   24.4837  -20.0060  -12.5066 C   0  0  0  0  0  0  0  0  0  0  0  0
   24.9461  -20.2947  -11.1416 C   0  0  0  0  0  0  0  0  0  0  0  0
   24.0497  -20.4036  -10.1034 C   0  0  0  0  0  0  0  0  0  0  0  0
   24.4824  -20.6734   -8.8273 C   0  0  0  0  0  0  0  0  0  0  0  0
   25.8359  -20.8401   -8.5696 C   0  0  0  0  0  0  0  0  0  0  0  0
   26.7075  -20.7256   -9.6266 C   0  0  0  0  0  0  0  0  0  0  0  0
   26.2951  -20.4558  -10.9121 C   0  0  0  0  0  0  0  0  0  0  0  0
   23.2831  -20.8225  -14.4575 C   0  0  0  0  0  0  0  0  0  0  0  0
   23.8207  -20.8591  -15.6055 O   0  0  0  0  0  0  0  0  0  0  0  0
   19.8252  -21.3917  -17.2113 C   0  0  0  0  0  0  0  0  0  0  0  0
   20.8149  -21.5253  -16.0886 C   0  0  1  0  0  0  0  0  0  0  0  0
   22.0217  -21.9861  -16.6382 O   0  0  0  0  0  0  0  0  0  0  0  0
   21.0675  -20.1736  -15.4861 C   0  0  2  0  0  0  0  0  0  0  0  0
   21.9484  -20.3514  -14.3499 N   0  0  0  0  0  0  0  0  0  0  0  0
   19.8037  -19.5363  -15.0318 C   0  0  0  0  0  0  0  0  0  0  0  0
   19.3584  -19.7182  -13.8754 O   0  0  0  0  0  0  0  0  0  0  0  0
   19.0596  -18.6973  -15.9008 N   0  0  0  0  0  0  0  0  0  0  0  0
   18.1058  -17.7256  -15.4706 C   0  0  1  0  0  0  0  0  0  0  0  0
   18.7464  -16.4772  -14.9053 C   0  0  0  0  0  0  0  0  0  0  0  0
   17.4748  -15.5548  -13.9748 S   0  0  0  0  0  0  0  0  0  0  0  0
   17.2838  -17.3262  -16.6426 C   0  0  0  0  0  0  0  0  0  0  0  0
   15.8976  -17.2534  -16.5963 O   0  0  0  0  0  0  0  0  0  0  0  0
   17.8465  -17.0383  -17.7298 O   0  0  0  0  0  0  0  0  0  0  0  0
  2  1  1  6
  2  3  1  0
  2 10  1  0
  4  3  1  0
  4  9  2  0
  5  4  1  0
  6  5  2  0
  6  7  1  0
  7  8  2  0
  8  9  1  0
 10 16  1  0
 11 10  2  0
 13 12  1  6
 13 14  1  0
 15 13  1  0
 15 16  1  1
 17 15  1  0
 17 19  1  0
 18 17  2  0
 20 19  1  0
 20 23  1  0
 20 21  1  6
 21 22  1  0
 23 25  2  0
 23 24  1  0
M  END
$$$$
