FTC.pdb
     RDKit          3D

 25 25  0  0  1  0  0  0  0  0999 V2000
   29.6705  -20.2822  -13.1333 N   0  0  0  0  0  0  0  0  0  0  0  0
   28.4560  -20.8737  -12.6036 C   0  0  1  0  0  0  0  0  0  0  0  0
   28.4741  -20.6763  -11.0967 C   0  0  0  0  0  0  0  0  0  0  0  0
   29.6821  -21.2412  -10.4788 C   0  0  0  0  0  0  0  0  0  0  0  0
   29.8903  -21.1427   -9.1222 C   0  0  0  0  0  0  0  0  0  0  0  0
   31.0199  -21.6710   -8.5447 C   0  0  0  0  0  0  0  0  0  0  0  0
   31.9689  -22.3134   -9.3274 C   0  0  0  0  0  0  0  0  0  0  0  0
   31.7338  -22.3964  -10.6794 C   0  0  0  0  0  0  0  0  0  0  0  0
   30.6091  -21.8741  -11.2778 C   0  0  0  0  0  0  0  0  0  0  0  0
   27.2652  -20.1489  -13.1399 C   0  0  0  0  0  0  0  0  0  0  0  0
   27.3718  -19.0582  -13.7781 O   0  0  0  0  0  0  0  0  0  0  0  0
   25.1611  -21.5941  -15.5504 C   0  0  0  0  0  0  0  0  0  0  0  0
   25.0279  -20.1783  -15.0650 C   0  0  1  0  0  0  0  0  0  0  0  0
   23.9038  -19.6178  -15.6921 O   0  0  0  0  0  0  0  0  0  0  0  0
   24.7775  -20.1825  -13.5848 C   0  0  2  0  0  0  0  0  0  0  0  0
   25.9687  -20.6889  -12.9343 N   0  0  0  0  0  0  0  0  0  0  0  0
   23.6208  -21.0469  -13.2317 C   0  0  0  0  0  0  0  0  0  0  0  0
   23.7036  -22.2961  -13.2654 O   0  0  0  0  0  0  0  0  0  0  0  0
   22.3804  -20.4782  -12.8433 N   0  0  0  0  0  0  0  0  0  0  0  0
   21.2588  -21.2242  -12.3695 C   0  0  1  0  0  0  0  0  0  0  0  0
   20.2094  -20.3588  -11.7073 C   0  0  0  0  0  0  0  0  0  0  0  0
   19.8824  -18.9276  -12.7929 S   0  0  0  0  0  0  0  0  0  0  0  0
   20.6247  -21.9031  -13.5296 C   0  0  0  0  0  0  0  0  0  0  0  0
   19.7752  -22.9928  -13.3880 O   0  0  0  0  0  0  0  0  0  0  0  0
   20.8534  -21.4900  -14.6951 O   0  0  0  0  0  0  0  0  0  0  0  0
  2  1  1  6
  2  3  1  0
  2 10  1  0
  4  3  1  0
  4  9  2  0
  5  4  1  0
  6  5  2  0
  6  7  1  0
  7  8  2  0
  8  9  1  0
 10 16  1  0
 11 10  2  0
 13 12  1  6
 13 14  1  0
 15 13  1  0
 15 16  1  1
 17 15  1  0
 17 19  1  0
 18 17  2  0
 20 19  1  0
 20 23  1  0
 20 21  1  6
 21 22  1  0
 23 25  2  0
 23 24  1  0
M  END
$$$$
