FTC.pdb
     RDKit          3D

 25 25  0  0  1  0  0  0  0  0999 V2000
   23.3208   -8.4044  -17.4073 N   0  0  0  0  0  0  0  0  0  0  0  0
   22.8348   -8.3612  -16.0408 C   0  0  1  0  0  0  0  0  0  0  0  0
   24.0192   -8.0302  -15.1476 C   0  0  0  0  0  0  0  0  0  0  0  0
   25.1408   -8.9588  -15.3485 C   0  0  0  0  0  0  0  0  0  0  0  0
   25.1098  -10.2258  -14.8127 C   0  0  0  0  0  0  0  0  0  0  0  0
   26.1586  -11.0937  -15.0007 C   0  0  0  0  0  0  0  0  0  0  0  0
   27.2671  -10.7001  -15.7370 C   0  0  0  0  0  0  0  0  0  0  0  0
   27.2697   -9.4286  -16.2599 C   0  0  0  0  0  0  0  0  0  0  0  0
   26.2297   -8.5437  -16.0835 C   0  0  0  0  0  0  0  0  0  0  0  0
   21.8366   -7.2599  -15.8939 C   0  0  0  0  0  0  0  0  0  0  0  0
   21.8499   -6.2349  -16.6404 O   0  0  0  0  0  0  0  0  0  0  0  0
   18.2516   -7.7539  -16.0774 C   0  0  0  0  0  0  0  0  0  0  0  0
   18.9286   -6.4168  -15.9701 C   0  0  1  0  0  0  0  0  0  0  0  0
   17.9268   -5.4424  -15.8373 O   0  0  0  0  0  0  0  0  0  0  0  0
   19.7716   -6.3856  -14.7282 C   0  0  2  0  0  0  0  0  0  0  0  0
   20.8372   -7.3534  -14.8903 N   0  0  0  0  0  0  0  0  0  0  0  0
   18.9748   -6.7309  -13.5217 C   0  0  0  0  0  0  0  0  0  0  0  0
   19.1016   -7.8375  -12.9489 O   0  0  0  0  0  0  0  0  0  0  0  0
   18.0408   -5.8108  -12.9797 N   0  0  0  0  0  0  0  0  0  0  0  0
   17.3437   -5.9935  -11.7469 C   0  0  1  0  0  0  0  0  0  0  0  0
   18.2476   -5.9051  -10.5370 C   0  0  0  0  0  0  0  0  0  0  0  0
   17.2233   -6.1291   -9.0423 S   0  0  0  0  0  0  0  0  0  0  0  0
   16.3163   -4.9262  -11.6280 C   0  0  0  0  0  0  0  0  0  0  0  0
   15.2196   -5.0322  -10.7822 O   0  0  0  0  0  0  0  0  0  0  0  0
   16.4254   -3.8766  -12.3119 O   0  0  0  0  0  0  0  0  0  0  0  0
  2  1  1  6
  2  3  1  0
  2 10  1  0
  4  3  1  0
  4  9  2  0
  5  4  1  0
  6  5  2  0
  6  7  1  0
  7  8  2  0
  8  9  1  0
 10 16  1  0
 11 10  2  0
 13 12  1  1
 13 14  1  0
 15 13  1  0
 15 16  1  6
 17 15  1  0
 17 19  1  0
 18 17  2  0
 20 19  1  0
 20 23  1  0
 20 21  1  1
 21 22  1  0
 23 25  2  0
 23 24  1  0
M  END
$$$$
