FTC.pdb
     RDKit          3D

 25 25  0  0  1  0  0  0  0  0999 V2000
   21.2215  -13.6417  -17.9776 N   0  0  0  0  0  0  0  0  0  0  0  0
   20.8955  -12.2340  -18.1105 C   0  0  1  0  0  0  0  0  0  0  0  0
   19.3979  -12.1352  -18.3504 C   0  0  0  0  0  0  0  0  0  0  0  0
   19.0023  -12.7309  -19.6346 C   0  0  0  0  0  0  0  0  0  0  0  0
   18.2472  -13.8805  -19.6740 C   0  0  0  0  0  0  0  0  0  0  0  0
   17.8775  -14.4372  -20.8748 C   0  0  0  0  0  0  0  0  0  0  0  0
   18.2637  -13.8431  -22.0681 C   0  0  0  0  0  0  0  0  0  0  0  0
   19.0176  -12.6956  -21.9973 C   0  0  0  0  0  0  0  0  0  0  0  0
   19.3985  -12.1217  -20.8052 C   0  0  0  0  0  0  0  0  0  0  0  0
   21.1960  -11.5226  -16.8321 C   0  0  0  0  0  0  0  0  0  0  0  0
   20.8818  -12.0058  -15.7025 O   0  0  0  0  0  0  0  0  0  0  0  0
   24.2596  -10.9015  -15.4868 C   0  0  0  0  0  0  0  0  0  0  0  0
   23.7413   -9.4985  -15.6320 C   0  0  1  0  0  0  0  0  0  0  0  0
   24.2093   -8.9971  -16.8569 O   0  0  0  0  0  0  0  0  0  0  0  0
   22.2413   -9.5267  -15.6867 C   0  0  2  0  0  0  0  0  0  0  0  0
   21.8539  -10.2654  -16.8711 N   0  0  0  0  0  0  0  0  0  0  0  0
   21.6741   -8.1545  -15.7571 C   0  0  0  0  0  0  0  0  0  0  0  0
   20.9306   -7.8019  -16.7013 O   0  0  0  0  0  0  0  0  0  0  0  0
   21.9603   -7.1973  -14.7499 N   0  0  0  0  0  0  0  0  0  0  0  0
   21.4779   -5.8532  -14.7473 C   0  0  1  0  0  0  0  0  0  0  0  0
   19.9690   -5.7659  -14.6821 C   0  0  0  0  0  0  0  0  0  0  0  0
   19.5064   -4.0082  -14.5091 S   0  0  0  0  0  0  0  0  0  0  0  0
   22.0272   -5.1615  -13.5521 C   0  0  0  0  0  0  0  0  0  0  0  0
   22.3476   -3.8100  -13.5494 O   0  0  0  0  0  0  0  0  0  0  0  0
   22.2172   -5.8075  -12.4902 O   0  0  0  0  0  0  0  0  0  0  0  0
  2  1  1  1
  2  3  1  0
  2 10  1  0
  4  3  1  0
  4  9  2  0
  5  4  1  0
  6  5  2  0
  6  7  1  0
  7  8  2  0
  8  9  1  0
 10 16  1  0
 11 10  2  0
 13 12  1  6
 13 14  1  0
 15 13  1  0
 15 16  1  6
 17 15  1  0
 17 19  1  0
 18 17  2  0
 20 19  1  0
 20 23  1  0
 20 21  1  1
 21 22  1  0
 23 25  2  0
 23 24  1  0
M  END
$$$$
