FTC.pdb
     RDKit          3D

 25 25  0  0  1  0  0  0  0  0999 V2000
   23.5502  -14.0375  -20.2443 N   0  0  0  0  0  0  0  0  0  0  0  0
   22.4236  -13.3353  -19.6584 C   0  0  1  0  0  0  0  0  0  0  0  0
   21.7876  -14.2669  -18.6397 C   0  0  0  0  0  0  0  0  0  0  0  0
   21.2403  -15.4796  -19.2643 C   0  0  0  0  0  0  0  0  0  0  0  0
   21.8883  -16.6874  -19.1429 C   0  0  0  0  0  0  0  0  0  0  0  0
   21.3763  -17.8210  -19.7270 C   0  0  0  0  0  0  0  0  0  0  0  0
   20.1934  -17.7606  -20.4501 C   0  0  0  0  0  0  0  0  0  0  0  0
   19.5685  -16.5404  -20.5542 C   0  0  0  0  0  0  0  0  0  0  0  0
   20.0643  -15.3929  -19.9769 C   0  0  0  0  0  0  0  0  0  0  0  0
   22.9069  -12.1269  -18.9255 C   0  0  0  0  0  0  0  0  0  0  0  0
   24.1411  -11.8621  -18.8035 O   0  0  0  0  0  0  0  0  0  0  0  0
   22.0011   -8.7658  -19.8170 C   0  0  0  0  0  0  0  0  0  0  0  0
   22.9963   -9.1301  -18.7517 C   0  0  1  0  0  0  0  0  0  0  0  0
   23.4076   -7.9408  -18.1295 O   0  0  0  0  0  0  0  0  0  0  0  0
   22.3246   -9.9852  -17.7165 C   0  0  2  0  0  0  0  0  0  0  0  0
   21.9636  -11.2403  -18.3434 N   0  0  0  0  0  0  0  0  0  0  0  0
   21.0997   -9.3327  -17.1842 C   0  0  0  0  0  0  0  0  0  0  0  0
   20.0309   -9.3167  -17.8369 O   0  0  0  0  0  0  0  0  0  0  0  0
   21.1052   -8.7046  -15.9121 N   0  0  0  0  0  0  0  0  0  0  0  0
   19.9756   -8.0631  -15.3191 C   0  0  1  0  0  0  0  0  0  0  0  0
   19.4476   -8.7967  -14.1059 C   0  0  0  0  0  0  0  0  0  0  0  0
   18.0683   -7.8252  -13.4076 S   0  0  0  0  0  0  0  0  0  0  0  0
   20.3847   -6.7013  -14.8866 C   0  0  0  0  0  0  0  0  0  0  0  0
   19.4813   -5.6553  -14.7496 O   0  0  0  0  0  0  0  0  0  0  0  0
   21.5928   -6.4654  -14.6295 O   0  0  0  0  0  0  0  0  0  0  0  0
  2  1  1  1
  2  3  1  0
  2 10  1  0
  4  3  1  0
  4  9  2  0
  5  4  1  0
  6  5  2  0
  6  7  1  0
  7  8  2  0
  8  9  1  0
 10 16  1  0
 11 10  2  0
 13 12  1  6
 13 14  1  0
 15 13  1  0
 15 16  1  6
 17 15  1  0
 17 19  1  0
 18 17  2  0
 20 19  1  0
 20 23  1  0
 20 21  1  1
 21 22  1  0
 23 25  2  0
 23 24  1  0
M  END
$$$$
