LNG.pdb
     RDKit          3D

 21 20  0  0  1  0  0  0  0  0999 V2000
   22.9104  -13.2811  -15.6150 C   0  0  0  0  0  0  0  0  0  0  0  0
   22.9548  -12.0407  -16.4744 C   0  0  2  0  0  0  0  0  0  0  0  0
   23.7274  -12.2738  -17.7625 C   0  0  0  0  0  0  0  0  0  0  0  0
   23.5433  -10.8573  -15.7184 C   0  0  0  0  0  0  0  0  0  0  0  0
   22.4517  -10.2979  -14.8387 C   0  0  2  0  0  0  0  0  0  0  0  0
   21.1918  -10.6059  -15.4966 N   0  0  0  0  0  0  0  0  0  0  0  0
   22.5924   -8.8469  -14.6166 C   0  0  0  0  0  0  0  0  0  0  0  0
   23.6549   -8.4248  -14.0979 O   0  0  0  0  0  0  0  0  0  0  0  0
   23.2320   -3.7431  -15.4024 N   0  0  0  0  0  0  0  0  0  0  0  0
   23.7427   -4.9568  -16.0084 C   0  0  0  0  0  0  0  0  0  0  0  0
   24.7499   -4.7483  -16.7122 O   0  0  0  0  0  0  0  0  0  0  0  0
   23.1082   -6.2069  -15.7768 C   0  0  0  0  0  0  0  0  0  0  0  0
   21.9025   -6.4155  -14.9610 C   0  0  2  0  0  0  0  0  0  0  0  0
   21.6060   -7.8966  -14.9518 N   0  0  0  0  0  0  0  0  0  0  0  0
   20.6647   -5.7247  -15.3118 C   0  0  0  0  0  0  0  0  0  0  0  0
   20.6964   -4.4257  -15.4373 O   0  0  0  0  0  0  0  0  0  0  0  0
   19.3833   -6.2602  -15.5520 N   0  0  0  0  0  0  0  0  0  0  0  0
   18.2264   -5.4084  -15.8464 C   0  0  0  0  0  0  0  0  0  0  0  0
   17.8251   -4.6199  -14.6636 C   0  0  0  0  0  0  0  0  0  0  0  0
   18.7132   -3.9952  -14.0336 O   0  0  0  0  0  0  0  0  0  0  0  0
   16.5256   -4.5305  -14.2101 O   0  0  0  0  0  0  0  0  0  0  0  0
  2  1  1  1
  3  2  1  0
  4  5  1  0
  4  2  1  0
  5  6  1  6
  7  5  1  0
  8  7  2  0
 10  9  1  0
 10 12  1  0
 11 10  2  0
 13 12  1  6
 13 14  1  0
 14  7  1  0
 15 16  2  0
 15 13  1  0
 17 15  1  0
 18 19  1  0
 18 17  1  0
 19 21  1  0
 20 19  2  0
M  END
$$$$
