LNG.pdb
     RDKit          3D

 21 20  0  0  1  0  0  0  0  0999 V2000
   27.6761  -18.4749   -4.6550 C   0  0  0  0  0  0  0  0  0  0  0  0
   27.9099  -19.9449   -4.9077 C   0  0  2  0  0  0  0  0  0  0  0  0
   29.0455  -20.4901   -4.0570 C   0  0  0  0  0  0  0  0  0  0  0  0
   28.1792  -20.2234   -6.3801 C   0  0  0  0  0  0  0  0  0  0  0  0
   26.9860  -19.7236   -7.1578 C   0  0  2  0  0  0  0  0  0  0  0  0
   25.8445  -20.5071   -6.7127 N   0  0  0  0  0  0  0  0  0  0  0  0
   27.1722  -19.8403   -8.6160 C   0  0  0  0  0  0  0  0  0  0  0  0
   28.3282  -19.6898   -9.0819 O   0  0  0  0  0  0  0  0  0  0  0  0
   29.4088  -20.5062  -11.2892 N   0  0  0  0  0  0  0  0  0  0  0  0
   28.6255  -21.7159  -11.1338 C   0  0  0  0  0  0  0  0  0  0  0  0
   29.3344  -22.7408  -11.1124 O   0  0  0  0  0  0  0  0  0  0  0  0
   27.2100  -21.6558  -11.0250 C   0  0  0  0  0  0  0  0  0  0  0  0
   26.4078  -20.4241  -10.9784 C   0  0  2  0  0  0  0  0  0  0  0  0
   26.1305  -20.1124   -9.5267 N   0  0  0  0  0  0  0  0  0  0  0  0
   25.1333  -20.3649  -11.6887 C   0  0  0  0  0  0  0  0  0  0  0  0
   25.1304  -20.5989  -12.9730 O   0  0  0  0  0  0  0  0  0  0  0  0
   23.8460  -20.0873  -11.1865 N   0  0  0  0  0  0  0  0  0  0  0  0
   22.6705  -20.0069  -12.0598 C   0  0  0  0  0  0  0  0  0  0  0  0
   21.7667  -21.1565  -11.8511 C   0  0  0  0  0  0  0  0  0  0  0  0
   21.7217  -21.6809  -10.7114 O   0  0  0  0  0  0  0  0  0  0  0  0
   20.9666  -21.6887  -12.8405 O   0  0  0  0  0  0  0  0  0  0  0  0
  2  1  1  6
  3  2  1  0
  4  5  1  0
  4  2  1  0
  5  6  1  1
  7  5  1  0
  8  7  2  0
 10  9  1  0
 10 12  1  0
 11 10  2  0
 13 12  1  1
 13 14  1  0
 14  7  1  0
 15 16  2  0
 15 13  1  0
 17 15  1  0
 18 19  1  0
 18 17  1  0
 19 21  1  0
 20 19  2  0
M  END
$$$$
