LNG.pdb
     RDKit          3D

 21 20  0  0  1  0  0  0  0  0999 V2000
   16.0248  -11.8117  -15.9089 C   0  0  0  0  0  0  0  0  0  0  0  0
   17.1743  -12.6329  -16.4415 C   0  0  2  0  0  0  0  0  0  0  0  0
   16.9106  -14.1242  -16.3109 C   0  0  0  0  0  0  0  0  0  0  0  0
   18.4847  -12.2715  -15.7558 C   0  0  0  0  0  0  0  0  0  0  0  0
   18.7028  -10.7912  -15.9543 C   0  0  2  0  0  0  0  0  0  0  0  0
   18.6751  -10.5579  -17.3896 N   0  0  0  0  0  0  0  0  0  0  0  0
   19.9712  -10.3226  -15.3660 C   0  0  0  0  0  0  0  0  0  0  0  0
   20.1090  -10.3882  -14.1199 O   0  0  0  0  0  0  0  0  0  0  0  0
   25.1523   -9.6801  -14.3689 N   0  0  0  0  0  0  0  0  0  0  0  0
   24.7255  -10.4012  -15.5516 C   0  0  0  0  0  0  0  0  0  0  0  0
   25.6213  -11.1384  -16.0071 O   0  0  0  0  0  0  0  0  0  0  0  0
   23.4143  -10.2314  -16.0722 C   0  0  0  0  0  0  0  0  0  0  0  0
   22.3528   -9.4144  -15.4652 C   0  0  2  0  0  0  0  0  0  0  0  0
   21.0464   -9.8033  -16.1162 N   0  0  0  0  0  0  0  0  0  0  0  0
   22.4468   -7.9579  -15.5111 C   0  0  0  0  0  0  0  0  0  0  0  0
   21.9522   -7.3394  -16.5489 O   0  0  0  0  0  0  0  0  0  0  0  0
   23.0076   -7.0716  -14.5696 N   0  0  0  0  0  0  0  0  0  0  0  0
   23.1004   -5.6291  -14.8177 C   0  0  0  0  0  0  0  0  0  0  0  0
   21.9506   -4.9088  -14.2338 C   0  0  0  0  0  0  0  0  0  0  0  0
   21.0197   -5.5816  -13.7271 O   0  0  0  0  0  0  0  0  0  0  0  0
   21.8408   -3.5340  -14.2136 O   0  0  0  0  0  0  0  0  0  0  0  0
  2  1  1  1
  3  2  1  0
  4  5  1  0
  4  2  1  0
  5  6  1  6
  7  5  1  0
  8  7  2  0
 10  9  1  0
 10 12  1  0
 11 10  2  0
 13 12  1  6
 13 14  1  0
 14  7  1  0
 15 16  2  0
 15 13  1  0
 17 15  1  0
 18 19  1  0
 18 17  1  0
 19 21  1  0
 20 19  2  0
M  END
$$$$
