LNG.pdb
     RDKit          3D

 21 20  0  0  1  0  0  0  0  0999 V2000
   25.8725  -34.5498   -9.1578 C   0  0  0  0  0  0  0  0  0  0  0  0
   25.7951  -33.0456   -9.0550 C   0  0  2  0  0  0  0  0  0  0  0  0
   27.0358  -32.3764   -9.6236 C   0  0  0  0  0  0  0  0  0  0  0  0
   25.5690  -32.5940   -7.6187 C   0  0  0  0  0  0  0  0  0  0  0  0
   24.2564  -33.1838   -7.1632 C   0  0  2  0  0  0  0  0  0  0  0  0
   23.2085  -32.4043   -7.8030 N   0  0  0  0  0  0  0  0  0  0  0  0
   24.1079  -33.1675   -5.6961 C   0  0  0  0  0  0  0  0  0  0  0  0
   24.1181  -32.0576   -5.1096 O   0  0  0  0  0  0  0  0  0  0  0  0
   20.2610  -33.7176   -3.2417 N   0  0  0  0  0  0  0  0  0  0  0  0
   21.5067  -33.8452   -2.5116 C   0  0  0  0  0  0  0  0  0  0  0  0
   21.5244  -33.1490   -1.4780 O   0  0  0  0  0  0  0  0  0  0  0  0
   22.5445  -34.6909   -2.9879 C   0  0  0  0  0  0  0  0  0  0  0  0
   23.8865  -34.2499   -3.3971 C   0  0  2  0  0  0  0  0  0  0  0  0
   23.9535  -34.3240   -4.9042 N   0  0  0  0  0  0  0  0  0  0  0  0
   25.0636  -34.9374   -2.8735 C   0  0  0  0  0  0  0  0  0  0  0  0
   25.5483  -35.9392   -3.5558 O   0  0  0  0  0  0  0  0  0  0  0  0
   25.7967  -34.6784   -1.6979 N   0  0  0  0  0  0  0  0  0  0  0  0
   27.0007  -35.4392   -1.3480 C   0  0  0  0  0  0  0  0  0  0  0  0
   27.6969  -34.8406   -0.1909 C   0  0  0  0  0  0  0  0  0  0  0  0
   27.1985  -33.8192    0.3423 O   0  0  0  0  0  0  0  0  0  0  0  0
   28.8676  -35.3416    0.3391 O   0  0  0  0  0  0  0  0  0  0  0  0
  2  1  1  1
  3  2  1  0
  4  5  1  0
  4  2  1  0
  5  6  1  6
  7  5  1  0
  8  7  2  0
 10  9  1  0
 10 12  1  0
 11 10  2  0
 13 12  1  1
 13 14  1  0
 14  7  1  0
 15 16  2  0
 15 13  1  0
 17 15  1  0
 18 19  1  0
 18 17  1  0
 19 21  1  0
 20 19  2  0
M  END
$$$$
