LNG.pdb
     RDKit          3D

 21 20  0  0  1  0  0  0  0  0999 V2000
   14.6980  -11.3678  -14.4740 C   0  0  0  0  0  0  0  0  0  0  0  0
   14.0090  -11.3543  -13.1307 C   0  0  2  0  0  0  0  0  0  0  0  0
   12.5425  -11.7377  -13.2447 C   0  0  0  0  0  0  0  0  0  0  0  0
   14.1441  -10.0009  -12.4464 C   0  0  0  0  0  0  0  0  0  0  0  0
   15.6184   -9.7368  -12.2592 C   0  0  2  0  0  0  0  0  0  0  0  0
   16.1154  -10.7768  -11.3724 N   0  0  0  0  0  0  0  0  0  0  0  0
   15.8870   -8.3964  -11.7064 C   0  0  0  0  0  0  0  0  0  0  0  0
   14.9122   -7.7059  -11.3205 O   0  0  0  0  0  0  0  0  0  0  0  0
   15.4408   -4.9210   -9.2140 N   0  0  0  0  0  0  0  0  0  0  0  0
   15.8737   -6.2047   -8.6984 C   0  0  0  0  0  0  0  0  0  0  0  0
   15.2665   -6.5278   -7.6590 O   0  0  0  0  0  0  0  0  0  0  0  0
   16.8844   -6.9507   -9.3624 C   0  0  0  0  0  0  0  0  0  0  0  0
   17.4390   -6.6459  -10.6899 C   0  0  2  0  0  0  0  0  0  0  0  0
   17.1752   -7.8365  -11.5812 N   0  0  0  0  0  0  0  0  0  0  0  0
   18.8534   -6.3072  -10.8214 C   0  0  0  0  0  0  0  0  0  0  0  0
   19.3105   -5.2898  -10.1431 O   0  0  0  0  0  0  0  0  0  0  0  0
   19.8510   -6.9338  -11.5951 N   0  0  0  0  0  0  0  0  0  0  0  0
   21.2059   -6.3846  -11.7106 C   0  0  0  0  0  0  0  0  0  0  0  0
   21.2356   -5.2127  -12.6093 C   0  0  0  0  0  0  0  0  0  0  0  0
   20.1639   -4.8509  -13.1537 O   0  0  0  0  0  0  0  0  0  0  0  0
   22.3779   -4.4906  -12.8855 O   0  0  0  0  0  0  0  0  0  0  0  0
  2  1  1  6
  3  2  1  0
  4  5  1  0
  4  2  1  0
  5  6  1  1
  7  5  1  0
  8  7  2  0
 10  9  1  0
 10 12  1  0
 11 10  2  0
 13 12  1  1
 13 14  1  0
 14  7  1  0
 15 16  2  0
 15 13  1  0
 17 15  1  0
 18 19  1  0
 18 17  1  0
 19 21  1  0
 20 19  2  0
M  END
$$$$
