LNG.pdb
     RDKit          3D

 21 20  0  0  1  0  0  0  0  0999 V2000
   28.4546  -34.2264  -16.2167 C   0  0  0  0  0  0  0  0  0  0  0  0
   29.3703  -33.2964  -16.9757 C   0  0  2  0  0  0  0  0  0  0  0  0
   30.8176  -33.7571  -16.9166 C   0  0  0  0  0  0  0  0  0  0  0  0
   29.2562  -31.8644  -16.4712 C   0  0  0  0  0  0  0  0  0  0  0  0
   27.8433  -31.4051  -16.7377 C   0  0  2  0  0  0  0  0  0  0  0  0
   27.5847  -31.6585  -18.1462 N   0  0  0  0  0  0  0  0  0  0  0  0
   27.6401  -29.9818  -16.4097 C   0  0  0  0  0  0  0  0  0  0  0  0
   27.8256  -29.6123  -15.2243 O   0  0  0  0  0  0  0  0  0  0  0  0
   28.5055  -24.6665  -16.3306 N   0  0  0  0  0  0  0  0  0  0  0  0
   28.0053  -25.2987  -17.5353 C   0  0  0  0  0  0  0  0  0  0  0  0
   27.6705  -24.4689  -18.4028 O   0  0  0  0  0  0  0  0  0  0  0  0
   27.9358  -26.7143  -17.6375 C   0  0  0  0  0  0  0  0  0  0  0  0
   26.9741  -27.5760  -16.9337 C   0  0  2  0  0  0  0  0  0  0  0  0
   27.2496  -29.0026  -17.3463 N   0  0  0  0  0  0  0  0  0  0  0  0
   25.5417  -27.3433  -17.0968 C   0  0  0  0  0  0  0  0  0  0  0  0
   25.0541  -26.1963  -16.7085 O   0  0  0  0  0  0  0  0  0  0  0  0
   24.5567  -28.1956  -17.6350 N   0  0  0  0  0  0  0  0  0  0  0  0
   23.1676  -27.7621  -17.8175 C   0  0  0  0  0  0  0  0  0  0  0  0
   22.9224  -27.3145  -19.2037 C   0  0  0  0  0  0  0  0  0  0  0  0
   23.9083  -27.1687  -19.9669 O   0  0  0  0  0  0  0  0  0  0  0  0
   21.6673  -27.0465  -19.7092 O   0  0  0  0  0  0  0  0  0  0  0  0
  2  1  1  1
  3  2  1  0
  4  5  1  0
  4  2  1  0
  5  6  1  6
  7  5  1  0
  8  7  2  0
 10  9  1  0
 10 12  1  0
 11 10  2  0
 13 12  1  6
 13 14  1  0
 14  7  1  0
 15 16  2  0
 15 13  1  0
 17 15  1  0
 18 19  1  0
 18 17  1  0
 19 21  1  0
 20 19  2  0
M  END
$$$$
