LNG.pdb
     RDKit          3D

 21 20  0  0  1  0  0  0  0  0999 V2000
   20.9691  -13.6929  -20.9486 C   0  0  0  0  0  0  0  0  0  0  0  0
   19.8964  -12.6495  -21.1488 C   0  0  2  0  0  0  0  0  0  0  0  0
   20.3099  -11.6041  -22.1718 C   0  0  0  0  0  0  0  0  0  0  0  0
   19.5191  -11.9763  -19.8363 C   0  0  0  0  0  0  0  0  0  0  0  0
   20.3853  -10.7483  -19.6956 C   0  0  2  0  0  0  0  0  0  0  0  0
   21.6783  -11.2073  -19.2133 N   0  0  0  0  0  0  0  0  0  0  0  0
   19.8038   -9.7479  -18.7814 C   0  0  0  0  0  0  0  0  0  0  0  0
   18.7587   -9.1516  -19.1394 O   0  0  0  0  0  0  0  0  0  0  0  0
   17.7965   -7.2550  -14.5357 N   0  0  0  0  0  0  0  0  0  0  0  0
   17.7844   -8.6719  -14.8411 C   0  0  0  0  0  0  0  0  0  0  0  0
   16.9195   -9.2902  -14.1907 O   0  0  0  0  0  0  0  0  0  0  0  0
   18.6909   -9.2184  -15.7891 C   0  0  0  0  0  0  0  0  0  0  0  0
   19.6559   -8.4505  -16.5903 C   0  0  2  0  0  0  0  0  0  0  0  0
   20.3477   -9.4159  -17.5235 N   0  0  0  0  0  0  0  0  0  0  0  0
   20.6936   -7.6719  -15.9199 C   0  0  0  0  0  0  0  0  0  0  0  0
   21.6763   -8.3145  -15.3493 O   0  0  0  0  0  0  0  0  0  0  0  0
   20.8125   -6.2737  -15.7878 N   0  0  0  0  0  0  0  0  0  0  0  0
   21.9783   -5.6480  -15.1551 C   0  0  0  0  0  0  0  0  0  0  0  0
   21.7503   -5.4225  -13.7133 C   0  0  0  0  0  0  0  0  0  0  0  0
   20.6379   -5.7428  -13.2277 O   0  0  0  0  0  0  0  0  0  0  0  0
   22.6933   -4.8778  -12.8668 O   0  0  0  0  0  0  0  0  0  0  0  0
  2  1  1  1
  3  2  1  0
  4  5  1  0
  4  2  1  0
  5  6  1  1
  7  5  1  0
  8  7  2  0
 10  9  1  0
 10 12  1  0
 11 10  2  0
 13 12  1  1
 13 14  1  0
 14  7  1  0
 15 16  2  0
 15 13  1  0
 17 15  1  0
 18 19  1  0
 18 17  1  0
 19 21  1  0
 20 19  2  0
M  END
$$$$
