LNG.pdb
     RDKit          3D

 21 20  0  0  1  0  0  0  0  0999 V2000
   17.8346  -12.2933  -15.4120 C   0  0  0  0  0  0  0  0  0  0  0  0
   18.9480  -12.2825  -16.4315 C   0  0  2  0  0  0  0  0  0  0  0  0
   19.3994  -13.6891  -16.7893 C   0  0  0  0  0  0  0  0  0  0  0  0
   20.1354  -11.4577  -15.9542 C   0  0  0  0  0  0  0  0  0  0  0  0
   19.6377  -10.0544  -15.7066 C   0  0  2  0  0  0  0  0  0  0  0  0
   19.0280   -9.6067  -16.9488 N   0  0  0  0  0  0  0  0  0  0  0  0
   20.7141   -9.1388  -15.2849 C   0  0  0  0  0  0  0  0  0  0  0  0
   21.2834   -9.3557  -14.1872 O   0  0  0  0  0  0  0  0  0  0  0  0
   24.3670   -9.2422  -15.5936 N   0  0  0  0  0  0  0  0  0  0  0  0
   24.2959   -8.2015  -16.6001 C   0  0  0  0  0  0  0  0  0  0  0  0
   25.1378   -8.3586  -17.5056 O   0  0  0  0  0  0  0  0  0  0  0  0
   23.3435   -7.1523  -16.4940 C   0  0  0  0  0  0  0  0  0  0  0  0
   22.2298   -7.1025  -15.5348 C   0  0  2  0  0  0  0  0  0  0  0  0
   21.1491   -8.0295  -16.0391 N   0  0  0  0  0  0  0  0  0  0  0  0
   21.5982   -5.8224  -15.2271 C   0  0  0  0  0  0  0  0  0  0  0  0
   22.3280   -4.8898  -14.6776 O   0  0  0  0  0  0  0  0  0  0  0  0
   20.2673   -5.4115  -15.4420 N   0  0  0  0  0  0  0  0  0  0  0  0
   19.7925   -4.0783  -15.0573 C   0  0  0  0  0  0  0  0  0  0  0  0
   19.9837   -3.1039  -16.1509 C   0  0  0  0  0  0  0  0  0  0  0  0
   20.5599   -3.4876  -17.1981 O   0  0  0  0  0  0  0  0  0  0  0  0
   19.5639   -1.7916  -16.0869 O   0  0  0  0  0  0  0  0  0  0  0  0
  2  1  1  1
  3  2  1  0
  4  5  1  0
  4  2  1  0
  5  6  1  6
  7  5  1  0
  8  7  2  0
 10  9  1  0
 10 12  1  0
 11 10  2  0
 13 12  1  6
 13 14  1  0
 14  7  1  0
 15 16  2  0
 15 13  1  0
 17 15  1  0
 18 19  1  0
 18 17  1  0
 19 21  1  0
 20 19  2  0
M  END
$$$$
