LNG.pdb
     RDKit          3D

 21 20  0  0  1  0  0  0  0  0999 V2000
   17.4251  -11.6561  -19.8865 C   0  0  0  0  0  0  0  0  0  0  0  0
   17.9670  -12.5689  -18.8130 C   0  0  2  0  0  0  0  0  0  0  0  0
   16.9905  -13.6834  -18.4740 C   0  0  0  0  0  0  0  0  0  0  0  0
   18.3350  -11.7952  -17.5544 C   0  0  0  0  0  0  0  0  0  0  0  0
   19.3314  -10.7342  -17.9540 C   0  0  2  0  0  0  0  0  0  0  0  0
   20.5272  -11.4349  -18.3947 N   0  0  0  0  0  0  0  0  0  0  0  0
   19.6388   -9.8034  -16.8523 C   0  0  0  0  0  0  0  0  0  0  0  0
   19.5473  -10.2260  -15.6737 O   0  0  0  0  0  0  0  0  0  0  0  0
   20.8429   -8.2362  -12.9534 N   0  0  0  0  0  0  0  0  0  0  0  0
   21.8530   -8.6228  -13.9185 C   0  0  0  0  0  0  0  0  0  0  0  0
   22.8148   -9.2122  -13.3886 O   0  0  0  0  0  0  0  0  0  0  0  0
   21.6905   -8.3258  -15.2985 C   0  0  0  0  0  0  0  0  0  0  0  0
   20.5444   -7.6207  -15.8920 C   0  0  2  0  0  0  0  0  0  0  0  0
   20.0319   -8.4619  -17.0372 N   0  0  0  0  0  0  0  0  0  0  0  0
   20.7140   -6.2593  -16.3921 C   0  0  0  0  0  0  0  0  0  0  0  0
   21.1522   -5.3481  -15.5664 O   0  0  0  0  0  0  0  0  0  0  0  0
   20.4739   -5.7486  -17.6836 N   0  0  0  0  0  0  0  0  0  0  0  0
   20.6925   -4.3369  -18.0154 C   0  0  0  0  0  0  0  0  0  0  0  0
   19.5675   -3.4969  -17.5562 C   0  0  0  0  0  0  0  0  0  0  0  0
   18.6346   -4.0449  -16.9197 O   0  0  0  0  0  0  0  0  0  0  0  0
   19.4834   -2.1398  -17.7877 O   0  0  0  0  0  0  0  0  0  0  0  0
  2  1  1  6
  3  2  1  0
  4  5  1  0
  4  2  1  0
  5  6  1  1
  7  5  1  0
  8  7  2  0
 10  9  1  0
 10 12  1  0
 11 10  2  0
 13 12  1  6
 13 14  1  0
 14  7  1  0
 15 16  2  0
 15 13  1  0
 17 15  1  0
 18 19  1  0
 18 17  1  0
 19 21  1  0
 20 19  2  0
M  END
$$$$
