LNG.pdb
     RDKit          3D

 21 20  0  0  1  0  0  0  0  0999 V2000
   14.8018   -8.6470  -19.5765 C   0  0  0  0  0  0  0  0  0  0  0  0
   16.1397   -9.0244  -18.9877 C   0  0  2  0  0  0  0  0  0  0  0  0
   16.6341  -10.3597  -19.5199 C   0  0  0  0  0  0  0  0  0  0  0  0
   16.0931   -9.0528  -17.4661 C   0  0  0  0  0  0  0  0  0  0  0  0
   17.4355   -9.5468  -16.9843 C   0  0  2  0  0  0  0  0  0  0  0  0
   17.2038  -10.8479  -16.3772 N   0  0  0  0  0  0  0  0  0  0  0  0
   18.0685   -8.6208  -16.0269 C   0  0  0  0  0  0  0  0  0  0  0  0
   17.6522   -8.6135  -14.8426 O   0  0  0  0  0  0  0  0  0  0  0  0
   21.7353   -5.7987  -13.2756 N   0  0  0  0  0  0  0  0  0  0  0  0
   21.9287   -7.0886  -13.9081 C   0  0  0  0  0  0  0  0  0  0  0  0
   22.9785   -7.6473  -13.5351 O   0  0  0  0  0  0  0  0  0  0  0  0
   20.9805   -7.5902  -14.8399 C   0  0  0  0  0  0  0  0  0  0  0  0
   19.7854   -6.8750  -15.3122 C   0  0  2  0  0  0  0  0  0  0  0  0
   19.1178   -7.7383  -16.3566 N   0  0  0  0  0  0  0  0  0  0  0  0
   19.9213   -5.5347  -15.8757 C   0  0  0  0  0  0  0  0  0  0  0  0
   20.5677   -4.6363  -15.1834 O   0  0  0  0  0  0  0  0  0  0  0  0
   19.4489   -5.0335  -17.1053 N   0  0  0  0  0  0  0  0  0  0  0  0
   19.5804   -3.6195  -17.4716 C   0  0  0  0  0  0  0  0  0  0  0  0
   18.6087   -2.7823  -16.7389 C   0  0  0  0  0  0  0  0  0  0  0  0
   17.8834   -3.3294  -15.8726 O   0  0  0  0  0  0  0  0  0  0  0  0
   18.4522   -1.4287  -16.9531 O   0  0  0  0  0  0  0  0  0  0  0  0
  2  1  1  6
  3  2  1  0
  4  5  1  0
  4  2  1  0
  5  6  1  1
  7  5  1  0
  8  7  2  0
 10  9  1  0
 10 12  1  0
 11 10  2  0
 13 12  1  6
 13 14  1  0
 14  7  1  0
 15 16  2  0
 15 13  1  0
 17 15  1  0
 18 19  1  0
 18 17  1  0
 19 21  1  0
 20 19  2  0
M  END
$$$$
