RLE.pdb
     RDKit          3D

 29 28  0  0  1  0  0  0  0  0999 V2000
   29.0506  -17.1686  -17.8144 N   0  0  0  0  0  0  0  0  0  0  0  0
   28.2126  -17.9088  -18.6799 C   0  0  0  0  0  0  0  0  0  0  0  0
   28.1543  -17.5829  -19.9255 N   0  0  0  0  0  0  0  0  0  0  0  0
   27.4428  -18.9985  -18.1909 N   0  0  0  0  0  0  0  0  0  0  0  0
   27.7654  -19.6254  -16.9291 C   0  0  0  0  0  0  0  0  0  0  0  0
   27.1980  -18.7797  -15.7956 C   0  0  0  0  0  0  0  0  0  0  0  0
   26.1805  -19.5673  -15.0085 C   0  0  0  0  0  0  0  0  0  0  0  0
   26.8139  -20.8796  -14.5761 C   0  0  2  0  0  0  0  0  0  0  0  0
   26.9772  -21.7829  -15.6914 N   0  0  0  0  0  0  0  0  0  0  0  0
   25.8951  -21.4537  -13.5412 C   0  0  0  0  0  0  0  0  0  0  0  0
   25.1289  -22.3905  -13.8884 O   0  0  0  0  0  0  0  0  0  0  0  0
   27.5075  -18.0500  -20.5738 C   0  0  0  0  0  0  0  0  0  0  0  0
   25.2954  -19.6997   -8.0556 C   0  0  1  0  0  0  0  0  0  0  0  0
   25.9596  -20.1892   -9.2876 C   0  0  0  0  0  0  0  0  0  0  0  0
   27.4802  -20.1928   -9.1020 C   0  0  0  0  0  0  0  0  0  0  0  0
   25.4938  -21.4622   -9.8599 C   0  0  1  0  0  0  0  0  0  0  0  0
   24.9879  -21.4886  -11.2513 N   0  0  0  0  0  0  0  0  0  0  0  0
   25.8993  -20.9471  -12.2151 C   0  0  0  0  0  0  0  0  0  0  0  0
   23.6007  -20.9882  -11.4329 O   0  0  0  0  0  0  0  0  0  0  0  0
   22.7316  -21.4093  -10.6181 N   0  0  0  0  0  0  0  0  0  0  0  0
   23.1957  -20.0952  -12.4256 C   0  0  2  0  0  0  0  0  0  0  0  0
   21.7609  -19.6708  -12.5527 C   0  0  0  0  0  0  0  0  0  0  0  0
   21.8096  -18.7139  -13.7064 C   0  0  0  0  0  0  0  0  0  0  0  0
   21.9466  -19.2128  -15.0792 C   0  0  0  0  0  0  0  0  0  0  0  0
   21.9540  -18.2655  -16.1900 O   0  0  0  0  0  0  0  0  0  0  0  0
   23.0250  -17.7440  -16.5748 C   0  0  0  0  0  0  0  0  0  0  0  0
   20.9805  -20.8695  -12.9086 O   0  0  0  0  0  0  0  0  0  0  0  0
   21.4220  -21.9207  -13.4127 O   0  0  0  0  0  0  0  0  0  0  0  0
   20.7814  -17.9310  -16.8358 O   0  0  0  0  0  0  0  0  0  0  0  0
  2  1  1  0
  2  3  2  0
  4  2  1  0
  5  4  1  0
  6  5  1  0
  7  6  1  0
  8  7  1  0
  8  9  1  6
 10 17  1  0
 10  8  1  0
 11 10  2  0
 13 12  1  6
 14 13  1  0
 15 13  1  0
 16 15  1  6
 16 17  1  0
 18 16  1  0
 18 19  2  0
 20 18  1  0
 21 20  1  0
 21 26  1  0
 21 22  1  6
 23 22  1  0
 24 23  1  0
 25 24  2  0
 26 29  1  0
 27 26  2  0
 28 24  1  0
M  END
$$$$
