RLE.pdb
     RDKit          3D

 29 28  0  0  1  0  0  0  0  0999 V2000
   29.2451  -23.5230  -17.5123 N   0  0  0  0  0  0  0  0  0  0  0  0
   27.8720  -23.8081  -17.3330 C   0  0  0  0  0  0  0  0  0  0  0  0
   27.4437  -25.0005  -17.5698 N   0  0  0  0  0  0  0  0  0  0  0  0
   26.9705  -22.7998  -16.8975 N   0  0  0  0  0  0  0  0  0  0  0  0
   27.4115  -21.4330  -16.7341 C   0  0  0  0  0  0  0  0  0  0  0  0
   28.0548  -21.2801  -15.3613 C   0  0  0  0  0  0  0  0  0  0  0  0
   27.1832  -21.9014  -14.2985 C   0  0  0  0  0  0  0  0  0  0  0  0
   25.8350  -21.1997  -14.3076 C   0  0  2  0  0  0  0  0  0  0  0  0
   25.9822  -19.7693  -14.4449 N   0  0  0  0  0  0  0  0  0  0  0  0
   25.1812  -21.5570  -13.0078 C   0  0  0  0  0  0  0  0  0  0  0  0
   24.9950  -22.7769  -12.7578 O   0  0  0  0  0  0  0  0  0  0  0  0
   26.4637  -25.2628  -17.4033 C   0  0  0  0  0  0  0  0  0  0  0  0
   26.1501  -18.7632   -8.3524 C   0  0  1  0  0  0  0  0  0  0  0  0
   25.8376  -19.8585   -9.3019 C   0  0  0  0  0  0  0  0  0  0  0  0
   26.4048  -21.1840   -8.7843 C   0  0  0  0  0  0  0  0  0  0  0  0
   24.4401  -20.0144   -9.7350 C   0  0  2  0  0  0  0  0  0  0  0  0
   24.1311  -20.9048  -10.8771 N   0  0  0  0  0  0  0  0  0  0  0  0
   24.7892  -20.5414  -12.0966 C   0  0  0  0  0  0  0  0  0  0  0  0
   22.6901  -21.2087  -11.0743 O   0  0  0  0  0  0  0  0  0  0  0  0
   22.1645  -20.8050  -12.1501 N   0  0  0  0  0  0  0  0  0  0  0  0
   21.8871  -21.9020  -10.1680 C   0  0  1  0  0  0  0  0  0  0  0  0
   20.4441  -22.1897  -10.4679 C   0  0  0  0  0  0  0  0  0  0  0  0
   20.0162  -22.9760   -9.2647 C   0  0  0  0  0  0  0  0  0  0  0  0
   18.6214  -23.4057   -9.1164 C   0  0  0  0  0  0  0  0  0  0  0  0
   18.2539  -24.2819   -8.0080 O   0  0  0  0  0  0  0  0  0  0  0  0
   19.1092  -24.6342   -7.1645 C   0  0  0  0  0  0  0  0  0  0  0  0
   19.7411  -20.8950  -10.5154 O   0  0  0  0  0  0  0  0  0  0  0  0
   20.0605  -19.8536   -9.9092 O   0  0  0  0  0  0  0  0  0  0  0  0
   16.9578  -24.7346   -7.8704 O   0  0  0  0  0  0  0  0  0  0  0  0
  2  1  1  0
  2  3  2  0
  4  2  1  0
  5  4  1  0
  6  5  1  0
  7  6  1  0
  8  7  1  0
  8  9  1  1
 10 17  1  0
 10  8  1  0
 11 10  2  0
 13 12  1  6
 14 13  1  0
 15 13  1  0
 16 15  1  1
 16 17  1  0
 18 16  1  0
 18 19  2  0
 20 18  1  0
 21 20  1  0
 21 26  1  0
 21 22  1  1
 23 22  1  0
 24 23  1  0
 25 24  2  0
 26 29  1  0
 27 26  2  0
 28 24  1  0
M  END
$$$$
