RLE.pdb
     RDKit          3D

 29 28  0  0  1  0  0  0  0  0999 V2000
   18.9316  -14.8804  -23.5847 N   0  0  0  0  0  0  0  0  0  0  0  0
   20.2336  -15.3611  -23.3151 C   0  0  0  0  0  0  0  0  0  0  0  0
   20.7542  -16.2363  -24.1053 N   0  0  0  0  0  0  0  0  0  0  0  0
   20.9645  -14.8905  -22.1912 N   0  0  0  0  0  0  0  0  0  0  0  0
   20.3120  -14.1299  -21.1495 C   0  0  0  0  0  0  0  0  0  0  0  0
   21.0980  -12.8475  -20.9054 C   0  0  0  0  0  0  0  0  0  0  0  0
   21.1902  -12.5587  -19.4277 C   0  0  0  0  0  0  0  0  0  0  0  0
   22.5880  -12.9180  -18.9511 C   0  0  2  0  0  0  0  0  0  0  0  0
   22.6579  -14.2869  -18.4955 N   0  0  0  0  0  0  0  0  0  0  0  0
   22.8991  -11.9593  -17.8426 C   0  0  0  0  0  0  0  0  0  0  0  0
   22.0494  -11.8263  -16.9230 O   0  0  0  0  0  0  0  0  0  0  0  0
   21.7251  -16.5544  -23.9903 C   0  0  0  0  0  0  0  0  0  0  0  0
   26.2101  -12.4644  -15.5790 C   0  0  2  0  0  0  0  0  0  0  0  0
   26.5830  -11.0294  -15.5942 C   0  0  0  0  0  0  0  0  0  0  0  0
   28.0988  -10.8792  -15.7558 C   0  0  0  0  0  0  0  0  0  0  0  0
   25.8620  -10.1420  -16.5202 C   0  0  2  0  0  0  0  0  0  0  0  0
   24.4144  -10.3550  -16.7480 N   0  0  0  0  0  0  0  0  0  0  0  0
   24.1174  -11.2305  -17.8424 C   0  0  0  0  0  0  0  0  0  0  0  0
   23.5849   -9.1224  -16.7612 O   0  0  0  0  0  0  0  0  0  0  0  0
   23.6923   -8.3738  -17.7734 N   0  0  0  0  0  0  0  0  0  0  0  0
   22.7046   -8.7394  -15.7486 C   0  0  1  0  0  0  0  0  0  0  0  0
   21.9362   -7.4518  -15.8308 C   0  0  0  0  0  0  0  0  0  0  0  0
   20.5178   -7.9293  -15.9248 C   0  0  0  0  0  0  0  0  0  0  0  0
   19.4052   -6.9843  -15.7787 C   0  0  0  0  0  0  0  0  0  0  0  0
   18.0365   -7.4893  -15.7251 O   0  0  0  0  0  0  0  0  0  0  0  0
   17.8067   -8.7164  -15.8167 C   0  0  0  0  0  0  0  0  0  0  0  0
   22.1554   -6.7305  -14.5641 O   0  0  0  0  0  0  0  0  0  0  0  0
   22.5259   -7.2258  -13.4818 O   0  0  0  0  0  0  0  0  0  0  0  0
   16.9737   -6.6230  -15.5704 O   0  0  0  0  0  0  0  0  0  0  0  0
  2  1  1  0
  2  3  2  0
  4  2  1  0
  5  4  1  0
  6  5  1  0
  7  6  1  0
  8  7  1  0
  8  9  1  1
 10 17  1  0
 10  8  1  0
 11 10  2  0
 13 12  1  1
 14 13  1  0
 15 13  1  0
 16 15  1  1
 16 17  1  0
 18 16  1  0
 18 19  2  0
 20 18  1  0
 21 20  1  0
 21 26  1  0
 21 22  1  1
 23 22  1  0
 24 23  1  0
 25 24  2  0
 26 29  1  0
 27 26  2  0
 28 24  1  0
M  END
$$$$
