RLE.pdb
     RDKit          3D

 29 28  0  0  1  0  0  0  0  0999 V2000
   26.2823  -20.1706  -16.5643 N   0  0  0  0  0  0  0  0  0  0  0  0
   27.5943  -19.7006  -16.3260 C   0  0  0  0  0  0  0  0  0  0  0  0
   28.1843  -19.0027  -17.2348 N   0  0  0  0  0  0  0  0  0  0  0  0
   28.2595  -19.9890  -15.1039 N   0  0  0  0  0  0  0  0  0  0  0  0
   27.5634  -20.6422  -14.0185 C   0  0  0  0  0  0  0  0  0  0  0  0
   27.2490  -19.6125  -12.9401 C   0  0  0  0  0  0  0  0  0  0  0  0
   25.7574  -19.4517  -12.7834 C   0  0  0  0  0  0  0  0  0  0  0  0
   25.1743  -20.7765  -12.3192 C   0  0  2  0  0  0  0  0  0  0  0  0
   26.1208  -21.8565  -12.4751 N   0  0  0  0  0  0  0  0  0  0  0  0
   23.9522  -20.9992  -13.1568 C   0  0  0  0  0  0  0  0  0  0  0  0
   24.0894  -21.6137  -14.2472 O   0  0  0  0  0  0  0  0  0  0  0  0
   29.1683  -18.7197  -17.1412 C   0  0  0  0  0  0  0  0  0  0  0  0
   19.7751  -23.9134  -12.0904 C   0  0  1  0  0  0  0  0  0  0  0  0
   20.8045  -23.0694  -12.7436 C   0  0  0  0  0  0  0  0  0  0  0  0
   21.2377  -23.6978  -14.0718 C   0  0  0  0  0  0  0  0  0  0  0  0
   20.5155  -21.6359  -12.9063 C   0  0  2  0  0  0  0  0  0  0  0  0
   21.5300  -20.7595  -13.5352 N   0  0  0  0  0  0  0  0  0  0  0  0
   22.6862  -20.5264  -12.7220 C   0  0  0  0  0  0  0  0  0  0  0  0
   21.0014  -19.5131  -14.1473 O   0  0  0  0  0  0  0  0  0  0  0  0
   20.8589  -18.5180  -13.3817 N   0  0  0  0  0  0  0  0  0  0  0  0
   20.6582  -19.3648  -15.4916 C   0  0  1  0  0  0  0  0  0  0  0  0
   20.0565  -18.0885  -16.0054 C   0  0  0  0  0  0  0  0  0  0  0  0
   20.6743  -17.9669  -17.3664 C   0  0  0  0  0  0  0  0  0  0  0  0
   22.0435  -17.4623  -17.5177 C   0  0  0  0  0  0  0  0  0  0  0  0
   22.6469  -17.4098  -18.8460 O   0  0  0  0  0  0  0  0  0  0  0  0
   23.8288  -17.0244  -18.9936 C   0  0  0  0  0  0  0  0  0  0  0  0
   18.6025  -18.3041  -16.1156 O   0  0  0  0  0  0  0  0  0  0  0  0
   17.7304  -17.4256  -16.2621 O   0  0  0  0  0  0  0  0  0  0  0  0
   21.9256  -17.7860  -19.9605 O   0  0  0  0  0  0  0  0  0  0  0  0
  2  1  1  0
  2  3  2  0
  4  2  1  0
  5  4  1  0
  6  5  1  0
  7  6  1  0
  8  7  1  0
  8  9  1  6
 10 17  1  0
 10  8  1  0
 11 10  2  0
 13 12  1  1
 14 13  1  0
 15 13  1  0
 16 15  1  6
 16 17  1  0
 18 16  1  0
 18 19  2  0
 20 18  1  0
 21 20  1  0
 21 26  1  0
 21 22  1  6
 23 22  1  0
 24 23  1  0
 25 24  2  0
 26 29  1  0
 27 26  2  0
 28 24  1  0
M  END
$$$$
