RLE.pdb
     RDKit          3D

 29 28  0  0  1  0  0  0  0  0999 V2000
   21.6808  -29.4548  -12.1675 N   0  0  0  0  0  0  0  0  0  0  0  0
   21.2962  -30.0183  -10.9291 C   0  0  0  0  0  0  0  0  0  0  0  0
   21.5903  -31.2487  -10.6826 N   0  0  0  0  0  0  0  0  0  0  0  0
   20.5955  -29.2452   -9.9645 N   0  0  0  0  0  0  0  0  0  0  0  0
   20.2514  -27.8665  -10.2291 C   0  0  0  0  0  0  0  0  0  0  0  0
   18.8176  -27.8025  -10.7410 C   0  0  0  0  0  0  0  0  0  0  0  0
   18.4483  -26.3845  -11.0988 C   0  0  0  0  0  0  0  0  0  0  0  0
   18.3129  -25.5815   -9.8153 C   0  0  2  0  0  0  0  0  0  0  0  0
   17.0947  -25.9080   -9.1111 N   0  0  0  0  0  0  0  0  0  0  0  0
   18.3316  -24.1424  -10.2315 C   0  0  0  0  0  0  0  0  0  0  0  0
   17.2395  -23.6110  -10.5635 O   0  0  0  0  0  0  0  0  0  0  0  0
   21.2890  -31.7100   -9.8146 C   0  0  0  0  0  0  0  0  0  0  0  0
   19.7349  -18.9463  -10.5663 C   0  0  2  0  0  0  0  0  0  0  0  0
   20.8550  -19.8858  -10.8139 C   0  0  0  0  0  0  0  0  0  0  0  0
   22.1764  -19.2670  -10.3475 C   0  0  0  0  0  0  0  0  0  0  0  0
   20.7153  -21.2660  -10.3234 C   0  0  1  0  0  0  0  0  0  0  0  0
   19.5689  -22.0843  -10.7804 N   0  0  0  0  0  0  0  0  0  0  0  0
   19.5498  -23.4136  -10.2465 C   0  0  0  0  0  0  0  0  0  0  0  0
   19.3081  -22.0524  -12.2428 O   0  0  0  0  0  0  0  0  0  0  0  0
   20.0652  -22.7533  -12.9723 N   0  0  0  0  0  0  0  0  0  0  0  0
   18.2972  -21.3143  -12.8594 C   0  0  1  0  0  0  0  0  0  0  0  0
   18.0903  -21.3676  -14.3458 C   0  0  0  0  0  0  0  0  0  0  0  0
   16.5993  -21.2620  -14.4669 C   0  0  0  0  0  0  0  0  0  0  0  0
   15.9647  -21.1964  -15.7879 C   0  0  0  0  0  0  0  0  0  0  0  0
   14.5106  -21.1064  -15.8824 O   0  0  0  0  0  0  0  0  0  0  0  0
   13.9454  -21.0860  -16.9992 C   0  0  0  0  0  0  0  0  0  0  0  0
   18.7408  -20.1762  -14.9205 O   0  0  0  0  0  0  0  0  0  0  0  0
   18.8334  -19.0519  -14.3901 O   0  0  0  0  0  0  0  0  0  0  0  0
   13.7352  -21.0446  -14.7428 O   0  0  0  0  0  0  0  0  0  0  0  0
  2  1  1  0
  2  3  2  0
  4  2  1  0
  5  4  1  0
  6  5  1  0
  7  6  1  0
  8  7  1  0
  8  9  1  6
 10 17  1  0
 10  8  1  0
 11 10  2  0
 13 12  1  6
 14 13  1  0
 15 13  1  0
 16 15  1  1
 16 17  1  0
 18 16  1  0
 18 19  2  0
 20 18  1  0
 21 20  1  0
 21 26  1  0
 21 22  1  6
 23 22  1  0
 24 23  1  0
 25 24  2  0
 26 29  1  0
 27 26  2  0
 28 24  1  0
M  END
$$$$
