RLE.pdb
     RDKit          3D

 29 28  0  0  1  0  0  0  0  0999 V2000
   26.9810  -21.2342  -20.8772 N   0  0  0  0  0  0  0  0  0  0  0  0
   26.3266  -19.9820  -20.9297 C   0  0  0  0  0  0  0  0  0  0  0  0
   25.6228  -19.6862  -21.9681 N   0  0  0  0  0  0  0  0  0  0  0  0
   26.4379  -19.0576  -19.8564 N   0  0  0  0  0  0  0  0  0  0  0  0
   27.1056  -19.4259  -18.6284 C   0  0  0  0  0  0  0  0  0  0  0  0
   26.2085  -20.3730  -17.8409 C   0  0  0  0  0  0  0  0  0  0  0  0
   25.7480  -19.7208  -16.5611 C   0  0  0  0  0  0  0  0  0  0  0  0
   26.5205  -20.3303  -15.4026 C   0  0  2  0  0  0  0  0  0  0  0  0
   27.4551  -21.3335  -15.8573 N   0  0  0  0  0  0  0  0  0  0  0  0
   25.4887  -20.9214  -14.4913 C   0  0  0  0  0  0  0  0  0  0  0  0
   24.8393  -21.9178  -14.9046 O   0  0  0  0  0  0  0  0  0  0  0  0
   25.1957  -18.7579  -22.0816 C   0  0  0  0  0  0  0  0  0  0  0  0
   25.8237  -20.4521   -8.8953 C   0  0  1  0  0  0  0  0  0  0  0  0
   25.6486  -20.8776  -10.3049 C   0  0  0  0  0  0  0  0  0  0  0  0
   26.0470  -22.3479  -10.4662 C   0  0  0  0  0  0  0  0  0  0  0  0
   24.3533  -20.6071  -10.9483 C   0  0  2  0  0  0  0  0  0  0  0  0
   24.1941  -20.8741  -12.3961 N   0  0  0  0  0  0  0  0  0  0  0  0
   25.2611  -20.3649  -13.2053 C   0  0  0  0  0  0  0  0  0  0  0  0
   22.8537  -20.5624  -12.9563 O   0  0  0  0  0  0  0  0  0  0  0  0
   22.6399  -19.3624  -13.2890 N   0  0  0  0  0  0  0  0  0  0  0  0
   21.8281  -21.4903  -13.1410 C   0  0  1  0  0  0  0  0  0  0  0  0
   20.4847  -21.0719  -13.6654 C   0  0  0  0  0  0  0  0  0  0  0  0
   20.2240  -22.0924  -14.7329 C   0  0  0  0  0  0  0  0  0  0  0  0
   19.5161  -21.7171  -15.9617 C   0  0  0  0  0  0  0  0  0  0  0  0
   19.2925  -22.7217  -16.9971 O   0  0  0  0  0  0  0  0  0  0  0  0
   19.6094  -23.9172  -16.8031 C   0  0  0  0  0  0  0  0  0  0  0  0
   19.5190  -21.2207  -12.5618 O   0  0  0  0  0  0  0  0  0  0  0  0
   19.6855  -21.8720  -11.5120 O   0  0  0  0  0  0  0  0  0  0  0  0
   18.7263  -22.3712  -18.2055 O   0  0  0  0  0  0  0  0  0  0  0  0
  2  1  1  0
  2  3  2  0
  4  2  1  0
  5  4  1  0
  6  5  1  0
  7  6  1  0
  8  7  1  0
  8  9  1  6
 10 17  1  0
 10  8  1  0
 11 10  2  0
 13 12  1  6
 14 13  1  0
 15 13  1  0
 16 15  1  1
 16 17  1  0
 18 16  1  0
 18 19  2  0
 20 18  1  0
 21 20  1  0
 21 26  1  0
 21 22  1  1
 23 22  1  0
 24 23  1  0
 25 24  2  0
 26 29  1  0
 27 26  2  0
 28 24  1  0
M  END
$$$$
