RLE.pdb
     RDKit          3D

 29 28  0  0  1  0  0  0  0  0999 V2000
   29.5063  -23.6801  -16.8185 N   0  0  0  0  0  0  0  0  0  0  0  0
   29.2036  -23.7100  -18.1992 C   0  0  0  0  0  0  0  0  0  0  0  0
   29.8456  -24.5252  -18.9637 N   0  0  0  0  0  0  0  0  0  0  0  0
   28.2064  -22.8566  -18.7439 N   0  0  0  0  0  0  0  0  0  0  0  0
   27.2279  -22.2223  -17.8899 C   0  0  0  0  0  0  0  0  0  0  0  0
   26.8613  -23.1778  -16.7609 C   0  0  0  0  0  0  0  0  0  0  0  0
   25.7427  -22.6043  -15.9271 C   0  0  0  0  0  0  0  0  0  0  0  0
   25.4771  -23.5440  -14.7623 C   0  0  2  0  0  0  0  0  0  0  0  0
   24.9535  -24.8126  -15.2126 N   0  0  0  0  0  0  0  0  0  0  0  0
   24.4963  -22.8327  -13.8809 C   0  0  0  0  0  0  0  0  0  0  0  0
   23.2934  -23.2029  -13.9195 O   0  0  0  0  0  0  0  0  0  0  0  0
   29.6797  -24.5548  -19.9779 C   0  0  0  0  0  0  0  0  0  0  0  0
   26.0763  -20.1717   -9.1473 C   0  0  1  0  0  0  0  0  0  0  0  0
   25.3011  -20.9875  -10.1128 C   0  0  0  0  0  0  0  0  0  0  0  0
   24.4288  -22.0018   -9.3665 C   0  0  0  0  0  0  0  0  0  0  0  0
   24.5251  -20.2796  -11.1431 C   0  0  2  0  0  0  0  0  0  0  0  0
   23.9540  -21.0463  -12.2739 N   0  0  0  0  0  0  0  0  0  0  0  0
   24.9241  -21.7764  -13.0344 C   0  0  0  0  0  0  0  0  0  0  0  0
   23.0010  -20.2970  -13.1330 O   0  0  0  0  0  0  0  0  0  0  0  0
   23.4936  -19.4300  -13.9091 N   0  0  0  0  0  0  0  0  0  0  0  0
   21.6181  -20.4827  -13.1449 C   0  0  1  0  0  0  0  0  0  0  0  0
   20.7261  -19.6343  -14.0049 C   0  0  0  0  0  0  0  0  0  0  0  0
   20.0946  -20.6483  -14.9116 C   0  0  0  0  0  0  0  0  0  0  0  0
   20.8877  -21.3062  -15.9558 C   0  0  0  0  0  0  0  0  0  0  0  0
   20.2405  -22.2521  -16.8602 O   0  0  0  0  0  0  0  0  0  0  0  0
   19.0198  -22.5058  -16.7488 C   0  0  0  0  0  0  0  0  0  0  0  0
   19.7130  -19.0300  -13.1210 O   0  0  0  0  0  0  0  0  0  0  0  0
   19.5530  -19.2626  -11.9068 O   0  0  0  0  0  0  0  0  0  0  0  0
   20.9628  -22.8803  -17.8539 O   0  0  0  0  0  0  0  0  0  0  0  0
  2  1  1  0
  2  3  2  0
  4  2  1  0
  5  4  1  0
  6  5  1  0
  7  6  1  0
  8  7  1  0
  8  9  1  6
 10 17  1  0
 10  8  1  0
 11 10  2  0
 13 12  1  6
 14 13  1  0
 15 13  1  0
 16 15  1  1
 16 17  1  0
 18 16  1  0
 18 19  2  0
 20 18  1  0
 21 20  1  0
 21 26  1  0
 21 22  1  6
 23 22  1  0
 24 23  1  0
 25 24  2  0
 26 29  1  0
 27 26  2  0
 28 24  1  0
M  END
$$$$
