RLE.pdb
     RDKit          3D

 29 28  0  0  1  0  0  0  0  0999 V2000
   28.0758  -28.0900  -18.4066 N   0  0  0  0  0  0  0  0  0  0  0  0
   28.1550  -27.6737  -17.0577 C   0  0  0  0  0  0  0  0  0  0  0  0
   29.2590  -27.8415  -16.4142 N   0  0  0  0  0  0  0  0  0  0  0  0
   27.0375  -27.0774  -16.4137 N   0  0  0  0  0  0  0  0  0  0  0  0
   25.7801  -26.9190  -17.1090 C   0  0  0  0  0  0  0  0  0  0  0  0
   25.5408  -25.4368  -17.3694 C   0  0  0  0  0  0  0  0  0  0  0  0
   25.5043  -24.6723  -16.0696 C   0  0  0  0  0  0  0  0  0  0  0  0
   25.2355  -23.2082  -16.3771 C   0  0  2  0  0  0  0  0  0  0  0  0
   26.4263  -22.5365  -16.8432 N   0  0  0  0  0  0  0  0  0  0  0  0
   24.7381  -22.6081  -15.0975 C   0  0  0  0  0  0  0  0  0  0  0  0
   23.6437  -23.0270  -14.6368 O   0  0  0  0  0  0  0  0  0  0  0  0
   29.3792  -27.4960  -15.4534 C   0  0  0  0  0  0  0  0  0  0  0  0
   28.2574  -20.1075  -11.4651 C   0  0  1  0  0  0  0  0  0  0  0  0
   27.1724  -20.9229  -12.0623 C   0  0  0  0  0  0  0  0  0  0  0  0
   26.8691  -22.1319  -11.1718 C   0  0  0  0  0  0  0  0  0  0  0  0
   25.9340  -20.2343  -12.4587 C   0  0  2  0  0  0  0  0  0  0  0  0
   24.9365  -20.9549  -13.2822 N   0  0  0  0  0  0  0  0  0  0  0  0
   25.4877  -21.5998  -14.4367 C   0  0  0  0  0  0  0  0  0  0  0  0
   23.6975  -20.1946  -13.5897 O   0  0  0  0  0  0  0  0  0  0  0  0
   23.8293  -19.1459  -14.2820 N   0  0  0  0  0  0  0  0  0  0  0  0
   22.4145  -20.5539  -13.1752 C   0  0  1  0  0  0  0  0  0  0  0  0
   21.2109  -19.7569  -13.5890 C   0  0  0  0  0  0  0  0  0  0  0  0
   21.1592  -19.9972  -15.0683 C   0  0  0  0  0  0  0  0  0  0  0  0
   21.0204  -18.8716  -15.9988 C   0  0  0  0  0  0  0  0  0  0  0  0
   20.9659  -19.1294  -17.4347 O   0  0  0  0  0  0  0  0  0  0  0  0
   20.9460  -20.3028  -17.8705 C   0  0  0  0  0  0  0  0  0  0  0  0
   20.0396  -20.3587  -12.9267 O   0  0  0  0  0  0  0  0  0  0  0  0
   18.9469  -19.8028  -12.7011 O   0  0  0  0  0  0  0  0  0  0  0  0
   20.9331  -18.0845  -18.3353 O   0  0  0  0  0  0  0  0  0  0  0  0
  2  1  1  0
  2  3  2  0
  4  2  1  0
  5  4  1  0
  6  5  1  0
  7  6  1  0
  8  7  1  0
  8  9  1  1
 10 17  1  0
 10  8  1  0
 11 10  2  0
 13 12  1  6
 14 13  1  0
 15 13  1  0
 16 15  1  1
 16 17  1  0
 18 16  1  0
 18 19  2  0
 20 18  1  0
 21 20  1  0
 21 26  1  0
 21 22  1  1
 23 22  1  0
 24 23  1  0
 25 24  2  0
 26 29  1  0
 27 26  2  0
 28 24  1  0
M  END
$$$$
