RLE.pdb
     RDKit          3D

 29 28  0  0  1  0  0  0  0  0999 V2000
   28.3480  -21.8400  -16.4667 N   0  0  0  0  0  0  0  0  0  0  0  0
   27.7380  -22.7639  -17.3461 C   0  0  0  0  0  0  0  0  0  0  0  0
   28.3723  -23.8405  -17.6620 N   0  0  0  0  0  0  0  0  0  0  0  0
   26.4437  -22.5165  -17.8777 N   0  0  0  0  0  0  0  0  0  0  0  0
   25.7328  -21.2989  -17.5588 C   0  0  0  0  0  0  0  0  0  0  0  0
   25.9377  -20.9769  -16.0836 C   0  0  0  0  0  0  0  0  0  0  0  0
   25.1721  -21.9486  -15.2205 C   0  0  0  0  0  0  0  0  0  0  0  0
   23.8159  -21.3434  -14.8970 C   0  0  2  0  0  0  0  0  0  0  0  0
   23.8425  -19.9021  -14.9886 N   0  0  0  0  0  0  0  0  0  0  0  0
   23.4904  -21.7941  -13.5057 C   0  0  0  0  0  0  0  0  0  0  0  0
   23.4967  -23.0311  -13.2706 O   0  0  0  0  0  0  0  0  0  0  0  0
   27.9724  -24.5290  -18.3125 C   0  0  0  0  0  0  0  0  0  0  0  0
   25.2764  -19.2878   -8.8979 C   0  0  1  0  0  0  0  0  0  0  0  0
   24.8097  -20.2631   -9.9127 C   0  0  0  0  0  0  0  0  0  0  0  0
   25.4934  -21.6169   -9.6977 C   0  0  0  0  0  0  0  0  0  0  0  0
   23.3584  -20.4262  -10.0923 C   0  0  2  0  0  0  0  0  0  0  0  0
   22.8568  -21.3006  -11.1770 N   0  0  0  0  0  0  0  0  0  0  0  0
   23.1863  -20.8450  -12.4948 C   0  0  0  0  0  0  0  0  0  0  0  0
   21.4348  -21.7134  -11.0543 O   0  0  0  0  0  0  0  0  0  0  0  0
   20.6660  -21.3997  -12.0068 N   0  0  0  0  0  0  0  0  0  0  0  0
   20.8957  -22.4164   -9.9764 C   0  0  1  0  0  0  0  0  0  0  0  0
   19.4208  -22.6811   -9.8787 C   0  0  0  0  0  0  0  0  0  0  0  0
   19.3142  -23.4343   -8.5863 C   0  0  0  0  0  0  0  0  0  0  0  0
   18.0091  -23.8984   -8.1032 C   0  0  0  0  0  0  0  0  0  0  0  0
   17.9370  -24.6925   -6.8803 O   0  0  0  0  0  0  0  0  0  0  0  0
   18.9749  -24.9624   -6.2345 C   0  0  0  0  0  0  0  0  0  0  0  0
   18.7484  -21.3738   -9.7716 O   0  0  0  0  0  0  0  0  0  0  0  0
   19.2238  -20.3321   -9.2789 O   0  0  0  0  0  0  0  0  0  0  0  0
   16.7239  -25.1567   -6.4146 O   0  0  0  0  0  0  0  0  0  0  0  0
  2  1  1  0
  2  3  2  0
  4  2  1  0
  5  4  1  0
  6  5  1  0
  7  6  1  0
  8  7  1  0
  8  9  1  1
 10 17  1  0
 10  8  1  0
 11 10  2  0
 13 12  1  6
 14 13  1  0
 15 13  1  0
 16 15  1  1
 16 17  1  0
 18 16  1  0
 18 19  2  0
 20 18  1  0
 21 20  1  0
 21 26  1  0
 21 22  1  1
 23 22  1  0
 24 23  1  0
 25 24  2  0
 26 29  1  0
 27 26  2  0
 28 24  1  0
M  END
$$$$
