RLE.pdb
     RDKit          3D

 29 28  0  0  1  0  0  0  0  0999 V2000
   20.9379  -27.3169  -13.0785 N   0  0  0  0  0  0  0  0  0  0  0  0
   19.8157  -27.2605  -13.9367 C   0  0  0  0  0  0  0  0  0  0  0  0
   19.0413  -28.2871  -14.0235 N   0  0  0  0  0  0  0  0  0  0  0  0
   19.5386  -26.0917  -14.6958 N   0  0  0  0  0  0  0  0  0  0  0  0
   20.3426  -24.9006  -14.5410 C   0  0  0  0  0  0  0  0  0  0  0  0
   19.4556  -23.6757  -14.7277 C   0  0  0  0  0  0  0  0  0  0  0  0
   20.2716  -22.4119  -14.6168 C   0  0  0  0  0  0  0  0  0  0  0  0
   20.8002  -22.3008  -13.1960 C   0  0  2  0  0  0  0  0  0  0  0  0
   19.7592  -21.9169  -12.2711 N   0  0  0  0  0  0  0  0  0  0  0  0
   21.8894  -21.2733  -13.2460 C   0  0  0  0  0  0  0  0  0  0  0  0
   21.5555  -20.0673  -13.3861 O   0  0  0  0  0  0  0  0  0  0  0  0
   18.2275  -28.2952  -14.6517 C   0  0  0  0  0  0  0  0  0  0  0  0
   26.6845  -21.6096  -10.4071 C   0  0  1  0  0  0  0  0  0  0  0  0
   25.4529  -21.1680  -11.1048 C   0  0  0  0  0  0  0  0  0  0  0  0
   24.8628  -19.9384  -10.4073 C   0  0  0  0  0  0  0  0  0  0  0  0
   25.5224  -20.9675  -12.5608 C   0  0  2  0  0  0  0  0  0  0  0  0
   24.2793  -20.6803  -13.3124 N   0  0  0  0  0  0  0  0  0  0  0  0
   23.2505  -21.6618  -13.1378 C   0  0  0  0  0  0  0  0  0  0  0  0
   24.4707  -20.3004  -14.7360 O   0  0  0  0  0  0  0  0  0  0  0  0
   24.5617  -21.2448  -15.5706 N   0  0  0  0  0  0  0  0  0  0  0  0
   24.5534  -18.9910  -15.2107 C   0  0  1  0  0  0  0  0  0  0  0  0
   24.6922  -18.7019  -16.6778 C   0  0  0  0  0  0  0  0  0  0  0  0
   24.1884  -17.2929  -16.7770 C   0  0  0  0  0  0  0  0  0  0  0  0
   24.2550  -16.5688  -18.0511 C   0  0  0  0  0  0  0  0  0  0  0  0
   23.6707  -15.2346  -18.1501 O   0  0  0  0  0  0  0  0  0  0  0  0
   23.0945  -14.7174  -17.1665 C   0  0  0  0  0  0  0  0  0  0  0  0
   26.1292  -18.7605  -17.0007 O   0  0  0  0  0  0  0  0  0  0  0  0
   27.0761  -18.5834  -16.2095 O   0  0  0  0  0  0  0  0  0  0  0  0
   23.7457  -14.5206  -19.3285 O   0  0  0  0  0  0  0  0  0  0  0  0
  2  1  1  0
  2  3  2  0
  4  2  1  0
  5  4  1  0
  6  5  1  0
  7  6  1  0
  8  7  1  0
  8  9  1  1
 10 17  1  0
 10  8  1  0
 11 10  2  0
 13 12  1  1
 14 13  1  0
 15 13  1  0
 16 15  1  1
 16 17  1  0
 18 16  1  0
 18 19  2  0
 20 18  1  0
 21 20  1  0
 21 26  1  0
 21 22  1  6
 23 22  1  0
 24 23  1  0
 25 24  2  0
 26 29  1  0
 27 26  2  0
 28 24  1  0
M  END
$$$$
