RRY.pdb
     RDKit          3D

 35 35  0  0  1  0  0  0  0  0999 V2000
    0.0705  -18.8576   22.7845 N   0  0  0  0  0  0  0  0  0  0  0  0
    0.2521  -20.2750   22.8971 C   0  0  0  0  0  0  0  0  0  0  0  0
   -0.7224  -21.0374   23.2659 N   0  0  0  0  0  0  0  0  0  0  0  0
    1.4994  -20.8795   22.6080 N   0  0  0  0  0  0  0  0  0  0  0  0
    2.7317  -20.1203   22.3818 C   0  0  0  0  0  0  0  0  0  0  0  0
    3.3913  -19.7946   23.6970 C   0  0  0  0  0  0  0  0  0  0  0  0
    4.6949  -19.0873   23.5950 C   0  0  0  0  0  0  0  0  0  0  0  0
    5.3930  -19.1682   22.2723 C   0  0  2  0  0  0  0  0  0  0  0  0
    5.9654  -20.4565   21.9889 N   0  0  0  0  0  0  0  0  0  0  0  0
    6.5543  -18.1922   22.3429 C   0  0  0  0  0  0  0  0  0  0  0  0
    7.6387  -18.5566   22.8632 O   0  0  0  0  0  0  0  0  0  0  0  0
   -0.6001  -22.0449   23.4124 N   0  0  0  0  0  0  0  0  0  0  0  0
    7.8893  -11.7360   16.5933 C   0  0  0  0  0  0  0  0  0  0  0  0
    7.6512  -13.1186   16.2240 N   0  0  0  0  0  0  0  0  0  0  0  0
    7.6824  -13.4575   14.9868 N   0  0  0  0  0  0  0  0  0  0  0  0
    7.3880  -14.0787   17.2249 C   0  0  0  0  0  0  0  0  0  0  0  0
    7.4871  -13.7654   18.6179 C   0  0  0  0  0  0  0  0  0  0  0  0
    7.0102  -14.9845   19.4179 C   0  0  0  0  0  0  0  0  0  0  0  0
    7.0917  -14.6853   20.8764 C   0  0  2  0  0  0  0  0  0  0  0  0
    7.3520  -15.8349   21.7956 N   0  0  0  0  0  0  0  0  0  0  0  0
    6.4045  -16.8863   21.8236 C   0  0  0  0  0  0  0  0  0  0  0  0
    7.8890  -15.4336   23.1152 O   0  0  0  0  0  0  0  0  0  0  0  0
    7.0875  -14.8032   23.8705 O   0  0  0  0  0  0  0  0  0  0  0  0
    7.6675  -14.4468   14.7094 C   0  0  0  0  0  0  0  0  0  0  0  0
   10.6349  -15.3531   31.0780 C   0  0  0  0  0  0  0  0  0  0  0  0
   10.1843  -15.4937   29.7700 C   0  0  0  0  0  0  0  0  0  0  0  0
    9.7930  -14.4109   29.0015 C   0  0  0  0  0  0  0  0  0  0  0  0
    9.3475  -14.5268   27.7153 C   0  0  0  0  0  0  0  0  0  0  0  0
    9.2865  -15.7974   27.1573 C   0  0  1  0  0  0  0  0  0  0  0  0
    8.8046  -15.9170   25.7792 N   0  0  0  0  0  0  0  0  0  0  0  0
    9.7385  -15.3999   24.7347 C   0  0  0  0  0  0  0  0  0  0  0  0
    9.2120  -15.7627   23.4435 O   0  0  0  0  0  0  0  0  0  0  0  0
   11.1248  -15.8585   24.8439 C   0  0  0  0  0  0  0  0  0  0  0  0
   11.5231  -16.8327   24.1631 C   0  0  0  0  0  0  0  0  0  0  0  0
    9.6631  -16.8990   27.8790 O   0  0  0  0  0  0  0  0  0  0  0  0
  2  3  2  0
  2  1  1  0
  4  2  1  0
  5  4  1  0
  6  5  1  0
  7  8  1  0
  7  6  1  0
  8 10  1  0
  8  9  1  1
 10 11  2  0
 13 15  1  0
 13 12  1  0
 14 13  2  0
 16 15  1  0
 17 16  1  0
 17 18  1  0
 19 18  1  6
 20 10  1  0
 20 19  1  0
 21 19  1  0
 21 30  1  0
 22 21  2  0
 23 24  1  0
 24 25  2  0
 25 26  1  0
 27 28  1  0
 27 26  2  0
 29 31  1  0
 29 30  1  0
 29 28  1  6
 31 35  1  0
 32 31  2  0
 33 27  1  0
 34 33  2  0
 34 24  1  0
M  END
$$$$
