RRY.pdb
     RDKit          3D

 35 35  0  0  1  0  0  0  0  0999 V2000
    7.5644  -15.3248   15.7854 N   0  0  0  0  0  0  0  0  0  0  0  0
    8.3580  -14.1555   15.5452 C   0  0  0  0  0  0  0  0  0  0  0  0
    8.5889  -13.7510   14.3411 N   0  0  0  0  0  0  0  0  0  0  0  0
    8.9098  -13.4114   16.6160 N   0  0  0  0  0  0  0  0  0  0  0  0
    8.0992  -12.6886   17.5993 C   0  0  0  0  0  0  0  0  0  0  0  0
    7.1076  -13.6225   18.2439 C   0  0  0  0  0  0  0  0  0  0  0  0
    7.5758  -14.2829   19.4908 C   0  0  0  0  0  0  0  0  0  0  0  0
    7.8095  -15.7604   19.4127 C   0  0  2  0  0  0  0  0  0  0  0  0
    6.6593  -16.5148   18.9939 N   0  0  0  0  0  0  0  0  0  0  0  0
    8.1270  -16.2169   20.8258 C   0  0  0  0  0  0  0  0  0  0  0  0
    7.3252  -15.9527   21.7568 O   0  0  0  0  0  0  0  0  0  0  0  0
    9.2178  -12.9662   14.1414 N   0  0  0  0  0  0  0  0  0  0  0  0
   13.0823  -20.6635   26.0395 C   0  0  0  0  0  0  0  0  0  0  0  0
   13.9181  -20.1598   24.9661 N   0  0  0  0  0  0  0  0  0  0  0  0
   15.1331  -19.8286   25.2123 N   0  0  0  0  0  0  0  0  0  0  0  0
   13.3912  -20.0383   23.6621 C   0  0  0  0  0  0  0  0  0  0  0  0
   12.0407  -20.3999   23.3556 C   0  0  0  0  0  0  0  0  0  0  0  0
   11.1508  -19.1729   23.5928 C   0  0  0  0  0  0  0  0  0  0  0  0
   10.7036  -18.6217   22.2816 C   0  0  2  0  0  0  0  0  0  0  0  0
    9.8032  -17.4290   22.3138 N   0  0  0  0  0  0  0  0  0  0  0  0
    9.3187  -16.9333   21.0795 C   0  0  0  0  0  0  0  0  0  0  0  0
   10.2158  -16.3965   23.2907 O   0  0  0  0  0  0  0  0  0  0  0  0
   10.6329  -15.3038   22.7983 O   0  0  0  0  0  0  0  0  0  0  0  0
   15.7512  -19.4921   24.4636 C   0  0  0  0  0  0  0  0  0  0  0  0
    6.1166  -11.0576   28.2886 C   0  0  0  0  0  0  0  0  0  0  0  0
    6.6985  -12.0340   27.4875 C   0  0  0  0  0  0  0  0  0  0  0  0
    5.9472  -12.8924   26.7033 C   0  0  0  0  0  0  0  0  0  0  0  0
    6.4984  -13.8581   25.9096 C   0  0  0  0  0  0  0  0  0  0  0  0
    7.8821  -13.9790   25.8937 C   0  0  2  0  0  0  0  0  0  0  0  0
    8.4683  -15.0183   25.0440 N   0  0  0  0  0  0  0  0  0  0  0  0
    9.7158  -15.6430   25.5769 C   0  0  0  0  0  0  0  0  0  0  0  0
   10.1254  -16.6775   24.6615 O   0  0  0  0  0  0  0  0  0  0  0  0
    9.6172  -16.1971   26.9287 C   0  0  0  0  0  0  0  0  0  0  0  0
    9.0672  -17.3076   27.1173 C   0  0  0  0  0  0  0  0  0  0  0  0
    8.6671  -13.1522   26.6529 O   0  0  0  0  0  0  0  0  0  0  0  0
  2  3  2  0
  2  1  1  0
  4  2  1  0
  5  4  1  0
  6  5  1  0
  7  8  1  0
  7  6  1  0
  8 10  1  0
  8  9  1  1
 10 11  2  0
 13 15  1  0
 13 12  1  0
 14 13  2  0
 16 15  1  0
 17 16  1  0
 17 18  1  0
 19 18  1  1
 20 10  1  0
 20 19  1  0
 21 19  1  0
 21 30  1  0
 22 21  2  0
 23 24  1  0
 24 25  2  0
 25 26  1  0
 27 28  1  0
 27 26  2  0
 29 31  1  0
 29 30  1  0
 29 28  1  1
 31 35  1  0
 32 31  2  0
 33 27  1  0
 34 33  2  0
 34 24  1  0
M  END
$$$$
