RRY.pdb
     RDKit          3D

 35 35  0  0  1  0  0  0  0  0999 V2000
    9.9242  -13.9382   20.0067 N   0  0  0  0  0  0  0  0  0  0  0  0
    8.8760  -13.0100   19.6996 C   0  0  0  0  0  0  0  0  0  0  0  0
    9.1428  -11.7700   19.4584 N   0  0  0  0  0  0  0  0  0  0  0  0
    7.5224  -13.4226   19.6507 N   0  0  0  0  0  0  0  0  0  0  0  0
    7.0567  -14.7237   20.1373 C   0  0  0  0  0  0  0  0  0  0  0  0
    6.6527  -14.6236   21.5856 C   0  0  0  0  0  0  0  0  0  0  0  0
    7.2961  -15.6094   22.4934 C   0  0  0  0  0  0  0  0  0  0  0  0
    7.3780  -17.0188   21.9928 C   0  0  2  0  0  0  0  0  0  0  0  0
    6.1098  -17.6936   21.9300 N   0  0  0  0  0  0  0  0  0  0  0  0
    8.2170  -17.7817   23.0028 C   0  0  0  0  0  0  0  0  0  0  0  0
    8.0925  -19.0288   23.0954 O   0  0  0  0  0  0  0  0  0  0  0  0
    8.4061  -11.0780   19.2863 N   0  0  0  0  0  0  0  0  0  0  0  0
   11.1047  -22.5647   22.8434 C   0  0  0  0  0  0  0  0  0  0  0  0
   12.2987  -21.8337   22.4631 N   0  0  0  0  0  0  0  0  0  0  0  0
   13.2794  -22.4606   21.9232 N   0  0  0  0  0  0  0  0  0  0  0  0
   12.3732  -20.4421   22.6886 C   0  0  0  0  0  0  0  0  0  0  0  0
   13.2201  -19.8840   23.6984 C   0  0  0  0  0  0  0  0  0  0  0  0
   12.3622  -18.9885   24.6015 C   0  0  0  0  0  0  0  0  0  0  0  0
   11.1721  -18.5097   23.8414 C   0  0  1  0  0  0  0  0  0  0  0  0
   10.2296  -17.5946   24.5545 N   0  0  0  0  0  0  0  0  0  0  0  0
    9.1281  -17.0830   23.8271 C   0  0  0  0  0  0  0  0  0  0  0  0
   10.9015  -16.6247   25.4481 O   0  0  0  0  0  0  0  0  0  0  0  0
   12.1462  -16.8014   25.6207 O   0  0  0  0  0  0  0  0  0  0  0  0
   14.1779  -21.9914   21.7545 C   0  0  0  0  0  0  0  0  0  0  0  0
    5.7802  -11.4336   25.0671 C   0  0  0  0  0  0  0  0  0  0  0  0
    6.5194  -12.3730   25.7778 C   0  0  0  0  0  0  0  0  0  0  0  0
    7.6496  -12.0325   26.5007 C   0  0  0  0  0  0  0  0  0  0  0  0
    8.3898  -12.9391   27.2053 C   0  0  0  0  0  0  0  0  0  0  0  0
    7.9822  -14.2670   27.1910 C   0  0  2  0  0  0  0  0  0  0  0  0
    8.7811  -15.2360   27.9449 N   0  0  0  0  0  0  0  0  0  0  0  0
   10.1837  -15.4120   27.4627 C   0  0  0  0  0  0  0  0  0  0  0  0
   10.1464  -15.5989   26.0345 O   0  0  0  0  0  0  0  0  0  0  0  0
   10.9310  -16.5093   28.0802 C   0  0  0  0  0  0  0  0  0  0  0  0
   11.1051  -17.5834   27.4579 C   0  0  0  0  0  0  0  0  0  0  0  0
    6.8701  -14.6516   26.4898 O   0  0  0  0  0  0  0  0  0  0  0  0
  2  3  2  0
  2  1  1  0
  4  2  1  0
  5  4  1  0
  6  5  1  0
  7  8  1  0
  7  6  1  0
  8 10  1  0
  8  9  1  1
 10 11  2  0
 13 15  1  0
 13 12  1  0
 14 13  2  0
 16 15  1  0
 17 16  1  0
 17 18  1  0
 19 18  1  1
 20 10  1  0
 20 19  1  0
 21 19  1  0
 21 30  1  0
 22 21  2  0
 23 24  1  0
 24 25  2  0
 25 26  1  0
 27 28  1  0
 27 26  2  0
 29 31  1  0
 29 30  1  0
 29 28  1  1
 31 35  1  0
 32 31  2  0
 33 27  1  0
 34 33  2  0
 34 24  1  0
M  END
$$$$
