RRY.pdb
     RDKit          3D

 35 35  0  0  1  0  0  0  0  0999 V2000
    6.4942  -19.7681   28.2209 N   0  0  0  0  0  0  0  0  0  0  0  0
    7.3377  -20.8115   27.7162 C   0  0  0  0  0  0  0  0  0  0  0  0
    7.4048  -21.9531   28.3155 N   0  0  0  0  0  0  0  0  0  0  0  0
    8.1187  -20.6233   26.5503 N   0  0  0  0  0  0  0  0  0  0  0  0
    7.7285  -19.7367   25.4513 C   0  0  0  0  0  0  0  0  0  0  0  0
    6.2347  -19.7753   25.2565 C   0  0  0  0  0  0  0  0  0  0  0  0
    5.7032  -18.8333   24.2367 C   0  0  0  0  0  0  0  0  0  0  0  0
    6.0204  -19.1525   22.8080 C   0  0  2  0  0  0  0  0  0  0  0  0
    6.6417  -20.4352   22.6175 N   0  0  0  0  0  0  0  0  0  0  0  0
    7.0340  -18.1166   22.3548 C   0  0  0  0  0  0  0  0  0  0  0  0
    8.2017  -18.4787   22.0637 O   0  0  0  0  0  0  0  0  0  0  0  0
    8.0276  -22.7013   27.9935 N   0  0  0  0  0  0  0  0  0  0  0  0
    7.8510  -12.9611   16.2831 C   0  0  0  0  0  0  0  0  0  0  0  0
    8.6339  -13.9510   16.9986 N   0  0  0  0  0  0  0  0  0  0  0  0
    9.3646  -14.7757   16.3412 N   0  0  0  0  0  0  0  0  0  0  0  0
    8.5868  -13.9998   18.4087 C   0  0  0  0  0  0  0  0  0  0  0  0
    7.6354  -13.2392   19.1603 C   0  0  0  0  0  0  0  0  0  0  0  0
    7.8745  -13.5121   20.6509 C   0  0  0  0  0  0  0  0  0  0  0  0
    6.9227  -14.5577   21.1242 C   0  0  2  0  0  0  0  0  0  0  0  0
    7.4715  -15.6302   22.0090 N   0  0  0  0  0  0  0  0  0  0  0  0
    6.6549  -16.7579   22.2648 C   0  0  0  0  0  0  0  0  0  0  0  0
    8.2199  -15.1145   23.1772 O   0  0  0  0  0  0  0  0  0  0  0  0
    7.7086  -14.1121   23.7636 O   0  0  0  0  0  0  0  0  0  0  0  0
    9.8944  -15.5126   16.8231 C   0  0  0  0  0  0  0  0  0  0  0  0
    5.3820  -11.5472   26.9518 C   0  0  0  0  0  0  0  0  0  0  0  0
    6.3181  -12.5430   26.6950 C   0  0  0  0  0  0  0  0  0  0  0  0
    5.9526  -13.8186   26.3009 C   0  0  0  0  0  0  0  0  0  0  0  0
    6.8555  -14.8111   26.0438 C   0  0  0  0  0  0  0  0  0  0  0  0
    8.2058  -14.5185   26.1872 C   0  0  1  0  0  0  0  0  0  0  0  0
    9.1700  -15.5869   25.9140 N   0  0  0  0  0  0  0  0  0  0  0  0
   10.0865  -15.3335   24.7624 C   0  0  0  0  0  0  0  0  0  0  0  0
    9.4143  -15.7441   23.5559 O   0  0  0  0  0  0  0  0  0  0  0  0
   11.3944  -15.9872   24.8401 C   0  0  0  0  0  0  0  0  0  0  0  0
   11.6869  -16.9109   24.0448 C   0  0  0  0  0  0  0  0  0  0  0  0
    8.6156  -13.2704   26.5750 O   0  0  0  0  0  0  0  0  0  0  0  0
  2  3  2  0
  2  1  1  0
  4  2  1  0
  5  4  1  0
  6  5  1  0
  7  8  1  0
  7  6  1  0
  8 10  1  0
  8  9  1  1
 10 11  2  0
 13 15  1  0
 13 12  1  0
 14 13  2  0
 16 15  1  0
 17 16  1  0
 17 18  1  0
 19 18  1  6
 20 10  1  0
 20 19  1  0
 21 19  1  0
 21 30  1  0
 22 21  2  0
 23 24  1  0
 24 25  2  0
 25 26  1  0
 27 28  1  0
 27 26  2  0
 29 31  1  0
 29 30  1  0
 29 28  1  1
 31 35  1  0
 32 31  2  0
 33 27  1  0
 34 33  2  0
 34 24  1  0
M  END
$$$$
