RRY.pdb
     RDKit          3D

 35 35  0  0  1  0  0  0  0  0999 V2000
    8.7031  -22.8689   23.8097 N   0  0  0  0  0  0  0  0  0  0  0  0
    8.0171  -23.6796   22.8469 C   0  0  0  0  0  0  0  0  0  0  0  0
    8.1474  -24.9641   22.8540 N   0  0  0  0  0  0  0  0  0  0  0  0
    7.1792  -23.0996   21.8641 N   0  0  0  0  0  0  0  0  0  0  0  0
    7.1467  -21.6635   21.5758 C   0  0  0  0  0  0  0  0  0  0  0  0
    6.4810  -20.9207   22.7054 C   0  0  0  0  0  0  0  0  0  0  0  0
    6.5192  -19.4384   22.5996 C   0  0  0  0  0  0  0  0  0  0  0  0
    7.0597  -18.8773   21.3202 C   0  0  2  0  0  0  0  0  0  0  0  0
    7.7111  -19.8479   20.4829 N   0  0  0  0  0  0  0  0  0  0  0  0
    8.1259  -17.8700   21.7135 C   0  0  0  0  0  0  0  0  0  0  0  0
    9.2978  -18.2644   21.9380 O   0  0  0  0  0  0  0  0  0  0  0  0
    7.6798  -25.5626   22.1651 N   0  0  0  0  0  0  0  0  0  0  0  0
    7.8047  -12.9489   16.8639 C   0  0  0  0  0  0  0  0  0  0  0  0
    8.7436  -13.4793   17.8342 N   0  0  0  0  0  0  0  0  0  0  0  0
    9.9118  -13.8455   17.4498 N   0  0  0  0  0  0  0  0  0  0  0  0
    8.3672  -13.5885   19.1904 C   0  0  0  0  0  0  0  0  0  0  0  0
    6.9964  -13.6926   19.5886 C   0  0  0  0  0  0  0  0  0  0  0  0
    6.9508  -13.8367   21.1153 C   0  0  0  0  0  0  0  0  0  0  0  0
    8.3284  -14.0747   21.6338 C   0  0  1  0  0  0  0  0  0  0  0  0
    8.6150  -15.4205   22.2175 N   0  0  0  0  0  0  0  0  0  0  0  0
    7.7904  -16.5013   21.8227 C   0  0  0  0  0  0  0  0  0  0  0  0
    8.9636  -15.3849   23.6556 O   0  0  0  0  0  0  0  0  0  0  0  0
    9.5020  -14.3124   24.0682 O   0  0  0  0  0  0  0  0  0  0  0  0
   10.5500  -14.3336   18.0904 C   0  0  0  0  0  0  0  0  0  0  0  0
    7.1183  -10.3299   26.9639 C   0  0  0  0  0  0  0  0  0  0  0  0
    7.2373  -11.7102   26.8439 C   0  0  0  0  0  0  0  0  0  0  0  0
    6.1366  -12.5395   26.7140 C   0  0  0  0  0  0  0  0  0  0  0  0
    6.2311  -13.8971   26.5949 C   0  0  0  0  0  0  0  0  0  0  0  0
    7.4979  -14.4669   26.6056 C   0  0  1  0  0  0  0  0  0  0  0  0
    7.5940  -15.9232   26.4813 N   0  0  0  0  0  0  0  0  0  0  0  0
    8.8663  -16.4250   25.8812 C   0  0  0  0  0  0  0  0  0  0  0  0
    8.6878  -16.5044   24.4537 O   0  0  0  0  0  0  0  0  0  0  0  0
    9.3379  -17.7154   26.3875 C   0  0  0  0  0  0  0  0  0  0  0  0
    9.5719  -17.8669   27.6096 C   0  0  0  0  0  0  0  0  0  0  0  0
    8.6167  -13.6867   26.7318 O   0  0  0  0  0  0  0  0  0  0  0  0
  2  3  2  0
  2  1  1  0
  4  2  1  0
  5  4  1  0
  6  5  1  0
  7  8  1  0
  7  6  1  0
  8 10  1  0
  8  9  1  6
 10 11  2  0
 13 15  1  0
 13 12  1  0
 14 13  2  0
 16 15  1  0
 17 16  1  0
 17 18  1  0
 19 18  1  6
 20 10  1  0
 20 19  1  0
 21 19  1  0
 21 30  1  0
 22 21  2  0
 23 24  1  0
 24 25  2  0
 25 26  1  0
 27 28  1  0
 27 26  2  0
 29 31  1  0
 29 30  1  0
 29 28  1  1
 31 35  1  0
 32 31  2  0
 33 27  1  0
 34 33  2  0
 34 24  1  0
M  END
$$$$
