RRY.pdb
     RDKit          3D

 35 35  0  0  1  0  0  0  0  0999 V2000
    8.9027  -23.3978   20.7571 N   0  0  0  0  0  0  0  0  0  0  0  0
    9.3925  -23.3644   19.4104 C   0  0  0  0  0  0  0  0  0  0  0  0
    9.1610  -24.3425   18.6000 N   0  0  0  0  0  0  0  0  0  0  0  0
   10.1408  -22.2627   18.9295 N   0  0  0  0  0  0  0  0  0  0  0  0
   10.3793  -21.0461   19.7101 C   0  0  0  0  0  0  0  0  0  0  0  0
   11.7099  -21.1306   20.4124 C   0  0  0  0  0  0  0  0  0  0  0  0
   12.0607  -19.9541   21.2507 C   0  0  0  0  0  0  0  0  0  0  0  0
   12.2350  -18.6528   20.5297 C   0  0  2  0  0  0  0  0  0  0  0  0
   13.6070  -18.2814   20.3129 N   0  0  0  0  0  0  0  0  0  0  0  0
   11.6415  -17.5838   21.4304 C   0  0  0  0  0  0  0  0  0  0  0  0
   12.3494  -17.0725   22.3341 O   0  0  0  0  0  0  0  0  0  0  0  0
    9.5174  -24.3490   17.6386 N   0  0  0  0  0  0  0  0  0  0  0  0
    7.2031  -14.9888   18.5636 C   0  0  0  0  0  0  0  0  0  0  0  0
    7.4358  -13.6021   18.9206 N   0  0  0  0  0  0  0  0  0  0  0  0
    8.0069  -12.8194   18.0795 N   0  0  0  0  0  0  0  0  0  0  0  0
    7.0334  -13.1247   20.1867 C   0  0  0  0  0  0  0  0  0  0  0  0
    6.4967  -13.9958   21.1876 C   0  0  0  0  0  0  0  0  0  0  0  0
    7.6591  -14.5160   22.0430 C   0  0  0  0  0  0  0  0  0  0  0  0
    8.4535  -15.5022   21.2557 C   0  0  1  0  0  0  0  0  0  0  0  0
    9.5682  -16.2020   21.9643 N   0  0  0  0  0  0  0  0  0  0  0  0
   10.3014  -17.1752   21.2436 C   0  0  0  0  0  0  0  0  0  0  0  0
    9.2531  -16.5587   23.3658 O   0  0  0  0  0  0  0  0  0  0  0  0
    8.8815  -17.7561   23.5620 O   0  0  0  0  0  0  0  0  0  0  0  0
    8.1718  -11.8306   18.3055 C   0  0  0  0  0  0  0  0  0  0  0  0
    5.4975  -10.7484   26.2557 C   0  0  0  0  0  0  0  0  0  0  0  0
    6.4758  -11.7332   26.3385 C   0  0  0  0  0  0  0  0  0  0  0  0
    7.5574  -11.7765   25.4758 C   0  0  0  0  0  0  0  0  0  0  0  0
    8.5291  -12.7346   25.5397 C   0  0  0  0  0  0  0  0  0  0  0  0
    8.4197  -13.7110   26.5217 C   0  0  2  0  0  0  0  0  0  0  0  0
    9.4620  -14.7384   26.5839 N   0  0  0  0  0  0  0  0  0  0  0  0
    9.2082  -15.9493   25.7473 C   0  0  0  0  0  0  0  0  0  0  0  0
    9.3790  -15.5824   24.3644 O   0  0  0  0  0  0  0  0  0  0  0  0
    7.8988  -16.5790   25.9280 C   0  0  0  0  0  0  0  0  0  0  0  0
    7.6359  -17.1971   26.9863 C   0  0  0  0  0  0  0  0  0  0  0  0
    7.3671  -13.7093   27.3982 O   0  0  0  0  0  0  0  0  0  0  0  0
  2  3  2  0
  2  1  1  0
  4  2  1  0
  5  4  1  0
  6  5  1  0
  7  8  1  0
  7  6  1  0
  8 10  1  0
  8  9  1  1
 10 11  2  0
 13 15  1  0
 13 12  1  0
 14 13  2  0
 16 15  1  0
 17 16  1  0
 17 18  1  0
 19 18  1  6
 20 10  1  0
 20 19  1  0
 21 19  1  0
 21 30  1  0
 22 21  2  0
 23 24  1  0
 24 25  2  0
 25 26  1  0
 27 28  1  0
 27 26  2  0
 29 31  1  0
 29 30  1  0
 29 28  1  6
 31 35  1  0
 32 31  2  0
 33 27  1  0
 34 33  2  0
 34 24  1  0
M  END
$$$$
