RRY.pdb
     RDKit          3D

 35 35  0  0  1  0  0  0  0  0999 V2000
    7.9834  -12.4866   18.0998 N   0  0  0  0  0  0  0  0  0  0  0  0
    8.8153  -12.8906   19.1950 C   0  0  0  0  0  0  0  0  0  0  0  0
   10.0690  -12.5832   19.2192 N   0  0  0  0  0  0  0  0  0  0  0  0
    8.2899  -13.6347   20.2791 N   0  0  0  0  0  0  0  0  0  0  0  0
    6.9046  -14.1075   20.3379 C   0  0  0  0  0  0  0  0  0  0  0  0
    6.8723  -15.6030   20.5210 C   0  0  0  0  0  0  0  0  0  0  0  0
    6.9726  -16.0723   21.9280 C   0  0  0  0  0  0  0  0  0  0  0  0
    6.8954  -17.5529   22.1416 C   0  0  2  0  0  0  0  0  0  0  0  0
    5.6648  -18.1468   21.6938 N   0  0  0  0  0  0  0  0  0  0  0  0
    6.9515  -17.7702   23.6435 C   0  0  0  0  0  0  0  0  0  0  0  0
    5.9646  -18.2778   24.2331 O   0  0  0  0  0  0  0  0  0  0  0  0
   10.6929  -12.8998   19.9688 N   0  0  0  0  0  0  0  0  0  0  0  0
    7.5725  -21.9036   29.1342 C   0  0  0  0  0  0  0  0  0  0  0  0
    6.4699  -21.7316   28.2072 N   0  0  0  0  0  0  0  0  0  0  0  0
    5.3216  -22.2292   28.4903 N   0  0  0  0  0  0  0  0  0  0  0  0
    6.6670  -21.0198   27.0041 C   0  0  0  0  0  0  0  0  0  0  0  0
    7.6258  -21.4374   26.0270 C   0  0  0  0  0  0  0  0  0  0  0  0
    8.1851  -20.1853   25.3393 C   0  0  0  0  0  0  0  0  0  0  0  0
    8.0652  -19.0174   26.2586 C   0  0  1  0  0  0  0  0  0  0  0  0
    8.4373  -17.6771   25.7115 N   0  0  0  0  0  0  0  0  0  0  0  0
    8.1111  -17.4003   24.3621 C   0  0  0  0  0  0  0  0  0  0  0  0
    9.7697  -17.2034   26.1489 O   0  0  0  0  0  0  0  0  0  0  0  0
   10.6543  -18.1007   26.2989 O   0  0  0  0  0  0  0  0  0  0  0  0
    4.5271  -22.1241   27.8472 C   0  0  0  0  0  0  0  0  0  0  0  0
    6.2574  -11.0002   24.6339 C   0  0  0  0  0  0  0  0  0  0  0  0
    6.7961  -11.9817   25.4587 C   0  0  0  0  0  0  0  0  0  0  0  0
    7.4400  -13.0993   24.9562 C   0  0  0  0  0  0  0  0  0  0  0  0
    7.9759  -14.0748   25.7484 C   0  0  0  0  0  0  0  0  0  0  0  0
    7.8654  -13.9316   27.1256 C   0  0  1  0  0  0  0  0  0  0  0  0
    8.4383  -14.9820   27.9707 N   0  0  0  0  0  0  0  0  0  0  0  0
    9.8725  -15.2996   27.7012 C   0  0  0  0  0  0  0  0  0  0  0  0
    9.9703  -15.8327   26.3662 O   0  0  0  0  0  0  0  0  0  0  0  0
   10.5027  -16.2252   28.6447 C   0  0  0  0  0  0  0  0  0  0  0  0
   11.7014  -16.5602   28.4954 C   0  0  0  0  0  0  0  0  0  0  0  0
    7.2369  -12.8428   27.6693 O   0  0  0  0  0  0  0  0  0  0  0  0
  2  3  2  0
  2  1  1  0
  4  2  1  0
  5  4  1  0
  6  5  1  0
  7  8  1  0
  7  6  1  0
  8 10  1  0
  8  9  1  1
 10 11  2  0
 13 15  1  0
 13 12  1  0
 14 13  2  0
 16 15  1  0
 17 16  1  0
 17 18  1  0
 19 18  1  1
 20 10  1  0
 20 19  1  0
 21 19  1  0
 21 30  1  0
 22 21  2  0
 23 24  1  0
 24 25  2  0
 25 26  1  0
 27 28  1  0
 27 26  2  0
 29 31  1  0
 29 30  1  0
 29 28  1  1
 31 35  1  0
 32 31  2  0
 33 27  1  0
 34 33  2  0
 34 24  1  0
M  END
$$$$
