RRY.pdb
     RDKit          3D

 35 35  0  0  1  0  0  0  0  0999 V2000
    6.9673  -13.3835   16.3908 N   0  0  0  0  0  0  0  0  0  0  0  0
    8.1998  -13.1900   17.0967 C   0  0  0  0  0  0  0  0  0  0  0  0
    8.3125  -12.2589   17.9840 N   0  0  0  0  0  0  0  0  0  0  0  0
    9.3258  -14.0104   16.8442 N   0  0  0  0  0  0  0  0  0  0  0  0
    9.2814  -15.2041   15.9961 C   0  0  0  0  0  0  0  0  0  0  0  0
    9.1132  -16.4388   16.8434 C   0  0  0  0  0  0  0  0  0  0  0  0
   10.3024  -16.8226   17.6487 C   0  0  0  0  0  0  0  0  0  0  0  0
   10.2000  -18.1055   18.4151 C   0  0  2  0  0  0  0  0  0  0  0  0
    9.7094  -19.2136   17.6411 N   0  0  0  0  0  0  0  0  0  0  0  0
    9.1776  -17.8661   19.5120 C   0  0  0  0  0  0  0  0  0  0  0  0
    8.0750  -17.3354   19.2258 O   0  0  0  0  0  0  0  0  0  0  0  0
    9.1909  -12.0865   18.4838 N   0  0  0  0  0  0  0  0  0  0  0  0
    7.5067  -24.5642   23.8127 C   0  0  0  0  0  0  0  0  0  0  0  0
    8.0304  -24.4203   22.4675 N   0  0  0  0  0  0  0  0  0  0  0  0
    8.2490  -25.4670   21.7581 N   0  0  0  0  0  0  0  0  0  0  0  0
    8.2949  -23.1340   21.9495 C   0  0  0  0  0  0  0  0  0  0  0  0
    8.1474  -21.9534   22.7451 C   0  0  0  0  0  0  0  0  0  0  0  0
    8.5147  -20.7425   21.8778 C   0  0  0  0  0  0  0  0  0  0  0  0
    8.3188  -19.4903   22.6631 C   0  0  2  0  0  0  0  0  0  0  0  0
    8.6338  -18.1991   21.9791 N   0  0  0  0  0  0  0  0  0  0  0  0
    9.4754  -18.2422   20.8415 C   0  0  0  0  0  0  0  0  0  0  0  0
    8.8882  -17.0773   22.9105 O   0  0  0  0  0  0  0  0  0  0  0  0
   10.1066  -16.8471   23.1801 O   0  0  0  0  0  0  0  0  0  0  0  0
    8.6042  -25.3893   20.7971 C   0  0  0  0  0  0  0  0  0  0  0  0
    6.8262  -10.5753   28.5471 C   0  0  0  0  0  0  0  0  0  0  0  0
    6.8298  -11.5300   27.5360 C   0  0  0  0  0  0  0  0  0  0  0  0
    7.3014  -11.2585   26.2633 C   0  0  0  0  0  0  0  0  0  0  0  0
    7.3140  -12.1813   25.2561 C   0  0  0  0  0  0  0  0  0  0  0  0
    6.8276  -13.4534   25.5298 C   0  0  1  0  0  0  0  0  0  0  0  0
    6.8397  -14.4383   24.4457 N   0  0  0  0  0  0  0  0  0  0  0  0
    8.0246  -15.3473   24.4292 C   0  0  0  0  0  0  0  0  0  0  0  0
    7.8010  -16.3568   23.4256 O   0  0  0  0  0  0  0  0  0  0  0  0
    8.3463  -15.9892   25.7053 C   0  0  0  0  0  0  0  0  0  0  0  0
    7.7750  -17.0541   26.0382 C   0  0  0  0  0  0  0  0  0  0  0  0
    6.3507  -13.7689   26.7745 O   0  0  0  0  0  0  0  0  0  0  0  0
  2  3  2  0
  2  1  1  0
  4  2  1  0
  5  4  1  0
  6  5  1  0
  7  8  1  0
  7  6  1  0
  8 10  1  0
  8  9  1  6
 10 11  2  0
 13 15  1  0
 13 12  1  0
 14 13  2  0
 16 15  1  0
 17 16  1  0
 17 18  1  0
 19 18  1  6
 20 10  1  0
 20 19  1  0
 21 19  1  0
 21 30  1  0
 22 21  2  0
 23 24  1  0
 24 25  2  0
 25 26  1  0
 27 28  1  0
 27 26  2  0
 29 31  1  0
 29 30  1  0
 29 28  1  1
 31 35  1  0
 32 31  2  0
 33 27  1  0
 34 33  2  0
 34 24  1  0
M  END
$$$$
