MFK.pdb
     RDKit          3D

 29 29  0  0  1  0  0  0  0  0999 V2000
   11.0073  -20.6567    3.6175 C   0  0  0  0  0  0  0  0  0  0  0  0
   11.5163  -21.6293    2.1729 S   0  0  0  0  0  0  0  0  0  0  0  0
   12.7562  -22.8469    2.6904 C   0  0  0  0  0  0  0  0  0  0  0  0
   14.0439  -22.1566    3.0869 C   0  0  0  0  0  0  0  0  0  0  0  0
   15.0681  -22.1739    1.9908 C   0  0  2  0  0  0  0  0  0  0  0  0
   15.5110  -23.5197    1.7225 N   0  0  0  0  0  0  0  0  0  0  0  0
   16.2533  -21.3477    2.3745 C   0  0  0  0  0  0  0  0  0  0  0  0
   17.1682  -21.9039    3.0234 O   0  0  0  0  0  0  0  0  0  0  0  0
   16.3685  -19.9821    2.0322 N   0  0  0  0  0  0  0  0  0  0  0  0
   17.5114  -19.1701    2.3278 C   0  0  1  0  0  0  0  0  0  0  0  0
   18.0092  -18.3744    1.1791 C   0  0  0  0  0  0  0  0  0  0  0  0
   19.1035  -17.4655    1.4030 C   0  0  0  0  0  0  0  0  0  0  0  0
   18.9386  -16.1474    1.7664 C   0  0  0  0  0  0  0  0  0  0  0  0
   19.9703  -15.2823    1.9787 C   0  0  0  0  0  0  0  0  0  0  0  0
   21.2583  -15.7062    1.8333 C   0  0  0  0  0  0  0  0  0  0  0  0
   21.4787  -17.0188    1.4702 C   0  0  0  0  0  0  0  0  0  0  0  0
   20.4082  -17.8841    1.2586 C   0  0  0  0  0  0  0  0  0  0  0  0
   17.3226  -18.4893    3.5983 C   0  0  0  0  0  0  0  0  0  0  0  0
   16.1688  -18.0565    3.8627 O   0  0  0  0  0  0  0  0  0  0  0  0
   18.3211  -18.2645    4.5790 N   0  0  0  0  0  0  0  0  0  0  0  0
   17.9439  -17.6701    5.8668 C   0  0  1  0  0  0  0  0  0  0  0  0
   18.9251  -18.1371    6.9242 C   0  0  0  0  0  0  0  0  0  0  0  0
   18.6169  -17.7009    8.3037 C   0  0  0  0  0  0  0  0  0  0  0  0
   19.5953  -18.1418    9.3472 C   0  0  0  0  0  0  0  0  0  0  0  0
   19.2362  -17.7051   10.7372 C   0  0  0  0  0  0  0  0  0  0  0  0
   20.2997  -18.1337   11.6304 N   0  0  0  0  0  0  0  0  0  0  0  0
   17.9927  -16.2089    5.7613 C   0  0  0  0  0  0  0  0  0  0  0  0
   17.0528  -15.3526    6.3229 O   0  0  0  0  0  0  0  0  0  0  0  0
   18.9450  -15.6745    5.1199 O   0  0  0  0  0  0  0  0  0  0  0  0
  2  1  1  0
  3  2  1  0
  4  3  1  0
  5  4  1  0
  5  6  1  1
  7  5  1  0
  7  8  2  0
  9  7  1  0
 10  9  1  0
 10 11  1  6
 12 11  1  0
 12 13  2  0
 14 13  1  0
 15 14  2  0
 16 15  1  0
 16 17  2  0
 17 12  1  0
 18 20  1  0
 18 10  1  0
 19 18  2  0
 21 20  1  0
 21 27  1  0
 21 22  1  1
 23 22  1  0
 24 25  1  0
 24 23  1  0
 25 26  1  0
 27 29  2  0
 27 28  1  0
M  END
$$$$
