MFK.pdb
     RDKit          3D

 29 29  0  0  1  0  0  0  0  0999 V2000
   20.0214  -32.7265  -12.7243 C   0  0  0  0  0  0  0  0  0  0  0  0
   21.0895  -33.6097  -13.8953 S   0  0  0  0  0  0  0  0  0  0  0  0
   21.1949  -35.3502  -13.3983 C   0  0  0  0  0  0  0  0  0  0  0  0
   22.0423  -35.4955  -12.1523 C   0  0  0  0  0  0  0  0  0  0  0  0
   23.4226  -34.9335  -12.3253 C   0  0  2  0  0  0  0  0  0  0  0  0
   24.1646  -35.6862  -13.3063 N   0  0  0  0  0  0  0  0  0  0  0  0
   24.1659  -34.9735  -11.0290 C   0  0  0  0  0  0  0  0  0  0  0  0
   24.6335  -36.0737  -10.6571 O   0  0  0  0  0  0  0  0  0  0  0  0
   24.3522  -33.8264  -10.2260 N   0  0  0  0  0  0  0  0  0  0  0  0
   24.9960  -33.8337   -8.9461 C   0  0  1  0  0  0  0  0  0  0  0  0
   25.8070  -32.6243   -8.6630 C   0  0  0  0  0  0  0  0  0  0  0  0
   26.4611  -32.5264   -7.3839 C   0  0  0  0  0  0  0  0  0  0  0  0
   27.7105  -33.0442   -7.1240 C   0  0  0  0  0  0  0  0  0  0  0  0
   28.3340  -32.9555   -5.9152 C   0  0  0  0  0  0  0  0  0  0  0  0
   27.7194  -32.3247   -4.8740 C   0  0  0  0  0  0  0  0  0  0  0  0
   26.4656  -31.7880   -5.0816 C   0  0  0  0  0  0  0  0  0  0  0  0
   25.8484  -31.8913   -6.3258 C   0  0  0  0  0  0  0  0  0  0  0  0
   24.0661  -34.2858   -7.9241 C   0  0  0  0  0  0  0  0  0  0  0  0
   23.0003  -33.6303   -7.7739 O   0  0  0  0  0  0  0  0  0  0  0  0
   24.2441  -35.4052   -7.0729 N   0  0  0  0  0  0  0  0  0  0  0  0
   23.4463  -35.5096   -5.8454 C   0  0  1  0  0  0  0  0  0  0  0  0
   22.6234  -36.7817   -5.9069 C   0  0  0  0  0  0  0  0  0  0  0  0
   22.4513  -37.3537   -7.2603 C   0  0  0  0  0  0  0  0  0  0  0  0
   21.7058  -38.6505   -7.3161 C   0  0  0  0  0  0  0  0  0  0  0  0
   21.6000  -39.2294   -8.6965 C   0  0  0  0  0  0  0  0  0  0  0  0
   20.8115  -40.4475   -8.6123 N   0  0  0  0  0  0  0  0  0  0  0  0
   24.3414  -35.5582   -4.6858 C   0  0  0  0  0  0  0  0  0  0  0  0
   24.0481  -34.9988   -3.4476 O   0  0  0  0  0  0  0  0  0  0  0  0
   25.4591  -36.1426   -4.8012 O   0  0  0  0  0  0  0  0  0  0  0  0
  2  1  1  0
  3  2  1  0
  4  3  1  0
  5  4  1  0
  5  6  1  6
  7  5  1  0
  7  8  2  0
  9  7  1  0
 10  9  1  0
 10 11  1  1
 12 11  1  0
 12 13  2  0
 14 13  1  0
 15 14  2  0
 16 15  1  0
 16 17  2  0
 17 12  1  0
 18 20  1  0
 18 10  1  0
 19 18  2  0
 21 20  1  0
 21 27  1  0
 21 22  1  6
 23 22  1  0
 24 25  1  0
 24 23  1  0
 25 26  1  0
 27 29  2  0
 27 28  1  0
M  END
$$$$
