MFK.pdb
     RDKit          3D

 29 29  0  0  1  0  0  0  0  0999 V2000
   26.6106  -25.4025  -19.5618 C   0  0  0  0  0  0  0  0  0  0  0  0
   27.2036  -23.8341  -20.2552 S   0  0  0  0  0  0  0  0  0  0  0  0
   28.2739  -23.0202  -19.0389 C   0  0  0  0  0  0  0  0  0  0  0  0
   27.7059  -23.1761  -17.6443 C   0  0  0  0  0  0  0  0  0  0  0  0
   26.4886  -22.3284  -17.4198 C   0  0  2  0  0  0  0  0  0  0  0  0
   26.7692  -20.9419  -17.6999 N   0  0  0  0  0  0  0  0  0  0  0  0
   26.0277  -22.4465  -16.0027 C   0  0  0  0  0  0  0  0  0  0  0  0
   25.8428  -23.5958  -15.5421 O   0  0  0  0  0  0  0  0  0  0  0  0
   25.7987  -21.3188  -15.1834 N   0  0  0  0  0  0  0  0  0  0  0  0
   25.2445  -21.3799  -13.8636 C   0  0  1  0  0  0  0  0  0  0  0  0
   25.9502  -20.5401  -12.8650 C   0  0  0  0  0  0  0  0  0  0  0  0
   25.4341  -20.5005  -11.5213 C   0  0  0  0  0  0  0  0  0  0  0  0
   26.0275  -21.1416  -10.4566 C   0  0  0  0  0  0  0  0  0  0  0  0
   25.5430  -21.1085   -9.1830 C   0  0  0  0  0  0  0  0  0  0  0  0
   24.4055  -20.4106   -8.9026 C   0  0  0  0  0  0  0  0  0  0  0  0
   23.7715  -19.7499   -9.9344 C   0  0  0  0  0  0  0  0  0  0  0  0
   24.2855  -19.7984  -11.2278 C   0  0  0  0  0  0  0  0  0  0  0  0
   23.7950  -21.2898  -13.9281 C   0  0  0  0  0  0  0  0  0  0  0  0
   23.2975  -20.4452  -14.7201 O   0  0  0  0  0  0  0  0  0  0  0  0
   22.8781  -22.0697  -13.1794 N   0  0  0  0  0  0  0  0  0  0  0  0
   21.4372  -21.8750  -13.3791 C   0  0  1  0  0  0  0  0  0  0  0  0
   20.6978  -23.0442  -12.7584 C   0  0  0  0  0  0  0  0  0  0  0  0
   19.2316  -23.0364  -12.9555 C   0  0  0  0  0  0  0  0  0  0  0  0
   18.5020  -24.2060  -12.3722 C   0  0  0  0  0  0  0  0  0  0  0  0
   17.0488  -24.2593  -12.7429 C   0  0  0  0  0  0  0  0  0  0  0  0
   16.5064  -25.5143  -12.2494 N   0  0  0  0  0  0  0  0  0  0  0  0
   21.0200  -20.6286  -12.7305 C   0  0  0  0  0  0  0  0  0  0  0  0
   20.0151  -19.7962  -13.2095 O   0  0  0  0  0  0  0  0  0  0  0  0
   21.6021  -20.2705  -11.6642 O   0  0  0  0  0  0  0  0  0  0  0  0
  2  1  1  0
  3  2  1  0
  4  3  1  0
  5  4  1  0
  5  6  1  1
  7  5  1  0
  7  8  2  0
  9  7  1  0
 10  9  1  0
 10 11  1  1
 12 11  1  0
 12 13  2  0
 14 13  1  0
 15 14  2  0
 16 15  1  0
 16 17  2  0
 17 12  1  0
 18 20  1  0
 18 10  1  0
 19 18  2  0
 21 20  1  0
 21 27  1  0
 21 22  1  1
 23 22  1  0
 24 25  1  0
 24 23  1  0
 25 26  1  0
 27 29  2  0
 27 28  1  0
M  END
$$$$
