MFK.pdb
     RDKit          3D

 29 29  0  0  1  0  0  0  0  0999 V2000
   25.8881  -17.8672  -19.7947 C   0  0  0  0  0  0  0  0  0  0  0  0
   27.4960  -18.2675  -20.5339 S   0  0  0  0  0  0  0  0  0  0  0  0
   27.9600  -19.9538  -20.0559 C   0  0  0  0  0  0  0  0  0  0  0  0
   27.2648  -20.3511  -18.7711 C   0  0  0  0  0  0  0  0  0  0  0  0
   28.1797  -21.0593  -17.8161 C   0  0  2  0  0  0  0  0  0  0  0  0
   28.6904  -22.2751  -18.3996 N   0  0  0  0  0  0  0  0  0  0  0  0
   27.4510  -21.4025  -16.5567 C   0  0  0  0  0  0  0  0  0  0  0  0
   26.7968  -22.4696  -16.5322 O   0  0  0  0  0  0  0  0  0  0  0  0
   27.4788  -20.5721  -15.4143 N   0  0  0  0  0  0  0  0  0  0  0  0
   26.7621  -20.8419  -14.2034 C   0  0  1  0  0  0  0  0  0  0  0  0
   27.3648  -20.2393  -12.9893 C   0  0  0  0  0  0  0  0  0  0  0  0
   26.6194  -20.2957  -11.7586 C   0  0  0  0  0  0  0  0  0  0  0  0
   25.8041  -19.2792  -11.3129 C   0  0  0  0  0  0  0  0  0  0  0  0
   25.0970  -19.3265  -10.1486 C   0  0  0  0  0  0  0  0  0  0  0  0
   25.1728  -20.4275   -9.3475 C   0  0  0  0  0  0  0  0  0  0  0  0
   25.9761  -21.4750   -9.7483 C   0  0  0  0  0  0  0  0  0  0  0  0
   26.6893  -21.4035  -10.9423 C   0  0  0  0  0  0  0  0  0  0  0  0
   25.3358  -20.6605  -14.4186 C   0  0  0  0  0  0  0  0  0  0  0  0
   24.9611  -19.5961  -14.9799 O   0  0  0  0  0  0  0  0  0  0  0  0
   24.3159  -21.5756  -14.0557 N   0  0  0  0  0  0  0  0  0  0  0  0
   22.9108  -21.2071  -14.2653 C   0  0  1  0  0  0  0  0  0  0  0  0
   22.1283  -22.4561  -14.6211 C   0  0  0  0  0  0  0  0  0  0  0  0
   20.6682  -22.2640  -14.7615 C   0  0  0  0  0  0  0  0  0  0  0  0
   19.9034  -23.4741  -15.1988 C   0  0  0  0  0  0  0  0  0  0  0  0
   18.4347  -23.2280  -15.3842 C   0  0  0  0  0  0  0  0  0  0  0  0
   17.8007  -24.5021  -15.6797 N   0  0  0  0  0  0  0  0  0  0  0  0
   22.3720  -20.6229  -13.0337 C   0  0  0  0  0  0  0  0  0  0  0  0
   21.5287  -19.5186  -12.9959 O   0  0  0  0  0  0  0  0  0  0  0  0
   22.6849  -21.1443  -11.9228 O   0  0  0  0  0  0  0  0  0  0  0  0
  2  1  1  0
  3  2  1  0
  4  3  1  0
  5  4  1  0
  5  6  1  6
  7  5  1  0
  7  8  2  0
  9  7  1  0
 10  9  1  0
 10 11  1  1
 12 11  1  0
 12 13  2  0
 14 13  1  0
 15 14  2  0
 16 15  1  0
 16 17  2  0
 17 12  1  0
 18 20  1  0
 18 10  1  0
 19 18  2  0
 21 20  1  0
 21 27  1  0
 21 22  1  1
 23 22  1  0
 24 25  1  0
 24 23  1  0
 25 26  1  0
 27 29  2  0
 27 28  1  0
M  END
$$$$
