MFK.pdb
     RDKit          3D

 29 29  0  0  1  0  0  0  0  0999 V2000
   29.7397  -18.2837  -16.0868 C   0  0  0  0  0  0  0  0  0  0  0  0
   28.8755  -17.4868  -17.4689 S   0  0  0  0  0  0  0  0  0  0  0  0
   27.7457  -18.6857  -18.2262 C   0  0  0  0  0  0  0  0  0  0  0  0
   26.9389  -19.3993  -17.1625 C   0  0  0  0  0  0  0  0  0  0  0  0
   27.7131  -20.4942  -16.4898 C   0  0  2  0  0  0  0  0  0  0  0  0
   27.8959  -21.6150  -17.3785 N   0  0  0  0  0  0  0  0  0  0  0  0
   26.9919  -20.9650  -15.2680 C   0  0  0  0  0  0  0  0  0  0  0  0
   26.1217  -21.8540  -15.4090 O   0  0  0  0  0  0  0  0  0  0  0  0
   27.2592  -20.4450  -13.9821 N   0  0  0  0  0  0  0  0  0  0  0  0
   26.4958  -20.7581  -12.8107 C   0  0  1  0  0  0  0  0  0  0  0  0
   27.1922  -20.4714  -11.5327 C   0  0  0  0  0  0  0  0  0  0  0  0
   26.4242  -20.5070  -10.3152 C   0  0  0  0  0  0  0  0  0  0  0  0
   25.9249  -21.6649   -9.7614 C   0  0  0  0  0  0  0  0  0  0  0  0
   25.1965  -21.7046   -8.6100 C   0  0  0  0  0  0  0  0  0  0  0  0
   24.9230  -20.5520   -7.9345 C   0  0  0  0  0  0  0  0  0  0  0  0
   25.4003  -19.3634   -8.4471 C   0  0  0  0  0  0  0  0  0  0  0  0
   26.1423  -19.3480   -9.6255 C   0  0  0  0  0  0  0  0  0  0  0  0
   25.1306  -20.2827  -12.9650 C   0  0  0  0  0  0  0  0  0  0  0  0
   24.9666  -19.0899  -13.3371 O   0  0  0  0  0  0  0  0  0  0  0  0
   23.9544  -21.0401  -12.7364 N   0  0  0  0  0  0  0  0  0  0  0  0
   22.6435  -20.4090  -12.9293 C   0  0  1  0  0  0  0  0  0  0  0  0
   22.1002  -20.8204  -14.2838 C   0  0  0  0  0  0  0  0  0  0  0  0
   20.7277  -20.3535  -14.5784 C   0  0  0  0  0  0  0  0  0  0  0  0
   20.1870  -20.7601  -15.9136 C   0  0  0  0  0  0  0  0  0  0  0  0
   18.8478  -20.1626  -16.2321 C   0  0  0  0  0  0  0  0  0  0  0  0
   18.4651  -20.6044  -17.5629 N   0  0  0  0  0  0  0  0  0  0  0  0
   21.7282  -20.8563  -11.8755 C   0  0  0  0  0  0  0  0  0  0  0  0
   20.7105  -20.0752  -11.3404 O   0  0  0  0  0  0  0  0  0  0  0  0
   21.8586  -22.0267  -11.4096 O   0  0  0  0  0  0  0  0  0  0  0  0
  2  1  1  0
  3  2  1  0
  4  3  1  0
  5  4  1  0
  5  6  1  6
  7  5  1  0
  7  8  2  0
  9  7  1  0
 10  9  1  0
 10 11  1  1
 12 11  1  0
 12 13  2  0
 14 13  1  0
 15 14  2  0
 16 15  1  0
 16 17  2  0
 17 12  1  0
 18 20  1  0
 18 10  1  0
 19 18  2  0
 21 20  1  0
 21 27  1  0
 21 22  1  6
 23 22  1  0
 24 25  1  0
 24 23  1  0
 25 26  1  0
 27 29  2  0
 27 28  1  0
M  END
$$$$
