MFK.pdb
     RDKit          3D

 29 29  0  0  1  0  0  0  0  0999 V2000
   28.9479  -25.1447  -17.0388 C   0  0  0  0  0  0  0  0  0  0  0  0
   28.9007  -23.7214  -18.1631 S   0  0  0  0  0  0  0  0  0  0  0  0
   27.5655  -22.6083  -17.6478 C   0  0  0  0  0  0  0  0  0  0  0  0
   27.0564  -22.9911  -16.2744 C   0  0  0  0  0  0  0  0  0  0  0  0
   25.8930  -22.1512  -15.8365 C   0  0  2  0  0  0  0  0  0  0  0  0
   26.0699  -20.7781  -16.2396 N   0  0  0  0  0  0  0  0  0  0  0  0
   25.7491  -22.1985  -14.3493 C   0  0  0  0  0  0  0  0  0  0  0  0
   25.4679  -23.2996  -13.8240 O   0  0  0  0  0  0  0  0  0  0  0  0
   25.9180  -21.0571  -13.5344 N   0  0  0  0  0  0  0  0  0  0  0  0
   25.7815  -21.0569  -12.1082 C   0  0  1  0  0  0  0  0  0  0  0  0
   26.7734  -20.2117  -11.3995 C   0  0  0  0  0  0  0  0  0  0  0  0
   26.7072  -20.1426   -9.9627 C   0  0  0  0  0  0  0  0  0  0  0  0
   27.4647  -20.9308   -9.1251 C   0  0  0  0  0  0  0  0  0  0  0  0
   27.4056  -20.8706   -7.7646 C   0  0  0  0  0  0  0  0  0  0  0  0
   26.5592  -19.9916   -7.1558 C   0  0  0  0  0  0  0  0  0  0  0  0
   25.7775  -19.1783   -7.9499 C   0  0  0  0  0  0  0  0  0  0  0  0
   25.8553  -19.2581   -9.3381 C   0  0  0  0  0  0  0  0  0  0  0  0
   24.3814  -20.9172  -11.7425 C   0  0  0  0  0  0  0  0  0  0  0  0
   23.6215  -20.3283  -12.5573 O   0  0  0  0  0  0  0  0  0  0  0  0
   23.7825  -21.3860  -10.5464 N   0  0  0  0  0  0  0  0  0  0  0  0
   22.3194  -21.4553  -10.4535 C   0  0  1  0  0  0  0  0  0  0  0  0
   21.9470  -22.1873   -9.1790 C   0  0  0  0  0  0  0  0  0  0  0  0
   20.4963  -22.3898   -8.9717 C   0  0  0  0  0  0  0  0  0  0  0  0
   20.1282  -23.1706   -7.7489 C   0  0  0  0  0  0  0  0  0  0  0  0
   18.6485  -23.3198   -7.5484 C   0  0  0  0  0  0  0  0  0  0  0  0
   18.4349  -24.0211   -6.2933 N   0  0  0  0  0  0  0  0  0  0  0  0
   21.7691  -20.0972  -10.4197 C   0  0  0  0  0  0  0  0  0  0  0  0
   20.6123  -19.7055  -11.0834 O   0  0  0  0  0  0  0  0  0  0  0  0
   22.3737  -19.2098   -9.7481 O   0  0  0  0  0  0  0  0  0  0  0  0
  2  1  1  0
  3  2  1  0
  4  3  1  0
  5  4  1  0
  5  6  1  1
  7  5  1  0
  7  8  2  0
  9  7  1  0
 10  9  1  0
 10 11  1  1
 12 11  1  0
 12 13  2  0
 14 13  1  0
 15 14  2  0
 16 15  1  0
 16 17  2  0
 17 12  1  0
 18 20  1  0
 18 10  1  0
 19 18  2  0
 21 20  1  0
 21 27  1  0
 21 22  1  1
 23 22  1  0
 24 25  1  0
 24 23  1  0
 25 26  1  0
 27 29  2  0
 27 28  1  0
M  END
$$$$
