MFK.pdb
     RDKit          3D

 29 29  0  0  1  0  0  0  0  0999 V2000
   26.7403  -16.1001  -15.0582 C   0  0  0  0  0  0  0  0  0  0  0  0
   28.3601  -16.3935  -15.8214 S   0  0  0  0  0  0  0  0  0  0  0  0
   28.7705  -18.1533  -15.6730 C   0  0  0  0  0  0  0  0  0  0  0  0
   27.6161  -18.9171  -15.0598 C   0  0  0  0  0  0  0  0  0  0  0  0
   28.0671  -19.9263  -14.0455 C   0  0  2  0  0  0  0  0  0  0  0  0
   28.8436  -20.9695  -14.6685 N   0  0  0  0  0  0  0  0  0  0  0  0
   26.8867  -20.5469  -13.3701 C   0  0  0  0  0  0  0  0  0  0  0  0
   26.4290  -21.6081  -13.8515 O   0  0  0  0  0  0  0  0  0  0  0  0
   26.2837  -19.9805  -12.2251 N   0  0  0  0  0  0  0  0  0  0  0  0
   25.2575  -20.6182  -11.4550 C   0  0  1  0  0  0  0  0  0  0  0  0
   25.2309  -20.2223  -10.0257 C   0  0  0  0  0  0  0  0  0  0  0  0
   26.4534  -20.3142   -9.2703 C   0  0  0  0  0  0  0  0  0  0  0  0
   26.7341  -19.5289   -8.1743 C   0  0  0  0  0  0  0  0  0  0  0  0
   27.8897  -19.6107   -7.4561 C   0  0  0  0  0  0  0  0  0  0  0  0
   28.8518  -20.5101   -7.8099 C   0  0  0  0  0  0  0  0  0  0  0  0
   28.6202  -21.3214   -8.9013 C   0  0  0  0  0  0  0  0  0  0  0  0
   27.4315  -21.2194   -9.6197 C   0  0  0  0  0  0  0  0  0  0  0  0
   24.0031  -20.6045  -12.1899 C   0  0  0  0  0  0  0  0  0  0  0  0
   23.6633  -19.5250  -12.7442 O   0  0  0  0  0  0  0  0  0  0  0  0
   23.1175  -21.7003  -12.3458 N   0  0  0  0  0  0  0  0  0  0  0  0
   21.8700  -21.5159  -13.0966 C   0  0  1  0  0  0  0  0  0  0  0  0
   21.3797  -22.8718  -13.5656 C   0  0  0  0  0  0  0  0  0  0  0  0
   20.0596  -22.8660  -14.2334 C   0  0  0  0  0  0  0  0  0  0  0  0
   19.5553  -24.2078  -14.6643 C   0  0  0  0  0  0  0  0  0  0  0  0
   18.2650  -24.1530  -15.4286 C   0  0  0  0  0  0  0  0  0  0  0  0
   17.8561  -25.5179  -15.7158 N   0  0  0  0  0  0  0  0  0  0  0  0
   20.8635  -20.9031  -12.2249 C   0  0  0  0  0  0  0  0  0  0  0  0
   19.7856  -20.1536  -12.6817 O   0  0  0  0  0  0  0  0  0  0  0  0
   20.9669  -21.0550  -10.9719 O   0  0  0  0  0  0  0  0  0  0  0  0
  2  1  1  0
  3  2  1  0
  4  3  1  0
  5  4  1  0
  5  6  1  6
  7  5  1  0
  7  8  2  0
  9  7  1  0
 10  9  1  0
 10 11  1  1
 12 11  1  0
 12 13  2  0
 14 13  1  0
 15 14  2  0
 16 15  1  0
 16 17  2  0
 17 12  1  0
 18 20  1  0
 18 10  1  0
 19 18  2  0
 21 20  1  0
 21 27  1  0
 21 22  1  1
 23 22  1  0
 24 25  1  0
 24 23  1  0
 25 26  1  0
 27 29  2  0
 27 28  1  0
M  END
$$$$
