ISN.pdb
     RDKit          3D

 23 22  0  0  1  0  0  0  0  0999 V2000
    7.7283  -12.0024   19.2230 C   0  0  0  0  0  0  0  0  0  0  0  0
    8.1163  -13.4855   19.1614 C   0  0  0  0  0  0  0  0  0  0  0  0
    7.8639  -14.0301   20.5445 C   0  0  2  0  0  0  0  0  0  0  0  0
    8.5010  -13.1934   21.5886 C   0  0  0  0  0  0  0  0  0  0  0  0
    8.1342  -15.5111   20.6433 C   0  0  2  0  0  0  0  0  0  0  0  0
    7.2353  -16.1772   19.6784 N   0  0  0  0  0  0  0  0  0  0  0  0
    7.9050  -16.1091   21.9533 C   0  0  0  0  0  0  0  0  0  0  0  0
    6.7276  -16.2208   22.3867 O   0  0  0  0  0  0  0  0  0  0  0  0
   10.3719  -18.6548   23.8327 O   0  0  0  0  0  0  0  0  0  0  0  0
    9.0274  -18.5533   24.1805 C   0  0  0  0  0  0  0  0  0  0  0  0
    8.6019  -17.0774   24.1781 C   0  0  2  0  0  0  0  0  0  0  0  0
    8.9109  -16.6020   22.8306 N   0  0  0  0  0  0  0  0  0  0  0  0
    9.3817  -16.3223   25.1927 C   0  0  0  0  0  0  0  0  0  0  0  0
   10.4517  -15.7596   24.8489 O   0  0  0  0  0  0  0  0  0  0  0  0
    7.1089  -13.0776   27.0876 N   0  0  0  0  0  0  0  0  0  0  0  0
    8.4984  -13.3670   27.3460 C   0  0  0  0  0  0  0  0  0  0  0  0
    9.3427  -12.6148   26.7952 O   0  0  0  0  0  0  0  0  0  0  0  0
    8.8750  -14.4941   28.2147 C   0  0  0  0  0  0  0  0  0  0  0  0
    9.7765  -15.4709   27.5410 C   0  0  2  0  0  0  0  0  0  0  0  0
    8.9724  -16.2043   26.5437 N   0  0  0  0  0  0  0  0  0  0  0  0
   10.4093  -16.4725   28.4117 C   0  0  0  0  0  0  0  0  0  0  0  0
   10.0534  -17.7039   28.3149 O   0  0  0  0  0  0  0  0  0  0  0  0
   11.3777  -16.1840   29.3436 O   0  0  0  0  0  0  0  0  0  0  0  0
  2  1  1  0
  3  2  1  0
  3  4  1  1
  5  6  1  6
  5  3  1  0
  7  5  1  0
  8  7  2  0
  9 10  1  0
 11 10  1  6
 11 13  1  0
 11 12  1  0
 12  7  1  0
 13 20  1  0
 14 13  2  0
 16 15  1  0
 16 17  2  0
 18 16  1  0
 19 18  1  1
 19 21  1  0
 20 19  1  0
 21 22  2  0
 21 23  1  0
M  END
$$$$
