ISN.pdb
     RDKit          3D

 23 22  0  0  1  0  0  0  0  0999 V2000
    6.5938  -12.2997   26.9684 C   0  0  0  0  0  0  0  0  0  0  0  0
    7.5021  -13.5090   27.2269 C   0  0  0  0  0  0  0  0  0  0  0  0
    7.8161  -14.0800   25.8672 C   0  0  2  0  0  0  0  0  0  0  0  0
    8.3602  -13.0498   24.9514 C   0  0  0  0  0  0  0  0  0  0  0  0
    6.6866  -14.9121   25.3123 C   0  0  2  0  0  0  0  0  0  0  0  0
    6.3879  -15.9548   26.3156 N   0  0  0  0  0  0  0  0  0  0  0  0
    6.9565  -15.5779   24.0434 C   0  0  0  0  0  0  0  0  0  0  0  0
    7.5868  -16.6684   24.0369 O   0  0  0  0  0  0  0  0  0  0  0  0
    5.9021  -15.9948   19.3156 O   0  0  0  0  0  0  0  0  0  0  0  0
    5.8314  -15.2745   20.5051 C   0  0  0  0  0  0  0  0  0  0  0  0
    6.7703  -15.9014   21.5467 C   0  0  2  0  0  0  0  0  0  0  0  0
    6.5666  -15.1086   22.7580 N   0  0  0  0  0  0  0  0  0  0  0  0
    8.1792  -15.8022   21.0854 C   0  0  0  0  0  0  0  0  0  0  0  0
    8.5978  -16.6085   20.2168 O   0  0  0  0  0  0  0  0  0  0  0  0
    9.1744  -12.2776   18.9912 N   0  0  0  0  0  0  0  0  0  0  0  0
   10.1338  -13.3287   19.2283 C   0  0  0  0  0  0  0  0  0  0  0  0
   10.3883  -14.0887   18.2590 O   0  0  0  0  0  0  0  0  0  0  0  0
   10.7641  -13.4769   20.5503 C   0  0  0  0  0  0  0  0  0  0  0  0
   10.5015  -14.8048   21.1735 C   0  0  2  0  0  0  0  0  0  0  0  0
    9.0834  -14.8318   21.5828 N   0  0  0  0  0  0  0  0  0  0  0  0
   11.3037  -15.1305   22.3617 C   0  0  0  0  0  0  0  0  0  0  0  0
   11.7429  -16.3289   22.5143 O   0  0  0  0  0  0  0  0  0  0  0  0
   11.6284  -14.2270   23.3455 O   0  0  0  0  0  0  0  0  0  0  0  0
  2  1  1  0
  3  2  1  0
  3  4  1  6
  5  6  1  1
  5  3  1  0
  7  5  1  0
  8  7  2  0
  9 10  1  0
 11 10  1  6
 11 13  1  0
 11 12  1  0
 12  7  1  0
 13 20  1  0
 14 13  2  0
 16 15  1  0
 16 17  2  0
 18 16  1  0
 19 18  1  1
 19 21  1  0
 20 19  1  0
 21 22  2  0
 21 23  1  0
M  END
$$$$
