ISN.pdb
     RDKit          3D

 23 22  0  0  1  0  0  0  0  0999 V2000
    5.2224  -23.2522   19.5102 C   0  0  0  0  0  0  0  0  0  0  0  0
    4.6068  -22.0758   20.2792 C   0  0  0  0  0  0  0  0  0  0  0  0
    5.7611  -21.3883   20.9634 C   0  0  2  0  0  0  0  0  0  0  0  0
    6.7023  -22.3626   21.5642 C   0  0  0  0  0  0  0  0  0  0  0  0
    5.3143  -20.2703   21.8726 C   0  0  2  0  0  0  0  0  0  0  0  0
    4.5219  -19.3357   21.0469 N   0  0  0  0  0  0  0  0  0  0  0  0
    6.3823  -19.5084   22.5090 C   0  0  0  0  0  0  0  0  0  0  0  0
    7.4161  -19.2199   21.8498 O   0  0  0  0  0  0  0  0  0  0  0  0
    5.8761  -17.6616   26.0099 O   0  0  0  0  0  0  0  0  0  0  0  0
    6.9577  -17.2099   25.2582 C   0  0  0  0  0  0  0  0  0  0  0  0
    7.5425  -18.3723   24.4420 C   0  0  2  0  0  0  0  0  0  0  0  0
    6.3811  -19.0348   23.8508 N   0  0  0  0  0  0  0  0  0  0  0  0
    8.2777  -19.3025   25.3375 C   0  0  0  0  0  0  0  0  0  0  0  0
    7.6731  -20.2915   25.8233 O   0  0  0  0  0  0  0  0  0  0  0  0
   13.8173  -20.9807   26.9416 N   0  0  0  0  0  0  0  0  0  0  0  0
   12.4689  -21.3741   26.6126 C   0  0  0  0  0  0  0  0  0  0  0  0
   12.0890  -22.4950   27.0383 O   0  0  0  0  0  0  0  0  0  0  0  0
   11.6075  -20.4851   25.8161 C   0  0  0  0  0  0  0  0  0  0  0  0
   10.3639  -20.0854   26.5334 C   0  0  2  0  0  0  0  0  0  0  0  0
    9.6425  -19.1267   25.6734 N   0  0  0  0  0  0  0  0  0  0  0  0
   10.5517  -19.4410   27.8415 C   0  0  0  0  0  0  0  0  0  0  0  0
   10.8126  -20.1685   28.8687 O   0  0  0  0  0  0  0  0  0  0  0  0
   10.4685  -18.0854   28.0534 O   0  0  0  0  0  0  0  0  0  0  0  0
  2  1  1  0
  3  2  1  0
  3  4  1  1
  5  6  1  6
  5  3  1  0
  7  5  1  0
  8  7  2  0
  9 10  1  0
 11 10  1  1
 11 13  1  0
 11 12  1  0
 12  7  1  0
 13 20  1  0
 14 13  2  0
 16 15  1  0
 16 17  2  0
 18 16  1  0
 19 18  1  6
 19 21  1  0
 20 19  1  0
 21 22  2  0
 21 23  1  0
M  END
$$$$
