ISN.pdb
     RDKit          3D

 23 22  0  0  1  0  0  0  0  0999 V2000
    8.4332  -12.2626   18.9502 C   0  0  0  0  0  0  0  0  0  0  0  0
    8.1262  -12.9655   20.2791 C   0  0  0  0  0  0  0  0  0  0  0  0
    8.0080  -14.4313   19.9464 C   0  0  2  0  0  0  0  0  0  0  0  0
    7.0284  -14.6705   18.8604 C   0  0  0  0  0  0  0  0  0  0  0  0
    7.8420  -15.2933   21.1734 C   0  0  2  0  0  0  0  0  0  0  0  0
    6.5659  -14.8997   21.8055 N   0  0  0  0  0  0  0  0  0  0  0  0
    8.8931  -15.1732   22.1769 C   0  0  0  0  0  0  0  0  0  0  0  0
    8.7684  -14.3344   23.1082 O   0  0  0  0  0  0  0  0  0  0  0  0
   10.5601  -17.5586   24.2175 O   0  0  0  0  0  0  0  0  0  0  0  0
   10.9316  -16.2324   24.4224 C   0  0  0  0  0  0  0  0  0  0  0  0
   11.2216  -15.5612   23.0716 C   0  0  2  0  0  0  0  0  0  0  0  0
   10.0941  -15.9349   22.2193 N   0  0  0  0  0  0  0  0  0  0  0  0
   12.4969  -16.0778   22.5110 C   0  0  0  0  0  0  0  0  0  0  0  0
   12.5967  -17.3013   22.2414 O   0  0  0  0  0  0  0  0  0  0  0  0
   13.9922  -13.4924   19.2452 N   0  0  0  0  0  0  0  0  0  0  0  0
   14.6631  -14.7262   19.5753 C   0  0  0  0  0  0  0  0  0  0  0  0
   14.5185  -15.6799   18.7681 O   0  0  0  0  0  0  0  0  0  0  0  0
   15.4681  -14.8304   20.8034 C   0  0  0  0  0  0  0  0  0  0  0  0
   14.9039  -15.7967   21.7876 C   0  0  2  0  0  0  0  0  0  0  0  0
   13.6182  -15.2485   22.2627 N   0  0  0  0  0  0  0  0  0  0  0  0
   15.7283  -16.0644   22.9751 C   0  0  0  0  0  0  0  0  0  0  0  0
   16.9109  -16.5451   22.8237 O   0  0  0  0  0  0  0  0  0  0  0  0
   15.3199  -15.8324   24.2670 O   0  0  0  0  0  0  0  0  0  0  0  0
  2  1  1  0
  3  2  1  0
  3  4  1  6
  5  6  1  1
  5  3  1  0
  7  5  1  0
  8  7  2  0
  9 10  1  0
 11 10  1  1
 11 13  1  0
 11 12  1  0
 12  7  1  0
 13 20  1  0
 14 13  2  0
 16 15  1  0
 16 17  2  0
 18 16  1  0
 19 18  1  6
 19 21  1  0
 20 19  1  0
 21 22  2  0
 21 23  1  0
M  END
$$$$
