ISN.pdb
     RDKit          3D

 23 22  0  0  1  0  0  0  0  0999 V2000
    6.9469  -11.3605   27.1675 C   0  0  0  0  0  0  0  0  0  0  0  0
    6.1242  -12.4671   26.4946 C   0  0  0  0  0  0  0  0  0  0  0  0
    7.1229  -13.3324   25.7686 C   0  0  2  0  0  0  0  0  0  0  0  0
    8.0487  -12.5251   24.9396 C   0  0  0  0  0  0  0  0  0  0  0  0
    6.4767  -14.5028   25.0695 C   0  0  2  0  0  0  0  0  0  0  0  0
    5.7586  -15.2773   26.1027 N   0  0  0  0  0  0  0  0  0  0  0  0
    7.3884  -15.4111   24.3839 C   0  0  0  0  0  0  0  0  0  0  0  0
    8.0250  -16.2703   25.0496 O   0  0  0  0  0  0  0  0  0  0  0  0
    8.6212  -14.6165   20.7134 O   0  0  0  0  0  0  0  0  0  0  0  0
    8.6150  -15.9975   20.8907 C   0  0  0  0  0  0  0  0  0  0  0  0
    8.6378  -16.3271   22.3907 C   0  0  2  0  0  0  0  0  0  0  0  0
    7.6457  -15.4327   22.9846 N   0  0  0  0  0  0  0  0  0  0  0  0
    9.9880  -16.0581   22.9494 C   0  0  0  0  0  0  0  0  0  0  0  0
   10.2888  -14.8856   23.2877 O   0  0  0  0  0  0  0  0  0  0  0  0
   11.1026  -19.6182   25.6393 N   0  0  0  0  0  0  0  0  0  0  0  0
   11.8305  -18.3730   25.6099 C   0  0  0  0  0  0  0  0  0  0  0  0
   11.6847  -17.6114   26.6002 O   0  0  0  0  0  0  0  0  0  0  0  0
   12.6914  -18.0409   24.4630 C   0  0  0  0  0  0  0  0  0  0  0  0
   12.2669  -16.7982   23.7585 C   0  0  2  0  0  0  0  0  0  0  0  0
   10.9634  -17.0708   23.1215 N   0  0  0  0  0  0  0  0  0  0  0  0
   13.1717  -16.3106   22.7073 C   0  0  0  0  0  0  0  0  0  0  0  0
   14.3411  -15.8867   23.0316 O   0  0  0  0  0  0  0  0  0  0  0  0
   12.8536  -16.2744   21.3705 O   0  0  0  0  0  0  0  0  0  0  0  0
  2  1  1  0
  3  2  1  0
  3  4  1  6
  5  6  1  1
  5  3  1  0
  7  5  1  0
  8  7  2  0
  9 10  1  0
 11 10  1  6
 11 13  1  0
 11 12  1  0
 12  7  1  0
 13 20  1  0
 14 13  2  0
 16 15  1  0
 16 17  2  0
 18 16  1  0
 19 18  1  6
 19 21  1  0
 20 19  1  0
 21 22  2  0
 21 23  1  0
M  END
$$$$
