ISN.pdb
     RDKit          3D

 23 22  0  0  1  0  0  0  0  0999 V2000
    7.6649  -21.4618   15.8503 C   0  0  0  0  0  0  0  0  0  0  0  0
    7.2902  -19.9779   15.7411 C   0  0  0  0  0  0  0  0  0  0  0  0
    7.9031  -19.3135   16.9478 C   0  0  2  0  0  0  0  0  0  0  0  0
    7.6223  -20.0682   18.1919 C   0  0  0  0  0  0  0  0  0  0  0  0
    7.6135  -17.8340   17.0054 C   0  0  2  0  0  0  0  0  0  0  0  0
    8.0988  -17.2516   15.7372 N   0  0  0  0  0  0  0  0  0  0  0  0
    8.2461  -17.1085   18.1007 C   0  0  0  0  0  0  0  0  0  0  0  0
    9.5027  -17.0827   18.1836 O   0  0  0  0  0  0  0  0  0  0  0  0
    6.2825  -15.6941   21.5097 O   0  0  0  0  0  0  0  0  0  0  0  0
    7.2134  -14.8556   20.9020 C   0  0  0  0  0  0  0  0  0  0  0  0
    8.2849  -15.6982   20.1942 C   0  0  2  0  0  0  0  0  0  0  0  0
    7.5675  -16.3955   19.1282 N   0  0  0  0  0  0  0  0  0  0  0  0
    8.8800  -16.6692   21.1485 C   0  0  0  0  0  0  0  0  0  0  0  0
    8.6285  -17.8933   21.0139 O   0  0  0  0  0  0  0  0  0  0  0  0
   12.7254  -19.8800   21.9959 N   0  0  0  0  0  0  0  0  0  0  0  0
   12.7512  -18.4626   22.2630 C   0  0  0  0  0  0  0  0  0  0  0  0
   13.7253  -18.0329   22.9327 O   0  0  0  0  0  0  0  0  0  0  0  0
   11.6754  -17.5911   21.7629 C   0  0  0  0  0  0  0  0  0  0  0  0
   10.6985  -17.2085   22.8211 C   0  0  2  0  0  0  0  0  0  0  0  0
    9.7268  -16.2774   22.2143 N   0  0  0  0  0  0  0  0  0  0  0  0
   11.2582  -16.5421   24.0062 C   0  0  0  0  0  0  0  0  0  0  0  0
   11.4184  -17.2160   25.0890 O   0  0  0  0  0  0  0  0  0  0  0  0
   11.6334  -15.2203   24.0436 O   0  0  0  0  0  0  0  0  0  0  0  0
  2  1  1  0
  3  2  1  0
  3  4  1  1
  5  6  1  6
  5  3  1  0
  7  5  1  0
  8  7  2  0
  9 10  1  0
 11 10  1  1
 11 13  1  0
 11 12  1  0
 12  7  1  0
 13 20  1  0
 14 13  2  0
 16 15  1  0
 16 17  2  0
 18 16  1  0
 19 18  1  6
 19 21  1  0
 20 19  1  0
 21 22  2  0
 21 23  1  0
M  END
$$$$
