ISN.pdb
     RDKit          3D

 23 22  0  0  1  0  0  0  0  0999 V2000
    8.2049  -12.0280   20.8430 C   0  0  0  0  0  0  0  0  0  0  0  0
    8.0993  -13.5497   20.6763 C   0  0  0  0  0  0  0  0  0  0  0  0
    8.3784  -13.8198   19.2195 C   0  0  2  0  0  0  0  0  0  0  0  0
    7.6027  -12.9181   18.3355 C   0  0  0  0  0  0  0  0  0  0  0  0
    8.3050  -15.2873   18.8770 C   0  0  2  0  0  0  0  0  0  0  0  0
    6.8915  -15.6922   19.0221 N   0  0  0  0  0  0  0  0  0  0  0  0
    9.1106  -16.1717   19.7107 C   0  0  0  0  0  0  0  0  0  0  0  0
    8.6225  -16.6352   20.7753 O   0  0  0  0  0  0  0  0  0  0  0  0
   12.9895  -17.3403   18.7697 O   0  0  0  0  0  0  0  0  0  0  0  0
   12.1466  -18.2425   19.4134 C   0  0  0  0  0  0  0  0  0  0  0  0
   11.1775  -17.4819   20.3307 C   0  0  2  0  0  0  0  0  0  0  0  0
   10.4444  -16.5857   19.4382 N   0  0  0  0  0  0  0  0  0  0  0  0
   11.9395  -16.7061   21.3432 C   0  0  0  0  0  0  0  0  0  0  0  0
   12.2350  -15.5084   21.1025 O   0  0  0  0  0  0  0  0  0  0  0  0
   10.6828  -15.3873   24.3034 N   0  0  0  0  0  0  0  0  0  0  0  0
   11.3518  -16.2452   25.2509 C   0  0  0  0  0  0  0  0  0  0  0  0
   10.7670  -16.4376   26.3478 O   0  0  0  0  0  0  0  0  0  0  0  0
   12.6529  -16.8485   24.9195 C   0  0  0  0  0  0  0  0  0  0  0  0
   13.1359  -16.4771   23.5595 C   0  0  2  0  0  0  0  0  0  0  0  0
   12.3534  -17.2575   22.5807 N   0  0  0  0  0  0  0  0  0  0  0  0
   14.5571  -16.7357   23.2860 C   0  0  0  0  0  0  0  0  0  0  0  0
   14.9461  -17.9417   23.0698 O   0  0  0  0  0  0  0  0  0  0  0  0
   15.5249  -15.7605   23.2420 O   0  0  0  0  0  0  0  0  0  0  0  0
  2  1  1  0
  3  2  1  0
  3  4  1  6
  5  6  1  1
  5  3  1  0
  7  5  1  0
  8  7  2  0
  9 10  1  0
 11 10  1  6
 11 13  1  0
 11 12  1  0
 12  7  1  0
 13 20  1  0
 14 13  2  0
 16 15  1  0
 16 17  2  0
 18 16  1  0
 19 18  1  1
 19 21  1  0
 20 19  1  0
 21 22  2  0
 21 23  1  0
M  END
$$$$
