ISN.pdb
     RDKit          3D

 23 22  0  0  1  0  0  0  0  0999 V2000
    7.2725  -11.9445   19.6016 C   0  0  0  0  0  0  0  0  0  0  0  0
    7.9069  -13.1927   18.9740 C   0  0  0  0  0  0  0  0  0  0  0  0
    8.2636  -14.0928   20.1298 C   0  0  2  0  0  0  0  0  0  0  0  0
    8.9932  -13.3602   21.1914 C   0  0  0  0  0  0  0  0  0  0  0  0
    8.8941  -15.3886   19.6830 C   0  0  2  0  0  0  0  0  0  0  0  0
    7.9672  -16.0047   18.7112 N   0  0  0  0  0  0  0  0  0  0  0  0
    9.1489  -16.3636   20.7369 C   0  0  0  0  0  0  0  0  0  0  0  0
    8.1788  -16.9415   21.2949 O   0  0  0  0  0  0  0  0  0  0  0  0
   12.8854  -17.1077   22.2604 O   0  0  0  0  0  0  0  0  0  0  0  0
   12.0771  -18.2278   22.0842 C   0  0  0  0  0  0  0  0  0  0  0  0
   10.5997  -17.8234   22.1988 C   0  0  2  0  0  0  0  0  0  0  0  0
   10.4298  -16.7493   21.2217 N   0  0  0  0  0  0  0  0  0  0  0  0
   10.3120  -17.3340   23.5719 C   0  0  0  0  0  0  0  0  0  0  0  0
   10.6011  -16.1485   23.8731 O   0  0  0  0  0  0  0  0  0  0  0  0
    6.0198  -17.4185   24.8088 N   0  0  0  0  0  0  0  0  0  0  0  0
    7.1965  -16.9159   25.4751 C   0  0  0  0  0  0  0  0  0  0  0  0
    7.4346  -15.6874   25.3484 O   0  0  0  0  0  0  0  0  0  0  0  0
    8.0545  -17.8224   26.2555 C   0  0  0  0  0  0  0  0  0  0  0  0
    9.5032  -17.6615   25.9455 C   0  0  2  0  0  0  0  0  0  0  0  0
    9.7206  -18.1481   24.5689 N   0  0  0  0  0  0  0  0  0  0  0  0
   10.4351  -18.3914   26.8175 C   0  0  0  0  0  0  0  0  0  0  0  0
   11.1335  -19.3523   26.3263 O   0  0  0  0  0  0  0  0  0  0  0  0
   10.6211  -18.1159   28.1513 O   0  0  0  0  0  0  0  0  0  0  0  0
  2  1  1  0
  3  2  1  0
  3  4  1  1
  5  6  1  6
  5  3  1  0
  7  5  1  0
  8  7  2  0
  9 10  1  0
 11 10  1  1
 11 13  1  0
 11 12  1  0
 12  7  1  0
 13 20  1  0
 14 13  2  0
 16 15  1  0
 16 17  2  0
 18 16  1  0
 19 18  1  1
 19 21  1  0
 20 19  1  0
 21 22  2  0
 21 23  1  0
M  END
$$$$
