HQY.pdb
     RDKit          3D

 32 33  0  0  1  0  0  0  0  0999 V2000
   26.1983  -27.6326  -18.1159 N   0  0  0  0  0  0  0  0  0  0  0  0
   25.9678  -27.7460  -16.6968 C   0  0  1  0  0  0  0  0  0  0  0  0
   27.1772  -28.3445  -16.0108 C   0  0  0  0  0  0  0  0  0  0  0  0
   27.3392  -29.7647  -16.4566 C   0  0  0  0  0  0  0  0  0  0  0  0
   26.7847  -30.8876  -15.8678 C   0  0  0  0  0  0  0  0  0  0  0  0
   27.1588  -31.9805  -16.5556 N   0  0  0  0  0  0  0  0  0  0  0  0
   27.9370  -31.5505  -17.5617 C   0  0  0  0  0  0  0  0  0  0  0  0
   28.0514  -30.2125  -17.5094 N   0  0  0  0  0  0  0  0  0  0  0  0
   25.6030  -26.4337  -16.1419 C   0  0  0  0  0  0  0  0  0  0  0  0
   25.3872  -26.2970  -14.8943 O   0  0  0  0  0  0  0  0  0  0  0  0
   27.9007  -21.1368  -18.1157 N   0  0  0  0  0  0  0  0  0  0  0  0
   28.4052  -22.1470  -17.2642 C   0  0  0  0  0  0  0  0  0  0  0  0
   29.6340  -22.2166  -17.0519 O   0  0  0  0  0  0  0  0  0  0  0  0
   27.4984  -23.1151  -16.6281 C   0  0  0  0  0  0  0  0  0  0  0  0
   26.0594  -22.9384  -16.9868 C   0  0  0  0  0  0  0  0  0  0  0  0
   25.1220  -23.9527  -16.3969 C   0  0  2  0  0  0  0  0  0  0  0  0
   25.4795  -25.2850  -16.9674 N   0  0  0  0  0  0  0  0  0  0  0  0
   23.7018  -23.7578  -16.7288 C   0  0  0  0  0  0  0  0  0  0  0  0
   23.2960  -24.1124  -17.8924 O   0  0  0  0  0  0  0  0  0  0  0  0
   15.3776  -23.7518  -18.5056 O   0  0  0  0  0  0  0  0  0  0  0  0
   16.6978  -23.9174  -18.0583 C   0  0  0  0  0  0  0  0  0  0  0  0
   16.9708  -24.3920  -16.7906 C   0  0  0  0  0  0  0  0  0  0  0  0
   18.2530  -24.5672  -16.3185 C   0  0  0  0  0  0  0  0  0  0  0  0
   19.3462  -24.2598  -17.1352 C   0  0  0  0  0  0  0  0  0  0  0  0
   20.7341  -24.4098  -16.6581 C   0  0  0  0  0  0  0  0  0  0  0  0
   21.3113  -23.0739  -16.3268 C   0  0  2  0  0  0  0  0  0  0  0  0
   22.7088  -23.2096  -15.8789 N   0  0  0  0  0  0  0  0  0  0  0  0
   20.5434  -22.4161  -15.2667 C   0  0  0  0  0  0  0  0  0  0  0  0
   20.9508  -22.2075  -14.1151 O   0  0  0  0  0  0  0  0  0  0  0  0
   19.0514  -23.7801  -18.4160 C   0  0  0  0  0  0  0  0  0  0  0  0
   17.7685  -23.6125  -18.8682 C   0  0  0  0  0  0  0  0  0  0  0  0
   19.2452  -21.9783  -15.5471 O   0  0  0  0  0  0  0  0  0  0  0  0
  2  3  1  0
  2  1  1  6
  3  4  1  0
  4  5  2  0
  6  5  1  0
  7  6  1  0
  8  7  2  0
  8  4  1  0
  9  2  1  0
  9 10  2  0
 11 12  1  0
 12 14  1  0
 13 12  2  0
 14 15  1  0
 16 15  1  6
 16 17  1  0
 17  9  1  0
 18 16  1  0
 18 27  1  0
 19 18  2  0
 20 21  1  0
 21 22  2  0
 21 31  1  0
 22 23  1  0
 23 24  2  0
 24 25  1  0
 26 25  1  1
 26 27  1  0
 26 28  1  0
 28 29  2  0
 28 32  1  0
 30 24  1  0
 31 30  2  0
M  END
$$$$
