HQY.pdb
     RDKit          3D

 32 33  0  0  1  0  0  0  0  0999 V2000
   31.1356   -9.0631  -19.3948 N   0  0  0  0  0  0  0  0  0  0  0  0
   30.4420   -8.7827  -18.1618 C   0  0  1  0  0  0  0  0  0  0  0  0
   30.6355   -7.3351  -17.7635 C   0  0  0  0  0  0  0  0  0  0  0  0
   32.0508   -7.1359  -17.3171 C   0  0  0  0  0  0  0  0  0  0  0  0
   32.4811   -6.8134  -16.0420 C   0  0  0  0  0  0  0  0  0  0  0  0
   33.8223   -6.7208  -16.0359 N   0  0  0  0  0  0  0  0  0  0  0  0
   34.2286   -6.9814  -17.2887 C   0  0  0  0  0  0  0  0  0  0  0  0
   33.1645   -7.2334  -18.0698 N   0  0  0  0  0  0  0  0  0  0  0  0
   29.0216   -9.1411  -18.2931 C   0  0  0  0  0  0  0  0  0  0  0  0
   28.3970   -8.9188  -19.3804 O   0  0  0  0  0  0  0  0  0  0  0  0
   26.3525  -13.9474  -15.3499 N   0  0  0  0  0  0  0  0  0  0  0  0
   25.2341  -13.3613  -15.9868 C   0  0  0  0  0  0  0  0  0  0  0  0
   24.1283  -13.9404  -15.9456 O   0  0  0  0  0  0  0  0  0  0  0  0
   25.3607  -12.0788  -16.6965 C   0  0  0  0  0  0  0  0  0  0  0  0
   26.7365  -11.4980  -16.6777 C   0  0  0  0  0  0  0  0  0  0  0  0
   26.8888  -10.1862  -17.3928 C   0  0  2  0  0  0  0  0  0  0  0  0
   28.3036   -9.7409  -17.2249 N   0  0  0  0  0  0  0  0  0  0  0  0
   26.0706   -9.0856  -16.8596 C   0  0  0  0  0  0  0  0  0  0  0  0
   26.4740   -8.4876  -15.7994 O   0  0  0  0  0  0  0  0  0  0  0  0
   20.0245   -9.3403  -21.2564 O   0  0  0  0  0  0  0  0  0  0  0  0
   20.9152   -8.6414  -20.4267 C   0  0  0  0  0  0  0  0  0  0  0  0
   22.2671   -8.5955  -20.7043 C   0  0  0  0  0  0  0  0  0  0  0  0
   23.1699   -7.9198  -19.9131 C   0  0  0  0  0  0  0  0  0  0  0  0
   22.7281   -7.2413  -18.7724 C   0  0  0  0  0  0  0  0  0  0  0  0
   23.6663   -6.5271  -17.8857 C   0  0  0  0  0  0  0  0  0  0  0  0
   24.1618   -7.4429  -16.8166 C   0  0  2  0  0  0  0  0  0  0  0  0
   24.8562   -8.6011  -17.4068 N   0  0  0  0  0  0  0  0  0  0  0  0
   23.0570   -7.9334  -15.9889 C   0  0  0  0  0  0  0  0  0  0  0  0
   22.6913   -9.1151  -15.9146 O   0  0  0  0  0  0  0  0  0  0  0  0
   21.3558   -7.2985  -18.5060 C   0  0  0  0  0  0  0  0  0  0  0  0
   20.4727   -7.9762  -19.3056 C   0  0  0  0  0  0  0  0  0  0  0  0
   22.3404   -7.0192  -15.2103 O   0  0  0  0  0  0  0  0  0  0  0  0
  2  3  1  0
  2  1  1  6
  3  4  1  0
  4  5  2  0
  6  5  1  0
  7  6  1  0
  8  7  2  0
  8  4  1  0
  9  2  1  0
  9 10  2  0
 11 12  1  0
 12 14  1  0
 13 12  2  0
 14 15  1  0
 16 15  1  1
 16 17  1  0
 17  9  1  0
 18 16  1  0
 18 27  1  0
 19 18  2  0
 20 21  1  0
 21 22  2  0
 21 31  1  0
 22 23  1  0
 23 24  2  0
 24 25  1  0
 26 25  1  6
 26 27  1  0
 26 28  1  0
 28 29  2  0
 28 32  1  0
 30 24  1  0
 31 30  2  0
M  END
$$$$
