HQY.pdb
     RDKit          3D

 32 33  0  0  1  0  0  0  0  0999 V2000
   28.8093  -23.9867  -16.6678 N   0  0  0  0  0  0  0  0  0  0  0  0
   27.3701  -24.0209  -16.7542 C   0  0  1  0  0  0  0  0  0  0  0  0
   26.8286  -25.2582  -16.0704 C   0  0  0  0  0  0  0  0  0  0  0  0
   27.3040  -26.4718  -16.8075 C   0  0  0  0  0  0  0  0  0  0  0  0
   26.9179  -26.8784  -18.0727 C   0  0  0  0  0  0  0  0  0  0  0  0
   27.5629  -28.0144  -18.3903 N   0  0  0  0  0  0  0  0  0  0  0  0
   28.3427  -28.3170  -17.3401 C   0  0  0  0  0  0  0  0  0  0  0  0
   28.1925  -27.3899  -16.3789 N   0  0  0  0  0  0  0  0  0  0  0  0
   26.8050  -22.7823  -16.1977 C   0  0  0  0  0  0  0  0  0  0  0  0
   27.2762  -22.2816  -15.1258 O   0  0  0  0  0  0  0  0  0  0  0  0
   24.9189  -17.9660  -19.5156 N   0  0  0  0  0  0  0  0  0  0  0  0
   24.4571  -17.5827  -18.2350 C   0  0  0  0  0  0  0  0  0  0  0  0
   24.0062  -16.4308  -18.0620 O   0  0  0  0  0  0  0  0  0  0  0  0
   24.5033  -18.5257  -17.1067 C   0  0  0  0  0  0  0  0  0  0  0  0
   25.0843  -19.8598  -17.4428 C   0  0  0  0  0  0  0  0  0  0  0  0
   25.1962  -20.8190  -16.2927 C   0  0  2  0  0  0  0  0  0  0  0  0
   25.7261  -22.1077  -16.8280 N   0  0  0  0  0  0  0  0  0  0  0  0
   23.9228  -21.1646  -15.6415 C   0  0  0  0  0  0  0  0  0  0  0  0
   23.2209  -22.1122  -16.1451 O   0  0  0  0  0  0  0  0  0  0  0  0
   16.3073  -21.1485  -11.2358 O   0  0  0  0  0  0  0  0  0  0  0  0
   17.6472  -20.9262  -11.5902 C   0  0  0  0  0  0  0  0  0  0  0  0
   18.0628  -19.7097  -12.0943 C   0  0  0  0  0  0  0  0  0  0  0  0
   19.3686  -19.4560  -12.4523 C   0  0  0  0  0  0  0  0  0  0  0  0
   20.3382  -20.4542  -12.3106 C   0  0  0  0  0  0  0  0  0  0  0  0
   21.7418  -20.2303  -12.7058 C   0  0  0  0  0  0  0  0  0  0  0  0
   22.0095  -20.8605  -14.0320 C   0  0  2  0  0  0  0  0  0  0  0  0
   23.3764  -20.5498  -14.4872 N   0  0  0  0  0  0  0  0  0  0  0  0
   21.0617  -20.3845  -15.0427 C   0  0  0  0  0  0  0  0  0  0  0  0
   19.9973  -20.9440  -15.3420 O   0  0  0  0  0  0  0  0  0  0  0  0
   19.8998  -21.6803  -11.7988 C   0  0  0  0  0  0  0  0  0  0  0  0
   18.5956  -21.9138  -11.4479 C   0  0  0  0  0  0  0  0  0  0  0  0
   21.3545  -19.2088  -15.7408 O   0  0  0  0  0  0  0  0  0  0  0  0
  2  3  1  0
  2  1  1  1
  3  4  1  0
  4  5  2  0
  6  5  1  0
  7  6  1  0
  8  7  2  0
  8  4  1  0
  9  2  1  0
  9 10  2  0
 11 12  1  0
 12 14  1  0
 13 12  2  0
 14 15  1  0
 16 15  1  6
 16 17  1  0
 17  9  1  0
 18 16  1  0
 18 27  1  0
 19 18  2  0
 20 21  1  0
 21 22  2  0
 21 31  1  0
 22 23  1  0
 23 24  2  0
 24 25  1  0
 26 25  1  1
 26 27  1  0
 26 28  1  0
 28 29  2  0
 28 32  1  0
 30 24  1  0
 31 30  2  0
M  END
$$$$
