HQY.pdb
     RDKit          3D

 32 33  0  0  1  0  0  0  0  0999 V2000
   26.2207  -18.1583  -16.2946 N   0  0  0  0  0  0  0  0  0  0  0  0
   26.9841  -18.4843  -15.1152 C   0  0  1  0  0  0  0  0  0  0  0  0
   27.9498  -17.3665  -14.7847 C   0  0  0  0  0  0  0  0  0  0  0  0
   28.8762  -17.1621  -15.9432 C   0  0  0  0  0  0  0  0  0  0  0  0
   30.0478  -17.8521  -16.2005 C   0  0  0  0  0  0  0  0  0  0  0  0
   30.5998  -17.3835  -17.3332 N   0  0  0  0  0  0  0  0  0  0  0  0
   29.7869  -16.4132  -17.7809 C   0  0  0  0  0  0  0  0  0  0  0  0
   28.7426  -16.2727  -16.9468 N   0  0  0  0  0  0  0  0  0  0  0  0
   26.0763  -18.7872  -13.9984 C   0  0  0  0  0  0  0  0  0  0  0  0
   25.2372  -17.9188  -13.5942 O   0  0  0  0  0  0  0  0  0  0  0  0
   21.8617  -21.9400  -13.8901 N   0  0  0  0  0  0  0  0  0  0  0  0
   21.9754  -22.1676  -12.4989 C   0  0  0  0  0  0  0  0  0  0  0  0
   20.9541  -22.4405  -11.8339 O   0  0  0  0  0  0  0  0  0  0  0  0
   23.2826  -22.0855  -11.8289 C   0  0  0  0  0  0  0  0  0  0  0  0
   24.4016  -21.6445  -12.7142 C   0  0  0  0  0  0  0  0  0  0  0  0
   25.1036  -20.3887  -12.2836 C   0  0  2  0  0  0  0  0  0  0  0  0
   26.1022  -20.0440  -13.3381 N   0  0  0  0  0  0  0  0  0  0  0  0
   25.8791  -20.5025  -11.0382 C   0  0  0  0  0  0  0  0  0  0  0  0
   27.0419  -21.0402  -11.0942 O   0  0  0  0  0  0  0  0  0  0  0  0
   29.3474  -20.0664   -2.9877 O   0  0  0  0  0  0  0  0  0  0  0  0
   28.7380  -19.8123   -4.2264 C   0  0  0  0  0  0  0  0  0  0  0  0
   27.4151  -19.4251   -4.3082 C   0  0  0  0  0  0  0  0  0  0  0  0
   26.7846  -19.1673   -5.5057 C   0  0  0  0  0  0  0  0  0  0  0  0
   27.4890  -19.2948   -6.7074 C   0  0  0  0  0  0  0  0  0  0  0  0
   26.8433  -19.0522   -8.0115 C   0  0  0  0  0  0  0  0  0  0  0  0
   26.2980  -20.3283   -8.5608 C   0  0  2  0  0  0  0  0  0  0  0  0
   25.4706  -20.0682   -9.7524 N   0  0  0  0  0  0  0  0  0  0  0  0
   25.4772  -21.0225   -7.5654 C   0  0  0  0  0  0  0  0  0  0  0  0
   24.2485  -20.9098   -7.4500 O   0  0  0  0  0  0  0  0  0  0  0  0
   28.8278  -19.6882   -6.6061 C   0  0  0  0  0  0  0  0  0  0  0  0
   29.4379  -19.9402   -5.4050 C   0  0  0  0  0  0  0  0  0  0  0  0
   26.1018  -21.8870   -6.6610 O   0  0  0  0  0  0  0  0  0  0  0  0
  2  3  1  0
  2  1  1  6
  3  4  1  0
  4  5  2  0
  6  5  1  0
  7  6  1  0
  8  7  2  0
  8  4  1  0
  9  2  1  0
  9 10  2  0
 11 12  1  0
 12 14  1  0
 13 12  2  0
 14 15  1  0
 16 15  1  6
 16 17  1  0
 17  9  1  0
 18 16  1  0
 18 27  1  0
 19 18  2  0
 20 21  1  0
 21 22  2  0
 21 31  1  0
 22 23  1  0
 23 24  2  0
 24 25  1  0
 26 25  1  1
 26 27  1  0
 26 28  1  0
 28 29  2  0
 28 32  1  0
 30 24  1  0
 31 30  2  0
M  END
$$$$
