HQY.pdb
     RDKit          3D

 32 33  0  0  1  0  0  0  0  0999 V2000
   13.7732  -20.1690    3.3363 N   0  0  0  0  0  0  0  0  0  0  0  0
   15.0885  -20.4409    3.8618 C   0  0  1  0  0  0  0  0  0  0  0  0
   16.1335  -20.2858    2.7778 C   0  0  0  0  0  0  0  0  0  0  0  0
   15.8751  -21.2943    1.7016 C   0  0  0  0  0  0  0  0  0  0  0  0
   16.2050  -22.6380    1.7270 C   0  0  0  0  0  0  0  0  0  0  0  0
   15.8102  -23.2142    0.5783 N   0  0  0  0  0  0  0  0  0  0  0  0
   15.2406  -22.2467   -0.1580 C   0  0  0  0  0  0  0  0  0  0  0  0
   15.2755  -21.0830    0.5133 N   0  0  0  0  0  0  0  0  0  0  0  0
   15.3535  -19.5760    5.0215 C   0  0  0  0  0  0  0  0  0  0  0  0
   14.8586  -18.4041    5.0800 O   0  0  0  0  0  0  0  0  0  0  0  0
   17.6283  -21.7534   10.5598 N   0  0  0  0  0  0  0  0  0  0  0  0
   17.4957  -20.3682   10.8123 C   0  0  0  0  0  0  0  0  0  0  0  0
   17.7497  -19.9226   11.9511 O   0  0  0  0  0  0  0  0  0  0  0  0
   17.0617  -19.4491    9.7487 C   0  0  0  0  0  0  0  0  0  0  0  0
   16.7895  -20.1098    8.4373 C   0  0  0  0  0  0  0  0  0  0  0  0
   16.2938  -19.1992    7.3508 C   0  0  2  0  0  0  0  0  0  0  0  0
   16.1613  -20.0111    6.1052 N   0  0  0  0  0  0  0  0  0  0  0  0
   17.2010  -18.0954    6.9989 C   0  0  0  0  0  0  0  0  0  0  0  0
   18.0717  -18.2949    6.0788 O   0  0  0  0  0  0  0  0  0  0  0  0
   21.6088  -10.5208    5.9801 O   0  0  0  0  0  0  0  0  0  0  0  0
   20.6374  -11.4879    6.2823 C   0  0  0  0  0  0  0  0  0  0  0  0
   19.7557  -11.9427    5.3219 C   0  0  0  0  0  0  0  0  0  0  0  0
   18.7904  -12.8903    5.5824 C   0  0  0  0  0  0  0  0  0  0  0  0
   18.6739  -13.4340    6.8659 C   0  0  0  0  0  0  0  0  0  0  0  0
   17.6376  -14.4323    7.1916 C   0  0  0  0  0  0  0  0  0  0  0  0
   18.2270  -15.8035    7.1936 C   0  0  2  0  0  0  0  0  0  0  0  0
   17.2144  -16.8024    7.5794 N   0  0  0  0  0  0  0  0  0  0  0  0
   19.3507  -15.8928    8.1294 C   0  0  0  0  0  0  0  0  0  0  0  0
   19.3063  -16.4217    9.2492 O   0  0  0  0  0  0  0  0  0  0  0  0
   19.5748  -12.9618    7.8266 C   0  0  0  0  0  0  0  0  0  0  0  0
   20.5289  -12.0182    7.5482 C   0  0  0  0  0  0  0  0  0  0  0  0
   20.5832  -15.3472    7.7570 O   0  0  0  0  0  0  0  0  0  0  0  0
  2  3  1  0
  2  1  1  6
  3  4  1  0
  4  5  2  0
  6  5  1  0
  7  6  1  0
  8  7  2  0
  8  4  1  0
  9  2  1  0
  9 10  2  0
 11 12  1  0
 12 14  1  0
 13 12  2  0
 14 15  1  0
 16 15  1  1
 16 17  1  0
 17  9  1  0
 18 16  1  0
 18 27  1  0
 19 18  2  0
 20 21  1  0
 21 22  2  0
 21 31  1  0
 22 23  1  0
 23 24  2  0
 24 25  1  0
 26 25  1  1
 26 27  1  0
 26 28  1  0
 28 29  2  0
 28 32  1  0
 30 24  1  0
 31 30  2  0
M  END
$$$$
