HQY.pdb
     RDKit          3D

 32 33  0  0  1  0  0  0  0  0999 V2000
   30.1185  -35.8513  -14.3825 N   0  0  0  0  0  0  0  0  0  0  0  0
   29.4997  -35.2752  -13.2141 C   0  0  1  0  0  0  0  0  0  0  0  0
   28.0059  -35.1411  -13.4187 C   0  0  0  0  0  0  0  0  0  0  0  0
   27.7499  -34.1753  -14.5339 C   0  0  0  0  0  0  0  0  0  0  0  0
   28.6958  -33.4509  -15.2379 C   0  0  0  0  0  0  0  0  0  0  0  0
   28.0786  -32.6937  -16.1614 N   0  0  0  0  0  0  0  0  0  0  0  0
   26.7641  -32.9387  -16.0394 C   0  0  0  0  0  0  0  0  0  0  0  0
   26.5564  -33.8330  -15.0581 N   0  0  0  0  0  0  0  0  0  0  0  0
   29.8315  -36.0752  -12.0253 C   0  0  0  0  0  0  0  0  0  0  0  0
   30.3959  -37.2101  -12.1472 O   0  0  0  0  0  0  0  0  0  0  0  0
   34.3935  -36.2612   -9.6810 N   0  0  0  0  0  0  0  0  0  0  0  0
   33.7711  -36.7321   -8.5016 C   0  0  0  0  0  0  0  0  0  0  0  0
   34.4754  -37.0985   -7.5375 O   0  0  0  0  0  0  0  0  0  0  0  0
   32.3048  -36.7949   -8.4001 C   0  0  0  0  0  0  0  0  0  0  0  0
   31.5813  -36.2320   -9.5791 C   0  0  0  0  0  0  0  0  0  0  0  0
   30.0831  -36.3075   -9.5085 C   0  0  2  0  0  0  0  0  0  0  0  0
   29.5378  -35.6164  -10.7140 N   0  0  0  0  0  0  0  0  0  0  0  0
   29.4765  -35.6176   -8.3591 C   0  0  0  0  0  0  0  0  0  0  0  0
   29.3638  -34.3412   -8.4075 O   0  0  0  0  0  0  0  0  0  0  0  0
   24.2118  -32.3666   -2.3793 O   0  0  0  0  0  0  0  0  0  0  0  0
   24.9421  -32.9277   -3.4385 C   0  0  0  0  0  0  0  0  0  0  0  0
   24.4653  -34.0177   -4.1396 C   0  0  0  0  0  0  0  0  0  0  0  0
   25.1543  -34.5940   -5.1840 C   0  0  0  0  0  0  0  0  0  0  0  0
   26.3931  -34.0749   -5.5744 C   0  0  0  0  0  0  0  0  0  0  0  0
   27.1735  -34.6787   -6.6712 C   0  0  0  0  0  0  0  0  0  0  0  0
   28.3386  -35.4311   -6.1199 C   0  0  2  0  0  0  0  0  0  0  0  0
   28.9884  -36.2272   -7.1762 N   0  0  0  0  0  0  0  0  0  0  0  0
   27.9215  -36.3346   -5.0446 C   0  0  0  0  0  0  0  0  0  0  0  0
   27.6049  -37.5233   -5.1942 O   0  0  0  0  0  0  0  0  0  0  0  0
   26.8611  -32.9710   -4.8533 C   0  0  0  0  0  0  0  0  0  0  0  0
   26.1608  -32.4111   -3.8168 C   0  0  0  0  0  0  0  0  0  0  0  0
   27.8671  -35.8450   -3.7359 O   0  0  0  0  0  0  0  0  0  0  0  0
  2  3  1  0
  2  1  1  6
  3  4  1  0
  4  5  2  0
  6  5  1  0
  7  6  1  0
  8  7  2  0
  8  4  1  0
  9  2  1  0
  9 10  2  0
 11 12  1  0
 12 14  1  0
 13 12  2  0
 14 15  1  0
 16 15  1  1
 16 17  1  0
 17  9  1  0
 18 16  1  0
 18 27  1  0
 19 18  2  0
 20 21  1  0
 21 22  2  0
 21 31  1  0
 22 23  1  0
 23 24  2  0
 24 25  1  0
 26 25  1  6
 26 27  1  0
 26 28  1  0
 28 29  2  0
 28 32  1  0
 30 24  1  0
 31 30  2  0
M  END
$$$$
