HQY.pdb
     RDKit          3D

 32 33  0  0  1  0  0  0  0  0999 V2000
   35.1578  -10.0298  -17.2880 N   0  0  0  0  0  0  0  0  0  0  0  0
   34.0593   -9.4169  -16.5826 C   0  0  1  0  0  0  0  0  0  0  0  0
   34.4546   -8.0460  -16.0769 C   0  0  0  0  0  0  0  0  0  0  0  0
   35.6590   -8.1781  -15.1969 C   0  0  0  0  0  0  0  0  0  0  0  0
   36.6928   -7.2679  -15.0632 C   0  0  0  0  0  0  0  0  0  0  0  0
   37.5894   -7.7407  -14.1801 N   0  0  0  0  0  0  0  0  0  0  0  0
   37.1257   -8.9304  -13.7651 C   0  0  0  0  0  0  0  0  0  0  0  0
   35.9593   -9.2026  -14.3746 N   0  0  0  0  0  0  0  0  0  0  0  0
   32.8707   -9.3721  -17.4478 C   0  0  0  0  0  0  0  0  0  0  0  0
   32.9940   -9.3674  -18.7152 O   0  0  0  0  0  0  0  0  0  0  0  0
   27.3089  -11.8635  -16.1250 N   0  0  0  0  0  0  0  0  0  0  0  0
   26.9604  -11.0144  -17.2009 C   0  0  0  0  0  0  0  0  0  0  0  0
   25.7975  -11.0419  -17.6556 O   0  0  0  0  0  0  0  0  0  0  0  0
   27.9529  -10.1014  -17.7890 C   0  0  0  0  0  0  0  0  0  0  0  0
   29.3018  -10.1650  -17.1512 C   0  0  0  0  0  0  0  0  0  0  0  0
   30.3548   -9.3060  -17.7905 C   0  0  2  0  0  0  0  0  0  0  0  0
   31.5581   -9.3327  -16.9076 N   0  0  0  0  0  0  0  0  0  0  0  0
   30.0038   -7.8832  -17.9238 C   0  0  0  0  0  0  0  0  0  0  0  0
   30.2427   -7.1037  -16.9340 O   0  0  0  0  0  0  0  0  0  0  0  0
   28.9665    0.5257  -19.2612 O   0  0  0  0  0  0  0  0  0  0  0  0
   29.3097   -0.8339  -19.1997 C   0  0  0  0  0  0  0  0  0  0  0  0
   29.4865   -1.5811  -20.3474 C   0  0  0  0  0  0  0  0  0  0  0  0
   29.8234   -2.9167  -20.3250 C   0  0  0  0  0  0  0  0  0  0  0  0
   30.0008   -3.5719  -19.1020 C   0  0  0  0  0  0  0  0  0  0  0  0
   30.3372   -5.0067  -19.0351 C   0  0  0  0  0  0  0  0  0  0  0  0
   29.0917   -5.8287  -19.0597 C   0  0  2  0  0  0  0  0  0  0  0  0
   29.4187   -7.2657  -19.0575 N   0  0  0  0  0  0  0  0  0  0  0  0
   28.2895   -5.5346  -20.2499 C   0  0  0  0  0  0  0  0  0  0  0  0
   28.1466   -6.2934  -21.2192 O   0  0  0  0  0  0  0  0  0  0  0  0
   29.8175   -2.8000  -17.9495 C   0  0  0  0  0  0  0  0  0  0  0  0
   29.4824   -1.4717  -17.9919 C   0  0  0  0  0  0  0  0  0  0  0  0
   27.6208   -4.3089  -20.3263 O   0  0  0  0  0  0  0  0  0  0  0  0
  2  3  1  0
  2  1  1  6
  3  4  1  0
  4  5  2  0
  6  5  1  0
  7  6  1  0
  8  7  2  0
  8  4  1  0
  9  2  1  0
  9 10  2  0
 11 12  1  0
 12 14  1  0
 13 12  2  0
 14 15  1  0
 16 15  1  1
 16 17  1  0
 17  9  1  0
 18 16  1  0
 18 27  1  0
 19 18  2  0
 20 21  1  0
 21 22  2  0
 21 31  1  0
 22 23  1  0
 23 24  2  0
 24 25  1  0
 26 25  1  6
 26 27  1  0
 26 28  1  0
 28 29  2  0
 28 32  1  0
 30 24  1  0
 31 30  2  0
M  END
$$$$
