HQY.pdb
     RDKit          3D

 32 33  0  0  1  0  0  0  0  0999 V2000
   15.9116  -20.6493    1.5920 N   0  0  0  0  0  0  0  0  0  0  0  0
   16.0532  -20.5616    3.0245 C   0  0  1  0  0  0  0  0  0  0  0  0
   16.6048  -21.8566    3.5816 C   0  0  0  0  0  0  0  0  0  0  0  0
   15.6300  -22.9602    3.3099 C   0  0  0  0  0  0  0  0  0  0  0  0
   14.4921  -23.2602    4.0380 C   0  0  0  0  0  0  0  0  0  0  0  0
   13.8761  -24.3188    3.4836 N   0  0  0  0  0  0  0  0  0  0  0  0
   14.6163  -24.6786    2.4228 C   0  0  0  0  0  0  0  0  0  0  0  0
   15.6783  -23.8629    2.3104 N   0  0  0  0  0  0  0  0  0  0  0  0
   16.8870  -19.4020    3.3756 C   0  0  0  0  0  0  0  0  0  0  0  0
   17.7141  -18.9225    2.5344 O   0  0  0  0  0  0  0  0  0  0  0  0
   17.4495  -14.8296    3.1630 N   0  0  0  0  0  0  0  0  0  0  0  0
   17.4997  -14.3192    4.4810 C   0  0  0  0  0  0  0  0  0  0  0  0
   17.9673  -13.1787    4.6825 O   0  0  0  0  0  0  0  0  0  0  0  0
   17.0081  -15.1175    5.6148 C   0  0  0  0  0  0  0  0  0  0  0  0
   16.4747  -16.4603    5.2368 C   0  0  0  0  0  0  0  0  0  0  0  0
   17.5138  -17.5039    4.9427 C   0  0  2  0  0  0  0  0  0  0  0  0
   16.8012  -18.7825    4.6504 N   0  0  0  0  0  0  0  0  0  0  0  0
   18.4218  -17.8129    6.0586 C   0  0  0  0  0  0  0  0  0  0  0  0
   17.9587  -18.4793    7.0514 O   0  0  0  0  0  0  0  0  0  0  0  0
   24.8910  -18.2590   12.0045 O   0  0  0  0  0  0  0  0  0  0  0  0
   24.1889  -18.0936   10.8004 C   0  0  0  0  0  0  0  0  0  0  0  0
   24.1178  -16.8644   10.1753 C   0  0  0  0  0  0  0  0  0  0  0  0
   23.4384  -16.6652    8.9936 C   0  0  0  0  0  0  0  0  0  0  0  0
   22.7822  -17.7352    8.3763 C   0  0  0  0  0  0  0  0  0  0  0  0
   22.0231  -17.5579    7.1238 C   0  0  0  0  0  0  0  0  0  0  0  0
   20.5605  -17.7011    7.3842 C   0  0  2  0  0  0  0  0  0  0  0  0
   19.7878  -17.4471    6.1552 N   0  0  0  0  0  0  0  0  0  0  0  0
   20.1147  -16.7632    8.4176 C   0  0  0  0  0  0  0  0  0  0  0  0
   19.9283  -17.0499    9.6087 O   0  0  0  0  0  0  0  0  0  0  0  0
   22.8642  -18.9730    9.0233 C   0  0  0  0  0  0  0  0  0  0  0  0
   23.5454  -19.1517   10.1991 C   0  0  0  0  0  0  0  0  0  0  0  0
   19.8727  -15.4328    8.0616 O   0  0  0  0  0  0  0  0  0  0  0  0
  2  3  1  0
  2  1  1  6
  3  4  1  0
  4  5  2  0
  6  5  1  0
  7  6  1  0
  8  7  2  0
  8  4  1  0
  9  2  1  0
  9 10  2  0
 11 12  1  0
 12 14  1  0
 13 12  2  0
 14 15  1  0
 16 15  1  1
 16 17  1  0
 17  9  1  0
 18 16  1  0
 18 27  1  0
 19 18  2  0
 20 21  1  0
 21 22  2  0
 21 31  1  0
 22 23  1  0
 23 24  2  0
 24 25  1  0
 26 25  1  6
 26 27  1  0
 26 28  1  0
 28 29  2  0
 28 32  1  0
 30 24  1  0
 31 30  2  0
M  END
$$$$
