ANQ.pdb
     RDKit          3D

 23 22  0  0  1  0  0  0  0  0999 V2000
    7.0228  -13.3632   18.6777 C   0  0  0  0  0  0  0  0  0  0  0  0
    8.4378  -13.5370   19.2343 C   0  0  2  0  0  0  0  0  0  0  0  0
    9.2792  -14.0688   18.1697 N   0  0  0  0  0  0  0  0  0  0  0  0
    8.4437  -14.4630   20.3923 C   0  0  0  0  0  0  0  0  0  0  0  0
    7.6384  -14.2456   21.3622 O   0  0  0  0  0  0  0  0  0  0  0  0
    8.2950  -19.1770   20.5620 N   0  0  0  0  0  0  0  0  0  0  0  0
    9.5434  -18.5605   20.3283 C   0  0  0  0  0  0  0  0  0  0  0  0
   10.1578  -18.7364   19.2400 O   0  0  0  0  0  0  0  0  0  0  0  0
   10.1584  -17.6901   21.3635 C   0  0  0  0  0  0  0  0  0  0  0  0
    9.2422  -16.4930   21.5936 C   0  0  2  0  0  0  0  0  0  0  0  0
    9.3013  -15.5776   20.4721 N   0  0  0  0  0  0  0  0  0  0  0  0
    9.5714  -15.8510   22.8836 C   0  0  0  0  0  0  0  0  0  0  0  0
   10.7602  -15.4973   23.0599 O   0  0  0  0  0  0  0  0  0  0  0  0
    5.5052  -12.5944   26.2320 N   0  0  0  0  0  0  0  0  0  0  0  0
    6.6845  -12.3482   26.9564 C   0  0  0  0  0  0  0  0  0  0  0  0
    6.6907  -11.4913   27.8585 O   0  0  0  0  0  0  0  0  0  0  0  0
    7.9329  -13.0963   26.6650 C   0  0  0  0  0  0  0  0  0  0  0  0
    7.7088  -13.9721   25.4685 C   0  0  0  0  0  0  0  0  0  0  0  0
    8.8942  -14.7710   25.0792 C   0  0  2  0  0  0  0  0  0  0  0  0
    8.6435  -15.6112   23.9213 N   0  0  0  0  0  0  0  0  0  0  0  0
    9.3475  -15.6388   26.1807 C   0  0  0  0  0  0  0  0  0  0  0  0
    9.0823  -16.8928   26.1390 O   0  0  0  0  0  0  0  0  0  0  0  0
   10.0529  -15.2392   27.2913 O   0  0  0  0  0  0  0  0  0  0  0  0
  2  1  1  6
  2  4  1  0
  3  2  1  0
  4  5  2  0
  6  7  1  0
  7  9  1  0
  8  7  2  0
 10  9  1  6
 10 12  1  0
 11 10  1  0
 11  4  1  0
 12 13  2  0
 12 20  1  0
 15 17  1  0
 15 14  1  0
 16 15  2  0
 19 18  1  1
 18 17  1  0
 19 21  1  0
 20 19  1  0
 21 22  2  0
 21 23  1  0
M  END
$$$$
