ANQ.pdb
     RDKit          3D

 23 22  0  0  1  0  0  0  0  0999 V2000
    8.0750  -12.4468   19.7389 C   0  0  0  0  0  0  0  0  0  0  0  0
    8.4761  -13.8289   19.2183 C   0  0  2  0  0  0  0  0  0  0  0  0
    7.5089  -14.2269   18.2033 N   0  0  0  0  0  0  0  0  0  0  0  0
    8.4948  -14.8257   20.3158 C   0  0  0  0  0  0  0  0  0  0  0  0
    7.4319  -15.0077   21.0042 O   0  0  0  0  0  0  0  0  0  0  0  0
   10.9011  -18.6296   19.3692 N   0  0  0  0  0  0  0  0  0  0  0  0
   10.2485  -18.5194   20.6163 C   0  0  0  0  0  0  0  0  0  0  0  0
    9.2547  -19.2467   20.8925 O   0  0  0  0  0  0  0  0  0  0  0  0
   10.7221  -17.5416   21.6296 C   0  0  0  0  0  0  0  0  0  0  0  0
    9.6589  -16.4603   21.7905 C   0  0  2  0  0  0  0  0  0  0  0  0
    9.6370  -15.5853   20.6358 N   0  0  0  0  0  0  0  0  0  0  0  0
    9.8690  -15.7365   23.0620 C   0  0  0  0  0  0  0  0  0  0  0  0
   10.9241  -15.0704   23.1738 O   0  0  0  0  0  0  0  0  0  0  0  0
    5.4501  -12.7747   25.9170 N   0  0  0  0  0  0  0  0  0  0  0  0
    6.5310  -12.4254   26.7450 C   0  0  0  0  0  0  0  0  0  0  0  0
    6.4084  -11.5000   27.5676 O   0  0  0  0  0  0  0  0  0  0  0  0
    7.8265  -13.1444   26.6577 C   0  0  0  0  0  0  0  0  0  0  0  0
    7.7969  -14.0606   25.4708 C   0  0  0  0  0  0  0  0  0  0  0  0
    9.0377  -14.8499   25.2910 C   0  0  2  0  0  0  0  0  0  0  0  0
    8.9675  -15.7452   24.1494 N   0  0  0  0  0  0  0  0  0  0  0  0
    9.3424  -15.6587   26.4847 C   0  0  0  0  0  0  0  0  0  0  0  0
    9.6460  -15.0667   27.5810 O   0  0  0  0  0  0  0  0  0  0  0  0
    9.3352  -17.0318   26.5583 O   0  0  0  0  0  0  0  0  0  0  0  0
  2  1  1  1
  2  4  1  0
  3  2  1  0
  4  5  2  0
  6  7  1  0
  7  9  1  0
  8  7  2  0
 10  9  1  6
 10 12  1  0
 11 10  1  0
 11  4  1  0
 12 13  2  0
 12 20  1  0
 15 17  1  0
 15 14  1  0
 16 15  2  0
 19 18  1  1
 18 17  1  0
 19 21  1  0
 20 19  1  0
 21 22  2  0
 21 23  1  0
M  END
$$$$
