ANQ.pdb
     RDKit          3D

 23 22  0  0  1  0  0  0  0  0999 V2000
    8.1382  -12.2974   20.0210 C   0  0  0  0  0  0  0  0  0  0  0  0
    8.4479  -13.1158   18.7654 C   0  0  2  0  0  0  0  0  0  0  0  0
    7.2627  -13.8953   18.4312 N   0  0  0  0  0  0  0  0  0  0  0  0
    9.6000  -14.0212   18.9917 C   0  0  0  0  0  0  0  0  0  0  0  0
    9.3759  -15.2476   19.2784 O   0  0  0  0  0  0  0  0  0  0  0  0
   15.5517  -14.9062   17.9435 N   0  0  0  0  0  0  0  0  0  0  0  0
   14.1898  -15.2376   18.1132 C   0  0  0  0  0  0  0  0  0  0  0  0
   13.8374  -16.4279   18.3406 O   0  0  0  0  0  0  0  0  0  0  0  0
   13.1433  -14.1864   18.0271 C   0  0  0  0  0  0  0  0  0  0  0  0
   12.0393  -14.5221   19.0240 C   0  0  2  0  0  0  0  0  0  0  0  0
   10.9377  -13.5885   18.9044 N   0  0  0  0  0  0  0  0  0  0  0  0
   12.6001  -14.5845   20.3901 C   0  0  0  0  0  0  0  0  0  0  0  0
   13.2871  -13.6090   20.7719 O   0  0  0  0  0  0  0  0  0  0  0  0
   11.4496  -18.9143   24.8284 N   0  0  0  0  0  0  0  0  0  0  0  0
   11.5969  -17.6759   25.4769 C   0  0  0  0  0  0  0  0  0  0  0  0
   11.2416  -17.5507   26.6628 O   0  0  0  0  0  0  0  0  0  0  0  0
   12.1729  -16.5046   24.7702 C   0  0  0  0  0  0  0  0  0  0  0  0
   12.5484  -16.9120   23.3766 C   0  0  0  0  0  0  0  0  0  0  0  0
   13.1013  -15.8083   22.5574 C   0  0  2  0  0  0  0  0  0  0  0  0
   12.4145  -15.6607   21.2861 N   0  0  0  0  0  0  0  0  0  0  0  0
   14.5348  -16.0066   22.2790 C   0  0  0  0  0  0  0  0  0  0  0  0
   14.8840  -16.7057   21.2622 O   0  0  0  0  0  0  0  0  0  0  0  0
   15.5818  -15.5042   23.0153 O   0  0  0  0  0  0  0  0  0  0  0  0
  2  1  1  1
  2  4  1  0
  3  2  1  0
  4  5  2  0
  6  7  1  0
  7  9  1  0
  8  7  2  0
 10  9  1  6
 10 12  1  0
 11 10  1  0
 11  4  1  0
 12 13  2  0
 12 20  1  0
 15 17  1  0
 15 14  1  0
 16 15  2  0
 19 18  1  6
 18 17  1  0
 19 21  1  0
 20 19  1  0
 21 22  2  0
 21 23  1  0
M  END
$$$$
