ANQ.pdb
     RDKit          3D

 23 22  0  0  1  0  0  0  0  0999 V2000
    8.0709  -19.6675   17.6295 C   0  0  0  0  0  0  0  0  0  0  0  0
    7.2963  -18.6976   18.5247 C   0  0  2  0  0  0  0  0  0  0  0  0
    6.2692  -18.0569   17.7131 N   0  0  0  0  0  0  0  0  0  0  0  0
    8.1974  -17.6708   19.1009 C   0  0  0  0  0  0  0  0  0  0  0  0
    9.4536  -17.9075   19.1499 O   0  0  0  0  0  0  0  0  0  0  0  0
    6.5492  -12.8851   18.6374 N   0  0  0  0  0  0  0  0  0  0  0  0
    7.7356  -13.5872   18.9419 C   0  0  0  0  0  0  0  0  0  0  0  0
    8.6159  -13.7828   18.0590 O   0  0  0  0  0  0  0  0  0  0  0  0
    7.9696  -14.1102   20.3127 C   0  0  0  0  0  0  0  0  0  0  0  0
    8.6323  -15.4789   20.2003 C   0  0  2  0  0  0  0  0  0  0  0  0
    7.7290  -16.4394   19.5995 N   0  0  0  0  0  0  0  0  0  0  0  0
    9.1323  -15.9036   21.5248 C   0  0  0  0  0  0  0  0  0  0  0  0
    8.3395  -15.8160   22.4908 O   0  0  0  0  0  0  0  0  0  0  0  0
   11.4146  -20.4268   24.5221 N   0  0  0  0  0  0  0  0  0  0  0  0
   10.6497  -20.4314   23.3427 C   0  0  0  0  0  0  0  0  0  0  0  0
    9.9674  -21.4299   23.0499 O   0  0  0  0  0  0  0  0  0  0  0  0
   10.6390  -19.2595   22.4319 C   0  0  0  0  0  0  0  0  0  0  0  0
   11.5386  -18.1983   22.9918 C   0  0  0  0  0  0  0  0  0  0  0  0
   10.9125  -16.8574   23.0633 C   0  0  2  0  0  0  0  0  0  0  0  0
   10.4324  -16.3978   21.7718 N   0  0  0  0  0  0  0  0  0  0  0  0
   11.8520  -15.8485   23.5841 C   0  0  0  0  0  0  0  0  0  0  0  0
   12.1784  -15.8784   24.8239 O   0  0  0  0  0  0  0  0  0  0  0  0
   12.4432  -14.8398   22.8605 O   0  0  0  0  0  0  0  0  0  0  0  0
  2  1  1  6
  2  4  1  0
  3  2  1  0
  4  5  2  0
  6  7  1  0
  7  9  1  0
  8  7  2  0
 10  9  1  1
 10 12  1  0
 11 10  1  0
 11  4  1  0
 12 13  2  0
 12 20  1  0
 15 17  1  0
 15 14  1  0
 16 15  2  0
 19 18  1  6
 18 17  1  0
 19 21  1  0
 20 19  1  0
 21 22  2  0
 21 23  1  0
M  END
$$$$
