ANQ.pdb
     RDKit          3D

 23 22  0  0  1  0  0  0  0  0999 V2000
    7.0405  -12.7681   19.2372 C   0  0  0  0  0  0  0  0  0  0  0  0
    8.4248  -13.2724   19.6515 C   0  0  2  0  0  0  0  0  0  0  0  0
    9.0188  -13.9516   18.5069 N   0  0  0  0  0  0  0  0  0  0  0  0
    8.3288  -14.2070   20.7986 C   0  0  0  0  0  0  0  0  0  0  0  0
    7.6435  -13.8616   21.8222 O   0  0  0  0  0  0  0  0  0  0  0  0
   10.3813  -17.8985   19.2929 N   0  0  0  0  0  0  0  0  0  0  0  0
    9.3124  -18.0487   20.2028 C   0  0  0  0  0  0  0  0  0  0  0  0
    8.1889  -18.4740   19.8160 O   0  0  0  0  0  0  0  0  0  0  0  0
    9.4920  -17.7075   21.6377 C   0  0  0  0  0  0  0  0  0  0  0  0
    8.7783  -16.3884   21.9128 C   0  0  2  0  0  0  0  0  0  0  0  0
    8.9621  -15.4652   20.8113 N   0  0  0  0  0  0  0  0  0  0  0  0
    9.2246  -15.8385   23.2102 C   0  0  0  0  0  0  0  0  0  0  0  0
   10.4029  -15.4184   23.2788 O   0  0  0  0  0  0  0  0  0  0  0  0
    5.7069  -12.7683   27.1129 N   0  0  0  0  0  0  0  0  0  0  0  0
    6.5673  -12.1548   26.1860 C   0  0  0  0  0  0  0  0  0  0  0  0
    6.3930  -10.9634   25.8722 O   0  0  0  0  0  0  0  0  0  0  0  0
    7.6893  -12.9053   25.5689 C   0  0  0  0  0  0  0  0  0  0  0  0
    7.7628  -14.2692   26.1880 C   0  0  0  0  0  0  0  0  0  0  0  0
    8.8225  -15.1318   25.6153 C   0  0  2  0  0  0  0  0  0  0  0  0
    8.4186  -15.7554   24.3673 N   0  0  0  0  0  0  0  0  0  0  0  0
    9.2150  -16.2004   26.5510 C   0  0  0  0  0  0  0  0  0  0  0  0
    8.8722  -17.4102   26.2988 O   0  0  0  0  0  0  0  0  0  0  0  0
    9.9385  -16.0399   27.7093 O   0  0  0  0  0  0  0  0  0  0  0  0
  2  1  1  6
  2  4  1  0
  3  2  1  0
  4  5  2  0
  6  7  1  0
  7  9  1  0
  8  7  2  0
 10  9  1  6
 10 12  1  0
 11 10  1  0
 11  4  1  0
 12 13  2  0
 12 20  1  0
 15 17  1  0
 15 14  1  0
 16 15  2  0
 19 18  1  1
 18 17  1  0
 19 21  1  0
 20 19  1  0
 21 22  2  0
 21 23  1  0
M  END
$$$$
