ANQ.pdb
     RDKit          3D

 23 22  0  0  1  0  0  0  0  0999 V2000
    7.1323  -12.6530   19.1846 C   0  0  0  0  0  0  0  0  0  0  0  0
    8.5036  -13.2207   19.5580 C   0  0  2  0  0  0  0  0  0  0  0  0
    9.0199  -13.9480   18.4053 N   0  0  0  0  0  0  0  0  0  0  0  0
    8.4028  -14.1303   20.7246 C   0  0  0  0  0  0  0  0  0  0  0  0
    7.8581  -13.7000   21.7992 O   0  0  0  0  0  0  0  0  0  0  0  0
    7.4719  -18.7945   20.2124 N   0  0  0  0  0  0  0  0  0  0  0  0
    8.7543  -18.2063   20.2633 C   0  0  0  0  0  0  0  0  0  0  0  0
    9.4545  -18.0905   19.2198 O   0  0  0  0  0  0  0  0  0  0  0  0
    9.3044  -17.7111   21.5516 C   0  0  0  0  0  0  0  0  0  0  0  0
    8.7047  -16.3382   21.8363 C   0  0  2  0  0  0  0  0  0  0  0  0
    8.8827  -15.4545   20.7020 N   0  0  0  0  0  0  0  0  0  0  0  0
    9.2705  -15.7945   23.0889 C   0  0  0  0  0  0  0  0  0  0  0  0
   10.4614  -15.4071   23.0581 O   0  0  0  0  0  0  0  0  0  0  0  0
    7.2917  -11.6407   27.1260 N   0  0  0  0  0  0  0  0  0  0  0  0
    6.4340  -12.7342   26.9147 C   0  0  0  0  0  0  0  0  0  0  0  0
    5.2428  -12.6654   27.2676 O   0  0  0  0  0  0  0  0  0  0  0  0
    6.9243  -13.9797   26.2733 C   0  0  0  0  0  0  0  0  0  0  0  0
    8.3272  -13.7604   25.7909 C   0  0  0  0  0  0  0  0  0  0  0  0
    9.0625  -15.0121   25.4952 C   0  0  2  0  0  0  0  0  0  0  0  0
    8.5643  -15.6829   24.3071 N   0  0  0  0  0  0  0  0  0  0  0  0
    8.9870  -15.9626   26.6189 C   0  0  0  0  0  0  0  0  0  0  0  0
    8.2993  -17.0367   26.4849 O   0  0  0  0  0  0  0  0  0  0  0  0
    9.5974  -15.8224   27.8431 O   0  0  0  0  0  0  0  0  0  0  0  0
  2  1  1  6
  2  4  1  0
  3  2  1  0
  4  5  2  0
  6  7  1  0
  7  9  1  0
  8  7  2  0
 10  9  1  6
 10 12  1  0
 11 10  1  0
 11  4  1  0
 12 13  2  0
 12 20  1  0
 15 17  1  0
 15 14  1  0
 16 15  2  0
 19 18  1  1
 18 17  1  0
 19 21  1  0
 20 19  1  0
 21 22  2  0
 21 23  1  0
M  END
$$$$
