ANQ.pdb
     RDKit          3D

 23 22  0  0  1  0  0  0  0  0999 V2000
   10.1025  -17.4828   16.2385 C   0  0  0  0  0  0  0  0  0  0  0  0
    9.5961  -17.7941   17.6488 C   0  0  2  0  0  0  0  0  0  0  0  0
    8.2006  -18.2021   17.5473 N   0  0  0  0  0  0  0  0  0  0  0  0
    9.7119  -16.6069   18.5295 C   0  0  0  0  0  0  0  0  0  0  0  0
   10.8750  -16.1461   18.7966 O   0  0  0  0  0  0  0  0  0  0  0  0
    6.9397  -13.3728   17.5449 N   0  0  0  0  0  0  0  0  0  0  0  0
    7.8078  -13.1401   18.6337 C   0  0  0  0  0  0  0  0  0  0  0  0
    8.7543  -12.3106   18.5402 O   0  0  0  0  0  0  0  0  0  0  0  0
    7.6215  -13.8706   19.9140 C   0  0  0  0  0  0  0  0  0  0  0  0
    8.7450  -14.8920   20.0546 C   0  0  2  0  0  0  0  0  0  0  0  0
    8.5919  -15.9604   19.0880 N   0  0  0  0  0  0  0  0  0  0  0  0
    8.8091  -15.3773   21.4492 C   0  0  0  0  0  0  0  0  0  0  0  0
    7.7309  -15.7239   21.9847 O   0  0  0  0  0  0  0  0  0  0  0  0
   10.3443  -20.3679   21.7478 N   0  0  0  0  0  0  0  0  0  0  0  0
   10.5250  -20.2259   23.1346 C   0  0  0  0  0  0  0  0  0  0  0  0
   10.6755  -21.2348   23.8470 O   0  0  0  0  0  0  0  0  0  0  0  0
   10.5405  -18.8854   23.7719 C   0  0  0  0  0  0  0  0  0  0  0  0
   10.2845  -17.8440   22.7236 C   0  0  0  0  0  0  0  0  0  0  0  0
   10.2302  -16.4611   23.2524 C   0  0  2  0  0  0  0  0  0  0  0  0
    9.9942  -15.4759   22.2115 N   0  0  0  0  0  0  0  0  0  0  0  0
   11.4781  -16.0980   23.9472 C   0  0  0  0  0  0  0  0  0  0  0  0
   11.7362  -16.6261   25.0870 O   0  0  0  0  0  0  0  0  0  0  0  0
   12.4360  -15.2232   23.4912 O   0  0  0  0  0  0  0  0  0  0  0  0
  2  1  1  6
  2  4  1  0
  3  2  1  0
  4  5  2  0
  6  7  1  0
  7  9  1  0
  8  7  2  0
 10  9  1  1
 10 12  1  0
 11 10  1  0
 11  4  1  0
 12 13  2  0
 12 20  1  0
 15 17  1  0
 15 14  1  0
 16 15  2  0
 19 18  1  6
 18 17  1  0
 19 21  1  0
 20 19  1  0
 21 22  2  0
 21 23  1  0
M  END
$$$$
