ANQ.pdb
     RDKit          3D

 23 22  0  0  1  0  0  0  0  0999 V2000
    8.2630  -12.2761   19.4569 C   0  0  0  0  0  0  0  0  0  0  0  0
    8.6032  -13.6733   18.9333 C   0  0  2  0  0  0  0  0  0  0  0  0
    7.7792  -13.9278   17.7583 N   0  0  0  0  0  0  0  0  0  0  0  0
    8.3431  -14.7058   19.9651 C   0  0  0  0  0  0  0  0  0  0  0  0
    7.6117  -15.7111   19.6637 O   0  0  0  0  0  0  0  0  0  0  0  0
   11.1623  -18.8876   22.0565 N   0  0  0  0  0  0  0  0  0  0  0  0
   10.0316  -18.0532   22.1930 C   0  0  0  0  0  0  0  0  0  0  0  0
    9.1460  -18.3007   23.0574 O   0  0  0  0  0  0  0  0  0  0  0  0
    9.8637  -16.8643   21.3180 C   0  0  0  0  0  0  0  0  0  0  0  0
    9.0557  -15.8171   22.0768 C   0  0  2  0  0  0  0  0  0  0  0  0
    8.8686  -14.6284   21.2698 N   0  0  0  0  0  0  0  0  0  0  0  0
    9.6955  -15.5381   23.3797 C   0  0  0  0  0  0  0  0  0  0  0  0
   10.8696  -15.1016   23.3589 O   0  0  0  0  0  0  0  0  0  0  0  0
    5.9742  -11.1893   27.4497 N   0  0  0  0  0  0  0  0  0  0  0  0
    6.2504  -12.3755   26.7480 C   0  0  0  0  0  0  0  0  0  0  0  0
    5.3654  -12.9044   26.0513 O   0  0  0  0  0  0  0  0  0  0  0  0
    7.5876  -13.0155   26.8214 C   0  0  0  0  0  0  0  0  0  0  0  0
    7.6954  -14.0459   25.7370 C   0  0  0  0  0  0  0  0  0  0  0  0
    9.0097  -14.7278   25.6859 C   0  0  2  0  0  0  0  0  0  0  0  0
    9.0771  -15.7285   24.6353 N   0  0  0  0  0  0  0  0  0  0  0  0
    9.3264  -15.3891   26.9642 C   0  0  0  0  0  0  0  0  0  0  0  0
    9.4826  -14.6738   28.0171 O   0  0  0  0  0  0  0  0  0  0  0  0
    9.4770  -16.7414   27.1632 O   0  0  0  0  0  0  0  0  0  0  0  0
  2  1  1  1
  2  4  1  0
  3  2  1  0
  4  5  2  0
  6  7  1  0
  7  9  1  0
  8  7  2  0
 10  9  1  6
 10 12  1  0
 11 10  1  0
 11  4  1  0
 12 13  2  0
 12 20  1  0
 15 17  1  0
 15 14  1  0
 16 15  2  0
 19 18  1  1
 18 17  1  0
 19 21  1  0
 20 19  1  0
 21 22  2  0
 21 23  1  0
M  END
$$$$
