ANQ.pdb
     RDKit          3D

 23 22  0  0  1  0  0  0  0  0999 V2000
    7.2823  -12.7045   19.6257 C   0  0  0  0  0  0  0  0  0  0  0  0
    8.7063  -13.2212   19.8436 C   0  0  2  0  0  0  0  0  0  0  0  0
    9.1916  -13.7540   18.5769 N   0  0  0  0  0  0  0  0  0  0  0  0
    8.7346  -14.2805   20.8806 C   0  0  0  0  0  0  0  0  0  0  0  0
    8.1931  -14.0491   22.0163 O   0  0  0  0  0  0  0  0  0  0  0  0
    8.5577  -18.4282   18.9127 N   0  0  0  0  0  0  0  0  0  0  0  0
    8.4116  -18.2462   20.3051 C   0  0  0  0  0  0  0  0  0  0  0  0
    7.2813  -18.3534   20.8561 O   0  0  0  0  0  0  0  0  0  0  0  0
    9.5907  -17.9240   21.1497 C   0  0  0  0  0  0  0  0  0  0  0  0
    9.4026  -16.5253   21.7273 C   0  0  2  0  0  0  0  0  0  0  0  0
    9.3347  -15.5374   20.6696 N   0  0  0  0  0  0  0  0  0  0  0  0
   10.4656  -16.2442   22.7151 C   0  0  0  0  0  0  0  0  0  0  0  0
   11.6274  -16.0826   22.2752 O   0  0  0  0  0  0  0  0  0  0  0  0
    9.5205  -13.1520   27.8395 N   0  0  0  0  0  0  0  0  0  0  0  0
   10.0429  -14.3652   28.3201 C   0  0  0  0  0  0  0  0  0  0  0  0
   10.1864  -14.5372   29.5441 O   0  0  0  0  0  0  0  0  0  0  0  0
   10.4299  -15.4549   27.3896 C   0  0  0  0  0  0  0  0  0  0  0  0
   10.8665  -14.8523   26.0875 C   0  0  0  0  0  0  0  0  0  0  0  0
   11.2993  -15.8490   25.0804 C   0  0  2  0  0  0  0  0  0  0  0  0
   10.2608  -16.1460   24.1093 N   0  0  0  0  0  0  0  0  0  0  0  0
   11.7056  -17.1164   25.7131 C   0  0  0  0  0  0  0  0  0  0  0  0
   10.9153  -18.1249   25.6581 O   0  0  0  0  0  0  0  0  0  0  0  0
   12.8851  -17.3490   26.3805 O   0  0  0  0  0  0  0  0  0  0  0  0
  2  1  1  6
  2  4  1  0
  3  2  1  0
  4  5  2  0
  6  7  1  0
  7  9  1  0
  8  7  2  0
 10  9  1  6
 10 12  1  0
 11 10  1  0
 11  4  1  0
 12 13  2  0
 12 20  1  0
 15 17  1  0
 15 14  1  0
 16 15  2  0
 19 18  1  1
 18 17  1  0
 19 21  1  0
 20 19  1  0
 21 22  2  0
 21 23  1  0
M  END
$$$$
