ANQ.pdb
     RDKit          3D

 23 22  0  0  1  0  0  0  0  0999 V2000
    8.2118  -12.2076   19.9580 C   0  0  0  0  0  0  0  0  0  0  0  0
    8.3991  -13.6218   19.4036 C   0  0  2  0  0  0  0  0  0  0  0  0
    7.2988  -13.8970   18.4884 N   0  0  0  0  0  0  0  0  0  0  0  0
    8.4093  -14.6241   20.4962 C   0  0  0  0  0  0  0  0  0  0  0  0
    7.2978  -14.9783   21.0210 O   0  0  0  0  0  0  0  0  0  0  0  0
   10.8164  -18.4520   19.6964 N   0  0  0  0  0  0  0  0  0  0  0  0
   10.1199  -18.2198   20.9022 C   0  0  0  0  0  0  0  0  0  0  0  0
    9.0548  -18.8440   21.1643 O   0  0  0  0  0  0  0  0  0  0  0  0
   10.6306  -17.2325   21.8881 C   0  0  0  0  0  0  0  0  0  0  0  0
    9.5718  -16.1524   22.0820 C   0  0  2  0  0  0  0  0  0  0  0  0
    9.5952  -15.2069   20.9844 N   0  0  0  0  0  0  0  0  0  0  0  0
    9.7461  -15.5115   23.4025 C   0  0  0  0  0  0  0  0  0  0  0  0
   10.7294  -14.7482   23.5429 O   0  0  0  0  0  0  0  0  0  0  0  0
    5.4588  -13.1609   26.9589 N   0  0  0  0  0  0  0  0  0  0  0  0
    6.5914  -12.3353   26.8519 C   0  0  0  0  0  0  0  0  0  0  0  0
    6.5011  -11.1217   27.1113 O   0  0  0  0  0  0  0  0  0  0  0  0
    7.9043  -12.8863   26.4325 C   0  0  0  0  0  0  0  0  0  0  0  0
    7.7659  -14.3635   26.2136 C   0  0  0  0  0  0  0  0  0  0  0  0
    9.0199  -15.0268   25.7865 C   0  0  2  0  0  0  0  0  0  0  0  0
    8.8854  -15.7001   24.5066 N   0  0  0  0  0  0  0  0  0  0  0  0
    9.4715  -16.0199   26.7772 C   0  0  0  0  0  0  0  0  0  0  0  0
    9.2786  -17.2666   26.5462 O   0  0  0  0  0  0  0  0  0  0  0  0
   10.1036  -15.7493   27.9680 O   0  0  0  0  0  0  0  0  0  0  0  0
  2  1  1  1
  2  4  1  0
  3  2  1  0
  4  5  2  0
  6  7  1  0
  7  9  1  0
  8  7  2  0
 10  9  1  6
 10 12  1  0
 11 10  1  0
 11  4  1  0
 12 13  2  0
 12 20  1  0
 15 17  1  0
 15 14  1  0
 16 15  2  0
 19 18  1  1
 18 17  1  0
 19 21  1  0
 20 19  1  0
 21 22  2  0
 21 23  1  0
M  END
$$$$
