ANQ.pdb
     RDKit          3D

 23 22  0  0  1  0  0  0  0  0999 V2000
    8.0264  -12.5824   18.2617 C   0  0  0  0  0  0  0  0  0  0  0  0
    8.9119  -13.8216   18.4113 C   0  0  2  0  0  0  0  0  0  0  0  0
    8.1200  -14.9888   18.0443 N   0  0  0  0  0  0  0  0  0  0  0  0
    9.4003  -13.9610   19.8043 C   0  0  0  0  0  0  0  0  0  0  0  0
   10.3207  -13.1750   20.2187 O   0  0  0  0  0  0  0  0  0  0  0  0
    6.9909  -15.1364   21.0069 N   0  0  0  0  0  0  0  0  0  0  0  0
    7.1056  -15.4768   22.3722 C   0  0  0  0  0  0  0  0  0  0  0  0
    6.0817  -15.7407   23.0611 O   0  0  0  0  0  0  0  0  0  0  0  0
    8.4394  -15.5309   23.0247 C   0  0  0  0  0  0  0  0  0  0  0  0
    9.4953  -15.1374   21.9973 C   0  0  2  0  0  0  0  0  0  0  0  0
    8.8930  -14.9258   20.6966 N   0  0  0  0  0  0  0  0  0  0  0  0
   10.5758  -16.1457   21.9783 C   0  0  0  0  0  0  0  0  0  0  0  0
   10.5873  -16.9898   22.9039 O   0  0  0  0  0  0  0  0  0  0  0  0
   12.9685  -14.1744   18.1970 N   0  0  0  0  0  0  0  0  0  0  0  0
   14.2267  -14.3070   18.8095 C   0  0  0  0  0  0  0  0  0  0  0  0
   15.2053  -14.6853   18.1407 O   0  0  0  0  0  0  0  0  0  0  0  0
   14.4135  -14.0020   20.2501 C   0  0  0  0  0  0  0  0  0  0  0  0
   13.1570  -14.3530   20.9899 C   0  0  0  0  0  0  0  0  0  0  0  0
   12.9658  -15.8083   21.1908 C   0  0  2  0  0  0  0  0  0  0  0  0
   11.5870  -16.2208   20.9948 N   0  0  0  0  0  0  0  0  0  0  0  0
   13.3774  -16.2268   22.5425 C   0  0  0  0  0  0  0  0  0  0  0  0
   14.6030  -16.5388   22.7549 O   0  0  0  0  0  0  0  0  0  0  0  0
   12.5628  -16.3219   23.6462 O   0  0  0  0  0  0  0  0  0  0  0  0
  2  1  1  1
  2  4  1  0
  3  2  1  0
  4  5  2  0
  6  7  1  0
  7  9  1  0
  8  7  2  0
 10  9  1  1
 10 12  1  0
 11 10  1  0
 11  4  1  0
 12 13  2  0
 12 20  1  0
 15 17  1  0
 15 14  1  0
 16 15  2  0
 19 18  1  1
 18 17  1  0
 19 21  1  0
 20 19  1  0
 21 22  2  0
 21 23  1  0
M  END
$$$$
