ANQ.pdb
     RDKit          3D

 23 22  0  0  1  0  0  0  0  0999 V2000
    9.3198  -22.7949   24.6578 C   0  0  0  0  0  0  0  0  0  0  0  0
    9.8376  -21.7500   23.6667 C   0  0  2  0  0  0  0  0  0  0  0  0
   10.6353  -22.4392   22.6602 N   0  0  0  0  0  0  0  0  0  0  0  0
   10.6648  -20.7293   24.3540 C   0  0  0  0  0  0  0  0  0  0  0  0
   11.5950  -21.1157   25.1427 O   0  0  0  0  0  0  0  0  0  0  0  0
   13.6738  -16.0401   24.4193 N   0  0  0  0  0  0  0  0  0  0  0  0
   12.3138  -16.1563   24.7799 C   0  0  0  0  0  0  0  0  0  0  0  0
   11.8343  -15.4699   25.7242 O   0  0  0  0  0  0  0  0  0  0  0  0
   11.4194  -17.0924   24.0511 C   0  0  0  0  0  0  0  0  0  0  0  0
   11.2971  -18.3756   24.8658 C   0  0  2  0  0  0  0  0  0  0  0  0
   10.4709  -19.3455   24.1759 N   0  0  0  0  0  0  0  0  0  0  0  0
   10.8090  -18.0612   26.2251 C   0  0  0  0  0  0  0  0  0  0  0  0
    9.6494  -17.5976   26.3238 O   0  0  0  0  0  0  0  0  0  0  0  0
   11.8297  -20.8696   31.5821 N   0  0  0  0  0  0  0  0  0  0  0  0
   12.2535  -21.1408   30.2696 C   0  0  0  0  0  0  0  0  0  0  0  0
   12.8334  -22.2116   30.0139 O   0  0  0  0  0  0  0  0  0  0  0  0
   12.0209  -20.1680   29.1729 C   0  0  0  0  0  0  0  0  0  0  0  0
   11.2928  -18.9779   29.7229 C   0  0  0  0  0  0  0  0  0  0  0  0
   11.1016  -17.8851   28.7409 C   0  0  2  0  0  0  0  0  0  0  0  0
   11.5557  -18.2474   27.4096 N   0  0  0  0  0  0  0  0  0  0  0  0
   11.8153  -16.6614   29.1470 C   0  0  0  0  0  0  0  0  0  0  0  0
   12.8165  -16.2613   28.4527 O   0  0  0  0  0  0  0  0  0  0  0  0
   11.5148  -15.8676   30.2288 O   0  0  0  0  0  0  0  0  0  0  0  0
  2  1  1  1
  2  4  1  0
  3  2  1  0
  4  5  2  0
  6  7  1  0
  7  9  1  0
  8  7  2  0
 10  9  1  6
 10 12  1  0
 11 10  1  0
 11  4  1  0
 12 13  2  0
 12 20  1  0
 15 17  1  0
 15 14  1  0
 16 15  2  0
 19 18  1  1
 18 17  1  0
 19 21  1  0
 20 19  1  0
 21 22  2  0
 21 23  1  0
M  END
$$$$
