SDI.pdb
     RDKit          3D

 23 22  0  0  1  0  0  0  0  0999 V2000
    8.2076  -13.9465   19.7392 O   0  0  0  0  0  0  0  0  0  0  0  0
    8.7783  -15.1022   19.2267 C   0  0  0  0  0  0  0  0  0  0  0  0
    8.1553  -16.3721   19.7482 C   0  0  2  0  0  0  0  0  0  0  0  0
    6.7590  -16.4252   19.3204 N   0  0  0  0  0  0  0  0  0  0  0  0
    8.2387  -16.5169   21.2205 C   0  0  0  0  0  0  0  0  0  0  0  0
    7.2111  -16.2193   21.9080 O   0  0  0  0  0  0  0  0  0  0  0  0
    9.3979  -16.9686   21.9014 N   0  0  0  0  0  0  0  0  0  0  0  0
    9.5018  -17.1399   23.3322 C   0  0  1  0  0  0  0  0  0  0  0  0
   10.5342  -18.1482   23.6761 C   0  0  0  0  0  0  0  0  0  0  0  0
   10.2228  -19.4911   23.1637 C   0  0  0  0  0  0  0  0  0  0  0  0
    9.0643  -19.9372   23.2388 O   0  0  0  0  0  0  0  0  0  0  0  0
    9.6754  -15.8366   24.0061 C   0  0  0  0  0  0  0  0  0  0  0  0
   10.5804  -15.0792   23.5788 O   0  0  0  0  0  0  0  0  0  0  0  0
   11.2143  -20.2559   22.6001 O   0  0  0  0  0  0  0  0  0  0  0  0
    5.8655  -12.6121   26.8482 C   0  0  0  0  0  0  0  0  0  0  0  0
    6.8294  -13.7006   26.4759 C   0  0  0  0  0  0  0  0  0  0  0  0
    8.0681  -13.1984   25.7773 C   0  0  2  0  0  0  0  0  0  0  0  0
    7.7639  -12.7165   24.3912 C   0  0  0  0  0  0  0  0  0  0  0  0
    9.2181  -14.1760   25.8312 C   0  0  2  0  0  0  0  0  0  0  0  0
    8.8980  -15.3891   25.0905 N   0  0  0  0  0  0  0  0  0  0  0  0
    9.3972  -14.5667   27.2473 C   0  0  0  0  0  0  0  0  0  0  0  0
    9.8624  -13.6460   28.1885 O   0  0  0  0  0  0  0  0  0  0  0  0
    9.1443  -15.7147   27.6519 O   0  0  0  0  0  0  0  0  0  0  0  0
  2  1  1  0
  3  2  1  0
  3  4  1  1
  5  3  1  0
  6  5  2  0
  7  5  1  0
  8 12  1  0
  8  7  1  0
  8  9  1  6
 10 14  1  0
 10  9  1  0
 11 10  2  0
 12 20  1  0
 13 12  2  0
 16 15  1  0
 17 16  1  0
 17 18  1  6
 19 21  1  0
 19 17  1  0
 19 20  1  6
 21 22  1  0
 23 21  2  0
M  END
$$$$
