SDI.pdb
     RDKit          3D

 23 22  0  0  1  0  0  0  0  0999 V2000
    9.3269  -11.9487   19.3959 O   0  0  0  0  0  0  0  0  0  0  0  0
    9.4820  -13.2690   19.0000 C   0  0  0  0  0  0  0  0  0  0  0  0
    8.2448  -14.1101   19.1864 C   0  0  2  0  0  0  0  0  0  0  0  0
    7.0666  -13.2780   18.9519 N   0  0  0  0  0  0  0  0  0  0  0  0
    8.1540  -14.7508   20.5193 C   0  0  0  0  0  0  0  0  0  0  0  0
    7.1922  -14.4121   21.2794 O   0  0  0  0  0  0  0  0  0  0  0  0
    9.0776  -15.7182   20.9909 N   0  0  0  0  0  0  0  0  0  0  0  0
    8.9667  -16.4232   22.2471 C   0  0  1  0  0  0  0  0  0  0  0  0
    9.8776  -17.5935   22.2852 C   0  0  0  0  0  0  0  0  0  0  0  0
    9.8079  -18.3381   23.5517 C   0  0  0  0  0  0  0  0  0  0  0  0
    8.7124  -18.5224   24.1106 O   0  0  0  0  0  0  0  0  0  0  0  0
    9.1206  -15.4946   23.3860 C   0  0  0  0  0  0  0  0  0  0  0  0
   10.2044  -14.8687   23.4810 O   0  0  0  0  0  0  0  0  0  0  0  0
   10.9564  -18.8321   24.1196 O   0  0  0  0  0  0  0  0  0  0  0  0
    7.0750  -11.2130   26.5467 C   0  0  0  0  0  0  0  0  0  0  0  0
    7.1610  -12.6570   26.9466 C   0  0  0  0  0  0  0  0  0  0  0  0
    7.0367  -13.6138   25.7875 C   0  0  2  0  0  0  0  0  0  0  0  0
    5.8803  -14.5504   25.9655 C   0  0  0  0  0  0  0  0  0  0  0  0
    8.3312  -14.3186   25.4575 C   0  0  2  0  0  0  0  0  0  0  0  0
    8.1384  -15.2659   24.3675 N   0  0  0  0  0  0  0  0  0  0  0  0
    8.7214  -15.1029   26.6502 C   0  0  0  0  0  0  0  0  0  0  0  0
    9.2331  -14.4698   27.7848 O   0  0  0  0  0  0  0  0  0  0  0  0
    8.6111  -16.3405   26.6908 O   0  0  0  0  0  0  0  0  0  0  0  0
  2  1  1  0
  3  2  1  0
  3  4  1  1
  5  3  1  0
  6  5  2  0
  7  5  1  0
  8 12  1  0
  8  7  1  0
  8  9  1  6
 10 14  1  0
 10  9  1  0
 11 10  2  0
 12 20  1  0
 13 12  2  0
 16 15  1  0
 17 16  1  0
 17 18  1  1
 19 21  1  0
 19 17  1  0
 19 20  1  6
 21 22  1  0
 23 21  2  0
M  END
$$$$
