SDI.pdb
     RDKit          3D

 23 22  0  0  1  0  0  0  0  0999 V2000
    9.4893  -12.2983   20.0453 O   0  0  0  0  0  0  0  0  0  0  0  0
    9.2628  -13.3332   19.1500 C   0  0  0  0  0  0  0  0  0  0  0  0
    7.9911  -14.0989   19.4132 C   0  0  2  0  0  0  0  0  0  0  0  0
    6.8502  -13.2134   19.1901 N   0  0  0  0  0  0  0  0  0  0  0  0
    7.9178  -14.6850   20.7721 C   0  0  0  0  0  0  0  0  0  0  0  0
    7.1316  -14.1445   21.6130 O   0  0  0  0  0  0  0  0  0  0  0  0
    8.6735  -15.8124   21.1837 N   0  0  0  0  0  0  0  0  0  0  0  0
    8.5316  -16.4829   22.4554 C   0  0  1  0  0  0  0  0  0  0  0  0
    9.1863  -17.8140   22.4337 C   0  0  0  0  0  0  0  0  0  0  0  0
    9.0864  -18.5273   23.7160 C   0  0  0  0  0  0  0  0  0  0  0  0
    8.0136  -18.5381   24.3450 O   0  0  0  0  0  0  0  0  0  0  0  0
    8.9688  -15.6075   23.5625 C   0  0  0  0  0  0  0  0  0  0  0  0
   10.0781  -15.0325   23.4432 O   0  0  0  0  0  0  0  0  0  0  0  0
   10.1813  -19.1843   24.2212 O   0  0  0  0  0  0  0  0  0  0  0  0
    5.6860  -12.0988   25.7675 C   0  0  0  0  0  0  0  0  0  0  0  0
    6.9074  -12.8213   25.2790 C   0  0  0  0  0  0  0  0  0  0  0  0
    7.5834  -13.6524   26.3405 C   0  0  2  0  0  0  0  0  0  0  0  0
    7.9830  -12.8213   27.5219 C   0  0  0  0  0  0  0  0  0  0  0  0
    8.7079  -14.5045   25.8015 C   0  0  2  0  0  0  0  0  0  0  0  0
    8.2287  -15.3762   24.7369 N   0  0  0  0  0  0  0  0  0  0  0  0
    9.1655  -15.3781   26.9048 C   0  0  0  0  0  0  0  0  0  0  0  0
    8.9527  -16.7575   26.8582 O   0  0  0  0  0  0  0  0  0  0  0  0
    9.7502  -14.9265   27.9046 O   0  0  0  0  0  0  0  0  0  0  0  0
  2  1  1  0
  3  2  1  0
  3  4  1  1
  5  3  1  0
  6  5  2  0
  7  5  1  0
  8 12  1  0
  8  7  1  0
  8  9  1  6
 10 14  1  0
 10  9  1  0
 11 10  2  0
 12 20  1  0
 13 12  2  0
 16 15  1  0
 17 16  1  0
 17 18  1  1
 19 21  1  0
 19 17  1  0
 19 20  1  6
 21 22  1  0
 23 21  2  0
M  END
$$$$
