SDI.pdb
     RDKit          3D

 23 22  0  0  1  0  0  0  0  0999 V2000
    9.7048  -12.5714   19.6699 O   0  0  0  0  0  0  0  0  0  0  0  0
    9.3271  -13.6482   18.8815 C   0  0  0  0  0  0  0  0  0  0  0  0
    7.9659  -14.2020   19.2183 C   0  0  2  0  0  0  0  0  0  0  0  0
    6.9678  -13.1510   19.0326 N   0  0  0  0  0  0  0  0  0  0  0  0
    7.8691  -14.7544   20.5899 C   0  0  0  0  0  0  0  0  0  0  0  0
    7.0174  -14.2391   21.3814 O   0  0  0  0  0  0  0  0  0  0  0  0
    8.6712  -15.8230   21.0653 N   0  0  0  0  0  0  0  0  0  0  0  0
    8.4638  -16.5201   22.3135 C   0  0  1  0  0  0  0  0  0  0  0  0
    9.0676  -17.8747   22.2758 C   0  0  0  0  0  0  0  0  0  0  0  0
    8.9797  -18.5819   23.5624 C   0  0  0  0  0  0  0  0  0  0  0  0
    7.8723  -18.7883   24.0894 O   0  0  0  0  0  0  0  0  0  0  0  0
    8.8988  -15.6914   23.4567 C   0  0  0  0  0  0  0  0  0  0  0  0
   10.0252  -15.1429   23.3795 O   0  0  0  0  0  0  0  0  0  0  0  0
   10.1242  -19.0162   24.1846 O   0  0  0  0  0  0  0  0  0  0  0  0
    5.5786  -12.2419   25.6660 C   0  0  0  0  0  0  0  0  0  0  0  0
    6.7878  -12.9828   25.1746 C   0  0  0  0  0  0  0  0  0  0  0  0
    7.4881  -13.7769   26.2485 C   0  0  2  0  0  0  0  0  0  0  0  0
    7.9021  -12.9079   27.3973 C   0  0  0  0  0  0  0  0  0  0  0  0
    8.6093  -14.6371   25.7156 C   0  0  2  0  0  0  0  0  0  0  0  0
    8.1389  -15.4766   24.6216 N   0  0  0  0  0  0  0  0  0  0  0  0
    9.0266  -15.5428   26.8090 C   0  0  0  0  0  0  0  0  0  0  0  0
    9.9962  -15.1472   27.7328 O   0  0  0  0  0  0  0  0  0  0  0  0
    8.5380  -16.6775   26.9484 O   0  0  0  0  0  0  0  0  0  0  0  0
  2  1  1  0
  3  2  1  0
  3  4  1  1
  5  3  1  0
  6  5  2  0
  7  5  1  0
  8 12  1  0
  8  7  1  0
  8  9  1  6
 10 14  1  0
 10  9  1  0
 11 10  2  0
 12 20  1  0
 13 12  2  0
 16 15  1  0
 17 16  1  0
 17 18  1  1
 19 21  1  0
 19 17  1  0
 19 20  1  6
 21 22  1  0
 23 21  2  0
M  END
$$$$
