SDI.pdb
     RDKit          3D

 23 22  0  0  1  0  0  0  0  0999 V2000
    8.0077  -13.0422   19.4967 O   0  0  0  0  0  0  0  0  0  0  0  0
    8.9257  -13.8692   20.1270 C   0  0  0  0  0  0  0  0  0  0  0  0
    8.4144  -15.2644   20.3815 C   0  0  2  0  0  0  0  0  0  0  0  0
    6.9772  -15.2974   20.1191 N   0  0  0  0  0  0  0  0  0  0  0  0
    8.6899  -15.7606   21.7502 C   0  0  0  0  0  0  0  0  0  0  0  0
    7.7178  -15.8260   22.5676 O   0  0  0  0  0  0  0  0  0  0  0  0
    9.9739  -16.1656   22.1958 N   0  0  0  0  0  0  0  0  0  0  0  0
   10.2616  -16.7093   23.5030 C   0  0  1  0  0  0  0  0  0  0  0  0
   11.4683  -17.5717   23.4694 C   0  0  0  0  0  0  0  0  0  0  0  0
   11.4376  -18.5655   22.3857 C   0  0  0  0  0  0  0  0  0  0  0  0
   10.7192  -19.5760   22.4826 O   0  0  0  0  0  0  0  0  0  0  0  0
   10.3072  -15.6378   24.5193 C   0  0  0  0  0  0  0  0  0  0  0  0
   11.1218  -14.7006   24.3370 O   0  0  0  0  0  0  0  0  0  0  0  0
   12.2046  -18.3776   21.2623 O   0  0  0  0  0  0  0  0  0  0  0  0
    6.0581  -13.1902   26.2648 C   0  0  0  0  0  0  0  0  0  0  0  0
    7.4523  -13.6062   25.8966 C   0  0  0  0  0  0  0  0  0  0  0  0
    8.2956  -14.0091   27.0801 C   0  0  2  0  0  0  0  0  0  0  0  0
    8.3770  -12.9133   28.0994 C   0  0  0  0  0  0  0  0  0  0  0  0
    9.6454  -14.5614   26.6874 C   0  0  2  0  0  0  0  0  0  0  0  0
    9.5025  -15.5975   25.6731 N   0  0  0  0  0  0  0  0  0  0  0  0
   10.2229  -15.2060   27.8878 C   0  0  0  0  0  0  0  0  0  0  0  0
   10.9041  -14.4515   28.8453 O   0  0  0  0  0  0  0  0  0  0  0  0
   10.1268  -16.4288   28.0906 O   0  0  0  0  0  0  0  0  0  0  0  0
  2  1  1  0
  3  2  1  0
  3  4  1  1
  5  3  1  0
  6  5  2  0
  7  5  1  0
  8 12  1  0
  8  7  1  0
  8  9  1  6
 10 14  1  0
 10  9  1  0
 11 10  2  0
 12 20  1  0
 13 12  2  0
 16 15  1  0
 17 16  1  0
 17 18  1  1
 19 21  1  0
 19 17  1  0
 19 20  1  6
 21 22  1  0
 23 21  2  0
M  END
$$$$
