SDI.pdb
     RDKit          3D

 23 22  0  0  1  0  0  0  0  0999 V2000
    8.2758  -13.4780   20.9143 O   0  0  0  0  0  0  0  0  0  0  0  0
    8.6493  -14.5411   20.1054 C   0  0  0  0  0  0  0  0  0  0  0  0
    8.0833  -15.8680   20.5434 C   0  0  2  0  0  0  0  0  0  0  0  0
    6.6330  -15.8459   20.3663 N   0  0  0  0  0  0  0  0  0  0  0  0
    8.4164  -16.2265   21.9420 C   0  0  0  0  0  0  0  0  0  0  0  0
    7.4713  -16.2505   22.7926 O   0  0  0  0  0  0  0  0  0  0  0  0
    9.7271  -16.5438   22.3812 N   0  0  0  0  0  0  0  0  0  0  0  0
   10.0720  -16.9572   23.7218 C   0  0  1  0  0  0  0  0  0  0  0  0
   11.2918  -17.8015   23.7236 C   0  0  0  0  0  0  0  0  0  0  0  0
   11.0725  -19.1337   23.1401 C   0  0  0  0  0  0  0  0  0  0  0  0
   11.4846  -19.3918   21.9955 O   0  0  0  0  0  0  0  0  0  0  0  0
   10.1357  -15.7937   24.6303 C   0  0  0  0  0  0  0  0  0  0  0  0
   10.9154  -14.8597   24.3220 O   0  0  0  0  0  0  0  0  0  0  0  0
   10.4106  -20.0966   23.8614 O   0  0  0  0  0  0  0  0  0  0  0  0
    5.9537  -13.1561   26.2351 C   0  0  0  0  0  0  0  0  0  0  0  0
    7.3400  -13.6099   25.8818 C   0  0  0  0  0  0  0  0  0  0  0  0
    8.1876  -13.9539   27.0808 C   0  0  2  0  0  0  0  0  0  0  0  0
    8.2727  -12.8091   28.0442 C   0  0  0  0  0  0  0  0  0  0  0  0
    9.5359  -14.5253   26.7109 C   0  0  2  0  0  0  0  0  0  0  0  0
    9.3845  -15.6628   25.8131 N   0  0  0  0  0  0  0  0  0  0  0  0
   10.1543  -15.0340   27.9554 C   0  0  0  0  0  0  0  0  0  0  0  0
   10.3142  -16.4054   28.1642 O   0  0  0  0  0  0  0  0  0  0  0  0
   10.5517  -14.2721   28.8538 O   0  0  0  0  0  0  0  0  0  0  0  0
  2  1  1  0
  3  2  1  0
  3  4  1  1
  5  3  1  0
  6  5  2  0
  7  5  1  0
  8 12  1  0
  8  7  1  0
  8  9  1  6
 10 14  1  0
 10  9  1  0
 11 10  2  0
 12 20  1  0
 13 12  2  0
 16 15  1  0
 17 16  1  0
 17 18  1  6
 19 21  1  0
 19 17  1  0
 19 20  1  6
 21 22  1  0
 23 21  2  0
M  END
$$$$
