PRD.pdb
     RDKit          3D

 27 27  0  0  1  0  0  0  0  0999 V2000
    9.6657  -13.7918   18.6997 N   0  0  0  0  0  0  0  0  0  0  0  0
    8.5407  -13.7379   17.8303 C   0  0  0  0  0  0  0  0  0  0  0  0
    7.3426  -13.4260   18.7027 C   0  0  0  0  0  0  0  0  0  0  0  0
    7.9697  -12.5382   19.7576 C   0  0  0  0  0  0  0  0  0  0  0  0
    9.2848  -13.3063   19.9847 C   0  0  1  0  0  0  0  0  0  0  0  0
    8.9683  -14.3825   20.9564 C   0  0  0  0  0  0  0  0  0  0  0  0
    8.4147  -14.1132   22.0772 O   0  0  0  0  0  0  0  0  0  0  0  0
    8.8593  -18.6088   16.8399 N   0  0  0  0  0  0  0  0  0  0  0  0
    7.4448  -18.7375   16.7686 C   0  0  0  0  0  0  0  0  0  0  0  0
    6.7989  -18.5557   15.6674 N   0  0  0  0  0  0  0  0  0  0  0  0
    6.6803  -19.0788   17.9290 N   0  0  0  0  0  0  0  0  0  0  0  0
    7.2857  -19.2099   19.2350 C   0  0  0  0  0  0  0  0  0  0  0  0
    7.8081  -17.8763   19.7199 C   0  0  0  0  0  0  0  0  0  0  0  0
    8.2735  -18.0018   21.1431 C   0  0  0  0  0  0  0  0  0  0  0  0
    8.9546  -16.8127   21.6600 C   0  0  2  0  0  0  0  0  0  0  0  0
    9.2303  -15.7575   20.7627 N   0  0  0  0  0  0  0  0  0  0  0  0
   10.2647  -17.2483   22.2718 C   0  0  0  0  0  0  0  0  0  0  0  0
   10.5425  -18.4497   22.2404 O   0  0  0  0  0  0  0  0  0  0  0  0
    5.7802  -18.6251   15.6128 N   0  0  0  0  0  0  0  0  0  0  0  0
   11.1747  -16.3486   22.8714 C   0  0  1  0  0  0  0  0  0  0  0  0
   12.4179  -16.7287   23.4683 C   0  0  0  0  0  0  0  0  0  0  0  0
   13.5009  -15.7107   23.3581 C   0  0  0  0  0  0  0  0  0  0  0  0
   14.2659  -15.7905   22.0918 O   0  0  0  0  0  0  0  0  0  0  0  0
   14.0358  -16.6373   21.1846 C   0  0  0  0  0  0  0  0  0  0  0  0
   12.1862  -17.0043   24.9132 O   0  0  0  0  0  0  0  0  0  0  0  0
   10.9718  -16.7324   25.5238 O   0  0  0  0  0  0  0  0  0  0  0  0
   15.2972  -14.8436   21.9448 O   0  0  0  0  0  0  0  0  0  0  0  0
  1  2  1  0
  3  2  1  0
  4  3  1  0
  5  4  1  0
  5  1  1  0
  5  6  1  1
  7  6  2  0
  9  8  1  0
  9 10  2  0
 11  9  1  0
 12 13  1  0
 12 11  1  0
 14 13  1  0
 15 14  1  6
 15 16  1  0
 16  6  1  0
 17 15  1  0
 17 18  2  0
 19 17  1  0
 20 19  1  0
 20 21  1  1
 21 22  1  0
 22 26  1  0
 22 23  2  0
 24 20  1  0
 25 24  1  0
 27 24  2  0
M  END
$$$$
