PRD.pdb
     RDKit          3D

 27 27  0  0  1  0  0  0  0  0999 V2000
    8.1769  -15.6072   18.1954 N   0  0  0  0  0  0  0  0  0  0  0  0
    7.0279  -14.8192   17.9065 C   0  0  0  0  0  0  0  0  0  0  0  0
    7.3973  -13.3889   18.2402 C   0  0  0  0  0  0  0  0  0  0  0  0
    8.8687  -13.3733   17.8812 C   0  0  0  0  0  0  0  0  0  0  0  0
    9.2818  -14.7433   18.4502 C   0  0  1  0  0  0  0  0  0  0  0  0
    9.5443  -14.5249   19.8944 C   0  0  0  0  0  0  0  0  0  0  0  0
   10.5664  -13.8619   20.2831 O   0  0  0  0  0  0  0  0  0  0  0  0
    4.7839  -12.9492   27.2207 N   0  0  0  0  0  0  0  0  0  0  0  0
    5.9103  -12.1683   26.8413 C   0  0  0  0  0  0  0  0  0  0  0  0
    5.9984  -10.9146   27.1300 N   0  0  0  0  0  0  0  0  0  0  0  0
    6.9983  -12.7533   26.1192 N   0  0  0  0  0  0  0  0  0  0  0  0
    6.8603  -14.0006   25.4020 C   0  0  0  0  0  0  0  0  0  0  0  0
    8.1219  -14.3182   24.6313 C   0  0  0  0  0  0  0  0  0  0  0  0
    7.7864  -14.5559   23.1861 C   0  0  0  0  0  0  0  0  0  0  0  0
    8.9481  -14.8229   22.3352 C   0  0  2  0  0  0  0  0  0  0  0  0
    8.7352  -15.0015   20.9504 N   0  0  0  0  0  0  0  0  0  0  0  0
    9.6396  -16.0603   22.8559 C   0  0  0  0  0  0  0  0  0  0  0  0
    9.1057  -17.1510   22.6400 O   0  0  0  0  0  0  0  0  0  0  0  0
    6.8355  -10.3638   26.9267 N   0  0  0  0  0  0  0  0  0  0  0  0
   10.8576  -16.0216   23.5716 C   0  0  2  0  0  0  0  0  0  0  0  0
   11.4517  -17.1473   24.2244 C   0  0  0  0  0  0  0  0  0  0  0  0
   12.9290  -17.0593   24.4007 C   0  0  0  0  0  0  0  0  0  0  0  0
   13.6592  -16.7386   23.1521 O   0  0  0  0  0  0  0  0  0  0  0  0
   13.4864  -17.3491   22.0610 C   0  0  0  0  0  0  0  0  0  0  0  0
   10.8324  -17.2970   25.5703 O   0  0  0  0  0  0  0  0  0  0  0  0
   10.0188  -16.3153   26.1141 O   0  0  0  0  0  0  0  0  0  0  0  0
   14.5867  -15.6837   23.2451 O   0  0  0  0  0  0  0  0  0  0  0  0
  1  2  1  0
  3  2  1  0
  4  3  1  0
  5  4  1  0
  5  1  1  0
  5  6  1  1
  7  6  2  0
  9  8  1  0
  9 10  2  0
 11  9  1  0
 12 13  1  0
 12 11  1  0
 14 13  1  0
 15 14  1  1
 15 16  1  0
 16  6  1  0
 17 15  1  0
 17 18  2  0
 19 17  1  0
 20 19  1  0
 20 21  1  6
 21 22  1  0
 22 26  1  0
 22 23  2  0
 24 20  1  0
 25 24  1  0
 27 24  2  0
M  END
$$$$
