PRD.pdb
     RDKit          3D

 27 27  0  0  1  0  0  0  0  0999 V2000
    8.2592  -18.0043   16.1812 N   0  0  0  0  0  0  0  0  0  0  0  0
    7.0042  -17.4174   15.8565 C   0  0  0  0  0  0  0  0  0  0  0  0
    7.2888  -15.9735   15.4993 C   0  0  0  0  0  0  0  0  0  0  0  0
    8.6545  -16.0932   14.8550 C   0  0  0  0  0  0  0  0  0  0  0  0
    9.3022  -17.1014   15.8220 C   0  0  1  0  0  0  0  0  0  0  0  0
    9.8160  -16.3033   16.9628 C   0  0  0  0  0  0  0  0  0  0  0  0
   10.7066  -15.4028   16.7859 O   0  0  0  0  0  0  0  0  0  0  0  0
    5.8146  -13.3493   23.8043 N   0  0  0  0  0  0  0  0  0  0  0  0
    7.2314  -13.2702   23.7092 C   0  0  0  0  0  0  0  0  0  0  0  0
    7.9630  -12.9219   24.7124 N   0  0  0  0  0  0  0  0  0  0  0  0
    7.9023  -13.5795   22.4838 N   0  0  0  0  0  0  0  0  0  0  0  0
    7.1820  -13.8095   21.2519 C   0  0  0  0  0  0  0  0  0  0  0  0
    8.1378  -14.1226   20.1227 C   0  0  0  0  0  0  0  0  0  0  0  0
    8.9501  -15.3383   20.4690 C   0  0  0  0  0  0  0  0  0  0  0  0
    9.8981  -15.7442   19.4290 C   0  0  2  0  0  0  0  0  0  0  0  0
    9.4002  -16.4415   18.3062 N   0  0  0  0  0  0  0  0  0  0  0  0
   10.9603  -16.6055   20.0695 C   0  0  0  0  0  0  0  0  0  0  0  0
   10.8518  -17.8292   19.9593 O   0  0  0  0  0  0  0  0  0  0  0  0
    8.9833  -12.8831   24.6581 N   0  0  0  0  0  0  0  0  0  0  0  0
   12.0601  -16.0750   20.7811 C   0  0  2  0  0  0  0  0  0  0  0  0
   13.1160  -16.8580   21.3452 C   0  0  0  0  0  0  0  0  0  0  0  0
   14.3734  -16.1062   21.6192 C   0  0  0  0  0  0  0  0  0  0  0  0
   15.4766  -16.9561   22.1251 O   0  0  0  0  0  0  0  0  0  0  0  0
   15.5625  -17.3584   23.3183 C   0  0  0  0  0  0  0  0  0  0  0  0
   12.6385  -17.4457   22.6274 O   0  0  0  0  0  0  0  0  0  0  0  0
   13.2388  -18.5621   23.1883 O   0  0  0  0  0  0  0  0  0  0  0  0
   16.4578  -17.3048   21.1777 O   0  0  0  0  0  0  0  0  0  0  0  0
  1  2  1  0
  3  2  1  0
  4  3  1  0
  5  4  1  0
  5  1  1  0
  5  6  1  1
  7  6  2  0
  9  8  1  0
  9 10  2  0
 11  9  1  0
 12 13  1  0
 12 11  1  0
 14 13  1  0
 15 14  1  1
 15 16  1  0
 16  6  1  0
 17 15  1  0
 17 18  2  0
 19 17  1  0
 20 19  1  0
 20 21  1  6
 21 22  1  0
 22 26  1  0
 22 23  2  0
 24 20  1  0
 25 24  1  0
 27 24  2  0
M  END
$$$$
