PRD.pdb
     RDKit          3D

 27 27  0  0  1  0  0  0  0  0999 V2000
    8.0449  -12.8854   19.6479 N   0  0  0  0  0  0  0  0  0  0  0  0
    8.1297  -12.2180   18.3941 C   0  0  0  0  0  0  0  0  0  0  0  0
    8.3228  -13.2973   17.3493 C   0  0  0  0  0  0  0  0  0  0  0  0
    7.5175  -14.4328   17.9465 C   0  0  0  0  0  0  0  0  0  0  0  0
    7.9337  -14.2884   19.4220 C   0  0  1  0  0  0  0  0  0  0  0  0
    9.2201  -15.0157   19.5580 C   0  0  0  0  0  0  0  0  0  0  0  0
    9.2802  -16.2816   19.3864 O   0  0  0  0  0  0  0  0  0  0  0  0
   16.3736  -13.0683   16.3537 N   0  0  0  0  0  0  0  0  0  0  0  0
   15.6400  -14.2455   16.6680 C   0  0  0  0  0  0  0  0  0  0  0  0
   14.7895  -14.7580   15.8453 N   0  0  0  0  0  0  0  0  0  0  0  0
   15.8233  -14.9107   17.9214 N   0  0  0  0  0  0  0  0  0  0  0  0
   15.3411  -14.3517   19.1642 C   0  0  0  0  0  0  0  0  0  0  0  0
   14.1788  -15.1576   19.6991 C   0  0  0  0  0  0  0  0  0  0  0  0
   12.9139  -14.3533   19.5943 C   0  0  0  0  0  0  0  0  0  0  0  0
   11.7083  -15.0715   20.0134 C   0  0  2  0  0  0  0  0  0  0  0  0
   10.4619  -14.4215   19.8770 N   0  0  0  0  0  0  0  0  0  0  0  0
   11.8688  -15.4552   21.4651 C   0  0  0  0  0  0  0  0  0  0  0  0
   11.0519  -15.0052   22.2723 O   0  0  0  0  0  0  0  0  0  0  0  0
   14.2847  -15.6236   16.0488 N   0  0  0  0  0  0  0  0  0  0  0  0
   12.9027  -16.2979   21.9320 C   0  0  2  0  0  0  0  0  0  0  0  0
   12.8834  -16.9892   23.1842 C   0  0  0  0  0  0  0  0  0  0  0  0
   11.7033  -17.8760   23.3901 C   0  0  0  0  0  0  0  0  0  0  0  0
   11.7210  -18.5995   24.6828 O   0  0  0  0  0  0  0  0  0  0  0  0
   12.5961  -18.4222   25.5749 C   0  0  0  0  0  0  0  0  0  0  0  0
   14.1131  -17.8230   23.2854 O   0  0  0  0  0  0  0  0  0  0  0  0
   14.8619  -17.8830   24.4502 O   0  0  0  0  0  0  0  0  0  0  0  0
   10.6786  -19.5261   24.8743 O   0  0  0  0  0  0  0  0  0  0  0  0
  1  2  1  0
  3  2  1  0
  4  3  1  0
  5  4  1  0
  5  1  1  0
  5  6  1  6
  7  6  2  0
  9  8  1  0
  9 10  2  0
 11  9  1  0
 12 13  1  0
 12 11  1  0
 14 13  1  0
 15 14  1  1
 15 16  1  0
 16  6  1  0
 17 15  1  0
 17 18  2  0
 19 17  1  0
 20 19  1  0
 20 21  1  6
 21 22  1  0
 22 26  1  0
 22 23  2  0
 24 20  1  0
 25 24  1  0
 27 24  2  0
M  END
$$$$
