PRD.pdb
     RDKit          3D

 27 27  0  0  1  0  0  0  0  0999 V2000
    9.1828  -13.3809   18.1689 N   0  0  0  0  0  0  0  0  0  0  0  0
    7.9157  -13.4278   17.5234 C   0  0  0  0  0  0  0  0  0  0  0  0
    6.8822  -13.5590   18.6227 C   0  0  0  0  0  0  0  0  0  0  0  0
    7.5298  -12.7575   19.7329 C   0  0  0  0  0  0  0  0  0  0  0  0
    8.9850  -13.2349   19.5730 C   0  0  1  0  0  0  0  0  0  0  0  0
    9.0820  -14.5122   20.3225 C   0  0  0  0  0  0  0  0  0  0  0  0
    8.4152  -14.6944   21.3984 O   0  0  0  0  0  0  0  0  0  0  0  0
   10.5768  -22.8188   21.1846 N   0  0  0  0  0  0  0  0  0  0  0  0
   10.6161  -22.3496   19.8426 C   0  0  0  0  0  0  0  0  0  0  0  0
   11.4575  -22.8144   18.9829 N   0  0  0  0  0  0  0  0  0  0  0  0
    9.7122  -21.3353   19.3938 N   0  0  0  0  0  0  0  0  0  0  0  0
    9.2477  -20.2810   20.2668 C   0  0  0  0  0  0  0  0  0  0  0  0
   10.3705  -19.3223   20.5937 C   0  0  0  0  0  0  0  0  0  0  0  0
   10.2058  -18.0589   19.7971 C   0  0  0  0  0  0  0  0  0  0  0  0
    9.9752  -16.8620   20.6089 C   0  0  2  0  0  0  0  0  0  0  0  0
    9.8823  -15.6158   19.9507 N   0  0  0  0  0  0  0  0  0  0  0  0
   11.0862  -16.7613   21.6266 C   0  0  0  0  0  0  0  0  0  0  0  0
   12.0414  -16.0265   21.3640 O   0  0  0  0  0  0  0  0  0  0  0  0
   11.4836  -22.4913   18.0132 N   0  0  0  0  0  0  0  0  0  0  0  0
   11.0777  -17.4649   22.8522 C   0  0  2  0  0  0  0  0  0  0  0  0
   12.1158  -17.3973   23.8342 C   0  0  0  0  0  0  0  0  0  0  0  0
   11.7222  -17.8675   25.1926 C   0  0  0  0  0  0  0  0  0  0  0  0
   12.8214  -17.8090   26.1842 O   0  0  0  0  0  0  0  0  0  0  0  0
   13.9864  -17.4029   25.9180 C   0  0  0  0  0  0  0  0  0  0  0  0
   13.2625  -18.2265   23.3708 O   0  0  0  0  0  0  0  0  0  0  0  0
   14.5683  -17.7648   23.4265 O   0  0  0  0  0  0  0  0  0  0  0  0
   12.4919  -18.2433   27.4822 O   0  0  0  0  0  0  0  0  0  0  0  0
  1  2  1  0
  3  2  1  0
  4  3  1  0
  5  4  1  0
  5  1  1  0
  5  6  1  1
  7  6  2  0
  9  8  1  0
  9 10  2  0
 11  9  1  0
 12 13  1  0
 12 11  1  0
 14 13  1  0
 15 14  1  6
 15 16  1  0
 16  6  1  0
 17 15  1  0
 17 18  2  0
 19 17  1  0
 20 19  1  0
 20 21  1  1
 21 22  1  0
 22 26  1  0
 22 23  2  0
 24 20  1  0
 25 24  1  0
 27 24  2  0
M  END
$$$$
