PRD.pdb
     RDKit          3D

 27 27  0  0  1  0  0  0  0  0999 V2000
    9.1151  -14.2309   18.8446 N   0  0  0  0  0  0  0  0  0  0  0  0
    7.8853  -13.6286   18.4579 C   0  0  0  0  0  0  0  0  0  0  0  0
    7.1300  -13.3419   19.7389 C   0  0  0  0  0  0  0  0  0  0  0  0
    8.2679  -13.0245   20.6869 C   0  0  0  0  0  0  0  0  0  0  0  0
    9.2661  -14.1154   20.2573 C   0  0  1  0  0  0  0  0  0  0  0  0
    8.8775  -15.3412   20.9983 C   0  0  0  0  0  0  0  0  0  0  0  0
    7.6645  -15.7460   21.0076 O   0  0  0  0  0  0  0  0  0  0  0  0
    8.6823  -19.5181   15.6180 N   0  0  0  0  0  0  0  0  0  0  0  0
    7.5706  -18.8646   16.2178 C   0  0  0  0  0  0  0  0  0  0  0  0
    6.5492  -18.4863   15.5275 N   0  0  0  0  0  0  0  0  0  0  0  0
    7.5455  -18.6026   17.6242 N   0  0  0  0  0  0  0  0  0  0  0  0
    8.7555  -18.5204   18.4107 C   0  0  0  0  0  0  0  0  0  0  0  0
    8.4330  -18.2549   19.8640 C   0  0  0  0  0  0  0  0  0  0  0  0
    9.6787  -18.3929   20.6927 C   0  0  0  0  0  0  0  0  0  0  0  0
    9.6946  -17.5604   21.8976 C   0  0  2  0  0  0  0  0  0  0  0  0
    9.7597  -16.1584   21.7403 N   0  0  0  0  0  0  0  0  0  0  0  0
   10.8705  -17.9816   22.7462 C   0  0  0  0  0  0  0  0  0  0  0  0
   11.0725  -19.1900   22.8895 O   0  0  0  0  0  0  0  0  0  0  0  0
    5.7903  -17.9328   15.9316 N   0  0  0  0  0  0  0  0  0  0  0  0
   11.7386  -17.0610   23.3755 C   0  0  1  0  0  0  0  0  0  0  0  0
   12.7981  -17.4226   24.2660 C   0  0  0  0  0  0  0  0  0  0  0  0
   13.9789  -16.5138   24.2337 C   0  0  0  0  0  0  0  0  0  0  0  0
   14.3983  -16.1315   22.8651 O   0  0  0  0  0  0  0  0  0  0  0  0
   14.3085  -16.8951   21.8642 C   0  0  0  0  0  0  0  0  0  0  0  0
   12.2647  -17.4404   25.6562 O   0  0  0  0  0  0  0  0  0  0  0  0
   13.0130  -17.9190   26.7203 O   0  0  0  0  0  0  0  0  0  0  0  0
   14.9196  -14.8307   22.7309 O   0  0  0  0  0  0  0  0  0  0  0  0
  1  2  1  0
  3  2  1  0
  4  3  1  0
  5  4  1  0
  5  1  1  0
  5  6  1  1
  7  6  2  0
  9  8  1  0
  9 10  2  0
 11  9  1  0
 12 13  1  0
 12 11  1  0
 14 13  1  0
 15 14  1  6
 15 16  1  0
 16  6  1  0
 17 15  1  0
 17 18  2  0
 19 17  1  0
 20 19  1  0
 20 21  1  1
 21 22  1  0
 22 26  1  0
 22 23  2  0
 24 20  1  0
 25 24  1  0
 27 24  2  0
M  END
$$$$
