PRD.pdb
     RDKit          3D

 27 27  0  0  1  0  0  0  0  0999 V2000
    9.5286  -19.4308   17.3592 N   0  0  0  0  0  0  0  0  0  0  0  0
    8.9656  -18.7890   16.2209 C   0  0  0  0  0  0  0  0  0  0  0  0
    9.8877  -17.6364   15.8822 C   0  0  0  0  0  0  0  0  0  0  0  0
   11.2330  -18.2096   16.2771 C   0  0  0  0  0  0  0  0  0  0  0  0
   10.8342  -18.9075   17.5905 C   0  0  1  0  0  0  0  0  0  0  0  0
   10.8766  -17.8597   18.6406 C   0  0  0  0  0  0  0  0  0  0  0  0
   11.9759  -17.2839   18.9497 O   0  0  0  0  0  0  0  0  0  0  0  0
    8.5306  -13.7754   17.6958 N   0  0  0  0  0  0  0  0  0  0  0  0
    7.7675  -13.1262   18.7051 C   0  0  0  0  0  0  0  0  0  0  0  0
    6.4913  -12.9732   18.6015 N   0  0  0  0  0  0  0  0  0  0  0  0
    8.3958  -12.6159   19.8850 N   0  0  0  0  0  0  0  0  0  0  0  0
    9.3210  -13.4070   20.6645 C   0  0  0  0  0  0  0  0  0  0  0  0
    8.5864  -14.4650   21.4567 C   0  0  0  0  0  0  0  0  0  0  0  0
    8.4662  -15.7188   20.6374 C   0  0  0  0  0  0  0  0  0  0  0  0
    9.7447  -16.3701   20.3440 C   0  0  2  0  0  0  0  0  0  0  0  0
    9.7630  -17.4031   19.3809 N   0  0  0  0  0  0  0  0  0  0  0  0
   10.2928  -16.9351   21.6326 C   0  0  0  0  0  0  0  0  0  0  0  0
    9.7208  -17.9128   22.1209 O   0  0  0  0  0  0  0  0  0  0  0  0
    5.9410  -12.4755   19.3051 N   0  0  0  0  0  0  0  0  0  0  0  0
   11.4196  -16.3975   22.2948 C   0  0  2  0  0  0  0  0  0  0  0  0
   11.9217  -16.8628   23.5508 C   0  0  0  0  0  0  0  0  0  0  0  0
   13.2793  -16.3604   23.9058 C   0  0  0  0  0  0  0  0  0  0  0  0
   14.3136  -16.6741   22.8925 O   0  0  0  0  0  0  0  0  0  0  0  0
   14.4986  -17.8262   22.4114 C   0  0  0  0  0  0  0  0  0  0  0  0
   10.9776  -16.4448   24.6238 O   0  0  0  0  0  0  0  0  0  0  0  0
    9.9136  -15.5934   24.3705 O   0  0  0  0  0  0  0  0  0  0  0  0
   15.1071  -15.5876   22.4783 O   0  0  0  0  0  0  0  0  0  0  0  0
  1  2  1  0
  3  2  1  0
  4  3  1  0
  5  4  1  0
  5  1  1  0
  5  6  1  1
  7  6  2  0
  9  8  1  0
  9 10  2  0
 11  9  1  0
 12 13  1  0
 12 11  1  0
 14 13  1  0
 15 14  1  1
 15 16  1  0
 16  6  1  0
 17 15  1  0
 17 18  2  0
 19 17  1  0
 20 19  1  0
 20 21  1  6
 21 22  1  0
 22 26  1  0
 22 23  2  0
 24 20  1  0
 25 24  1  0
 27 24  2  0
M  END
$$$$
