PRD.pdb
     RDKit          3D

 27 27  0  0  1  0  0  0  0  0999 V2000
    8.3880  -14.3405   17.9743 N   0  0  0  0  0  0  0  0  0  0  0  0
    7.0852  -13.8724   17.6453 C   0  0  0  0  0  0  0  0  0  0  0  0
    6.6160  -13.0518   18.8286 C   0  0  0  0  0  0  0  0  0  0  0  0
    7.9212  -12.4486   19.3048 C   0  0  0  0  0  0  0  0  0  0  0  0
    8.8370  -13.6772   19.1534 C   0  0  1  0  0  0  0  0  0  0  0  0
    8.6570  -14.4775   20.3902 C   0  0  0  0  0  0  0  0  0  0  0  0
    9.0795  -14.0474   21.5179 O   0  0  0  0  0  0  0  0  0  0  0  0
    3.9669  -21.8546   22.8262 N   0  0  0  0  0  0  0  0  0  0  0  0
    4.9591  -21.6255   23.8190 C   0  0  0  0  0  0  0  0  0  0  0  0
    5.0584  -22.3699   24.8673 N   0  0  0  0  0  0  0  0  0  0  0  0
    5.8935  -20.5499   23.6872 N   0  0  0  0  0  0  0  0  0  0  0  0
    5.8277  -19.6063   22.5941 C   0  0  0  0  0  0  0  0  0  0  0  0
    6.8539  -18.5097   22.7702 C   0  0  0  0  0  0  0  0  0  0  0  0
    6.9216  -17.6744   21.5231 C   0  0  0  0  0  0  0  0  0  0  0  0
    7.8483  -16.5434   21.6066 C   0  0  2  0  0  0  0  0  0  0  0  0
    8.0300  -15.7421   20.4579 N   0  0  0  0  0  0  0  0  0  0  0  0
    9.2023  -17.0724   22.0154 C   0  0  0  0  0  0  0  0  0  0  0  0
    9.8052  -17.7897   21.2134 O   0  0  0  0  0  0  0  0  0  0  0  0
    5.8126  -22.2577   25.5486 N   0  0  0  0  0  0  0  0  0  0  0  0
    9.8003  -16.7838   23.2629 C   0  0  1  0  0  0  0  0  0  0  0  0
   11.0694  -17.2868   23.6905 C   0  0  0  0  0  0  0  0  0  0  0  0
   12.1705  -16.2824   23.6938 C   0  0  0  0  0  0  0  0  0  0  0  0
   13.5097  -16.8667   23.4486 O   0  0  0  0  0  0  0  0  0  0  0  0
   13.7209  -18.1028   23.3053 C   0  0  0  0  0  0  0  0  0  0  0  0
   10.9266  -17.8227   25.0725 O   0  0  0  0  0  0  0  0  0  0  0  0
   11.8977  -18.6263   25.6490 O   0  0  0  0  0  0  0  0  0  0  0  0
   14.5713  -15.9447   23.3808 O   0  0  0  0  0  0  0  0  0  0  0  0
  1  2  1  0
  3  2  1  0
  4  3  1  0
  5  4  1  0
  5  1  1  0
  5  6  1  1
  7  6  2  0
  9  8  1  0
  9 10  2  0
 11  9  1  0
 12 13  1  0
 12 11  1  0
 14 13  1  0
 15 14  1  6
 15 16  1  0
 16  6  1  0
 17 15  1  0
 17 18  2  0
 19 17  1  0
 20 19  1  0
 20 21  1  1
 21 22  1  0
 22 26  1  0
 22 23  2  0
 24 20  1  0
 25 24  1  0
 27 24  2  0
M  END
$$$$
