CGT.pdb
     RDKit          3D

 18 17  0  0  1  0  0  0  0  0999 V2000
   30.7820  -23.4612  -18.5312 N   0  0  0  0  0  0  0  0  0  0  0  0
   30.0035  -23.8919  -17.3904 C   0  0  1  0  0  0  0  0  0  0  0  0
   30.8586  -24.5485  -16.3494 C   0  0  0  0  0  0  0  0  0  0  0  0
   31.4971  -26.1310  -16.9242 S   0  0  0  0  0  0  0  0  0  0  0  0
   29.1938  -22.7795  -16.8259 C   0  0  0  0  0  0  0  0  0  0  0  0
   29.7000  -21.6353  -16.7029 O   0  0  0  0  0  0  0  0  0  0  0  0
   27.8426  -22.9517  -16.4087 N   0  0  0  0  0  0  0  0  0  0  0  0
   27.0621  -21.8951  -15.8338 C   0  0  0  0  0  0  0  0  0  0  0  0
   25.6875  -22.3104  -15.4896 C   0  0  0  0  0  0  0  0  0  0  0  0
   25.2306  -23.4380  -15.7889 O   0  0  0  0  0  0  0  0  0  0  0  0
   21.7962  -21.4431  -12.6182 C   0  0  0  0  0  0  0  0  0  0  0  0
   23.1297  -20.9648  -13.1521 C   0  0  1  0  0  0  0  0  0  0  0  0
   24.1013  -21.0138  -12.1624 O   0  0  0  0  0  0  0  0  0  0  0  0
   23.5316  -21.8321  -14.3506 C   0  0  2  0  0  0  0  0  0  0  0  0
   24.8428  -21.4088  -14.7944 N   0  0  0  0  0  0  0  0  0  0  0  0
   22.5181  -21.7181  -15.4177 C   0  0  0  0  0  0  0  0  0  0  0  0
   21.6629  -22.5960  -15.6068 O   0  0  0  0  0  0  0  0  0  0  0  0
   22.5307  -20.5970  -16.2241 O   0  0  0  0  0  0  0  0  0  0  0  0
  2  1  1  6
  2  3  1  0
  3  4  1  0
  5  6  2  0
  5  2  1  0
  7  5  1  0
  8  7  1  0
  9  8  1  0
  9 15  1  0
 10  9  2  0
 12 14  1  0
 12 11  1  1
 13 12  1  0
 14 15  1  6
 14 16  1  0
 16 17  2  0
 16 18  1  0
M  END
$$$$
