CGT.pdb
     RDKit          3D

 18 17  0  0  1  0  0  0  0  0999 V2000
   23.6063  -12.9936  -18.0637 N   0  0  0  0  0  0  0  0  0  0  0  0
   22.7146  -11.8572  -18.1451 C   0  0  1  0  0  0  0  0  0  0  0  0
   21.3534  -12.2520  -18.6317 C   0  0  0  0  0  0  0  0  0  0  0  0
   21.4380  -13.0649  -20.2362 S   0  0  0  0  0  0  0  0  0  0  0  0
   22.6526  -11.1140  -16.8584 C   0  0  0  0  0  0  0  0  0  0  0  0
   22.7063  -11.7401  -15.7695 O   0  0  0  0  0  0  0  0  0  0  0  0
   22.5326   -9.6957  -16.7989 N   0  0  0  0  0  0  0  0  0  0  0  0
   22.5563   -8.9609  -15.5678 C   0  0  0  0  0  0  0  0  0  0  0  0
   22.3731   -7.5077  -15.7557 C   0  0  0  0  0  0  0  0  0  0  0  0
   22.5750   -6.9409  -16.8548 O   0  0  0  0  0  0  0  0  0  0  0  0
   19.5201   -5.7342  -15.9606 C   0  0  0  0  0  0  0  0  0  0  0  0
   20.1775   -5.0806  -14.7637 C   0  0  1  0  0  0  0  0  0  0  0  0
   19.6655   -5.5945  -13.5805 O   0  0  0  0  0  0  0  0  0  0  0  0
   21.6927   -5.3004  -14.8400 C   0  0  2  0  0  0  0  0  0  0  0  0
   21.9534   -6.7129  -14.6596 N   0  0  0  0  0  0  0  0  0  0  0  0
   22.3738   -4.4736  -13.8245 C   0  0  0  0  0  0  0  0  0  0  0  0
   22.8571   -4.9660  -12.7941 O   0  0  0  0  0  0  0  0  0  0  0  0
   22.4706   -3.1124  -14.0369 O   0  0  0  0  0  0  0  0  0  0  0  0
  2  1  1  1
  2  3  1  0
  3  4  1  0
  5  6  2  0
  5  2  1  0
  7  5  1  0
  8  7  1  0
  9  8  1  0
  9 15  1  0
 10  9  2  0
 12 14  1  0
 12 11  1  6
 13 12  1  0
 14 15  1  1
 14 16  1  0
 16 17  2  0
 16 18  1  0
M  END
$$$$
