CGT.pdb
     RDKit          3D

 18 17  0  0  1  0  0  0  0  0999 V2000
   14.8604  -14.2298  -15.1528 N   0  0  0  0  0  0  0  0  0  0  0  0
   16.2534  -14.2039  -15.5425 C   0  0  1  0  0  0  0  0  0  0  0  0
   16.5438  -15.1875  -16.6352 C   0  0  0  0  0  0  0  0  0  0  0  0
   16.6717  -16.8652  -15.9939 S   0  0  0  0  0  0  0  0  0  0  0  0
   16.6998  -12.8300  -15.8962 C   0  0  0  0  0  0  0  0  0  0  0  0
   15.8654  -11.9884  -16.3157 O   0  0  0  0  0  0  0  0  0  0  0  0
   18.0569  -12.4126  -15.7801 N   0  0  0  0  0  0  0  0  0  0  0  0
   18.5236  -11.1371  -16.2399 C   0  0  0  0  0  0  0  0  0  0  0  0
   19.5082  -10.5173  -15.3305 C   0  0  0  0  0  0  0  0  0  0  0  0
   20.2642  -11.1942  -14.5954 O   0  0  0  0  0  0  0  0  0  0  0  0
   22.1173  -10.4698  -15.0415 C   0  0  0  0  0  0  0  0  0  0  0  0
   22.0211   -8.9670  -15.1975 C   0  0  1  0  0  0  0  0  0  0  0  0
   22.0896   -8.6066  -16.5359 O   0  0  0  0  0  0  0  0  0  0  0  0
   20.7098   -8.4795  -14.5706 C   0  0  2  0  0  0  0  0  0  0  0  0
   19.6120   -9.1046  -15.2775 N   0  0  0  0  0  0  0  0  0  0  0  0
   20.6418   -7.0061  -14.6262 C   0  0  0  0  0  0  0  0  0  0  0  0
   21.3263   -6.2892  -13.8809 O   0  0  0  0  0  0  0  0  0  0  0  0
   19.7878   -6.4177  -15.5382 O   0  0  0  0  0  0  0  0  0  0  0  0
  2  1  1  6
  2  3  1  0
  3  4  1  0
  5  6  2  0
  5  2  1  0
  7  5  1  0
  8  7  1  0
  9  8  1  0
  9 15  1  0
 10  9  2  0
 12 14  1  0
 12 11  1  6
 13 12  1  0
 14 15  1  6
 14 16  1  0
 16 17  2  0
 16 18  1  0
M  END
$$$$
