CGT.pdb
     RDKit          3D

 18 17  0  0  1  0  0  0  0  0999 V2000
   20.7771  -12.5926  -17.5648 N   0  0  0  0  0  0  0  0  0  0  0  0
   21.2577  -11.2849  -17.9549 C   0  0  1  0  0  0  0  0  0  0  0  0
   20.3596  -10.6414  -18.9673 C   0  0  0  0  0  0  0  0  0  0  0  0
   19.9623  -11.7742  -20.3094 S   0  0  0  0  0  0  0  0  0  0  0  0
   21.4855  -10.4086  -16.7750 C   0  0  0  0  0  0  0  0  0  0  0  0
   20.6165  -10.3382  -15.8693 O   0  0  0  0  0  0  0  0  0  0  0  0
   22.6668   -9.6279  -16.6184 N   0  0  0  0  0  0  0  0  0  0  0  0
   22.8893   -8.7652  -15.4948 C   0  0  0  0  0  0  0  0  0  0  0  0
   22.4203   -7.3836  -15.7224 C   0  0  0  0  0  0  0  0  0  0  0  0
   22.4268   -6.8490  -16.8556 O   0  0  0  0  0  0  0  0  0  0  0  0
   19.5987   -3.7081  -14.5138 C   0  0  0  0  0  0  0  0  0  0  0  0
   20.0277   -5.1595  -14.4762 C   0  0  1  0  0  0  0  0  0  0  0  0
   19.2730   -5.9179  -15.3601 O   0  0  0  0  0  0  0  0  0  0  0  0
   21.5192   -5.2517  -14.8185 C   0  0  2  0  0  0  0  0  0  0  0  0
   21.9423   -6.6227  -14.6260 N   0  0  0  0  0  0  0  0  0  0  0  0
   22.2874   -4.3085  -13.9823 C   0  0  0  0  0  0  0  0  0  0  0  0
   22.4527   -3.1245  -14.3117 O   0  0  0  0  0  0  0  0  0  0  0  0
   22.8345   -4.7676  -12.8002 O   0  0  0  0  0  0  0  0  0  0  0  0
  2  1  1  1
  2  3  1  0
  3  4  1  0
  5  6  2  0
  5  2  1  0
  7  5  1  0
  8  7  1  0
  9  8  1  0
  9 15  1  0
 10  9  2  0
 12 14  1  0
 12 11  1  6
 13 12  1  0
 14 15  1  1
 14 16  1  0
 16 17  2  0
 16 18  1  0
M  END
$$$$
