CGT.pdb
     RDKit          3D

 18 17  0  0  1  0  0  0  0  0999 V2000
   27.6872  -21.8355  -15.6442 N   0  0  0  0  0  0  0  0  0  0  0  0
   26.7632  -21.9525  -16.7514 C   0  0  1  0  0  0  0  0  0  0  0  0
   27.4787  -22.0720  -18.0627 C   0  0  0  0  0  0  0  0  0  0  0  0
   28.8633  -20.9252  -18.1642 S   0  0  0  0  0  0  0  0  0  0  0  0
   25.7930  -23.0602  -16.5429 C   0  0  0  0  0  0  0  0  0  0  0  0
   24.9683  -23.3496  -17.4466 O   0  0  0  0  0  0  0  0  0  0  0  0
   25.7522  -23.8259  -15.3423 N   0  0  0  0  0  0  0  0  0  0  0  0
   24.8077  -24.8820  -15.1214 C   0  0  0  0  0  0  0  0  0  0  0  0
   23.4867  -24.3952  -14.6758 C   0  0  0  0  0  0  0  0  0  0  0  0
   22.5671  -25.1709  -14.3256 O   0  0  0  0  0  0  0  0  0  0  0  0
   22.8582  -21.0424  -12.4728 C   0  0  0  0  0  0  0  0  0  0  0  0
   22.0944  -21.0542  -13.7799 C   0  0  1  0  0  0  0  0  0  0  0  0
   22.7491  -20.2935  -14.7384 O   0  0  0  0  0  0  0  0  0  0  0  0
   21.9326  -22.5029  -14.2544 C   0  0  2  0  0  0  0  0  0  0  0  0
   23.2368  -23.0004  -14.6381 N   0  0  0  0  0  0  0  0  0  0  0  0
   20.9634  -22.5638  -15.3661 C   0  0  0  0  0  0  0  0  0  0  0  0
   21.3219  -22.7403  -16.5401 O   0  0  0  0  0  0  0  0  0  0  0  0
   19.6200  -22.4188  -15.0805 O   0  0  0  0  0  0  0  0  0  0  0  0
  2  1  1  1
  2  3  1  0
  3  4  1  0
  5  6  2  0
  5  2  1  0
  7  5  1  0
  8  7  1  0
  9  8  1  0
  9 15  1  0
 10  9  2  0
 12 14  1  0
 12 11  1  1
 13 12  1  0
 14 15  1  6
 14 16  1  0
 16 17  2  0
 16 18  1  0
M  END
$$$$
