CGT.pdb
     RDKit          3D

 18 17  0  0  1  0  0  0  0  0999 V2000
   26.1244  -22.9482  -11.3071 N   0  0  0  0  0  0  0  0  0  0  0  0
   25.7297  -21.5564  -11.2913 C   0  0  1  0  0  0  0  0  0  0  0  0
   26.1233  -20.8811  -10.0127 C   0  0  0  0  0  0  0  0  0  0  0  0
   24.8816  -21.1230   -8.7312 S   0  0  0  0  0  0  0  0  0  0  0  0
   26.2359  -20.8280  -12.4851 C   0  0  0  0  0  0  0  0  0  0  0  0
   27.4713  -20.7802  -12.7131 O   0  0  0  0  0  0  0  0  0  0  0  0
   25.3694  -20.1673  -13.4027 N   0  0  0  0  0  0  0  0  0  0  0  0
   25.8458  -19.4588  -14.5547 C   0  0  0  0  0  0  0  0  0  0  0  0
   25.1155  -18.1999  -14.8047 C   0  0  0  0  0  0  0  0  0  0  0  0
   24.0828  -17.8839  -14.1695 O   0  0  0  0  0  0  0  0  0  0  0  0
   25.0769  -13.6929  -16.6086 C   0  0  0  0  0  0  0  0  0  0  0  0
   25.8289  -14.9990  -16.4660 C   0  0  1  0  0  0  0  0  0  0  0  0
   26.8057  -14.8990  -15.4852 O   0  0  0  0  0  0  0  0  0  0  0  0
   24.8353  -16.1171  -16.1303 C   0  0  2  0  0  0  0  0  0  0  0  0
   25.5901  -17.3068  -15.7980 N   0  0  0  0  0  0  0  0  0  0  0  0
   23.9206  -16.3368  -17.2679 C   0  0  0  0  0  0  0  0  0  0  0  0
   22.8580  -15.7086  -17.3860 O   0  0  0  0  0  0  0  0  0  0  0  0
   24.2671  -17.2715  -18.2237 O   0  0  0  0  0  0  0  0  0  0  0  0
  2  1  1  1
  2  3  1  0
  3  4  1  0
  5  6  2  0
  5  2  1  0
  7  5  1  0
  8  7  1  0
  9  8  1  0
  9 15  1  0
 10  9  2  0
 12 14  1  0
 12 11  1  1
 13 12  1  0
 14 15  1  6
 14 16  1  0
 16 17  2  0
 16 18  1  0
M  END
$$$$
