ICS.pdb
     RDKit          3D

 21 20  0  0  1  0  0  0  0  0999 V2000
   20.9650  -11.1810  -21.8343 C   0  0  0  0  0  0  0  0  0  0  0  0
   21.3003  -11.6504  -20.4598 C   0  0  0  0  0  0  0  0  0  0  0  0
   20.8124  -10.7565  -19.3634 C   0  0  2  0  0  0  0  0  0  0  0  0
   21.5749   -9.4521  -19.4485 C   0  0  0  0  0  0  0  0  0  0  0  0
   21.0373  -11.3400  -17.9895 C   0  0  2  0  0  0  0  0  0  0  0  0
   20.4777  -12.6601  -17.8714 N   0  0  0  0  0  0  0  0  0  0  0  0
   20.3875  -10.4078  -17.0007 C   0  0  0  0  0  0  0  0  0  0  0  0
   19.1563  -10.1752  -17.0400 O   0  0  0  0  0  0  0  0  0  0  0  0
   21.1857   -9.7763  -15.9998 N   0  0  0  0  0  0  0  0  0  0  0  0
   20.6186   -8.9220  -14.9990 C   0  0  1  0  0  0  0  0  0  0  0  0
   20.7295   -9.5708  -13.6443 C   0  0  0  0  0  0  0  0  0  0  0  0
   19.8878   -8.5045  -12.4479 S   0  0  0  0  0  0  0  0  0  0  0  0
   21.2527   -7.5723  -14.9835 C   0  0  0  0  0  0  0  0  0  0  0  0
   22.5044   -7.5025  -14.9764 O   0  0  0  0  0  0  0  0  0  0  0  0
   20.6874   -2.7276  -15.0855 O   0  0  0  0  0  0  0  0  0  0  0  0
   20.0751   -3.9777  -15.0339 C   0  0  0  0  0  0  0  0  0  0  0  0
   21.1103   -5.0833  -14.9272 C   0  0  2  0  0  0  0  0  0  0  0  0
   20.4889   -6.3913  -14.9769 N   0  0  0  0  0  0  0  0  0  0  0  0
   21.9282   -4.9313  -13.7005 C   0  0  0  0  0  0  0  0  0  0  0  0
   21.5537   -5.3469  -12.5774 O   0  0  0  0  0  0  0  0  0  0  0  0
   23.1795   -4.3025  -13.7532 O   0  0  0  0  0  0  0  0  0  0  0  0
  2  1  1  0
  3  2  1  0
  3  4  1  1
  5  7  1  0
  5  3  1  0
  5  6  1  6
  7  8  2  0
  9 10  1  0
  9  7  1  0
 11 12  1  0
 10 11  1  1
 13 18  1  0
 13 10  1  0
 14 13  2  0
 16 15  1  0
 17 18  1  0
 17 16  1  1
 19 17  1  0
 20 19  2  0
 21 19  1  0
M  END
$$$$
