ICS.pdb
     RDKit          3D

 21 20  0  0  1  0  0  0  0  0999 V2000
   15.9172  -12.4844  -13.8849 C   0  0  0  0  0  0  0  0  0  0  0  0
   16.7482  -11.7845  -12.8643 C   0  0  0  0  0  0  0  0  0  0  0  0
   16.1280  -10.5425  -12.3060 C   0  0  2  0  0  0  0  0  0  0  0  0
   15.8736   -9.5896  -13.4537 C   0  0  0  0  0  0  0  0  0  0  0  0
   17.0174   -9.8430  -11.3068 C   0  0  2  0  0  0  0  0  0  0  0  0
   17.2141  -10.6336  -10.1210 N   0  0  0  0  0  0  0  0  0  0  0  0
   16.3512   -8.5376  -10.9587 C   0  0  0  0  0  0  0  0  0  0  0  0
   16.1384   -7.6641  -11.8322 O   0  0  0  0  0  0  0  0  0  0  0  0
   15.9540   -8.2881   -9.6104 N   0  0  0  0  0  0  0  0  0  0  0  0
   15.2682   -7.0900   -9.2268 C   0  0  1  0  0  0  0  0  0  0  0  0
   14.6787   -7.2518   -7.8503 C   0  0  0  0  0  0  0  0  0  0  0  0
   13.5953   -8.7017   -7.8779 S   0  0  0  0  0  0  0  0  0  0  0  0
   16.1545   -5.8916   -9.2763 C   0  0  0  0  0  0  0  0  0  0  0  0
   17.2418   -5.9290   -8.6533 O   0  0  0  0  0  0  0  0  0  0  0  0
   16.7863   -3.7212  -12.5132 O   0  0  0  0  0  0  0  0  0  0  0  0
   17.5708   -3.7308  -11.3623 C   0  0  0  0  0  0  0  0  0  0  0  0
   16.7084   -3.6107  -10.1185 C   0  0  2  0  0  0  0  0  0  0  0  0
   15.8032   -4.7356   -9.9963 N   0  0  0  0  0  0  0  0  0  0  0  0
   15.9651   -2.3285  -10.1069 C   0  0  0  0  0  0  0  0  0  0  0  0
   16.5324   -1.2144   -9.9999 O   0  0  0  0  0  0  0  0  0  0  0  0
   14.5682   -2.3149  -10.2176 O   0  0  0  0  0  0  0  0  0  0  0  0
  2  1  1  0
  3  2  1  0
  3  4  1  6
  5  7  1  0
  5  3  1  0
  5  6  1  1
  7  8  2  0
  9 10  1  0
  9  7  1  0
 11 12  1  0
 10 11  1  1
 13 18  1  0
 13 10  1  0
 14 13  2  0
 16 15  1  0
 17 18  1  0
 17 16  1  6
 19 17  1  0
 20 19  2  0
 21 19  1  0
M  END
$$$$
