ICS.pdb
     RDKit          3D

 21 20  0  0  1  0  0  0  0  0999 V2000
   14.5568  -12.4520  -18.2361 C   0  0  0  0  0  0  0  0  0  0  0  0
   15.9116  -12.7533  -17.6924 C   0  0  0  0  0  0  0  0  0  0  0  0
   16.4149  -11.7572  -16.6955 C   0  0  2  0  0  0  0  0  0  0  0  0
   16.5318  -10.4178  -17.3901 C   0  0  0  0  0  0  0  0  0  0  0  0
   17.7731  -12.1172  -16.1439 C   0  0  2  0  0  0  0  0  0  0  0  0
   17.7403  -13.3520  -15.4064 N   0  0  0  0  0  0  0  0  0  0  0  0
   18.2008  -10.9852  -15.2469 C   0  0  0  0  0  0  0  0  0  0  0  0
   17.6670  -10.8072  -14.1267 O   0  0  0  0  0  0  0  0  0  0  0  0
   19.2325  -10.0975  -15.6776 N   0  0  0  0  0  0  0  0  0  0  0  0
   19.5687   -8.9092  -14.9510 C   0  0  1  0  0  0  0  0  0  0  0  0
   21.0245   -8.9349  -14.5661 C   0  0  0  0  0  0  0  0  0  0  0  0
   21.3610   -7.4614  -13.5700 S   0  0  0  0  0  0  0  0  0  0  0  0
   19.2547   -7.6701  -15.7191 C   0  0  0  0  0  0  0  0  0  0  0  0
   19.8063   -7.5039  -16.8326 O   0  0  0  0  0  0  0  0  0  0  0  0
   15.7784   -5.4917  -15.2170 O   0  0  0  0  0  0  0  0  0  0  0  0
   16.9289   -4.7153  -15.3349 C   0  0  0  0  0  0  0  0  0  0  0  0
   18.0491   -5.5039  -15.9895 C   0  0  2  0  0  0  0  0  0  0  0  0
   18.3657   -6.6963  -15.2294 N   0  0  0  0  0  0  0  0  0  0  0  0
   19.2535   -4.6614  -16.1801 C   0  0  0  0  0  0  0  0  0  0  0  0
   20.1790   -4.5968  -15.3354 O   0  0  0  0  0  0  0  0  0  0  0  0
   19.4047   -3.8883  -17.3391 O   0  0  0  0  0  0  0  0  0  0  0  0
  2  1  1  0
  3  2  1  0
  3  4  1  6
  5  7  1  0
  5  3  1  0
  5  6  1  1
  7  8  2  0
  9 10  1  0
  9  7  1  0
 11 12  1  0
 10 11  1  6
 13 18  1  0
 13 10  1  0
 14 13  2  0
 16 15  1  0
 17 18  1  0
 17 16  1  1
 19 17  1  0
 20 19  2  0
 21 19  1  0
M  END
$$$$
