ICS.pdb
     RDKit          3D

 21 20  0  0  1  0  0  0  0  0999 V2000
   25.5354  -18.5593  -16.0371 C   0  0  0  0  0  0  0  0  0  0  0  0
   24.2712  -18.2578  -16.7671 C   0  0  0  0  0  0  0  0  0  0  0  0
   23.0812  -18.0470  -15.8847 C   0  0  2  0  0  0  0  0  0  0  0  0
   22.8434  -19.3230  -15.1066 C   0  0  0  0  0  0  0  0  0  0  0  0
   21.8255  -17.7330  -16.6614 C   0  0  2  0  0  0  0  0  0  0  0  0
   21.9397  -16.4939  -17.3837 N   0  0  0  0  0  0  0  0  0  0  0  0
   20.6974  -17.6545  -15.6664 C   0  0  0  0  0  0  0  0  0  0  0  0
   20.6894  -16.7877  -14.7609 O   0  0  0  0  0  0  0  0  0  0  0  0
   19.6164  -18.5828  -15.7538 N   0  0  0  0  0  0  0  0  0  0  0  0
   18.5520  -18.6064  -14.7949 C   0  0  1  0  0  0  0  0  0  0  0  0
   17.3514  -17.8783  -15.3396 C   0  0  0  0  0  0  0  0  0  0  0  0
   16.0773  -17.8700  -14.0538 S   0  0  0  0  0  0  0  0  0  0  0  0
   18.1823  -19.9949  -14.3958 C   0  0  0  0  0  0  0  0  0  0  0  0
   17.8090  -20.7917  -15.2888 O   0  0  0  0  0  0  0  0  0  0  0  0
   19.4881  -22.1782  -10.9363 O   0  0  0  0  0  0  0  0  0  0  0  0
   18.1296  -22.0145  -11.1974 C   0  0  0  0  0  0  0  0  0  0  0  0
   17.8878  -21.7780  -12.6775 C   0  0  2  0  0  0  0  0  0  0  0  0
   18.2421  -20.4256  -13.0582 N   0  0  0  0  0  0  0  0  0  0  0  0
   16.4839  -22.0812  -13.0435 C   0  0  0  0  0  0  0  0  0  0  0  0
   15.5355  -21.2925  -12.8134 O   0  0  0  0  0  0  0  0  0  0  0  0
   16.1583  -23.2891  -13.6749 O   0  0  0  0  0  0  0  0  0  0  0  0
  2  1  1  0
  3  2  1  0
  3  4  1  6
  5  7  1  0
  5  3  1  0
  5  6  1  1
  7  8  2  0
  9 10  1  0
  9  7  1  0
 11 12  1  0
 10 11  1  6
 13 18  1  0
 13 10  1  0
 14 13  2  0
 16 15  1  0
 17 18  1  0
 17 16  1  1
 19 17  1  0
 20 19  2  0
 21 19  1  0
M  END
$$$$
