ICS.pdb
     RDKit          3D

 21 20  0  0  1  0  0  0  0  0999 V2000
   15.2362  -28.4851   -5.5489 C   0  0  0  0  0  0  0  0  0  0  0  0
   16.6245  -28.0446   -5.2315 C   0  0  0  0  0  0  0  0  0  0  0  0
   16.7219  -27.0695   -4.1006 C   0  0  2  0  0  0  0  0  0  0  0  0
   15.8815  -27.5938   -2.9566 C   0  0  0  0  0  0  0  0  0  0  0  0
   16.2094  -25.6974   -4.4658 C   0  0  2  0  0  0  0  0  0  0  0  0
   16.9739  -25.1078   -5.5325 N   0  0  0  0  0  0  0  0  0  0  0  0
   16.3008  -24.8463   -3.2264 C   0  0  0  0  0  0  0  0  0  0  0  0
   17.4034  -24.4138   -2.8156 O   0  0  0  0  0  0  0  0  0  0  0  0
   15.1120  -24.5247   -2.5046 N   0  0  0  0  0  0  0  0  0  0  0  0
   15.1323  -23.7103   -1.3258 C   0  0  1  0  0  0  0  0  0  0  0  0
   14.4127  -22.4125   -1.5836 C   0  0  0  0  0  0  0  0  0  0  0  0
   14.6081  -21.3692   -0.1173 S   0  0  0  0  0  0  0  0  0  0  0  0
   14.5420  -24.4080   -0.1474 C   0  0  0  0  0  0  0  0  0  0  0  0
   13.4377  -24.9844   -0.2882 O   0  0  0  0  0  0  0  0  0  0  0  0
   16.6808  -26.2678    2.6620 O   0  0  0  0  0  0  0  0  0  0  0  0
   15.6834  -25.4957    3.2530 C   0  0  0  0  0  0  0  0  0  0  0  0
   14.6150  -25.1244    2.2402 C   0  0  2  0  0  0  0  0  0  0  0  0
   15.1874  -24.4338    1.1021 N   0  0  0  0  0  0  0  0  0  0  0  0
   13.5437  -24.3149    2.8676 C   0  0  0  0  0  0  0  0  0  0  0  0
   13.4419  -23.0754    2.7012 O   0  0  0  0  0  0  0  0  0  0  0  0
   12.5832  -24.9202    3.6890 O   0  0  0  0  0  0  0  0  0  0  0  0
  2  1  1  0
  3  2  1  0
  3  4  1  1
  5  7  1  0
  5  3  1  0
  5  6  1  6
  7  8  2  0
  9 10  1  0
  9  7  1  0
 11 12  1  0
 10 11  1  6
 13 18  1  0
 13 10  1  0
 14 13  2  0
 16 15  1  0
 17 18  1  0
 17 16  1  1
 19 17  1  0
 20 19  2  0
 21 19  1  0
M  END
$$$$
