ICS.pdb
     RDKit          3D

 21 20  0  0  1  0  0  0  0  0999 V2000
   18.6957  -11.7373  -18.3505 C   0  0  0  0  0  0  0  0  0  0  0  0
   19.9884  -11.1564  -17.8886 C   0  0  0  0  0  0  0  0  0  0  0  0
   19.8483  -10.0243  -16.9201 C   0  0  2  0  0  0  0  0  0  0  0  0
   19.1025   -8.9048  -17.6133 C   0  0  0  0  0  0  0  0  0  0  0  0
   21.1791   -9.4824  -16.4575 C   0  0  2  0  0  0  0  0  0  0  0  0
   21.9733  -10.4943  -15.8131 N   0  0  0  0  0  0  0  0  0  0  0  0
   20.8899   -8.3573  -15.4987 C   0  0  0  0  0  0  0  0  0  0  0  0
   20.0258   -8.4774  -14.5985 O   0  0  0  0  0  0  0  0  0  0  0  0
   21.6114   -7.1310  -15.6148 N   0  0  0  0  0  0  0  0  0  0  0  0
   21.3926   -6.0302  -14.7241 C   0  0  1  0  0  0  0  0  0  0  0  0
   22.6981   -5.5955  -14.1116 C   0  0  0  0  0  0  0  0  0  0  0  0
   22.3350   -4.3214  -12.8781 S   0  0  0  0  0  0  0  0  0  0  0  0
   20.7263   -4.8803  -15.4007 C   0  0  0  0  0  0  0  0  0  0  0  0
   21.1864   -4.4876  -16.4988 O   0  0  0  0  0  0  0  0  0  0  0  0
   16.8672   -4.2226  -15.1574 O   0  0  0  0  0  0  0  0  0  0  0  0
   17.5126   -2.9902  -15.0860 C   0  0  0  0  0  0  0  0  0  0  0  0
   18.9669   -3.1160  -15.5035 C   0  0  2  0  0  0  0  0  0  0  0  0
   19.6083   -4.2347  -14.8426 N   0  0  0  0  0  0  0  0  0  0  0  0
   19.7053   -1.8562  -15.2498 C   0  0  0  0  0  0  0  0  0  0  0  0
   20.6350   -1.7697  -14.4117 O   0  0  0  0  0  0  0  0  0  0  0  0
   19.3833   -0.6886  -15.9546 O   0  0  0  0  0  0  0  0  0  0  0  0
  2  1  1  0
  3  2  1  0
  3  4  1  6
  5  7  1  0
  5  3  1  0
  5  6  1  1
  7  8  2  0
  9 10  1  0
  9  7  1  0
 11 12  1  0
 10 11  1  6
 13 18  1  0
 13 10  1  0
 14 13  2  0
 16 15  1  0
 17 18  1  0
 17 16  1  1
 19 17  1  0
 20 19  2  0
 21 19  1  0
M  END
$$$$
