ICS.pdb
     RDKit          3D

 21 20  0  0  1  0  0  0  0  0999 V2000
   22.9771  -13.3502  -19.1149 C   0  0  0  0  0  0  0  0  0  0  0  0
   23.4719  -12.1566  -18.3716 C   0  0  0  0  0  0  0  0  0  0  0  0
   22.3966  -11.2220  -17.9139 C   0  0  2  0  0  0  0  0  0  0  0  0
   21.6215  -10.7677  -19.1317 C   0  0  0  0  0  0  0  0  0  0  0  0
   22.9427   -9.9955  -17.2238 C   0  0  2  0  0  0  0  0  0  0  0  0
   23.7206  -10.3373  -16.0629 N   0  0  0  0  0  0  0  0  0  0  0  0
   21.7623   -9.1470  -16.8293 C   0  0  0  0  0  0  0  0  0  0  0  0
   20.8345   -8.9091  -17.6379 O   0  0  0  0  0  0  0  0  0  0  0  0
   21.6964   -8.6026  -15.5113 N   0  0  0  0  0  0  0  0  0  0  0  0
   20.5892   -7.8080  -15.0689 C   0  0  1  0  0  0  0  0  0  0  0  0
   20.5790   -7.7303  -13.5648 C   0  0  0  0  0  0  0  0  0  0  0  0
   20.0390   -9.3373  -12.9300 S   0  0  0  0  0  0  0  0  0  0  0  0
   20.6042   -6.4394  -15.6610 C   0  0  0  0  0  0  0  0  0  0  0  0
   21.6819   -5.7990  -15.6532 O   0  0  0  0  0  0  0  0  0  0  0  0
   18.4326   -3.1237  -18.4494 O   0  0  0  0  0  0  0  0  0  0  0  0
   18.4012   -4.3945  -17.8799 C   0  0  0  0  0  0  0  0  0  0  0  0
   19.4799   -4.5399  -16.8214 C   0  0  2  0  0  0  0  0  0  0  0  0
   19.4522   -5.8582  -16.2207 N   0  0  0  0  0  0  0  0  0  0  0  0
   19.3591   -3.4839  -15.7884 C   0  0  0  0  0  0  0  0  0  0  0  0
   18.6275   -3.6034  -14.7760 O   0  0  0  0  0  0  0  0  0  0  0  0
   20.0752   -2.2854  -15.9090 O   0  0  0  0  0  0  0  0  0  0  0  0
  2  1  1  0
  3  2  1  0
  3  4  1  6
  5  7  1  0
  5  3  1  0
  5  6  1  1
  7  8  2  0
  9 10  1  0
  9  7  1  0
 11 12  1  0
 10 11  1  1
 13 18  1  0
 13 10  1  0
 14 13  2  0
 16 15  1  0
 17 18  1  0
 17 16  1  6
 19 17  1  0
 20 19  2  0
 21 19  1  0
M  END
$$$$
