ENP.pdb
     RDKit          3D

 25 25  0  0  1  0  0  0  0  0999 V2000
   18.0704  -12.5096  -19.3482 N   0  0  0  0  0  0  0  0  0  0  0  0
   18.1945  -11.8059  -18.1379 C   0  0  1  0  0  0  0  0  0  0  0  0
   18.4995  -12.6802  -16.9692 C   0  0  0  0  0  0  0  0  0  0  0  0
   17.3538  -13.5127  -16.5260 C   0  0  0  0  0  0  0  0  0  0  0  0
   17.6339  -14.3395  -15.3604 C   0  0  0  0  0  0  0  0  0  0  0  0
   17.2787  -14.1366  -14.2003 O   0  0  0  0  0  0  0  0  0  0  0  0
   19.1640  -10.6492  -18.2007 C   0  0  0  0  0  0  0  0  0  0  0  0
   19.9311  -10.6394  -19.1806 O   0  0  0  0  0  0  0  0  0  0  0  0
   18.3995  -15.5138  -15.5677 O   0  0  0  0  0  0  0  0  0  0  0  0
   21.6405   -6.5588  -19.3322 N   0  0  0  0  0  0  0  0  0  0  0  0
   20.2903   -6.5383  -18.9038 C   0  0  0  0  0  0  0  0  0  0  0  0
   19.7312   -5.4280  -18.7666 O   0  0  0  0  0  0  0  0  0  0  0  0
   19.6007   -7.7951  -18.6383 C   0  0  0  0  0  0  0  0  0  0  0  0
   20.0335   -8.4832  -17.3470 C   0  0  2  0  0  0  0  0  0  0  0  0
   19.2039   -9.6393  -17.2138 N   0  0  0  0  0  0  0  0  0  0  0  0
   19.7832   -7.5362  -16.2424 C   0  0  0  0  0  0  0  0  0  0  0  0
   18.5567   -7.1377  -16.1003 O   0  0  0  0  0  0  0  0  0  0  0  0
   20.7106   -7.0113  -15.3226 N   0  0  0  0  0  0  0  0  0  0  0  0
   22.1495   -7.1031  -15.2630 C   0  0  0  0  0  0  0  0  0  0  0  0
   22.6248   -6.0005  -14.3128 C   0  0  0  0  0  0  0  0  0  0  0  0
   21.4384   -5.8203  -13.3796 C   0  0  0  0  0  0  0  0  0  0  0  0
   20.2362   -6.2122  -14.1681 C   0  0  1  0  0  0  0  0  0  0  0  0
   19.5235   -5.0046  -14.6794 C   0  0  0  0  0  0  0  0  0  0  0  0
   19.6329   -4.7005  -15.8764 O   0  0  0  0  0  0  0  0  0  0  0  0
   18.7473   -4.2341  -13.8206 O   0  0  0  0  0  0  0  0  0  0  0  0
  2  1  1  6
  2  7  1  0
  2  3  1  0
  3  4  1  0
  5  6  2  0
  5  4  1  0
  7 15  1  0
  7  8  2  0
  9  5  1  0
 11 10  1  0
 12 11  2  0
 13 11  1  0
 14 13  1  6
 15 14  1  0
 16 14  1  0
 17 16  2  0
 18 16  1  0
 18 19  1  0
 20 19  1  0
 21 22  1  0
 21 20  1  0
 22 23  1  6
 22 18  1  0
 23 25  1  0
 24 23  2  0
M  END
$$$$
