ENP.pdb
     RDKit          3D

 25 25  0  0  1  0  0  0  0  0999 V2000
   20.5707  -11.9502  -20.4608 N   0  0  0  0  0  0  0  0  0  0  0  0
   19.8300  -12.3392  -19.3315 C   0  0  1  0  0  0  0  0  0  0  0  0
   19.6221  -13.8126  -19.2342 C   0  0  0  0  0  0  0  0  0  0  0  0
   20.8807  -14.5912  -19.1249 C   0  0  0  0  0  0  0  0  0  0  0  0
   20.6820  -16.0239  -18.9556 C   0  0  0  0  0  0  0  0  0  0  0  0
   21.5495  -16.8859  -18.8239 O   0  0  0  0  0  0  0  0  0  0  0  0
   20.3692  -11.7939  -18.0301 C   0  0  0  0  0  0  0  0  0  0  0  0
   19.6692  -12.0067  -17.0234 O   0  0  0  0  0  0  0  0  0  0  0  0
   19.3456  -16.4952  -18.9375 O   0  0  0  0  0  0  0  0  0  0  0  0
   23.9989  -12.5509  -16.0413 N   0  0  0  0  0  0  0  0  0  0  0  0
   24.5041  -11.3475  -16.5923 C   0  0  0  0  0  0  0  0  0  0  0  0
   25.7412  -11.2404  -16.7422 O   0  0  0  0  0  0  0  0  0  0  0  0
   23.5800  -10.2825  -16.9632 C   0  0  0  0  0  0  0  0  0  0  0  0
   22.1124  -10.6137  -16.7092 C   0  0  2  0  0  0  0  0  0  0  0  0
   21.5892  -11.0862  -17.9524 N   0  0  0  0  0  0  0  0  0  0  0  0
   21.4444   -9.3593  -16.3094 C   0  0  0  0  0  0  0  0  0  0  0  0
   21.2985   -8.4692  -17.2420 O   0  0  0  0  0  0  0  0  0  0  0  0
   20.9450   -9.0084  -15.0410 N   0  0  0  0  0  0  0  0  0  0  0  0
   20.9010   -9.7408  -13.7984 C   0  0  0  0  0  0  0  0  0  0  0  0
   20.6471   -8.7163  -12.6891 C   0  0  0  0  0  0  0  0  0  0  0  0
   19.8853   -7.6158  -13.4096 C   0  0  0  0  0  0  0  0  0  0  0  0
   20.3273   -7.6775  -14.8315 C   0  0  1  0  0  0  0  0  0  0  0  0
   21.3466   -6.6244  -15.1137 C   0  0  0  0  0  0  0  0  0  0  0  0
   22.5327   -6.9553  -15.2581 O   0  0  0  0  0  0  0  0  0  0  0  0
   20.9657   -5.2907  -15.2132 O   0  0  0  0  0  0  0  0  0  0  0  0
  2  1  1  6
  2  7  1  0
  2  3  1  0
  3  4  1  0
  5  6  2  0
  5  4  1  0
  7 15  1  0
  7  8  2  0
  9  5  1  0
 11 10  1  0
 12 11  2  0
 13 11  1  0
 14 13  1  6
 15 14  1  0
 16 14  1  0
 17 16  2  0
 18 16  1  0
 18 19  1  0
 20 19  1  0
 21 22  1  0
 21 20  1  0
 22 23  1  1
 22 18  1  0
 23 25  1  0
 24 23  2  0
M  END
$$$$
