ENP.pdb
     RDKit          3D

 25 25  0  0  1  0  0  0  0  0999 V2000
   13.4523  -23.0030   -3.4165 N   0  0  0  0  0  0  0  0  0  0  0  0
   14.1664  -23.5364   -2.3297 C   0  0  1  0  0  0  0  0  0  0  0  0
   15.5896  -23.8477   -2.6475 C   0  0  0  0  0  0  0  0  0  0  0  0
   15.7599  -24.9556   -3.6199 C   0  0  0  0  0  0  0  0  0  0  0  0
   15.7430  -24.5330   -5.0134 C   0  0  0  0  0  0  0  0  0  0  0  0
   15.6030  -23.3890   -5.4433 O   0  0  0  0  0  0  0  0  0  0  0  0
   14.0747  -22.7051   -1.0718 C   0  0  0  0  0  0  0  0  0  0  0  0
   13.8849  -21.4869   -1.2415 O   0  0  0  0  0  0  0  0  0  0  0  0
   15.9053  -25.5393   -5.9979 O   0  0  0  0  0  0  0  0  0  0  0  0
   13.4298  -21.3763    3.8844 N   0  0  0  0  0  0  0  0  0  0  0  0
   13.1462  -22.7548    3.7229 C   0  0  0  0  0  0  0  0  0  0  0  0
   12.6184  -23.3649    4.6787 O   0  0  0  0  0  0  0  0  0  0  0  0
   13.4737  -23.4140    2.4644 C   0  0  0  0  0  0  0  0  0  0  0  0
   14.0496  -22.4812    1.4032 C   0  0  2  0  0  0  0  0  0  0  0  0
   14.1961  -23.2670    0.2185 N   0  0  0  0  0  0  0  0  0  0  0  0
   15.3674  -22.0269    1.8896 C   0  0  0  0  0  0  0  0  0  0  0  0
   16.2938  -22.9328    1.9552 O   0  0  0  0  0  0  0  0  0  0  0  0
   15.7446  -20.7316    2.2913 N   0  0  0  0  0  0  0  0  0  0  0  0
   15.0120  -19.4884    2.3091 C   0  0  0  0  0  0  0  0  0  0  0  0
   15.7786  -18.5356    3.2306 C   0  0  0  0  0  0  0  0  0  0  0  0
   17.2111  -19.0316    3.1178 C   0  0  0  0  0  0  0  0  0  0  0  0
   17.1158  -20.4836    2.7962 C   0  0  1  0  0  0  0  0  0  0  0  0
   17.3348  -21.3106    4.0193 C   0  0  0  0  0  0  0  0  0  0  0  0
   16.3731  -21.9080    4.5245 O   0  0  0  0  0  0  0  0  0  0  0  0
   18.6034  -21.4074    4.5806 O   0  0  0  0  0  0  0  0  0  0  0  0
  2  1  1  6
  2  7  1  0
  2  3  1  0
  3  4  1  0
  5  6  2  0
  5  4  1  0
  7 15  1  0
  7  8  2  0
  9  5  1  0
 11 10  1  0
 12 11  2  0
 13 11  1  0
 14 13  1  1
 15 14  1  0
 16 14  1  0
 17 16  2  0
 18 16  1  0
 18 19  1  0
 20 19  1  0
 21 22  1  0
 21 20  1  0
 22 23  1  1
 22 18  1  0
 23 25  1  0
 24 23  2  0
M  END
$$$$
