ENP.pdb
     RDKit          3D

 25 25  0  0  1  0  0  0  0  0999 V2000
   17.2922  -12.1658  -16.9816 N   0  0  0  0  0  0  0  0  0  0  0  0
   18.1382  -11.5638  -16.0343 C   0  0  1  0  0  0  0  0  0  0  0  0
   19.4659  -12.2314  -15.9122 C   0  0  0  0  0  0  0  0  0  0  0  0
   20.2832  -12.1747  -17.1495 C   0  0  0  0  0  0  0  0  0  0  0  0
   21.6429  -12.6707  -16.9886 C   0  0  0  0  0  0  0  0  0  0  0  0
   22.6696  -12.0042  -16.8676 O   0  0  0  0  0  0  0  0  0  0  0  0
   18.3101  -10.0756  -16.2275 C   0  0  0  0  0  0  0  0  0  0  0  0
   18.1778   -9.6631  -17.3942 O   0  0  0  0  0  0  0  0  0  0  0  0
   21.8216  -14.0763  -16.9659 O   0  0  0  0  0  0  0  0  0  0  0  0
   18.1702   -5.0353  -15.4202 N   0  0  0  0  0  0  0  0  0  0  0  0
   17.2833   -5.7937  -14.6170 C   0  0  0  0  0  0  0  0  0  0  0  0
   16.3418   -5.1960  -14.0508 O   0  0  0  0  0  0  0  0  0  0  0  0
   17.4910   -7.2299  -14.4751 C   0  0  0  0  0  0  0  0  0  0  0  0
   18.6310   -7.7822  -15.3255 C   0  0  2  0  0  0  0  0  0  0  0  0
   18.6028   -9.2011  -15.1574 N   0  0  0  0  0  0  0  0  0  0  0  0
   19.8872   -7.2221  -14.7889 C   0  0  0  0  0  0  0  0  0  0  0  0
   20.1857   -7.5560  -13.5713 O   0  0  0  0  0  0  0  0  0  0  0  0
   20.8029   -6.3701  -15.4347 N   0  0  0  0  0  0  0  0  0  0  0  0
   20.7846   -5.7718  -16.7478 C   0  0  0  0  0  0  0  0  0  0  0  0
   21.8025   -4.6280  -16.7276 C   0  0  0  0  0  0  0  0  0  0  0  0
   22.8040   -5.0817  -15.6780 C   0  0  0  0  0  0  0  0  0  0  0  0
   22.0438   -5.9542  -14.7391 C   0  0  1  0  0  0  0  0  0  0  0  0
   21.6738   -5.2036  -13.5033 C   0  0  0  0  0  0  0  0  0  0  0  0
   20.5110   -4.7943  -13.3707 O   0  0  0  0  0  0  0  0  0  0  0  0
   22.6244   -4.9695  -12.5157 O   0  0  0  0  0  0  0  0  0  0  0  0
  2  1  1  6
  2  7  1  0
  2  3  1  0
  3  4  1  0
  5  6  2  0
  5  4  1  0
  7 15  1  0
  7  8  2  0
  9  5  1  0
 11 10  1  0
 12 11  2  0
 13 11  1  0
 14 13  1  1
 15 14  1  0
 16 14  1  0
 17 16  2  0
 18 16  1  0
 18 19  1  0
 20 19  1  0
 21 22  1  0
 21 20  1  0
 22 23  1  1
 22 18  1  0
 23 25  1  0
 24 23  2  0
M  END
$$$$
