ENP.pdb
     RDKit          3D

 25 25  0  0  1  0  0  0  0  0999 V2000
   22.4001  -12.1185  -16.9203 N   0  0  0  0  0  0  0  0  0  0  0  0
   21.9964  -11.3030  -17.9915 C   0  0  1  0  0  0  0  0  0  0  0  0
   21.6322  -12.0684  -19.2183 C   0  0  0  0  0  0  0  0  0  0  0  0
   21.8942  -13.5256  -19.1175 C   0  0  0  0  0  0  0  0  0  0  0  0
   21.6071  -14.2682  -20.3368 C   0  0  0  0  0  0  0  0  0  0  0  0
   21.7363  -15.4776  -20.5205 O   0  0  0  0  0  0  0  0  0  0  0  0
   20.9031  -10.3236  -17.6350 C   0  0  0  0  0  0  0  0  0  0  0  0
   19.9086  -10.3275  -18.3832 O   0  0  0  0  0  0  0  0  0  0  0  0
   21.1230  -13.5308  -21.4460 O   0  0  0  0  0  0  0  0  0  0  0  0
   18.1482  -10.5370  -15.4799 N   0  0  0  0  0  0  0  0  0  0  0  0
   18.6727   -9.7563  -14.4205 C   0  0  0  0  0  0  0  0  0  0  0  0
   18.2559   -9.9770  -13.2621 O   0  0  0  0  0  0  0  0  0  0  0  0
   19.6694   -8.7316  -14.7070 C   0  0  0  0  0  0  0  0  0  0  0  0
   19.9530   -8.5359  -16.1934 C   0  0  2  0  0  0  0  0  0  0  0  0
   20.9960   -9.4550  -16.5249 N   0  0  0  0  0  0  0  0  0  0  0  0
   20.4132   -7.1443  -16.3708 C   0  0  0  0  0  0  0  0  0  0  0  0
   21.5951   -6.8720  -15.9101 O   0  0  0  0  0  0  0  0  0  0  0  0
   19.7288   -6.0750  -16.9787 N   0  0  0  0  0  0  0  0  0  0  0  0
   18.4311   -6.0082  -17.6064 C   0  0  0  0  0  0  0  0  0  0  0  0
   18.0559   -4.5261  -17.6914 C   0  0  0  0  0  0  0  0  0  0  0  0
   19.4085   -3.8355  -17.7570 C   0  0  0  0  0  0  0  0  0  0  0  0
   20.3611   -4.7363  -17.0485 C   0  0  1  0  0  0  0  0  0  0  0  0
   20.6135   -4.2506  -15.6600 C   0  0  0  0  0  0  0  0  0  0  0  0
   21.2317   -3.1887  -15.4947 O   0  0  0  0  0  0  0  0  0  0  0  0
   20.1584   -4.9829  -14.5689 O   0  0  0  0  0  0  0  0  0  0  0  0
  2  1  1  1
  2  7  1  0
  2  3  1  0
  3  4  1  0
  5  6  2  0
  5  4  1  0
  7 15  1  0
  7  8  2  0
  9  5  1  0
 11 10  1  0
 12 11  2  0
 13 11  1  0
 14 13  1  1
 15 14  1  0
 16 14  1  0
 17 16  2  0
 18 16  1  0
 18 19  1  0
 20 19  1  0
 21 22  1  0
 21 20  1  0
 22 23  1  1
 22 18  1  0
 23 25  1  0
 24 23  2  0
M  END
$$$$
