ENP.pdb
     RDKit          3D

 25 25  0  0  1  0  0  0  0  0999 V2000
   18.4464  -12.7498  -17.0688 N   0  0  0  0  0  0  0  0  0  0  0  0
   19.5314  -11.9152  -16.7502 C   0  0  1  0  0  0  0  0  0  0  0  0
   20.7183  -12.1197  -17.6292 C   0  0  0  0  0  0  0  0  0  0  0  0
   21.3103  -13.4771  -17.5336 C   0  0  0  0  0  0  0  0  0  0  0  0
   22.4617  -13.6873  -18.4001 C   0  0  0  0  0  0  0  0  0  0  0  0
   22.4538  -14.0614  -19.5718 O   0  0  0  0  0  0  0  0  0  0  0  0
   19.1734  -10.4495  -16.6772 C   0  0  0  0  0  0  0  0  0  0  0  0
   18.5719   -9.9900  -17.6651 O   0  0  0  0  0  0  0  0  0  0  0  0
   23.7426  -13.4366  -17.8481 O   0  0  0  0  0  0  0  0  0  0  0  0
   15.9445   -7.4853  -15.5528 N   0  0  0  0  0  0  0  0  0  0  0  0
   16.7408   -8.4681  -14.9151 C   0  0  0  0  0  0  0  0  0  0  0  0
   16.2625   -9.6151  -14.7738 O   0  0  0  0  0  0  0  0  0  0  0  0
   18.0770   -8.1191  -14.4476 C   0  0  0  0  0  0  0  0  0  0  0  0
   19.1645   -8.2558  -15.5091 C   0  0  2  0  0  0  0  0  0  0  0  0
   19.4974   -9.6447  -15.5624 N   0  0  0  0  0  0  0  0  0  0  0  0
   20.3230   -7.4628  -15.0523 C   0  0  0  0  0  0  0  0  0  0  0  0
   21.0027   -7.9626  -14.0667 O   0  0  0  0  0  0  0  0  0  0  0  0
   20.7828   -6.2305  -15.5537 N   0  0  0  0  0  0  0  0  0  0  0  0
   20.3420   -5.4331  -16.6728 C   0  0  0  0  0  0  0  0  0  0  0  0
   20.9171   -4.0285  -16.4698 C   0  0  0  0  0  0  0  0  0  0  0  0
   22.1784   -4.2903  -15.6626 C   0  0  0  0  0  0  0  0  0  0  0  0
   21.9205   -5.5432  -14.8981 C   0  0  1  0  0  0  0  0  0  0  0  0
   21.5464   -5.2330  -13.4869 C   0  0  0  0  0  0  0  0  0  0  0  0
   20.3606   -5.3359  -13.1400 O   0  0  0  0  0  0  0  0  0  0  0  0
   22.5192   -4.8348  -12.5764 O   0  0  0  0  0  0  0  0  0  0  0  0
  2  1  1  6
  2  7  1  0
  2  3  1  0
  3  4  1  0
  5  6  2  0
  5  4  1  0
  7 15  1  0
  7  8  2  0
  9  5  1  0
 11 10  1  0
 12 11  2  0
 13 11  1  0
 14 13  1  1
 15 14  1  0
 16 14  1  0
 17 16  2  0
 18 16  1  0
 18 19  1  0
 20 19  1  0
 21 22  1  0
 21 20  1  0
 22 23  1  1
 22 18  1  0
 23 25  1  0
 24 23  2  0
M  END
$$$$
