ENP.pdb
     RDKit          3D

 25 25  0  0  1  0  0  0  0  0999 V2000
   21.1021  -22.0151  -15.1760 N   0  0  0  0  0  0  0  0  0  0  0  0
   21.1075  -20.7443  -14.5758 C   0  0  1  0  0  0  0  0  0  0  0  0
   20.0413  -20.5662  -13.5487 C   0  0  0  0  0  0  0  0  0  0  0  0
   19.6934  -21.8120  -12.8212 C   0  0  0  0  0  0  0  0  0  0  0  0
   18.6889  -21.6342  -11.7820 C   0  0  0  0  0  0  0  0  0  0  0  0
   17.4824  -21.8589  -11.8658 O   0  0  0  0  0  0  0  0  0  0  0  0
   22.4516  -20.3377  -14.0190 C   0  0  0  0  0  0  0  0  0  0  0  0
   22.5140  -19.1905  -13.5407 O   0  0  0  0  0  0  0  0  0  0  0  0
   19.1336  -21.1493  -10.5268 O   0  0  0  0  0  0  0  0  0  0  0  0
   24.9286  -20.4501  -10.8723 N   0  0  0  0  0  0  0  0  0  0  0  0
   25.4473  -21.6671  -11.3787 C   0  0  0  0  0  0  0  0  0  0  0  0
   25.8697  -22.5145  -10.5614 O   0  0  0  0  0  0  0  0  0  0  0  0
   25.4742  -21.8938  -12.8187 C   0  0  0  0  0  0  0  0  0  0  0  0
   24.8716  -20.7579  -13.6401 C   0  0  2  0  0  0  0  0  0  0  0  0
   23.5712  -21.1988  -14.0367 N   0  0  0  0  0  0  0  0  0  0  0  0
   25.7362  -20.5667  -14.8214 C   0  0  0  0  0  0  0  0  0  0  0  0
   25.5896  -21.4282  -15.7803 O   0  0  0  0  0  0  0  0  0  0  0  0
   26.7008  -19.5645  -15.0375 N   0  0  0  0  0  0  0  0  0  0  0  0
   27.1413  -18.4709  -14.2054 C   0  0  0  0  0  0  0  0  0  0  0  0
   28.4802  -17.9929  -14.7741 C   0  0  0  0  0  0  0  0  0  0  0  0
   28.3735  -18.3547  -16.2467 C   0  0  0  0  0  0  0  0  0  0  0  0
   27.4540  -19.5256  -16.3133 C   0  0  1  0  0  0  0  0  0  0  0  0
   28.2257  -20.7953  -16.4552 C   0  0  0  0  0  0  0  0  0  0  0  0
   28.4040  -21.5084  -15.4568 O   0  0  0  0  0  0  0  0  0  0  0  0
   28.7354  -21.1697  -17.6937 O   0  0  0  0  0  0  0  0  0  0  0  0
  2  1  1  1
  2  7  1  0
  2  3  1  0
  3  4  1  0
  5  6  2  0
  5  4  1  0
  7 15  1  0
  7  8  2  0
  9  5  1  0
 11 10  1  0
 12 11  2  0
 13 11  1  0
 14 13  1  1
 15 14  1  0
 16 14  1  0
 17 16  2  0
 18 16  1  0
 18 19  1  0
 20 19  1  0
 21 22  1  0
 21 20  1  0
 22 23  1  1
 22 18  1  0
 23 25  1  0
 24 23  2  0
M  END
$$$$
