KLM.pdb
     RDKit          3D

 26 25  0  0  1  0  0  0  0  0999 V2000
    9.5224  -16.1059   19.2317 N   0  0  0  0  0  0  0  0  0  0  0  0
    8.6938  -16.5800   20.3087 C   0  0  1  0  0  0  0  0  0  0  0  0
    8.6370  -18.0822   20.4180 C   0  0  0  0  0  0  0  0  0  0  0  0
    9.9567  -18.7009   20.6659 C   0  0  0  0  0  0  0  0  0  0  0  0
   10.0323  -20.1647   20.8189 C   0  0  0  0  0  0  0  0  0  0  0  0
   11.3993  -20.7117   21.1041 C   0  0  0  0  0  0  0  0  0  0  0  0
   11.3661  -22.1487   21.3681 N   0  0  0  0  0  0  0  0  0  0  0  0
    9.0271  -15.9388   21.6024 C   0  0  0  0  0  0  0  0  0  0  0  0
   10.1868  -15.5721   21.8514 O   0  0  0  0  0  0  0  0  0  0  0  0
    5.6974  -13.7027   26.3249 C   0  0  0  0  0  0  0  0  0  0  0  0
    7.1323  -13.8641   25.7956 C   0  0  2  0  0  0  0  0  0  0  0  0
    7.6465  -12.4629   25.6163 C   0  0  0  0  0  0  0  0  0  0  0  0
    7.0311  -14.6574   24.5322 C   0  0  0  0  0  0  0  0  0  0  0  0
    8.2600  -15.0555   23.8480 C   0  0  2  0  0  0  0  0  0  0  0  0
    8.0410  -15.7303   22.5770 N   0  0  0  0  0  0  0  0  0  0  0  0
    9.0807  -15.9773   24.6542 C   0  0  0  0  0  0  0  0  0  0  0  0
    8.8052  -17.2141   24.7675 O   0  0  0  0  0  0  0  0  0  0  0  0
   10.8697  -12.8318   29.4906 C   0  0  0  0  0  0  0  0  0  0  0  0
   10.1703  -14.1717   28.4619 S   0  0  0  0  0  0  0  0  0  0  0  0
   11.4006  -15.4962   28.3918 C   0  0  0  0  0  0  0  0  0  0  0  0
   11.9895  -15.6190   27.0241 C   0  0  0  0  0  0  0  0  0  0  0  0
   11.0839  -16.4616   26.1251 C   0  0  2  0  0  0  0  0  0  0  0  0
   10.2617  -15.5529   25.3676 N   0  0  0  0  0  0  0  0  0  0  0  0
   10.2153  -17.3106   26.9945 C   0  0  0  0  0  0  0  0  0  0  0  0
    8.9003  -16.8856   27.2551 O   0  0  0  0  0  0  0  0  0  0  0  0
   10.5892  -18.3839   27.5082 O   0  0  0  0  0  0  0  0  0  0  0  0
  2  1  1  6
  2  8  1  0
  3  2  1  0
  3  4  1  0
  4  5  1  0
  5  6  1  0
  7  6  1  0
  8  9  2  0
 11 12  1  6
 11 10  1  0
 13 11  1  0
 14 13  1  1
 14 16  1  0
 15  8  1  0
 15 14  1  0
 16 17  2  0
 19 18  1  0
 19 20  1  0
 20 21  1  0
 22 21  1  1
 22 24  1  0
 23 16  1  0
 23 22  1  0
 24 25  1  0
 26 24  2  0
M  END
$$$$
