KLM.pdb
     RDKit          3D

 26 25  0  0  1  0  0  0  0  0999 V2000
    7.7448  -18.1513   21.6724 N   0  0  0  0  0  0  0  0  0  0  0  0
    8.8977  -17.4329   21.1970 C   0  0  1  0  0  0  0  0  0  0  0  0
    8.8979  -17.1980   19.7081 C   0  0  0  0  0  0  0  0  0  0  0  0
    8.2970  -18.3095   18.9405 C   0  0  0  0  0  0  0  0  0  0  0  0
    8.3920  -18.2843   17.4701 C   0  0  0  0  0  0  0  0  0  0  0  0
    7.6439  -19.3721   16.7585 C   0  0  0  0  0  0  0  0  0  0  0  0
    7.7328  -19.2334   15.3065 N   0  0  0  0  0  0  0  0  0  0  0  0
    9.1396  -16.1850   21.9585 C   0  0  0  0  0  0  0  0  0  0  0  0
   10.1235  -15.4691   21.7122 O   0  0  0  0  0  0  0  0  0  0  0  0
    6.1007  -13.1264   26.4140 C   0  0  0  0  0  0  0  0  0  0  0  0
    7.4685  -13.2355   25.7194 C   0  0  2  0  0  0  0  0  0  0  0  0
    7.7785  -11.8456   25.2382 C   0  0  0  0  0  0  0  0  0  0  0  0
    7.3121  -14.2510   24.6330 C   0  0  0  0  0  0  0  0  0  0  0  0
    8.4915  -14.6563   23.8703 C   0  0  2  0  0  0  0  0  0  0  0  0
    8.2631  -15.7819   22.9759 N   0  0  0  0  0  0  0  0  0  0  0  0
    9.6139  -15.0564   24.7382 C   0  0  0  0  0  0  0  0  0  0  0  0
   10.4742  -14.2236   25.1680 O   0  0  0  0  0  0  0  0  0  0  0  0
   11.3488  -13.5884   29.4942 C   0  0  0  0  0  0  0  0  0  0  0  0
   10.1271  -14.9484   29.4786 S   0  0  0  0  0  0  0  0  0  0  0  0
    9.8658  -15.4192   27.7515 C   0  0  0  0  0  0  0  0  0  0  0  0
   10.4760  -16.7499   27.4527 C   0  0  0  0  0  0  0  0  0  0  0  0
   10.9346  -16.8132   25.9953 C   0  0  2  0  0  0  0  0  0  0  0  0
    9.8190  -16.4171   25.1743 N   0  0  0  0  0  0  0  0  0  0  0  0
   11.3074  -18.2248   25.6795 C   0  0  0  0  0  0  0  0  0  0  0  0
   12.5004  -18.7433   26.2139 O   0  0  0  0  0  0  0  0  0  0  0  0
   10.6182  -18.9785   24.9637 O   0  0  0  0  0  0  0  0  0  0  0  0
  2  1  1  1
  2  8  1  0
  3  2  1  0
  3  4  1  0
  4  5  1  0
  5  6  1  0
  7  6  1  0
  8  9  2  0
 11 12  1  6
 11 10  1  0
 13 11  1  0
 14 13  1  1
 14 16  1  0
 15  8  1  0
 15 14  1  0
 16 17  2  0
 19 18  1  0
 19 20  1  0
 20 21  1  0
 22 21  1  1
 22 24  1  0
 23 16  1  0
 23 22  1  0
 24 25  1  0
 26 24  2  0
M  END
$$$$
