KLM.pdb
     RDKit          3D

 26 25  0  0  1  0  0  0  0  0999 V2000
    6.8951  -16.9416   21.9841 N   0  0  0  0  0  0  0  0  0  0  0  0
    8.3014  -16.6724   21.8385 C   0  0  1  0  0  0  0  0  0  0  0  0
    8.6646  -16.0205   20.5289 C   0  0  0  0  0  0  0  0  0  0  0  0
    8.1532  -16.7516   19.3499 C   0  0  0  0  0  0  0  0  0  0  0  0
    8.5533  -16.2939   18.0075 C   0  0  0  0  0  0  0  0  0  0  0  0
    8.0156  -17.1035   16.8652 C   0  0  0  0  0  0  0  0  0  0  0  0
    8.5360  -16.6430   15.5796 N   0  0  0  0  0  0  0  0  0  0  0  0
    8.8599  -15.9406   22.9996 C   0  0  0  0  0  0  0  0  0  0  0  0
   10.0517  -15.5935   23.0204 O   0  0  0  0  0  0  0  0  0  0  0  0
    7.6194  -11.9701   25.1556 C   0  0  0  0  0  0  0  0  0  0  0  0
    6.6503  -13.1471   25.3573 C   0  0  2  0  0  0  0  0  0  0  0  0
    5.5234  -12.5931   26.1835 C   0  0  0  0  0  0  0  0  0  0  0  0
    7.4350  -14.2329   26.0214 C   0  0  0  0  0  0  0  0  0  0  0  0
    8.5089  -14.8859   25.2747 C   0  0  2  0  0  0  0  0  0  0  0  0
    8.0560  -15.6219   24.1033 N   0  0  0  0  0  0  0  0  0  0  0  0
    9.2549  -15.8580   26.0942 C   0  0  0  0  0  0  0  0  0  0  0  0
    8.7515  -16.9659   26.4652 O   0  0  0  0  0  0  0  0  0  0  0  0
   15.8278  -16.5397   26.8644 C   0  0  0  0  0  0  0  0  0  0  0  0
   14.8884  -16.5825   25.2965 S   0  0  0  0  0  0  0  0  0  0  0  0
   13.1580  -16.9061   25.7130 C   0  0  0  0  0  0  0  0  0  0  0  0
   12.8201  -16.3871   27.0728 C   0  0  0  0  0  0  0  0  0  0  0  0
   11.3293  -16.5693   27.3599 C   0  0  2  0  0  0  0  0  0  0  0  0
   10.6126  -15.6345   26.5304 N   0  0  0  0  0  0  0  0  0  0  0  0
   11.0835  -16.2476   28.7978 C   0  0  0  0  0  0  0  0  0  0  0  0
   11.5083  -17.1639   29.7764 O   0  0  0  0  0  0  0  0  0  0  0  0
   10.5190  -15.2057   29.1866 O   0  0  0  0  0  0  0  0  0  0  0  0
  2  1  1  1
  2  8  1  0
  3  2  1  0
  3  4  1  0
  4  5  1  0
  5  6  1  0
  7  6  1  0
  8  9  2  0
 11 12  1  1
 11 10  1  0
 13 11  1  0
 14 13  1  1
 14 16  1  0
 15  8  1  0
 15 14  1  0
 16 17  2  0
 19 18  1  0
 19 20  1  0
 20 21  1  0
 22 21  1  6
 22 24  1  0
 23 16  1  0
 23 22  1  0
 24 25  1  0
 26 24  2  0
M  END
$$$$
