KLM.pdb
     RDKit          3D

 26 25  0  0  1  0  0  0  0  0999 V2000
    7.2504  -17.7014   22.2521 N   0  0  0  0  0  0  0  0  0  0  0  0
    8.4316  -17.2036   21.5976 C   0  0  1  0  0  0  0  0  0  0  0  0
    8.2035  -16.7782   20.1697 C   0  0  0  0  0  0  0  0  0  0  0  0
    7.3533  -17.7180   19.4082 C   0  0  0  0  0  0  0  0  0  0  0  0
    7.4777  -17.7512   17.9401 C   0  0  0  0  0  0  0  0  0  0  0  0
    6.4624  -18.5943   17.2276 C   0  0  0  0  0  0  0  0  0  0  0  0
    6.5982  -18.4986   15.7757 N   0  0  0  0  0  0  0  0  0  0  0  0
    9.1168  -16.1550   22.3893 C   0  0  0  0  0  0  0  0  0  0  0  0
   10.1784  -15.6487   21.9919 O   0  0  0  0  0  0  0  0  0  0  0  0
    7.6060  -12.0719   24.0912 C   0  0  0  0  0  0  0  0  0  0  0  0
    7.0324  -13.2847   24.8430 C   0  0  2  0  0  0  0  0  0  0  0  0
    6.1375  -12.7047   25.9025 C   0  0  0  0  0  0  0  0  0  0  0  0
    8.2043  -14.0509   25.3677 C   0  0  0  0  0  0  0  0  0  0  0  0
    9.1464  -14.6389   24.4171 C   0  0  2  0  0  0  0  0  0  0  0  0
    8.5830  -15.7088   23.6065 N   0  0  0  0  0  0  0  0  0  0  0  0
   10.3280  -15.2195   25.0804 C   0  0  0  0  0  0  0  0  0  0  0  0
   11.2494  -14.5010   25.5836 O   0  0  0  0  0  0  0  0  0  0  0  0
   10.4335  -14.1290   30.0710 C   0  0  0  0  0  0  0  0  0  0  0  0
   10.0839  -14.9190   28.4597 S   0  0  0  0  0  0  0  0  0  0  0  0
   10.2992  -16.7022   28.6751 C   0  0  0  0  0  0  0  0  0  0  0  0
    9.9973  -17.4425   27.4128 C   0  0  0  0  0  0  0  0  0  0  0  0
   11.1165  -17.2371   26.3913 C   0  0  2  0  0  0  0  0  0  0  0  0
   10.5270  -16.6425   25.2189 N   0  0  0  0  0  0  0  0  0  0  0  0
   11.6839  -18.5732   26.0389 C   0  0  0  0  0  0  0  0  0  0  0  0
   11.5227  -19.0496   24.7256 O   0  0  0  0  0  0  0  0  0  0  0  0
   12.2978  -19.2987   26.8465 O   0  0  0  0  0  0  0  0  0  0  0  0
  2  1  1  1
  2  8  1  0
  3  2  1  0
  3  4  1  0
  4  5  1  0
  5  6  1  0
  7  6  1  0
  8  9  2  0
 11 12  1  1
 11 10  1  0
 13 11  1  0
 14 13  1  1
 14 16  1  0
 15  8  1  0
 15 14  1  0
 16 17  2  0
 19 18  1  0
 19 20  1  0
 20 21  1  0
 22 21  1  1
 22 24  1  0
 23 16  1  0
 23 22  1  0
 24 25  1  0
 26 24  2  0
M  END
$$$$
