KLM.pdb
     RDKit          3D

 26 25  0  0  1  0  0  0  0  0999 V2000
    6.8783  -16.3340   21.3611 N   0  0  0  0  0  0  0  0  0  0  0  0
    8.3157  -16.2782   21.4057 C   0  0  1  0  0  0  0  0  0  0  0  0
    8.9290  -15.4702   20.2907 C   0  0  0  0  0  0  0  0  0  0  0  0
    8.6192  -16.0001   18.9457 C   0  0  0  0  0  0  0  0  0  0  0  0
    9.6450  -16.7943   18.2465 C   0  0  0  0  0  0  0  0  0  0  0  0
    9.2284  -17.3590   16.9211 C   0  0  0  0  0  0  0  0  0  0  0  0
   10.2755  -18.1897   16.3303 N   0  0  0  0  0  0  0  0  0  0  0  0
    8.8243  -15.8690   22.7360 C   0  0  0  0  0  0  0  0  0  0  0  0
   10.0421  -15.8613   22.9775 O   0  0  0  0  0  0  0  0  0  0  0  0
    8.4379  -12.1063   25.8337 C   0  0  0  0  0  0  0  0  0  0  0  0
    7.1371  -12.8276   25.4428 C   0  0  2  0  0  0  0  0  0  0  0  0
    6.0529  -12.1344   26.2197 C   0  0  0  0  0  0  0  0  0  0  0  0
    7.3304  -14.2686   25.7919 C   0  0  0  0  0  0  0  0  0  0  0  0
    8.3500  -15.0370   25.0800 C   0  0  2  0  0  0  0  0  0  0  0  0
    7.9428  -15.4803   23.7546 N   0  0  0  0  0  0  0  0  0  0  0  0
    8.7453  -16.2576   25.8061 C   0  0  0  0  0  0  0  0  0  0  0  0
    7.9047  -17.1469   26.1535 O   0  0  0  0  0  0  0  0  0  0  0  0
   14.0585  -19.7876   24.5562 C   0  0  0  0  0  0  0  0  0  0  0  0
   14.0794  -19.7793   26.3844 S   0  0  0  0  0  0  0  0  0  0  0  0
   12.4071  -19.3717   26.9411 C   0  0  0  0  0  0  0  0  0  0  0  0
   11.9013  -18.1311   26.2796 C   0  0  0  0  0  0  0  0  0  0  0  0
   10.5104  -17.7736   26.8047 C   0  0  2  0  0  0  0  0  0  0  0  0
   10.1128  -16.5428   26.1702 N   0  0  0  0  0  0  0  0  0  0  0  0
   10.6034  -17.5643   28.2807 C   0  0  0  0  0  0  0  0  0  0  0  0
   10.6427  -18.6912   29.1209 O   0  0  0  0  0  0  0  0  0  0  0  0
   10.6487  -16.4397   28.8182 O   0  0  0  0  0  0  0  0  0  0  0  0
  2  1  1  1
  2  8  1  0
  3  2  1  0
  3  4  1  0
  4  5  1  0
  5  6  1  0
  7  6  1  0
  8  9  2  0
 11 12  1  1
 11 10  1  0
 13 11  1  0
 14 13  1  1
 14 16  1  0
 15  8  1  0
 15 14  1  0
 16 17  2  0
 19 18  1  0
 19 20  1  0
 20 21  1  0
 22 21  1  6
 22 24  1  0
 23 16  1  0
 23 22  1  0
 24 25  1  0
 26 24  2  0
M  END
$$$$
