KLM.pdb
     RDKit          3D

 26 25  0  0  1  0  0  0  0  0999 V2000
    8.0557  -18.6030   20.5967 N   0  0  0  0  0  0  0  0  0  0  0  0
    9.3684  -18.1603   20.2066 C   0  0  1  0  0  0  0  0  0  0  0  0
    9.6371  -18.2788   18.7282 C   0  0  0  0  0  0  0  0  0  0  0  0
    9.1244  -19.5343   18.1393 C   0  0  0  0  0  0  0  0  0  0  0  0
    9.3749  -19.7978   16.7112 C   0  0  0  0  0  0  0  0  0  0  0  0
    8.8102  -21.0841   16.1858 C   0  0  0  0  0  0  0  0  0  0  0  0
    9.8485  -21.9439   15.6218 N   0  0  0  0  0  0  0  0  0  0  0  0
    9.6861  -16.8089   20.7248 C   0  0  0  0  0  0  0  0  0  0  0  0
   10.8319  -16.3416   20.6247 O   0  0  0  0  0  0  0  0  0  0  0  0
    8.6497  -12.8424   19.2549 C   0  0  0  0  0  0  0  0  0  0  0  0
    7.4966  -13.6300   19.8993 C   0  0  2  0  0  0  0  0  0  0  0  0
    6.2571  -12.8374   19.5912 C   0  0  0  0  0  0  0  0  0  0  0  0
    7.8204  -13.7401   21.3550 C   0  0  0  0  0  0  0  0  0  0  0  0
    8.8868  -14.6477   21.7744 C   0  0  2  0  0  0  0  0  0  0  0  0
    8.7005  -16.0246   21.3406 N   0  0  0  0  0  0  0  0  0  0  0  0
    9.0330  -14.7064   23.2402 C   0  0  0  0  0  0  0  0  0  0  0  0
    9.5466  -13.7567   23.9130 O   0  0  0  0  0  0  0  0  0  0  0  0
    7.7361  -11.3969   26.9616 C   0  0  0  0  0  0  0  0  0  0  0  0
    8.2347  -13.1408   27.1915 S   0  0  0  0  0  0  0  0  0  0  0  0
    7.2771  -14.1343   26.0217 C   0  0  0  0  0  0  0  0  0  0  0  0
    7.5739  -15.5906   26.1752 C   0  0  0  0  0  0  0  0  0  0  0  0
    8.8621  -15.9550   25.4363 C   0  0  2  0  0  0  0  0  0  0  0  0
    8.5982  -15.8373   24.0249 N   0  0  0  0  0  0  0  0  0  0  0  0
    9.2070  -17.3716   25.7609 C   0  0  0  0  0  0  0  0  0  0  0  0
    9.6244  -17.6822   27.0674 O   0  0  0  0  0  0  0  0  0  0  0  0
    9.1465  -18.3047   24.9354 O   0  0  0  0  0  0  0  0  0  0  0  0
  2  1  1  6
  2  8  1  0
  3  2  1  0
  3  4  1  0
  4  5  1  0
  5  6  1  0
  7  6  1  0
  8  9  2  0
 11 12  1  1
 11 10  1  0
 13 11  1  0
 14 13  1  1
 14 16  1  0
 15  8  1  0
 15 14  1  0
 16 17  2  0
 19 18  1  0
 19 20  1  0
 20 21  1  0
 22 21  1  1
 22 24  1  0
 23 16  1  0
 23 22  1  0
 24 25  1  0
 26 24  2  0
M  END
$$$$
