KLM.pdb
     RDKit          3D

 26 25  0  0  1  0  0  0  0  0999 V2000
    7.5919  -17.1849   21.6287 N   0  0  0  0  0  0  0  0  0  0  0  0
    8.9850  -16.8349   21.7177 C   0  0  1  0  0  0  0  0  0  0  0  0
    9.5715  -16.3346   20.4224 C   0  0  0  0  0  0  0  0  0  0  0  0
    9.4835  -17.3182   19.3221 C   0  0  0  0  0  0  0  0  0  0  0  0
   10.1496  -17.0093   18.0443 C   0  0  0  0  0  0  0  0  0  0  0  0
    9.9754  -18.0347   16.9638 C   0  0  0  0  0  0  0  0  0  0  0  0
   10.4449  -17.5459   15.6691 N   0  0  0  0  0  0  0  0  0  0  0  0
    9.2665  -15.9188   22.8479 C   0  0  0  0  0  0  0  0  0  0  0  0
   10.4198  -15.5163   23.0695 O   0  0  0  0  0  0  0  0  0  0  0  0
    5.7959  -12.6181   26.7648 C   0  0  0  0  0  0  0  0  0  0  0  0
    7.2497  -12.9991   26.4386 C   0  0  2  0  0  0  0  0  0  0  0  0
    7.9510  -11.6946   26.1814 C   0  0  0  0  0  0  0  0  0  0  0  0
    7.1926  -13.9189   25.2611 C   0  0  0  0  0  0  0  0  0  0  0  0
    8.4177  -14.5889   24.8284 C   0  0  2  0  0  0  0  0  0  0  0  0
    8.2371  -15.4841   23.6948 N   0  0  0  0  0  0  0  0  0  0  0  0
    9.0177  -15.4105   25.8953 C   0  0  0  0  0  0  0  0  0  0  0  0
    8.4373  -16.4361   26.3743 O   0  0  0  0  0  0  0  0  0  0  0  0
   14.5851  -16.9883   23.5656 C   0  0  0  0  0  0  0  0  0  0  0  0
   14.4180  -16.3459   25.2691 S   0  0  0  0  0  0  0  0  0  0  0  0
   12.6793  -16.5123   25.7403 C   0  0  0  0  0  0  0  0  0  0  0  0
   12.4397  -16.0006   27.1235 C   0  0  0  0  0  0  0  0  0  0  0  0
   10.9430  -15.9845   27.4364 C   0  0  2  0  0  0  0  0  0  0  0  0
   10.3097  -15.1225   26.4712 N   0  0  0  0  0  0  0  0  0  0  0  0
   10.7540  -15.4200   28.8063 C   0  0  0  0  0  0  0  0  0  0  0  0
   11.0619  -16.2261   29.9167 O   0  0  0  0  0  0  0  0  0  0  0  0
   10.3356  -14.2659   29.0271 O   0  0  0  0  0  0  0  0  0  0  0  0
  2  1  1  6
  2  8  1  0
  3  2  1  0
  3  4  1  0
  4  5  1  0
  5  6  1  0
  7  6  1  0
  8  9  2  0
 11 12  1  6
 11 10  1  0
 13 11  1  0
 14 13  1  1
 14 16  1  0
 15  8  1  0
 15 14  1  0
 16 17  2  0
 19 18  1  0
 19 20  1  0
 20 21  1  0
 22 21  1  6
 22 24  1  0
 23 16  1  0
 23 22  1  0
 24 25  1  0
 26 24  2  0
M  END
$$$$
