KLM.pdb
     RDKit          3D

 26 25  0  0  1  0  0  0  0  0999 V2000
    6.9301  -17.9770   21.4395 N   0  0  0  0  0  0  0  0  0  0  0  0
    7.9209  -17.0984   20.8760 C   0  0  1  0  0  0  0  0  0  0  0  0
    7.4400  -16.3307   19.6712 C   0  0  0  0  0  0  0  0  0  0  0  0
    7.2859  -17.1718   18.4651 C   0  0  0  0  0  0  0  0  0  0  0  0
    8.1274  -16.8822   17.2905 C   0  0  0  0  0  0  0  0  0  0  0  0
    7.7981  -17.6654   16.0546 C   0  0  0  0  0  0  0  0  0  0  0  0
    8.4990  -17.1494   14.8807 N   0  0  0  0  0  0  0  0  0  0  0  0
    8.5348  -16.2127   21.8931 C   0  0  0  0  0  0  0  0  0  0  0  0
    9.5173  -15.5071   21.6136 O   0  0  0  0  0  0  0  0  0  0  0  0
    7.8132  -12.3810   24.4522 C   0  0  0  0  0  0  0  0  0  0  0  0
    6.7754  -13.5052   24.6077 C   0  0  2  0  0  0  0  0  0  0  0  0
    5.7476  -12.9640   25.5617 C   0  0  0  0  0  0  0  0  0  0  0  0
    7.5195  -14.7026   25.1062 C   0  0  0  0  0  0  0  0  0  0  0  0
    8.5467  -15.3004   24.2551 C   0  0  2  0  0  0  0  0  0  0  0  0
    8.0210  -16.1496   23.1961 N   0  0  0  0  0  0  0  0  0  0  0  0
    9.4872  -16.1441   25.0147 C   0  0  0  0  0  0  0  0  0  0  0  0
    9.1840  -17.3127   25.4158 O   0  0  0  0  0  0  0  0  0  0  0  0
   11.6398  -14.3720   30.5249 C   0  0  0  0  0  0  0  0  0  0  0  0
   10.6907  -13.5569   29.1917 S   0  0  0  0  0  0  0  0  0  0  0  0
   11.2241  -14.2879   27.6252 C   0  0  0  0  0  0  0  0  0  0  0  0
   11.2623  -15.7794   27.7067 C   0  0  0  0  0  0  0  0  0  0  0  0
   11.6264  -16.3803   26.3485 C   0  0  2  0  0  0  0  0  0  0  0  0
   10.8235  -15.7162   25.3535 N   0  0  0  0  0  0  0  0  0  0  0  0
   11.2874  -17.8349   26.3706 C   0  0  0  0  0  0  0  0  0  0  0  0
   12.2597  -18.7608   25.9524 O   0  0  0  0  0  0  0  0  0  0  0  0
   10.1836  -18.2822   26.7411 O   0  0  0  0  0  0  0  0  0  0  0  0
  2  1  1  1
  2  8  1  0
  3  2  1  0
  3  4  1  0
  4  5  1  0
  5  6  1  0
  7  6  1  0
  8  9  2  0
 11 12  1  1
 11 10  1  0
 13 11  1  0
 14 13  1  1
 14 16  1  0
 15  8  1  0
 15 14  1  0
 16 17  2  0
 19 18  1  0
 19 20  1  0
 20 21  1  0
 22 21  1  1
 22 24  1  0
 23 16  1  0
 23 22  1  0
 24 25  1  0
 26 24  2  0
M  END
$$$$
