RQK.pdb
     RDKit          3D

 30 29  0  0  1  0  0  0  0  0999 V2000
    6.9626  -12.0577   14.7109 N   0  0  0  0  0  0  0  0  0  0  0  0
    7.2388  -13.4568   14.7459 C   0  0  0  0  0  0  0  0  0  0  0  0
    7.3746  -14.1138   13.6601 N   0  0  0  0  0  0  0  0  0  0  0  0
    7.3644  -14.1120   15.9863 N   0  0  0  0  0  0  0  0  0  0  0  0
    8.0154  -13.4685   17.1463 C   0  0  0  0  0  0  0  0  0  0  0  0
    7.9678  -14.4666   18.2606 C   0  0  0  0  0  0  0  0  0  0  0  0
    9.3146  -14.8771   18.7090 C   0  0  0  0  0  0  0  0  0  0  0  0
   10.2407  -15.4566   17.6835 C   0  0  2  0  0  0  0  0  0  0  0  0
    9.8091  -16.6856   17.0883 N   0  0  0  0  0  0  0  0  0  0  0  0
   11.5425  -15.6764   18.3629 C   0  0  0  0  0  0  0  0  0  0  0  0
   11.7182  -16.7498   18.9750 O   0  0  0  0  0  0  0  0  0  0  0  0
    7.5704  -15.1275   13.6762 N   0  0  0  0  0  0  0  0  0  0  0  0
   16.6434  -11.9680   17.0606 C   0  0  0  0  0  0  0  0  0  0  0  0
   17.1101  -12.9384   17.9768 O   0  0  0  0  0  0  0  0  0  0  0  0
   18.3222  -12.8915   18.3194 C   0  0  0  0  0  0  0  0  0  0  0  0
   16.2605  -13.9919   18.5557 C   0  0  0  0  0  0  0  0  0  0  0  0
   14.8244  -13.9602   18.1672 C   0  0  1  0  0  0  0  0  0  0  0  0
   13.9018  -14.9371   18.8120 N   0  0  0  0  0  0  0  0  0  0  0  0
   12.5272  -14.6802   18.2981 C   0  0  0  0  0  0  0  0  0  0  0  0
   13.7688  -14.8979   20.2708 O   0  0  0  0  0  0  0  0  0  0  0  0
   13.1453  -13.9827   20.8891 N   0  0  0  0  0  0  0  0  0  0  0  0
   14.3433  -15.9064   21.1219 C   0  0  1  0  0  0  0  0  0  0  0  0
   14.1547  -15.8806   22.5667 C   0  0  0  0  0  0  0  0  0  0  0  0
   13.2990  -17.0374   23.0410 C   0  0  0  0  0  0  0  0  0  0  0  0
   13.2522  -16.9887   24.5516 C   0  0  0  0  0  0  0  0  0  0  0  0
   12.5630  -18.2061   25.1213 C   0  0  0  0  0  0  0  0  0  0  0  0
   12.5559  -18.1730   26.6258 N   0  0  0  0  0  0  0  0  0  0  0  0
   11.7609  -19.2073   27.2101 C   0  0  0  0  0  0  0  0  0  0  0  0
   15.4638  -15.8635   23.2728 O   0  0  0  0  0  0  0  0  0  0  0  0
   16.4796  -16.2563   22.6449 O   0  0  0  0  0  0  0  0  0  0  0  0
  1  2  1  0
  2  3  2  0
  4  5  1  0
  4  2  1  0
  6  5  1  0
  7  6  1  0
  8  9  1  1
  8  7  1  0
 10 11  2  0
 10  8  1  0
 12 13  1  0
 13 14  2  0
 15 16  1  0
 15 13  1  0
 17 16  1  6
 17 19  1  0
 17 18  1  0
 18 10  1  0
 19 21  1  0
 20 19  2  0
 21 22  1  0
 22 28  1  0
 23 24  1  0
 22 23  1  1
 24 25  1  0
 25 26  1  0
 26 27  1  0
 28 29  2  0
 28 30  1  0
M  END
$$$$
