RQK.pdb
     RDKit          3D

 30 29  0  0  1  0  0  0  0  0999 V2000
   12.2146  -22.3294   14.6791 N   0  0  0  0  0  0  0  0  0  0  0  0
   12.9728  -22.4463   15.8818 C   0  0  0  0  0  0  0  0  0  0  0  0
   14.1583  -22.9182   15.8525 N   0  0  0  0  0  0  0  0  0  0  0  0
   12.4082  -22.0352   17.1049 N   0  0  0  0  0  0  0  0  0  0  0  0
   11.1430  -21.2741   17.1634 C   0  0  0  0  0  0  0  0  0  0  0  0
   11.4353  -20.0350   17.9503 C   0  0  0  0  0  0  0  0  0  0  0  0
   10.2554  -19.1543   18.0761 C   0  0  0  0  0  0  0  0  0  0  0  0
   10.4641  -17.6830   17.8845 C   0  0  2  0  0  0  0  0  0  0  0  0
   11.5041  -17.3227   16.9683 N   0  0  0  0  0  0  0  0  0  0  0  0
   10.7786  -17.1210   19.2224 C   0  0  0  0  0  0  0  0  0  0  0  0
   11.9550  -16.7783   19.4600 O   0  0  0  0  0  0  0  0  0  0  0  0
   14.7358  -22.9514   16.7079 N   0  0  0  0  0  0  0  0  0  0  0  0
    6.4681  -13.8089   22.3847 C   0  0  0  0  0  0  0  0  0  0  0  0
    7.5608  -13.8825   23.2789 O   0  0  0  0  0  0  0  0  0  0  0  0
    7.4992  -13.2088   24.3424 C   0  0  0  0  0  0  0  0  0  0  0  0
    8.7584  -14.7046   23.0408 C   0  0  0  0  0  0  0  0  0  0  0  0
    8.8048  -15.4312   21.7429 C   0  0  1  0  0  0  0  0  0  0  0  0
    9.9952  -16.2813   21.4574 N   0  0  0  0  0  0  0  0  0  0  0  0
    9.7542  -16.9935   20.1713 C   0  0  0  0  0  0  0  0  0  0  0  0
   10.3298  -17.3399   22.4139 O   0  0  0  0  0  0  0  0  0  0  0  0
    9.7874  -18.4863   22.4020 N   0  0  0  0  0  0  0  0  0  0  0  0
   11.3099  -17.1558   23.4516 C   0  0  1  0  0  0  0  0  0  0  0  0
   11.6685  -18.2373   24.3602 C   0  0  0  0  0  0  0  0  0  0  0  0
   13.1628  -18.2929   24.6034 C   0  0  0  0  0  0  0  0  0  0  0  0
   13.4342  -19.4375   25.5534 C   0  0  0  0  0  0  0  0  0  0  0  0
   14.9123  -19.5903   25.8246 C   0  0  0  0  0  0  0  0  0  0  0  0
   15.1822  -20.7694   26.7198 N   0  0  0  0  0  0  0  0  0  0  0  0
   16.5649  -20.9260   27.0466 C   0  0  0  0  0  0  0  0  0  0  0  0
   10.9253  -18.1210   25.6435 O   0  0  0  0  0  0  0  0  0  0  0  0
   10.6093  -16.9712   26.0417 O   0  0  0  0  0  0  0  0  0  0  0  0
  1  2  1  0
  2  3  2  0
  4  5  1  0
  4  2  1  0
  6  5  1  0
  7  6  1  0
  8  9  1  6
  8  7  1  0
 10 11  2  0
 10  8  1  0
 12 13  1  0
 13 14  2  0
 15 16  1  0
 15 13  1  0
 17 16  1  6
 17 19  1  0
 17 18  1  0
 18 10  1  0
 19 21  1  0
 20 19  2  0
 21 22  1  0
 22 28  1  0
 23 24  1  0
 22 23  1  1
 24 25  1  0
 25 26  1  0
 26 27  1  0
 28 29  2  0
 28 30  1  0
M  END
$$$$
