RQK.pdb
     RDKit          3D

 30 29  0  0  1  0  0  0  0  0999 V2000
    9.1336  -15.4075   14.9264 N   0  0  0  0  0  0  0  0  0  0  0  0
    8.3945  -16.6064   15.1529 C   0  0  0  0  0  0  0  0  0  0  0  0
    8.4561  -17.5687   14.3167 N   0  0  0  0  0  0  0  0  0  0  0  0
    7.5965  -16.7261   16.3073 N   0  0  0  0  0  0  0  0  0  0  0  0
    8.1411  -16.4887   17.6603 C   0  0  0  0  0  0  0  0  0  0  0  0
    7.7565  -15.0897   18.0274 C   0  0  0  0  0  0  0  0  0  0  0  0
    8.1972  -14.7216   19.3889 C   0  0  0  0  0  0  0  0  0  0  0  0
    7.7747  -13.3845   19.9172 C   0  0  2  0  0  0  0  0  0  0  0  0
    8.2371  -12.2533   19.1707 N   0  0  0  0  0  0  0  0  0  0  0  0
    8.2914  -13.2944   21.3064 C   0  0  0  0  0  0  0  0  0  0  0  0
    9.5139  -13.1068   21.4733 O   0  0  0  0  0  0  0  0  0  0  0  0
    7.9478  -18.4511   14.4874 N   0  0  0  0  0  0  0  0  0  0  0  0
    6.9906  -13.8684   27.7227 C   0  0  0  0  0  0  0  0  0  0  0  0
    6.4455  -12.8380   26.9227 O   0  0  0  0  0  0  0  0  0  0  0  0
    5.2259  -12.5575   27.0724 C   0  0  0  0  0  0  0  0  0  0  0  0
    7.2223  -12.0729   25.9337 C   0  0  0  0  0  0  0  0  0  0  0  0
    6.9414  -12.3779   24.5045 C   0  0  2  0  0  0  0  0  0  0  0  0
    7.8770  -13.2879   23.7847 N   0  0  0  0  0  0  0  0  0  0  0  0
    7.3988  -13.4221   22.3802 C   0  0  0  0  0  0  0  0  0  0  0  0
    8.0058  -14.6649   24.2689 O   0  0  0  0  0  0  0  0  0  0  0  0
    7.3225  -15.6308   23.8120 N   0  0  0  0  0  0  0  0  0  0  0  0
    8.9278  -15.0292   25.3123 C   0  0  1  0  0  0  0  0  0  0  0  0
    9.5379  -16.3517   25.3613 C   0  0  0  0  0  0  0  0  0  0  0  0
   10.5958  -16.5210   24.2900 C   0  0  0  0  0  0  0  0  0  0  0  0
   10.0644  -17.4984   23.2661 C   0  0  0  0  0  0  0  0  0  0  0  0
   11.0544  -17.7164   22.1463 C   0  0  0  0  0  0  0  0  0  0  0  0
   10.5277  -18.7022   21.1386 N   0  0  0  0  0  0  0  0  0  0  0  0
   11.3976  -18.8857   20.0194 C   0  0  0  0  0  0  0  0  0  0  0  0
   10.0992  -16.6279   26.7108 O   0  0  0  0  0  0  0  0  0  0  0  0
   10.5675  -15.6622   27.3654 O   0  0  0  0  0  0  0  0  0  0  0  0
  1  2  1  0
  2  3  2  0
  4  5  1  0
  4  2  1  0
  6  5  1  0
  7  6  1  0
  8  9  1  6
  8  7  1  0
 10 11  2  0
 10  8  1  0
 12 13  1  0
 13 14  2  0
 15 16  1  0
 15 13  1  0
 17 16  1  6
 17 19  1  0
 17 18  1  0
 18 10  1  0
 19 21  1  0
 20 19  2  0
 21 22  1  0
 22 28  1  0
 23 24  1  0
 22 23  1  1
 24 25  1  0
 25 26  1  0
 26 27  1  0
 28 29  2  0
 28 30  1  0
M  END
$$$$
