RQK.pdb
     RDKit          3D

 30 29  0  0  1  0  0  0  0  0999 V2000
   15.6758  -21.0747   18.0551 N   0  0  0  0  0  0  0  0  0  0  0  0
   15.8306  -19.9463   17.1962 C   0  0  0  0  0  0  0  0  0  0  0  0
   16.9730  -19.3942   17.0577 N   0  0  0  0  0  0  0  0  0  0  0  0
   14.7159  -19.4438   16.4972 N   0  0  0  0  0  0  0  0  0  0  0  0
   13.4160  -19.2161   17.1619 C   0  0  0  0  0  0  0  0  0  0  0  0
   13.5310  -19.8214   18.5259 C   0  0  0  0  0  0  0  0  0  0  0  0
   12.3818  -19.4850   19.3918 C   0  0  0  0  0  0  0  0  0  0  0  0
   11.3288  -18.5808   18.8271 C   0  0  2  0  0  0  0  0  0  0  0  0
   11.6049  -18.0517   17.5254 N   0  0  0  0  0  0  0  0  0  0  0  0
   11.1750  -17.4575   19.7859 C   0  0  0  0  0  0  0  0  0  0  0  0
   11.7007  -16.3612   19.5042 O   0  0  0  0  0  0  0  0  0  0  0  0
   17.0829  -18.5425   16.4842 N   0  0  0  0  0  0  0  0  0  0  0  0
    6.1369  -15.0001   21.4044 C   0  0  0  0  0  0  0  0  0  0  0  0
    6.9569  -14.5427   22.4614 O   0  0  0  0  0  0  0  0  0  0  0  0
    6.4846  -13.6708   23.2395 C   0  0  0  0  0  0  0  0  0  0  0  0
    8.3234  -15.0317   22.7067 C   0  0  0  0  0  0  0  0  0  0  0  0
    8.8365  -16.0466   21.7470 C   0  0  1  0  0  0  0  0  0  0  0  0
   10.2317  -16.5390   21.9262 N   0  0  0  0  0  0  0  0  0  0  0  0
   10.4506  -17.6597   20.9694 C   0  0  0  0  0  0  0  0  0  0  0  0
   10.6057  -17.0852   23.2335 O   0  0  0  0  0  0  0  0  0  0  0  0
   10.1423  -18.1730   23.6924 N   0  0  0  0  0  0  0  0  0  0  0  0
   11.5374  -16.4201   24.1059 C   0  0  2  0  0  0  0  0  0  0  0  0
   11.2961  -16.3152   25.5393 C   0  0  0  0  0  0  0  0  0  0  0  0
   10.2978  -15.2219   25.8611 C   0  0  0  0  0  0  0  0  0  0  0  0
   10.0614  -15.2370   27.3545 C   0  0  0  0  0  0  0  0  0  0  0  0
   10.1843  -13.8526   27.9461 C   0  0  0  0  0  0  0  0  0  0  0  0
    9.9143  -13.8676   29.4264 N   0  0  0  0  0  0  0  0  0  0  0  0
    9.9737  -12.5709   30.0249 C   0  0  0  0  0  0  0  0  0  0  0  0
   10.8542  -17.6201   26.1001 O   0  0  0  0  0  0  0  0  0  0  0  0
    9.6462  -17.9421   25.9678 O   0  0  0  0  0  0  0  0  0  0  0  0
  1  2  1  0
  2  3  2  0
  4  5  1  0
  4  2  1  0
  6  5  1  0
  7  6  1  0
  8  9  1  6
  8  7  1  0
 10 11  2  0
 10  8  1  0
 12 13  1  0
 13 14  2  0
 15 16  1  0
 15 13  1  0
 17 16  1  6
 17 19  1  0
 17 18  1  0
 18 10  1  0
 19 21  1  0
 20 19  2  0
 21 22  1  0
 22 28  1  0
 23 24  1  0
 22 23  1  6
 24 25  1  0
 25 26  1  0
 26 27  1  0
 28 29  2  0
 28 30  1  0
M  END
$$$$
