RQK.pdb
     RDKit          3D

 30 29  0  0  1  0  0  0  0  0999 V2000
    8.7593  -12.8848   17.9743 N   0  0  0  0  0  0  0  0  0  0  0  0
    8.4487  -14.1589   17.4128 C   0  0  0  0  0  0  0  0  0  0  0  0
    8.9125  -14.4898   16.2707 N   0  0  0  0  0  0  0  0  0  0  0  0
    7.6284  -15.0542   18.1265 N   0  0  0  0  0  0  0  0  0  0  0  0
    7.9124  -15.4241   19.5286 C   0  0  0  0  0  0  0  0  0  0  0  0
    7.1012  -14.4975   20.3791 C   0  0  0  0  0  0  0  0  0  0  0  0
    5.8317  -15.1072   20.8264 C   0  0  0  0  0  0  0  0  0  0  0  0
    5.8206  -16.5852   21.0725 C   0  0  2  0  0  0  0  0  0  0  0  0
    4.6430  -17.2734   20.6360 N   0  0  0  0  0  0  0  0  0  0  0  0
    5.9789  -16.7731   22.5368 C   0  0  0  0  0  0  0  0  0  0  0  0
    5.2650  -16.0934   23.3024 O   0  0  0  0  0  0  0  0  0  0  0  0
    8.7571  -15.4374   15.8911 N   0  0  0  0  0  0  0  0  0  0  0  0
    7.3895  -22.3295   25.0411 C   0  0  0  0  0  0  0  0  0  0  0  0
    7.4918  -21.4421   26.1370 O   0  0  0  0  0  0  0  0  0  0  0  0
    7.7359  -21.9322   27.2722 C   0  0  0  0  0  0  0  0  0  0  0  0
    7.3366  -19.9826   26.0246 C   0  0  0  0  0  0  0  0  0  0  0  0
    7.0850  -19.4557   24.6558 C   0  0  1  0  0  0  0  0  0  0  0  0
    7.0383  -17.9775   24.4710 N   0  0  0  0  0  0  0  0  0  0  0  0
    6.9177  -17.6997   23.0124 C   0  0  0  0  0  0  0  0  0  0  0  0
    8.1970  -17.1930   24.9063 O   0  0  0  0  0  0  0  0  0  0  0  0
    9.1974  -16.9572   24.1633 N   0  0  0  0  0  0  0  0  0  0  0  0
    8.2882  -16.6251   26.2257 C   0  0  2  0  0  0  0  0  0  0  0  0
    9.4317  -15.8165   26.6287 C   0  0  0  0  0  0  0  0  0  0  0  0
    9.0713  -14.8495   27.7379 C   0  0  0  0  0  0  0  0  0  0  0  0
   10.1353  -14.9552   28.8070 C   0  0  0  0  0  0  0  0  0  0  0  0
    9.7791  -14.1325   30.0226 C   0  0  0  0  0  0  0  0  0  0  0  0
   10.8522  -14.2220   31.0738 N   0  0  0  0  0  0  0  0  0  0  0  0
   10.5582  -13.4616   32.2479 C   0  0  0  0  0  0  0  0  0  0  0  0
   10.5774  -16.6778   27.0260 O   0  0  0  0  0  0  0  0  0  0  0  0
   11.7176  -16.1523   27.0911 O   0  0  0  0  0  0  0  0  0  0  0  0
  1  2  1  0
  2  3  2  0
  4  5  1  0
  4  2  1  0
  6  5  1  0
  7  6  1  0
  8  9  1  1
  8  7  1  0
 10 11  2  0
 10  8  1  0
 12 13  1  0
 13 14  2  0
 15 16  1  0
 15 13  1  0
 17 16  1  1
 17 19  1  0
 17 18  1  0
 18 10  1  0
 19 21  1  0
 20 19  2  0
 21 22  1  0
 22 28  1  0
 23 24  1  0
 22 23  1  1
 24 25  1  0
 25 26  1  0
 26 27  1  0
 28 29  2  0
 28 30  1  0
M  END
$$$$
