RQK.pdb
     RDKit          3D

 30 29  0  0  1  0  0  0  0  0999 V2000
    1.4338  -19.6715   20.3972 N   0  0  0  0  0  0  0  0  0  0  0  0
    1.5961  -21.0742   20.6001 C   0  0  0  0  0  0  0  0  0  0  0  0
    0.6306  -21.8750   20.3645 N   0  0  0  0  0  0  0  0  0  0  0  0
    2.8299  -21.5741   21.0600 N   0  0  0  0  0  0  0  0  0  0  0  0
    3.9408  -20.6782   21.4429 C   0  0  0  0  0  0  0  0  0  0  0  0
    4.6031  -20.2626   20.1667 C   0  0  0  0  0  0  0  0  0  0  0  0
    5.7979  -19.4243   20.3974 C   0  0  0  0  0  0  0  0  0  0  0  0
    6.5506  -18.9431   19.1944 C   0  0  2  0  0  0  0  0  0  0  0  0
    7.0263  -19.9683   18.3148 N   0  0  0  0  0  0  0  0  0  0  0  0
    7.7074  -18.1625   19.7017 C   0  0  0  0  0  0  0  0  0  0  0  0
    8.7925  -18.7545   19.8739 O   0  0  0  0  0  0  0  0  0  0  0  0
    0.7244  -22.8862   20.5516 N   0  0  0  0  0  0  0  0  0  0  0  0
    8.4558  -12.1067   18.3274 C   0  0  0  0  0  0  0  0  0  0  0  0
    9.6753  -12.5520   18.8873 O   0  0  0  0  0  0  0  0  0  0  0  0
   10.6887  -11.8141   18.7563 C   0  0  0  0  0  0  0  0  0  0  0  0
    9.8246  -13.8211   19.6180 C   0  0  0  0  0  0  0  0  0  0  0  0
    8.5851  -14.6269   19.7880 C   0  0  2  0  0  0  0  0  0  0  0  0
    8.7039  -15.9709   20.4212 N   0  0  0  0  0  0  0  0  0  0  0  0
    7.5480  -16.7956   19.9705 C   0  0  0  0  0  0  0  0  0  0  0  0
    8.6697  -16.0473   21.8842 O   0  0  0  0  0  0  0  0  0  0  0  0
    7.6179  -16.3070   22.5438 N   0  0  0  0  0  0  0  0  0  0  0  0
    9.8406  -15.8301   22.6923 C   0  0  1  0  0  0  0  0  0  0  0  0
   10.2064  -16.7472   23.7643 C   0  0  0  0  0  0  0  0  0  0  0  0
   10.2453  -18.1836   23.2841 C   0  0  0  0  0  0  0  0  0  0  0  0
   10.6941  -19.0460   24.4422 C   0  0  0  0  0  0  0  0  0  0  0  0
   10.6983  -20.5100   24.0702 C   0  0  0  0  0  0  0  0  0  0  0  0
   11.1408  -21.3641   25.2274 N   0  0  0  0  0  0  0  0  0  0  0  0
   11.0305  -22.7658   24.9699 C   0  0  0  0  0  0  0  0  0  0  0  0
   11.5040  -16.3566   24.3775 O   0  0  0  0  0  0  0  0  0  0  0  0
   12.4393  -16.0101   23.6122 O   0  0  0  0  0  0  0  0  0  0  0  0
  1  2  1  0
  2  3  2  0
  4  5  1  0
  4  2  1  0
  6  5  1  0
  7  6  1  0
  8  9  1  1
  8  7  1  0
 10 11  2  0
 10  8  1  0
 12 13  1  0
 13 14  2  0
 15 16  1  0
 15 13  1  0
 17 16  1  6
 17 19  1  0
 17 18  1  0
 18 10  1  0
 19 21  1  0
 20 19  2  0
 21 22  1  0
 22 28  1  0
 23 24  1  0
 22 23  1  1
 24 25  1  0
 25 26  1  0
 26 27  1  0
 28 29  2  0
 28 30  1  0
M  END
$$$$
