IQG.pdb
     RDKit          3D

 22 21  0  0  1  0  0  0  0  0999 V2000
   17.2153  -13.6950  -17.3510 C   0  0  0  0  0  0  0  0  0  0  0  0
   18.6203  -13.2088  -17.4524 C   0  0  0  0  0  0  0  0  0  0  0  0
   18.9401  -11.9959  -16.6488 C   0  0  2  0  0  0  0  0  0  0  0  0
   18.0593  -10.8596  -17.1645 C   0  0  0  0  0  0  0  0  0  0  0  0
   20.4009  -11.5979  -16.6716 C   0  0  2  0  0  0  0  0  0  0  0  0
   21.3118  -12.6274  -16.4402 N   0  0  0  0  0  0  0  0  0  0  0  0
   20.5227  -10.4259  -15.7418 C   0  0  0  0  0  0  0  0  0  0  0  0
   20.4765  -10.5736  -14.4936 O   0  0  0  0  0  0  0  0  0  0  0  0
   24.5198   -5.9030  -16.1838 N   0  0  0  0  0  0  0  0  0  0  0  0
   23.8071   -5.5305  -15.0068 C   0  0  0  0  0  0  0  0  0  0  0  0
   24.2832   -4.5887  -14.3246 O   0  0  0  0  0  0  0  0  0  0  0  0
   22.5570   -6.2088  -14.5847 C   0  0  0  0  0  0  0  0  0  0  0  0
   22.2316   -7.2783  -15.5659 C   0  0  0  0  0  0  0  0  0  0  0  0
   20.9377   -7.9940  -15.2795 C   0  0  2  0  0  0  0  0  0  0  0  0
   20.6964   -9.0835  -16.2008 N   0  0  0  0  0  0  0  0  0  0  0  0
   19.7734   -7.1016  -15.2739 C   0  0  0  0  0  0  0  0  0  0  0  0
   19.6616   -6.0973  -14.5217 O   0  0  0  0  0  0  0  0  0  0  0  0
   18.6997   -7.3691  -16.1609 N   0  0  0  0  0  0  0  0  0  0  0  0
   17.5293   -6.5364  -16.2652 C   0  0  0  0  0  0  0  0  0  0  0  0
   16.7177   -6.5098  -15.0501 C   0  0  0  0  0  0  0  0  0  0  0  0
   15.5369   -5.7934  -15.0288 O   0  0  0  0  0  0  0  0  0  0  0  0
   17.0807   -7.1300  -14.0256 O   0  0  0  0  0  0  0  0  0  0  0  0
  2  3  1  0
  2  1  1  0
  3  5  1  0
  3  4  1  6
  5  7  1  0
  5  6  1  1
  7  8  2  0
  9 10  1  0
 10 12  1  0
 10 11  2  0
 12 13  1  0
 14 13  1  6
 15 14  1  0
 15  7  1  0
 16 17  2  0
 16 14  1  0
 18 16  1  0
 19 20  1  0
 19 18  1  0
 20 21  1  0
 22 20  2  0
M  END
$$$$
