IQG.pdb
     RDKit          3D

 22 21  0  0  1  0  0  0  0  0999 V2000
   30.9448  -20.1738  -13.3522 C   0  0  0  0  0  0  0  0  0  0  0  0
   29.6913  -19.5793  -13.8962 C   0  0  0  0  0  0  0  0  0  0  0  0
   28.5309  -20.5079  -13.9973 C   0  0  2  0  0  0  0  0  0  0  0  0
   28.9587  -21.6813  -14.8765 C   0  0  0  0  0  0  0  0  0  0  0  0
   27.2644  -19.8705  -14.5287 C   0  0  2  0  0  0  0  0  0  0  0  0
   27.1483  -18.4961  -14.3267 N   0  0  0  0  0  0  0  0  0  0  0  0
   26.1309  -20.6875  -13.9803 C   0  0  0  0  0  0  0  0  0  0  0  0
   25.9957  -21.9019  -14.2788 O   0  0  0  0  0  0  0  0  0  0  0  0
   23.9044  -21.1027   -8.3693 N   0  0  0  0  0  0  0  0  0  0  0  0
   25.1151  -20.6698   -8.9849 C   0  0  0  0  0  0  0  0  0  0  0  0
   26.0504  -20.3198   -8.2222 O   0  0  0  0  0  0  0  0  0  0  0  0
   25.2879  -20.6254  -10.4577 C   0  0  0  0  0  0  0  0  0  0  0  0
   24.0167  -21.0436  -11.1070 C   0  0  0  0  0  0  0  0  0  0  0  0
   24.0455  -20.9615  -12.6107 C   0  0  2  0  0  0  0  0  0  0  0  0
   25.1431  -20.1532  -13.0963 N   0  0  0  0  0  0  0  0  0  0  0  0
   22.7907  -20.4648  -13.1858 C   0  0  0  0  0  0  0  0  0  0  0  0
   22.3546  -19.2951  -13.0161 O   0  0  0  0  0  0  0  0  0  0  0  0
   22.0082  -21.3383  -13.9831 N   0  0  0  0  0  0  0  0  0  0  0  0
   20.7045  -21.8128  -13.5966 C   0  0  0  0  0  0  0  0  0  0  0  0
   19.6363  -20.8403  -13.8189 C   0  0  0  0  0  0  0  0  0  0  0  0
   18.6107  -21.1357  -14.6957 O   0  0  0  0  0  0  0  0  0  0  0  0
   19.6397  -19.7401  -13.2227 O   0  0  0  0  0  0  0  0  0  0  0  0
  2  3  1  0
  2  1  1  0
  3  5  1  0
  3  4  1  6
  5  7  1  0
  5  6  1  1
  7  8  2  0
  9 10  1  0
 10 12  1  0
 10 11  2  0
 12 13  1  0
 14 13  1  1
 15 14  1  0
 15  7  1  0
 16 17  2  0
 16 14  1  0
 18 16  1  0
 19 20  1  0
 19 18  1  0
 20 21  1  0
 22 20  2  0
M  END
$$$$
