IQG.pdb
     RDKit          3D

 22 21  0  0  1  0  0  0  0  0999 V2000
   28.3534  -19.0971   -6.5466 C   0  0  0  0  0  0  0  0  0  0  0  0
   28.3879  -20.2203   -7.5254 C   0  0  0  0  0  0  0  0  0  0  0  0
   27.3765  -20.1525   -8.6170 C   0  0  2  0  0  0  0  0  0  0  0  0
   25.9988  -20.2997   -7.9745 C   0  0  0  0  0  0  0  0  0  0  0  0
   27.5713  -21.1775   -9.7144 C   0  0  2  0  0  0  0  0  0  0  0  0
   28.8707  -21.2996  -10.2042 N   0  0  0  0  0  0  0  0  0  0  0  0
   26.5311  -20.8718  -10.7525 C   0  0  0  0  0  0  0  0  0  0  0  0
   26.6271  -19.8628  -11.4972 O   0  0  0  0  0  0  0  0  0  0  0  0
   24.4344  -24.7867  -14.6289 N   0  0  0  0  0  0  0  0  0  0  0  0
   25.2019  -23.6491  -15.0149 C   0  0  0  0  0  0  0  0  0  0  0  0
   25.8055  -23.7139  -16.1151 O   0  0  0  0  0  0  0  0  0  0  0  0
   25.2994  -22.4314  -14.1732 C   0  0  0  0  0  0  0  0  0  0  0  0
   24.3671  -22.5630  -13.0217 C   0  0  0  0  0  0  0  0  0  0  0  0
   24.4482  -21.4241  -12.0395 C   0  0  2  0  0  0  0  0  0  0  0  0
   25.3790  -21.6907  -10.9641 N   0  0  0  0  0  0  0  0  0  0  0  0
   23.1465  -21.0591  -11.4700 C   0  0  0  0  0  0  0  0  0  0  0  0
   22.8187  -21.2728  -10.2726 O   0  0  0  0  0  0  0  0  0  0  0  0
   22.1869  -20.4272  -12.3012 N   0  0  0  0  0  0  0  0  0  0  0  0
   20.8682  -20.0592  -11.8543 C   0  0  0  0  0  0  0  0  0  0  0  0
   20.0307  -19.4858  -12.9059 C   0  0  0  0  0  0  0  0  0  0  0  0
   18.8989  -18.7697  -12.5682 O   0  0  0  0  0  0  0  0  0  0  0  0
   20.3276  -19.6362  -14.1123 O   0  0  0  0  0  0  0  0  0  0  0  0
  2  3  1  0
  2  1  1  0
  3  5  1  0
  3  4  1  1
  5  7  1  0
  5  6  1  6
  7  8  2  0
  9 10  1  0
 10 12  1  0
 10 11  2  0
 12 13  1  0
 14 13  1  6
 15 14  1  0
 15  7  1  0
 16 17  2  0
 16 14  1  0
 18 16  1  0
 19 20  1  0
 19 18  1  0
 20 21  1  0
 22 20  2  0
M  END
$$$$
