IQG.pdb
     RDKit          3D

 22 21  0  0  1  0  0  0  0  0999 V2000
   23.6833  -12.0668  -14.2653 C   0  0  0  0  0  0  0  0  0  0  0  0
   23.5455  -11.7976  -15.7245 C   0  0  0  0  0  0  0  0  0  0  0  0
   22.8286  -10.5414  -16.0812 C   0  0  2  0  0  0  0  0  0  0  0  0
   23.5852   -9.3830  -15.4343 C   0  0  0  0  0  0  0  0  0  0  0  0
   21.3680  -10.5202  -15.6824 C   0  0  2  0  0  0  0  0  0  0  0  0
   20.6165  -11.6249  -16.0799 N   0  0  0  0  0  0  0  0  0  0  0  0
   20.8348   -9.1947  -16.1428 C   0  0  0  0  0  0  0  0  0  0  0  0
   20.8095   -8.8878  -17.3624 O   0  0  0  0  0  0  0  0  0  0  0  0
   15.6279   -6.9818  -15.1344 N   0  0  0  0  0  0  0  0  0  0  0  0
   16.1249   -7.2187  -16.4493 C   0  0  0  0  0  0  0  0  0  0  0  0
   15.2878   -7.5530  -17.3248 O   0  0  0  0  0  0  0  0  0  0  0  0
   17.5615   -7.0834  -16.7939 C   0  0  0  0  0  0  0  0  0  0  0  0
   18.3334   -6.8101  -15.5522 C   0  0  0  0  0  0  0  0  0  0  0  0
   19.8247   -6.9358  -15.7224 C   0  0  2  0  0  0  0  0  0  0  0  0
   20.3276   -8.2057  -15.2444 N   0  0  0  0  0  0  0  0  0  0  0  0
   20.5726   -5.8494  -15.0803 C   0  0  0  0  0  0  0  0  0  0  0  0
   20.8108   -5.7952  -13.8445 O   0  0  0  0  0  0  0  0  0  0  0  0
   21.0647   -4.7880  -15.8818 N   0  0  0  0  0  0  0  0  0  0  0  0
   21.7846   -3.6594  -15.3507 C   0  0  0  0  0  0  0  0  0  0  0  0
   20.9210   -2.6310  -14.7739 C   0  0  0  0  0  0  0  0  0  0  0  0
   21.4802   -1.4925  -14.2272 O   0  0  0  0  0  0  0  0  0  0  0  0
   19.6773   -2.7700  -14.7693 O   0  0  0  0  0  0  0  0  0  0  0  0
  2  3  1  0
  2  1  1  0
  3  5  1  0
  3  4  1  1
  5  7  1  0
  5  6  1  6
  7  8  2  0
  9 10  1  0
 10 12  1  0
 10 11  2  0
 12 13  1  0
 14 13  1  1
 15 14  1  0
 15  7  1  0
 16 17  2  0
 16 14  1  0
 18 16  1  0
 19 20  1  0
 19 18  1  0
 20 21  1  0
 22 20  2  0
M  END
$$$$
