IQG.pdb
     RDKit          3D

 22 21  0  0  1  0  0  0  0  0999 V2000
   27.5070  -15.5810  -15.5286 C   0  0  0  0  0  0  0  0  0  0  0  0
   26.0311  -15.7388  -15.3972 C   0  0  0  0  0  0  0  0  0  0  0  0
   25.2134  -14.6295  -15.9629 C   0  0  2  0  0  0  0  0  0  0  0  0
   25.6098  -13.3491  -15.2307 C   0  0  0  0  0  0  0  0  0  0  0  0
   23.7177  -14.8530  -15.8858 C   0  0  2  0  0  0  0  0  0  0  0  0
   23.2647  -16.0824  -16.3614 N   0  0  0  0  0  0  0  0  0  0  0  0
   23.0886  -13.6542  -16.5340 C   0  0  0  0  0  0  0  0  0  0  0  0
   23.2164  -13.4343  -17.7659 O   0  0  0  0  0  0  0  0  0  0  0  0
   17.6296  -12.0879  -17.3232 N   0  0  0  0  0  0  0  0  0  0  0  0
   18.5604  -13.0114  -17.8826 C   0  0  0  0  0  0  0  0  0  0  0  0
   18.0907  -13.9393  -18.5879 O   0  0  0  0  0  0  0  0  0  0  0  0
   20.0226  -12.9035  -17.6569 C   0  0  0  0  0  0  0  0  0  0  0  0
   20.2941  -11.7173  -16.8014 C   0  0  0  0  0  0  0  0  0  0  0  0
   21.7496  -11.5325  -16.4610 C   0  0  2  0  0  0  0  0  0  0  0  0
   22.3141  -12.6953  -15.8106 N   0  0  0  0  0  0  0  0  0  0  0  0
   22.0031  -10.3478  -15.6339 C   0  0  0  0  0  0  0  0  0  0  0  0
   21.9714  -10.3503  -14.3746 O   0  0  0  0  0  0  0  0  0  0  0  0
   22.3034   -9.1172  -16.2717 N   0  0  0  0  0  0  0  0  0  0  0  0
   22.6713   -7.9217  -15.5580 C   0  0  0  0  0  0  0  0  0  0  0  0
   21.5363   -7.2239  -14.9574 C   0  0  0  0  0  0  0  0  0  0  0  0
   20.2557   -7.7053  -15.1479 O   0  0  0  0  0  0  0  0  0  0  0  0
   21.7111   -6.1925  -14.2705 O   0  0  0  0  0  0  0  0  0  0  0  0
  2  3  1  0
  2  1  1  0
  3  5  1  0
  3  4  1  1
  5  7  1  0
  5  6  1  6
  7  8  2  0
  9 10  1  0
 10 12  1  0
 10 11  2  0
 12 13  1  0
 14 13  1  1
 15 14  1  0
 15  7  1  0
 16 17  2  0
 16 14  1  0
 18 16  1  0
 19 20  1  0
 19 18  1  0
 20 21  1  0
 22 20  2  0
M  END
$$$$
