IQG.pdb
     RDKit          3D

 22 21  0  0  1  0  0  0  0  0999 V2000
   25.9387  -13.5720  -19.5798 C   0  0  0  0  0  0  0  0  0  0  0  0
   25.9470  -12.8758  -18.2622 C   0  0  0  0  0  0  0  0  0  0  0  0
   24.9008  -11.8308  -18.0811 C   0  0  2  0  0  0  0  0  0  0  0  0
   25.0590  -10.8229  -19.2177 C   0  0  0  0  0  0  0  0  0  0  0  0
   24.9373  -11.1361  -16.7362 C   0  0  2  0  0  0  0  0  0  0  0  0
   25.1030  -11.9680  -15.6301 N   0  0  0  0  0  0  0  0  0  0  0  0
   23.7184  -10.2612  -16.6917 C   0  0  0  0  0  0  0  0  0  0  0  0
   23.4124   -9.5163  -17.6579 O   0  0  0  0  0  0  0  0  0  0  0  0
   18.0491  -11.5058  -14.9059 N   0  0  0  0  0  0  0  0  0  0  0  0
   18.8423  -11.8648  -16.0347 C   0  0  0  0  0  0  0  0  0  0  0  0
   18.4217  -12.8068  -16.7521 O   0  0  0  0  0  0  0  0  0  0  0  0
   20.1113  -11.1728  -16.3687 C   0  0  0  0  0  0  0  0  0  0  0  0
   20.3950  -10.1516  -15.3250 C   0  0  0  0  0  0  0  0  0  0  0  0
   21.6597   -9.3699  -15.5659 C   0  0  2  0  0  0  0  0  0  0  0  0
   22.8354  -10.2136  -15.5689 N   0  0  0  0  0  0  0  0  0  0  0  0
   21.8542   -8.2768  -14.6072 C   0  0  0  0  0  0  0  0  0  0  0  0
   22.5645   -8.3692  -13.5709 O   0  0  0  0  0  0  0  0  0  0  0  0
   21.2126   -7.0344  -14.8439 N   0  0  0  0  0  0  0  0  0  0  0  0
   21.3345   -5.8978  -13.9678 C   0  0  0  0  0  0  0  0  0  0  0  0
   22.4761   -5.0389  -14.2762 C   0  0  0  0  0  0  0  0  0  0  0  0
   22.6703   -3.8726  -13.5621 O   0  0  0  0  0  0  0  0  0  0  0  0
   23.2822   -5.3483  -15.1821 O   0  0  0  0  0  0  0  0  0  0  0  0
  2  3  1  0
  2  1  1  0
  3  5  1  0
  3  4  1  6
  5  7  1  0
  5  6  1  1
  7  8  2  0
  9 10  1  0
 10 12  1  0
 10 11  2  0
 12 13  1  0
 14 13  1  1
 15 14  1  0
 15  7  1  0
 16 17  2  0
 16 14  1  0
 18 16  1  0
 19 20  1  0
 19 18  1  0
 20 21  1  0
 22 20  2  0
M  END
$$$$
