IQG.pdb
     RDKit          3D

 22 21  0  0  1  0  0  0  0  0999 V2000
   26.9565  -15.9185  -16.6879 C   0  0  0  0  0  0  0  0  0  0  0  0
   25.9650  -15.3302  -15.7438 C   0  0  0  0  0  0  0  0  0  0  0  0
   25.5661  -13.9229  -16.0257 C   0  0  2  0  0  0  0  0  0  0  0  0
   26.8412  -13.0826  -16.0549 C   0  0  0  0  0  0  0  0  0  0  0  0
   24.5649  -13.3485  -15.0456 C   0  0  2  0  0  0  0  0  0  0  0  0
   23.4900  -14.1758  -14.7243 N   0  0  0  0  0  0  0  0  0  0  0  0
   24.1851  -12.0011  -15.5873 C   0  0  0  0  0  0  0  0  0  0  0  0
   25.0586  -11.1492  -15.8930 O   0  0  0  0  0  0  0  0  0  0  0  0
   20.2554  -12.7942  -17.9649 N   0  0  0  0  0  0  0  0  0  0  0  0
   21.3022  -12.3754  -18.8373 C   0  0  0  0  0  0  0  0  0  0  0  0
   21.6222  -13.1614  -19.7640 O   0  0  0  0  0  0  0  0  0  0  0  0
   21.9980  -11.0748  -18.6791 C   0  0  0  0  0  0  0  0  0  0  0  0
   21.4872  -10.3981  -17.4570 C   0  0  0  0  0  0  0  0  0  0  0  0
   22.4992  -10.3033  -16.3456 C   0  0  2  0  0  0  0  0  0  0  0  0
   22.8290  -11.5982  -15.7903 N   0  0  0  0  0  0  0  0  0  0  0  0
   22.0839   -9.4064  -15.2616 C   0  0  0  0  0  0  0  0  0  0  0  0
   21.5061   -9.7941  -14.2114 O   0  0  0  0  0  0  0  0  0  0  0  0
   22.3392   -8.0169  -15.3849 N   0  0  0  0  0  0  0  0  0  0  0  0
   21.9589   -7.0479  -14.3896 C   0  0  0  0  0  0  0  0  0  0  0  0
   22.4013   -5.6887  -14.6945 C   0  0  0  0  0  0  0  0  0  0  0  0
   22.1737   -4.6729  -13.7867 O   0  0  0  0  0  0  0  0  0  0  0  0
   22.9854   -5.4334  -15.7714 O   0  0  0  0  0  0  0  0  0  0  0  0
  2  3  1  0
  2  1  1  0
  3  5  1  0
  3  4  1  1
  5  7  1  0
  5  6  1  6
  7  8  2  0
  9 10  1  0
 10 12  1  0
 10 11  2  0
 12 13  1  0
 14 13  1  6
 15 14  1  0
 15  7  1  0
 16 17  2  0
 16 14  1  0
 18 16  1  0
 19 20  1  0
 19 18  1  0
 20 21  1  0
 22 20  2  0
M  END
$$$$
