IQG.pdb
     RDKit          3D

 22 21  0  0  1  0  0  0  0  0999 V2000
   27.9303  -19.3407   -5.9926 C   0  0  0  0  0  0  0  0  0  0  0  0
   28.0722  -20.2478   -7.1663 C   0  0  0  0  0  0  0  0  0  0  0  0
   27.0818  -20.0429   -8.2601 C   0  0  2  0  0  0  0  0  0  0  0  0
   25.6894  -20.1967   -7.6517 C   0  0  0  0  0  0  0  0  0  0  0  0
   27.2575  -20.9699   -9.4444 C   0  0  2  0  0  0  0  0  0  0  0  0
   28.5687  -21.1514   -9.8811 N   0  0  0  0  0  0  0  0  0  0  0  0
   26.3038  -20.4805  -10.4952 C   0  0  0  0  0  0  0  0  0  0  0  0
   26.3761  -19.3100  -10.9499 O   0  0  0  0  0  0  0  0  0  0  0  0
   25.1957  -20.2875  -15.6592 N   0  0  0  0  0  0  0  0  0  0  0  0
   26.2154  -21.0650  -15.0364 C   0  0  0  0  0  0  0  0  0  0  0  0
   27.3471  -21.0656  -15.5826 O   0  0  0  0  0  0  0  0  0  0  0  0
   25.9763  -21.8470  -13.7987 C   0  0  0  0  0  0  0  0  0  0  0  0
   24.5661  -21.6518  -13.3676 C   0  0  0  0  0  0  0  0  0  0  0  0
   24.4206  -20.8222  -12.1190 C   0  0  2  0  0  0  0  0  0  0  0  0
   25.2651  -21.2950  -11.0432 N   0  0  0  0  0  0  0  0  0  0  0  0
   23.0362  -20.7355  -11.6416 C   0  0  0  0  0  0  0  0  0  0  0  0
   22.6209  -21.2856  -10.5871 O   0  0  0  0  0  0  0  0  0  0  0  0
   22.0946  -19.9929  -12.3986 N   0  0  0  0  0  0  0  0  0  0  0  0
   20.7180  -19.8254  -12.0102 C   0  0  0  0  0  0  0  0  0  0  0  0
   19.8990  -21.0170  -12.2229 C   0  0  0  0  0  0  0  0  0  0  0  0
   18.6197  -21.0721  -11.7050 O   0  0  0  0  0  0  0  0  0  0  0  0
   20.3440  -21.9910  -12.8706 O   0  0  0  0  0  0  0  0  0  0  0  0
  2  3  1  0
  2  1  1  0
  3  5  1  0
  3  4  1  1
  5  7  1  0
  5  6  1  6
  7  8  2  0
  9 10  1  0
 10 12  1  0
 10 11  2  0
 12 13  1  0
 14 13  1  6
 15 14  1  0
 15  7  1  0
 16 17  2  0
 16 14  1  0
 18 16  1  0
 19 20  1  0
 19 18  1  0
 20 21  1  0
 22 20  2  0
M  END
$$$$
