IQG.pdb
     RDKit          3D

 22 21  0  0  1  0  0  0  0  0999 V2000
   26.2714  -16.3767  -19.5885 C   0  0  0  0  0  0  0  0  0  0  0  0
   27.1354  -16.9914  -18.5415 C   0  0  0  0  0  0  0  0  0  0  0  0
   26.4539  -17.9507  -17.6279 C   0  0  2  0  0  0  0  0  0  0  0  0
   25.3048  -17.2036  -16.9540 C   0  0  0  0  0  0  0  0  0  0  0  0
   27.3628  -18.5846  -16.5959 C   0  0  2  0  0  0  0  0  0  0  0  0
   28.5085  -19.2011  -17.0963 N   0  0  0  0  0  0  0  0  0  0  0  0
   26.4833  -19.4687  -15.7606 C   0  0  0  0  0  0  0  0  0  0  0  0
   26.1374  -20.6108  -16.1583 O   0  0  0  0  0  0  0  0  0  0  0  0
   24.8685  -20.6562   -8.8833 N   0  0  0  0  0  0  0  0  0  0  0  0
   25.5788  -21.0656  -10.0495 C   0  0  0  0  0  0  0  0  0  0  0  0
   26.7634  -21.4533   -9.8902 O   0  0  0  0  0  0  0  0  0  0  0  0
   24.9690  -21.0442  -11.4018 C   0  0  0  0  0  0  0  0  0  0  0  0
   25.7760  -20.1580  -12.2826 C   0  0  0  0  0  0  0  0  0  0  0  0
   25.2031  -19.9888  -13.6653 C   0  0  2  0  0  0  0  0  0  0  0  0
   25.9858  -19.0825  -14.4777 N   0  0  0  0  0  0  0  0  0  0  0  0
   23.8048  -19.5454  -13.6604 C   0  0  0  0  0  0  0  0  0  0  0  0
   23.4388  -18.3786  -13.3577 O   0  0  0  0  0  0  0  0  0  0  0  0
   22.7903  -20.4709  -14.0147 N   0  0  0  0  0  0  0  0  0  0  0  0
   21.3840  -20.1639  -13.9692 C   0  0  0  0  0  0  0  0  0  0  0  0
   20.6877  -20.7681  -12.8352 C   0  0  0  0  0  0  0  0  0  0  0  0
   19.3544  -20.4813  -12.6163 O   0  0  0  0  0  0  0  0  0  0  0  0
   21.2866  -21.5445  -12.0576 O   0  0  0  0  0  0  0  0  0  0  0  0
  2  3  1  0
  2  1  1  0
  3  5  1  0
  3  4  1  1
  5  7  1  0
  5  6  1  6
  7  8  2  0
  9 10  1  0
 10 12  1  0
 10 11  2  0
 12 13  1  0
 14 13  1  1
 15 14  1  0
 15  7  1  0
 16 17  2  0
 16 14  1  0
 18 16  1  0
 19 20  1  0
 19 18  1  0
 20 21  1  0
 22 20  2  0
M  END
$$$$
