PES.pdb
     RDKit          3D

 23 23  0  0  1  0  0  0  0  0999 V2000
   24.0651  -11.8489  -15.4516 N   0  0  0  0  0  0  0  0  0  0  0  0
   23.8757  -13.2239  -15.0939 C   0  0  0  0  0  0  0  0  0  0  0  0
   23.5147  -13.9750  -16.3466 C   0  0  0  0  0  0  0  0  0  0  0  0
   22.9753  -12.9059  -17.2436 C   0  0  0  0  0  0  0  0  0  0  0  0
   23.7305  -11.6735  -16.8283 C   0  0  1  0  0  0  0  0  0  0  0  0
   22.8535  -10.4776  -16.9559 C   0  0  0  0  0  0  0  0  0  0  0  0
   22.5559  -10.0154  -18.0860 O   0  0  0  0  0  0  0  0  0  0  0  0
   22.3225   -9.8177  -15.7870 N   0  0  0  0  0  0  0  0  0  0  0  0
   21.4432   -8.6927  -15.9558 C   0  0  1  0  0  0  0  0  0  0  0  0
   20.0699   -8.9991  -15.4947 C   0  0  0  0  0  0  0  0  0  0  0  0
   19.0466   -7.9386  -15.5464 C   0  0  0  0  0  0  0  0  0  0  0  0
   17.7203   -8.3139  -15.0455 C   0  0  0  0  0  0  0  0  0  0  0  0
   17.5330   -9.4844  -14.6006 O   0  0  0  0  0  0  0  0  0  0  0  0
   22.0040   -7.4511  -15.3672 C   0  0  0  0  0  0  0  0  0  0  0  0
   22.5520   -7.4789  -14.2429 O   0  0  0  0  0  0  0  0  0  0  0  0
   16.6403   -7.4497  -15.0289 O   0  0  0  0  0  0  0  0  0  0  0  0
   22.9722   -2.7447  -15.9457 O   0  0  0  0  0  0  0  0  0  0  0  0
   22.4543   -3.9151  -16.4798 C   0  0  0  0  0  0  0  0  0  0  0  0
   22.5123   -5.0279  -15.4538 C   0  0  2  0  0  0  0  0  0  0  0  0
   21.9435   -6.2047  -16.0397 N   0  0  0  0  0  0  0  0  0  0  0  0
   21.7636   -4.6305  -14.2241 C   0  0  0  0  0  0  0  0  0  0  0  0
   20.3917   -4.7417  -14.1641 O   0  0  0  0  0  0  0  0  0  0  0  0
   22.3947   -4.1904  -13.2358 O   0  0  0  0  0  0  0  0  0  0  0  0
  1  5  1  0
  1  2  1  0
  2  3  1  0
  4  3  1  0
  5  6  1  1
  5  4  1  0
  6  8  1  0
  6  7  2  0
  8  9  1  0
  9 14  1  0
  9 10  1  1
 11 10  1  0
 12 16  1  0
 12 11  1  0
 13 12  2  0
 14 15  2  0
 14 20  1  0
 17 18  1  0
 19 18  1  6
 19 21  1  0
 20 19  1  0
 21 22  1  0
 23 21  2  0
M  END
$$$$
