PES.pdb
     RDKit          3D

 23 23  0  0  1  0  0  0  0  0999 V2000
   24.8207  -11.8267  -15.9099 N   0  0  0  0  0  0  0  0  0  0  0  0
   24.8450  -13.2562  -15.8075 C   0  0  0  0  0  0  0  0  0  0  0  0
   24.7366  -13.8147  -17.2004 C   0  0  0  0  0  0  0  0  0  0  0  0
   24.1006  -12.6990  -17.9682 C   0  0  0  0  0  0  0  0  0  0  0  0
   24.5863  -11.4592  -17.2693 C   0  0  1  0  0  0  0  0  0  0  0  0
   23.5276  -10.4135  -17.3033 C   0  0  0  0  0  0  0  0  0  0  0  0
   23.1550   -9.9101  -18.3929 O   0  0  0  0  0  0  0  0  0  0  0  0
   22.9017   -9.9502  -16.0878 N   0  0  0  0  0  0  0  0  0  0  0  0
   21.8848   -8.9367  -16.1652 C   0  0  1  0  0  0  0  0  0  0  0  0
   20.5528   -9.4708  -15.8003 C   0  0  0  0  0  0  0  0  0  0  0  0
   19.9583  -10.5343  -16.6311 C   0  0  0  0  0  0  0  0  0  0  0  0
   18.6258  -10.9883  -16.2199 C   0  0  0  0  0  0  0  0  0  0  0  0
   18.0685  -10.4508  -15.2181 O   0  0  0  0  0  0  0  0  0  0  0  0
   22.2584   -7.7110  -15.4165 C   0  0  0  0  0  0  0  0  0  0  0  0
   22.8089   -7.8004  -14.2966 O   0  0  0  0  0  0  0  0  0  0  0  0
   17.9270  -11.9876  -16.8730 O   0  0  0  0  0  0  0  0  0  0  0  0
   23.9070   -4.5794  -16.9113 O   0  0  0  0  0  0  0  0  0  0  0  0
   22.8000   -4.1733  -16.1814 C   0  0  0  0  0  0  0  0  0  0  0  0
   22.4048   -5.2483  -15.1902 C   0  0  2  0  0  0  0  0  0  0  0  0
   22.0120   -6.4119  -15.9273 N   0  0  0  0  0  0  0  0  0  0  0  0
   21.2870   -4.7629  -14.3267 C   0  0  0  0  0  0  0  0  0  0  0  0
   21.5255   -3.9016  -13.2783 O   0  0  0  0  0  0  0  0  0  0  0  0
   20.1179   -5.1461  -14.5618 O   0  0  0  0  0  0  0  0  0  0  0  0
  1  5  1  0
  1  2  1  0
  2  3  1  0
  4  3  1  0
  5  6  1  1
  5  4  1  0
  6  8  1  0
  6  7  2  0
  8  9  1  0
  9 14  1  0
  9 10  1  1
 11 10  1  0
 12 16  1  0
 12 11  1  0
 13 12  2  0
 14 15  2  0
 14 20  1  0
 17 18  1  0
 19 18  1  6
 19 21  1  0
 20 19  1  0
 21 22  1  0
 23 21  2  0
M  END
$$$$
