PES.pdb
     RDKit          3D

 23 23  0  0  1  0  0  0  0  0999 V2000
   19.0432  -12.3627  -14.9745 N   0  0  0  0  0  0  0  0  0  0  0  0
   18.1729  -13.4585  -15.2848 C   0  0  0  0  0  0  0  0  0  0  0  0
   18.3272  -13.7621  -16.7503 C   0  0  0  0  0  0  0  0  0  0  0  0
   18.8524  -12.4788  -17.3125 C   0  0  0  0  0  0  0  0  0  0  0  0
   19.6441  -11.8872  -16.1791 C   0  0  1  0  0  0  0  0  0  0  0  0
   19.5373  -10.4029  -16.2100 C   0  0  0  0  0  0  0  0  0  0  0  0
   19.9940   -9.7449  -17.1783 O   0  0  0  0  0  0  0  0  0  0  0  0
   18.9075   -9.6807  -15.1303 N   0  0  0  0  0  0  0  0  0  0  0  0
   18.8376   -8.2461  -15.1934 C   0  0  1  0  0  0  0  0  0  0  0  0
   17.5052   -7.7458  -14.7848 C   0  0  0  0  0  0  0  0  0  0  0  0
   16.3283   -8.1042  -15.5979 C   0  0  0  0  0  0  0  0  0  0  0  0
   15.0462   -7.5723  -15.1244 C   0  0  0  0  0  0  0  0  0  0  0  0
   14.2261   -7.0925  -15.9611 O   0  0  0  0  0  0  0  0  0  0  0  0
   19.9616   -7.5989  -14.4720 C   0  0  0  0  0  0  0  0  0  0  0  0
   20.2744   -7.9799  -13.3221 O   0  0  0  0  0  0  0  0  0  0  0  0
   14.6711   -7.5630  -13.7930 O   0  0  0  0  0  0  0  0  0  0  0  0
   23.3850   -7.0075  -15.8436 O   0  0  0  0  0  0  0  0  0  0  0  0
   22.9558   -5.7836  -15.3526 C   0  0  0  0  0  0  0  0  0  0  0  0
   21.8378   -5.9857  -14.3507 C   0  0  2  0  0  0  0  0  0  0  0  0
   20.7139   -6.5418  -15.0429 N   0  0  0  0  0  0  0  0  0  0  0  0
   21.4793   -4.6833  -13.7136 C   0  0  0  0  0  0  0  0  0  0  0  0
   22.3352   -4.0714  -12.8242 O   0  0  0  0  0  0  0  0  0  0  0  0
   20.3849   -4.1427  -13.9940 O   0  0  0  0  0  0  0  0  0  0  0  0
  1  5  1  0
  1  2  1  0
  2  3  1  0
  4  3  1  0
  5  6  1  1
  5  4  1  0
  6  8  1  0
  6  7  2  0
  8  9  1  0
  9 14  1  0
  9 10  1  1
 11 10  1  0
 12 16  1  0
 12 11  1  0
 13 12  2  0
 14 15  2  0
 14 20  1  0
 17 18  1  0
 19 18  1  6
 19 21  1  0
 20 19  1  0
 21 22  1  0
 23 21  2  0
M  END
$$$$
