PES.pdb
     RDKit          3D

 23 23  0  0  1  0  0  0  0  0999 V2000
   18.6437  -11.4875  -15.3965 N   0  0  0  0  0  0  0  0  0  0  0  0
   17.8633  -12.5729  -15.9134 C   0  0  0  0  0  0  0  0  0  0  0  0
   18.8116  -13.5565  -16.5436 C   0  0  0  0  0  0  0  0  0  0  0  0
   20.0177  -12.7241  -16.8454 C   0  0  0  0  0  0  0  0  0  0  0  0
   20.0094  -11.6752  -15.7677 C   0  0  1  0  0  0  0  0  0  0  0  0
   20.5359  -10.3923  -16.3084 C   0  0  0  0  0  0  0  0  0  0  0  0
   21.7239  -10.3015  -16.7079 O   0  0  0  0  0  0  0  0  0  0  0  0
   19.6974   -9.2199  -16.3881 N   0  0  0  0  0  0  0  0  0  0  0  0
   20.2742   -7.9730  -16.8120 C   0  0  1  0  0  0  0  0  0  0  0  0
   19.8807   -7.6327  -18.1983 C   0  0  0  0  0  0  0  0  0  0  0  0
   20.3720   -6.3750  -18.7912 C   0  0  0  0  0  0  0  0  0  0  0  0
   19.9916   -6.1430  -20.1885 C   0  0  0  0  0  0  0  0  0  0  0  0
   20.4005   -5.1000  -20.7782 O   0  0  0  0  0  0  0  0  0  0  0  0
   20.0236   -6.8811  -15.8386 C   0  0  0  0  0  0  0  0  0  0  0  0
   18.8626   -6.6552  -15.4308 O   0  0  0  0  0  0  0  0  0  0  0  0
   19.1979   -7.0119  -20.9156 O   0  0  0  0  0  0  0  0  0  0  0  0
   22.1392   -5.8201  -12.6879 O   0  0  0  0  0  0  0  0  0  0  0  0
   21.9957   -4.7587  -13.5687 C   0  0  0  0  0  0  0  0  0  0  0  0
   20.7849   -4.9737  -14.4531 C   0  0  2  0  0  0  0  0  0  0  0  0
   21.0678   -6.0627  -15.3394 N   0  0  0  0  0  0  0  0  0  0  0  0
   20.4829   -3.7281  -15.2198 C   0  0  0  0  0  0  0  0  0  0  0  0
   19.5448   -2.8274  -14.7654 O   0  0  0  0  0  0  0  0  0  0  0  0
   21.0928   -3.5024  -16.2902 O   0  0  0  0  0  0  0  0  0  0  0  0
  1  5  1  0
  1  2  1  0
  2  3  1  0
  4  3  1  0
  5  6  1  6
  5  4  1  0
  6  8  1  0
  6  7  2  0
  8  9  1  0
  9 14  1  0
  9 10  1  6
 11 10  1  0
 12 16  1  0
 12 11  1  0
 13 12  2  0
 14 15  2  0
 14 20  1  0
 17 18  1  0
 19 18  1  1
 19 21  1  0
 20 19  1  0
 21 22  1  0
 23 21  2  0
M  END
$$$$
