PES.pdb
     RDKit          3D

 23 23  0  0  1  0  0  0  0  0999 V2000
   24.9035  -12.0513  -16.0671 N   0  0  0  0  0  0  0  0  0  0  0  0
   25.0196  -13.4796  -16.0368 C   0  0  0  0  0  0  0  0  0  0  0  0
   24.7816  -13.9858  -17.4336 C   0  0  0  0  0  0  0  0  0  0  0  0
   23.9991  -12.8804  -18.0698 C   0  0  0  0  0  0  0  0  0  0  0  0
   24.4925  -11.6430  -17.3719 C   0  0  1  0  0  0  0  0  0  0  0  0
   23.3801  -10.6636  -17.2352 C   0  0  0  0  0  0  0  0  0  0  0  0
   22.8707  -10.1227  -18.2488 O   0  0  0  0  0  0  0  0  0  0  0  0
   22.8576  -10.3091  -15.9371 N   0  0  0  0  0  0  0  0  0  0  0  0
   21.7791   -9.3623  -15.8502 C   0  0  1  0  0  0  0  0  0  0  0  0
   20.5959   -9.9429  -15.1754 C   0  0  0  0  0  0  0  0  0  0  0  0
   19.5414  -10.5672  -15.9959 C   0  0  0  0  0  0  0  0  0  0  0  0
   18.4048  -11.1199  -15.2520 C   0  0  0  0  0  0  0  0  0  0  0  0
   18.0129  -12.2976  -15.5019 O   0  0  0  0  0  0  0  0  0  0  0  0
   22.2166   -8.0675  -15.2715 C   0  0  0  0  0  0  0  0  0  0  0  0
   22.9605   -8.0465  -14.2659 O   0  0  0  0  0  0  0  0  0  0  0  0
   17.7216  -10.4190  -14.2744 O   0  0  0  0  0  0  0  0  0  0  0  0
   22.4196   -3.2638  -15.7977 O   0  0  0  0  0  0  0  0  0  0  0  0
   21.8704   -4.4689  -16.2091 C   0  0  0  0  0  0  0  0  0  0  0  0
   22.3529   -5.5943  -15.3174 C   0  0  2  0  0  0  0  0  0  0  0  0
   21.8180   -6.8235  -15.8219 N   0  0  0  0  0  0  0  0  0  0  0  0
   21.9102   -5.3588  -13.9105 C   0  0  0  0  0  0  0  0  0  0  0  0
   20.7552   -5.9332  -13.4268 O   0  0  0  0  0  0  0  0  0  0  0  0
   22.6008   -4.6288  -13.1630 O   0  0  0  0  0  0  0  0  0  0  0  0
  1  5  1  0
  1  2  1  0
  2  3  1  0
  4  3  1  0
  5  6  1  1
  5  4  1  0
  6  8  1  0
  6  7  2  0
  8  9  1  0
  9 14  1  0
  9 10  1  1
 11 10  1  0
 12 16  1  0
 12 11  1  0
 13 12  2  0
 14 15  2  0
 14 20  1  0
 17 18  1  0
 19 18  1  6
 19 21  1  0
 20 19  1  0
 21 22  1  0
 23 21  2  0
M  END
$$$$
