PES.pdb
     RDKit          3D

 23 23  0  0  1  0  0  0  0  0999 V2000
   19.5264  -12.3986  -15.4017 N   0  0  0  0  0  0  0  0  0  0  0  0
   18.6574  -13.5009  -15.6920 C   0  0  0  0  0  0  0  0  0  0  0  0
   18.9855  -13.9873  -17.0775 C   0  0  0  0  0  0  0  0  0  0  0  0
   19.6324  -12.7976  -17.7138 C   0  0  0  0  0  0  0  0  0  0  0  0
   20.2965  -12.0917  -16.5640 C   0  0  1  0  0  0  0  0  0  0  0  0
   20.2577  -10.6203  -16.7852 C   0  0  0  0  0  0  0  0  0  0  0  0
   20.9104  -10.0927  -17.7205 O   0  0  0  0  0  0  0  0  0  0  0  0
   19.4707   -9.7614  -15.9326 N   0  0  0  0  0  0  0  0  0  0  0  0
   19.4890   -8.3417  -16.1591 C   0  0  1  0  0  0  0  0  0  0  0  0
   18.1450   -7.7442  -15.9884 C   0  0  0  0  0  0  0  0  0  0  0  0
   17.9891   -6.2850  -16.1334 C   0  0  0  0  0  0  0  0  0  0  0  0
   16.6257   -5.7737  -15.9580 C   0  0  0  0  0  0  0  0  0  0  0  0
   16.4125   -4.5293  -16.0524 O   0  0  0  0  0  0  0  0  0  0  0  0
   20.5453   -7.6626  -15.3681 C   0  0  0  0  0  0  0  0  0  0  0  0
   20.8249   -8.0629  -14.2162 O   0  0  0  0  0  0  0  0  0  0  0  0
   15.5372   -6.5844  -15.6908 O   0  0  0  0  0  0  0  0  0  0  0  0
   24.2506   -4.6023  -15.2915 O   0  0  0  0  0  0  0  0  0  0  0  0
   23.2342   -5.2068  -16.0157 C   0  0  0  0  0  0  0  0  0  0  0  0
   22.2735   -5.9110  -15.0800 C   0  0  2  0  0  0  0  0  0  0  0  0
   21.2682   -6.5528  -15.8732 N   0  0  0  0  0  0  0  0  0  0  0  0
   21.6607   -4.9264  -14.1389 C   0  0  0  0  0  0  0  0  0  0  0  0
   22.1463   -4.7747  -12.8586 O   0  0  0  0  0  0  0  0  0  0  0  0
   20.6923   -4.2307  -14.5222 O   0  0  0  0  0  0  0  0  0  0  0  0
  1  5  1  0
  1  2  1  0
  2  3  1  0
  4  3  1  0
  5  6  1  6
  5  4  1  0
  6  8  1  0
  6  7  2  0
  8  9  1  0
  9 14  1  0
  9 10  1  1
 11 10  1  0
 12 16  1  0
 12 11  1  0
 13 12  2  0
 14 15  2  0
 14 20  1  0
 17 18  1  0
 19 18  1  6
 19 21  1  0
 20 19  1  0
 21 22  1  0
 23 21  2  0
M  END
$$$$
