PES.pdb
     RDKit          3D

 23 23  0  0  1  0  0  0  0  0999 V2000
   19.8804  -12.1243  -15.8248 N   0  0  0  0  0  0  0  0  0  0  0  0
   19.0009  -13.2388  -16.0215 C   0  0  0  0  0  0  0  0  0  0  0  0
   18.8825  -13.4699  -17.5035 C   0  0  0  0  0  0  0  0  0  0  0  0
   19.2516  -12.1427  -18.0876 C   0  0  0  0  0  0  0  0  0  0  0  0
   20.2262  -11.5716  -17.0949 C   0  0  1  0  0  0  0  0  0  0  0  0
   20.0702  -10.0929  -17.0283 C   0  0  0  0  0  0  0  0  0  0  0  0
   20.3762   -9.3687  -18.0087 O   0  0  0  0  0  0  0  0  0  0  0  0
   19.5642   -9.4521  -15.8379 N   0  0  0  0  0  0  0  0  0  0  0  0
   19.4013   -8.0236  -15.8259 C   0  0  1  0  0  0  0  0  0  0  0  0
   18.0233   -7.6343  -15.4493 C   0  0  0  0  0  0  0  0  0  0  0  0
   17.6906   -6.2017  -15.3420 C   0  0  0  0  0  0  0  0  0  0  0  0
   16.3228   -5.9005  -14.9068 C   0  0  0  0  0  0  0  0  0  0  0  0
   15.5842   -6.8389  -14.4864 O   0  0  0  0  0  0  0  0  0  0  0  0
   20.4499   -7.3477  -15.0220 C   0  0  0  0  0  0  0  0  0  0  0  0
   20.7949   -7.8170  -13.9148 O   0  0  0  0  0  0  0  0  0  0  0  0
   15.7802   -4.6282  -14.9278 O   0  0  0  0  0  0  0  0  0  0  0  0
   22.2033   -3.7788  -16.2552 O   0  0  0  0  0  0  0  0  0  0  0  0
   23.0034   -4.7489  -15.6704 C   0  0  0  0  0  0  0  0  0  0  0  0
   22.1832   -5.6026  -14.7255 C   0  0  2  0  0  0  0  0  0  0  0  0
   21.0926   -6.1643  -15.4649 N   0  0  0  0  0  0  0  0  0  0  0  0
   21.6838   -4.7729  -13.5883 C   0  0  0  0  0  0  0  0  0  0  0  0
   22.5513   -4.2776  -12.6395 O   0  0  0  0  0  0  0  0  0  0  0  0
   20.4592   -4.5260  -13.4992 O   0  0  0  0  0  0  0  0  0  0  0  0
  1  5  1  0
  1  2  1  0
  2  3  1  0
  4  3  1  0
  5  6  1  1
  5  4  1  0
  6  8  1  0
  6  7  2  0
  8  9  1  0
  9 14  1  0
  9 10  1  1
 11 10  1  0
 12 16  1  0
 12 11  1  0
 13 12  2  0
 14 15  2  0
 14 20  1  0
 17 18  1  0
 19 18  1  6
 19 21  1  0
 20 19  1  0
 21 22  1  0
 23 21  2  0
M  END
$$$$
