PES.pdb
     RDKit          3D

 23 23  0  0  1  0  0  0  0  0999 V2000
   15.9345  -10.9776  -11.0261 N   0  0  0  0  0  0  0  0  0  0  0  0
   14.6883  -11.6212  -10.7307 C   0  0  0  0  0  0  0  0  0  0  0  0
   13.9718  -11.8468  -12.0344 C   0  0  0  0  0  0  0  0  0  0  0  0
   14.5862  -10.8295  -12.9434 C   0  0  0  0  0  0  0  0  0  0  0  0
   15.9888  -10.6817  -12.4217 C   0  0  1  0  0  0  0  0  0  0  0  0
   16.4449   -9.2752  -12.5922 C   0  0  0  0  0  0  0  0  0  0  0  0
   16.5631   -8.7713  -13.7374 O   0  0  0  0  0  0  0  0  0  0  0  0
   16.7631   -8.4536  -11.4487 N   0  0  0  0  0  0  0  0  0  0  0  0
   17.2106   -7.1034  -11.6583 C   0  0  1  0  0  0  0  0  0  0  0  0
   16.5428   -6.1574  -10.7355 C   0  0  0  0  0  0  0  0  0  0  0  0
   16.5576   -6.4415   -9.2886 C   0  0  0  0  0  0  0  0  0  0  0  0
   15.8323   -5.4832   -8.4480 C   0  0  0  0  0  0  0  0  0  0  0  0
   15.1914   -4.5383   -8.9951 O   0  0  0  0  0  0  0  0  0  0  0  0
   18.6909   -6.9968  -11.6489 C   0  0  0  0  0  0  0  0  0  0  0  0
   19.3814   -7.8684  -11.0756 O   0  0  0  0  0  0  0  0  0  0  0  0
   15.8051   -5.5505   -7.0666 O   0  0  0  0  0  0  0  0  0  0  0  0
   22.0400   -7.5131  -14.1176 O   0  0  0  0  0  0  0  0  0  0  0  0
   20.7406   -7.2612  -13.7036 C   0  0  0  0  0  0  0  0  0  0  0  0
   20.7152   -6.0856  -12.7487 C   0  0  2  0  0  0  0  0  0  0  0  0
   19.3728   -5.9239  -12.2761 N   0  0  0  0  0  0  0  0  0  0  0  0
   21.1871   -4.8508  -13.4438 C   0  0  0  0  0  0  0  0  0  0  0  0
   22.5049   -4.4562  -13.3686 O   0  0  0  0  0  0  0  0  0  0  0  0
   20.3709   -4.1670  -14.1033 O   0  0  0  0  0  0  0  0  0  0  0  0
  1  5  1  0
  1  2  1  0
  2  3  1  0
  4  3  1  0
  5  6  1  1
  5  4  1  0
  6  8  1  0
  6  7  2  0
  8  9  1  0
  9 14  1  0
  9 10  1  1
 11 10  1  0
 12 16  1  0
 12 11  1  0
 13 12  2  0
 14 15  2  0
 14 20  1  0
 17 18  1  0
 19 18  1  6
 19 21  1  0
 20 19  1  0
 21 22  1  0
 23 21  2  0
M  END
$$$$
