HAG.pdb
     RDKit          3D

 20 20  0  0  1  0  0  0  0  0999 V2000
    3.4833  -20.5299   19.3507 N   0  0  0  0  0  0  0  0  0  0  0  0
    3.3243  -19.6000   20.4306 C   0  0  1  0  0  0  0  0  0  0  0  0
    2.2222  -20.0317   21.3668 C   0  0  0  0  0  0  0  0  0  0  0  0
    0.9497  -20.0230   20.6013 C   0  0  0  0  0  0  0  0  0  0  0  0
    0.8570  -19.5645   19.3033 C   0  0  0  0  0  0  0  0  0  0  0  0
   -0.4104  -19.6941   18.9069 N   0  0  0  0  0  0  0  0  0  0  0  0
   -1.0852  -20.2199   19.9345 C   0  0  0  0  0  0  0  0  0  0  0  0
   -0.2723  -20.4299   20.9837 N   0  0  0  0  0  0  0  0  0  0  0  0
    4.5954  -19.3148   21.1326 C   0  0  0  0  0  0  0  0  0  0  0  0
    5.3360  -20.2849   21.4362 O   0  0  0  0  0  0  0  0  0  0  0  0
    6.4016  -16.2232   22.2258 C   0  0  0  0  0  0  0  0  0  0  0  0
    6.2238  -17.7293   22.2348 C   0  0  2  0  0  0  0  0  0  0  0  0
    5.0298  -18.0220   21.4834 N   0  0  0  0  0  0  0  0  0  0  0  0
    6.1389  -18.1776   23.6398 C   0  0  0  0  0  0  0  0  0  0  0  0
    5.1764  -17.8281   24.3463 O   0  0  0  0  0  0  0  0  0  0  0  0
    7.1868  -19.0066   24.1280 N   0  0  0  0  0  0  0  0  0  0  0  0
    7.1530  -19.4322   25.5106 C   0  0  0  0  0  0  0  0  0  0  0  0
    8.4067  -19.0518   26.1934 C   0  0  0  0  0  0  0  0  0  0  0  0
    9.3158  -20.0023   26.6111 O   0  0  0  0  0  0  0  0  0  0  0  0
    8.6444  -17.8407   26.3946 O   0  0  0  0  0  0  0  0  0  0  0  0
  2  3  1  0
  2  1  1  6
  4  8  1  0
  4  3  1  0
  5  4  2  0
  6  5  1  0
  6  7  1  0
  7  8  2  0
  9  2  1  0
 10  9  2  0
 12 11  1  1
 12 13  1  0
 13  9  1  0
 14 12  1  0
 14 15  2  0
 16 14  1  0
 17 16  1  0
 17 18  1  0
 18 19  1  0
 20 18  2  0
M  END
$$$$
