HAG.pdb
     RDKit          3D

 20 20  0  0  1  0  0  0  0  0999 V2000
   11.4684  -14.1898   18.8712 N   0  0  0  0  0  0  0  0  0  0  0  0
   10.1480  -14.2542   19.4266 C   0  0  1  0  0  0  0  0  0  0  0  0
    9.3542  -15.3862   18.8216 C   0  0  0  0  0  0  0  0  0  0  0  0
    8.9719  -14.9843   17.4440 C   0  0  0  0  0  0  0  0  0  0  0  0
    8.5220  -13.7188   17.1281 C   0  0  0  0  0  0  0  0  0  0  0  0
    8.2689  -13.6832   15.8186 N   0  0  0  0  0  0  0  0  0  0  0  0
    8.5552  -14.8969   15.3362 C   0  0  0  0  0  0  0  0  0  0  0  0
    8.9878  -15.7108   16.3140 N   0  0  0  0  0  0  0  0  0  0  0  0
   10.1497  -14.2803   20.9062 C   0  0  0  0  0  0  0  0  0  0  0  0
   11.2455  -14.4656   21.4949 O   0  0  0  0  0  0  0  0  0  0  0  0
    7.5993  -13.6649   23.5733 C   0  0  0  0  0  0  0  0  0  0  0  0
    8.9835  -14.1080   23.1401 C   0  0  2  0  0  0  0  0  0  0  0  0
    8.9986  -14.1104   21.6993 N   0  0  0  0  0  0  0  0  0  0  0  0
    9.2444  -15.4430   23.7164 C   0  0  0  0  0  0  0  0  0  0  0  0
    9.2985  -15.5867   24.9510 O   0  0  0  0  0  0  0  0  0  0  0  0
    9.4252  -16.5245   22.8103 N   0  0  0  0  0  0  0  0  0  0  0  0
    9.7039  -17.8410   23.3420 C   0  0  0  0  0  0  0  0  0  0  0  0
   11.1626  -18.0576   23.4325 C   0  0  0  0  0  0  0  0  0  0  0  0
   11.7909  -18.2279   24.6492 O   0  0  0  0  0  0  0  0  0  0  0  0
   11.8379  -18.0863   22.3803 O   0  0  0  0  0  0  0  0  0  0  0  0
  2  3  1  0
  2  1  1  6
  4  8  1  0
  4  3  1  0
  5  4  2  0
  6  5  1  0
  6  7  1  0
  7  8  2  0
  9  2  1  0
 10  9  2  0
 12 11  1  6
 12 13  1  0
 13  9  1  0
 14 12  1  0
 14 15  2  0
 16 14  1  0
 17 16  1  0
 17 18  1  0
 18 19  1  0
 20 18  2  0
M  END
$$$$
