HAG.pdb
     RDKit          3D

 20 20  0  0  1  0  0  0  0  0999 V2000
   10.1895  -16.1070   18.8905 N   0  0  0  0  0  0  0  0  0  0  0  0
   11.0209  -15.0946   19.4734 C   0  0  1  0  0  0  0  0  0  0  0  0
   10.2189  -14.1671   20.3533 C   0  0  0  0  0  0  0  0  0  0  0  0
    9.0694  -13.6693   19.5556 C   0  0  0  0  0  0  0  0  0  0  0  0
    9.1260  -12.5219   18.7914 C   0  0  0  0  0  0  0  0  0  0  0  0
    7.9400  -12.3563   18.2030 N   0  0  0  0  0  0  0  0  0  0  0  0
    7.1687  -13.3761   18.5936 C   0  0  0  0  0  0  0  0  0  0  0  0
    7.8396  -14.1935   19.4227 N   0  0  0  0  0  0  0  0  0  0  0  0
   12.2078  -15.6528   20.1587 C   0  0  0  0  0  0  0  0  0  0  0  0
   12.0488  -16.6605   20.8943 O   0  0  0  0  0  0  0  0  0  0  0  0
   15.8863  -15.0157   20.0149 C   0  0  0  0  0  0  0  0  0  0  0  0
   14.6851  -15.6888   20.6505 C   0  0  2  0  0  0  0  0  0  0  0  0
   13.5081  -15.1258   20.0392 N   0  0  0  0  0  0  0  0  0  0  0  0
   14.7397  -15.4543   22.1080 C   0  0  0  0  0  0  0  0  0  0  0  0
   14.5366  -14.3138   22.5617 O   0  0  0  0  0  0  0  0  0  0  0  0
   15.0288  -16.5703   22.9414 N   0  0  0  0  0  0  0  0  0  0  0  0
   15.0020  -16.3942   24.3774 C   0  0  0  0  0  0  0  0  0  0  0  0
   15.3736  -17.6538   25.0540 C   0  0  0  0  0  0  0  0  0  0  0  0
   15.5349  -17.7150   26.4231 O   0  0  0  0  0  0  0  0  0  0  0  0
   15.5444  -18.6842   24.3662 O   0  0  0  0  0  0  0  0  0  0  0  0
  2  3  1  0
  2  1  1  1
  4  8  1  0
  4  3  1  0
  5  4  2  0
  6  5  1  0
  6  7  1  0
  7  8  2  0
  9  2  1  0
 10  9  2  0
 12 11  1  6
 12 13  1  0
 13  9  1  0
 14 12  1  0
 14 15  2  0
 16 14  1  0
 17 16  1  0
 17 18  1  0
 18 19  1  0
 20 18  2  0
M  END
$$$$
