HAG.pdb
     RDKit          3D

 20 20  0  0  1  0  0  0  0  0999 V2000
    9.5735  -15.4798   20.8974 N   0  0  0  0  0  0  0  0  0  0  0  0
    8.5548  -14.8093   21.6516 C   0  0  1  0  0  0  0  0  0  0  0  0
    7.2155  -14.8973   20.9616 C   0  0  0  0  0  0  0  0  0  0  0  0
    7.3892  -14.4010   19.5728 C   0  0  0  0  0  0  0  0  0  0  0  0
    7.8691  -13.1410   19.2798 C   0  0  0  0  0  0  0  0  0  0  0  0
    7.9069  -13.0097   17.9526 N   0  0  0  0  0  0  0  0  0  0  0  0
    7.4613  -14.1601   17.4372 C   0  0  0  0  0  0  0  0  0  0  0  0
    7.1381  -15.0276   18.4112 N   0  0  0  0  0  0  0  0  0  0  0  0
    8.5037  -15.2500   23.0633 C   0  0  0  0  0  0  0  0  0  0  0  0
    9.0048  -16.3662   23.3548 O   0  0  0  0  0  0  0  0  0  0  0  0
    7.0458  -13.8693   26.2250 C   0  0  0  0  0  0  0  0  0  0  0  0
    7.8525  -14.9160   25.4809 C   0  0  2  0  0  0  0  0  0  0  0  0
    7.9278  -14.4968   24.1044 N   0  0  0  0  0  0  0  0  0  0  0  0
    7.1810  -16.2216   25.6447 C   0  0  0  0  0  0  0  0  0  0  0  0
    5.9934  -16.3569   25.2999 O   0  0  0  0  0  0  0  0  0  0  0  0
    7.9433  -17.2856   26.2018 N   0  0  0  0  0  0  0  0  0  0  0  0
    7.3094  -18.5722   26.3932 C   0  0  0  0  0  0  0  0  0  0  0  0
    7.7948  -19.2011   27.6388 C   0  0  0  0  0  0  0  0  0  0  0  0
    7.2426  -20.3720   28.1166 O   0  0  0  0  0  0  0  0  0  0  0  0
    8.7267  -18.6562   28.2701 O   0  0  0  0  0  0  0  0  0  0  0  0
  2  3  1  0
  2  1  1  6
  4  8  1  0
  4  3  1  0
  5  4  2  0
  6  5  1  0
  6  7  1  0
  7  8  2  0
  9  2  1  0
 10  9  2  0
 12 11  1  1
 12 13  1  0
 13  9  1  0
 14 12  1  0
 14 15  2  0
 16 14  1  0
 17 16  1  0
 17 18  1  0
 18 19  1  0
 20 18  2  0
M  END
$$$$
