HAG.pdb
     RDKit          3D

 20 20  0  0  1  0  0  0  0  0999 V2000
   11.6219  -13.7766   19.1209 N   0  0  0  0  0  0  0  0  0  0  0  0
   10.3013  -14.1021   19.5748 C   0  0  1  0  0  0  0  0  0  0  0  0
    9.7492  -15.2988   18.8395 C   0  0  0  0  0  0  0  0  0  0  0  0
    9.2714  -14.8330   17.5128 C   0  0  0  0  0  0  0  0  0  0  0  0
    9.4115  -13.5310   17.0785 C   0  0  0  0  0  0  0  0  0  0  0  0
    8.8863  -13.4427   15.8552 N   0  0  0  0  0  0  0  0  0  0  0  0
    8.4324  -14.6603   15.5404 C   0  0  0  0  0  0  0  0  0  0  0  0
    8.6574  -15.5285   16.5410 N   0  0  0  0  0  0  0  0  0  0  0  0
   10.2199  -14.2439   21.0456 C   0  0  0  0  0  0  0  0  0  0  0  0
   11.2879  -14.4284   21.6837 O   0  0  0  0  0  0  0  0  0  0  0  0
    7.5065  -13.8263   23.5818 C   0  0  0  0  0  0  0  0  0  0  0  0
    8.9289  -14.2048   23.2162 C   0  0  2  0  0  0  0  0  0  0  0  0
    9.0189  -14.1852   21.7784 N   0  0  0  0  0  0  0  0  0  0  0  0
    9.2160  -15.5361   23.7886 C   0  0  0  0  0  0  0  0  0  0  0  0
    9.2081  -15.6967   25.0222 O   0  0  0  0  0  0  0  0  0  0  0  0
    9.4940  -16.5945   22.8798 N   0  0  0  0  0  0  0  0  0  0  0  0
    9.6492  -17.9365   23.3981 C   0  0  0  0  0  0  0  0  0  0  0  0
   11.0628  -18.1904   23.7446 C   0  0  0  0  0  0  0  0  0  0  0  0
   11.6225  -19.4447   23.6111 O   0  0  0  0  0  0  0  0  0  0  0  0
   11.7629  -17.2445   24.1675 O   0  0  0  0  0  0  0  0  0  0  0  0
  2  3  1  0
  2  1  1  1
  4  8  1  0
  4  3  1  0
  5  4  2  0
  6  5  1  0
  6  7  1  0
  7  8  2  0
  9  2  1  0
 10  9  2  0
 12 11  1  6
 12 13  1  0
 13  9  1  0
 14 12  1  0
 14 15  2  0
 16 14  1  0
 17 16  1  0
 17 18  1  0
 18 19  1  0
 20 18  2  0
M  END
$$$$
