HAG.pdb
     RDKit          3D

 20 20  0  0  1  0  0  0  0  0999 V2000
   11.8404  -13.9926   19.2279 N   0  0  0  0  0  0  0  0  0  0  0  0
   10.5895  -14.3193   19.8480 C   0  0  1  0  0  0  0  0  0  0  0  0
    9.8642  -15.3988   19.0823 C   0  0  0  0  0  0  0  0  0  0  0  0
    9.2965  -14.7801   17.8574 C   0  0  0  0  0  0  0  0  0  0  0  0
    9.3993  -13.4326   17.5794 C   0  0  0  0  0  0  0  0  0  0  0  0
    8.7936  -13.2020   16.4132 N   0  0  0  0  0  0  0  0  0  0  0  0
    8.3275  -14.3781   15.9803 C   0  0  0  0  0  0  0  0  0  0  0  0
    8.6238  -15.3595   16.8490 N   0  0  0  0  0  0  0  0  0  0  0  0
   10.7282  -14.6310   21.2880 C   0  0  0  0  0  0  0  0  0  0  0  0
   11.8693  -14.9329   21.7223 O   0  0  0  0  0  0  0  0  0  0  0  0
    8.4840  -14.4119   24.2661 C   0  0  0  0  0  0  0  0  0  0  0  0
    9.7861  -14.8469   23.6216 C   0  0  2  0  0  0  0  0  0  0  0  0
    9.6604  -14.6111   22.2058 N   0  0  0  0  0  0  0  0  0  0  0  0
   10.0108  -16.2705   23.9460 C   0  0  0  0  0  0  0  0  0  0  0  0
   10.1584  -16.6220   25.1302 O   0  0  0  0  0  0  0  0  0  0  0  0
   10.0484  -17.1918   22.8628 N   0  0  0  0  0  0  0  0  0  0  0  0
   10.1813  -18.6034   23.1518 C   0  0  0  0  0  0  0  0  0  0  0  0
   11.6084  -18.9733   23.2489 C   0  0  0  0  0  0  0  0  0  0  0  0
   12.0007  -20.2795   23.4587 O   0  0  0  0  0  0  0  0  0  0  0  0
   12.4756  -18.0791   23.1378 O   0  0  0  0  0  0  0  0  0  0  0  0
  2  3  1  0
  2  1  1  6
  4  8  1  0
  4  3  1  0
  5  4  2  0
  6  5  1  0
  6  7  1  0
  7  8  2  0
  9  2  1  0
 10  9  2  0
 12 11  1  1
 12 13  1  0
 13  9  1  0
 14 12  1  0
 14 15  2  0
 16 14  1  0
 17 16  1  0
 17 18  1  0
 18 19  1  0
 20 18  2  0
M  END
$$$$
