HAG.pdb
     RDKit          3D

 20 20  0  0  1  0  0  0  0  0999 V2000
   13.2796  -14.6273   15.0667 N   0  0  0  0  0  0  0  0  0  0  0  0
   14.0285  -15.7254   15.6044 C   0  0  1  0  0  0  0  0  0  0  0  0
   15.4481  -15.7229   15.0922 C   0  0  0  0  0  0  0  0  0  0  0  0
   15.4002  -15.9594   13.6269 C   0  0  0  0  0  0  0  0  0  0  0  0
   16.3174  -16.7476   12.9627 C   0  0  0  0  0  0  0  0  0  0  0  0
   15.9954  -16.7577   11.6679 N   0  0  0  0  0  0  0  0  0  0  0  0
   14.9057  -15.9944   11.5344 C   0  0  0  0  0  0  0  0  0  0  0  0
   14.5230  -15.4947   12.7216 N   0  0  0  0  0  0  0  0  0  0  0  0
   13.9505  -15.8040   17.0801 C   0  0  0  0  0  0  0  0  0  0  0  0
   14.2686  -14.7855   17.7459 O   0  0  0  0  0  0  0  0  0  0  0  0
   12.4031  -18.0956   19.5380 C   0  0  0  0  0  0  0  0  0  0  0  0
   13.4485  -17.0429   19.2232 C   0  0  2  0  0  0  0  0  0  0  0  0
   13.5414  -16.9502   17.7884 N   0  0  0  0  0  0  0  0  0  0  0  0
   14.7211  -17.4508   19.8530 C   0  0  0  0  0  0  0  0  0  0  0  0
   14.7787  -17.6199   21.0841 O   0  0  0  0  0  0  0  0  0  0  0  0
   15.8451  -17.6346   19.0007 N   0  0  0  0  0  0  0  0  0  0  0  0
   17.1010  -18.0554   19.5834 C   0  0  0  0  0  0  0  0  0  0  0  0
   17.7794  -16.9075   20.2198 C   0  0  0  0  0  0  0  0  0  0  0  0
   18.6271  -16.0859   19.5052 O   0  0  0  0  0  0  0  0  0  0  0  0
   17.5774  -16.6800   21.4327 O   0  0  0  0  0  0  0  0  0  0  0  0
  2  3  1  0
  2  1  1  1
  4  8  1  0
  4  3  1  0
  5  4  2  0
  6  5  1  0
  6  7  1  0
  7  8  2  0
  9  2  1  0
 10  9  2  0
 12 11  1  6
 12 13  1  0
 13  9  1  0
 14 12  1  0
 14 15  2  0
 16 14  1  0
 17 16  1  0
 17 18  1  0
 18 19  1  0
 20 18  2  0
M  END
$$$$
