HAG.pdb
     RDKit          3D

 20 20  0  0  1  0  0  0  0  0999 V2000
    9.9298  -15.0003   20.4686 N   0  0  0  0  0  0  0  0  0  0  0  0
    8.7923  -14.4939   21.1797 C   0  0  1  0  0  0  0  0  0  0  0  0
    7.5036  -14.8710   20.4907 C   0  0  0  0  0  0  0  0  0  0  0  0
    7.6120  -14.4534   19.0697 C   0  0  0  0  0  0  0  0  0  0  0  0
    7.7637  -13.1378   18.6827 C   0  0  0  0  0  0  0  0  0  0  0  0
    7.8323  -13.1023   17.3507 N   0  0  0  0  0  0  0  0  0  0  0  0
    7.7256  -14.3650   16.9241 C   0  0  0  0  0  0  0  0  0  0  0  0
    7.5898  -15.2103   17.9599 N   0  0  0  0  0  0  0  0  0  0  0  0
    8.8047  -14.8581   22.6139 C   0  0  0  0  0  0  0  0  0  0  0  0
    9.5463  -15.8062   22.9788 O   0  0  0  0  0  0  0  0  0  0  0  0
    7.0467  -13.6241   25.6843 C   0  0  0  0  0  0  0  0  0  0  0  0
    8.0439  -14.5403   25.0014 C   0  0  2  0  0  0  0  0  0  0  0  0
    8.0366  -14.2086   23.5993 N   0  0  0  0  0  0  0  0  0  0  0  0
    7.6417  -15.9380   25.2600 C   0  0  0  0  0  0  0  0  0  0  0  0
    6.5279  -16.3438   24.8827 O   0  0  0  0  0  0  0  0  0  0  0  0
    8.5697  -16.7715   25.9440 N   0  0  0  0  0  0  0  0  0  0  0  0
    8.1972  -18.1394   26.2334 C   0  0  0  0  0  0  0  0  0  0  0  0
    8.8177  -18.5814   27.4992 C   0  0  0  0  0  0  0  0  0  0  0  0
   10.1684  -18.4220   27.7328 O   0  0  0  0  0  0  0  0  0  0  0  0
    8.0986  -19.1108   28.3747 O   0  0  0  0  0  0  0  0  0  0  0  0
  2  3  1  0
  2  1  1  6
  4  8  1  0
  4  3  1  0
  5  4  2  0
  6  5  1  0
  6  7  1  0
  7  8  2  0
  9  2  1  0
 10  9  2  0
 12 11  1  1
 12 13  1  0
 13  9  1  0
 14 12  1  0
 14 15  2  0
 16 14  1  0
 17 16  1  0
 17 18  1  0
 18 19  1  0
 20 18  2  0
M  END
$$$$
