HAG.pdb
     RDKit          3D

 20 20  0  0  1  0  0  0  0  0999 V2000
   10.1748  -15.9063   20.9584 N   0  0  0  0  0  0  0  0  0  0  0  0
    9.0182  -16.0868   21.7866 C   0  0  1  0  0  0  0  0  0  0  0  0
    7.7614  -15.6499   21.0744 C   0  0  0  0  0  0  0  0  0  0  0  0
    8.0489  -14.3572   20.4025 C   0  0  0  0  0  0  0  0  0  0  0  0
    8.2746  -13.1848   21.0941 C   0  0  0  0  0  0  0  0  0  0  0  0
    8.5037  -12.2163   20.2054 N   0  0  0  0  0  0  0  0  0  0  0  0
    8.4217  -12.7757   18.9938 C   0  0  0  0  0  0  0  0  0  0  0  0
    8.1439  -14.0869   19.0899 N   0  0  0  0  0  0  0  0  0  0  0  0
    8.9183  -17.4554   22.3405 C   0  0  0  0  0  0  0  0  0  0  0  0
    7.9106  -17.7414   23.0366 O   0  0  0  0  0  0  0  0  0  0  0  0
   10.3155  -20.7483   21.6376 C   0  0  0  0  0  0  0  0  0  0  0  0
    9.8241  -19.7854   22.7013 C   0  0  2  0  0  0  0  0  0  0  0  0
    9.8828  -18.4610   22.1370 N   0  0  0  0  0  0  0  0  0  0  0  0
   10.6815  -19.9365   23.8948 C   0  0  0  0  0  0  0  0  0  0  0  0
   10.8967  -21.0676   24.3659 O   0  0  0  0  0  0  0  0  0  0  0  0
   11.2322  -18.7532   24.4606 N   0  0  0  0  0  0  0  0  0  0  0  0
   12.1090  -18.8701   25.6057 C   0  0  0  0  0  0  0  0  0  0  0  0
   11.3164  -18.9614   26.8492 C   0  0  0  0  0  0  0  0  0  0  0  0
   11.9184  -18.9280   28.0905 O   0  0  0  0  0  0  0  0  0  0  0  0
   10.0733  -19.0713   26.7694 O   0  0  0  0  0  0  0  0  0  0  0  0
  2  3  1  0
  2  1  1  6
  4  8  1  0
  4  3  1  0
  5  4  2  0
  6  5  1  0
  6  7  1  0
  7  8  2  0
  9  2  1  0
 10  9  2  0
 12 11  1  6
 12 13  1  0
 13  9  1  0
 14 12  1  0
 14 15  2  0
 16 14  1  0
 17 16  1  0
 17 18  1  0
 18 19  1  0
 20 18  2  0
M  END
$$$$
