HCG.pdb
     RDKit          3D

 21 21  0  0  1  0  0  0  0  0999 V2000
   10.4071  -15.6738   15.2536 N   0  0  0  0  0  0  0  0  0  0  0  0
    9.2145  -15.6514   16.0674 C   0  0  1  0  0  0  0  0  0  0  0  0
    8.7111  -17.0899   16.1748 C   0  0  0  0  0  0  0  0  0  0  0  0
    7.9878  -17.3844   14.9153 C   0  0  0  0  0  0  0  0  0  0  0  0
    7.7743  -16.5239   13.8758 C   0  0  0  0  0  0  0  0  0  0  0  0
    7.0787  -17.1928   12.9363 N   0  0  0  0  0  0  0  0  0  0  0  0
    6.8669  -18.4354   13.3824 C   0  0  0  0  0  0  0  0  0  0  0  0
    7.4253  -18.5601   14.6028 N   0  0  0  0  0  0  0  0  0  0  0  0
    9.5598  -15.1570   17.4193 C   0  0  0  0  0  0  0  0  0  0  0  0
   10.7431  -15.3171   17.8380 O   0  0  0  0  0  0  0  0  0  0  0  0
    8.6043  -14.5102   18.2567 N   0  0  0  0  0  0  0  0  0  0  0  0
    9.0231  -14.0984   19.5683 C   0  0  1  0  0  0  0  0  0  0  0  0
    7.9475  -13.1641   20.1392 C   0  0  0  0  0  0  0  0  0  0  0  0
    7.8780  -11.6282   19.1615 S   0  0  0  0  0  0  0  0  0  0  0  0
    9.1807  -15.2695   20.4870 C   0  0  0  0  0  0  0  0  0  0  0  0
    8.2487  -16.1111   20.4764 O   0  0  0  0  0  0  0  0  0  0  0  0
   10.2970  -15.4548   21.3327 N   0  0  0  0  0  0  0  0  0  0  0  0
   10.3388  -16.5980   22.2098 C   0  0  0  0  0  0  0  0  0  0  0  0
   11.5842  -16.5851   23.0080 C   0  0  0  0  0  0  0  0  0  0  0  0
   12.4501  -15.7201   22.7661 O   0  0  0  0  0  0  0  0  0  0  0  0
   11.7983  -17.5132   24.0113 O   0  0  0  0  0  0  0  0  0  0  0  0
  2  3  1  0
  2  1  1  6
  3  4  1  0
  4  5  2  0
  5  6  1  0
  7  6  1  0
  8  4  1  0
  8  7  2  0
  9  2  1  0
 10  9  2  0
 11  9  1  0
 12 13  1  1
 12 11  1  0
 13 14  1  0
 15 17  1  0
 15 12  1  0
 16 15  2  0
 18 17  1  0
 19 18  1  0
 20 19  2  0
 21 19  1  0
M  END
$$$$
