HCG.pdb
     RDKit          3D

 21 21  0  0  1  0  0  0  0  0999 V2000
   11.0524  -13.4560   19.1665 N   0  0  0  0  0  0  0  0  0  0  0  0
    9.7644  -13.8778   19.6649 C   0  0  1  0  0  0  0  0  0  0  0  0
    9.3014  -15.0455   18.7952 C   0  0  0  0  0  0  0  0  0  0  0  0
    8.9212  -14.4752   17.4813 C   0  0  0  0  0  0  0  0  0  0  0  0
    8.8772  -13.1510   17.1478 C   0  0  0  0  0  0  0  0  0  0  0  0
    8.4838  -13.0729   15.8621 N   0  0  0  0  0  0  0  0  0  0  0  0
    8.2892  -14.3165   15.4110 C   0  0  0  0  0  0  0  0  0  0  0  0
    8.5573  -15.1863   16.4052 N   0  0  0  0  0  0  0  0  0  0  0  0
    9.9145  -14.3439   21.0618 C   0  0  0  0  0  0  0  0  0  0  0  0
   11.0754  -14.6087   21.4898 O   0  0  0  0  0  0  0  0  0  0  0  0
    8.7965  -14.5018   21.9324 N   0  0  0  0  0  0  0  0  0  0  0  0
    9.0519  -14.8175   23.3109 C   0  0  1  0  0  0  0  0  0  0  0  0
    7.7488  -14.6105   24.0951 C   0  0  0  0  0  0  0  0  0  0  0  0
    7.5122  -12.8386   24.4473 S   0  0  0  0  0  0  0  0  0  0  0  0
    9.4928  -16.2383   23.4760 C   0  0  0  0  0  0  0  0  0  0  0  0
    8.8260  -17.1011   22.8529 O   0  0  0  0  0  0  0  0  0  0  0  0
   10.5895  -16.6283   24.2764 N   0  0  0  0  0  0  0  0  0  0  0  0
   10.8526  -18.0307   24.4821 C   0  0  0  0  0  0  0  0  0  0  0  0
   12.0598  -18.4401   23.7315 C   0  0  0  0  0  0  0  0  0  0  0  0
   12.5586  -17.6476   22.9070 O   0  0  0  0  0  0  0  0  0  0  0  0
   12.6375  -19.6811   23.9312 O   0  0  0  0  0  0  0  0  0  0  0  0
  2  3  1  0
  2  1  1  6
  3  4  1  0
  4  5  2  0
  5  6  1  0
  7  6  1  0
  8  4  1  0
  8  7  2  0
  9  2  1  0
 10  9  2  0
 11  9  1  0
 12 13  1  1
 12 11  1  0
 13 14  1  0
 15 17  1  0
 15 12  1  0
 16 15  2  0
 18 17  1  0
 19 18  1  0
 20 19  2  0
 21 19  1  0
M  END
$$$$
