HCG.pdb
     RDKit          3D

 21 21  0  0  1  0  0  0  0  0999 V2000
    9.0148  -16.1064   20.5884 N   0  0  0  0  0  0  0  0  0  0  0  0
    7.8657  -15.8177   21.4140 C   0  0  1  0  0  0  0  0  0  0  0  0
    7.1753  -17.1476   21.7121 C   0  0  0  0  0  0  0  0  0  0  0  0
    6.7147  -17.6906   20.4123 C   0  0  0  0  0  0  0  0  0  0  0  0
    6.9215  -17.1414   19.1786 C   0  0  0  0  0  0  0  0  0  0  0  0
    6.3391  -17.9523   18.2746 N   0  0  0  0  0  0  0  0  0  0  0  0
    5.7859  -18.9772   18.9316 C   0  0  0  0  0  0  0  0  0  0  0  0
    6.0141  -18.8216   20.2509 N   0  0  0  0  0  0  0  0  0  0  0  0
    8.3226  -15.2134   22.6857 C   0  0  0  0  0  0  0  0  0  0  0  0
    9.4904  -15.4767   23.0955 O   0  0  0  0  0  0  0  0  0  0  0  0
    7.4905  -14.3494   23.4563 N   0  0  0  0  0  0  0  0  0  0  0  0
    8.0029  -13.8517   24.7032 C   0  0  1  0  0  0  0  0  0  0  0  0
    7.0668  -12.7373   25.1908 C   0  0  0  0  0  0  0  0  0  0  0  0
    5.6175  -13.4644   26.0217 S   0  0  0  0  0  0  0  0  0  0  0  0
    8.0548  -14.9266   25.7435 C   0  0  0  0  0  0  0  0  0  0  0  0
    7.0380  -15.6581   25.8353 O   0  0  0  0  0  0  0  0  0  0  0  0
    9.1634  -15.1395   26.5928 N   0  0  0  0  0  0  0  0  0  0  0  0
    9.0807  -16.1396   27.6276 C   0  0  0  0  0  0  0  0  0  0  0  0
    9.8315  -17.3506   27.2299 C   0  0  0  0  0  0  0  0  0  0  0  0
    9.9843  -18.2690   28.0604 O   0  0  0  0  0  0  0  0  0  0  0  0
   10.3619  -17.4757   25.9584 O   0  0  0  0  0  0  0  0  0  0  0  0
  2  3  1  0
  2  1  1  6
  3  4  1  0
  4  5  2  0
  5  6  1  0
  7  6  1  0
  8  4  1  0
  8  7  2  0
  9  2  1  0
 10  9  2  0
 11  9  1  0
 12 13  1  1
 12 11  1  0
 13 14  1  0
 15 17  1  0
 15 12  1  0
 16 15  2  0
 18 17  1  0
 19 18  1  0
 20 19  2  0
 21 19  1  0
M  END
$$$$
