HCG.pdb
     RDKit          3D

 21 21  0  0  1  0  0  0  0  0999 V2000
    9.8686  -17.3625   16.2671 N   0  0  0  0  0  0  0  0  0  0  0  0
    8.8703  -17.3705   17.3105 C   0  0  1  0  0  0  0  0  0  0  0  0
    8.8016  -18.7936   17.8621 C   0  0  0  0  0  0  0  0  0  0  0  0
    7.7497  -19.4995   17.0930 C   0  0  0  0  0  0  0  0  0  0  0  0
    6.9486  -18.9645   16.1242 C   0  0  0  0  0  0  0  0  0  0  0  0
    6.1367  -19.9460   15.6865 N   0  0  0  0  0  0  0  0  0  0  0  0
    6.4276  -21.0599   16.3665 C   0  0  0  0  0  0  0  0  0  0  0  0
    7.4219  -20.7911   17.2359 N   0  0  0  0  0  0  0  0  0  0  0  0
    9.2925  -16.4518   18.3917 C   0  0  0  0  0  0  0  0  0  0  0  0
   10.5120  -16.4338   18.7286 O   0  0  0  0  0  0  0  0  0  0  0  0
    8.3709  -15.5929   19.0594 N   0  0  0  0  0  0  0  0  0  0  0  0
    8.8768  -14.7278   20.0893 C   0  0  1  0  0  0  0  0  0  0  0  0
    7.8372  -13.6262   20.3378 C   0  0  0  0  0  0  0  0  0  0  0  0
    7.6020  -12.6425   18.8224 S   0  0  0  0  0  0  0  0  0  0  0  0
    9.1052  -15.4717   21.3678 C   0  0  0  0  0  0  0  0  0  0  0  0
    8.1124  -16.0784   21.8405 O   0  0  0  0  0  0  0  0  0  0  0  0
   10.3492  -15.5142   22.0358 N   0  0  0  0  0  0  0  0  0  0  0  0
   10.4671  -16.2558   23.2663 C   0  0  0  0  0  0  0  0  0  0  0  0
   11.8119  -16.0644   23.8521 C   0  0  0  0  0  0  0  0  0  0  0  0
   12.0746  -16.5917   24.9518 O   0  0  0  0  0  0  0  0  0  0  0  0
   12.7739  -15.3137   23.2003 O   0  0  0  0  0  0  0  0  0  0  0  0
  2  3  1  0
  2  1  1  6
  3  4  1  0
  4  5  2  0
  5  6  1  0
  7  6  1  0
  8  4  1  0
  8  7  2  0
  9  2  1  0
 10  9  2  0
 11  9  1  0
 12 13  1  1
 12 11  1  0
 13 14  1  0
 15 17  1  0
 15 12  1  0
 16 15  2  0
 18 17  1  0
 19 18  1  0
 20 19  2  0
 21 19  1  0
M  END
$$$$
