HCG.pdb
     RDKit          3D

 21 21  0  0  1  0  0  0  0  0999 V2000
    9.7498  -14.7568   21.2636 N   0  0  0  0  0  0  0  0  0  0  0  0
    8.5880  -14.1814   21.8996 C   0  0  1  0  0  0  0  0  0  0  0  0
    7.3573  -14.7363   21.1843 C   0  0  0  0  0  0  0  0  0  0  0  0
    7.4448  -14.2887   19.7742 C   0  0  0  0  0  0  0  0  0  0  0  0
    7.6876  -13.0183   19.3343 C   0  0  0  0  0  0  0  0  0  0  0  0
    7.6834  -13.0513   17.9878 N   0  0  0  0  0  0  0  0  0  0  0  0
    7.4442  -14.3096   17.6039 C   0  0  0  0  0  0  0  0  0  0  0  0
    7.2960  -15.0780   18.7014 N   0  0  0  0  0  0  0  0  0  0  0  0
    8.5544  -14.6020   23.3184 C   0  0  0  0  0  0  0  0  0  0  0  0
    9.3584  -15.5005   23.7023 O   0  0  0  0  0  0  0  0  0  0  0  0
    7.6486  -14.0279   24.2579 N   0  0  0  0  0  0  0  0  0  0  0  0
    7.8461  -14.3170   25.6516 C   0  0  1  0  0  0  0  0  0  0  0  0
    6.9761  -13.3495   26.4657 C   0  0  0  0  0  0  0  0  0  0  0  0
    5.2239  -13.5611   26.0133 S   0  0  0  0  0  0  0  0  0  0  0  0
    7.4453  -15.7205   25.9832 C   0  0  0  0  0  0  0  0  0  0  0  0
    6.4362  -16.1650   25.3820 O   0  0  0  0  0  0  0  0  0  0  0  0
    8.1345  -16.5314   26.9121 N   0  0  0  0  0  0  0  0  0  0  0  0
    7.6482  -17.8597   27.1902 C   0  0  0  0  0  0  0  0  0  0  0  0
    8.4981  -18.5126   28.2099 C   0  0  0  0  0  0  0  0  0  0  0  0
    9.4933  -17.9026   28.6502 O   0  0  0  0  0  0  0  0  0  0  0  0
    8.2048  -19.7812   28.6771 O   0  0  0  0  0  0  0  0  0  0  0  0
  2  3  1  0
  2  1  1  6
  3  4  1  0
  4  5  2  0
  5  6  1  0
  7  6  1  0
  8  4  1  0
  8  7  2  0
  9  2  1  0
 10  9  2  0
 11  9  1  0
 12 13  1  1
 12 11  1  0
 13 14  1  0
 15 17  1  0
 15 12  1  0
 16 15  2  0
 18 17  1  0
 19 18  1  0
 20 19  2  0
 21 19  1  0
M  END
$$$$
