HCG.pdb
     RDKit          3D

 21 21  0  0  1  0  0  0  0  0999 V2000
    7.5684  -17.6041   17.9090 N   0  0  0  0  0  0  0  0  0  0  0  0
    9.0035  -17.4433   17.9089 C   0  0  1  0  0  0  0  0  0  0  0  0
    9.4221  -17.1038   16.4793 C   0  0  0  0  0  0  0  0  0  0  0  0
    9.0961  -18.2857   15.6467 C   0  0  0  0  0  0  0  0  0  0  0  0
    8.7651  -19.5334   16.0939 C   0  0  0  0  0  0  0  0  0  0  0  0
    8.5471  -20.3041   15.0111 N   0  0  0  0  0  0  0  0  0  0  0  0
    8.7381  -19.5530   13.9215 C   0  0  0  0  0  0  0  0  0  0  0  0
    9.0770  -18.3066   14.3068 N   0  0  0  0  0  0  0  0  0  0  0  0
    9.3647  -16.3177   18.7997 C   0  0  0  0  0  0  0  0  0  0  0  0
   10.5785  -15.9674   18.8701 O   0  0  0  0  0  0  0  0  0  0  0  0
    8.3911  -15.6220   19.5748 N   0  0  0  0  0  0  0  0  0  0  0  0
    8.8533  -14.6520   20.5291 C   0  0  1  0  0  0  0  0  0  0  0  0
    7.7377  -13.6179   20.7340 C   0  0  0  0  0  0  0  0  0  0  0  0
    7.3425  -12.8100   19.1495 S   0  0  0  0  0  0  0  0  0  0  0  0
    9.1700  -15.2865   21.8472 C   0  0  0  0  0  0  0  0  0  0  0  0
    8.2029  -15.8026   22.4600 O   0  0  0  0  0  0  0  0  0  0  0  0
   10.4674  -15.3241   22.4049 N   0  0  0  0  0  0  0  0  0  0  0  0
   10.7079  -16.1156   23.5854 C   0  0  0  0  0  0  0  0  0  0  0  0
   12.1375  -16.0532   23.9606 C   0  0  0  0  0  0  0  0  0  0  0  0
   12.9991  -16.3879   23.1227 O   0  0  0  0  0  0  0  0  0  0  0  0
   12.5271  -15.6317   25.2193 O   0  0  0  0  0  0  0  0  0  0  0  0
  2  3  1  0
  2  1  1  6
  3  4  1  0
  4  5  2  0
  5  6  1  0
  7  6  1  0
  8  4  1  0
  8  7  2  0
  9  2  1  0
 10  9  2  0
 11  9  1  0
 12 13  1  1
 12 11  1  0
 13 14  1  0
 15 17  1  0
 15 12  1  0
 16 15  2  0
 18 17  1  0
 19 18  1  0
 20 19  2  0
 21 19  1  0
M  END
$$$$
