MKL.pdb
     RDKit          3D

 26 25  0  0  1  0  0  0  0  0999 V2000
   10.6800  -19.0781   -0.6918 C   0  0  0  0  0  0  0  0  0  0  0  0
   11.5720  -18.0253   -1.8818 S   0  0  0  0  0  0  0  0  0  0  0  0
   11.5186  -18.8688   -3.4857 C   0  0  0  0  0  0  0  0  0  0  0  0
   12.0392  -20.2799   -3.3154 C   0  0  0  0  0  0  0  0  0  0  0  0
   11.9728  -20.9480   -4.6720 C   0  0  2  0  0  0  0  0  0  0  0  0
   10.5930  -21.1498   -5.0189 N   0  0  0  0  0  0  0  0  0  0  0  0
   12.6501  -22.2588   -4.5459 C   0  0  0  0  0  0  0  0  0  0  0  0
   12.0844  -23.1596   -3.8547 O   0  0  0  0  0  0  0  0  0  0  0  0
   13.8996  -22.4869   -5.1876 N   0  0  0  0  0  0  0  0  0  0  0  0
   14.5176  -23.7865   -5.0734 C   0  0  1  0  0  0  0  0  0  0  0  0
   15.2846  -24.0244   -6.3424 C   0  0  0  0  0  0  0  0  0  0  0  0
   14.4662  -23.9099   -7.5850 C   0  0  0  0  0  0  0  0  0  0  0  0
   15.3980  -24.2575   -8.7558 C   0  0  0  0  0  0  0  0  0  0  0  0
   14.5918  -24.1773  -10.0533 C   0  0  0  0  0  0  0  0  0  0  0  0
   15.4832  -24.5176  -11.1455 N   0  0  0  0  0  0  0  0  0  0  0  0
   15.3350  -23.9151   -3.8567 C   0  0  0  0  0  0  0  0  0  0  0  0
   16.1447  -23.0576   -3.4373 O   0  0  0  0  0  0  0  0  0  0  0  0
   14.6786  -26.2653    1.5844 C   0  0  0  0  0  0  0  0  0  0  0  0
   15.6586  -25.5940    0.6558 C   0  0  2  0  0  0  0  0  0  0  0  0
   16.4620  -24.5483    1.3396 C   0  0  0  0  0  0  0  0  0  0  0  0
   15.1463  -25.2416   -0.6724 C   0  0  0  0  0  0  0  0  0  0  0  0
   16.0227  -25.2883   -1.8558 C   0  0  2  0  0  0  0  0  0  0  0  0
   15.2086  -25.0976   -3.0851 N   0  0  0  0  0  0  0  0  0  0  0  0
   16.8306  -26.4853   -2.0814 C   0  0  0  0  0  0  0  0  0  0  0  0
   16.7445  -27.3491   -3.1591 O   0  0  0  0  0  0  0  0  0  0  0  0
   17.7137  -26.8075   -1.2247 O   0  0  0  0  0  0  0  0  0  0  0  0
  2  1  1  0
  3  2  1  0
  4  5  1  0
  4  3  1  0
  5  7  1  0
  5  6  1  1
  7  8  2  0
  9 10  1  0
  9  7  1  0
 11 12  1  0
 10 11  1  6
 13 12  1  0
 13 14  1  0
 15 14  1  0
 16 10  1  0
 16 17  2  0
 19 18  1  1
 19 21  1  0
 20 19  1  0
 22 21  1  1
 22 24  1  0
 22 23  1  0
 23 16  1  0
 24 25  1  0
 26 24  2  0
M  END
$$$$
