MKL.pdb
     RDKit          3D

 26 25  0  0  1  0  0  0  0  0999 V2000
   10.3242  -18.8123   -4.7883 C   0  0  0  0  0  0  0  0  0  0  0  0
   10.6834  -20.5986   -4.7810 S   0  0  0  0  0  0  0  0  0  0  0  0
   12.2222  -20.8377   -5.7093 C   0  0  0  0  0  0  0  0  0  0  0  0
   12.6029  -22.3019   -5.6592 C   0  0  0  0  0  0  0  0  0  0  0  0
   13.8108  -22.4810   -6.5536 C   0  0  2  0  0  0  0  0  0  0  0  0
   13.3666  -22.5533   -7.9183 N   0  0  0  0  0  0  0  0  0  0  0  0
   14.4505  -23.7605   -6.1710 C   0  0  0  0  0  0  0  0  0  0  0  0
   13.7164  -24.7907   -6.0761 O   0  0  0  0  0  0  0  0  0  0  0  0
   15.8501  -23.8174   -5.9202 N   0  0  0  0  0  0  0  0  0  0  0  0
   16.4505  -25.0882   -5.5907 C   0  0  1  0  0  0  0  0  0  0  0  0
   17.5502  -25.3287   -6.5848 C   0  0  0  0  0  0  0  0  0  0  0  0
   17.1077  -25.2955   -8.0096 C   0  0  0  0  0  0  0  0  0  0  0  0
   18.2737  -24.7035   -8.8157 C   0  0  0  0  0  0  0  0  0  0  0  0
   17.8731  -24.6743  -10.2918 C   0  0  0  0  0  0  0  0  0  0  0  0
   18.9346  -24.0080  -11.0215 N   0  0  0  0  0  0  0  0  0  0  0  0
   16.8965  -25.1527   -4.1900 C   0  0  0  0  0  0  0  0  0  0  0  0
   17.3483  -24.1889   -3.5314 O   0  0  0  0  0  0  0  0  0  0  0  0
   17.3164  -28.0896    0.6015 C   0  0  0  0  0  0  0  0  0  0  0  0
   16.4398  -26.9190    0.2347 C   0  0  2  0  0  0  0  0  0  0  0  0
   15.2440  -26.8108    1.1092 C   0  0  0  0  0  0  0  0  0  0  0  0
   16.2053  -26.7169   -1.1988 C   0  0  0  0  0  0  0  0  0  0  0  0
   17.3332  -26.5417   -2.1304 C   0  0  2  0  0  0  0  0  0  0  0  0
   16.8153  -26.3975   -3.5165 N   0  0  0  0  0  0  0  0  0  0  0  0
   18.3638  -27.5767   -2.1840 C   0  0  0  0  0  0  0  0  0  0  0  0
   19.4872  -27.6664   -1.3809 O   0  0  0  0  0  0  0  0  0  0  0  0
   18.2616  -28.5093   -3.0428 O   0  0  0  0  0  0  0  0  0  0  0  0
  2  1  1  0
  3  2  1  0
  4  5  1  0
  4  3  1  0
  5  7  1  0
  5  6  1  6
  7  8  2  0
  9 10  1  0
  9  7  1  0
 11 12  1  0
 10 11  1  6
 13 12  1  0
 13 14  1  0
 15 14  1  0
 16 10  1  0
 16 17  2  0
 19 18  1  6
 19 21  1  0
 20 19  1  0
 22 21  1  1
 22 24  1  0
 22 23  1  0
 23 16  1  0
 24 25  1  0
 26 24  2  0
M  END
$$$$
