MKL.pdb
     RDKit          3D

 26 25  0  0  1  0  0  0  0  0999 V2000
   25.7305  -13.0876  -20.3096 C   0  0  0  0  0  0  0  0  0  0  0  0
   24.8149  -11.6153  -19.7493 S   0  0  0  0  0  0  0  0  0  0  0  0
   23.1760  -12.1770  -19.2153 C   0  0  0  0  0  0  0  0  0  0  0  0
   22.4342  -11.0101  -18.5992 C   0  0  0  0  0  0  0  0  0  0  0  0
   21.0122  -11.4651  -18.3505 C   0  0  2  0  0  0  0  0  0  0  0  0
   20.5103  -12.0828  -19.5470 N   0  0  0  0  0  0  0  0  0  0  0  0
   20.2148  -10.2555  -18.0440 C   0  0  0  0  0  0  0  0  0  0  0  0
   20.2303   -9.3018  -18.8804 O   0  0  0  0  0  0  0  0  0  0  0  0
   19.4577  -10.1794  -16.8415 N   0  0  0  0  0  0  0  0  0  0  0  0
   18.6454   -9.0109  -16.5991 C   0  0  1  0  0  0  0  0  0  0  0  0
   17.2872   -9.4956  -16.1800 C   0  0  0  0  0  0  0  0  0  0  0  0
   16.4803  -10.0918  -17.2848 C   0  0  0  0  0  0  0  0  0  0  0  0
   15.1274  -10.4871  -16.6738 C   0  0  0  0  0  0  0  0  0  0  0  0
   14.2960  -11.1822  -17.7534 C   0  0  0  0  0  0  0  0  0  0  0  0
   13.0973  -11.6976  -17.1202 N   0  0  0  0  0  0  0  0  0  0  0  0
   19.2648   -8.0857  -15.6371 C   0  0  0  0  0  0  0  0  0  0  0  0
   19.8212   -8.4226  -14.5677 O   0  0  0  0  0  0  0  0  0  0  0  0
   22.8966   -3.4843  -15.4352 C   0  0  0  0  0  0  0  0  0  0  0  0
   21.8084   -4.1922  -14.6685 C   0  0  2  0  0  0  0  0  0  0  0  0
   22.2116   -4.5089  -13.2744 C   0  0  0  0  0  0  0  0  0  0  0  0
   21.1044   -5.2579  -15.3894 C   0  0  0  0  0  0  0  0  0  0  0  0
   19.7726   -5.7118  -14.9524 C   0  0  2  0  0  0  0  0  0  0  0  0
   19.2389   -6.6985  -15.9281 N   0  0  0  0  0  0  0  0  0  0  0  0
   18.7211   -4.7147  -14.7618 C   0  0  0  0  0  0  0  0  0  0  0  0
   17.7136   -4.3953  -15.6552 O   0  0  0  0  0  0  0  0  0  0  0  0
   18.6906   -4.0449  -13.6810 O   0  0  0  0  0  0  0  0  0  0  0  0
  2  1  1  0
  3  2  1  0
  4  5  1  0
  4  3  1  0
  5  7  1  0
  5  6  1  6
  7  8  2  0
  9 10  1  0
  9  7  1  0
 11 12  1  0
 10 11  1  1
 13 12  1  0
 13 14  1  0
 15 14  1  0
 16 10  1  0
 16 17  2  0
 19 18  1  6
 19 21  1  0
 20 19  1  0
 22 21  1  6
 22 24  1  0
 22 23  1  0
 23 16  1  0
 24 25  1  0
 26 24  2  0
M  END
$$$$
