MKL.pdb
     RDKit          3D

 26 25  0  0  1  0  0  0  0  0999 V2000
   26.0094  -22.9334  -11.6178 C   0  0  0  0  0  0  0  0  0  0  0  0
   25.5880  -21.2787  -10.9819 S   0  0  0  0  0  0  0  0  0  0  0  0
   24.7829  -20.3767  -12.3328 C   0  0  0  0  0  0  0  0  0  0  0  0
   25.3510  -20.8577  -13.6509 C   0  0  0  0  0  0  0  0  0  0  0  0
   24.6269  -20.1099  -14.7497 C   0  0  2  0  0  0  0  0  0  0  0  0
   24.4603  -18.7416  -14.3432 N   0  0  0  0  0  0  0  0  0  0  0  0
   23.2991  -20.7460  -14.9081 C   0  0  0  0  0  0  0  0  0  0  0  0
   23.2109  -21.7665  -15.6565 O   0  0  0  0  0  0  0  0  0  0  0  0
   22.1634  -20.2164  -14.2337 N   0  0  0  0  0  0  0  0  0  0  0  0
   20.8779  -20.8432  -14.4303 C   0  0  1  0  0  0  0  0  0  0  0  0
   20.5045  -21.5026  -13.1338 C   0  0  0  0  0  0  0  0  0  0  0  0
   19.2478  -22.3052  -13.1930 C   0  0  0  0  0  0  0  0  0  0  0  0
   18.9741  -22.7948  -11.7628 C   0  0  0  0  0  0  0  0  0  0  0  0
   17.7067  -23.6513  -11.7811 C   0  0  0  0  0  0  0  0  0  0  0  0
   17.5085  -24.1703  -10.4415 N   0  0  0  0  0  0  0  0  0  0  0  0
   19.8631  -19.9004  -14.9268 C   0  0  0  0  0  0  0  0  0  0  0  0
   19.7400  -18.7113  -14.5559 O   0  0  0  0  0  0  0  0  0  0  0  0
   19.2990  -17.7918  -18.5585 C   0  0  0  0  0  0  0  0  0  0  0  0
   18.7851  -19.1959  -18.7531 C   0  0  2  0  0  0  0  0  0  0  0  0
   18.5964  -19.5365  -20.1866 C   0  0  0  0  0  0  0  0  0  0  0  0
   17.7112  -19.6177  -17.8479 C   0  0  0  0  0  0  0  0  0  0  0  0
   17.8531  -19.4707  -16.3888 C   0  0  2  0  0  0  0  0  0  0  0  0
   18.9430  -20.3578  -15.9035 N   0  0  0  0  0  0  0  0  0  0  0  0
   16.6940  -19.7452  -15.5418 C   0  0  0  0  0  0  0  0  0  0  0  0
   16.5291  -20.8246  -14.6917 O   0  0  0  0  0  0  0  0  0  0  0  0
   15.7105  -18.9388  -15.5567 O   0  0  0  0  0  0  0  0  0  0  0  0
  2  1  1  0
  3  2  1  0
  4  5  1  0
  4  3  1  0
  5  7  1  0
  5  6  1  1
  7  8  2  0
  9 10  1  0
  9  7  1  0
 11 12  1  0
 10 11  1  1
 13 12  1  0
 13 14  1  0
 15 14  1  0
 16 10  1  0
 16 17  2  0
 19 18  1  6
 19 21  1  0
 20 19  1  0
 22 21  1  6
 22 24  1  0
 22 23  1  0
 23 16  1  0
 24 25  1  0
 26 24  2  0
M  END
$$$$
