MKL.pdb
     RDKit          3D

 26 25  0  0  1  0  0  0  0  0999 V2000
   23.1500  -20.6558   -8.9325 C   0  0  0  0  0  0  0  0  0  0  0  0
   24.5639  -21.7656   -9.2311 S   0  0  0  0  0  0  0  0  0  0  0  0
   26.0023  -20.7171   -9.5753 C   0  0  0  0  0  0  0  0  0  0  0  0
   25.8601  -20.1295  -10.9631 C   0  0  0  0  0  0  0  0  0  0  0  0
   25.6672  -21.2857  -11.9208 C   0  0  2  0  0  0  0  0  0  0  0  0
   26.9201  -21.9732  -12.0711 N   0  0  0  0  0  0  0  0  0  0  0  0
   25.2575  -20.7100  -13.2221 C   0  0  0  0  0  0  0  0  0  0  0  0
   26.1674  -20.3638  -14.0354 O   0  0  0  0  0  0  0  0  0  0  0  0
   23.8784  -20.5556  -13.5374 N   0  0  0  0  0  0  0  0  0  0  0  0
   23.5042  -20.2097  -14.8881 C   0  0  1  0  0  0  0  0  0  0  0  0
   22.1517  -20.8118  -15.1402 C   0  0  0  0  0  0  0  0  0  0  0  0
   21.6251  -20.5832  -16.5178 C   0  0  0  0  0  0  0  0  0  0  0  0
   20.2155  -21.1928  -16.5536 C   0  0  0  0  0  0  0  0  0  0  0  0
   19.6892  -21.1053  -17.9872 C   0  0  0  0  0  0  0  0  0  0  0  0
   18.3305  -21.6125  -17.9876 N   0  0  0  0  0  0  0  0  0  0  0  0
   23.5599  -18.7599  -15.1329 C   0  0  0  0  0  0  0  0  0  0  0  0
   23.1327  -17.8794  -14.3525 O   0  0  0  0  0  0  0  0  0  0  0  0
   26.5864  -15.5968  -15.1079 C   0  0  0  0  0  0  0  0  0  0  0  0
   26.7255  -16.4577  -16.3379 C   0  0  2  0  0  0  0  0  0  0  0  0
   28.0245  -16.2529  -17.0288 C   0  0  0  0  0  0  0  0  0  0  0  0
   25.5446  -16.5354  -17.2041 C   0  0  0  0  0  0  0  0  0  0  0  0
   24.2187  -16.8518  -16.6452 C   0  0  2  0  0  0  0  0  0  0  0  0
   24.1403  -18.3055  -16.3438 N   0  0  0  0  0  0  0  0  0  0  0  0
   23.0317  -16.5332  -17.4364 C   0  0  0  0  0  0  0  0  0  0  0  0
   22.4625  -17.3173  -18.4244 O   0  0  0  0  0  0  0  0  0  0  0  0
   22.4288  -15.4318  -17.2334 O   0  0  0  0  0  0  0  0  0  0  0  0
  2  1  1  0
  3  2  1  0
  4  5  1  0
  4  3  1  0
  5  7  1  0
  5  6  1  6
  7  8  2  0
  9 10  1  0
  9  7  1  0
 11 12  1  0
 10 11  1  1
 13 12  1  0
 13 14  1  0
 15 14  1  0
 16 10  1  0
 16 17  2  0
 19 18  1  1
 19 21  1  0
 20 19  1  0
 22 21  1  6
 22 24  1  0
 22 23  1  0
 23 16  1  0
 24 25  1  0
 26 24  2  0
M  END
$$$$
