KEQ.pdb
     RDKit          3D

 28 27  0  0  1  0  0  0  0  0999 V2000
   21.6382  -14.8274  -18.8763 N   0  0  0  0  0  0  0  0  0  0  0  0
   20.6626  -13.8324  -18.6704 C   0  0  1  0  0  0  0  0  0  0  0  0
   19.5974  -14.0868  -17.6939 C   0  0  0  0  0  0  0  0  0  0  0  0
   18.9087  -15.3695  -17.6946 C   0  0  0  0  0  0  0  0  0  0  0  0
   19.3978  -16.6234  -17.1397 C   0  0  0  0  0  0  0  0  0  0  0  0
   18.6163  -17.8643  -17.1569 C   0  0  0  0  0  0  0  0  0  0  0  0
   19.2173  -19.0048  -16.5021 N   0  0  0  0  0  0  0  0  0  0  0  0
   21.3897  -12.5379  -18.3802 C   0  0  0  0  0  0  0  0  0  0  0  0
   22.4301  -12.5979  -17.7017 O   0  0  0  0  0  0  0  0  0  0  0  0
   20.9147  -11.3226  -18.8540 N   0  0  0  0  0  0  0  0  0  0  0  0
   21.5793  -10.0324  -18.6203 C   0  0  1  0  0  0  0  0  0  0  0  0
   21.8481   -9.3278  -19.8889 C   0  0  0  0  0  0  0  0  0  0  0  0
   22.5084   -7.9990  -19.7078 C   0  0  0  0  0  0  0  0  0  0  0  0
   22.7823   -7.2599  -20.9479 C   0  0  0  0  0  0  0  0  0  0  0  0
   21.8498   -6.5570  -21.4150 O   0  0  0  0  0  0  0  0  0  0  0  0
   20.7064   -9.2263  -17.7254 C   0  0  0  0  0  0  0  0  0  0  0  0
   19.4813   -9.4450  -17.6592 O   0  0  0  0  0  0  0  0  0  0  0  0
   23.9728   -7.2658  -21.6511 O   0  0  0  0  0  0  0  0  0  0  0  0
   17.9719   -9.1341  -12.9643 N   0  0  0  0  0  0  0  0  0  0  0  0
   19.3274   -8.7924  -12.6701 C   0  0  0  0  0  0  0  0  0  0  0  0
   19.6774   -8.8084  -11.4464 O   0  0  0  0  0  0  0  0  0  0  0  0
   20.3124   -8.4386  -13.6953 C   0  0  0  0  0  0  0  0  0  0  0  0
   19.7622   -8.4567  -15.0618 C   0  0  0  0  0  0  0  0  0  0  0  0
   20.3347   -7.4499  -15.9848 C   0  0  2  0  0  0  0  0  0  0  0  0
   21.2266   -8.1907  -16.9226 N   0  0  0  0  0  0  0  0  0  0  0  0
   21.0550   -6.3216  -15.4530 C   0  0  0  0  0  0  0  0  0  0  0  0
   20.4243   -5.2383  -14.8180 O   0  0  0  0  0  0  0  0  0  0  0  0
   22.3151   -6.2777  -15.5591 O   0  0  0  0  0  0  0  0  0  0  0  0
  2  1  1  1
  2  3  1  0
  4  3  1  0
  4  5  1  0
  6  5  1  0
  7  6  1  0
  8  2  1  0
  8  9  2  0
 10  8  1  0
 11 10  1  0
 11 12  1  6
 13 12  1  0
 13 14  1  0
 14 15  2  0
 16 11  1  0
 17 16  2  0
 18 14  1  0
 19 20  1  0
 20 21  2  0
 22 20  1  0
 22 23  1  0
 24 23  1  1
 24 25  1  0
 24 26  1  0
 25 16  1  0
 26 27  1  0
 28 26  2  0
M  END
$$$$
