KEQ.pdb
     RDKit          3D

 28 27  0  0  1  0  0  0  0  0999 V2000
   14.3777  -11.0692  -13.4788 N   0  0  0  0  0  0  0  0  0  0  0  0
   15.5734  -10.6357  -14.0841 C   0  0  1  0  0  0  0  0  0  0  0  0
   15.7899  -10.9378  -15.5036 C   0  0  0  0  0  0  0  0  0  0  0  0
   14.9632  -11.9385  -16.1630 C   0  0  0  0  0  0  0  0  0  0  0  0
   15.1300  -12.4568  -17.5131 C   0  0  0  0  0  0  0  0  0  0  0  0
   14.2305  -13.4529  -18.1041 C   0  0  0  0  0  0  0  0  0  0  0  0
   14.0762  -14.6880  -17.3684 N   0  0  0  0  0  0  0  0  0  0  0  0
   15.7156   -9.1568  -13.7990 C   0  0  0  0  0  0  0  0  0  0  0  0
   15.1032   -8.3639  -14.5356 O   0  0  0  0  0  0  0  0  0  0  0  0
   16.5018   -8.6971  -12.7514 N   0  0  0  0  0  0  0  0  0  0  0  0
   16.6943   -7.2756  -12.4300 C   0  0  1  0  0  0  0  0  0  0  0  0
   16.7367   -7.0545  -10.9715 C   0  0  0  0  0  0  0  0  0  0  0  0
   16.9596   -5.6270  -10.5882 C   0  0  0  0  0  0  0  0  0  0  0  0
   17.0248   -5.3677   -9.1434 C   0  0  0  0  0  0  0  0  0  0  0  0
   17.1491   -4.1700   -8.7802 O   0  0  0  0  0  0  0  0  0  0  0  0
   17.9526   -6.8273  -13.0845 C   0  0  0  0  0  0  0  0  0  0  0  0
   18.3161   -5.6368  -13.0252 O   0  0  0  0  0  0  0  0  0  0  0  0
   16.9627   -6.3206   -8.1433 O   0  0  0  0  0  0  0  0  0  0  0  0
   22.9434  -10.4270  -14.1680 N   0  0  0  0  0  0  0  0  0  0  0  0
   23.1769   -9.2940  -15.0063 C   0  0  0  0  0  0  0  0  0  0  0  0
   24.2599   -9.2803  -15.6750 O   0  0  0  0  0  0  0  0  0  0  0  0
   22.2399   -8.1748  -15.1317 C   0  0  0  0  0  0  0  0  0  0  0  0
   21.0083   -8.3557  -14.3438 C   0  0  0  0  0  0  0  0  0  0  0  0
   20.0362   -7.2418  -14.4299 C   0  0  2  0  0  0  0  0  0  0  0  0
   18.7776   -7.7249  -13.7923 N   0  0  0  0  0  0  0  0  0  0  0  0
   19.7169   -6.6702  -15.7128 C   0  0  0  0  0  0  0  0  0  0  0  0
   20.3400   -5.5154  -16.2153 O   0  0  0  0  0  0  0  0  0  0  0  0
   18.8301   -7.2113  -16.4352 O   0  0  0  0  0  0  0  0  0  0  0  0
  2  1  1  6
  2  3  1  0
  4  3  1  0
  4  5  1  0
  6  5  1  0
  7  6  1  0
  8  2  1  0
  8  9  2  0
 10  8  1  0
 11 10  1  0
 11 12  1  1
 13 12  1  0
 13 14  1  0
 14 15  2  0
 16 11  1  0
 17 16  2  0
 18 14  1  0
 19 20  1  0
 20 21  2  0
 22 20  1  0
 22 23  1  0
 24 23  1  6
 24 25  1  0
 24 26  1  0
 25 16  1  0
 26 27  1  0
 28 26  2  0
M  END
$$$$
