KEQ.pdb
     RDKit          3D

 28 27  0  0  1  0  0  0  0  0999 V2000
   18.7948  -12.1286  -15.4207 N   0  0  0  0  0  0  0  0  0  0  0  0
   18.5765  -11.0359  -16.2822 C   0  0  1  0  0  0  0  0  0  0  0  0
   17.4132  -11.0693  -17.1757 C   0  0  0  0  0  0  0  0  0  0  0  0
   17.0810  -12.2979  -17.8827 C   0  0  0  0  0  0  0  0  0  0  0  0
   15.8884  -13.1132  -17.7034 C   0  0  0  0  0  0  0  0  0  0  0  0
   15.5869  -14.2830  -18.5350 C   0  0  0  0  0  0  0  0  0  0  0  0
   14.4236  -15.0526  -18.1543 N   0  0  0  0  0  0  0  0  0  0  0  0
   18.5967   -9.7813  -15.4370 C   0  0  0  0  0  0  0  0  0  0  0  0
   17.9704   -9.7969  -14.3628 O   0  0  0  0  0  0  0  0  0  0  0  0
   19.2901   -8.6495  -15.8435 N   0  0  0  0  0  0  0  0  0  0  0  0
   19.4331   -7.4353  -15.0272 C   0  0  1  0  0  0  0  0  0  0  0  0
   20.8497   -7.0479  -14.8824 C   0  0  0  0  0  0  0  0  0  0  0  0
   21.0510   -5.8007  -14.0835 C   0  0  0  0  0  0  0  0  0  0  0  0
   22.4519   -5.4298  -13.8407 C   0  0  0  0  0  0  0  0  0  0  0  0
   22.6647   -4.3168  -13.2950 O   0  0  0  0  0  0  0  0  0  0  0  0
   18.6379   -6.3566  -15.6728 C   0  0  0  0  0  0  0  0  0  0  0  0
   18.7277   -6.1401  -16.8968 O   0  0  0  0  0  0  0  0  0  0  0  0
   23.5609   -6.1924  -14.1578 O   0  0  0  0  0  0  0  0  0  0  0  0
   12.9404   -4.5676  -14.1577 N   0  0  0  0  0  0  0  0  0  0  0  0
   13.3749   -3.5163  -15.0219 C   0  0  0  0  0  0  0  0  0  0  0  0
   12.5122   -2.6388  -15.3474 O   0  0  0  0  0  0  0  0  0  0  0  0
   14.7433   -3.4037  -15.5329 C   0  0  0  0  0  0  0  0  0  0  0  0
   15.6181   -4.5080  -15.1019 C   0  0  0  0  0  0  0  0  0  0  0  0
   17.0101   -4.4413  -15.6032 C   0  0  2  0  0  0  0  0  0  0  0  0
   17.7579   -5.5425  -14.9310 N   0  0  0  0  0  0  0  0  0  0  0  0
   17.7606   -3.2196  -15.4663 C   0  0  0  0  0  0  0  0  0  0  0  0
   18.8458   -3.0798  -14.5846 O   0  0  0  0  0  0  0  0  0  0  0  0
   17.4401   -2.2082  -16.1558 O   0  0  0  0  0  0  0  0  0  0  0  0
  2  1  1  1
  2  3  1  0
  4  3  1  0
  4  5  1  0
  6  5  1  0
  7  6  1  0
  8  2  1  0
  8  9  2  0
 10  8  1  0
 11 10  1  0
 11 12  1  6
 13 12  1  0
 13 14  1  0
 14 15  2  0
 16 11  1  0
 17 16  2  0
 18 14  1  0
 19 20  1  0
 20 21  2  0
 22 20  1  0
 22 23  1  0
 24 23  1  1
 24 25  1  0
 24 26  1  0
 25 16  1  0
 26 27  1  0
 28 26  2  0
M  END
$$$$
