KEQ.pdb
     RDKit          3D

 28 27  0  0  1  0  0  0  0  0999 V2000
   20.6448  -12.8145  -16.0417 N   0  0  0  0  0  0  0  0  0  0  0  0
   20.2233  -11.5867  -16.5884 C   0  0  1  0  0  0  0  0  0  0  0  0
   18.8217  -11.1878  -16.4176 C   0  0  0  0  0  0  0  0  0  0  0  0
   17.7635  -12.1702  -16.6041 C   0  0  0  0  0  0  0  0  0  0  0  0
   17.3230  -12.7503  -17.8645 C   0  0  0  0  0  0  0  0  0  0  0  0
   16.1785  -13.6613  -17.9688 C   0  0  0  0  0  0  0  0  0  0  0  0
   15.8316  -14.0984  -19.3027 N   0  0  0  0  0  0  0  0  0  0  0  0
   21.1731  -10.5193  -16.0913 C   0  0  0  0  0  0  0  0  0  0  0  0
   21.3311  -10.4117  -14.8626 O   0  0  0  0  0  0  0  0  0  0  0  0
   21.8474   -9.6867  -16.9741 N   0  0  0  0  0  0  0  0  0  0  0  0
   22.7429   -8.5982  -16.5566 C   0  0  1  0  0  0  0  0  0  0  0  0
   23.8970   -8.4714  -17.4676 C   0  0  0  0  0  0  0  0  0  0  0  0
   24.9256   -7.4933  -16.9989 C   0  0  0  0  0  0  0  0  0  0  0  0
   26.0482   -7.2726  -17.9208 C   0  0  0  0  0  0  0  0  0  0  0  0
   26.2700   -8.1647  -18.7791 O   0  0  0  0  0  0  0  0  0  0  0  0
   21.9448   -7.3437  -16.5127 C   0  0  0  0  0  0  0  0  0  0  0  0
   21.1257   -7.0743  -17.4124 O   0  0  0  0  0  0  0  0  0  0  0  0
   26.8861   -6.1726  -17.9320 O   0  0  0  0  0  0  0  0  0  0  0  0
   17.8678   -5.1479  -17.3978 N   0  0  0  0  0  0  0  0  0  0  0  0
   17.7874   -4.5281  -16.1131 C   0  0  0  0  0  0  0  0  0  0  0  0
   16.8056   -3.7447  -15.9072 O   0  0  0  0  0  0  0  0  0  0  0  0
   18.7621   -4.7564  -15.0434 C   0  0  0  0  0  0  0  0  0  0  0  0
   19.7983   -5.7409  -15.4005 C   0  0  0  0  0  0  0  0  0  0  0  0
   21.1870   -5.2266  -15.3871 C   0  0  2  0  0  0  0  0  0  0  0  0
   22.0824   -6.4169  -15.4594 N   0  0  0  0  0  0  0  0  0  0  0  0
   21.6251   -4.3811  -14.3065 C   0  0  0  0  0  0  0  0  0  0  0  0
   21.2552   -3.0305  -14.1901 O   0  0  0  0  0  0  0  0  0  0  0  0
   22.3868   -4.8526  -13.4129 O   0  0  0  0  0  0  0  0  0  0  0  0
  2  1  1  1
  2  3  1  0
  4  3  1  0
  4  5  1  0
  6  5  1  0
  7  6  1  0
  8  2  1  0
  8  9  2  0
 10  8  1  0
 11 10  1  0
 11 12  1  6
 13 12  1  0
 13 14  1  0
 14 15  2  0
 16 11  1  0
 17 16  2  0
 18 14  1  0
 19 20  1  0
 20 21  2  0
 22 20  1  0
 22 23  1  0
 24 23  1  1
 24 25  1  0
 24 26  1  0
 25 16  1  0
 26 27  1  0
 28 26  2  0
M  END
$$$$
