KEQ.pdb
     RDKit          3D

 28 27  0  0  1  0  0  0  0  0999 V2000
   24.8509  -18.8490  -16.8855 N   0  0  0  0  0  0  0  0  0  0  0  0
   25.0597  -19.5753  -15.6969 C   0  0  1  0  0  0  0  0  0  0  0  0
   26.3548  -19.4521  -15.0185 C   0  0  0  0  0  0  0  0  0  0  0  0
   27.5780  -19.7942  -15.7302 C   0  0  0  0  0  0  0  0  0  0  0  0
   27.8984  -21.0710  -16.3518 C   0  0  0  0  0  0  0  0  0  0  0  0
   29.1118  -21.2919  -17.1454 C   0  0  0  0  0  0  0  0  0  0  0  0
   29.2276  -22.5829  -17.7862 N   0  0  0  0  0  0  0  0  0  0  0  0
   23.9088  -19.2620  -14.7662 C   0  0  0  0  0  0  0  0  0  0  0  0
   24.1390  -19.2513  -13.5442 O   0  0  0  0  0  0  0  0  0  0  0  0
   22.6378  -18.9948  -15.2563 N   0  0  0  0  0  0  0  0  0  0  0  0
   21.4867  -18.6473  -14.4106 C   0  0  1  0  0  0  0  0  0  0  0  0
   20.7483  -17.4914  -14.9553 C   0  0  0  0  0  0  0  0  0  0  0  0
   19.5388  -17.1234  -14.1576 C   0  0  0  0  0  0  0  0  0  0  0  0
   18.7409  -16.0160  -14.7017 C   0  0  0  0  0  0  0  0  0  0  0  0
   19.1747  -15.4513  -15.7385 O   0  0  0  0  0  0  0  0  0  0  0  0
   20.6166  -19.8495  -14.3099 C   0  0  0  0  0  0  0  0  0  0  0  0
   20.4487  -20.6022  -15.2888 O   0  0  0  0  0  0  0  0  0  0  0  0
   17.5547  -15.5354  -14.1783 O   0  0  0  0  0  0  0  0  0  0  0  0
   19.5599  -23.1802   -9.1615 N   0  0  0  0  0  0  0  0  0  0  0  0
   18.5951  -23.6893  -10.0839 C   0  0  0  0  0  0  0  0  0  0  0  0
   17.8557  -24.6443   -9.6821 O   0  0  0  0  0  0  0  0  0  0  0  0
   18.4197  -23.1658  -11.4409 C   0  0  0  0  0  0  0  0  0  0  0  0
   19.2795  -22.0056  -11.7328 C   0  0  0  0  0  0  0  0  0  0  0  0
   19.0618  -21.3773  -13.0561 C   0  0  2  0  0  0  0  0  0  0  0  0
   19.9523  -20.1825  -13.1118 N   0  0  0  0  0  0  0  0  0  0  0  0
   17.7333  -20.9849  -13.4505 C   0  0  0  0  0  0  0  0  0  0  0  0
   17.1195  -19.8007  -13.0083 O   0  0  0  0  0  0  0  0  0  0  0  0
   17.0647  -21.7304  -14.2239 O   0  0  0  0  0  0  0  0  0  0  0  0
  2  1  1  6
  2  3  1  0
  4  3  1  0
  4  5  1  0
  6  5  1  0
  7  6  1  0
  8  2  1  0
  8  9  2  0
 10  8  1  0
 11 10  1  0
 11 12  1  6
 13 12  1  0
 13 14  1  0
 14 15  2  0
 16 11  1  0
 17 16  2  0
 18 14  1  0
 19 20  1  0
 20 21  2  0
 22 20  1  0
 22 23  1  0
 24 23  1  1
 24 25  1  0
 24 26  1  0
 25 16  1  0
 26 27  1  0
 28 26  2  0
M  END
$$$$
