GSC.pdb
     RDKit          3D

 17 16  0  0  1  0  0  0  0  0999 V2000
   -1.8411  -25.4254   24.9970 N   0  0  0  0  0  0  0  0  0  0  0  0
   -2.2981  -25.8803   26.2700 C   0  0  0  0  0  0  0  0  0  0  0  0
   -2.8660  -24.7597   27.0891 C   0  0  0  0  0  0  0  0  0  0  0  0
   -2.9485  -24.8476   28.3374 O   0  0  0  0  0  0  0  0  0  0  0  0
   -4.7624  -21.4006   25.3550 O   0  0  0  0  0  0  0  0  0  0  0  0
   -4.0366  -21.2155   26.5176 C   0  0  0  0  0  0  0  0  0  0  0  0
   -4.0024  -22.5183   27.2864 C   0  0  2  0  0  0  0  0  0  0  0  0
   -3.3329  -23.5583   26.5005 N   0  0  0  0  0  0  0  0  0  0  0  0
   -5.3178  -22.9712   27.7629 C   0  0  0  0  0  0  0  0  0  0  0  0
   -5.9887  -23.7458   26.9951 O   0  0  0  0  0  0  0  0  0  0  0  0
   -5.9347  -22.6507   28.9788 N   0  0  0  0  0  0  0  0  0  0  0  0
   -7.2357  -23.1204   29.3930 C   0  0  1  0  0  0  0  0  0  0  0  0
   -7.1207  -24.1935   30.4713 C   0  0  0  0  0  0  0  0  0  0  0  0
   -8.8115  -24.6974   30.8948 S   0  0  0  0  0  0  0  0  0  0  0  0
   -8.1163  -22.0770   29.8913 C   0  0  0  0  0  0  0  0  0  0  0  0
   -7.6577  -21.1132   30.5368 O   0  0  0  0  0  0  0  0  0  0  0  0
   -9.4733  -22.1292   29.6626 O   0  0  0  0  0  0  0  0  0  0  0  0
  1  2  1  0
  2  3  1  0
  3  8  1  0
  3  4  2  0
  5  6  1  0
  7  6  1  6
  7  9  1  0
  8  7  1  0
  9 10  2  0
  9 11  1  0
 11 12  1  0
 12 13  1  1
 14 13  1  0
 15 12  1  0
 15 17  1  0
 16 15  2  0
M  END
$$$$
