GSC.pdb
     RDKit          3D

 17 16  0  0  1  0  0  0  0  0999 V2000
   16.6993  -24.2932   39.3449 N   0  0  0  0  0  0  0  0  0  0  0  0
   16.2056  -24.4515   40.6744 C   0  0  0  0  0  0  0  0  0  0  0  0
   15.4489  -23.2409   41.1337 C   0  0  0  0  0  0  0  0  0  0  0  0
   15.7865  -22.0895   40.7689 O   0  0  0  0  0  0  0  0  0  0  0  0
   12.5401  -23.6325   43.9588 O   0  0  0  0  0  0  0  0  0  0  0  0
   12.3140  -22.5438   43.1364 C   0  0  0  0  0  0  0  0  0  0  0  0
   13.6176  -22.1483   42.4779 C   0  0  2  0  0  0  0  0  0  0  0  0
   14.3266  -23.3358   41.9935 N   0  0  0  0  0  0  0  0  0  0  0  0
   14.4872  -21.3114   43.3180 C   0  0  0  0  0  0  0  0  0  0  0  0
   15.3096  -21.9101   44.0958 O   0  0  0  0  0  0  0  0  0  0  0  0
   14.5238  -19.9123   43.3690 N   0  0  0  0  0  0  0  0  0  0  0  0
   15.3642  -19.1405   44.2540 C   0  0  1  0  0  0  0  0  0  0  0  0
   15.8049  -17.8338   43.6012 C   0  0  0  0  0  0  0  0  0  0  0  0
   17.1604  -17.1727   44.6100 S   0  0  0  0  0  0  0  0  0  0  0  0
   14.7493  -18.8183   45.5309 C   0  0  0  0  0  0  0  0  0  0  0  0
   13.5520  -18.4737   45.5906 O   0  0  0  0  0  0  0  0  0  0  0  0
   15.4732  -18.8862   46.7004 O   0  0  0  0  0  0  0  0  0  0  0  0
  1  2  1  0
  2  3  1  0
  3  8  1  0
  3  4  2  0
  5  6  1  0
  7  6  1  1
  7  9  1  0
  8  7  1  0
  9 10  2  0
  9 11  1  0
 11 12  1  0
 12 13  1  6
 14 13  1  0
 15 12  1  0
 15 17  1  0
 16 15  2  0
M  END
$$$$
