GSC.pdb
     RDKit          3D

 17 16  0  0  1  0  0  0  0  0999 V2000
    8.2157  -17.0084   17.3421 N   0  0  0  0  0  0  0  0  0  0  0  0
    7.4675  -16.8588   18.5480 C   0  0  0  0  0  0  0  0  0  0  0  0
    8.2785  -16.2057   19.6273 C   0  0  0  0  0  0  0  0  0  0  0  0
    9.4941  -15.9481   19.4575 O   0  0  0  0  0  0  0  0  0  0  0  0
    6.7160  -15.2135   23.4492 O   0  0  0  0  0  0  0  0  0  0  0  0
    7.5577  -14.3343   22.7924 C   0  0  0  0  0  0  0  0  0  0  0  0
    8.4855  -15.1230   21.8943 C   0  0  2  0  0  0  0  0  0  0  0  0
    7.7185  -15.8507   20.8796 N   0  0  0  0  0  0  0  0  0  0  0  0
    9.4042  -16.0175   22.6142 C   0  0  0  0  0  0  0  0  0  0  0  0
    9.0658  -17.2477   22.7225 O   0  0  0  0  0  0  0  0  0  0  0  0
   10.6276  -15.6778   23.2054 N   0  0  0  0  0  0  0  0  0  0  0  0
   11.4958  -16.6027   23.8951 C   0  0  1  0  0  0  0  0  0  0  0  0
   12.9187  -16.0609   23.9921 C   0  0  0  0  0  0  0  0  0  0  0  0
   13.5180  -15.8490   22.2927 S   0  0  0  0  0  0  0  0  0  0  0  0
   11.0554  -16.9478   25.2365 C   0  0  0  0  0  0  0  0  0  0  0  0
   10.1101  -16.3353   25.7722 O   0  0  0  0  0  0  0  0  0  0  0  0
   11.6706  -17.9563   25.9442 O   0  0  0  0  0  0  0  0  0  0  0  0
  1  2  1  0
  2  3  1  0
  3  8  1  0
  3  4  2  0
  5  6  1  0
  7  6  1  1
  7  9  1  0
  8  7  1  0
  9 10  2  0
  9 11  1  0
 11 12  1  0
 12 13  1  1
 14 13  1  0
 15 12  1  0
 15 17  1  0
 16 15  2  0
M  END
$$$$
