GSC.pdb
     RDKit          3D

 17 16  0  0  1  0  0  0  0  0999 V2000
    4.1940  -19.9850   16.6169 N   0  0  0  0  0  0  0  0  0  0  0  0
    3.4603  -20.5100   17.7225 C   0  0  0  0  0  0  0  0  0  0  0  0
    3.6562  -19.6864   18.9605 C   0  0  0  0  0  0  0  0  0  0  0  0
    4.4087  -18.6832   18.9581 O   0  0  0  0  0  0  0  0  0  0  0  0
    1.5957  -20.5273   22.4635 O   0  0  0  0  0  0  0  0  0  0  0  0
    2.0501  -19.2316   22.2985 C   0  0  0  0  0  0  0  0  0  0  0  0
    3.2779  -19.2519   21.4145 C   0  0  2  0  0  0  0  0  0  0  0  0
    3.0082  -19.9968   20.1818 N   0  0  0  0  0  0  0  0  0  0  0  0
    4.4925  -19.7436   22.0819 C   0  0  0  0  0  0  0  0  0  0  0  0
    4.8224  -20.9646   21.8819 O   0  0  0  0  0  0  0  0  0  0  0  0
    5.3470  -19.0219   22.9249 N   0  0  0  0  0  0  0  0  0  0  0  0
    6.4874  -19.5770   23.6152 C   0  0  1  0  0  0  0  0  0  0  0  0
    7.3713  -18.4789   24.1986 C   0  0  0  0  0  0  0  0  0  0  0  0
    7.7986  -17.3653   22.8313 S   0  0  0  0  0  0  0  0  0  0  0  0
    6.1463  -20.4954   24.6889 C   0  0  0  0  0  0  0  0  0  0  0  0
    4.9611  -20.6383   25.0502 O   0  0  0  0  0  0  0  0  0  0  0  0
    7.1219  -21.2263   25.3296 O   0  0  0  0  0  0  0  0  0  0  0  0
  1  2  1  0
  2  3  1  0
  3  8  1  0
  3  4  2  0
  5  6  1  0
  7  6  1  1
  7  9  1  0
  8  7  1  0
  9 10  2  0
  9 11  1  0
 11 12  1  0
 12 13  1  1
 14 13  1  0
 15 12  1  0
 15 17  1  0
 16 15  2  0
M  END
$$$$
