GSC.pdb
     RDKit          3D

 17 16  0  0  1  0  0  0  0  0999 V2000
   10.4438  -25.0889   27.1385 N   0  0  0  0  0  0  0  0  0  0  0  0
   10.7196  -25.5800   28.4496 C   0  0  0  0  0  0  0  0  0  0  0  0
   10.9050  -24.4632   29.4334 C   0  0  0  0  0  0  0  0  0  0  0  0
   10.9787  -23.2707   29.0525 O   0  0  0  0  0  0  0  0  0  0  0  0
   11.0093  -25.2485   33.4629 O   0  0  0  0  0  0  0  0  0  0  0  0
   10.6135  -23.9661   33.1289 C   0  0  0  0  0  0  0  0  0  0  0  0
   11.2063  -23.6052   31.7843 C   0  0  2  0  0  0  0  0  0  0  0  0
   11.0053  -24.6966   30.8274 N   0  0  0  0  0  0  0  0  0  0  0  0
   12.6172  -23.1943   31.8388 C   0  0  0  0  0  0  0  0  0  0  0  0
   13.5032  -24.1165   31.7731 O   0  0  0  0  0  0  0  0  0  0  0  0
   13.1160  -21.8908   31.9555 N   0  0  0  0  0  0  0  0  0  0  0  0
   14.5171  -21.5436   31.9919 C   0  0  1  0  0  0  0  0  0  0  0  0
   14.7302  -20.0641   31.6861 C   0  0  0  0  0  0  0  0  0  0  0  0
   16.0046  -19.9713   30.3979 S   0  0  0  0  0  0  0  0  0  0  0  0
   15.1727  -21.8389   33.2550 C   0  0  0  0  0  0  0  0  0  0  0  0
   14.5025  -22.1308   34.2656 O   0  0  0  0  0  0  0  0  0  0  0  0
   16.5450  -21.8032   33.3637 O   0  0  0  0  0  0  0  0  0  0  0  0
  1  2  1  0
  2  3  1  0
  3  8  1  0
  3  4  2  0
  5  6  1  0
  7  6  1  1
  7  9  1  0
  8  7  1  0
  9 10  2  0
  9 11  1  0
 11 12  1  0
 12 13  1  1
 14 13  1  0
 15 12  1  0
 15 17  1  0
 16 15  2  0
M  END
$$$$
