GSC.pdb
     RDKit          3D

 17 16  0  0  1  0  0  0  0  0999 V2000
   11.9686  -16.8582   19.9907 N   0  0  0  0  0  0  0  0  0  0  0  0
   10.7339  -17.3076   20.5475 C   0  0  0  0  0  0  0  0  0  0  0  0
    9.9335  -16.1722   21.1126 C   0  0  0  0  0  0  0  0  0  0  0  0
   10.4855  -15.1013   21.4607 O   0  0  0  0  0  0  0  0  0  0  0  0
    5.8150  -16.4884   21.8852 O   0  0  0  0  0  0  0  0  0  0  0  0
    6.2949  -15.2679   21.4461 C   0  0  0  0  0  0  0  0  0  0  0  0
    7.7504  -15.1433   21.8404 C   0  0  2  0  0  0  0  0  0  0  0  0
    8.5286  -16.2513   21.2800 N   0  0  0  0  0  0  0  0  0  0  0  0
    7.9731  -15.0114   23.2880 C   0  0  0  0  0  0  0  0  0  0  0  0
    8.4431  -16.0287   23.9077 O   0  0  0  0  0  0  0  0  0  0  0  0
    7.7283  -13.8851   24.0836 N   0  0  0  0  0  0  0  0  0  0  0  0
    7.8464  -13.8495   25.5223 C   0  0  1  0  0  0  0  0  0  0  0  0
    7.1541  -12.6214   26.1056 C   0  0  0  0  0  0  0  0  0  0  0  0
    7.6942  -12.4833   27.8322 S   0  0  0  0  0  0  0  0  0  0  0  0
    7.3160  -15.0241   26.1941 C   0  0  0  0  0  0  0  0  0  0  0  0
    6.1636  -15.4319   25.9458 O   0  0  0  0  0  0  0  0  0  0  0  0
    8.0721  -15.7114   27.1174 O   0  0  0  0  0  0  0  0  0  0  0  0
  1  2  1  0
  2  3  1  0
  3  8  1  0
  3  4  2  0
  5  6  1  0
  7  6  1  1
  7  9  1  0
  8  7  1  0
  9 10  2  0
  9 11  1  0
 11 12  1  0
 12 13  1  1
 14 13  1  0
 15 12  1  0
 15 17  1  0
 16 15  2  0
M  END
$$$$
