GSC.pdb
     RDKit          3D

 17 16  0  0  1  0  0  0  0  0999 V2000
    9.3795  -17.6040   16.4504 N   0  0  0  0  0  0  0  0  0  0  0  0
    8.8509  -18.3272   17.5612 C   0  0  0  0  0  0  0  0  0  0  0  0
    8.3046  -17.4082   18.6130 C   0  0  0  0  0  0  0  0  0  0  0  0
    8.9424  -16.3926   18.9799 O   0  0  0  0  0  0  0  0  0  0  0  0
    4.7971  -18.2674   20.7463 O   0  0  0  0  0  0  0  0  0  0  0  0
    5.0277  -16.9435   20.4193 C   0  0  0  0  0  0  0  0  0  0  0  0
    6.5170  -16.7314   20.2563 C   0  0  2  0  0  0  0  0  0  0  0  0
    7.0542  -17.6385   19.2385 N   0  0  0  0  0  0  0  0  0  0  0  0
    7.2792  -16.8228   21.5106 C   0  0  0  0  0  0  0  0  0  0  0  0
    7.8435  -17.9408   21.7779 O   0  0  0  0  0  0  0  0  0  0  0  0
    7.4652  -15.8141   22.4642 N   0  0  0  0  0  0  0  0  0  0  0  0
    8.1048  -15.9978   23.7457 C   0  0  1  0  0  0  0  0  0  0  0  0
    7.8070  -14.8341   24.6863 C   0  0  0  0  0  0  0  0  0  0  0  0
    8.8283  -15.0788   26.1659 S   0  0  0  0  0  0  0  0  0  0  0  0
    7.7372  -17.2288   24.4254 C   0  0  0  0  0  0  0  0  0  0  0  0
    6.5523  -17.6182   24.4379 O   0  0  0  0  0  0  0  0  0  0  0  0
    8.6866  -17.9906   25.0693 O   0  0  0  0  0  0  0  0  0  0  0  0
  1  2  1  0
  2  3  1  0
  3  8  1  0
  3  4  2  0
  5  6  1  0
  7  6  1  1
  7  9  1  0
  8  7  1  0
  9 10  2  0
  9 11  1  0
 11 12  1  0
 12 13  1  1
 14 13  1  0
 15 12  1  0
 15 17  1  0
 16 15  2  0
M  END
$$$$
