GSC.pdb
     RDKit          3D

 17 16  0  0  1  0  0  0  0  0999 V2000
   -2.0517  -27.2517   26.9851 N   0  0  0  0  0  0  0  0  0  0  0  0
   -1.6790  -26.0591   26.2956 C   0  0  0  0  0  0  0  0  0  0  0  0
   -2.4269  -24.8645   26.8082 C   0  0  0  0  0  0  0  0  0  0  0  0
   -2.4599  -24.5980   28.0332 O   0  0  0  0  0  0  0  0  0  0  0  0
   -4.5630  -22.0421   24.3364 O   0  0  0  0  0  0  0  0  0  0  0  0
   -3.7773  -21.6876   25.4179 C   0  0  0  0  0  0  0  0  0  0  0  0
   -3.8252  -22.7991   26.4434 C   0  0  2  0  0  0  0  0  0  0  0  0
   -3.1264  -23.9862   25.9437 N   0  0  0  0  0  0  0  0  0  0  0  0
   -5.1801  -23.1318   26.9083 C   0  0  0  0  0  0  0  0  0  0  0  0
   -5.8485  -23.9796   26.2196 O   0  0  0  0  0  0  0  0  0  0  0  0
   -5.8378  -22.6230   28.0352 N   0  0  0  0  0  0  0  0  0  0  0  0
   -7.1591  -23.0146   28.4664 C   0  0  1  0  0  0  0  0  0  0  0  0
   -7.3978  -22.6463   29.9276 C   0  0  0  0  0  0  0  0  0  0  0  0
   -6.8787  -20.9191   30.1265 S   0  0  0  0  0  0  0  0  0  0  0  0
   -8.2382  -22.4428   27.6783 C   0  0  0  0  0  0  0  0  0  0  0  0
   -9.4119  -22.8379   27.8270 O   0  0  0  0  0  0  0  0  0  0  0  0
   -7.9893  -21.4547   26.7520 O   0  0  0  0  0  0  0  0  0  0  0  0
  1  2  1  0
  2  3  1  0
  3  8  1  0
  3  4  2  0
  5  6  1  0
  7  6  1  6
  7  9  1  0
  8  7  1  0
  9 10  2  0
  9 11  1  0
 11 12  1  0
 12 13  1  1
 14 13  1  0
 15 12  1  0
 15 17  1  0
 16 15  2  0
M  END
$$$$
