KMC.pdb
     RDKit          3D

 24 23  0  0  1  0  0  0  0  0999 V2000
   28.2357  -19.6597  -15.9256 N   0  0  0  0  0  0  0  0  0  0  0  0
   27.7579  -18.9581  -14.7595 C   0  0  1  0  0  0  0  0  0  0  0  0
   26.9407  -17.7474  -15.0295 C   0  0  0  0  0  0  0  0  0  0  0  0
   27.6127  -16.5980  -15.6761 C   0  0  0  0  0  0  0  0  0  0  0  0
   26.7612  -15.4135  -15.9711 C   0  0  0  0  0  0  0  0  0  0  0  0
   27.5679  -14.3712  -16.7651 C   0  0  0  0  0  0  0  0  0  0  0  0
   26.6565  -13.3110  -17.1531 N   0  0  0  0  0  0  0  0  0  0  0  0
   26.9332  -19.8952  -13.9616 C   0  0  0  0  0  0  0  0  0  0  0  0
   26.4381  -20.9083  -14.5110 O   0  0  0  0  0  0  0  0  0  0  0  0
   26.5589  -20.1639   -7.2922 C   0  0  0  0  0  0  0  0  0  0  0  0
   25.3969  -21.4249   -7.8256 S   0  0  0  0  0  0  0  0  0  0  0  0
   25.2313  -21.5185   -9.6187 C   0  0  0  0  0  0  0  0  0  0  0  0
   26.0615  -20.4800  -10.3428 C   0  0  0  0  0  0  0  0  0  0  0  0
   25.8836  -20.6536  -11.8222 C   0  0  2  0  0  0  0  0  0  0  0  0
   26.6658  -19.7104  -12.5870 N   0  0  0  0  0  0  0  0  0  0  0  0
   24.4965  -20.6185  -12.2748 C   0  0  0  0  0  0  0  0  0  0  0  0
   23.9755  -19.5070  -12.5471 O   0  0  0  0  0  0  0  0  0  0  0  0
   23.6801  -21.7745  -12.4318 N   0  0  0  0  0  0  0  0  0  0  0  0
   22.3638  -21.6354  -12.9738 C   0  0  1  0  0  0  0  0  0  0  0  0
   22.0145  -22.8831  -13.7545 C   0  0  0  0  0  0  0  0  0  0  0  0
   20.2803  -22.8748  -14.2837 S   0  0  0  0  0  0  0  0  0  0  0  0
   21.3450  -21.3475  -11.9265 C   0  0  0  0  0  0  0  0  0  0  0  0
   21.4953  -21.7940  -10.7757 O   0  0  0  0  0  0  0  0  0  0  0  0
   20.2493  -20.5771  -12.2889 O   0  0  0  0  0  0  0  0  0  0  0  0
  2  1  1  6
  2  8  1  0
  2  3  1  0
  4  3  1  0
  4  5  1  0
  5  6  1  0
  6  7  1  0
  8  9  2  0
 10 11  1  0
 11 12  1  0
 13 12  1  0
 14 13  1  1
 15 14  1  0
 15  8  1  0
 16 14  1  0
 17 16  2  0
 18 16  1  0
 19 18  1  0
 19 22  1  0
 19 20  1  1
 21 20  1  0
 22 24  1  0
 23 22  2  0
M  END
$$$$
