KMC.pdb
     RDKit          3D

 24 23  0  0  1  0  0  0  0  0999 V2000
   21.5997  -17.5793  -18.3435 N   0  0  0  0  0  0  0  0  0  0  0  0
   21.0462  -16.9845  -19.5352 C   0  0  1  0  0  0  0  0  0  0  0  0
   20.3504  -17.9204  -20.4554 C   0  0  0  0  0  0  0  0  0  0  0  0
   20.8326  -19.3190  -20.5027 C   0  0  0  0  0  0  0  0  0  0  0  0
   22.2948  -19.5220  -20.3131 C   0  0  0  0  0  0  0  0  0  0  0  0
   22.6297  -21.0223  -20.3783 C   0  0  0  0  0  0  0  0  0  0  0  0
   24.0724  -21.1557  -20.2987 N   0  0  0  0  0  0  0  0  0  0  0  0
   20.0749  -15.9440  -19.1245 C   0  0  0  0  0  0  0  0  0  0  0  0
   19.4768  -15.2733  -19.9997 O   0  0  0  0  0  0  0  0  0  0  0  0
   14.7938  -13.0060  -14.0977 C   0  0  0  0  0  0  0  0  0  0  0  0
   15.9870  -14.2994  -14.4554 S   0  0  0  0  0  0  0  0  0  0  0  0
   16.9769  -13.9597  -15.9238 C   0  0  0  0  0  0  0  0  0  0  0  0
   17.9655  -15.0628  -16.2368 C   0  0  0  0  0  0  0  0  0  0  0  0
   18.8179  -14.6431  -17.3978 C   0  0  2  0  0  0  0  0  0  0  0  0
   19.7760  -15.6563  -17.7743 N   0  0  0  0  0  0  0  0  0  0  0  0
   19.5020  -13.3665  -17.2180 C   0  0  0  0  0  0  0  0  0  0  0  0
   20.6350  -13.3573  -16.6725 O   0  0  0  0  0  0  0  0  0  0  0  0
   18.9666  -12.1113  -17.6244 N   0  0  0  0  0  0  0  0  0  0  0  0
   19.7177  -10.9178  -17.3860 C   0  0  1  0  0  0  0  0  0  0  0  0
   20.0680  -10.2790  -18.7117 C   0  0  0  0  0  0  0  0  0  0  0  0
   20.7243   -8.6032  -18.4917 S   0  0  0  0  0  0  0  0  0  0  0  0
   19.0008   -9.9628  -16.4962 C   0  0  0  0  0  0  0  0  0  0  0  0
   17.7590   -9.9035  -16.5224 O   0  0  0  0  0  0  0  0  0  0  0  0
   19.7667   -9.1641  -15.6590 O   0  0  0  0  0  0  0  0  0  0  0  0
  2  1  1  1
  2  8  1  0
  2  3  1  0
  4  3  1  0
  4  5  1  0
  5  6  1  0
  6  7  1  0
  8  9  2  0
 10 11  1  0
 11 12  1  0
 13 12  1  0
 14 13  1  1
 15 14  1  0
 15  8  1  0
 16 14  1  0
 17 16  2  0
 18 16  1  0
 19 18  1  0
 19 22  1  0
 19 20  1  6
 21 20  1  0
 22 24  1  0
 23 22  2  0
M  END
$$$$
