KMC.pdb
     RDKit          3D

 24 23  0  0  1  0  0  0  0  0999 V2000
   21.2616  -22.0260  -14.6554 N   0  0  0  0  0  0  0  0  0  0  0  0
   21.1142  -20.6226  -14.3572 C   0  0  1  0  0  0  0  0  0  0  0  0
   20.0957  -20.2891  -13.3286 C   0  0  0  0  0  0  0  0  0  0  0  0
   18.6777  -20.2638  -13.7522 C   0  0  0  0  0  0  0  0  0  0  0  0
   18.1497  -21.5096  -14.3722 C   0  0  0  0  0  0  0  0  0  0  0  0
   16.6735  -21.3178  -14.7615 C   0  0  0  0  0  0  0  0  0  0  0  0
   16.2505  -22.5033  -15.4834 N   0  0  0  0  0  0  0  0  0  0  0  0
   22.4219  -20.1103  -13.8856 C   0  0  0  0  0  0  0  0  0  0  0  0
   22.5404  -18.8994  -13.5802 O   0  0  0  0  0  0  0  0  0  0  0  0
   24.0887  -20.9513   -7.9804 C   0  0  0  0  0  0  0  0  0  0  0  0
   25.0523  -21.4705   -9.4040 S   0  0  0  0  0  0  0  0  0  0  0  0
   24.6117  -20.5886  -10.9138 C   0  0  0  0  0  0  0  0  0  0  0  0
   25.3874  -21.0659  -12.1232 C   0  0  0  0  0  0  0  0  0  0  0  0
   24.8484  -20.3908  -13.3497 C   0  0  2  0  0  0  0  0  0  0  0  0
   23.5693  -20.9240  -13.7567 N   0  0  0  0  0  0  0  0  0  0  0  0
   25.7603  -20.3849  -14.4893 C   0  0  0  0  0  0  0  0  0  0  0  0
   25.5601  -21.1947  -15.4302 O   0  0  0  0  0  0  0  0  0  0  0  0
   26.8782  -19.5114  -14.6108 N   0  0  0  0  0  0  0  0  0  0  0  0
   27.6802  -19.5589  -15.7941 C   0  0  1  0  0  0  0  0  0  0  0  0
   28.4757  -18.2771  -15.9059 C   0  0  0  0  0  0  0  0  0  0  0  0
   27.4079  -16.8168  -15.7836 S   0  0  0  0  0  0  0  0  0  0  0  0
   28.5682  -20.7537  -15.8317 C   0  0  0  0  0  0  0  0  0  0  0  0
   28.6306  -21.5113  -14.8476 O   0  0  0  0  0  0  0  0  0  0  0  0
   29.3028  -20.9737  -16.9882 O   0  0  0  0  0  0  0  0  0  0  0  0
  2  1  1  1
  2  8  1  0
  2  3  1  0
  4  3  1  0
  4  5  1  0
  5  6  1  0
  6  7  1  0
  8  9  2  0
 10 11  1  0
 11 12  1  0
 13 12  1  0
 14 13  1  1
 15 14  1  0
 15  8  1  0
 16 14  1  0
 17 16  2  0
 18 16  1  0
 19 18  1  0
 19 22  1  0
 19 20  1  1
 21 20  1  0
 22 24  1  0
 23 22  2  0
M  END
$$$$
