KMC.pdb
     RDKit          3D

 24 23  0  0  1  0  0  0  0  0999 V2000
   27.2252  -21.9012  -18.2786 N   0  0  0  0  0  0  0  0  0  0  0  0
   28.1017  -22.3689  -17.2329 C   0  0  1  0  0  0  0  0  0  0  0  0
   29.5554  -22.2270  -17.5034 C   0  0  0  0  0  0  0  0  0  0  0  0
   30.1505  -23.1122  -18.5296 C   0  0  0  0  0  0  0  0  0  0  0  0
   30.9541  -22.4478  -19.5916 C   0  0  0  0  0  0  0  0  0  0  0  0
   31.5039  -23.5002  -20.5702 C   0  0  0  0  0  0  0  0  0  0  0  0
   32.3847  -22.8192  -21.5006 N   0  0  0  0  0  0  0  0  0  0  0  0
   27.7927  -21.6121  -15.9974 C   0  0  0  0  0  0  0  0  0  0  0  0
   28.4607  -21.8231  -14.9569 O   0  0  0  0  0  0  0  0  0  0  0  0
   26.1960  -15.1574  -14.8320 C   0  0  0  0  0  0  0  0  0  0  0  0
   27.3185  -16.0053  -15.9482 S   0  0  0  0  0  0  0  0  0  0  0  0
   27.5418  -17.7465  -15.5361 C   0  0  0  0  0  0  0  0  0  0  0  0
   26.2663  -18.4080  -15.0592 C   0  0  0  0  0  0  0  0  0  0  0  0
   26.5496  -19.8455  -14.7371 C   0  0  2  0  0  0  0  0  0  0  0  0
   26.7665  -20.6444  -15.9208 N   0  0  0  0  0  0  0  0  0  0  0  0
   25.5476  -20.4868  -13.8917 C   0  0  0  0  0  0  0  0  0  0  0  0
   24.6758  -21.2152  -14.4308 O   0  0  0  0  0  0  0  0  0  0  0  0
   25.4887  -20.3424  -12.4764 N   0  0  0  0  0  0  0  0  0  0  0  0
   24.4183  -20.9556  -11.7525 C   0  0  1  0  0  0  0  0  0  0  0  0
   24.6413  -20.7522  -10.2703 C   0  0  0  0  0  0  0  0  0  0  0  0
   26.1663  -21.5564   -9.7089 S   0  0  0  0  0  0  0  0  0  0  0  0
   23.0829  -20.4496  -12.1748 C   0  0  0  0  0  0  0  0  0  0  0  0
   22.9767  -19.3096  -12.6601 O   0  0  0  0  0  0  0  0  0  0  0  0
   21.9925  -21.2906  -12.0044 O   0  0  0  0  0  0  0  0  0  0  0  0
  2  1  1  6
  2  8  1  0
  2  3  1  0
  4  3  1  0
  4  5  1  0
  5  6  1  0
  6  7  1  0
  8  9  2  0
 10 11  1  0
 11 12  1  0
 13 12  1  0
 14 13  1  6
 15 14  1  0
 15  8  1  0
 16 14  1  0
 17 16  2  0
 18 16  1  0
 19 18  1  0
 19 22  1  0
 19 20  1  1
 21 20  1  0
 22 24  1  0
 23 22  2  0
M  END
$$$$
