KMC.pdb
     RDKit          3D

 24 23  0  0  1  0  0  0  0  0999 V2000
   20.9185  -14.8869  -17.5612 N   0  0  0  0  0  0  0  0  0  0  0  0
   20.8421  -13.5389  -18.0686 C   0  0  1  0  0  0  0  0  0  0  0  0
   19.4823  -13.0691  -18.4389 C   0  0  0  0  0  0  0  0  0  0  0  0
   18.7405  -13.8512  -19.4532 C   0  0  0  0  0  0  0  0  0  0  0  0
   17.4690  -13.2564  -19.9480 C   0  0  0  0  0  0  0  0  0  0  0  0
   16.8662  -14.1463  -21.0490 C   0  0  0  0  0  0  0  0  0  0  0  0
   15.7325  -13.4396  -21.6153 N   0  0  0  0  0  0  0  0  0  0  0  0
   21.3730  -12.6236  -17.0317 C   0  0  0  0  0  0  0  0  0  0  0  0
   20.9376  -12.6967  -15.8575 O   0  0  0  0  0  0  0  0  0  0  0  0
   27.4690  -10.4196  -16.3263 C   0  0  0  0  0  0  0  0  0  0  0  0
   26.5866   -9.6850  -14.9456 S   0  0  0  0  0  0  0  0  0  0  0  0
   24.7947   -9.7742  -15.1256 C   0  0  0  0  0  0  0  0  0  0  0  0
   24.3562  -10.7776  -16.1711 C   0  0  0  0  0  0  0  0  0  0  0  0
   22.8593  -10.7629  -16.2683 C   0  0  2  0  0  0  0  0  0  0  0  0
   22.3636  -11.6513  -17.2936 N   0  0  0  0  0  0  0  0  0  0  0  0
   22.2758   -9.4371  -16.4467 C   0  0  0  0  0  0  0  0  0  0  0  0
   22.3363   -8.8955  -17.5800 O   0  0  0  0  0  0  0  0  0  0  0  0
   21.6325   -8.7035  -15.4097 N   0  0  0  0  0  0  0  0  0  0  0  0
   21.1761   -7.3733  -15.6705 C   0  0  1  0  0  0  0  0  0  0  0  0
   19.7335   -7.2491  -15.2328 C   0  0  0  0  0  0  0  0  0  0  0  0
   19.1659   -5.5279  -15.2873 S   0  0  0  0  0  0  0  0  0  0  0  0
   22.0310   -6.3412  -15.0212 C   0  0  0  0  0  0  0  0  0  0  0  0
   22.5716   -6.5821  -13.9275 O   0  0  0  0  0  0  0  0  0  0  0  0
   22.1900   -5.1300  -15.6794 O   0  0  0  0  0  0  0  0  0  0  0  0
  2  1  1  1
  2  8  1  0
  2  3  1  0
  4  3  1  0
  4  5  1  0
  5  6  1  0
  6  7  1  0
  8  9  2  0
 10 11  1  0
 11 12  1  0
 13 12  1  0
 14 13  1  6
 15 14  1  0
 15  8  1  0
 16 14  1  0
 17 16  2  0
 18 16  1  0
 19 18  1  0
 19 22  1  0
 19 20  1  1
 21 20  1  0
 22 24  1  0
 23 22  2  0
M  END
$$$$
