IGI.pdb
     RDKit          3D

 21 20  0  0  1  0  0  0  0  0999 V2000
    8.0985  -12.0408   20.6418 C   0  0  0  0  0  0  0  0  0  0  0  0
    8.0714  -13.3866   21.2860 C   0  0  0  0  0  0  0  0  0  0  0  0
    7.7770  -14.5260   20.3270 C   0  0  2  0  0  0  0  0  0  0  0  0
    6.4091  -14.2322   19.7475 C   0  0  0  0  0  0  0  0  0  0  0  0
    7.8070  -15.8691   21.0477 C   0  0  2  0  0  0  0  0  0  0  0  0
    6.9024  -15.6947   22.1888 N   0  0  0  0  0  0  0  0  0  0  0  0
    9.1779  -16.0757   21.5727 C   0  0  0  0  0  0  0  0  0  0  0  0
   10.0683  -16.4947   20.7567 O   0  0  0  0  0  0  0  0  0  0  0  0
    9.5727  -15.8425   22.9057 N   0  0  0  0  0  0  0  0  0  0  0  0
   10.8178  -16.4103   23.3810 C   0  0  0  0  0  0  0  0  0  0  0  0
   11.0652  -16.0020   24.8009 C   0  0  0  0  0  0  0  0  0  0  0  0
   12.2348  -15.7299   25.1543 O   0  0  0  0  0  0  0  0  0  0  0  0
    7.7477  -12.5361   26.2991 C   0  0  0  0  0  0  0  0  0  0  0  0
    8.8558  -13.5116   26.1076 C   0  0  0  0  0  0  0  0  0  0  0  0
    9.2957  -14.2682   27.3055 C   0  0  2  0  0  0  0  0  0  0  0  0
    9.5185  -13.4060   28.5307 C   0  0  0  0  0  0  0  0  0  0  0  0
   10.2919  -15.3486   27.1038 C   0  0  2  0  0  0  0  0  0  0  0  0
   10.0377  -15.9110   25.7556 N   0  0  0  0  0  0  0  0  0  0  0  0
   10.3827  -16.4028   28.1006 C   0  0  0  0  0  0  0  0  0  0  0  0
    9.7401  -17.5077   28.0081 O   0  0  0  0  0  0  0  0  0  0  0  0
   11.1727  -16.3034   29.2315 O   0  0  0  0  0  0  0  0  0  0  0  0
  1  2  1  0
  2  3  1  0
  3  5  1  0
  3  4  1  1
  5  6  1  1
  7  8  2  0
  7  5  1  0
  9  7  1  0
 10 11  1  0
 10  9  1  0
 11 18  1  0
 12 11  2  0
 14 13  1  0
 15 14  1  0
 15 16  1  1
 17 15  1  0
 17 18  1  6
 19 17  1  0
 19 21  1  0
 20 19  2  0
M  END
$$$$
