IGI.pdb
     RDKit          3D

 21 20  0  0  1  0  0  0  0  0999 V2000
    6.5555  -13.2480   19.2667 C   0  0  0  0  0  0  0  0  0  0  0  0
    6.7662  -14.4787   20.0841 C   0  0  0  0  0  0  0  0  0  0  0  0
    7.9396  -14.3912   21.0432 C   0  0  2  0  0  0  0  0  0  0  0  0
    9.1539  -14.1123   20.1825 C   0  0  0  0  0  0  0  0  0  0  0  0
    8.0957  -15.6841   21.8359 C   0  0  2  0  0  0  0  0  0  0  0  0
    6.8035  -15.8630   22.5062 N   0  0  0  0  0  0  0  0  0  0  0  0
    9.1283  -15.4607   22.8759 C   0  0  0  0  0  0  0  0  0  0  0  0
    8.8025  -14.7590   23.8936 O   0  0  0  0  0  0  0  0  0  0  0  0
   10.4431  -15.9665   22.8261 N   0  0  0  0  0  0  0  0  0  0  0  0
   11.4526  -15.3901   23.6905 C   0  0  0  0  0  0  0  0  0  0  0  0
   11.4948  -16.1208   24.9974 C   0  0  0  0  0  0  0  0  0  0  0  0
   12.4408  -16.9111   25.2153 O   0  0  0  0  0  0  0  0  0  0  0  0
    9.9206  -12.5921   28.3637 C   0  0  0  0  0  0  0  0  0  0  0  0
   10.5930  -13.7300   27.6789 C   0  0  0  0  0  0  0  0  0  0  0  0
   10.2991  -15.0896   28.1949 C   0  0  2  0  0  0  0  0  0  0  0  0
   10.4275  -15.2185   29.6986 C   0  0  0  0  0  0  0  0  0  0  0  0
   10.8136  -16.2424   27.4160 C   0  0  2  0  0  0  0  0  0  0  0  0
   10.5153  -15.9566   25.9920 N   0  0  0  0  0  0  0  0  0  0  0  0
   10.3746  -17.5786   27.7834 C   0  0  0  0  0  0  0  0  0  0  0  0
   10.8885  -18.2395   28.7537 O   0  0  0  0  0  0  0  0  0  0  0  0
    9.3633  -18.2481   27.1188 O   0  0  0  0  0  0  0  0  0  0  0  0
  1  2  1  0
  2  3  1  0
  3  5  1  0
  3  4  1  6
  5  6  1  1
  7  8  2  0
  7  5  1  0
  9  7  1  0
 10 11  1  0
 10  9  1  0
 11 18  1  0
 12 11  2  0
 14 13  1  0
 15 14  1  0
 15 16  1  1
 17 15  1  0
 17 18  1  6
 19 17  1  0
 19 21  1  0
 20 19  2  0
M  END
$$$$
