IGI.pdb
     RDKit          3D

 21 20  0  0  1  0  0  0  0  0999 V2000
    7.9578  -12.3545   18.2508 C   0  0  0  0  0  0  0  0  0  0  0  0
    8.1626  -13.8133   18.4892 C   0  0  0  0  0  0  0  0  0  0  0  0
    7.5820  -14.3138   19.7995 C   0  0  2  0  0  0  0  0  0  0  0  0
    8.3357  -13.5808   20.8894 C   0  0  0  0  0  0  0  0  0  0  0  0
    7.7381  -15.8252   19.9251 C   0  0  2  0  0  0  0  0  0  0  0  0
    7.0389  -16.3658   18.7547 N   0  0  0  0  0  0  0  0  0  0  0  0
    7.0091  -16.2605   21.1403 C   0  0  0  0  0  0  0  0  0  0  0  0
    5.7742  -15.9443   21.2359 O   0  0  0  0  0  0  0  0  0  0  0  0
    7.5772  -16.9992   22.1981 N   0  0  0  0  0  0  0  0  0  0  0  0
    7.0103  -16.8779   23.5257 C   0  0  0  0  0  0  0  0  0  0  0  0
    7.9090  -16.0586   24.4003 C   0  0  0  0  0  0  0  0  0  0  0  0
    9.0372  -15.7324   23.9672 O   0  0  0  0  0  0  0  0  0  0  0  0
    5.9579  -11.8815   26.6048 C   0  0  0  0  0  0  0  0  0  0  0  0
    6.7732  -13.0085   26.0745 C   0  0  0  0  0  0  0  0  0  0  0  0
    7.6862  -13.6818   27.0305 C   0  0  2  0  0  0  0  0  0  0  0  0
    8.4523  -12.7294   27.9251 C   0  0  0  0  0  0  0  0  0  0  0  0
    8.4632  -14.8427   26.5317 C   0  0  2  0  0  0  0  0  0  0  0  0
    7.5386  -15.6393   25.6898 N   0  0  0  0  0  0  0  0  0  0  0  0
    9.1471  -15.6861   27.4982 C   0  0  0  0  0  0  0  0  0  0  0  0
    8.6011  -16.7120   28.0385 O   0  0  0  0  0  0  0  0  0  0  0  0
   10.4456  -15.4543   27.9140 O   0  0  0  0  0  0  0  0  0  0  0  0
  1  2  1  0
  2  3  1  0
  3  5  1  0
  3  4  1  1
  5  6  1  6
  7  8  2  0
  7  5  1  0
  9  7  1  0
 10 11  1  0
 10  9  1  0
 11 18  1  0
 12 11  2  0
 14 13  1  0
 15 14  1  0
 15 16  1  6
 17 15  1  0
 17 18  1  1
 19 17  1  0
 19 21  1  0
 20 19  2  0
M  END
$$$$
