IGI.pdb
     RDKit          3D

 21 20  0  0  1  0  0  0  0  0999 V2000
    7.5840  -11.8185   20.7079 C   0  0  0  0  0  0  0  0  0  0  0  0
    7.6186  -13.3025   20.8616 C   0  0  0  0  0  0  0  0  0  0  0  0
    7.8323  -14.0545   19.5604 C   0  0  2  0  0  0  0  0  0  0  0  0
    6.6459  -13.7075   18.6856 C   0  0  0  0  0  0  0  0  0  0  0  0
    7.9310  -15.5559   19.8062 C   0  0  2  0  0  0  0  0  0  0  0  0
    6.7144  -15.8868   20.5555 N   0  0  0  0  0  0  0  0  0  0  0  0
    9.0972  -15.7990   20.6885 C   0  0  0  0  0  0  0  0  0  0  0  0
   10.2610  -15.5820   20.2060 O   0  0  0  0  0  0  0  0  0  0  0  0
    9.0174  -16.2505   22.0216 N   0  0  0  0  0  0  0  0  0  0  0  0
   10.2415  -16.4973   22.7559 C   0  0  0  0  0  0  0  0  0  0  0  0
   10.1286  -15.9568   24.1484 C   0  0  0  0  0  0  0  0  0  0  0  0
   11.1017  -16.0854   24.9252 O   0  0  0  0  0  0  0  0  0  0  0  0
    6.6401  -11.8953   25.0379 C   0  0  0  0  0  0  0  0  0  0  0  0
    7.8006  -12.8271   25.0681 C   0  0  0  0  0  0  0  0  0  0  0  0
    7.7809  -13.8871   26.1059 C   0  0  2  0  0  0  0  0  0  0  0  0
    7.4494  -13.3825   27.4951 C   0  0  0  0  0  0  0  0  0  0  0  0
    8.8420  -14.9219   26.0463 C   0  0  2  0  0  0  0  0  0  0  0  0
    8.9738  -15.3099   24.6214 N   0  0  0  0  0  0  0  0  0  0  0  0
    8.7159  -16.0939   26.8970 C   0  0  0  0  0  0  0  0  0  0  0  0
    7.9823  -17.1001   26.5942 O   0  0  0  0  0  0  0  0  0  0  0  0
    9.3795  -16.2231   28.1036 O   0  0  0  0  0  0  0  0  0  0  0  0
  1  2  1  0
  2  3  1  0
  3  5  1  0
  3  4  1  6
  5  6  1  1
  7  8  2  0
  7  5  1  0
  9  7  1  0
 10 11  1  0
 10  9  1  0
 11 18  1  0
 12 11  2  0
 14 13  1  0
 15 14  1  0
 15 16  1  1
 17 15  1  0
 17 18  1  6
 19 17  1  0
 19 21  1  0
 20 19  2  0
M  END
$$$$
