IGI.pdb
     RDKit          3D

 21 20  0  0  1  0  0  0  0  0999 V2000
    9.0602  -21.1051   17.7146 C   0  0  0  0  0  0  0  0  0  0  0  0
    9.5438  -19.8556   18.3717 C   0  0  0  0  0  0  0  0  0  0  0  0
    8.6488  -19.3600   19.4932 C   0  0  2  0  0  0  0  0  0  0  0  0
    7.2977  -19.1051   18.8586 C   0  0  0  0  0  0  0  0  0  0  0  0
    9.2189  -18.0979   20.1308 C   0  0  2  0  0  0  0  0  0  0  0  0
   10.5415  -18.4989   20.6218 N   0  0  0  0  0  0  0  0  0  0  0  0
    8.3760  -17.7563   21.3014 C   0  0  0  0  0  0  0  0  0  0  0  0
    8.4177  -18.5397   22.3108 O   0  0  0  0  0  0  0  0  0  0  0  0
    7.5324  -16.6299   21.3843 N   0  0  0  0  0  0  0  0  0  0  0  0
    6.8463  -16.3540   22.6300 C   0  0  0  0  0  0  0  0  0  0  0  0
    7.7718  -15.6749   23.5923 C   0  0  0  0  0  0  0  0  0  0  0  0
    8.9724  -15.5268   23.2706 O   0  0  0  0  0  0  0  0  0  0  0  0
    5.8289  -11.5786   26.1917 C   0  0  0  0  0  0  0  0  0  0  0  0
    6.6887  -12.5935   25.5235 C   0  0  0  0  0  0  0  0  0  0  0  0
    7.5634  -13.4109   26.3997 C   0  0  2  0  0  0  0  0  0  0  0  0
    8.3578  -12.6018   27.4040 C   0  0  0  0  0  0  0  0  0  0  0  0
    8.2981  -14.5370   25.7732 C   0  0  2  0  0  0  0  0  0  0  0  0
    7.3487  -15.1957   24.8441 N   0  0  0  0  0  0  0  0  0  0  0  0
    8.9424  -15.5113   26.6387 C   0  0  0  0  0  0  0  0  0  0  0  0
    8.3826  -16.6087   26.9918 O   0  0  0  0  0  0  0  0  0  0  0  0
   10.2150  -15.3373   27.1514 O   0  0  0  0  0  0  0  0  0  0  0  0
  1  2  1  0
  2  3  1  0
  3  5  1  0
  3  4  1  6
  5  6  1  1
  7  8  2  0
  7  5  1  0
  9  7  1  0
 10 11  1  0
 10  9  1  0
 11 18  1  0
 12 11  2  0
 14 13  1  0
 15 14  1  0
 15 16  1  6
 17 15  1  0
 17 18  1  1
 19 17  1  0
 19 21  1  0
 20 19  2  0
M  END
$$$$
