IGI.pdb
     RDKit          3D

 21 20  0  0  1  0  0  0  0  0999 V2000
    6.5249  -12.1629   19.1700 C   0  0  0  0  0  0  0  0  0  0  0  0
    7.5535  -13.2313   19.0051 C   0  0  0  0  0  0  0  0  0  0  0  0
    7.9803  -13.8857   20.3067 C   0  0  2  0  0  0  0  0  0  0  0  0
    8.5989  -12.7816   21.1382 C   0  0  0  0  0  0  0  0  0  0  0  0
    8.9675  -15.0191   20.0511 C   0  0  2  0  0  0  0  0  0  0  0  0
    8.2304  -15.9659   19.2078 N   0  0  0  0  0  0  0  0  0  0  0  0
    9.2508  -15.6795   21.3478 C   0  0  0  0  0  0  0  0  0  0  0  0
    8.4456  -16.5933   21.7361 O   0  0  0  0  0  0  0  0  0  0  0  0
   10.3442  -15.3749   22.1839 N   0  0  0  0  0  0  0  0  0  0  0  0
   10.7750  -16.3513   23.1635 C   0  0  0  0  0  0  0  0  0  0  0  0
   10.0415  -16.1496   24.4539 C   0  0  0  0  0  0  0  0  0  0  0  0
   10.4257  -16.7732   25.4690 O   0  0  0  0  0  0  0  0  0  0  0  0
    7.2539  -11.5168   25.3093 C   0  0  0  0  0  0  0  0  0  0  0  0
    8.0694  -12.7418   25.5337 C   0  0  0  0  0  0  0  0  0  0  0  0
    7.3284  -14.0060   25.7651 C   0  0  2  0  0  0  0  0  0  0  0  0
    6.2328  -13.8959   26.8052 C   0  0  0  0  0  0  0  0  0  0  0  0
    8.1161  -15.2621   25.8081 C   0  0  2  0  0  0  0  0  0  0  0  0
    8.9376  -15.2878   24.5740 N   0  0  0  0  0  0  0  0  0  0  0  0
    7.4081  -16.5186   25.9902 C   0  0  0  0  0  0  0  0  0  0  0  0
    6.7616  -17.0980   25.0475 O   0  0  0  0  0  0  0  0  0  0  0  0
    7.3749  -17.1961   27.1954 O   0  0  0  0  0  0  0  0  0  0  0  0
  1  2  1  0
  2  3  1  0
  3  5  1  0
  3  4  1  1
  5  6  1  6
  7  8  2  0
  7  5  1  0
  9  7  1  0
 10 11  1  0
 10  9  1  0
 11 18  1  0
 12 11  2  0
 14 13  1  0
 15 14  1  0
 15 16  1  1
 17 15  1  0
 17 18  1  6
 19 17  1  0
 19 21  1  0
 20 19  2  0
M  END
$$$$
