IGI.pdb
     RDKit          3D

 21 20  0  0  1  0  0  0  0  0999 V2000
    1.9796  -19.8328   21.2842 C   0  0  0  0  0  0  0  0  0  0  0  0
    3.3702  -19.8792   21.8236 C   0  0  0  0  0  0  0  0  0  0  0  0
    4.1047  -18.5524   21.7563 C   0  0  2  0  0  0  0  0  0  0  0  0
    4.1912  -18.2049   20.2849 C   0  0  0  0  0  0  0  0  0  0  0  0
    5.4862  -18.6591   22.3922 C   0  0  2  0  0  0  0  0  0  0  0  0
    5.2276  -19.1293   23.7571 N   0  0  0  0  0  0  0  0  0  0  0  0
    6.0581  -17.2939   22.4747 C   0  0  0  0  0  0  0  0  0  0  0  0
    5.4642  -16.4468   23.2256 O   0  0  0  0  0  0  0  0  0  0  0  0
    7.2100  -16.8611   21.7868 N   0  0  0  0  0  0  0  0  0  0  0  0
    7.6360  -15.4833   21.9239 C   0  0  0  0  0  0  0  0  0  0  0  0
    8.3523  -15.2891   23.2251 C   0  0  0  0  0  0  0  0  0  0  0  0
    9.5975  -15.1617   23.2140 O   0  0  0  0  0  0  0  0  0  0  0  0
    6.0596  -12.2627   27.3100 C   0  0  0  0  0  0  0  0  0  0  0  0
    6.5023  -13.5437   26.6943 C   0  0  0  0  0  0  0  0  0  0  0  0
    7.8821  -13.5831   26.1505 C   0  0  2  0  0  0  0  0  0  0  0  0
    8.2199  -12.4179   25.2436 C   0  0  0  0  0  0  0  0  0  0  0  0
    8.4058  -14.8991   25.7097 C   0  0  2  0  0  0  0  0  0  0  0  0
    7.6844  -15.2438   24.4610 N   0  0  0  0  0  0  0  0  0  0  0  0
    8.3788  -16.0065   26.6510 C   0  0  0  0  0  0  0  0  0  0  0  0
    7.5785  -17.0008   26.5356 O   0  0  0  0  0  0  0  0  0  0  0  0
    9.2167  -16.0820   27.7487 O   0  0  0  0  0  0  0  0  0  0  0  0
  1  2  1  0
  2  3  1  0
  3  5  1  0
  3  4  1  6
  5  6  1  1
  7  8  2  0
  7  5  1  0
  9  7  1  0
 10 11  1  0
 10  9  1  0
 11 18  1  0
 12 11  2  0
 14 13  1  0
 15 14  1  0
 15 16  1  6
 17 15  1  0
 17 18  1  6
 19 17  1  0
 19 21  1  0
 20 19  2  0
M  END
$$$$
