HVK.pdb
     RDKit          3D

 27 27  0  0  1  0  0  0  0  0999 V2000
   27.3629  -24.7772  -15.9006 N   0  0  0  0  0  0  0  0  0  0  0  0
   26.0684  -24.5086  -16.4989 C   0  0  1  0  0  0  0  0  0  0  0  0
   25.2225  -25.7488  -16.2973 C   0  0  0  0  0  0  0  0  0  0  0  0
   25.7431  -26.8725  -17.1183 C   0  0  0  0  0  0  0  0  0  0  0  0
   26.2954  -28.0291  -16.6079 C   0  0  0  0  0  0  0  0  0  0  0  0
   26.6699  -28.8478  -17.5996 N   0  0  0  0  0  0  0  0  0  0  0  0
   26.3516  -28.2031  -18.7399 C   0  0  0  0  0  0  0  0  0  0  0  0
   25.7881  -27.0020  -18.4440 N   0  0  0  0  0  0  0  0  0  0  0  0
   25.4021  -23.3522  -15.8374 C   0  0  0  0  0  0  0  0  0  0  0  0
   25.3514  -23.2677  -14.5887 O   0  0  0  0  0  0  0  0  0  0  0  0
   24.0056  -20.0756  -18.1958 C   0  0  0  0  0  0  0  0  0  0  0  0
   24.3439  -19.8842  -16.7236 C   0  0  1  0  0  0  0  0  0  0  0  0
   23.7232  -18.6735  -16.1572 C   0  0  0  0  0  0  0  0  0  0  0  0
   24.1432  -21.1772  -16.0327 C   0  0  2  0  0  0  0  0  0  0  0  0
   24.8086  -22.3181  -16.6145 N   0  0  0  0  0  0  0  0  0  0  0  0
   22.7567  -21.4492  -15.5781 C   0  0  0  0  0  0  0  0  0  0  0  0
   22.0008  -22.0359  -16.3934 O   0  0  0  0  0  0  0  0  0  0  0  0
   22.2163  -21.1050  -14.3171 N   0  0  0  0  0  0  0  0  0  0  0  0
   20.8277  -21.4636  -13.9621 C   0  0  1  0  0  0  0  0  0  0  0  0
   20.8614  -22.5118  -12.9017 C   0  0  0  0  0  0  0  0  0  0  0  0
   19.4811  -22.9119  -12.4273 C   0  0  0  0  0  0  0  0  0  0  0  0
   19.5247  -23.9112  -11.3184 C   0  0  0  0  0  0  0  0  0  0  0  0
   18.1713  -24.3416  -10.8449 C   0  0  0  0  0  0  0  0  0  0  0  0
   18.3829  -25.3056   -9.7558 N   0  0  0  0  0  0  0  0  0  0  0  0
   20.2160  -20.2235  -13.4162 C   0  0  0  0  0  0  0  0  0  0  0  0
   20.9519  -19.3133  -12.9548 O   0  0  0  0  0  0  0  0  0  0  0  0
   18.8468  -19.9972  -13.3809 O   0  0  0  0  0  0  0  0  0  0  0  0
  2  3  1  0
  2  1  1  1
  4  3  1  0
  5  4  2  0
  6  5  1  0
  7  6  1  0
  7  8  2  0
  8  4  1  0
  9  2  1  0
 10  9  2  0
 12 11  1  6
 12 14  1  0
 13 12  1  0
 14 15  1  6
 15  9  1  0
 16 17  2  0
 16 14  1  0
 18 16  1  0
 19 20  1  1
 19 18  1  0
 20 21  1  0
 21 22  1  0
 23 22  1  0
 24 23  1  0
 25 27  1  0
 25 19  1  0
 26 25  2  0
M  END
$$$$
