HVK.pdb
     RDKit          3D

 27 27  0  0  1  0  0  0  0  0999 V2000
   18.1260  -14.9884  -15.4966 N   0  0  0  0  0  0  0  0  0  0  0  0
   18.3505  -13.7831  -16.2729 C   0  0  1  0  0  0  0  0  0  0  0  0
   16.9904  -13.1775  -16.5520 C   0  0  0  0  0  0  0  0  0  0  0  0
   16.2133  -14.0467  -17.4729 C   0  0  0  0  0  0  0  0  0  0  0  0
   16.7625  -14.8209  -18.4741 C   0  0  0  0  0  0  0  0  0  0  0  0
   15.8046  -15.4893  -19.1296 N   0  0  0  0  0  0  0  0  0  0  0  0
   14.6466  -15.1339  -18.5380 C   0  0  0  0  0  0  0  0  0  0  0  0
   14.8983  -14.2564  -17.5308 N   0  0  0  0  0  0  0  0  0  0  0  0
   19.1734  -12.8016  -15.5124 C   0  0  0  0  0  0  0  0  0  0  0  0
   18.9370  -12.5627  -14.3057 O   0  0  0  0  0  0  0  0  0  0  0  0
   23.0691  -11.7222  -16.6511 C   0  0  0  0  0  0  0  0  0  0  0  0
   22.4640  -11.4006  -15.2913 C   0  0  1  0  0  0  0  0  0  0  0  0
   23.2909  -10.4577  -14.5172 C   0  0  0  0  0  0  0  0  0  0  0  0
   21.0292  -11.0960  -15.4857 C   0  0  2  0  0  0  0  0  0  0  0  0
   20.2474  -12.1145  -16.1448 N   0  0  0  0  0  0  0  0  0  0  0  0
   20.7252   -9.7134  -15.9315 C   0  0  0  0  0  0  0  0  0  0  0  0
   20.7933   -9.4914  -17.1671 O   0  0  0  0  0  0  0  0  0  0  0  0
   20.3712   -8.6316  -15.0918 N   0  0  0  0  0  0  0  0  0  0  0  0
   20.1440   -7.2814  -15.6471 C   0  0  1  0  0  0  0  0  0  0  0  0
   18.7347   -6.8811  -15.3678 C   0  0  0  0  0  0  0  0  0  0  0  0
   18.4112   -5.4877  -15.8619 C   0  0  0  0  0  0  0  0  0  0  0  0
   17.0281   -5.0583  -15.4973 C   0  0  0  0  0  0  0  0  0  0  0  0
   16.7022   -3.6603  -15.9219 C   0  0  0  0  0  0  0  0  0  0  0  0
   15.2754   -3.4467  -15.6409 N   0  0  0  0  0  0  0  0  0  0  0  0
   21.0715   -6.3805  -14.9134 C   0  0  0  0  0  0  0  0  0  0  0  0
   21.4491   -6.6823  -13.7518 O   0  0  0  0  0  0  0  0  0  0  0  0
   21.5624   -5.1939  -15.4409 O   0  0  0  0  0  0  0  0  0  0  0  0
  2  3  1  0
  2  1  1  1
  4  3  1  0
  5  4  2  0
  6  5  1  0
  7  6  1  0
  7  8  2  0
  8  4  1  0
  9  2  1  0
 10  9  2  0
 12 11  1  6
 12 14  1  0
 13 12  1  0
 14 15  1  6
 15  9  1  0
 16 17  2  0
 16 14  1  0
 18 16  1  0
 19 20  1  1
 19 18  1  0
 20 21  1  0
 21 22  1  0
 23 22  1  0
 24 23  1  0
 25 27  1  0
 25 19  1  0
 26 25  2  0
M  END
$$$$
