HVK.pdb
     RDKit          3D

 27 27  0  0  1  0  0  0  0  0999 V2000
   16.5708  -23.6251  -12.4144 N   0  0  0  0  0  0  0  0  0  0  0  0
   16.7789  -23.2049  -11.0412 C   0  0  1  0  0  0  0  0  0  0  0  0
   15.7624  -22.1197  -10.7522 C   0  0  0  0  0  0  0  0  0  0  0  0
   16.0522  -20.9072  -11.5606 C   0  0  0  0  0  0  0  0  0  0  0  0
   15.4689  -20.6150  -12.7762 C   0  0  0  0  0  0  0  0  0  0  0  0
   15.9359  -19.4541  -13.2539 N   0  0  0  0  0  0  0  0  0  0  0  0
   16.8174  -19.0134  -12.3342 C   0  0  0  0  0  0  0  0  0  0  0  0
   16.8860  -19.8993  -11.3055 N   0  0  0  0  0  0  0  0  0  0  0  0
   16.5647  -24.3365  -10.0964 C   0  0  0  0  0  0  0  0  0  0  0  0
   15.4871  -24.9750  -10.0920 O   0  0  0  0  0  0  0  0  0  0  0  0
   19.5167  -26.7437   -9.3072 C   0  0  0  0  0  0  0  0  0  0  0  0
   18.1283  -27.1040   -8.7960 C   0  0  1  0  0  0  0  0  0  0  0  0
   18.1428  -28.2865   -7.9165 C   0  0  0  0  0  0  0  0  0  0  0  0
   17.4791  -25.8651   -8.3131 C   0  0  2  0  0  0  0  0  0  0  0  0
   17.5840  -24.7145   -9.1779 N   0  0  0  0  0  0  0  0  0  0  0  0
   17.6739  -25.5625   -6.8731 C   0  0  0  0  0  0  0  0  0  0  0  0
   18.7023  -24.9066   -6.5687 O   0  0  0  0  0  0  0  0  0  0  0  0
   16.8098  -25.9481   -5.8217 N   0  0  0  0  0  0  0  0  0  0  0  0
   17.1496  -25.6572   -4.4136 C   0  0  1  0  0  0  0  0  0  0  0  0
   15.8893  -25.6141   -3.6173 C   0  0  0  0  0  0  0  0  0  0  0  0
   16.1259  -25.2748   -2.1615 C   0  0  0  0  0  0  0  0  0  0  0  0
   14.8535  -25.1428   -1.3909 C   0  0  0  0  0  0  0  0  0  0  0  0
   15.0486  -24.6538    0.0105 C   0  0  0  0  0  0  0  0  0  0  0  0
   13.7117  -24.4231    0.5759 N   0  0  0  0  0  0  0  0  0  0  0  0
   17.9883  -26.7962   -3.9558 C   0  0  0  0  0  0  0  0  0  0  0  0
   17.7608  -27.9551   -4.3896 O   0  0  0  0  0  0  0  0  0  0  0  0
   19.0362  -26.6613   -3.0553 O   0  0  0  0  0  0  0  0  0  0  0  0
  2  3  1  0
  2  1  1  6
  4  3  1  0
  5  4  2  0
  6  5  1  0
  7  6  1  0
  7  8  2  0
  8  4  1  0
  9  2  1  0
 10  9  2  0
 12 11  1  1
 12 14  1  0
 13 12  1  0
 14 15  1  6
 15  9  1  0
 16 17  2  0
 16 14  1  0
 18 16  1  0
 19 20  1  1
 19 18  1  0
 20 21  1  0
 21 22  1  0
 23 22  1  0
 24 23  1  0
 25 27  1  0
 25 19  1  0
 26 25  2  0
M  END
$$$$
