HVK.pdb
     RDKit          3D

 27 27  0  0  1  0  0  0  0  0999 V2000
   28.5539  -21.4969  -16.4324 N   0  0  0  0  0  0  0  0  0  0  0  0
   27.8672  -20.4935  -15.6404 C   0  0  1  0  0  0  0  0  0  0  0  0
   27.2150  -19.5329  -16.6132 C   0  0  0  0  0  0  0  0  0  0  0  0
   28.2431  -18.7019  -17.2915 C   0  0  0  0  0  0  0  0  0  0  0  0
   28.7330  -18.9374  -18.5595 C   0  0  0  0  0  0  0  0  0  0  0  0
   29.6471  -18.0152  -18.8883 N   0  0  0  0  0  0  0  0  0  0  0  0
   29.7328  -17.1952  -17.8219 C   0  0  0  0  0  0  0  0  0  0  0  0
   28.8778  -17.6153  -16.8523 N   0  0  0  0  0  0  0  0  0  0  0  0
   26.8141  -21.1124  -14.7878 C   0  0  0  0  0  0  0  0  0  0  0  0
   26.1883  -22.1264  -15.1738 O   0  0  0  0  0  0  0  0  0  0  0  0
   26.6252  -19.8766  -10.8882 C   0  0  0  0  0  0  0  0  0  0  0  0
   25.8020  -21.1191  -11.2000 C   0  0  1  0  0  0  0  0  0  0  0  0
   24.7068  -21.3242  -10.2354 C   0  0  0  0  0  0  0  0  0  0  0  0
   25.4859  -21.1117  -12.6455 C   0  0  2  0  0  0  0  0  0  0  0  0
   26.4984  -20.5611  -13.5143 N   0  0  0  0  0  0  0  0  0  0  0  0
   24.1011  -20.7067  -12.9936 C   0  0  0  0  0  0  0  0  0  0  0  0
   23.8710  -19.4719  -13.0463 O   0  0  0  0  0  0  0  0  0  0  0  0
   23.0256  -21.5840  -13.2662 N   0  0  0  0  0  0  0  0  0  0  0  0
   21.6954  -21.0617  -13.6412 C   0  0  1  0  0  0  0  0  0  0  0  0
   21.0065  -22.0755  -14.4910 C   0  0  0  0  0  0  0  0  0  0  0  0
   20.7025  -23.3573  -13.7461 C   0  0  0  0  0  0  0  0  0  0  0  0
   19.9808  -24.3535  -14.5928 C   0  0  0  0  0  0  0  0  0  0  0  0
   19.5542  -25.5788  -13.8460 C   0  0  0  0  0  0  0  0  0  0  0  0
   18.8215  -26.4283  -14.7956 N   0  0  0  0  0  0  0  0  0  0  0  0
   20.9514  -20.8945  -12.3650 C   0  0  0  0  0  0  0  0  0  0  0  0
   21.3456  -21.4884  -11.3283 O   0  0  0  0  0  0  0  0  0  0  0  0
   19.8177  -20.1033  -12.2383 O   0  0  0  0  0  0  0  0  0  0  0  0
  2  3  1  0
  2  1  1  6
  4  3  1  0
  5  4  2  0
  6  5  1  0
  7  6  1  0
  7  8  2  0
  8  4  1  0
  9  2  1  0
 10  9  2  0
 12 11  1  1
 12 14  1  0
 13 12  1  0
 14 15  1  6
 15  9  1  0
 16 17  2  0
 16 14  1  0
 18 16  1  0
 19 20  1  6
 19 18  1  0
 20 21  1  0
 21 22  1  0
 23 22  1  0
 24 23  1  0
 25 27  1  0
 25 19  1  0
 26 25  2  0
M  END
$$$$
