HVK.pdb
     RDKit          3D

 27 27  0  0  1  0  0  0  0  0999 V2000
   22.1958  -23.9821  -16.2227 N   0  0  0  0  0  0  0  0  0  0  0  0
   20.8517  -23.5162  -15.9361 C   0  0  1  0  0  0  0  0  0  0  0  0
   19.9023  -24.6175  -16.3604 C   0  0  0  0  0  0  0  0  0  0  0  0
   19.8858  -24.7484  -17.8403 C   0  0  0  0  0  0  0  0  0  0  0  0
   19.4035  -23.7912  -18.7088 C   0  0  0  0  0  0  0  0  0  0  0  0
   19.5266  -24.2035  -19.9773 N   0  0  0  0  0  0  0  0  0  0  0  0
   20.0893  -25.4264  -19.9066 C   0  0  0  0  0  0  0  0  0  0  0  0
   20.3066  -25.7551  -18.6057 N   0  0  0  0  0  0  0  0  0  0  0  0
   20.6743  -23.2548  -14.4804 C   0  0  0  0  0  0  0  0  0  0  0  0
   21.3509  -23.8758  -13.6286 O   0  0  0  0  0  0  0  0  0  0  0  0
   21.3381  -20.3126  -12.5185 C   0  0  0  0  0  0  0  0  0  0  0  0
   19.8580  -20.5585  -12.2585 C   0  0  1  0  0  0  0  0  0  0  0  0
   19.0076  -19.4764  -12.7857 C   0  0  0  0  0  0  0  0  0  0  0  0
   19.5495  -21.9553  -12.6366 C   0  0  2  0  0  0  0  0  0  0  0  0
   19.7295  -22.2911  -14.0286 N   0  0  0  0  0  0  0  0  0  0  0  0
   18.3209  -22.5243  -12.0285 C   0  0  0  0  0  0  0  0  0  0  0  0
   17.3764  -22.7945  -12.8129 O   0  0  0  0  0  0  0  0  0  0  0  0
   18.1219  -22.7838  -10.6523 N   0  0  0  0  0  0  0  0  0  0  0  0
   16.8202  -23.2712  -10.1515 C   0  0  1  0  0  0  0  0  0  0  0  0
   16.9439  -23.5488   -8.6913 C   0  0  0  0  0  0  0  0  0  0  0  0
   17.3781  -24.9687   -8.3983 C   0  0  0  0  0  0  0  0  0  0  0  0
   17.4394  -25.2574   -6.9343 C   0  0  0  0  0  0  0  0  0  0  0  0
   17.6631  -26.7031   -6.6166 C   0  0  0  0  0  0  0  0  0  0  0  0
   17.6803  -26.8243   -5.1520 N   0  0  0  0  0  0  0  0  0  0  0  0
   15.8605  -22.1563  -10.3661 C   0  0  0  0  0  0  0  0  0  0  0  0
   16.2387  -20.9663  -10.2112 O   0  0  0  0  0  0  0  0  0  0  0  0
   14.5364  -22.3472  -10.7368 O   0  0  0  0  0  0  0  0  0  0  0  0
  2  3  1  0
  2  1  1  1
  4  3  1  0
  5  4  2  0
  6  5  1  0
  7  6  1  0
  7  8  2  0
  8  4  1  0
  9  2  1  0
 10  9  2  0
 12 11  1  6
 12 14  1  0
 13 12  1  0
 14 15  1  6
 15  9  1  0
 16 17  2  0
 16 14  1  0
 18 16  1  0
 19 20  1  1
 19 18  1  0
 20 21  1  0
 21 22  1  0
 23 22  1  0
 24 23  1  0
 25 27  1  0
 25 19  1  0
 26 25  2  0
M  END
$$$$
