HVK.pdb
     RDKit          3D

 27 27  0  0  1  0  0  0  0  0999 V2000
   15.1890  -23.5027    3.1400 N   0  0  0  0  0  0  0  0  0  0  0  0
   16.0584  -22.3411    3.1668 C   0  0  1  0  0  0  0  0  0  0  0  0
   15.2644  -21.1817    2.6014 C   0  0  0  0  0  0  0  0  0  0  0  0
   14.9800  -21.4003    1.1596 C   0  0  0  0  0  0  0  0  0  0  0  0
   15.9202  -21.3263    0.1527 C   0  0  0  0  0  0  0  0  0  0  0  0
   15.3550  -21.5724   -1.0364 N   0  0  0  0  0  0  0  0  0  0  0  0
   14.0525  -21.8024   -0.7766 C   0  0  0  0  0  0  0  0  0  0  0  0
   13.8273  -21.6971    0.5598 N   0  0  0  0  0  0  0  0  0  0  0  0
   16.4724  -22.0140    4.5599 C   0  0  0  0  0  0  0  0  0  0  0  0
   15.9472  -22.5920    5.5391 O   0  0  0  0  0  0  0  0  0  0  0  0
   17.6935  -23.2399    6.6464 C   0  0  0  0  0  0  0  0  0  0  0  0
   18.7914  -22.1880    6.5635 C   0  0  1  0  0  0  0  0  0  0  0  0
   20.0142  -22.7016    5.9209 C   0  0  0  0  0  0  0  0  0  0  0  0
   18.1916  -20.9349    6.0543 C   0  0  2  0  0  0  0  0  0  0  0  0
   17.4761  -21.0352    4.8049 N   0  0  0  0  0  0  0  0  0  0  0  0
   19.0450  -19.7261    6.1702 C   0  0  0  0  0  0  0  0  0  0  0  0
   19.6546  -19.3644    5.1319 O   0  0  0  0  0  0  0  0  0  0  0  0
   19.2322  -18.9538    7.3403 N   0  0  0  0  0  0  0  0  0  0  0  0
   20.2207  -17.8563    7.3762 C   0  0  1  0  0  0  0  0  0  0  0  0
   19.7243  -16.7965    8.3008 C   0  0  0  0  0  0  0  0  0  0  0  0
   20.7083  -15.6598    8.4735 C   0  0  0  0  0  0  0  0  0  0  0  0
   20.2587  -14.6636    9.4913 C   0  0  0  0  0  0  0  0  0  0  0  0
   21.2314  -13.5465    9.7081 C   0  0  0  0  0  0  0  0  0  0  0  0
   20.6089  -12.6119   10.6563 N   0  0  0  0  0  0  0  0  0  0  0  0
   21.4671  -18.4517    7.9258 C   0  0  0  0  0  0  0  0  0  0  0  0
   21.3970  -19.3804    8.7716 O   0  0  0  0  0  0  0  0  0  0  0  0
   22.7399  -18.0384    7.5566 O   0  0  0  0  0  0  0  0  0  0  0  0
  2  3  1  0
  2  1  1  1
  4  3  1  0
  5  4  2  0
  6  5  1  0
  7  6  1  0
  7  8  2  0
  8  4  1  0
  9  2  1  0
 10  9  2  0
 12 11  1  6
 12 14  1  0
 13 12  1  0
 14 15  1  6
 15  9  1  0
 16 17  2  0
 16 14  1  0
 18 16  1  0
 19 20  1  1
 19 18  1  0
 20 21  1  0
 21 22  1  0
 23 22  1  0
 24 23  1  0
 25 27  1  0
 25 19  1  0
 26 25  2  0
M  END
$$$$
