HVK.pdb
     RDKit          3D

 27 27  0  0  1  0  0  0  0  0999 V2000
   22.1400  -10.9003  -17.4019 N   0  0  0  0  0  0  0  0  0  0  0  0
   22.8150  -11.5038  -16.2679 C   0  0  1  0  0  0  0  0  0  0  0  0
   21.8915  -11.3599  -15.0760 C   0  0  0  0  0  0  0  0  0  0  0  0
   21.7632   -9.9316  -14.6870 C   0  0  0  0  0  0  0  0  0  0  0  0
   22.3979   -8.8840  -15.3216 C   0  0  0  0  0  0  0  0  0  0  0  0
   22.0818   -7.7207  -14.7377 N   0  0  0  0  0  0  0  0  0  0  0  0
   21.2439   -8.0379  -13.7306 C   0  0  0  0  0  0  0  0  0  0  0  0
   21.0520   -9.3833  -13.7022 N   0  0  0  0  0  0  0  0  0  0  0  0
   23.0774  -12.9503  -16.5084 C   0  0  0  0  0  0  0  0  0  0  0  0
   22.3302  -13.6237  -17.2547 O   0  0  0  0  0  0  0  0  0  0  0  0
   26.5235  -14.6659  -14.7791 C   0  0  0  0  0  0  0  0  0  0  0  0
   25.9700  -15.3129  -16.0415 C   0  0  1  0  0  0  0  0  0  0  0  0
   26.3782  -16.7226  -16.1757 C   0  0  0  0  0  0  0  0  0  0  0  0
   24.5328  -14.9751  -16.1404 C   0  0  2  0  0  0  0  0  0  0  0  0
   24.1859  -13.5963  -15.8924 N   0  0  0  0  0  0  0  0  0  0  0  0
   23.6033  -15.9553  -15.5254 C   0  0  0  0  0  0  0  0  0  0  0  0
   23.3764  -15.8228  -14.2960 O   0  0  0  0  0  0  0  0  0  0  0  0
   22.9581  -17.0193  -16.1980 N   0  0  0  0  0  0  0  0  0  0  0  0
   21.9903  -17.8867  -15.4953 C   0  0  1  0  0  0  0  0  0  0  0  0
   20.6648  -17.7667  -16.1685 C   0  0  0  0  0  0  0  0  0  0  0  0
   19.6164  -18.6776  -15.5675 C   0  0  0  0  0  0  0  0  0  0  0  0
   18.2997  -18.5722  -16.2644 C   0  0  0  0  0  0  0  0  0  0  0  0
   17.2029  -19.3397  -15.5942 C   0  0  0  0  0  0  0  0  0  0  0  0
   16.0315  -19.2781  -16.4797 N   0  0  0  0  0  0  0  0  0  0  0  0
   22.5028  -19.2737  -15.6501 C   0  0  0  0  0  0  0  0  0  0  0  0
   23.2872  -19.5494  -16.5943 O   0  0  0  0  0  0  0  0  0  0  0  0
   22.1629  -20.3145  -14.7967 O   0  0  0  0  0  0  0  0  0  0  0  0
  2  3  1  0
  2  1  1  6
  4  3  1  0
  5  4  2  0
  6  5  1  0
  7  6  1  0
  7  8  2  0
  8  4  1  0
  9  2  1  0
 10  9  2  0
 12 11  1  1
 12 14  1  0
 13 12  1  0
 14 15  1  1
 15  9  1  0
 16 17  2  0
 16 14  1  0
 18 16  1  0
 19 20  1  6
 19 18  1  0
 20 21  1  0
 21 22  1  0
 23 22  1  0
 24 23  1  0
 25 27  1  0
 25 19  1  0
 26 25  2  0
M  END
$$$$
