HVK.pdb
     RDKit          3D

 27 27  0  0  1  0  0  0  0  0999 V2000
   18.1619  -13.4028  -17.3676 N   0  0  0  0  0  0  0  0  0  0  0  0
   18.4677  -11.9922  -17.5180 C   0  0  1  0  0  0  0  0  0  0  0  0
   17.1495  -11.2730  -17.7167 C   0  0  0  0  0  0  0  0  0  0  0  0
   16.5896  -11.5750  -19.0594 C   0  0  0  0  0  0  0  0  0  0  0  0
   16.5323  -10.6792  -20.1070 C   0  0  0  0  0  0  0  0  0  0  0  0
   15.9737  -11.2496  -21.1825 N   0  0  0  0  0  0  0  0  0  0  0  0
   15.6778  -12.5108  -20.8098 C   0  0  0  0  0  0  0  0  0  0  0  0
   16.0536  -12.7059  -19.5180 N   0  0  0  0  0  0  0  0  0  0  0  0
   19.1358  -11.4560  -16.2994 C   0  0  0  0  0  0  0  0  0  0  0  0
   18.7646  -11.8068  -15.1558 O   0  0  0  0  0  0  0  0  0  0  0  0
   22.9672   -9.6716  -16.5715 C   0  0  0  0  0  0  0  0  0  0  0  0
   22.4041  -10.2581  -15.2840 C   0  0  1  0  0  0  0  0  0  0  0  0
   23.1912   -9.8722  -14.0993 C   0  0  0  0  0  0  0  0  0  0  0  0
   20.9423  -10.0285  -15.2737 C   0  0  2  0  0  0  0  0  0  0  0  0
   20.2123  -10.5319  -16.4123 N   0  0  0  0  0  0  0  0  0  0  0  0
   20.5113   -8.6816  -14.8229 C   0  0  0  0  0  0  0  0  0  0  0  0
   20.3761   -7.8052  -15.7139 O   0  0  0  0  0  0  0  0  0  0  0  0
   20.2446   -8.3018  -13.4867 N   0  0  0  0  0  0  0  0  0  0  0  0
   19.7808   -6.9369  -13.1631 C   0  0  1  0  0  0  0  0  0  0  0  0
   18.9140   -7.0019  -11.9511 C   0  0  0  0  0  0  0  0  0  0  0  0
   18.3847   -5.6467  -11.5344 C   0  0  0  0  0  0  0  0  0  0  0  0
   17.6813   -5.6875  -10.2176 C   0  0  0  0  0  0  0  0  0  0  0  0
   17.1619   -4.3558   -9.7731 C   0  0  0  0  0  0  0  0  0  0  0  0
   16.6550   -4.5266   -8.4042 N   0  0  0  0  0  0  0  0  0  0  0  0
   21.0071   -6.1546  -12.8560 C   0  0  0  0  0  0  0  0  0  0  0  0
   21.0299   -4.9155  -13.0732 O   0  0  0  0  0  0  0  0  0  0  0  0
   22.1620   -6.7175  -12.3302 O   0  0  0  0  0  0  0  0  0  0  0  0
  2  3  1  0
  2  1  1  1
  4  3  1  0
  5  4  2  0
  6  5  1  0
  7  6  1  0
  7  8  2  0
  8  4  1  0
  9  2  1  0
 10  9  2  0
 12 11  1  6
 12 14  1  0
 13 12  1  0
 14 15  1  6
 15  9  1  0
 16 17  2  0
 16 14  1  0
 18 16  1  0
 19 20  1  1
 19 18  1  0
 20 21  1  0
 21 22  1  0
 23 22  1  0
 24 23  1  0
 25 27  1  0
 25 19  1  0
 26 25  2  0
M  END
$$$$
