KEK.pdb
     RDKit          3D

 28 27  0  0  1  0  0  0  0  0999 V2000
   15.0706  -11.7367  -16.0014 N   0  0  0  0  0  0  0  0  0  0  0  0
   16.3099  -11.3901  -15.4369 C   0  0  1  0  0  0  0  0  0  0  0  0
   17.4521  -12.3286  -15.8119 C   0  0  0  0  0  0  0  0  0  0  0  0
   17.0948  -13.7514  -15.6133 C   0  0  0  0  0  0  0  0  0  0  0  0
   18.1217  -14.7655  -15.9720 C   0  0  0  0  0  0  0  0  0  0  0  0
   17.6381  -16.1875  -15.8164 C   0  0  0  0  0  0  0  0  0  0  0  0
   18.1622  -16.7293  -14.5713 N   0  0  0  0  0  0  0  0  0  0  0  0
   16.6982   -9.9868  -15.5963 C   0  0  0  0  0  0  0  0  0  0  0  0
   16.6430   -9.4988  -16.7784 O   0  0  0  0  0  0  0  0  0  0  0  0
   17.1214   -9.1324  -14.5930 N   0  0  0  0  0  0  0  0  0  0  0  0
   17.4914   -7.7067  -14.8501 C   0  0  1  0  0  0  0  0  0  0  0  0
   16.6221   -6.9341  -13.9303 C   0  0  0  0  0  0  0  0  0  0  0  0
   16.8411   -5.4771  -13.8051 C   0  0  0  0  0  0  0  0  0  0  0  0
   16.0513   -4.7467  -14.8192 C   0  0  0  0  0  0  0  0  0  0  0  0
   14.8093   -4.5682  -14.5699 O   0  0  0  0  0  0  0  0  0  0  0  0
   18.9303   -7.5920  -14.7509 C   0  0  0  0  0  0  0  0  0  0  0  0
   19.5657   -8.1988  -13.8189 O   0  0  0  0  0  0  0  0  0  0  0  0
   16.5785   -4.2572  -15.9998 O   0  0  0  0  0  0  0  0  0  0  0  0
   19.7122   -6.8277  -15.6447 N   0  0  0  0  0  0  0  0  0  0  0  0
   21.1350   -6.6508  -15.4437 C   0  0  1  0  0  0  0  0  0  0  0  0
   21.7914   -6.8351  -16.7883 C   0  0  0  0  0  0  0  0  0  0  0  0
   23.2754   -6.6667  -16.7550 C   0  0  0  0  0  0  0  0  0  0  0  0
   23.9424   -6.8242  -18.0826 C   0  0  0  0  0  0  0  0  0  0  0  0
   25.4505   -6.7286  -17.9933 C   0  0  0  0  0  0  0  0  0  0  0  0
   25.9706   -6.8207  -19.3635 N   0  0  0  0  0  0  0  0  0  0  0  0
   21.4024   -5.3324  -14.8531 C   0  0  0  0  0  0  0  0  0  0  0  0
   22.5205   -5.1697  -14.0530 O   0  0  0  0  0  0  0  0  0  0  0  0
   20.6752   -4.3230  -15.0255 O   0  0  0  0  0  0  0  0  0  0  0  0
  2  3  1  0
  2  1  1  6
  3  4  1  0
  5  4  1  0
  5  6  1  0
  7  6  1  0
  8  2  1  0
  8  9  2  0
 10  8  1  0
 11 10  1  0
 11 12  1  1
 13 12  1  0
 13 14  1  0
 14 15  2  0
 16 17  2  0
 16 11  1  0
 18 14  1  0
 19 16  1  0
 20 19  1  0
 20 21  1  6
 22 23  1  0
 22 21  1  0
 23 24  1  0
 24 25  1  0
 26 20  1  0
 27 26  1  0
 28 26  2  0
M  END
$$$$
