KEK.pdb
     RDKit          3D

 28 27  0  0  1  0  0  0  0  0999 V2000
   22.2917  -21.0454  -15.8280 N   0  0  0  0  0  0  0  0  0  0  0  0
   21.8088  -20.1932  -14.8204 C   0  0  1  0  0  0  0  0  0  0  0  0
   22.6456  -20.1957  -13.5453 C   0  0  0  0  0  0  0  0  0  0  0  0
   23.2279  -21.5267  -13.2613 C   0  0  0  0  0  0  0  0  0  0  0  0
   24.1503  -22.0953  -14.2798 C   0  0  0  0  0  0  0  0  0  0  0  0
   24.7008  -23.4489  -13.8991 C   0  0  0  0  0  0  0  0  0  0  0  0
   25.6067  -23.8998  -14.9454 N   0  0  0  0  0  0  0  0  0  0  0  0
   21.4987  -18.8284  -15.2524 C   0  0  0  0  0  0  0  0  0  0  0  0
   21.0069  -18.0380  -14.3737 O   0  0  0  0  0  0  0  0  0  0  0  0
   21.6839  -18.3059  -16.5206 N   0  0  0  0  0  0  0  0  0  0  0  0
   21.2834  -16.9124  -16.8856 C   0  0  1  0  0  0  0  0  0  0  0  0
   22.3340  -16.4688  -17.8333 C   0  0  0  0  0  0  0  0  0  0  0  0
   22.1599  -15.1758  -18.5294 C   0  0  0  0  0  0  0  0  0  0  0  0
   23.2822  -14.9352  -19.4611 C   0  0  0  0  0  0  0  0  0  0  0  0
   24.2012  -15.8241  -19.5051 O   0  0  0  0  0  0  0  0  0  0  0  0
   19.8984  -16.9387  -17.3031 C   0  0  0  0  0  0  0  0  0  0  0  0
   19.4435  -17.9292  -17.9758 O   0  0  0  0  0  0  0  0  0  0  0  0
   23.3853  -13.8191  -20.2705 O   0  0  0  0  0  0  0  0  0  0  0  0
   18.9787  -15.9082  -17.0092 N   0  0  0  0  0  0  0  0  0  0  0  0
   17.5746  -16.0303  -17.3409 C   0  0  1  0  0  0  0  0  0  0  0  0
   16.9640  -16.9545  -16.3182 C   0  0  0  0  0  0  0  0  0  0  0  0
   15.4961  -17.1611  -16.5032 C   0  0  0  0  0  0  0  0  0  0  0  0
   14.8633  -18.0373  -15.4717 C   0  0  0  0  0  0  0  0  0  0  0  0
   13.3955  -18.2910  -15.7417 C   0  0  0  0  0  0  0  0  0  0  0  0
   12.8514  -18.9745  -14.5615 N   0  0  0  0  0  0  0  0  0  0  0  0
   16.9427  -14.7042  -17.3623 C   0  0  0  0  0  0  0  0  0  0  0  0
   17.1110  -13.8630  -16.2754 O   0  0  0  0  0  0  0  0  0  0  0  0
   16.2474  -14.2705  -18.3141 O   0  0  0  0  0  0  0  0  0  0  0  0
  2  3  1  0
  2  1  1  6
  3  4  1  0
  5  4  1  0
  5  6  1  0
  7  6  1  0
  8  2  1  0
  8  9  2  0
 10  8  1  0
 11 10  1  0
 11 12  1  6
 13 12  1  0
 13 14  1  0
 14 15  2  0
 16 17  2  0
 16 11  1  0
 18 14  1  0
 19 16  1  0
 20 19  1  0
 20 21  1  1
 22 23  1  0
 22 21  1  0
 23 24  1  0
 24 25  1  0
 26 20  1  0
 27 26  1  0
 28 26  2  0
M  END
$$$$
