KEK.pdb
     RDKit          3D

 28 27  0  0  1  0  0  0  0  0999 V2000
   19.0893  -24.3565  -12.2686 N   0  0  0  0  0  0  0  0  0  0  0  0
   18.4283  -23.1893  -11.8500 C   0  0  1  0  0  0  0  0  0  0  0  0
   18.1468  -23.1332  -10.3521 C   0  0  0  0  0  0  0  0  0  0  0  0
   18.0523  -24.4823   -9.7500 C   0  0  0  0  0  0  0  0  0  0  0  0
   17.7947  -24.5561   -8.2873 C   0  0  0  0  0  0  0  0  0  0  0  0
   17.6488  -25.9695   -7.7761 C   0  0  0  0  0  0  0  0  0  0  0  0
   17.5255  -25.9353   -6.3262 N   0  0  0  0  0  0  0  0  0  0  0  0
   19.0116  -21.9346  -12.3306 C   0  0  0  0  0  0  0  0  0  0  0  0
   18.3770  -20.8566  -12.0589 O   0  0  0  0  0  0  0  0  0  0  0  0
   20.1844  -21.7973  -13.0527 N   0  0  0  0  0  0  0  0  0  0  0  0
   20.7298  -20.4662  -13.4603 C   0  0  1  0  0  0  0  0  0  0  0  0
   22.2006  -20.6356  -13.3784 C   0  0  0  0  0  0  0  0  0  0  0  0
   23.0654  -19.4760  -13.6852 C   0  0  0  0  0  0  0  0  0  0  0  0
   23.9911  -19.7999  -14.7914 C   0  0  0  0  0  0  0  0  0  0  0  0
   24.6588  -20.8864  -14.6906 O   0  0  0  0  0  0  0  0  0  0  0  0
   20.1143  -20.0948  -14.7159 C   0  0  0  0  0  0  0  0  0  0  0  0
   19.8837  -20.9812  -15.6113 O   0  0  0  0  0  0  0  0  0  0  0  0
   24.1670  -19.0021  -15.9068 O   0  0  0  0  0  0  0  0  0  0  0  0
   19.7361  -18.7720  -15.0345 N   0  0  0  0  0  0  0  0  0  0  0  0
   19.2327  -18.4246  -16.3468 C   0  0  1  0  0  0  0  0  0  0  0  0
   18.7730  -16.9908  -16.2717 C   0  0  0  0  0  0  0  0  0  0  0  0
   18.0867  -16.5193  -17.5120 C   0  0  0  0  0  0  0  0  0  0  0  0
   17.5790  -15.1162  -17.4388 C   0  0  0  0  0  0  0  0  0  0  0  0
   16.8783  -14.6817  -18.7084 C   0  0  0  0  0  0  0  0  0  0  0  0
   16.4895  -13.2772  -18.5277 N   0  0  0  0  0  0  0  0  0  0  0  0
   20.2740  -18.6385  -17.3609 C   0  0  0  0  0  0  0  0  0  0  0  0
   19.8980  -19.0069  -18.6415 O   0  0  0  0  0  0  0  0  0  0  0  0
   21.5044  -18.5086  -17.1451 O   0  0  0  0  0  0  0  0  0  0  0  0
  2  3  1  0
  2  1  1  1
  3  4  1  0
  5  4  1  0
  5  6  1  0
  7  6  1  0
  8  2  1  0
  8  9  2  0
 10  8  1  0
 11 10  1  0
 11 12  1  6
 13 12  1  0
 13 14  1  0
 14 15  2  0
 16 17  2  0
 16 11  1  0
 18 14  1  0
 19 16  1  0
 20 19  1  0
 20 21  1  1
 22 23  1  0
 22 21  1  0
 23 24  1  0
 24 25  1  0
 26 20  1  0
 27 26  1  0
 28 26  2  0
M  END
$$$$
