KEK.pdb
     RDKit          3D

 28 27  0  0  1  0  0  0  0  0999 V2000
   18.1142  -11.5981  -14.9286 N   0  0  0  0  0  0  0  0  0  0  0  0
   17.4453  -10.3729  -14.7670 C   0  0  1  0  0  0  0  0  0  0  0  0
   15.9270  -10.4707  -14.8728 C   0  0  0  0  0  0  0  0  0  0  0  0
   15.4243   -9.9765  -16.1745 C   0  0  0  0  0  0  0  0  0  0  0  0
   14.4827  -10.8563  -16.9166 C   0  0  0  0  0  0  0  0  0  0  0  0
   14.0081  -10.2600  -18.2202 C   0  0  0  0  0  0  0  0  0  0  0  0
   13.0046  -11.1391  -18.8022 N   0  0  0  0  0  0  0  0  0  0  0  0
   17.8494   -9.5905  -13.5965 C   0  0  0  0  0  0  0  0  0  0  0  0
   17.6486  -10.1174  -12.4473 O   0  0  0  0  0  0  0  0  0  0  0  0
   18.4280   -8.3332  -13.6086 N   0  0  0  0  0  0  0  0  0  0  0  0
   18.8183   -7.6126  -12.3580 C   0  0  1  0  0  0  0  0  0  0  0  0
   19.9189   -6.7150  -12.7842 C   0  0  0  0  0  0  0  0  0  0  0  0
   21.3044   -7.2311  -12.7578 C   0  0  0  0  0  0  0  0  0  0  0  0
   22.2668   -6.1423  -13.0296 C   0  0  0  0  0  0  0  0  0  0  0  0
   22.6316   -5.4276  -12.0332 O   0  0  0  0  0  0  0  0  0  0  0  0
   17.6198   -7.0563  -11.7684 C   0  0  0  0  0  0  0  0  0  0  0  0
   16.7081   -6.5487  -12.5112 O   0  0  0  0  0  0  0  0  0  0  0  0
   22.7811   -5.8641  -14.2823 O   0  0  0  0  0  0  0  0  0  0  0  0
   17.3768   -7.0334  -10.3774 N   0  0  0  0  0  0  0  0  0  0  0  0
   16.1334   -6.5272   -9.8352 C   0  0  1  0  0  0  0  0  0  0  0  0
   15.5582   -7.6201   -8.9705 C   0  0  0  0  0  0  0  0  0  0  0  0
   14.3612   -7.1914   -8.1862 C   0  0  0  0  0  0  0  0  0  0  0  0
   13.2195   -8.1540   -8.2306 C   0  0  0  0  0  0  0  0  0  0  0  0
   12.0362   -7.6949   -7.4056 C   0  0  0  0  0  0  0  0  0  0  0  0
   11.0355   -8.7686   -7.4516 N   0  0  0  0  0  0  0  0  0  0  0  0
   16.3744   -5.2807   -9.0958 C   0  0  0  0  0  0  0  0  0  0  0  0
   17.6540   -5.0047   -8.6446 O   0  0  0  0  0  0  0  0  0  0  0  0
   15.4857   -4.4312   -8.8389 O   0  0  0  0  0  0  0  0  0  0  0  0
  2  3  1  0
  2  1  1  1
  3  4  1  0
  5  4  1  0
  5  6  1  0
  7  6  1  0
  8  2  1  0
  8  9  2  0
 10  8  1  0
 11 10  1  0
 11 12  1  6
 13 12  1  0
 13 14  1  0
 14 15  2  0
 16 17  2  0
 16 11  1  0
 18 14  1  0
 19 16  1  0
 20 19  1  0
 20 21  1  1
 22 23  1  0
 22 21  1  0
 23 24  1  0
 24 25  1  0
 26 20  1  0
 27 26  1  0
 28 26  2  0
M  END
$$$$
