KEK.pdb
     RDKit          3D

 28 27  0  0  1  0  0  0  0  0999 V2000
   26.2724  -22.0079  -11.6148 N   0  0  0  0  0  0  0  0  0  0  0  0
   25.5166  -20.8255  -11.5417 C   0  0  1  0  0  0  0  0  0  0  0  0
   25.7158  -20.0348  -10.2529 C   0  0  0  0  0  0  0  0  0  0  0  0
   25.2197  -20.7667   -9.0656 C   0  0  0  0  0  0  0  0  0  0  0  0
   23.7493  -20.7836   -8.8443 C   0  0  0  0  0  0  0  0  0  0  0  0
   23.3502  -21.3947   -7.5224 C   0  0  0  0  0  0  0  0  0  0  0  0
   21.8981  -21.3951   -7.4233 N   0  0  0  0  0  0  0  0  0  0  0  0
   25.5998  -19.9573  -12.7186 C   0  0  0  0  0  0  0  0  0  0  0  0
   24.8524  -18.9182  -12.7285 O   0  0  0  0  0  0  0  0  0  0  0  0
   26.4081  -20.1493  -13.8256 N   0  0  0  0  0  0  0  0  0  0  0  0
   26.4516  -19.1872  -14.9693 C   0  0  1  0  0  0  0  0  0  0  0  0
   27.8486  -19.2685  -15.4596 C   0  0  0  0  0  0  0  0  0  0  0  0
   28.2097  -18.5394  -16.6944 C   0  0  0  0  0  0  0  0  0  0  0  0
   28.3518  -19.4790  -17.8268 C   0  0  0  0  0  0  0  0  0  0  0  0
   27.7626  -19.1663  -18.9184 O   0  0  0  0  0  0  0  0  0  0  0  0
   25.3544  -19.4989  -15.8594 C   0  0  0  0  0  0  0  0  0  0  0  0
   25.0009  -20.7151  -16.0505 O   0  0  0  0  0  0  0  0  0  0  0  0
   29.0754  -20.6555  -17.7650 O   0  0  0  0  0  0  0  0  0  0  0  0
   24.6186  -18.5172  -16.5589 N   0  0  0  0  0  0  0  0  0  0  0  0
   23.4580  -18.8643  -17.3520 C   0  0  1  0  0  0  0  0  0  0  0  0
   22.7988  -17.5682  -17.7500 C   0  0  0  0  0  0  0  0  0  0  0  0
   21.5482  -17.7556  -18.5454 C   0  0  0  0  0  0  0  0  0  0  0  0
   20.8440  -16.4846  -18.8931 C   0  0  0  0  0  0  0  0  0  0  0  0
   19.5294  -16.7214  -19.6055 C   0  0  0  0  0  0  0  0  0  0  0  0
   18.8914  -15.4106  -19.7809 N   0  0  0  0  0  0  0  0  0  0  0  0
   23.8597  -19.6793  -18.5065 C   0  0  0  0  0  0  0  0  0  0  0  0
   25.0518  -19.3910  -19.1493 O   0  0  0  0  0  0  0  0  0  0  0  0
   23.1863  -20.6371  -18.9609 O   0  0  0  0  0  0  0  0  0  0  0  0
  2  3  1  0
  2  1  1  6
  3  4  1  0
  5  4  1  0
  5  6  1  0
  7  6  1  0
  8  2  1  0
  8  9  2  0
 10  8  1  0
 11 10  1  0
 11 12  1  6
 13 12  1  0
 13 14  1  0
 14 15  2  0
 16 17  2  0
 16 11  1  0
 18 14  1  0
 19 16  1  0
 20 19  1  0
 20 21  1  6
 22 23  1  0
 22 21  1  0
 23 24  1  0
 24 25  1  0
 26 20  1  0
 27 26  1  0
 28 26  2  0
M  END
$$$$
