KEK.pdb
     RDKit          3D

 28 27  0  0  1  0  0  0  0  0999 V2000
   24.5182  -22.5207  -14.5744 N   0  0  0  0  0  0  0  0  0  0  0  0
   24.3369  -21.2201  -14.0742 C   0  0  1  0  0  0  0  0  0  0  0  0
   24.5987  -20.1162  -15.0934 C   0  0  0  0  0  0  0  0  0  0  0  0
   25.9488  -20.2166  -15.6921 C   0  0  0  0  0  0  0  0  0  0  0  0
   26.0665  -20.9469  -16.9822 C   0  0  0  0  0  0  0  0  0  0  0  0
   27.4451  -20.8643  -17.5928 C   0  0  0  0  0  0  0  0  0  0  0  0
   27.5198  -21.7901  -18.7134 N   0  0  0  0  0  0  0  0  0  0  0  0
   23.0797  -20.9966  -13.3565 C   0  0  0  0  0  0  0  0  0  0  0  0
   23.1656  -20.5834  -12.1480 O   0  0  0  0  0  0  0  0  0  0  0  0
   21.8032  -21.1889  -13.8558 N   0  0  0  0  0  0  0  0  0  0  0  0
   20.5725  -20.8786  -13.0655 C   0  0  1  0  0  0  0  0  0  0  0  0
   19.7671  -20.0218  -13.9686 C   0  0  0  0  0  0  0  0  0  0  0  0
   19.9372  -18.5548  -13.8917 C   0  0  0  0  0  0  0  0  0  0  0  0
   18.6208  -17.8835  -13.8480 C   0  0  0  0  0  0  0  0  0  0  0  0
   17.8996  -17.9503  -14.9025 O   0  0  0  0  0  0  0  0  0  0  0  0
   20.0270  -22.1264  -12.5769 C   0  0  0  0  0  0  0  0  0  0  0  0
   20.1552  -23.2014  -13.2614 O   0  0  0  0  0  0  0  0  0  0  0  0
   18.1408  -17.2007  -12.7458 O   0  0  0  0  0  0  0  0  0  0  0  0
   19.3362  -22.2452  -11.3509 N   0  0  0  0  0  0  0  0  0  0  0  0
   18.8486  -23.5239  -10.8784 C   0  0  1  0  0  0  0  0  0  0  0  0
   18.6678  -23.3973   -9.3870 C   0  0  0  0  0  0  0  0  0  0  0  0
   18.2924  -24.6808   -8.7213 C   0  0  0  0  0  0  0  0  0  0  0  0
   18.1625  -24.5884   -7.2358 C   0  0  0  0  0  0  0  0  0  0  0  0
   17.8011  -25.9128   -6.5977 C   0  0  0  0  0  0  0  0  0  0  0  0
   17.8764  -25.7258   -5.1432 N   0  0  0  0  0  0  0  0  0  0  0  0
   17.6061  -23.8807  -11.5764 C   0  0  0  0  0  0  0  0  0  0  0  0
   17.3579  -25.2116  -11.8669 O   0  0  0  0  0  0  0  0  0  0  0  0
   16.7362  -23.0490  -11.9354 O   0  0  0  0  0  0  0  0  0  0  0  0
  2  3  1  0
  2  1  1  6
  3  4  1  0
  5  4  1  0
  5  6  1  0
  7  6  1  0
  8  2  1  0
  8  9  2  0
 10  8  1  0
 11 10  1  0
 11 12  1  6
 13 12  1  0
 13 14  1  0
 14 15  2  0
 16 17  2  0
 16 11  1  0
 18 14  1  0
 19 16  1  0
 20 19  1  0
 20 21  1  1
 22 23  1  0
 22 21  1  0
 23 24  1  0
 24 25  1  0
 26 20  1  0
 27 26  1  0
 28 26  2  0
M  END
$$$$
