KEK.pdb
     RDKit          3D

 28 27  0  0  1  0  0  0  0  0999 V2000
   18.0021   -9.8320  -16.2637 N   0  0  0  0  0  0  0  0  0  0  0  0
   17.5898  -10.4115  -15.0518 C   0  0  1  0  0  0  0  0  0  0  0  0
   17.9706  -11.8805  -14.8997 C   0  0  0  0  0  0  0  0  0  0  0  0
   17.5566  -12.6893  -16.0683 C   0  0  0  0  0  0  0  0  0  0  0  0
   16.1048  -12.7258  -16.3884 C   0  0  0  0  0  0  0  0  0  0  0  0
   15.7671  -13.6536  -17.5309 C   0  0  0  0  0  0  0  0  0  0  0  0
   15.3940  -14.9517  -16.9885 N   0  0  0  0  0  0  0  0  0  0  0  0
   17.9236   -9.6463  -13.8481 C   0  0  0  0  0  0  0  0  0  0  0  0
   17.4781  -10.0918  -12.7338 O   0  0  0  0  0  0  0  0  0  0  0  0
   18.6746   -8.4850  -13.7949 N   0  0  0  0  0  0  0  0  0  0  0  0
   19.0016   -7.7938  -12.5100 C   0  0  1  0  0  0  0  0  0  0  0  0
   20.1400   -6.9080  -12.8533 C   0  0  0  0  0  0  0  0  0  0  0  0
   20.6582   -5.9871  -11.8188 C   0  0  0  0  0  0  0  0  0  0  0  0
   21.7812   -5.1881  -12.3537 C   0  0  0  0  0  0  0  0  0  0  0  0
   22.9610   -5.5379  -12.0041 O   0  0  0  0  0  0  0  0  0  0  0  0
   17.7794   -7.2275  -11.9819 C   0  0  0  0  0  0  0  0  0  0  0  0
   17.0228   -6.5111  -12.7267 O   0  0  0  0  0  0  0  0  0  0  0  0
   21.6219   -4.1034  -13.1959 O   0  0  0  0  0  0  0  0  0  0  0  0
   17.3469   -7.4173  -10.6510 N   0  0  0  0  0  0  0  0  0  0  0  0
   16.1680   -6.7524  -10.1368 C   0  0  1  0  0  0  0  0  0  0  0  0
   15.2238   -7.8338   -9.6763 C   0  0  0  0  0  0  0  0  0  0  0  0
   14.0096   -7.3087   -8.9823 C   0  0  0  0  0  0  0  0  0  0  0  0
   13.0571   -8.3651   -8.5251 C   0  0  0  0  0  0  0  0  0  0  0  0
   11.9037   -7.8032   -7.7216 C   0  0  0  0  0  0  0  0  0  0  0  0
   11.1041   -8.9444   -7.2584 N   0  0  0  0  0  0  0  0  0  0  0  0
   16.5400   -5.8227   -9.0618 C   0  0  0  0  0  0  0  0  0  0  0  0
   17.7788   -5.9559   -8.4580 O   0  0  0  0  0  0  0  0  0  0  0  0
   15.8004   -4.8978   -8.6434 O   0  0  0  0  0  0  0  0  0  0  0  0
  2  3  1  0
  2  1  1  6
  3  4  1  0
  5  4  1  0
  5  6  1  0
  7  6  1  0
  8  2  1  0
  8  9  2  0
 10  8  1  0
 11 10  1  0
 11 12  1  6
 13 12  1  0
 13 14  1  0
 14 15  2  0
 16 17  2  0
 16 11  1  0
 18 14  1  0
 19 16  1  0
 20 19  1  0
 20 21  1  1
 22 23  1  0
 22 21  1  0
 23 24  1  0
 24 25  1  0
 26 20  1  0
 27 26  1  0
 28 26  2  0
M  END
$$$$
