KEK.pdb
     RDKit          3D

 28 27  0  0  1  0  0  0  0  0999 V2000
   27.7904  -21.0634  -16.6354 N   0  0  0  0  0  0  0  0  0  0  0  0
   27.1885  -20.1218  -15.7835 C   0  0  1  0  0  0  0  0  0  0  0  0
   26.6651  -18.8789  -16.4958 C   0  0  0  0  0  0  0  0  0  0  0  0
   27.7498  -18.1065  -17.1424 C   0  0  0  0  0  0  0  0  0  0  0  0
   28.5657  -18.8098  -18.1677 C   0  0  0  0  0  0  0  0  0  0  0  0
   29.6006  -17.9243  -18.8194 C   0  0  0  0  0  0  0  0  0  0  0  0
   30.2752  -18.6795  -19.8649 N   0  0  0  0  0  0  0  0  0  0  0  0
   26.1927  -20.6648  -14.8567 C   0  0  0  0  0  0  0  0  0  0  0  0
   25.2969  -21.4341  -15.3509 O   0  0  0  0  0  0  0  0  0  0  0  0
   26.1225  -20.4278  -13.4948 N   0  0  0  0  0  0  0  0  0  0  0  0
   25.0581  -21.0189  -12.6268 C   0  0  1  0  0  0  0  0  0  0  0  0
   25.6173  -20.9323  -11.2563 C   0  0  0  0  0  0  0  0  0  0  0  0
   24.7826  -21.3807  -10.1210 C   0  0  0  0  0  0  0  0  0  0  0  0
   25.4702  -21.1188   -8.8388 C   0  0  0  0  0  0  0  0  0  0  0  0
   26.6897  -20.7373   -8.9011 O   0  0  0  0  0  0  0  0  0  0  0  0
   23.8079  -20.3613  -12.9398 C   0  0  0  0  0  0  0  0  0  0  0  0
   23.7674  -19.0918  -13.1050 O   0  0  0  0  0  0  0  0  0  0  0  0
   24.8721  -21.2631   -7.6007 O   0  0  0  0  0  0  0  0  0  0  0  0
   22.5825  -21.0490  -13.0807 N   0  0  0  0  0  0  0  0  0  0  0  0
   21.3558  -20.3502  -13.4021 C   0  0  1  0  0  0  0  0  0  0  0  0
   21.2572  -20.3121  -14.9060 C   0  0  0  0  0  0  0  0  0  0  0  0
   19.9675  -19.7465  -15.4043 C   0  0  0  0  0  0  0  0  0  0  0  0
   19.7820  -19.8476  -16.8833 C   0  0  0  0  0  0  0  0  0  0  0  0
   18.4786  -19.2364  -17.3516 C   0  0  0  0  0  0  0  0  0  0  0  0
   18.3471  -19.5434  -18.7815 N   0  0  0  0  0  0  0  0  0  0  0  0
   20.2112  -21.0213  -12.7712 C   0  0  0  0  0  0  0  0  0  0  0  0
   20.2258  -22.4004  -12.6488 O   0  0  0  0  0  0  0  0  0  0  0  0
   19.2011  -20.4220  -12.3263 O   0  0  0  0  0  0  0  0  0  0  0  0
  2  3  1  0
  2  1  1  6
  3  4  1  0
  5  4  1  0
  5  6  1  0
  7  6  1  0
  8  2  1  0
  8  9  2  0
 10  8  1  0
 11 10  1  0
 11 12  1  1
 13 12  1  0
 13 14  1  0
 14 15  2  0
 16 17  2  0
 16 11  1  0
 18 14  1  0
 19 16  1  0
 20 19  1  0
 20 21  1  6
 22 23  1  0
 22 21  1  0
 23 24  1  0
 24 25  1  0
 26 20  1  0
 27 26  1  0
 28 26  2  0
M  END
$$$$
