KEK.pdb
     RDKit          3D

 28 27  0  0  1  0  0  0  0  0999 V2000
   24.5502  -22.3673  -15.2400 N   0  0  0  0  0  0  0  0  0  0  0  0
   24.6309  -21.4603  -14.1697 C   0  0  1  0  0  0  0  0  0  0  0  0
   25.4536  -20.2115  -14.4691 C   0  0  0  0  0  0  0  0  0  0  0  0
   26.7913  -20.5399  -15.0115 C   0  0  0  0  0  0  0  0  0  0  0  0
   26.8528  -21.0354  -16.4123 C   0  0  0  0  0  0  0  0  0  0  0  0
   28.2625  -21.1924  -16.9300 C   0  0  0  0  0  0  0  0  0  0  0  0
   28.6784  -19.9426  -17.5494 N   0  0  0  0  0  0  0  0  0  0  0  0
   23.3519  -21.1190  -13.5425 C   0  0  0  0  0  0  0  0  0  0  0  0
   23.3882  -20.3112  -12.5502 O   0  0  0  0  0  0  0  0  0  0  0  0
   22.1034  -21.5849  -13.9163 N   0  0  0  0  0  0  0  0  0  0  0  0
   20.8512  -21.2071  -13.1918 C   0  0  1  0  0  0  0  0  0  0  0  0
   20.0788  -20.4232  -14.1856 C   0  0  0  0  0  0  0  0  0  0  0  0
   18.6603  -20.1185  -13.8998 C   0  0  0  0  0  0  0  0  0  0  0  0
   18.0870  -19.2750  -14.9700 C   0  0  0  0  0  0  0  0  0  0  0  0
   17.8258  -19.8478  -16.0837 O   0  0  0  0  0  0  0  0  0  0  0  0
   20.2834  -22.4092  -12.6210 C   0  0  0  0  0  0  0  0  0  0  0  0
   20.2732  -23.5015  -13.2899 O   0  0  0  0  0  0  0  0  0  0  0  0
   17.8250  -17.9249  -14.8292 O   0  0  0  0  0  0  0  0  0  0  0  0
   19.7177  -22.4632  -11.3282 N   0  0  0  0  0  0  0  0  0  0  0  0
   19.0660  -23.6593  -10.8372 C   0  0  1  0  0  0  0  0  0  0  0  0
   18.9656  -23.5172   -9.3396 C   0  0  0  0  0  0  0  0  0  0  0  0
   18.3173  -24.6862   -8.6725 C   0  0  0  0  0  0  0  0  0  0  0  0
   18.1265  -24.5259   -7.1994 C   0  0  0  0  0  0  0  0  0  0  0  0
   17.3747  -25.6839   -6.5785 C   0  0  0  0  0  0  0  0  0  0  0  0
   17.4769  -25.5332   -5.1214 N   0  0  0  0  0  0  0  0  0  0  0  0
   17.7576  -23.8245  -11.4846 C   0  0  0  0  0  0  0  0  0  0  0  0
   17.2992  -25.1027  -11.7550 O   0  0  0  0  0  0  0  0  0  0  0  0
   17.0108  -22.8708  -11.8168 O   0  0  0  0  0  0  0  0  0  0  0  0
  2  3  1  0
  2  1  1  6
  3  4  1  0
  5  4  1  0
  5  6  1  0
  7  6  1  0
  8  2  1  0
  8  9  2  0
 10  8  1  0
 11 10  1  0
 11 12  1  6
 13 12  1  0
 13 14  1  0
 14 15  2  0
 16 17  2  0
 16 11  1  0
 18 14  1  0
 19 16  1  0
 20 19  1  0
 20 21  1  1
 22 23  1  0
 22 21  1  0
 23 24  1  0
 24 25  1  0
 26 20  1  0
 27 26  1  0
 28 26  2  0
M  END
$$$$
