ANC.pdb
     RDKit          3D

 20 19  0  0  1  0  0  0  0  0999 V2000
    8.8650  -20.1373   17.3635 C   0  0  0  0  0  0  0  0  0  0  0  0
    8.9600  -18.7539   17.9635 C   0  0  2  0  0  0  0  0  0  0  0  0
    9.6402  -17.8166   17.0934 N   0  0  0  0  0  0  0  0  0  0  0  0
    9.6886  -18.8194   19.2369 C   0  0  0  0  0  0  0  0  0  0  0  0
    9.2357  -19.4517   20.2181 O   0  0  0  0  0  0  0  0  0  0  0  0
   13.8877  -20.7370   20.3648 N   0  0  0  0  0  0  0  0  0  0  0  0
   13.6451  -19.5051   19.7185 C   0  0  0  0  0  0  0  0  0  0  0  0
   13.8452  -19.4592   18.4734 O   0  0  0  0  0  0  0  0  0  0  0  0
   13.1812  -18.2673   20.3551 C   0  0  0  0  0  0  0  0  0  0  0  0
   11.7044  -18.2435   20.6706 C   0  0  2  0  0  0  0  0  0  0  0  0
   10.9580  -18.1668   19.4362 N   0  0  0  0  0  0  0  0  0  0  0  0
   11.4513  -17.0243   21.5219 C   0  0  0  0  0  0  0  0  0  0  0  0
   12.2978  -16.0991   21.5546 O   0  0  0  0  0  0  0  0  0  0  0  0
   10.2790  -16.8649   22.3060 N   0  0  0  0  0  0  0  0  0  0  0  0
   10.0215  -15.6787   23.0986 C   0  0  1  0  0  0  0  0  0  0  0  0
    8.5416  -15.3679   23.1617 C   0  0  0  0  0  0  0  0  0  0  0  0
    7.8104  -15.2476   21.5171 S   0  0  0  0  0  0  0  0  0  0  0  0
   10.5996  -15.8501   24.4622 C   0  0  0  0  0  0  0  0  0  0  0  0
   10.7327  -14.7782   25.3348 O   0  0  0  0  0  0  0  0  0  0  0  0
   10.9880  -16.9738   24.8711 O   0  0  0  0  0  0  0  0  0  0  0  0
  2  1  1  6
  2  4  1  0
  3  2  1  0
  4  5  2  0
  6  7  1  0
  7  9  1  0
  8  7  2  0
 10  9  1  6
 11 10  1  0
 11  4  1  0
 12 10  1  0
 12 14  1  0
 13 12  2  0
 15 14  1  0
 15 16  1  1
 17 16  1  0
 18 15  1  0
 19 18  1  0
 20 18  2  0
M  END
$$$$
