ANC.pdb
     RDKit          3D

 20 19  0  0  1  0  0  0  0  0999 V2000
    8.1292  -12.1859   19.5697 C   0  0  0  0  0  0  0  0  0  0  0  0
    8.4849  -13.6458   19.4115 C   0  0  2  0  0  0  0  0  0  0  0  0
    7.8732  -14.2429   18.2420 N   0  0  0  0  0  0  0  0  0  0  0  0
    8.0445  -14.3905   20.5981 C   0  0  0  0  0  0  0  0  0  0  0  0
    6.8980  -14.8885   20.6698 O   0  0  0  0  0  0  0  0  0  0  0  0
    7.9161  -18.4322   21.6415 N   0  0  0  0  0  0  0  0  0  0  0  0
    9.0503  -17.5968   21.7405 C   0  0  0  0  0  0  0  0  0  0  0  0
    9.8791  -17.6364   20.7897 O   0  0  0  0  0  0  0  0  0  0  0  0
    9.3616  -16.6830   22.8453 C   0  0  0  0  0  0  0  0  0  0  0  0
    8.5279  -15.4238   22.8673 C   0  0  2  0  0  0  0  0  0  0  0  0
    8.8951  -14.5935   21.7437 N   0  0  0  0  0  0  0  0  0  0  0  0
    8.8216  -14.7189   24.1681 C   0  0  0  0  0  0  0  0  0  0  0  0
    9.9892  -14.3360   24.4209 O   0  0  0  0  0  0  0  0  0  0  0  0
    7.8238  -14.4599   25.1437 N   0  0  0  0  0  0  0  0  0  0  0  0
    8.1147  -13.8205   26.4118 C   0  0  1  0  0  0  0  0  0  0  0  0
    6.8724  -13.2016   27.0154 C   0  0  0  0  0  0  0  0  0  0  0  0
    6.1159  -11.9971   25.9060 S   0  0  0  0  0  0  0  0  0  0  0  0
    8.7372  -14.8067   27.3409 C   0  0  0  0  0  0  0  0  0  0  0  0
    9.2776  -14.4163   28.5589 O   0  0  0  0  0  0  0  0  0  0  0  0
    8.7948  -16.0293   27.0536 O   0  0  0  0  0  0  0  0  0  0  0  0
  2  1  1  1
  2  4  1  0
  3  2  1  0
  4  5  2  0
  6  7  1  0
  7  9  1  0
  8  7  2  0
 10  9  1  1
 11 10  1  0
 11  4  1  0
 12 10  1  0
 12 14  1  0
 13 12  2  0
 15 14  1  0
 15 16  1  1
 17 16  1  0
 18 15  1  0
 19 18  1  0
 20 18  2  0
M  END
$$$$
