ANC.pdb
     RDKit          3D

 20 19  0  0  1  0  0  0  0  0999 V2000
    0.7322  -23.2899   22.7030 C   0  0  0  0  0  0  0  0  0  0  0  0
    0.3695  -24.6539   23.2424 C   0  0  2  0  0  0  0  0  0  0  0  0
    0.5759  -25.7082   22.2707 N   0  0  0  0  0  0  0  0  0  0  0  0
   -1.0423  -24.6634   23.6462 C   0  0  0  0  0  0  0  0  0  0  0  0
   -1.9366  -24.1884   22.9098 O   0  0  0  0  0  0  0  0  0  0  0  0
   -4.7609  -27.9351   24.0926 N   0  0  0  0  0  0  0  0  0  0  0  0
   -3.4907  -27.5707   24.5904 C   0  0  0  0  0  0  0  0  0  0  0  0
   -2.4831  -28.0693   24.0171 O   0  0  0  0  0  0  0  0  0  0  0  0
   -3.2257  -26.6651   25.7139 C   0  0  0  0  0  0  0  0  0  0  0  0
   -2.8699  -25.2546   25.3079 C   0  0  2  0  0  0  0  0  0  0  0  0
   -1.4839  -25.2142   24.9026 N   0  0  0  0  0  0  0  0  0  0  0  0
   -3.0979  -24.3746   26.5115 C   0  0  0  0  0  0  0  0  0  0  0  0
   -2.3694  -24.5017   27.5248 O   0  0  0  0  0  0  0  0  0  0  0  0
   -4.1168  -23.3876   26.5594 N   0  0  0  0  0  0  0  0  0  0  0  0
   -4.3089  -22.5140   27.7003 C   0  0  1  0  0  0  0  0  0  0  0  0
   -4.5198  -21.0792   27.2671 C   0  0  0  0  0  0  0  0  0  0  0  0
   -3.0948  -20.4326   26.3699 S   0  0  0  0  0  0  0  0  0  0  0  0
   -5.4498  -23.0066   28.5241 C   0  0  0  0  0  0  0  0  0  0  0  0
   -5.7154  -22.4845   29.7831 O   0  0  0  0  0  0  0  0  0  0  0  0
   -6.2134  -23.9141   28.1070 O   0  0  0  0  0  0  0  0  0  0  0  0
  2  1  1  6
  2  4  1  0
  3  2  1  0
  4  5  2  0
  6  7  1  0
  7  9  1  0
  8  7  2  0
 10  9  1  1
 11 10  1  0
 11  4  1  0
 12 10  1  0
 12 14  1  0
 13 12  2  0
 15 14  1  0
 15 16  1  6
 17 16  1  0
 18 15  1  0
 19 18  1  0
 20 18  2  0
M  END
$$$$
