ANC.pdb
     RDKit          3D

 20 19  0  0  1  0  0  0  0  0999 V2000
   10.3569  -17.4877   17.8838 C   0  0  0  0  0  0  0  0  0  0  0  0
   10.1964  -17.6628   19.3760 C   0  0  2  0  0  0  0  0  0  0  0  0
    8.9928  -18.3901   19.7236 N   0  0  0  0  0  0  0  0  0  0  0  0
   10.1471  -16.3455   20.0231 C   0  0  0  0  0  0  0  0  0  0  0  0
   11.1651  -15.6222   20.1130 O   0  0  0  0  0  0  0  0  0  0  0  0
    7.6838  -12.4029   18.7205 N   0  0  0  0  0  0  0  0  0  0  0  0
    7.3856  -13.6043   19.4001 C   0  0  0  0  0  0  0  0  0  0  0  0
    6.9328  -14.5588   18.7100 O   0  0  0  0  0  0  0  0  0  0  0  0
    7.5511  -13.8531   20.8365 C   0  0  0  0  0  0  0  0  0  0  0  0
    8.8617  -14.5044   21.2099 C   0  0  2  0  0  0  0  0  0  0  0  0
    8.9364  -15.8069   20.5899 N   0  0  0  0  0  0  0  0  0  0  0  0
    8.8838  -14.6287   22.7130 C   0  0  0  0  0  0  0  0  0  0  0  0
    8.7638  -13.6036   23.4261 O   0  0  0  0  0  0  0  0  0  0  0  0
    9.0369  -15.8730   23.3785 N   0  0  0  0  0  0  0  0  0  0  0  0
    9.1606  -15.9814   24.8189 C   0  0  1  0  0  0  0  0  0  0  0  0
    7.9708  -16.6959   25.4225 C   0  0  0  0  0  0  0  0  0  0  0  0
    6.4611  -15.7180   25.2871 S   0  0  0  0  0  0  0  0  0  0  0  0
   10.4389  -16.6674   25.1633 C   0  0  0  0  0  0  0  0  0  0  0  0
   10.8354  -16.8452   26.4821 O   0  0  0  0  0  0  0  0  0  0  0  0
   11.2046  -17.1101   24.2697 O   0  0  0  0  0  0  0  0  0  0  0  0
  2  1  1  6
  2  4  1  0
  3  2  1  0
  4  5  2  0
  6  7  1  0
  7  9  1  0
  8  7  2  0
 10  9  1  1
 11 10  1  0
 11  4  1  0
 12 10  1  0
 12 14  1  0
 13 12  2  0
 15 14  1  0
 15 16  1  6
 17 16  1  0
 18 15  1  0
 19 18  1  0
 20 18  2  0
M  END
$$$$
