ANC.pdb
     RDKit          3D

 20 19  0  0  1  0  0  0  0  0999 V2000
    9.7889  -18.5139   19.6395 C   0  0  0  0  0  0  0  0  0  0  0  0
    8.9920  -18.1410   20.8679 C   0  0  2  0  0  0  0  0  0  0  0  0
    7.5663  -18.3144   20.6787 N   0  0  0  0  0  0  0  0  0  0  0  0
    9.2481  -16.7367   21.2123 C   0  0  0  0  0  0  0  0  0  0  0  0
   10.3992  -16.3308   21.4913 O   0  0  0  0  0  0  0  0  0  0  0  0
    6.6595  -13.7946   18.6545 N   0  0  0  0  0  0  0  0  0  0  0  0
    7.5934  -13.3838   19.6308 C   0  0  0  0  0  0  0  0  0  0  0  0
    8.6792  -12.8914   19.2173 O   0  0  0  0  0  0  0  0  0  0  0  0
    7.4248  -13.4735   21.0854 C   0  0  0  0  0  0  0  0  0  0  0  0
    8.3913  -14.4114   21.7690 C   0  0  2  0  0  0  0  0  0  0  0  0
    8.2016  -15.7464   21.2508 N   0  0  0  0  0  0  0  0  0  0  0  0
    8.0863  -14.3655   23.2454 C   0  0  0  0  0  0  0  0  0  0  0  0
    7.0081  -14.8414   23.6753 O   0  0  0  0  0  0  0  0  0  0  0  0
    8.9752  -13.7992   24.1961 N   0  0  0  0  0  0  0  0  0  0  0  0
    8.6339  -13.6510   25.5972 C   0  0  1  0  0  0  0  0  0  0  0  0
    7.3068  -12.9441   25.7700 C   0  0  0  0  0  0  0  0  0  0  0  0
    6.9818  -12.5396   27.4976 S   0  0  0  0  0  0  0  0  0  0  0  0
    8.6276  -14.9880   26.2572 C   0  0  0  0  0  0  0  0  0  0  0  0
    9.1963  -15.1829   27.5089 O   0  0  0  0  0  0  0  0  0  0  0  0
    8.1061  -15.9884   25.7024 O   0  0  0  0  0  0  0  0  0  0  0  0
  2  1  1  6
  2  4  1  0
  3  2  1  0
  4  5  2  0
  6  7  1  0
  7  9  1  0
  8  7  2  0
 10  9  1  6
 11 10  1  0
 11  4  1  0
 12 10  1  0
 12 14  1  0
 13 12  2  0
 15 14  1  0
 15 16  1  6
 17 16  1  0
 18 15  1  0
 19 18  1  0
 20 18  2  0
M  END
$$$$
