ANC.pdb
     RDKit          3D

 20 19  0  0  1  0  0  0  0  0999 V2000
    8.4653  -12.3493   19.7878 C   0  0  0  0  0  0  0  0  0  0  0  0
    8.8791  -13.2397   18.6393 C   0  0  2  0  0  0  0  0  0  0  0  0
    7.7459  -13.8416   17.9670 N   0  0  0  0  0  0  0  0  0  0  0  0
    9.7480  -14.3134   19.1381 C   0  0  0  0  0  0  0  0  0  0  0  0
    9.2847  -15.4269   19.4746 O   0  0  0  0  0  0  0  0  0  0  0  0
   14.2314  -13.9875   17.0273 N   0  0  0  0  0  0  0  0  0  0  0  0
   13.7459  -15.0048   17.8779 C   0  0  0  0  0  0  0  0  0  0  0  0
   13.5260  -16.1335   17.3580 O   0  0  0  0  0  0  0  0  0  0  0  0
   13.4707  -14.8782   19.3134 C   0  0  0  0  0  0  0  0  0  0  0  0
   12.0526  -15.2154   19.7090 C   0  0  2  0  0  0  0  0  0  0  0  0
   11.1744  -14.1555   19.2706 N   0  0  0  0  0  0  0  0  0  0  0  0
   12.0279  -15.3390   21.2120 C   0  0  0  0  0  0  0  0  0  0  0  0
   12.5058  -14.4218   21.9219 O   0  0  0  0  0  0  0  0  0  0  0  0
   11.4799  -16.4644   21.8811 N   0  0  0  0  0  0  0  0  0  0  0  0
   11.4254  -16.5673   23.3262 C   0  0  1  0  0  0  0  0  0  0  0  0
   10.0064  -16.7709   23.8117 C   0  0  0  0  0  0  0  0  0  0  0  0
    9.9343  -16.9916   25.6005 S   0  0  0  0  0  0  0  0  0  0  0  0
   12.3204  -17.6677   23.7858 C   0  0  0  0  0  0  0  0  0  0  0  0
   13.0887  -17.5466   24.9361 O   0  0  0  0  0  0  0  0  0  0  0  0
   12.4113  -18.7465   23.1466 O   0  0  0  0  0  0  0  0  0  0  0  0
  2  1  1  1
  2  4  1  0
  3  2  1  0
  4  5  2  0
  6  7  1  0
  7  9  1  0
  8  7  2  0
 10  9  1  1
 11 10  1  0
 11  4  1  0
 12 10  1  0
 12 14  1  0
 13 12  2  0
 15 14  1  0
 15 16  1  6
 17 16  1  0
 18 15  1  0
 19 18  1  0
 20 18  2  0
M  END
$$$$
