ANC.pdb
     RDKit          3D

 20 19  0  0  1  0  0  0  0  0999 V2000
    7.3708  -13.0593   19.3984 C   0  0  0  0  0  0  0  0  0  0  0  0
    8.4287  -13.8078   20.1753 C   0  0  2  0  0  0  0  0  0  0  0  0
    8.8369  -15.0330   19.5191 N   0  0  0  0  0  0  0  0  0  0  0  0
    7.9139  -14.1436   21.5089 C   0  0  0  0  0  0  0  0  0  0  0  0
    7.2797  -13.3097   22.1946 O   0  0  0  0  0  0  0  0  0  0  0  0
    5.4450  -18.2468   22.7514 N   0  0  0  0  0  0  0  0  0  0  0  0
    6.8413  -18.0586   22.6567 C   0  0  0  0  0  0  0  0  0  0  0  0
    7.4300  -18.5994   21.6803 O   0  0  0  0  0  0  0  0  0  0  0  0
    7.6790  -17.2927   23.5863 C   0  0  0  0  0  0  0  0  0  0  0  0
    7.5954  -15.7948   23.4124 C   0  0  2  0  0  0  0  0  0  0  0  0
    8.1038  -15.4409   22.1073 N   0  0  0  0  0  0  0  0  0  0  0  0
    8.4382  -15.1734   24.4980 C   0  0  0  0  0  0  0  0  0  0  0  0
    9.6894  -15.2307   24.4268 O   0  0  0  0  0  0  0  0  0  0  0  0
    7.8777  -14.5122   25.6218 N   0  0  0  0  0  0  0  0  0  0  0  0
    8.6874  -13.8553   26.6291 C   0  0  1  0  0  0  0  0  0  0  0  0
    7.9562  -12.6825   27.2460 C   0  0  0  0  0  0  0  0  0  0  0  0
    6.3897  -12.3551   26.4136 S   0  0  0  0  0  0  0  0  0  0  0  0
    9.1005  -14.8444   27.6654 C   0  0  0  0  0  0  0  0  0  0  0  0
    9.9969  -14.5104   28.6719 O   0  0  0  0  0  0  0  0  0  0  0  0
    8.6509  -16.0185   27.6646 O   0  0  0  0  0  0  0  0  0  0  0  0
  2  1  1  6
  2  4  1  0
  3  2  1  0
  4  5  2  0
  6  7  1  0
  7  9  1  0
  8  7  2  0
 10  9  1  1
 11 10  1  0
 11  4  1  0
 12 10  1  0
 12 14  1  0
 13 12  2  0
 15 14  1  0
 15 16  1  1
 17 16  1  0
 18 15  1  0
 19 18  1  0
 20 18  2  0
M  END
$$$$
