ANC.pdb
     RDKit          3D

 20 19  0  0  1  0  0  0  0  0999 V2000
    7.6138  -13.5380   19.0662 C   0  0  0  0  0  0  0  0  0  0  0  0
    8.4708  -14.1574   20.1456 C   0  0  2  0  0  0  0  0  0  0  0  0
    8.8827  -15.5077   19.8211 N   0  0  0  0  0  0  0  0  0  0  0  0
    7.7229  -14.1901   21.4088 C   0  0  0  0  0  0  0  0  0  0  0  0
    7.1645  -13.1666   21.8654 O   0  0  0  0  0  0  0  0  0  0  0  0
    7.7998  -18.7337   25.0218 N   0  0  0  0  0  0  0  0  0  0  0  0
    7.7052  -17.7250   24.0381 C   0  0  0  0  0  0  0  0  0  0  0  0
    8.7183  -17.5338   23.3105 O   0  0  0  0  0  0  0  0  0  0  0  0
    6.5394  -16.8732   23.7776 C   0  0  0  0  0  0  0  0  0  0  0  0
    6.8759  -15.4370   23.4530 C   0  0  2  0  0  0  0  0  0  0  0  0
    7.5852  -15.3899   22.1955 N   0  0  0  0  0  0  0  0  0  0  0  0
    7.7439  -14.9199   24.5730 C   0  0  0  0  0  0  0  0  0  0  0  0
    8.9902  -15.0460   24.5062 O   0  0  0  0  0  0  0  0  0  0  0  0
    7.2128  -14.2834   25.7251 N   0  0  0  0  0  0  0  0  0  0  0  0
    8.0383  -13.5580   26.6706 C   0  0  1  0  0  0  0  0  0  0  0  0
    7.2100  -12.6146   27.5159 C   0  0  0  0  0  0  0  0  0  0  0  0
    6.0334  -11.6782   26.5196 S   0  0  0  0  0  0  0  0  0  0  0  0
    8.7981  -14.5219   27.5173 C   0  0  0  0  0  0  0  0  0  0  0  0
    9.7530  -14.0918   28.4291 O   0  0  0  0  0  0  0  0  0  0  0  0
    8.6006  -15.7608   27.4353 O   0  0  0  0  0  0  0  0  0  0  0  0
  2  1  1  6
  2  4  1  0
  3  2  1  0
  4  5  2  0
  6  7  1  0
  7  9  1  0
  8  7  2  0
 10  9  1  1
 11 10  1  0
 11  4  1  0
 12 10  1  0
 12 14  1  0
 13 12  2  0
 15 14  1  0
 15 16  1  1
 17 16  1  0
 18 15  1  0
 19 18  1  0
 20 18  2  0
M  END
$$$$
