ANC.pdb
     RDKit          3D

 20 19  0  0  1  0  0  0  0  0999 V2000
    8.2440  -12.3156   19.3625 C   0  0  0  0  0  0  0  0  0  0  0  0
    8.8095  -13.3294   18.3953 C   0  0  2  0  0  0  0  0  0  0  0  0
    7.7877  -13.9377   17.5680 N   0  0  0  0  0  0  0  0  0  0  0  0
    9.4965  -14.3910   19.1419 C   0  0  0  0  0  0  0  0  0  0  0  0
    8.9445  -15.4909   19.3729 O   0  0  0  0  0  0  0  0  0  0  0  0
   13.5424  -14.0490   17.8806 N   0  0  0  0  0  0  0  0  0  0  0  0
   13.2012  -15.2121   18.6052 C   0  0  0  0  0  0  0  0  0  0  0  0
   13.0910  -16.2858   17.9514 O   0  0  0  0  0  0  0  0  0  0  0  0
   12.9610  -15.2954   20.0501 C   0  0  0  0  0  0  0  0  0  0  0  0
   11.5041  -15.2415   20.4446 C   0  0  2  0  0  0  0  0  0  0  0  0
   10.8359  -14.2363   19.6510 N   0  0  0  0  0  0  0  0  0  0  0  0
   11.4530  -14.8838   21.9090 C   0  0  0  0  0  0  0  0  0  0  0  0
   11.1844  -13.7084   22.2555 O   0  0  0  0  0  0  0  0  0  0  0  0
   11.6984  -15.8285   22.9394 N   0  0  0  0  0  0  0  0  0  0  0  0
   10.7243  -16.1377   23.9677 C   0  0  1  0  0  0  0  0  0  0  0  0
    9.3133  -15.8738   23.4881 C   0  0  0  0  0  0  0  0  0  0  0  0
    8.1513  -15.7418   24.8614 S   0  0  0  0  0  0  0  0  0  0  0  0
   10.8926  -17.5514   24.4105 C   0  0  0  0  0  0  0  0  0  0  0  0
   10.9637  -17.8875   25.7559 O   0  0  0  0  0  0  0  0  0  0  0  0
   10.9761  -18.4912   23.5796 O   0  0  0  0  0  0  0  0  0  0  0  0
  2  1  1  1
  2  4  1  0
  3  2  1  0
  4  5  2  0
  6  7  1  0
  7  9  1  0
  8  7  2  0
 10  9  1  6
 11 10  1  0
 11  4  1  0
 12 10  1  0
 12 14  1  0
 13 12  2  0
 15 14  1  0
 15 16  1  6
 17 16  1  0
 18 15  1  0
 19 18  1  0
 20 18  2  0
M  END
$$$$
