MAF.pdb
     RDKit          3D

 25 25  0  0  1  0  0  0  0  0999 V2000
    9.2151  -19.1630   28.0537 C   0  0  0  0  0  0  0  0  0  0  0  0
    7.4182  -19.1735   28.3716 S   0  0  0  0  0  0  0  0  0  0  0  0
    6.5139  -19.7268   26.8857 C   0  0  0  0  0  0  0  0  0  0  0  0
    7.0086  -18.9126   25.7250 C   0  0  0  0  0  0  0  0  0  0  0  0
    6.3951  -19.2384   24.4077 C   0  0  2  0  0  0  0  0  0  0  0  0
    6.5562  -20.6467   24.0733 N   0  0  0  0  0  0  0  0  0  0  0  0
    6.9705  -18.3699   23.3555 C   0  0  0  0  0  0  0  0  0  0  0  0
    8.0834  -18.5415   22.8031 O   0  0  0  0  0  0  0  0  0  0  0  0
    5.7847  -15.2457   21.4740 C   0  0  0  0  0  0  0  0  0  0  0  0
    6.8089  -16.2893   21.9389 C   0  0  2  0  0  0  0  0  0  0  0  0
    6.2499  -17.2096   22.8729 N   0  0  0  0  0  0  0  0  0  0  0  0
    7.9723  -15.5473   22.4369 C   0  0  0  0  0  0  0  0  0  0  0  0
    8.6813  -14.7701   21.7703 O   0  0  0  0  0  0  0  0  0  0  0  0
    8.3458  -15.7120   23.7990 N   0  0  0  0  0  0  0  0  0  0  0  0
    9.4868  -15.0187   24.3750 C   0  0  1  0  0  0  0  0  0  0  0  0
    9.2475  -13.5811   24.5984 C   0  0  0  0  0  0  0  0  0  0  0  0
    8.1651  -13.3831   25.5717 C   0  0  0  0  0  0  0  0  0  0  0  0
    8.4073  -13.2498   26.9173 C   0  0  0  0  0  0  0  0  0  0  0  0
    7.4201  -13.0552   27.8548 C   0  0  0  0  0  0  0  0  0  0  0  0
    6.0947  -12.9880   27.4285 C   0  0  0  0  0  0  0  0  0  0  0  0
    5.8208  -13.1185   26.0863 C   0  0  0  0  0  0  0  0  0  0  0  0
    6.8374  -13.3125   25.1745 C   0  0  0  0  0  0  0  0  0  0  0  0
    9.8493  -15.7015   25.6227 C   0  0  0  0  0  0  0  0  0  0  0  0
    9.0326  -16.7553   26.0596 O   0  0  0  0  0  0  0  0  0  0  0  0
   10.8254  -15.4474   26.3609 O   0  0  0  0  0  0  0  0  0  0  0  0
  2  3  1  0
  2  1  1  0
  4  3  1  0
  5  4  1  0
  5  7  1  0
  5  6  1  6
  7 11  1  0
  7  8  2  0
 10  9  1  1
 10 12  1  0
 11 10  1  0
 12 14  1  0
 12 13  2  0
 14 15  1  0
 15 23  1  0
 15 16  1  1
 17 22  2  0
 17 16  1  0
 18 17  1  0
 19 20  1  0
 19 18  2  0
 20 21  2  0
 21 22  1  0
 23 24  1  0
 25 23  2  0
M  END
$$$$
