MAF.pdb
     RDKit          3D

 25 25  0  0  1  0  0  0  0  0999 V2000
    9.6822  -12.6245   19.7079 C   0  0  0  0  0  0  0  0  0  0  0  0
    7.8761  -12.8844   19.7326 S   0  0  0  0  0  0  0  0  0  0  0  0
    7.4446  -14.4263   18.8563 C   0  0  0  0  0  0  0  0  0  0  0  0
    8.4858  -15.4512   19.2034 C   0  0  0  0  0  0  0  0  0  0  0  0
    7.9619  -16.7967   19.5680 C   0  0  2  0  0  0  0  0  0  0  0  0
    6.6912  -17.0745   18.9128 N   0  0  0  0  0  0  0  0  0  0  0  0
    7.8400  -16.9078   21.0396 C   0  0  0  0  0  0  0  0  0  0  0  0
    6.9923  -16.3087   21.7436 O   0  0  0  0  0  0  0  0  0  0  0  0
    8.7688  -19.3663   23.6523 C   0  0  0  0  0  0  0  0  0  0  0  0
    8.6467  -17.9012   23.2131 C   0  0  2  0  0  0  0  0  0  0  0  0
    8.7358  -17.7570   21.7978 N   0  0  0  0  0  0  0  0  0  0  0  0
    9.6555  -17.1484   23.9666 C   0  0  0  0  0  0  0  0  0  0  0  0
   10.8479  -16.9986   23.6400 O   0  0  0  0  0  0  0  0  0  0  0  0
    9.2633  -16.5240   25.1825 N   0  0  0  0  0  0  0  0  0  0  0  0
   10.1984  -15.7623   25.9946 C   0  0  1  0  0  0  0  0  0  0  0  0
   10.1495  -14.3110   25.7392 C   0  0  0  0  0  0  0  0  0  0  0  0
    8.7925  -13.7933   25.9599 C   0  0  0  0  0  0  0  0  0  0  0  0
    8.5057  -12.8977   26.9612 C   0  0  0  0  0  0  0  0  0  0  0  0
    7.2499  -12.3865   27.1911 C   0  0  0  0  0  0  0  0  0  0  0  0
    6.2000  -12.7926   26.3690 C   0  0  0  0  0  0  0  0  0  0  0  0
    6.4565  -13.6894   25.3574 C   0  0  0  0  0  0  0  0  0  0  0  0
    7.7296  -14.1808   25.1565 C   0  0  0  0  0  0  0  0  0  0  0  0
    9.9267  -16.0672   27.4045 C   0  0  0  0  0  0  0  0  0  0  0  0
   10.8243  -15.5847   28.3688 O   0  0  0  0  0  0  0  0  0  0  0  0
    8.9647  -16.7235   27.8585 O   0  0  0  0  0  0  0  0  0  0  0  0
  2  3  1  0
  2  1  1  0
  4  3  1  0
  5  4  1  0
  5  7  1  0
  5  6  1  6
  7 11  1  0
  7  8  2  0
 10  9  1  6
 10 12  1  0
 11 10  1  0
 12 14  1  0
 12 13  2  0
 14 15  1  0
 15 23  1  0
 15 16  1  1
 17 22  2  0
 17 16  1  0
 18 17  1  0
 19 20  1  0
 19 18  2  0
 20 21  2  0
 21 22  1  0
 23 24  1  0
 25 23  2  0
M  END
$$$$
