MAF.pdb
     RDKit          3D

 25 25  0  0  1  0  0  0  0  0999 V2000
    3.7730  -21.3278   19.6814 C   0  0  0  0  0  0  0  0  0  0  0  0
    3.8304  -19.5063   19.7749 S   0  0  0  0  0  0  0  0  0  0  0  0
    4.8616  -18.9751   21.1842 C   0  0  0  0  0  0  0  0  0  0  0  0
    5.8515  -20.0702   21.4593 C   0  0  0  0  0  0  0  0  0  0  0  0
    6.7789  -19.8226   22.5979 C   0  0  2  0  0  0  0  0  0  0  0  0
    6.1338  -19.0659   23.6619 N   0  0  0  0  0  0  0  0  0  0  0  0
    7.9970  -19.1332   22.1145 C   0  0  0  0  0  0  0  0  0  0  0  0
    8.9039  -19.6611   21.4275 O   0  0  0  0  0  0  0  0  0  0  0  0
    8.8869  -16.1009   20.7086 C   0  0  0  0  0  0  0  0  0  0  0  0
    9.3229  -17.0013   21.8720 C   0  0  2  0  0  0  0  0  0  0  0  0
    8.2310  -17.7363   22.4189 N   0  0  0  0  0  0  0  0  0  0  0  0
   10.0206  -16.1411   22.8339 C   0  0  0  0  0  0  0  0  0  0  0  0
   10.8500  -15.2556   22.5523 O   0  0  0  0  0  0  0  0  0  0  0  0
    9.7439  -16.3127   24.2180 N   0  0  0  0  0  0  0  0  0  0  0  0
    9.1749  -15.2480   25.0284 C   0  0  1  0  0  0  0  0  0  0  0  0
    7.9771  -14.6315   24.4291 C   0  0  0  0  0  0  0  0  0  0  0  0
    7.4858  -13.5327   25.2714 C   0  0  0  0  0  0  0  0  0  0  0  0
    7.7825  -12.2182   25.0047 C   0  0  0  0  0  0  0  0  0  0  0  0
    7.3333  -11.1648   25.7662 C   0  0  0  0  0  0  0  0  0  0  0  0
    6.5312  -11.4327   26.8742 C   0  0  0  0  0  0  0  0  0  0  0  0
    6.2171  -12.7400   27.1670 C   0  0  0  0  0  0  0  0  0  0  0  0
    6.6859  -13.7713   26.3799 C   0  0  0  0  0  0  0  0  0  0  0  0
    8.8860  -15.7963   26.3589 C   0  0  0  0  0  0  0  0  0  0  0  0
    8.1006  -16.9562   26.4385 O   0  0  0  0  0  0  0  0  0  0  0  0
    9.2673  -15.3392   27.4580 O   0  0  0  0  0  0  0  0  0  0  0  0
  2  3  1  0
  2  1  1  0
  4  3  1  0
  5  4  1  0
  5  7  1  0
  5  6  1  1
  7 11  1  0
  7  8  2  0
 10  9  1  6
 10 12  1  0
 11 10  1  0
 12 14  1  0
 12 13  2  0
 14 15  1  0
 15 23  1  0
 15 16  1  6
 17 22  2  0
 17 16  1  0
 18 17  1  0
 19 20  1  0
 19 18  2  0
 20 21  2  0
 21 22  1  0
 23 24  1  0
 25 23  2  0
M  END
$$$$
