MAF.pdb
     RDKit          3D

 25 25  0  0  1  0  0  0  0  0999 V2000
    3.9707  -20.7511   23.5922 C   0  0  0  0  0  0  0  0  0  0  0  0
    5.4406  -19.6835   23.4191 S   0  0  0  0  0  0  0  0  0  0  0  0
    6.0916  -19.7709   21.7162 C   0  0  0  0  0  0  0  0  0  0  0  0
    7.2014  -18.7656   21.6034 C   0  0  0  0  0  0  0  0  0  0  0  0
    7.1798  -17.9247   20.3745 C   0  0  2  0  0  0  0  0  0  0  0  0
    7.5987  -18.6776   19.2003 N   0  0  0  0  0  0  0  0  0  0  0  0
    8.0258  -16.7253   20.5702 C   0  0  0  0  0  0  0  0  0  0  0  0
    9.2790  -16.7066   20.5202 O   0  0  0  0  0  0  0  0  0  0  0  0
    7.3979  -12.9858   21.0446 C   0  0  0  0  0  0  0  0  0  0  0  0
    8.2068  -14.2831   21.1742 C   0  0  2  0  0  0  0  0  0  0  0  0
    7.4316  -15.4331   20.8453 N   0  0  0  0  0  0  0  0  0  0  0  0
    8.7711  -14.2960   22.5283 C   0  0  0  0  0  0  0  0  0  0  0  0
    9.5480  -13.4459   23.0026 O   0  0  0  0  0  0  0  0  0  0  0  0
    8.4157  -15.3634   23.3979 N   0  0  0  0  0  0  0  0  0  0  0  0
    8.8863  -15.4279   24.7721 C   0  0  1  0  0  0  0  0  0  0  0  0
    7.7978  -15.5450   25.7597 C   0  0  0  0  0  0  0  0  0  0  0  0
    7.2720  -14.2183   26.1082 C   0  0  0  0  0  0  0  0  0  0  0  0
    8.0845  -13.2034   26.5519 C   0  0  0  0  0  0  0  0  0  0  0  0
    7.6280  -11.9479   26.8788 C   0  0  0  0  0  0  0  0  0  0  0  0
    6.2660  -11.6774   26.7579 C   0  0  0  0  0  0  0  0  0  0  0  0
    5.4269  -12.6745   26.3161 C   0  0  0  0  0  0  0  0  0  0  0  0
    5.9209  -13.9222   25.9971 C   0  0  0  0  0  0  0  0  0  0  0  0
    9.8271  -16.5497   24.8767 C   0  0  0  0  0  0  0  0  0  0  0  0
   10.0225  -17.3549   23.7445 O   0  0  0  0  0  0  0  0  0  0  0  0
   10.4917  -16.8805   25.8823 O   0  0  0  0  0  0  0  0  0  0  0  0
  2  3  1  0
  2  1  1  0
  4  3  1  0
  5  4  1  0
  5  7  1  0
  5  6  1  6
  7 11  1  0
  7  8  2  0
 10  9  1  1
 10 12  1  0
 11 10  1  0
 12 14  1  0
 12 13  2  0
 14 15  1  0
 15 23  1  0
 15 16  1  1
 17 22  2  0
 17 16  1  0
 18 17  1  0
 19 20  1  0
 19 18  2  0
 20 21  2  0
 21 22  1  0
 23 24  1  0
 25 23  2  0
M  END
$$$$
