MAF.pdb
     RDKit          3D

 25 25  0  0  1  0  0  0  0  0999 V2000
    9.5142  -20.0779   17.1856 C   0  0  0  0  0  0  0  0  0  0  0  0
    7.9343  -20.8790   17.6236 S   0  0  0  0  0  0  0  0  0  0  0  0
    7.3308  -20.2566   19.2298 C   0  0  0  0  0  0  0  0  0  0  0  0
    8.4086  -19.3890   19.8133 C   0  0  0  0  0  0  0  0  0  0  0  0
    8.1001  -18.7935   21.1430 C   0  0  2  0  0  0  0  0  0  0  0  0
    6.6659  -18.7480   21.3921 N   0  0  0  0  0  0  0  0  0  0  0  0
    8.7029  -17.4447   21.2428 C   0  0  0  0  0  0  0  0  0  0  0  0
    9.9110  -17.1743   21.0412 O   0  0  0  0  0  0  0  0  0  0  0  0
    7.4087  -13.8878   21.6174 C   0  0  0  0  0  0  0  0  0  0  0  0
    8.4524  -14.9975   21.8003 C   0  0  2  0  0  0  0  0  0  0  0  0
    7.8967  -16.2943   21.5970 N   0  0  0  0  0  0  0  0  0  0  0  0
    9.0583  -14.7948   23.1208 C   0  0  0  0  0  0  0  0  0  0  0  0
    9.8151  -13.8585   23.4397 O   0  0  0  0  0  0  0  0  0  0  0  0
    8.7725  -15.7369   24.1468 N   0  0  0  0  0  0  0  0  0  0  0  0
    9.2336  -15.5523   25.5134 C   0  0  1  0  0  0  0  0  0  0  0  0
    8.1373  -15.4705   26.4959 C   0  0  0  0  0  0  0  0  0  0  0  0
    7.4293  -14.1891   26.3740 C   0  0  0  0  0  0  0  0  0  0  0  0
    6.1522  -14.1042   25.8751 C   0  0  0  0  0  0  0  0  0  0  0  0
    5.4570  -12.9237   25.7546 C   0  0  0  0  0  0  0  0  0  0  0  0
    6.0719  -11.7395   26.1575 C   0  0  0  0  0  0  0  0  0  0  0  0
    7.3513  -11.7928   26.6612 C   0  0  0  0  0  0  0  0  0  0  0  0
    8.0179  -12.9957   26.7676 C   0  0  0  0  0  0  0  0  0  0  0  0
   10.1573  -16.6476   25.8318 C   0  0  0  0  0  0  0  0  0  0  0  0
   10.7699  -16.6485   27.0939 O   0  0  0  0  0  0  0  0  0  0  0  0
   10.4704  -17.6045   25.0910 O   0  0  0  0  0  0  0  0  0  0  0  0
  2  3  1  0
  2  1  1  0
  4  3  1  0
  5  4  1  0
  5  7  1  0
  5  6  1  6
  7 11  1  0
  7  8  2  0
 10  9  1  1
 10 12  1  0
 11 10  1  0
 12 14  1  0
 12 13  2  0
 14 15  1  0
 15 23  1  0
 15 16  1  1
 17 22  2  0
 17 16  1  0
 18 17  1  0
 19 20  1  0
 19 18  2  0
 20 21  2  0
 21 22  1  0
 23 24  1  0
 25 23  2  0
M  END
$$$$
