MAF.pdb
     RDKit          3D

 25 25  0  0  1  0  0  0  0  0999 V2000
    8.2302  -12.0458   19.6208 C   0  0  0  0  0  0  0  0  0  0  0  0
    8.6039  -13.0272   18.1285 S   0  0  0  0  0  0  0  0  0  0  0  0
    7.9651  -14.7274   18.3103 C   0  0  0  0  0  0  0  0  0  0  0  0
    7.9276  -15.0425   19.7780 C   0  0  0  0  0  0  0  0  0  0  0  0
    7.4270  -16.4008   20.1277 C   0  0  2  0  0  0  0  0  0  0  0  0
    6.1369  -16.6739   19.5095 N   0  0  0  0  0  0  0  0  0  0  0  0
    7.3563  -16.5481   21.5994 C   0  0  0  0  0  0  0  0  0  0  0  0
    6.7928  -15.7456   22.3816 O   0  0  0  0  0  0  0  0  0  0  0  0
    8.0431  -19.2802   24.1273 C   0  0  0  0  0  0  0  0  0  0  0  0
    8.0100  -17.8123   23.6818 C   0  0  2  0  0  0  0  0  0  0  0  0
    7.9630  -17.6839   22.2630 N   0  0  0  0  0  0  0  0  0  0  0  0
    9.1568  -17.1522   24.3153 C   0  0  0  0  0  0  0  0  0  0  0  0
   10.3151  -17.1074   23.8600 O   0  0  0  0  0  0  0  0  0  0  0  0
    8.9555  -16.4976   25.5614 N   0  0  0  0  0  0  0  0  0  0  0  0
   10.0362  -15.8215   26.2607 C   0  0  1  0  0  0  0  0  0  0  0  0
    9.9565  -14.3514   26.1816 C   0  0  0  0  0  0  0  0  0  0  0  0
    8.6168  -13.8857   26.5644 C   0  0  0  0  0  0  0  0  0  0  0  0
    8.3504  -13.3692   27.8091 C   0  0  0  0  0  0  0  0  0  0  0  0
    7.1114  -12.9167   28.1984 C   0  0  0  0  0  0  0  0  0  0  0  0
    6.0580  -12.9806   27.2878 C   0  0  0  0  0  0  0  0  0  0  0  0
    6.2942  -13.4935   26.0330 C   0  0  0  0  0  0  0  0  0  0  0  0
    7.5507  -13.9379   25.6777 C   0  0  0  0  0  0  0  0  0  0  0  0
   10.0334  -16.2836   27.6539 C   0  0  0  0  0  0  0  0  0  0  0  0
   11.0433  -15.8140   28.5070 O   0  0  0  0  0  0  0  0  0  0  0  0
    9.2156  -17.0669   28.1830 O   0  0  0  0  0  0  0  0  0  0  0  0
  2  3  1  0
  2  1  1  0
  4  3  1  0
  5  4  1  0
  5  7  1  0
  5  6  1  6
  7 11  1  0
  7  8  2  0
 10  9  1  6
 10 12  1  0
 11 10  1  0
 12 14  1  0
 12 13  2  0
 14 15  1  0
 15 23  1  0
 15 16  1  1
 17 22  2  0
 17 16  1  0
 18 17  1  0
 19 20  1  0
 19 18  2  0
 20 21  2  0
 21 22  1  0
 23 24  1  0
 25 23  2  0
M  END
$$$$
