MAF.pdb
     RDKit          3D

 25 25  0  0  1  0  0  0  0  0999 V2000
    6.8723  -11.7666   27.3390 C   0  0  0  0  0  0  0  0  0  0  0  0
    7.3064  -12.4416   25.7001 S   0  0  0  0  0  0  0  0  0  0  0  0
    6.7639  -14.1791   25.5652 C   0  0  0  0  0  0  0  0  0  0  0  0
    7.3262  -14.7313   24.2869 C   0  0  0  0  0  0  0  0  0  0  0  0
    7.0478  -16.1725   24.0358 C   0  0  2  0  0  0  0  0  0  0  0  0
    6.2469  -16.7590   25.1016 N   0  0  0  0  0  0  0  0  0  0  0  0
    8.3206  -16.9077   23.8574 C   0  0  0  0  0  0  0  0  0  0  0  0
    8.6729  -17.9164   24.5144 O   0  0  0  0  0  0  0  0  0  0  0  0
   11.3116  -16.6258   21.4793 C   0  0  0  0  0  0  0  0  0  0  0  0
   10.5790  -17.0824   22.7478 C   0  0  2  0  0  0  0  0  0  0  0  0
    9.2883  -16.4888   22.8641 N   0  0  0  0  0  0  0  0  0  0  0  0
   11.4775  -16.8119   23.8755 C   0  0  0  0  0  0  0  0  0  0  0  0
   12.0127  -15.7177   24.1351 O   0  0  0  0  0  0  0  0  0  0  0  0
   11.7813  -17.8769   24.7674 N   0  0  0  0  0  0  0  0  0  0  0  0
   11.5768  -17.7630   26.2024 C   0  0  1  0  0  0  0  0  0  0  0  0
   10.1609  -17.6039   26.5820 C   0  0  0  0  0  0  0  0  0  0  0  0
    9.9451  -16.3078   27.2389 C   0  0  0  0  0  0  0  0  0  0  0  0
    9.2943  -15.2714   26.6150 C   0  0  0  0  0  0  0  0  0  0  0  0
    9.0676  -14.0487   27.2023 C   0  0  0  0  0  0  0  0  0  0  0  0
    9.5191  -13.8362   28.5038 C   0  0  0  0  0  0  0  0  0  0  0  0
   10.1749  -14.8559   29.1546 C   0  0  0  0  0  0  0  0  0  0  0  0
   10.3841  -16.0696   28.5335 C   0  0  0  0  0  0  0  0  0  0  0  0
   12.1727  -18.9431   26.8401 C   0  0  0  0  0  0  0  0  0  0  0  0
   11.9628  -20.1940   26.2405 O   0  0  0  0  0  0  0  0  0  0  0  0
   12.8630  -18.9649   27.8819 O   0  0  0  0  0  0  0  0  0  0  0  0
  2  3  1  0
  2  1  1  0
  4  3  1  0
  5  4  1  0
  5  7  1  0
  5  6  1  1
  7 11  1  0
  7  8  2  0
 10  9  1  6
 10 12  1  0
 11 10  1  0
 12 14  1  0
 12 13  2  0
 14 15  1  0
 15 23  1  0
 15 16  1  6
 17 22  2  0
 17 16  1  0
 18 17  1  0
 19 20  1  0
 19 18  2  0
 20 21  2  0
 21 22  1  0
 23 24  1  0
 25 23  2  0
M  END
$$$$
