MAF.pdb
     RDKit          3D

 25 25  0  0  1  0  0  0  0  0999 V2000
    8.0053  -11.4505   19.5938 C   0  0  0  0  0  0  0  0  0  0  0  0
    7.5295  -13.1219   19.0371 S   0  0  0  0  0  0  0  0  0  0  0  0
    7.6340  -14.3061   20.4222 C   0  0  0  0  0  0  0  0  0  0  0  0
    7.0531  -15.6079   19.9500 C   0  0  0  0  0  0  0  0  0  0  0  0
    7.0249  -16.6999   20.9622 C   0  0  2  0  0  0  0  0  0  0  0  0
    6.0927  -16.4079   22.0423 N   0  0  0  0  0  0  0  0  0  0  0  0
    8.3899  -16.9383   21.4841 C   0  0  0  0  0  0  0  0  0  0  0  0
    9.1735  -17.8315   21.0823 O   0  0  0  0  0  0  0  0  0  0  0  0
   11.2736  -15.3696   22.6173 C   0  0  0  0  0  0  0  0  0  0  0  0
   10.2136  -16.3554   23.1261 C   0  0  2  0  0  0  0  0  0  0  0  0
    8.9349  -16.1148   22.5441 N   0  0  0  0  0  0  0  0  0  0  0  0
   10.2390  -16.2844   24.5912 C   0  0  0  0  0  0  0  0  0  0  0  0
   11.1446  -15.7795   25.2811 O   0  0  0  0  0  0  0  0  0  0  0  0
    9.1440  -16.8339   25.3130 N   0  0  0  0  0  0  0  0  0  0  0  0
    9.0415  -16.7254   26.7593 C   0  0  1  0  0  0  0  0  0  0  0  0
    7.7466  -16.1887   27.2166 C   0  0  0  0  0  0  0  0  0  0  0  0
    7.5644  -14.8090   26.7461 C   0  0  0  0  0  0  0  0  0  0  0  0
    6.5563  -14.4586   25.8813 C   0  0  0  0  0  0  0  0  0  0  0  0
    6.3515  -13.1767   25.4273 C   0  0  0  0  0  0  0  0  0  0  0  0
    7.2086  -12.1669   25.8614 C   0  0  0  0  0  0  0  0  0  0  0  0
    8.2283  -12.4874   26.7279 C   0  0  0  0  0  0  0  0  0  0  0  0
    8.4031  -13.7848   27.1624 C   0  0  0  0  0  0  0  0  0  0  0  0
    9.3044  -18.0506   27.3329 C   0  0  0  0  0  0  0  0  0  0  0  0
    9.4315  -19.1368   26.4540 O   0  0  0  0  0  0  0  0  0  0  0  0
    9.4316  -18.3323   28.5440 O   0  0  0  0  0  0  0  0  0  0  0  0
  2  3  1  0
  2  1  1  0
  4  3  1  0
  5  4  1  0
  5  7  1  0
  5  6  1  1
  7 11  1  0
  7  8  2  0
 10  9  1  6
 10 12  1  0
 11 10  1  0
 12 14  1  0
 12 13  2  0
 14 15  1  0
 15 23  1  0
 15 16  1  6
 17 22  2  0
 17 16  1  0
 18 17  1  0
 19 20  1  0
 19 18  2  0
 20 21  2  0
 21 22  1  0
 23 24  1  0
 25 23  2  0
M  END
$$$$
