MAF.pdb
     RDKit          3D

 25 25  0  0  1  0  0  0  0  0999 V2000
    8.8419  -11.5279   20.2131 C   0  0  0  0  0  0  0  0  0  0  0  0
    7.7223  -12.3028   18.9982 S   0  0  0  0  0  0  0  0  0  0  0  0
    8.0805  -14.0866   18.8523 C   0  0  0  0  0  0  0  0  0  0  0  0
    7.9447  -14.6893   20.2210 C   0  0  0  0  0  0  0  0  0  0  0  0
    8.1442  -16.1633   20.2932 C   0  0  2  0  0  0  0  0  0  0  0  0
    7.1748  -16.8778   19.4742 N   0  0  0  0  0  0  0  0  0  0  0  0
    8.0856  -16.6109   21.7035 C   0  0  0  0  0  0  0  0  0  0  0  0
    7.0482  -16.9806   22.3038 O   0  0  0  0  0  0  0  0  0  0  0  0
   10.0334  -18.5484   23.8883 C   0  0  0  0  0  0  0  0  0  0  0  0
    9.2968  -17.2035   23.8351 C   0  0  2  0  0  0  0  0  0  0  0  0
    9.2812  -16.6527   22.5205 N   0  0  0  0  0  0  0  0  0  0  0  0
    9.9154  -16.3423   24.8489 C   0  0  0  0  0  0  0  0  0  0  0  0
   10.8704  -15.5653   24.6611 O   0  0  0  0  0  0  0  0  0  0  0  0
    9.3976  -16.3784   26.1728 N   0  0  0  0  0  0  0  0  0  0  0  0
    9.9705  -15.5831   27.2467 C   0  0  1  0  0  0  0  0  0  0  0  0
    8.9580  -14.9507   28.1121 C   0  0  0  0  0  0  0  0  0  0  0  0
    8.2551  -13.8826   27.3888 C   0  0  0  0  0  0  0  0  0  0  0  0
    7.0030  -14.0635   26.8537 C   0  0  0  0  0  0  0  0  0  0  0  0
    6.3129  -13.0842   26.1784 C   0  0  0  0  0  0  0  0  0  0  0  0
    6.9068  -11.8330   26.0207 C   0  0  0  0  0  0  0  0  0  0  0  0
    8.1611  -11.6218   26.5457 C   0  0  0  0  0  0  0  0  0  0  0  0
    8.8232  -12.6282   27.2175 C   0  0  0  0  0  0  0  0  0  0  0  0
   10.8711  -16.4469   28.0195 C   0  0  0  0  0  0  0  0  0  0  0  0
   11.7124  -15.8439   28.9666 O   0  0  0  0  0  0  0  0  0  0  0  0
   10.9794  -17.6889   27.9303 O   0  0  0  0  0  0  0  0  0  0  0  0
  2  3  1  0
  2  1  1  0
  4  3  1  0
  5  4  1  0
  5  7  1  0
  5  6  1  6
  7 11  1  0
  7  8  2  0
 10  9  1  6
 10 12  1  0
 11 10  1  0
 12 14  1  0
 12 13  2  0
 14 15  1  0
 15 23  1  0
 15 16  1  1
 17 22  2  0
 17 16  1  0
 18 17  1  0
 19 20  1  0
 19 18  2  0
 20 21  2  0
 21 22  1  0
 23 24  1  0
 25 23  2  0
M  END
$$$$
