MAF.pdb
     RDKit          3D

 25 25  0  0  1  0  0  0  0  0999 V2000
    8.5530  -12.0945   20.6544 C   0  0  0  0  0  0  0  0  0  0  0  0
    7.6546  -13.3720   19.7105 S   0  0  0  0  0  0  0  0  0  0  0  0
    6.4347  -14.2102   20.7786 C   0  0  0  0  0  0  0  0  0  0  0  0
    7.1925  -14.9053   21.8728 C   0  0  0  0  0  0  0  0  0  0  0  0
    7.5823  -16.3136   21.5856 C   0  0  2  0  0  0  0  0  0  0  0  0
    6.4176  -17.1791   21.4610 N   0  0  0  0  0  0  0  0  0  0  0  0
    8.5036  -16.8053   22.6355 C   0  0  0  0  0  0  0  0  0  0  0  0
    8.1818  -17.5535   23.5893 O   0  0  0  0  0  0  0  0  0  0  0  0
   12.2794  -16.9673   22.9534 C   0  0  0  0  0  0  0  0  0  0  0  0
   10.8557  -17.0044   23.5241 C   0  0  2  0  0  0  0  0  0  0  0  0
    9.9043  -16.4356   22.6281 N   0  0  0  0  0  0  0  0  0  0  0  0
   10.9115  -16.3618   24.8417 C   0  0  0  0  0  0  0  0  0  0  0  0
   11.8569  -15.6805   25.2811 O   0  0  0  0  0  0  0  0  0  0  0  0
    9.7999  -16.5146   25.7152 N   0  0  0  0  0  0  0  0  0  0  0  0
    9.8456  -16.0854   27.1037 C   0  0  1  0  0  0  0  0  0  0  0  0
    8.5357  -15.6582   27.6286 C   0  0  0  0  0  0  0  0  0  0  0  0
    8.0328  -14.4986   26.8801 C   0  0  0  0  0  0  0  0  0  0  0  0
    6.9499  -14.5848   26.0394 C   0  0  0  0  0  0  0  0  0  0  0  0
    6.4475  -13.5189   25.3302 C   0  0  0  0  0  0  0  0  0  0  0  0
    7.0634  -12.2755   25.4629 C   0  0  0  0  0  0  0  0  0  0  0  0
    8.1508  -12.1581   26.2977 C   0  0  0  0  0  0  0  0  0  0  0  0
    8.6269  -13.2497   26.9937 C   0  0  0  0  0  0  0  0  0  0  0  0
   10.4090  -17.1829   27.8989 C   0  0  0  0  0  0  0  0  0  0  0  0
   10.7040  -16.9365   29.2482 O   0  0  0  0  0  0  0  0  0  0  0  0
   10.6636  -18.3414   27.5047 O   0  0  0  0  0  0  0  0  0  0  0  0
  2  3  1  0
  2  1  1  0
  4  3  1  0
  5  4  1  0
  5  7  1  0
  5  6  1  1
  7 11  1  0
  7  8  2  0
 10  9  1  6
 10 12  1  0
 11 10  1  0
 12 14  1  0
 12 13  2  0
 14 15  1  0
 15 23  1  0
 15 16  1  1
 17 22  2  0
 17 16  1  0
 18 17  1  0
 19 20  1  0
 19 18  2  0
 20 21  2  0
 21 22  1  0
 23 24  1  0
 25 23  2  0
M  END
$$$$
