MAF.pdb
     RDKit          3D

 25 25  0  0  1  0  0  0  0  0999 V2000
    8.4168  -18.4553   27.1875 C   0  0  0  0  0  0  0  0  0  0  0  0
    7.3777  -19.9468   27.0271 S   0  0  0  0  0  0  0  0  0  0  0  0
    6.3158  -19.8247   25.5475 C   0  0  0  0  0  0  0  0  0  0  0  0
    7.1865  -19.4041   24.3986 C   0  0  0  0  0  0  0  0  0  0  0  0
    6.4750  -19.1597   23.1133 C   0  0  2  0  0  0  0  0  0  0  0  0
    6.4244  -20.3600   22.2901 N   0  0  0  0  0  0  0  0  0  0  0  0
    7.1172  -18.0403   22.3872 C   0  0  0  0  0  0  0  0  0  0  0  0
    8.1606  -18.1285   21.6967 O   0  0  0  0  0  0  0  0  0  0  0  0
    6.3032  -14.3955   21.6377 C   0  0  0  0  0  0  0  0  0  0  0  0
    7.2523  -15.5600   21.9494 C   0  0  2  0  0  0  0  0  0  0  0  0
    6.5543  -16.7062   22.4299 N   0  0  0  0  0  0  0  0  0  0  0  0
    8.2729  -15.0399   22.8660 C   0  0  0  0  0  0  0  0  0  0  0  0
    9.1358  -14.1861   22.5876 O   0  0  0  0  0  0  0  0  0  0  0  0
    8.3019  -15.5384   24.1974 N   0  0  0  0  0  0  0  0  0  0  0  0
    9.3442  -15.1626   25.1390 C   0  0  1  0  0  0  0  0  0  0  0  0
    8.8271  -14.7941   26.4697 C   0  0  0  0  0  0  0  0  0  0  0  0
    8.0118  -13.5748   26.3872 C   0  0  0  0  0  0  0  0  0  0  0  0
    6.6412  -13.6047   26.4732 C   0  0  0  0  0  0  0  0  0  0  0  0
    5.8478  -12.4832   26.4084 C   0  0  0  0  0  0  0  0  0  0  0  0
    6.4567  -11.2399   26.2459 C   0  0  0  0  0  0  0  0  0  0  0  0
    7.8284  -11.1782   26.1563 C   0  0  0  0  0  0  0  0  0  0  0  0
    8.5921  -12.3247   26.2257 C   0  0  0  0  0  0  0  0  0  0  0  0
   10.2995  -16.2737   25.2246 C   0  0  0  0  0  0  0  0  0  0  0  0
   11.4140  -16.1226   26.0633 O   0  0  0  0  0  0  0  0  0  0  0  0
   10.2349  -17.3670   24.6223 O   0  0  0  0  0  0  0  0  0  0  0  0
  2  3  1  0
  2  1  1  0
  4  3  1  0
  5  4  1  0
  5  7  1  0
  5  6  1  6
  7 11  1  0
  7  8  2  0
 10  9  1  1
 10 12  1  0
 11 10  1  0
 12 14  1  0
 12 13  2  0
 14 15  1  0
 15 23  1  0
 15 16  1  1
 17 22  2  0
 17 16  1  0
 18 17  1  0
 19 20  1  0
 19 18  2  0
 20 21  2  0
 21 22  1  0
 23 24  1  0
 25 23  2  0
M  END
$$$$
