FEW.pdb
     RDKit          3D

 35 37  0  0  1  0  0  0  0  0999 V2000
   20.3290  -18.1508  -17.8049 N   0  0  0  0  0  0  0  0  0  0  0  0
   21.7450  -18.2923  -17.5737 C   0  0  1  0  0  0  0  0  0  0  0  0
   22.3434  -16.9884  -17.0376 C   0  0  0  0  0  0  0  0  0  0  0  0
   22.3684  -15.9536  -18.1042 C   0  0  0  0  0  0  0  0  0  0  0  0
   21.4255  -14.9477  -18.1377 C   0  0  0  0  0  0  0  0  0  0  0  0
   21.4505  -13.9847  -19.1308 C   0  0  0  0  0  0  0  0  0  0  0  0
   22.4244  -14.0025  -20.1217 C   0  0  0  0  0  0  0  0  0  0  0  0
   23.3648  -14.9935  -20.1005 C   0  0  0  0  0  0  0  0  0  0  0  0
   23.3285  -15.9445  -19.1078 C   0  0  0  0  0  0  0  0  0  0  0  0
   21.9469  -19.2943  -16.4706 C   0  0  0  0  0  0  0  0  0  0  0  0
   21.1468  -19.3283  -15.4922 O   0  0  0  0  0  0  0  0  0  0  0  0
   23.0213  -20.2142  -16.4949 N   0  0  0  0  0  0  0  0  0  0  0  0
   23.1748  -21.2001  -15.3912 C   0  0  1  0  0  0  0  0  0  0  0  0
   23.4421  -22.5394  -16.0127 C   0  0  0  0  0  0  0  0  0  0  0  0
   23.7357  -23.6667  -15.1086 C   0  0  0  0  0  0  0  0  0  0  0  0
   25.2063  -24.0020  -15.2274 C   0  0  0  0  0  0  0  0  0  0  0  0
   25.9415  -23.4999  -16.1110 O   0  0  0  0  0  0  0  0  0  0  0  0
   24.2128  -20.7111  -14.4761 C   0  0  0  0  0  0  0  0  0  0  0  0
   25.2036  -20.0159  -14.9007 O   0  0  0  0  0  0  0  0  0  0  0  0
   25.7654  -24.8928  -14.3335 O   0  0  0  0  0  0  0  0  0  0  0  0
   24.2154  -20.9481  -13.0864 N   0  0  0  0  0  0  0  0  0  0  0  0
   25.2847  -20.4519  -12.2129 C   0  0  1  0  0  0  0  0  0  0  0  0
   24.6528  -19.9027  -10.9264 C   0  0  0  0  0  0  0  0  0  0  0  0
   25.7117  -19.3859  -10.0228 C   0  0  0  0  0  0  0  0  0  0  0  0
   26.6468  -18.3769  -10.2823 C   0  0  0  0  0  0  0  0  0  0  0  0
   27.4265  -18.2182   -9.1941 N   0  0  0  0  0  0  0  0  0  0  0  0
   27.0528  -19.0733   -8.2269 C   0  0  0  0  0  0  0  0  0  0  0  0
   27.5336  -19.2910   -6.9535 C   0  0  0  0  0  0  0  0  0  0  0  0
   26.9524  -20.2560   -6.1473 C   0  0  0  0  0  0  0  0  0  0  0  0
   25.9055  -20.9614   -6.6677 C   0  0  0  0  0  0  0  0  0  0  0  0
   25.4308  -20.7458   -7.9262 C   0  0  0  0  0  0  0  0  0  0  0  0
   25.9962  -19.7940   -8.7352 C   0  0  0  0  0  0  0  0  0  0  0  0
   26.1538  -21.5847  -11.8028 C   0  0  0  0  0  0  0  0  0  0  0  0
   27.5317  -21.4951  -11.7612 O   0  0  0  0  0  0  0  0  0  0  0  0
   25.6592  -22.6925  -11.4709 O   0  0  0  0  0  0  0  0  0  0  0  0
  2  1  1  1
  2  3  1  0
  3  4  1  0
  4  9  1  0
  5  4  2  0
  5  6  1  0
  6  7  2  0
  7  8  1  0
  9  8  2  0
 10 11  2  0
 10  2  1  0
 12 10  1  0
 13 12  1  0
 13 14  1  6
 15 14  1  0
 16 15  1  0
 17 16  2  0
 18 13  1  0
 19 18  2  0
 20 16  1  0
 21 18  1  0
 22 21  1  0
 22 23  1  1
 23 24  1  0
 24 25  2  0
 24 32  1  0
 25 26  1  0
 26 27  1  0
 27 28  2  0
 28 29  1  0
 30 29  2  0
 31 30  1  0
 32 31  2  0
 32 27  1  0
 33 22  1  0
 34 33  1  0
 35 33  2  0
M  END
$$$$
