FEW.pdb
     RDKit          3D

 35 37  0  0  1  0  0  0  0  0999 V2000
   19.5786  -21.5138  -12.8927 N   0  0  0  0  0  0  0  0  0  0  0  0
   20.6267  -20.5238  -12.8855 C   0  0  1  0  0  0  0  0  0  0  0  0
   20.4083  -19.5060  -11.7621 C   0  0  0  0  0  0  0  0  0  0  0  0
   19.3848  -18.5053  -12.1624 C   0  0  0  0  0  0  0  0  0  0  0  0
   18.0602  -18.6688  -11.8150 C   0  0  0  0  0  0  0  0  0  0  0  0
   17.1087  -17.7360  -12.1876 C   0  0  0  0  0  0  0  0  0  0  0  0
   17.4589  -16.6092  -12.9213 C   0  0  0  0  0  0  0  0  0  0  0  0
   18.7679  -16.4347  -13.2722 C   0  0  0  0  0  0  0  0  0  0  0  0
   19.7035  -17.3695  -12.8955 C   0  0  0  0  0  0  0  0  0  0  0  0
   21.9217  -21.2076  -12.5433 C   0  0  0  0  0  0  0  0  0  0  0  0
   21.9729  -22.0172  -11.5735 O   0  0  0  0  0  0  0  0  0  0  0  0
   23.1023  -20.9689  -13.2851 N   0  0  0  0  0  0  0  0  0  0  0  0
   24.3875  -21.5745  -12.8432 C   0  0  1  0  0  0  0  0  0  0  0  0
   25.2313  -21.7905  -14.0650 C   0  0  0  0  0  0  0  0  0  0  0  0
   26.6150  -22.2602  -13.8664 C   0  0  0  0  0  0  0  0  0  0  0  0
   27.2806  -22.3675  -15.2209 C   0  0  0  0  0  0  0  0  0  0  0  0
   26.9240  -23.2080  -16.0809 O   0  0  0  0  0  0  0  0  0  0  0  0
   24.9767  -20.7088  -11.8148 C   0  0  0  0  0  0  0  0  0  0  0  0
   24.9736  -19.4318  -11.9354 O   0  0  0  0  0  0  0  0  0  0  0  0
   28.3192  -21.5117  -15.5275 O   0  0  0  0  0  0  0  0  0  0  0  0
   25.5782  -21.1850  -10.6322 N   0  0  0  0  0  0  0  0  0  0  0  0
   26.3598  -20.3121   -9.7490 C   0  0  1  0  0  0  0  0  0  0  0  0
   26.1540  -20.7699   -8.2985 C   0  0  0  0  0  0  0  0  0  0  0  0
   26.8091  -19.8155   -7.3686 C   0  0  0  0  0  0  0  0  0  0  0  0
   26.7154  -18.4188   -7.3627 C   0  0  0  0  0  0  0  0  0  0  0  0
   27.4671  -17.9380   -6.3522 N   0  0  0  0  0  0  0  0  0  0  0  0
   28.0540  -18.9490   -5.6890 C   0  0  0  0  0  0  0  0  0  0  0  0
   28.9010  -18.9686   -4.6016 C   0  0  0  0  0  0  0  0  0  0  0  0
   29.3698  -20.1752   -4.1082 C   0  0  0  0  0  0  0  0  0  0  0  0
   28.9589  -21.3139   -4.7399 C   0  0  0  0  0  0  0  0  0  0  0  0
   28.1217  -21.2938   -5.8144 C   0  0  0  0  0  0  0  0  0  0  0  0
   27.6499  -20.1070   -6.3134 C   0  0  0  0  0  0  0  0  0  0  0  0
   27.8065  -20.4811  -10.0409 C   0  0  0  0  0  0  0  0  0  0  0  0
   28.3091  -21.5633  -10.7369 O   0  0  0  0  0  0  0  0  0  0  0  0
   28.6477  -19.6281   -9.6579 O   0  0  0  0  0  0  0  0  0  0  0  0
  2  1  1  1
  2  3  1  0
  3  4  1  0
  4  9  1  0
  5  4  2  0
  5  6  1  0
  6  7  2  0
  7  8  1  0
  9  8  2  0
 10 11  2  0
 10  2  1  0
 12 10  1  0
 13 12  1  0
 13 14  1  6
 15 14  1  0
 16 15  1  0
 17 16  2  0
 18 13  1  0
 19 18  2  0
 20 16  1  0
 21 18  1  0
 22 21  1  0
 22 23  1  1
 23 24  1  0
 24 25  2  0
 24 32  1  0
 25 26  1  0
 26 27  1  0
 27 28  2  0
 28 29  1  0
 30 29  2  0
 31 30  1  0
 32 31  2  0
 32 27  1  0
 33 22  1  0
 34 33  1  0
 35 33  2  0
M  END
$$$$
