FEW.pdb
     RDKit          3D

 35 37  0  0  1  0  0  0  0  0999 V2000
   27.1992  -22.4264  -18.6857 N   0  0  0  0  0  0  0  0  0  0  0  0
   27.1286  -23.3063  -17.5459 C   0  0  1  0  0  0  0  0  0  0  0  0
   27.9084  -22.7285  -16.3612 C   0  0  0  0  0  0  0  0  0  0  0  0
   29.3708  -22.8177  -16.6113 C   0  0  0  0  0  0  0  0  0  0  0  0
   30.0896  -21.7114  -17.0131 C   0  0  0  0  0  0  0  0  0  0  0  0
   31.4509  -21.7957  -17.2448 C   0  0  0  0  0  0  0  0  0  0  0  0
   32.1329  -22.9952  -17.0800 C   0  0  0  0  0  0  0  0  0  0  0  0
   31.4328  -24.0992  -16.6822 C   0  0  0  0  0  0  0  0  0  0  0  0
   30.0801  -24.0015  -16.4553 C   0  0  0  0  0  0  0  0  0  0  0  0
   25.6999  -23.3634  -17.0795 C   0  0  0  0  0  0  0  0  0  0  0  0
   24.9459  -22.3591  -17.2258 O   0  0  0  0  0  0  0  0  0  0  0  0
   25.1661  -24.5244  -16.4728 N   0  0  0  0  0  0  0  0  0  0  0  0
   23.7143  -24.5903  -16.1539 C   0  0  1  0  0  0  0  0  0  0  0  0
   23.2934  -26.0274  -16.2489 C   0  0  0  0  0  0  0  0  0  0  0  0
   21.8952  -26.3542  -15.9131 C   0  0  0  0  0  0  0  0  0  0  0  0
   21.6834  -27.8343  -16.1443 C   0  0  0  0  0  0  0  0  0  0  0  0
   20.9677  -28.2740  -17.0758 O   0  0  0  0  0  0  0  0  0  0  0  0
   23.4988  -23.9549  -14.8485 C   0  0  0  0  0  0  0  0  0  0  0  0
   24.2639  -24.2052  -13.8499 O   0  0  0  0  0  0  0  0  0  0  0  0
   22.2975  -28.7394  -15.3024 O   0  0  0  0  0  0  0  0  0  0  0  0
   22.4655  -23.0345  -14.5796 N   0  0  0  0  0  0  0  0  0  0  0  0
   22.2699  -22.4489  -13.2486 C   0  0  1  0  0  0  0  0  0  0  0  0
   23.3127  -21.3418  -13.0411 C   0  0  0  0  0  0  0  0  0  0  0  0
   22.8513  -20.0849  -13.6832 C   0  0  0  0  0  0  0  0  0  0  0  0
   22.0831  -19.0612  -13.1162 C   0  0  0  0  0  0  0  0  0  0  0  0
   21.8874  -18.1019  -14.0429 N   0  0  0  0  0  0  0  0  0  0  0  0
   22.4890  -18.4412  -15.1959 C   0  0  0  0  0  0  0  0  0  0  0  0
   22.5737  -17.8012  -16.4139 C   0  0  0  0  0  0  0  0  0  0  0  0
   23.2711  -18.3856  -17.4584 C   0  0  0  0  0  0  0  0  0  0  0  0
   23.8546  -19.5975  -17.2233 C   0  0  0  0  0  0  0  0  0  0  0  0
   23.7705  -20.2295  -16.0195 C   0  0  0  0  0  0  0  0  0  0  0  0
   23.0836  -19.6629  -14.9767 C   0  0  0  0  0  0  0  0  0  0  0  0
   20.9403  -21.7893  -13.1892 C   0  0  0  0  0  0  0  0  0  0  0  0
   20.3573  -21.3837  -12.0043 O   0  0  0  0  0  0  0  0  0  0  0  0
   20.2794  -21.5700  -14.2367 O   0  0  0  0  0  0  0  0  0  0  0  0
  2  1  1  6
  2  3  1  0
  3  4  1  0
  4  9  1  0
  5  4  2  0
  5  6  1  0
  6  7  2  0
  7  8  1  0
  9  8  2  0
 10 11  2  0
 10  2  1  0
 12 10  1  0
 13 12  1  0
 13 14  1  1
 15 14  1  0
 16 15  1  0
 17 16  2  0
 18 13  1  0
 19 18  2  0
 20 16  1  0
 21 18  1  0
 22 21  1  0
 22 23  1  6
 23 24  1  0
 24 25  2  0
 24 32  1  0
 25 26  1  0
 26 27  1  0
 27 28  2  0
 28 29  1  0
 30 29  2  0
 31 30  1  0
 32 31  2  0
 32 27  1  0
 33 22  1  0
 34 33  1  0
 35 33  2  0
M  END
$$$$
