FEW.pdb
     RDKit          3D

 35 37  0  0  1  0  0  0  0  0999 V2000
   25.6964  -18.1951  -20.0650 N   0  0  0  0  0  0  0  0  0  0  0  0
   25.9100  -17.7214  -18.7202 C   0  0  1  0  0  0  0  0  0  0  0  0
   24.7034  -16.9176  -18.2266 C   0  0  0  0  0  0  0  0  0  0  0  0
   24.6036  -15.6298  -18.9620 C   0  0  0  0  0  0  0  0  0  0  0  0
   23.4085  -15.2207  -19.5153 C   0  0  0  0  0  0  0  0  0  0  0  0
   23.3169  -14.0214  -20.1990 C   0  0  0  0  0  0  0  0  0  0  0  0
   24.4242  -13.1953  -20.3480 C   0  0  0  0  0  0  0  0  0  0  0  0
   25.6147  -13.5885  -19.8047 C   0  0  0  0  0  0  0  0  0  0  0  0
   25.6919  -14.7829  -19.1277 C   0  0  0  0  0  0  0  0  0  0  0  0
   25.9839  -18.9122  -17.8047 C   0  0  0  0  0  0  0  0  0  0  0  0
   25.0782  -19.7938  -17.8387 O   0  0  0  0  0  0  0  0  0  0  0  0
   27.0524  -19.0785  -16.8927 N   0  0  0  0  0  0  0  0  0  0  0  0
   27.1333  -20.3135  -16.0669 C   0  0  1  0  0  0  0  0  0  0  0  0
   28.5858  -20.6125  -15.8385 C   0  0  0  0  0  0  0  0  0  0  0  0
   29.3878  -21.0370  -17.0008 C   0  0  0  0  0  0  0  0  0  0  0  0
   29.0970  -22.4966  -17.2727 C   0  0  0  0  0  0  0  0  0  0  0  0
   28.8587  -23.3174  -16.3547 O   0  0  0  0  0  0  0  0  0  0  0  0
   26.3327  -20.1110  -14.8535 C   0  0  0  0  0  0  0  0  0  0  0  0
   26.5646  -19.1335  -14.0561 O   0  0  0  0  0  0  0  0  0  0  0  0
   29.0924  -22.9479  -18.5771 O   0  0  0  0  0  0  0  0  0  0  0  0
   25.2634  -20.9436  -14.4654 N   0  0  0  0  0  0  0  0  0  0  0  0
   24.5682  -20.7737  -13.1845 C   0  0  1  0  0  0  0  0  0  0  0  0
   23.0813  -20.5139  -13.4634 C   0  0  0  0  0  0  0  0  0  0  0  0
   22.3157  -20.5393  -12.1914 C   0  0  0  0  0  0  0  0  0  0  0  0
   22.3644  -19.6168  -11.1396 C   0  0  0  0  0  0  0  0  0  0  0  0
   21.5111  -20.0141  -10.1745 N   0  0  0  0  0  0  0  0  0  0  0  0
   20.9000  -21.1551  -10.5367 C   0  0  0  0  0  0  0  0  0  0  0  0
   19.9611  -21.9391   -9.9009 C   0  0  0  0  0  0  0  0  0  0  0  0
   19.4891  -23.0896  -10.5113 C   0  0  0  0  0  0  0  0  0  0  0  0
   19.9902  -23.3974  -11.7436 C   0  0  0  0  0  0  0  0  0  0  0  0
   20.9180  -22.6222  -12.3713 C   0  0  0  0  0  0  0  0  0  0  0  0
   21.3941  -21.4807  -11.7792 C   0  0  0  0  0  0  0  0  0  0  0  0
   24.6352  -22.0417  -12.4136 C   0  0  0  0  0  0  0  0  0  0  0  0
   24.7729  -22.0768  -11.0396 O   0  0  0  0  0  0  0  0  0  0  0  0
   24.5678  -23.1558  -12.9935 O   0  0  0  0  0  0  0  0  0  0  0  0
  2  1  1  6
  2  3  1  0
  3  4  1  0
  4  9  1  0
  5  4  2  0
  5  6  1  0
  6  7  2  0
  7  8  1  0
  9  8  2  0
 10 11  2  0
 10  2  1  0
 12 10  1  0
 13 12  1  0
 13 14  1  1
 15 14  1  0
 16 15  1  0
 17 16  2  0
 18 13  1  0
 19 18  2  0
 20 16  1  0
 21 18  1  0
 22 21  1  0
 22 23  1  6
 23 24  1  0
 24 25  2  0
 24 32  1  0
 25 26  1  0
 26 27  1  0
 27 28  2  0
 28 29  1  0
 30 29  2  0
 31 30  1  0
 32 31  2  0
 32 27  1  0
 33 22  1  0
 34 33  1  0
 35 33  2  0
M  END
$$$$
