FEW.pdb
     RDKit          3D

 35 37  0  0  1  0  0  0  0  0999 V2000
   19.5109  -21.8418  -13.9792 N   0  0  0  0  0  0  0  0  0  0  0  0
   20.6226  -20.9743  -14.2793 C   0  0  1  0  0  0  0  0  0  0  0  0
   20.4746  -19.6294  -13.5616 C   0  0  0  0  0  0  0  0  0  0  0  0
   19.6048  -18.7162  -14.3481 C   0  0  0  0  0  0  0  0  0  0  0  0
   20.0862  -18.0670  -15.4656 C   0  0  0  0  0  0  0  0  0  0  0  0
   19.2752  -17.2178  -16.1972 C   0  0  0  0  0  0  0  0  0  0  0  0
   17.9543  -16.9942  -15.8284 C   0  0  0  0  0  0  0  0  0  0  0  0
   17.4644  -17.6310  -14.7231 C   0  0  0  0  0  0  0  0  0  0  0  0
   18.2812  -18.4725  -14.0050 C   0  0  0  0  0  0  0  0  0  0  0  0
   21.8698  -21.5863  -13.7035 C   0  0  0  0  0  0  0  0  0  0  0  0
   21.8172  -22.2210  -12.6113 O   0  0  0  0  0  0  0  0  0  0  0  0
   23.1192  -21.4717  -14.3570 N   0  0  0  0  0  0  0  0  0  0  0  0
   24.3322  -22.0760  -13.7428 C   0  0  1  0  0  0  0  0  0  0  0  0
   25.2740  -22.4334  -14.8549 C   0  0  0  0  0  0  0  0  0  0  0  0
   26.6130  -22.9278  -14.4849 C   0  0  0  0  0  0  0  0  0  0  0  0
   27.6342  -21.8893  -14.8945 C   0  0  0  0  0  0  0  0  0  0  0  0
   28.8128  -21.8991  -14.4656 O   0  0  0  0  0  0  0  0  0  0  0  0
   24.8611  -21.1380  -12.7455 C   0  0  0  0  0  0  0  0  0  0  0  0
   24.8597  -19.8722  -12.9529 O   0  0  0  0  0  0  0  0  0  0  0  0
   27.2612  -20.8915  -15.7723 O   0  0  0  0  0  0  0  0  0  0  0  0
   25.3991  -21.5281  -11.5024 N   0  0  0  0  0  0  0  0  0  0  0  0
   26.0369  -20.5691  -10.5934 C   0  0  1  0  0  0  0  0  0  0  0  0
   26.4861  -21.3147   -9.3292 C   0  0  0  0  0  0  0  0  0  0  0  0
   26.9083  -20.3413   -8.2903 C   0  0  0  0  0  0  0  0  0  0  0  0
   26.5150  -19.0048   -8.1534 C   0  0  0  0  0  0  0  0  0  0  0  0
   27.1329  -18.4792   -7.0767 N   0  0  0  0  0  0  0  0  0  0  0  0
   27.9162  -19.4031   -6.4944 C   0  0  0  0  0  0  0  0  0  0  0  0
   28.7343  -19.3510   -5.3861 C   0  0  0  0  0  0  0  0  0  0  0  0
   29.4467  -20.4731   -4.9955 C   0  0  0  0  0  0  0  0  0  0  0  0
   29.2992  -21.6035   -5.7471 C   0  0  0  0  0  0  0  0  0  0  0  0
   28.4905  -21.6543   -6.8422 C   0  0  0  0  0  0  0  0  0  0  0  0
   27.7795  -20.5515   -7.2405 C   0  0  0  0  0  0  0  0  0  0  0  0
   27.2701  -20.0339  -11.2252 C   0  0  0  0  0  0  0  0  0  0  0  0
   27.5241  -18.6814  -11.3455 O   0  0  0  0  0  0  0  0  0  0  0  0
   28.1494  -20.8069  -11.6851 O   0  0  0  0  0  0  0  0  0  0  0  0
  2  1  1  1
  2  3  1  0
  3  4  1  0
  4  9  1  0
  5  4  2  0
  5  6  1  0
  6  7  2  0
  7  8  1  0
  9  8  2  0
 10 11  2  0
 10  2  1  0
 12 10  1  0
 13 12  1  0
 13 14  1  6
 15 14  1  0
 16 15  1  0
 17 16  2  0
 18 13  1  0
 19 18  2  0
 20 16  1  0
 21 18  1  0
 22 21  1  0
 22 23  1  1
 23 24  1  0
 24 25  2  0
 24 32  1  0
 25 26  1  0
 26 27  1  0
 27 28  2  0
 28 29  1  0
 30 29  2  0
 31 30  1  0
 32 31  2  0
 32 27  1  0
 33 22  1  0
 34 33  1  0
 35 33  2  0
M  END
$$$$
