FEW.pdb
     RDKit          3D

 35 37  0  0  1  0  0  0  0  0999 V2000
   13.6846  -13.7976    5.2270 N   0  0  0  0  0  0  0  0  0  0  0  0
   14.7469  -14.5921    4.6625 C   0  0  1  0  0  0  0  0  0  0  0  0
   16.0804  -13.8410    4.7210 C   0  0  0  0  0  0  0  0  0  0  0  0
   17.1273  -14.5864    3.9744 C   0  0  0  0  0  0  0  0  0  0  0  0
   18.0769  -15.3325    4.6403 C   0  0  0  0  0  0  0  0  0  0  0  0
   19.0504  -16.0264    3.9439 C   0  0  0  0  0  0  0  0  0  0  0  0
   19.1000  -15.9921    2.5557 C   0  0  0  0  0  0  0  0  0  0  0  0
   18.1651  -15.2567    1.8832 C   0  0  0  0  0  0  0  0  0  0  0  0
   17.2030  -14.5718    2.5876 C   0  0  0  0  0  0  0  0  0  0  0  0
   14.9454  -15.8035    5.5314 C   0  0  0  0  0  0  0  0  0  0  0  0
   14.9485  -15.6858    6.7902 O   0  0  0  0  0  0  0  0  0  0  0  0
   15.1313  -17.0904    4.9743 N   0  0  0  0  0  0  0  0  0  0  0  0
   15.1659  -18.2825    5.8639 C   0  0  1  0  0  0  0  0  0  0  0  0
   14.3737  -19.3690    5.1980 C   0  0  0  0  0  0  0  0  0  0  0  0
   14.2836  -20.6699    5.8865 C   0  0  0  0  0  0  0  0  0  0  0  0
   13.1369  -20.6090    6.8717 C   0  0  0  0  0  0  0  0  0  0  0  0
   13.1568  -21.2220    7.9658 O   0  0  0  0  0  0  0  0  0  0  0  0
   16.5689  -18.6076    6.1463 C   0  0  0  0  0  0  0  0  0  0  0  0
   17.4445  -18.6558    5.2102 O   0  0  0  0  0  0  0  0  0  0  0  0
   12.0250  -19.8527    6.5608 O   0  0  0  0  0  0  0  0  0  0  0  0
   17.0714  -18.8839    7.4341 N   0  0  0  0  0  0  0  0  0  0  0  0
   18.4267  -19.4039    7.6472 C   0  0  1  0  0  0  0  0  0  0  0  0
   18.8949  -18.9944    9.0504 C   0  0  0  0  0  0  0  0  0  0  0  0
   19.2864  -17.5620    9.0555 C   0  0  0  0  0  0  0  0  0  0  0  0
   18.4496  -16.4419    9.1256 C   0  0  0  0  0  0  0  0  0  0  0  0
   19.2111  -15.3297    9.1025 N   0  0  0  0  0  0  0  0  0  0  0  0
   20.5115  -15.6595    9.0206 C   0  0  0  0  0  0  0  0  0  0  0  0
   21.6551  -14.8916    8.9685 C   0  0  0  0  0  0  0  0  0  0  0  0
   22.8968  -15.4999    8.8844 C   0  0  0  0  0  0  0  0  0  0  0  0
   22.9266  -16.8648    8.8566 C   0  0  0  0  0  0  0  0  0  0  0  0
   21.7961  -17.6231    8.9081 C   0  0  0  0  0  0  0  0  0  0  0  0
   20.5604  -17.0346    8.9915 C   0  0  0  0  0  0  0  0  0  0  0  0
   18.3945  -20.8889    7.6325 C   0  0  0  0  0  0  0  0  0  0  0  0
   19.5305  -21.6644    7.7608 O   0  0  0  0  0  0  0  0  0  0  0  0
   17.3095  -21.5113    7.4999 O   0  0  0  0  0  0  0  0  0  0  0  0
  2  1  1  1
  2  3  1  0
  3  4  1  0
  4  9  1  0
  5  4  2  0
  5  6  1  0
  6  7  2  0
  7  8  1  0
  9  8  2  0
 10 11  2  0
 10  2  1  0
 12 10  1  0
 13 12  1  0
 13 14  1  6
 15 14  1  0
 16 15  1  0
 17 16  2  0
 18 13  1  0
 19 18  2  0
 20 16  1  0
 21 18  1  0
 22 21  1  0
 22 23  1  1
 23 24  1  0
 24 25  2  0
 24 32  1  0
 25 26  1  0
 26 27  1  0
 27 28  2  0
 28 29  1  0
 30 29  2  0
 31 30  1  0
 32 31  2  0
 32 27  1  0
 33 22  1  0
 34 33  1  0
 35 33  2  0
M  END
$$$$
