FEW.pdb
     RDKit          3D

 35 37  0  0  1  0  0  0  0  0999 V2000
   26.4877  -18.7172   -8.2185 N   0  0  0  0  0  0  0  0  0  0  0  0
   27.2489  -19.8183   -8.7540 C   0  0  1  0  0  0  0  0  0  0  0  0
   27.1976  -21.0258   -7.8133 C   0  0  0  0  0  0  0  0  0  0  0  0
   27.8475  -20.6999   -6.5170 C   0  0  0  0  0  0  0  0  0  0  0  0
   29.2188  -20.7508   -6.3794 C   0  0  0  0  0  0  0  0  0  0  0  0
   29.8224  -20.4464   -5.1723 C   0  0  0  0  0  0  0  0  0  0  0  0
   29.0664  -20.0811   -4.0652 C   0  0  0  0  0  0  0  0  0  0  0  0
   27.7066  -20.0265   -4.1876 C   0  0  0  0  0  0  0  0  0  0  0  0
   27.1194  -20.3315   -5.3930 C   0  0  0  0  0  0  0  0  0  0  0  0
   26.5827  -20.2835  -10.0195 C   0  0  0  0  0  0  0  0  0  0  0  0
   25.3211  -20.2998  -10.1015 O   0  0  0  0  0  0  0  0  0  0  0  0
   27.3364  -20.7099  -11.1381 N   0  0  0  0  0  0  0  0  0  0  0  0
   26.7443  -20.6321  -12.5008 C   0  0  1  0  0  0  0  0  0  0  0  0
   27.8522  -20.8450  -13.4900 C   0  0  0  0  0  0  0  0  0  0  0  0
   27.4976  -20.8617  -14.9212 C   0  0  0  0  0  0  0  0  0  0  0  0
   27.1420  -19.4521  -15.3403 C   0  0  0  0  0  0  0  0  0  0  0  0
   25.9936  -19.1368  -15.7340 O   0  0  0  0  0  0  0  0  0  0  0  0
   25.6364  -21.5916  -12.5785 C   0  0  0  0  0  0  0  0  0  0  0  0
   25.5348  -22.5627  -11.7468 O   0  0  0  0  0  0  0  0  0  0  0  0
   28.1129  -18.4723  -15.2899 O   0  0  0  0  0  0  0  0  0  0  0  0
   24.6089  -21.5345  -13.5420 N   0  0  0  0  0  0  0  0  0  0  0  0
   23.1908  -21.6197  -13.1755 C   0  0  1  0  0  0  0  0  0  0  0  0
   22.8655  -20.4778  -12.2028 C   0  0  0  0  0  0  0  0  0  0  0  0
   21.4475  -20.5687  -11.7712 C   0  0  0  0  0  0  0  0  0  0  0  0
   20.7712  -21.6870  -11.2697 C   0  0  0  0  0  0  0  0  0  0  0  0
   19.4970  -21.3385  -11.0009 N   0  0  0  0  0  0  0  0  0  0  0  0
   19.2972  -20.0436  -11.3003 C   0  0  0  0  0  0  0  0  0  0  0  0
   18.1835  -19.2370  -11.2039 C   0  0  0  0  0  0  0  0  0  0  0  0
   18.2528  -17.9084  -11.5899 C   0  0  0  0  0  0  0  0  0  0  0  0
   19.4516  -17.4526  -12.0586 C   0  0  0  0  0  0  0  0  0  0  0  0
   20.5518  -18.2502  -12.1536 C   0  0  0  0  0  0  0  0  0  0  0  0
   20.4978  -19.5670  -11.7752 C   0  0  0  0  0  0  0  0  0  0  0  0
   22.3539  -21.3944  -14.3818 C   0  0  0  0  0  0  0  0  0  0  0  0
   21.1835  -22.0877  -14.6221 O   0  0  0  0  0  0  0  0  0  0  0  0
   22.6849  -20.5463  -15.2498 O   0  0  0  0  0  0  0  0  0  0  0  0
  2  1  1  1
  2  3  1  0
  3  4  1  0
  4  9  1  0
  5  4  2  0
  5  6  1  0
  6  7  2  0
  7  8  1  0
  9  8  2  0
 10 11  2  0
 10  2  1  0
 12 10  1  0
 13 12  1  0
 13 14  1  6
 15 14  1  0
 16 15  1  0
 17 16  2  0
 18 13  1  0
 19 18  2  0
 20 16  1  0
 21 18  1  0
 22 21  1  0
 22 23  1  1
 23 24  1  0
 24 25  2  0
 24 32  1  0
 25 26  1  0
 26 27  1  0
 27 28  2  0
 28 29  1  0
 30 29  2  0
 31 30  1  0
 32 31  2  0
 32 27  1  0
 33 22  1  0
 34 33  1  0
 35 33  2  0
M  END
$$$$
