FEW.pdb
     RDKit          3D

 35 37  0  0  1  0  0  0  0  0999 V2000
   28.8556  -21.3112   -9.0787 N   0  0  0  0  0  0  0  0  0  0  0  0
   27.4187  -21.2845   -8.9636 C   0  0  1  0  0  0  0  0  0  0  0  0
   26.9565  -20.0501   -8.1835 C   0  0  0  0  0  0  0  0  0  0  0  0
   27.3749  -20.1505   -6.7609 C   0  0  0  0  0  0  0  0  0  0  0  0
   28.6464  -19.7875   -6.3690 C   0  0  0  0  0  0  0  0  0  0  0  0
   29.0342  -19.8807   -5.0442 C   0  0  0  0  0  0  0  0  0  0  0  0
   28.1558  -20.3420   -4.0713 C   0  0  0  0  0  0  0  0  0  0  0  0
   26.8929  -20.7051   -4.4458 C   0  0  0  0  0  0  0  0  0  0  0  0
   26.5204  -20.6075   -5.7659 C   0  0  0  0  0  0  0  0  0  0  0  0
   26.8364  -21.1144  -10.3397 C   0  0  0  0  0  0  0  0  0  0  0  0
   27.2844  -20.2174  -11.1100 O   0  0  0  0  0  0  0  0  0  0  0  0
   25.7867  -21.9404  -10.8056 N   0  0  0  0  0  0  0  0  0  0  0  0
   25.2255  -21.7246  -12.1665 C   0  0  1  0  0  0  0  0  0  0  0  0
   25.2237  -23.0488  -12.8721 C   0  0  0  0  0  0  0  0  0  0  0  0
   24.5945  -23.1133  -14.2041 C   0  0  0  0  0  0  0  0  0  0  0  0
   25.5967  -22.6280  -15.2283 C   0  0  0  0  0  0  0  0  0  0  0  0
   26.8205  -22.5227  -14.9746 O   0  0  0  0  0  0  0  0  0  0  0  0
   23.9133  -21.0817  -12.0285 C   0  0  0  0  0  0  0  0  0  0  0  0
   23.0829  -21.4475  -11.1219 O   0  0  0  0  0  0  0  0  0  0  0  0
   25.1542  -22.2868  -16.4905 O   0  0  0  0  0  0  0  0  0  0  0  0
   23.4587  -20.0310  -12.8509 N   0  0  0  0  0  0  0  0  0  0  0  0
   22.1282  -19.4340  -12.6891 C   0  0  1  0  0  0  0  0  0  0  0  0
   22.0019  -18.2468  -13.6537 C   0  0  0  0  0  0  0  0  0  0  0  0
   20.6624  -17.6214  -13.5144 C   0  0  0  0  0  0  0  0  0  0  0  0
   20.1067  -17.0228  -12.3775 C   0  0  0  0  0  0  0  0  0  0  0  0
   18.8695  -16.5816  -12.6806 N   0  0  0  0  0  0  0  0  0  0  0  0
   18.5793  -16.8593  -13.9632 C   0  0  0  0  0  0  0  0  0  0  0  0
   17.4590  -16.6143  -14.7281 C   0  0  0  0  0  0  0  0  0  0  0  0
   17.4218  -17.0154  -16.0535 C   0  0  0  0  0  0  0  0  0  0  0  0
   18.5249  -17.6496  -16.5488 C   0  0  0  0  0  0  0  0  0  0  0  0
   19.6318  -17.8914  -15.7923 C   0  0  0  0  0  0  0  0  0  0  0  0
   19.6827  -17.5001  -14.4792 C   0  0  0  0  0  0  0  0  0  0  0  0
   21.0921  -20.4175  -13.0964 C   0  0  0  0  0  0  0  0  0  0  0  0
   19.8695  -20.5239  -12.4623 O   0  0  0  0  0  0  0  0  0  0  0  0
   21.2915  -21.2082  -14.0540 O   0  0  0  0  0  0  0  0  0  0  0  0
  2  1  1  6
  2  3  1  0
  3  4  1  0
  4  9  1  0
  5  4  2  0
  5  6  1  0
  6  7  2  0
  7  8  1  0
  9  8  2  0
 10 11  2  0
 10  2  1  0
 12 10  1  0
 13 12  1  0
 13 14  1  1
 15 14  1  0
 16 15  1  0
 17 16  2  0
 18 13  1  0
 19 18  2  0
 20 16  1  0
 21 18  1  0
 22 21  1  0
 22 23  1  6
 23 24  1  0
 24 25  2  0
 24 32  1  0
 25 26  1  0
 26 27  1  0
 27 28  2  0
 28 29  1  0
 30 29  2  0
 31 30  1  0
 32 31  2  0
 32 27  1  0
 33 22  1  0
 34 33  1  0
 35 33  2  0
M  END
$$$$
