FEW.pdb
     RDKit          3D

 35 37  0  0  1  0  0  0  0  0999 V2000
   28.2340  -32.8124  -16.6066 N   0  0  0  0  0  0  0  0  0  0  0  0
   27.6069  -33.8395  -15.8126 C   0  0  1  0  0  0  0  0  0  0  0  0
   28.6411  -34.5722  -14.9528 C   0  0  0  0  0  0  0  0  0  0  0  0
   28.5489  -36.0395  -15.1706 C   0  0  0  0  0  0  0  0  0  0  0  0
   29.0247  -36.6149  -16.3301 C   0  0  0  0  0  0  0  0  0  0  0  0
   28.9390  -37.9810  -16.5312 C   0  0  0  0  0  0  0  0  0  0  0  0
   28.3719  -38.8121  -15.5728 C   0  0  0  0  0  0  0  0  0  0  0  0
   27.8964  -38.2552  -14.4192 C   0  0  0  0  0  0  0  0  0  0  0  0
   27.9879  -36.8959  -14.2320 C   0  0  0  0  0  0  0  0  0  0  0  0
   26.6819  -33.1785  -14.8282 C   0  0  0  0  0  0  0  0  0  0  0  0
   26.8996  -31.9904  -14.4545 O   0  0  0  0  0  0  0  0  0  0  0  0
   25.5583  -33.8561  -14.2996 N   0  0  0  0  0  0  0  0  0  0  0  0
   24.6673  -33.1641  -13.3295 C   0  0  1  0  0  0  0  0  0  0  0  0
   23.2520  -33.5163  -13.6819 C   0  0  0  0  0  0  0  0  0  0  0  0
   22.1763  -32.9266  -12.8637 C   0  0  0  0  0  0  0  0  0  0  0  0
   20.8468  -33.3727  -13.4315 C   0  0  0  0  0  0  0  0  0  0  0  0
   20.7593  -34.0780  -14.4650 O   0  0  0  0  0  0  0  0  0  0  0  0
   25.0892  -33.5303  -11.9723 C   0  0  0  0  0  0  0  0  0  0  0  0
   25.5681  -34.6915  -11.7126 O   0  0  0  0  0  0  0  0  0  0  0  0
   19.6834  -32.9928  -12.7932 O   0  0  0  0  0  0  0  0  0  0  0  0
   25.0144  -32.6649  -10.8620 N   0  0  0  0  0  0  0  0  0  0  0  0
   25.4333  -33.0817   -9.5190 C   0  0  1  0  0  0  0  0  0  0  0  0
   25.0167  -31.9972   -8.5159 C   0  0  0  0  0  0  0  0  0  0  0  0
   25.2485  -32.4745   -7.1290 C   0  0  0  0  0  0  0  0  0  0  0  0
   26.4636  -32.5534   -6.4384 C   0  0  0  0  0  0  0  0  0  0  0  0
   26.2297  -33.0423   -5.2040 N   0  0  0  0  0  0  0  0  0  0  0  0
   24.9185  -33.2908   -5.0443 C   0  0  0  0  0  0  0  0  0  0  0  0
   24.1983  -33.7878   -3.9792 C   0  0  0  0  0  0  0  0  0  0  0  0
   22.8262  -33.9482   -4.0832 C   0  0  0  0  0  0  0  0  0  0  0  0
   22.2409  -33.5968   -5.2658 C   0  0  0  0  0  0  0  0  0  0  0  0
   22.9533  -33.1057   -6.3179 C   0  0  0  0  0  0  0  0  0  0  0  0
   24.3118  -32.9417   -6.2292 C   0  0  0  0  0  0  0  0  0  0  0  0
   24.7001  -34.3145   -9.1327 C   0  0  0  0  0  0  0  0  0  0  0  0
   23.3909  -34.5545   -9.5023 O   0  0  0  0  0  0  0  0  0  0  0  0
   25.2538  -35.2062   -8.4397 O   0  0  0  0  0  0  0  0  0  0  0  0
  2  1  1  6
  2  3  1  0
  3  4  1  0
  4  9  1  0
  5  4  2  0
  5  6  1  0
  6  7  2  0
  7  8  1  0
  9  8  2  0
 10 11  2  0
 10  2  1  0
 12 10  1  0
 13 12  1  0
 13 14  1  6
 15 14  1  0
 16 15  1  0
 17 16  2  0
 18 13  1  0
 19 18  2  0
 20 16  1  0
 21 18  1  0
 22 21  1  0
 22 23  1  1
 23 24  1  0
 24 25  2  0
 24 32  1  0
 25 26  1  0
 26 27  1  0
 27 28  2  0
 28 29  1  0
 30 29  2  0
 31 30  1  0
 32 31  2  0
 32 27  1  0
 33 22  1  0
 34 33  1  0
 35 33  2  0
M  END
$$$$
