YFR.pdb
     RDKit          3D

 35 36  0  0  1  0  0  0  0  0999 V2000
    7.2354  -14.4740   14.2960 O   0  0  0  0  0  0  0  0  0  0  0  0
    7.8214  -14.4142   15.5594 C   0  0  0  0  0  0  0  0  0  0  0  0
    8.9219  -15.1863   15.9118 C   0  0  0  0  0  0  0  0  0  0  0  0
    9.5065  -15.1341   17.1435 C   0  0  0  0  0  0  0  0  0  0  0  0
    9.0160  -14.2883   18.1194 C   0  0  0  0  0  0  0  0  0  0  0  0
    9.6850  -14.2308   19.4551 C   0  0  0  0  0  0  0  0  0  0  0  0
    9.4511  -15.5585   20.1930 C   0  0  2  0  0  0  0  0  0  0  0  0
    8.1377  -16.0800   19.8468 N   0  0  0  0  0  0  0  0  0  0  0  0
    9.5137  -15.3309   21.6574 C   0  0  0  0  0  0  0  0  0  0  0  0
   10.6132  -15.0553   22.2390 O   0  0  0  0  0  0  0  0  0  0  0  0
    7.9271  -13.5047   17.8151 C   0  0  0  0  0  0  0  0  0  0  0  0
    7.3517  -13.5761   16.5584 C   0  0  0  0  0  0  0  0  0  0  0  0
    8.3461  -15.4067   22.4884 N   0  0  0  0  0  0  0  0  0  0  0  0
    8.3041  -14.7562   23.8106 C   0  0  1  0  0  0  0  0  0  0  0  0
    7.2051  -13.7101   23.8145 C   0  0  0  0  0  0  0  0  0  0  0  0
    7.0157  -13.1257   25.1508 C   0  0  0  0  0  0  0  0  0  0  0  0
    6.2421  -13.7244   26.1489 C   0  0  0  0  0  0  0  0  0  0  0  0
    6.0906  -13.1757   27.4006 C   0  0  0  0  0  0  0  0  0  0  0  0
    6.7077  -11.9972   27.7158 C   0  0  0  0  0  0  0  0  0  0  0  0
    7.4793  -11.3728   26.7599 C   0  0  0  0  0  0  0  0  0  0  0  0
    7.6214  -11.9460   25.4955 C   0  0  0  0  0  0  0  0  0  0  0  0
    8.1878  -15.7927   24.8158 C   0  0  0  0  0  0  0  0  0  0  0  0
    7.1854  -16.5881   24.7138 O   0  0  0  0  0  0  0  0  0  0  0  0
   14.1452  -19.5461   25.0573 N   0  0  0  0  0  0  0  0  0  0  0  0
   13.6620  -20.8353   24.7203 C   0  0  0  0  0  0  0  0  0  0  0  0
   14.3483  -21.8851   24.8723 N   0  0  0  0  0  0  0  0  0  0  0  0
   12.3418  -20.9058   24.1874 N   0  0  0  0  0  0  0  0  0  0  0  0
   11.5669  -19.7230   23.8789 C   0  0  0  0  0  0  0  0  0  0  0  0
   10.9657  -19.1785   25.1319 C   0  0  0  0  0  0  0  0  0  0  0  0
   10.2390  -17.9103   25.0288 C   0  0  0  0  0  0  0  0  0  0  0  0
    9.5540  -17.3652   26.2450 C   0  0  2  0  0  0  0  0  0  0  0  0
    9.0423  -16.0347   25.8848 N   0  0  0  0  0  0  0  0  0  0  0  0
   10.2765  -17.3561   27.4914 C   0  0  0  0  0  0  0  0  0  0  0  0
   10.8444  -18.3782   27.9700 O   0  0  0  0  0  0  0  0  0  0  0  0
   10.4380  -16.2148   28.3184 O   0  0  0  0  0  0  0  0  0  0  0  0
  2 12  2  0
  2  1  1  0
  3  2  1  0
  4  5  1  0
  4  3  2  0
  5 11  2  0
  6  5  1  0
  7  6  1  0
  7  8  1  1
  9  7  1  0
  9 10  2  0
 11 12  1  0
 13  9  1  0
 14 13  1  0
 14 22  1  0
 14 15  1  6
 16 17  2  0
 16 15  1  0
 18 17  1  0
 19 18  2  0
 20 19  1  0
 20 21  2  0
 21 16  1  0
 22 32  1  0
 22 23  2  0
 25 24  1  0
 25 27  1  0
 26 25  2  0
 27 28  1  0
 29 28  1  0
 29 30  1  0
 31 30  1  6
 31 33  1  0
 32 31  1  0
 33 35  1  0
 34 33  2  0
M  END
$$$$
