YFR.pdb
     RDKit          3D

 35 36  0  0  1  0  0  0  0  0999 V2000
    7.3208  -15.0286   14.7877 O   0  0  0  0  0  0  0  0  0  0  0  0
    7.7514  -15.0967   16.1118 C   0  0  0  0  0  0  0  0  0  0  0  0
    7.2770  -16.0493   17.0055 C   0  0  0  0  0  0  0  0  0  0  0  0
    7.6933  -16.1284   18.3025 C   0  0  0  0  0  0  0  0  0  0  0  0
    8.6298  -15.2408   18.7958 C   0  0  0  0  0  0  0  0  0  0  0  0
    9.0882  -15.3589   20.2139 C   0  0  0  0  0  0  0  0  0  0  0  0
    8.1410  -14.5543   21.1179 C   0  0  2  0  0  0  0  0  0  0  0  0
    8.2835  -13.1358   20.8279 N   0  0  0  0  0  0  0  0  0  0  0  0
    8.4857  -14.7972   22.5401 C   0  0  0  0  0  0  0  0  0  0  0  0
    9.5859  -14.3875   23.0348 O   0  0  0  0  0  0  0  0  0  0  0  0
    9.1276  -14.2800   17.9464 C   0  0  0  0  0  0  0  0  0  0  0  0
    8.6891  -14.2204   16.6350 C   0  0  0  0  0  0  0  0  0  0  0  0
    7.6022  -15.4998   23.4264 N   0  0  0  0  0  0  0  0  0  0  0  0
    7.9965  -15.8105   24.8124 C   0  0  1  0  0  0  0  0  0  0  0  0
    6.8547  -15.4525   25.7455 C   0  0  0  0  0  0  0  0  0  0  0  0
    6.7313  -13.9974   25.9200 C   0  0  0  0  0  0  0  0  0  0  0  0
    5.7054  -13.2392   25.3494 C   0  0  0  0  0  0  0  0  0  0  0  0
    5.5919  -11.8819   25.5381 C   0  0  0  0  0  0  0  0  0  0  0  0
    6.5024  -11.2147   26.3094 C   0  0  0  0  0  0  0  0  0  0  0  0
    7.5309  -11.9246   26.8900 C   0  0  0  0  0  0  0  0  0  0  0  0
    7.6285  -13.3018   26.6872 C   0  0  0  0  0  0  0  0  0  0  0  0
    8.4324  -17.1913   24.8548 C   0  0  0  0  0  0  0  0  0  0  0  0
    8.0466  -17.9498   23.8938 O   0  0  0  0  0  0  0  0  0  0  0  0
   16.2267  -16.4451   23.5473 N   0  0  0  0  0  0  0  0  0  0  0  0
   15.7189  -17.2710   22.5133 C   0  0  0  0  0  0  0  0  0  0  0  0
   16.3384  -17.4717   21.4307 N   0  0  0  0  0  0  0  0  0  0  0  0
   14.4506  -17.8795   22.7436 N   0  0  0  0  0  0  0  0  0  0  0  0
   13.6138  -17.5236   23.8696 C   0  0  0  0  0  0  0  0  0  0  0  0
   12.4082  -18.4033   23.8941 C   0  0  0  0  0  0  0  0  0  0  0  0
   11.1736  -17.8309   24.4378 C   0  0  0  0  0  0  0  0  0  0  0  0
   10.4416  -18.5736   25.5138 C   0  0  2  0  0  0  0  0  0  0  0  0
    9.2301  -17.7978   25.8177 N   0  0  0  0  0  0  0  0  0  0  0  0
   11.1659  -18.9477   26.7018 C   0  0  0  0  0  0  0  0  0  0  0  0
   11.3801  -18.1536   27.6609 O   0  0  0  0  0  0  0  0  0  0  0  0
   11.7154  -20.2343   26.9363 O   0  0  0  0  0  0  0  0  0  0  0  0
  2 12  2  0
  2  1  1  0
  3  2  1  0
  4  5  1  0
  4  3  2  0
  5 11  2  0
  6  5  1  0
  7  6  1  0
  7  8  1  6
  9  7  1  0
  9 10  2  0
 11 12  1  0
 13  9  1  0
 14 13  1  0
 14 22  1  0
 14 15  1  1
 16 17  2  0
 16 15  1  0
 18 17  1  0
 19 18  2  0
 20 19  1  0
 20 21  2  0
 21 16  1  0
 22 32  1  0
 22 23  2  0
 25 24  1  0
 25 27  1  0
 26 25  2  0
 27 28  1  0
 29 28  1  0
 29 30  1  0
 31 30  1  6
 31 33  1  0
 32 31  1  0
 33 35  1  0
 34 33  2  0
M  END
$$$$
