YFR.pdb
     RDKit          3D

 35 36  0  0  1  0  0  0  0  0999 V2000
    7.3402  -13.8670   16.3851 O   0  0  0  0  0  0  0  0  0  0  0  0
    7.7688  -13.8782   17.7115 C   0  0  0  0  0  0  0  0  0  0  0  0
    9.0990  -14.0662   18.0672 C   0  0  0  0  0  0  0  0  0  0  0  0
    9.5312  -14.0755   19.3613 C   0  0  0  0  0  0  0  0  0  0  0  0
    8.6406  -13.8934   20.4015 C   0  0  0  0  0  0  0  0  0  0  0  0
    9.1388  -13.8854   21.8110 C   0  0  0  0  0  0  0  0  0  0  0  0
    9.5147  -15.3183   22.2203 C   0  0  2  0  0  0  0  0  0  0  0  0
    8.4505  -16.2291   21.8271 N   0  0  0  0  0  0  0  0  0  0  0  0
    9.6929  -15.3843   23.6915 C   0  0  0  0  0  0  0  0  0  0  0  0
   10.6590  -14.7881   24.2696 O   0  0  0  0  0  0  0  0  0  0  0  0
    7.3127  -13.7036   20.0965 C   0  0  0  0  0  0  0  0  0  0  0  0
    6.8991  -13.6985   18.7757 C   0  0  0  0  0  0  0  0  0  0  0  0
    8.7905  -16.1166   24.5337 N   0  0  0  0  0  0  0  0  0  0  0  0
    8.8737  -16.0292   26.0029 C   0  0  1  0  0  0  0  0  0  0  0  0
    7.5443  -15.5406   26.5472 C   0  0  0  0  0  0  0  0  0  0  0  0
    7.4792  -14.0718   26.5845 C   0  0  0  0  0  0  0  0  0  0  0  0
    8.5887  -13.2593   26.8332 C   0  0  0  0  0  0  0  0  0  0  0  0
    8.5161  -11.8862   26.8451 C   0  0  0  0  0  0  0  0  0  0  0  0
    7.3258  -11.2569   26.6081 C   0  0  0  0  0  0  0  0  0  0  0  0
    6.2063  -12.0210   26.3594 C   0  0  0  0  0  0  0  0  0  0  0  0
    6.3006  -13.4132   26.3507 C   0  0  0  0  0  0  0  0  0  0  0  0
    9.3231  -17.3124   26.5027 C   0  0  0  0  0  0  0  0  0  0  0  0
    8.8803  -17.6732   27.6523 O   0  0  0  0  0  0  0  0  0  0  0  0
    9.5004  -21.5685   21.6315 N   0  0  0  0  0  0  0  0  0  0  0  0
   10.3258  -20.6268   20.9674 C   0  0  0  0  0  0  0  0  0  0  0  0
   10.0603  -20.1739   19.8182 N   0  0  0  0  0  0  0  0  0  0  0  0
   11.4972  -20.2011   21.6591 N   0  0  0  0  0  0  0  0  0  0  0  0
   11.8405  -20.6927   22.9763 C   0  0  0  0  0  0  0  0  0  0  0  0
   11.0420  -19.9639   24.0055 C   0  0  0  0  0  0  0  0  0  0  0  0
   11.3631  -20.2269   25.4109 C   0  0  0  0  0  0  0  0  0  0  0  0
   10.6218  -19.4792   26.4771 C   0  0  2  0  0  0  0  0  0  0  0  0
   10.1804  -18.2107   25.8786 N   0  0  0  0  0  0  0  0  0  0  0  0
   11.2638  -19.2898   27.7528 C   0  0  0  0  0  0  0  0  0  0  0  0
   11.8121  -18.2051   28.0979 O   0  0  0  0  0  0  0  0  0  0  0  0
   11.3542  -20.2825   28.7623 O   0  0  0  0  0  0  0  0  0  0  0  0
  2 12  2  0
  2  1  1  0
  3  2  1  0
  4  5  1  0
  4  3  2  0
  5 11  2  0
  6  5  1  0
  7  6  1  0
  7  8  1  1
  9  7  1  0
  9 10  2  0
 11 12  1  0
 13  9  1  0
 14 13  1  0
 14 22  1  0
 14 15  1  1
 16 17  2  0
 16 15  1  0
 18 17  1  0
 19 18  2  0
 20 19  1  0
 20 21  2  0
 21 16  1  0
 22 32  1  0
 22 23  2  0
 25 24  1  0
 25 27  1  0
 26 25  2  0
 27 28  1  0
 29 28  1  0
 29 30  1  0
 31 30  1  6
 31 33  1  0
 32 31  1  0
 33 35  1  0
 34 33  2  0
M  END
$$$$
