YFR.pdb
     RDKit          3D

 35 36  0  0  1  0  0  0  0  0999 V2000
    8.9373  -21.0049   15.3866 O   0  0  0  0  0  0  0  0  0  0  0  0
    9.0933  -20.3203   16.5908 C   0  0  0  0  0  0  0  0  0  0  0  0
    8.0516  -19.6325   17.2017 C   0  0  0  0  0  0  0  0  0  0  0  0
    8.1909  -18.9619   18.3817 C   0  0  0  0  0  0  0  0  0  0  0  0
    9.4064  -18.9377   19.0376 C   0  0  0  0  0  0  0  0  0  0  0  0
    9.5314  -18.2153   20.3405 C   0  0  0  0  0  0  0  0  0  0  0  0
    9.5695  -16.7019   20.0754 C   0  0  2  0  0  0  0  0  0  0  0  0
   10.7640  -16.3739   19.3124 N   0  0  0  0  0  0  0  0  0  0  0  0
    9.6010  -15.9719   21.3664 C   0  0  0  0  0  0  0  0  0  0  0  0
   10.6715  -15.8824   22.0513 O   0  0  0  0  0  0  0  0  0  0  0  0
   10.4665  -19.6054   18.4696 C   0  0  0  0  0  0  0  0  0  0  0  0
   10.2999  -20.2781   17.2715 C   0  0  0  0  0  0  0  0  0  0  0  0
    8.4352  -15.3314   21.9053 N   0  0  0  0  0  0  0  0  0  0  0  0
    8.4703  -14.6539   23.2140 C   0  0  1  0  0  0  0  0  0  0  0  0
    7.2493  -13.7627   23.3445 C   0  0  0  0  0  0  0  0  0  0  0  0
    7.1403  -13.1841   24.6923 C   0  0  0  0  0  0  0  0  0  0  0  0
    7.8737  -12.0711   25.1125 C   0  0  0  0  0  0  0  0  0  0  0  0
    7.7461  -11.5292   26.3698 C   0  0  0  0  0  0  0  0  0  0  0  0
    6.8758  -12.0763   27.2711 C   0  0  0  0  0  0  0  0  0  0  0  0
    6.1337  -13.1758   26.8976 C   0  0  0  0  0  0  0  0  0  0  0  0
    6.2768  -13.7107   25.6167 C   0  0  0  0  0  0  0  0  0  0  0  0
    8.6204  -15.6669   24.2385 C   0  0  0  0  0  0  0  0  0  0  0  0
    7.9011  -16.7233   24.1178 O   0  0  0  0  0  0  0  0  0  0  0  0
   13.7263  -19.6082   22.6695 N   0  0  0  0  0  0  0  0  0  0  0  0
   13.3725  -20.7385   23.4481 C   0  0  0  0  0  0  0  0  0  0  0  0
   13.4417  -21.9212   23.0092 N   0  0  0  0  0  0  0  0  0  0  0  0
   12.9214  -20.4859   24.7765 N   0  0  0  0  0  0  0  0  0  0  0  0
   12.8357  -19.1490   25.3243 C   0  0  0  0  0  0  0  0  0  0  0  0
   11.5725  -18.5005   24.8642 C   0  0  0  0  0  0  0  0  0  0  0  0
   11.3135  -17.1354   25.3298 C   0  0  0  0  0  0  0  0  0  0  0  0
   10.0075  -16.8323   25.9991 C   0  0  2  0  0  0  0  0  0  0  0  0
    9.4617  -15.6343   25.3442 N   0  0  0  0  0  0  0  0  0  0  0  0
    9.9818  -16.7317   27.4361 C   0  0  0  0  0  0  0  0  0  0  0  0
    9.9024  -17.7355   28.1991 O   0  0  0  0  0  0  0  0  0  0  0  0
   10.0446  -15.5118   28.1576 O   0  0  0  0  0  0  0  0  0  0  0  0
  2 12  2  0
  2  1  1  0
  3  2  1  0
  4  5  1  0
  4  3  2  0
  5 11  2  0
  6  5  1  0
  7  6  1  0
  7  8  1  6
  9  7  1  0
  9 10  2  0
 11 12  1  0
 13  9  1  0
 14 13  1  0
 14 22  1  0
 14 15  1  1
 16 17  2  0
 16 15  1  0
 18 17  1  0
 19 18  2  0
 20 19  1  0
 20 21  2  0
 21 16  1  0
 22 32  1  0
 22 23  2  0
 25 24  1  0
 25 27  1  0
 26 25  2  0
 27 28  1  0
 29 28  1  0
 29 30  1  0
 31 30  1  6
 31 33  1  0
 32 31  1  0
 33 35  1  0
 34 33  2  0
M  END
$$$$
