MPG.pdb
     RDKit          3D

 20 20  0  0  1  0  0  0  0  0999 V2000
   18.6782  -13.9811    4.5072 C   0  0  0  0  0  0  0  0  0  0  0  0
   18.0655  -14.3863    2.8745 S   0  0  0  0  0  0  0  0  0  0  0  0
   17.5603  -16.0828    2.6834 C   0  0  0  0  0  0  0  0  0  0  0  0
   18.6408  -17.0767    2.4808 C   0  0  0  0  0  0  0  0  0  0  0  0
   18.2470  -18.5126    2.4864 C   0  0  2  0  0  0  0  0  0  0  0  0
   17.1751  -18.7503    1.5880 N   0  0  0  0  0  0  0  0  0  0  0  0
   18.0840  -19.0435    3.8595 C   0  0  0  0  0  0  0  0  0  0  0  0
   16.8541  -19.0864    4.2315 O   0  0  0  0  0  0  0  0  0  0  0  0
   19.0683  -19.4777    4.7408 N   0  0  0  0  0  0  0  0  0  0  0  0
   20.4205  -19.8613    4.2723 C   0  0  0  0  0  0  0  0  0  0  0  0
   21.3347  -19.4005    5.4157 C   0  0  0  0  0  0  0  0  0  0  0  0
   20.3816  -18.8021    6.4595 C   0  0  0  0  0  0  0  0  0  0  0  0
   19.1657  -19.7165    6.1486 C   0  0  1  0  0  0  0  0  0  0  0  0
   18.0676  -19.4799    7.0237 C   0  0  0  0  0  0  0  0  0  0  0  0
   17.6347  -20.2137    7.9048 O   0  0  0  0  0  0  0  0  0  0  0  0
   17.3698  -18.2217    6.8613 N   0  0  0  0  0  0  0  0  0  0  0  0
   16.3498  -17.8216    7.7758 C   0  0  0  0  0  0  0  0  0  0  0  0
   16.8870  -16.7932    8.6969 C   0  0  0  0  0  0  0  0  0  0  0  0
   16.0992  -15.9345    9.4443 O   0  0  0  0  0  0  0  0  0  0  0  0
   18.1280  -16.6689    8.8291 O   0  0  0  0  0  0  0  0  0  0  0  0
  1  2  1  0
  3  2  1  0
  4  3  1  0
  5  4  1  0
  5  6  1  6
  7  8  2  0
  7  5  1  0
  9  7  1  0
 10  9  1  0
 11 12  1  0
 11 10  1  0
 12 13  1  0
 13  9  1  0
 14 15  2  0
 13 14  1  1
 16 14  1  0
 17 16  1  0
 18 17  1  0
 19 18  1  0
 20 18  2  0
M  END
$$$$
