MPG.pdb
     RDKit          3D

 20 20  0  0  1  0  0  0  0  0999 V2000
   22.2523  -23.3606  -13.9026 C   0  0  0  0  0  0  0  0  0  0  0  0
   23.6675  -24.3787  -14.3099 S   0  0  0  0  0  0  0  0  0  0  0  0
   25.2382  -23.5714  -14.0838 C   0  0  0  0  0  0  0  0  0  0  0  0
   25.2439  -22.0929  -14.1881 C   0  0  0  0  0  0  0  0  0  0  0  0
   25.6617  -21.3325  -12.9780 C   0  0  2  0  0  0  0  0  0  0  0  0
   25.0235  -21.8352  -11.8150 N   0  0  0  0  0  0  0  0  0  0  0  0
   25.5918  -19.8675  -13.1852 C   0  0  0  0  0  0  0  0  0  0  0  0
   24.5065  -19.3534  -12.7262 O   0  0  0  0  0  0  0  0  0  0  0  0
   26.5267  -19.0347  -13.7906 N   0  0  0  0  0  0  0  0  0  0  0  0
   27.9831  -19.2288  -13.6002 C   0  0  0  0  0  0  0  0  0  0  0  0
   28.5736  -18.8295  -14.9594 C   0  0  0  0  0  0  0  0  0  0  0  0
   27.3609  -18.4166  -15.8048 C   0  0  0  0  0  0  0  0  0  0  0  0
   26.4915  -17.8800  -14.6355 C   0  0  1  0  0  0  0  0  0  0  0  0
   25.2613  -17.3197  -15.0831 C   0  0  0  0  0  0  0  0  0  0  0  0
   24.3183  -17.8974  -15.6112 O   0  0  0  0  0  0  0  0  0  0  0  0
   25.0935  -15.8937  -14.8963 N   0  0  0  0  0  0  0  0  0  0  0  0
   23.8885  -15.2363  -15.2872 C   0  0  0  0  0  0  0  0  0  0  0  0
   23.8255  -15.1565  -16.7651 C   0  0  0  0  0  0  0  0  0  0  0  0
   24.6819  -14.3903  -17.5372 O   0  0  0  0  0  0  0  0  0  0  0  0
   22.9534  -15.8123  -17.3834 O   0  0  0  0  0  0  0  0  0  0  0  0
  1  2  1  0
  3  2  1  0
  4  3  1  0
  5  4  1  0
  5  6  1  1
  7  8  2  0
  7  5  1  0
  9  7  1  0
 10  9  1  0
 11 12  1  0
 11 10  1  0
 12 13  1  0
 13  9  1  0
 14 15  2  0
 13 14  1  6
 16 14  1  0
 17 16  1  0
 18 17  1  0
 19 18  1  0
 20 18  2  0
M  END
$$$$
