MPG.pdb
     RDKit          3D

 20 20  0  0  1  0  0  0  0  0999 V2000
   26.1500  -19.5963   -8.2577 C   0  0  0  0  0  0  0  0  0  0  0  0
   24.9943  -20.9210   -8.5961 S   0  0  0  0  0  0  0  0  0  0  0  0
   24.7267  -21.2331  -10.3285 C   0  0  0  0  0  0  0  0  0  0  0  0
   25.3581  -20.2856  -11.2773 C   0  0  0  0  0  0  0  0  0  0  0  0
   24.5708  -19.9148  -12.4855 C   0  0  2  0  0  0  0  0  0  0  0  0
   23.1806  -20.0835  -12.2590 N   0  0  0  0  0  0  0  0  0  0  0  0
   25.1153  -20.5281  -13.7189 C   0  0  0  0  0  0  0  0  0  0  0  0
   24.3613  -21.4600  -14.1834 O   0  0  0  0  0  0  0  0  0  0  0  0
   26.2924  -20.2180  -14.3914 N   0  0  0  0  0  0  0  0  0  0  0  0
   26.8221  -18.8351  -14.4395 C   0  0  0  0  0  0  0  0  0  0  0  0
   28.3431  -19.0379  -14.4095 C   0  0  0  0  0  0  0  0  0  0  0  0
   28.5323  -20.5606  -14.3670 C   0  0  0  0  0  0  0  0  0  0  0  0
   27.2573  -20.9302  -15.1725 C   0  0  1  0  0  0  0  0  0  0  0  0
   27.1445  -22.3309  -15.4026 C   0  0  0  0  0  0  0  0  0  0  0  0
   27.7731  -23.2356  -14.8654 O   0  0  0  0  0  0  0  0  0  0  0  0
   26.1713  -22.7485  -16.3899 N   0  0  0  0  0  0  0  0  0  0  0  0
   25.9437  -24.1311  -16.6611 C   0  0  0  0  0  0  0  0  0  0  0  0
   25.1182  -24.7178  -15.5799 C   0  0  0  0  0  0  0  0  0  0  0  0
   25.4449  -25.8772  -14.8974 O   0  0  0  0  0  0  0  0  0  0  0  0
   24.0519  -24.1520  -15.2395 O   0  0  0  0  0  0  0  0  0  0  0  0
  1  2  1  0
  3  2  1  0
  4  3  1  0
  5  4  1  0
  5  6  1  1
  7  8  2  0
  7  5  1  0
  9  7  1  0
 10  9  1  0
 11 12  1  0
 11 10  1  0
 12 13  1  0
 13  9  1  0
 14 15  2  0
 13 14  1  1
 16 14  1  0
 17 16  1  0
 18 17  1  0
 19 18  1  0
 20 18  2  0
M  END
$$$$
