MPG.pdb
     RDKit          3D

 20 20  0  0  1  0  0  0  0  0999 V2000
   29.6983  -19.5201   -5.9250 C   0  0  0  0  0  0  0  0  0  0  0  0
   28.1927  -20.2173   -5.2525 S   0  0  0  0  0  0  0  0  0  0  0  0
   26.7336  -19.8686   -6.2115 C   0  0  0  0  0  0  0  0  0  0  0  0
   26.7479  -20.3145   -7.6248 C   0  0  0  0  0  0  0  0  0  0  0  0
   25.5364  -20.0187   -8.4383 C   0  0  2  0  0  0  0  0  0  0  0  0
   24.3816  -20.6121   -7.8667 N   0  0  0  0  0  0  0  0  0  0  0  0
   25.7568  -20.2663   -9.8820 C   0  0  0  0  0  0  0  0  0  0  0  0
   24.6632  -20.4946  -10.5182 O   0  0  0  0  0  0  0  0  0  0  0  0
   26.9574  -20.2764  -10.5838 N   0  0  0  0  0  0  0  0  0  0  0  0
   28.2138  -19.7655   -9.9873 C   0  0  0  0  0  0  0  0  0  0  0  0
   29.2861  -20.6947  -10.5723 C   0  0  0  0  0  0  0  0  0  0  0  0
   28.5127  -21.6558  -11.4855 C   0  0  0  0  0  0  0  0  0  0  0  0
   27.3890  -20.6643  -11.8921 C   0  0  1  0  0  0  0  0  0  0  0  0
   26.4861  -21.2226  -12.8411 C   0  0  0  0  0  0  0  0  0  0  0  0
   26.3119  -22.4056  -13.1097 O   0  0  0  0  0  0  0  0  0  0  0  0
   25.6690  -20.2872  -13.5853 N   0  0  0  0  0  0  0  0  0  0  0  0
   24.7004  -20.7437  -14.5289 C   0  0  0  0  0  0  0  0  0  0  0  0
   23.4204  -21.0121  -13.8331 C   0  0  0  0  0  0  0  0  0  0  0  0
   22.7448  -22.2191  -13.8911 O   0  0  0  0  0  0  0  0  0  0  0  0
   22.8914  -20.1096  -13.1411 O   0  0  0  0  0  0  0  0  0  0  0  0
  1  2  1  0
  3  2  1  0
  4  3  1  0
  5  4  1  0
  5  6  1  1
  7  8  2  0
  7  5  1  0
  9  7  1  0
 10  9  1  0
 11 12  1  0
 11 10  1  0
 12 13  1  0
 13  9  1  0
 14 15  2  0
 13 14  1  1
 16 14  1  0
 17 16  1  0
 18 17  1  0
 19 18  1  0
 20 18  2  0
M  END
$$$$
