MPG.pdb
     RDKit          3D

 20 20  0  0  1  0  0  0  0  0999 V2000
   20.2796  -15.3870  -21.7107 C   0  0  0  0  0  0  0  0  0  0  0  0
   20.6935  -14.0389  -20.6077 S   0  0  0  0  0  0  0  0  0  0  0  0
   20.4229  -14.3949  -18.8843 C   0  0  0  0  0  0  0  0  0  0  0  0
   20.7207  -13.3027  -17.9278 C   0  0  0  0  0  0  0  0  0  0  0  0
   20.3885  -13.5487  -16.4974 C   0  0  2  0  0  0  0  0  0  0  0  0
   19.0960  -14.1184  -16.3653 N   0  0  0  0  0  0  0  0  0  0  0  0
   20.6792  -12.3731  -15.6445 C   0  0  0  0  0  0  0  0  0  0  0  0
   19.6732  -11.5804  -15.5337 O   0  0  0  0  0  0  0  0  0  0  0  0
   21.8619  -12.0544  -14.9859 N   0  0  0  0  0  0  0  0  0  0  0  0
   22.6661  -13.0829  -14.2854 C   0  0  0  0  0  0  0  0  0  0  0  0
   24.1107  -12.6172  -14.5125 C   0  0  0  0  0  0  0  0  0  0  0  0
   23.9792  -11.3218  -15.3254 C   0  0  0  0  0  0  0  0  0  0  0  0
   22.6184  -10.8661  -14.7325 C   0  0  1  0  0  0  0  0  0  0  0  0
   22.2044   -9.5975  -15.2293 C   0  0  0  0  0  0  0  0  0  0  0  0
   22.0606   -9.2564  -16.3976 O   0  0  0  0  0  0  0  0  0  0  0  0
   21.9156   -8.5785  -14.2420 N   0  0  0  0  0  0  0  0  0  0  0  0
   21.4996   -7.2705  -14.6333 C   0  0  0  0  0  0  0  0  0  0  0  0
   20.0210   -7.2251  -14.7133 C   0  0  0  0  0  0  0  0  0  0  0  0
   19.2718   -7.9435  -15.6295 O   0  0  0  0  0  0  0  0  0  0  0  0
   19.3803   -6.5002  -13.9151 O   0  0  0  0  0  0  0  0  0  0  0  0
  1  2  1  0
  3  2  1  0
  4  3  1  0
  5  4  1  0
  5  6  1  6
  7  8  2  0
  7  5  1  0
  9  7  1  0
 10  9  1  0
 11 12  1  0
 11 10  1  0
 12 13  1  0
 13  9  1  0
 14 15  2  0
 13 14  1  6
 16 14  1  0
 17 16  1  0
 18 17  1  0
 19 18  1  0
 20 18  2  0
M  END
$$$$
