MPG.pdb
     RDKit          3D

 20 20  0  0  1  0  0  0  0  0999 V2000
   29.3122  -19.9835   -4.8334 C   0  0  0  0  0  0  0  0  0  0  0  0
   27.8577  -19.2877   -5.6116 S   0  0  0  0  0  0  0  0  0  0  0  0
   27.1787  -20.2878   -6.9188 C   0  0  0  0  0  0  0  0  0  0  0  0
   26.0088  -19.7314   -7.6388 C   0  0  0  0  0  0  0  0  0  0  0  0
   25.4462  -20.5507   -8.7475 C   0  0  2  0  0  0  0  0  0  0  0  0
   25.8479  -21.9065   -8.6334 N   0  0  0  0  0  0  0  0  0  0  0  0
   25.6451  -19.9151  -10.0705 C   0  0  0  0  0  0  0  0  0  0  0  0
   25.0020  -18.8083  -10.1901 O   0  0  0  0  0  0  0  0  0  0  0  0
   26.4133  -20.3651  -11.1388 N   0  0  0  0  0  0  0  0  0  0  0  0
   27.8690  -20.6071  -11.0054 C   0  0  0  0  0  0  0  0  0  0  0  0
   28.1117  -21.8153  -11.9201 C   0  0  0  0  0  0  0  0  0  0  0  0
   26.7338  -22.1361  -12.5156 C   0  0  0  0  0  0  0  0  0  0  0  0
   26.1870  -20.6828  -12.5159 C   0  0  1  0  0  0  0  0  0  0  0  0
   24.8924  -20.5873  -13.1011 C   0  0  0  0  0  0  0  0  0  0  0  0
   24.5377  -19.8751  -14.0332 O   0  0  0  0  0  0  0  0  0  0  0  0
   23.8614  -21.4304  -12.5329 N   0  0  0  0  0  0  0  0  0  0  0  0
   22.5729  -21.5282  -13.1389 C   0  0  0  0  0  0  0  0  0  0  0  0
   21.5895  -20.7652  -12.3356 C   0  0  0  0  0  0  0  0  0  0  0  0
   21.8669  -19.5623  -11.7088 O   0  0  0  0  0  0  0  0  0  0  0  0
   20.4254  -21.2109  -12.1965 O   0  0  0  0  0  0  0  0  0  0  0  0
  1  2  1  0
  3  2  1  0
  4  3  1  0
  5  4  1  0
  5  6  1  6
  7  8  2  0
  7  5  1  0
  9  7  1  0
 10  9  1  0
 11 12  1  0
 11 10  1  0
 12 13  1  0
 13  9  1  0
 14 15  2  0
 13 14  1  1
 16 14  1  0
 17 16  1  0
 18 17  1  0
 19 18  1  0
 20 18  2  0
M  END
$$$$
