CWL.pdb
     RDKit          3D

 29 30  0  0  1  0  0  0  0  0999 V2000
   26.1413  -17.8658  -19.0449 N   0  0  0  0  0  0  0  0  0  0  0  0
   25.9173  -17.2472  -17.7746 C   0  0  1  0  0  0  0  0  0  0  0  0
   24.6386  -16.4386  -17.7144 C   0  0  0  0  0  0  0  0  0  0  0  0
   23.1738  -17.4887  -17.6790 S   0  0  0  0  0  0  0  0  0  0  0  0
   25.8287  -18.2884  -16.7264 C   0  0  0  0  0  0  0  0  0  0  0  0
   25.3458  -19.4389  -16.9746 O   0  0  0  0  0  0  0  0  0  0  0  0
   26.2854  -18.0131  -15.4212 N   0  0  0  0  0  0  0  0  0  0  0  0
   26.2558  -19.0512  -14.4262 C   0  0  1  0  0  0  0  0  0  0  0  0
   27.1089  -18.7526  -13.2216 C   0  0  0  0  0  0  0  0  0  0  0  0
   27.2859  -19.8415  -12.2793 C   0  0  0  0  0  0  0  0  0  0  0  0
   28.0277  -20.9802  -12.5542 C   0  0  0  0  0  0  0  0  0  0  0  0
   27.9907  -21.7419  -11.4534 N   0  0  0  0  0  0  0  0  0  0  0  0
   27.2587  -21.1462  -10.4825 C   0  0  0  0  0  0  0  0  0  0  0  0
   26.9101  -21.4940   -9.1980 C   0  0  0  0  0  0  0  0  0  0  0  0
   26.1217  -20.6563   -8.4320 C   0  0  0  0  0  0  0  0  0  0  0  0
   25.6595  -19.4644   -8.9062 C   0  0  0  0  0  0  0  0  0  0  0  0
   26.0137  -19.1149  -10.2056 C   0  0  0  0  0  0  0  0  0  0  0  0
   26.8070  -19.9383  -10.9997 C   0  0  0  0  0  0  0  0  0  0  0  0
   24.8714  -19.2651  -13.9376 C   0  0  0  0  0  0  0  0  0  0  0  0
   24.1503  -18.2545  -13.7482 O   0  0  0  0  0  0  0  0  0  0  0  0
   20.3622  -20.0721  -14.9280 C   0  0  0  0  0  0  0  0  0  0  0  0
   21.5420  -20.9385  -15.2640 C   0  0  2  0  0  0  0  0  0  0  0  0
   21.0359  -22.1055  -16.1444 C   0  0  0  0  0  0  0  0  0  0  0  0
   22.2834  -21.5480  -14.1571 C   0  0  0  0  0  0  0  0  0  0  0  0
   22.9554  -20.7267  -13.1287 C   0  0  2  0  0  0  0  0  0  0  0  0
   24.3363  -20.5337  -13.6800 N   0  0  0  0  0  0  0  0  0  0  0  0
   23.1649  -21.2970  -11.8019 C   0  0  0  0  0  0  0  0  0  0  0  0
   22.2864  -21.0240  -10.7645 O   0  0  0  0  0  0  0  0  0  0  0  0
   24.1229  -22.0486  -11.5180 O   0  0  0  0  0  0  0  0  0  0  0  0
  2  1  1  6
  2  3  1  0
  3  4  1  0
  5  6  2  0
  5  2  1  0
  7  5  1  0
  8  7  1  0
  9 10  1  0
  8  9  1  1
 10 11  2  0
 11 12  1  0
 13 12  1  0
 14 13  2  0
 15 14  1  0
 16 17  1  0
 16 15  2  0
 17 18  2  0
 18 10  1  0
 18 13  1  0
 19  8  1  0
 19 20  2  0
 22 21  1  1
 23 22  1  0
 24 22  1  0
 25 24  1  6
 25 26  1  0
 26 19  1  0
 27 25  1  0
 28 27  1  0
 29 27  2  0
M  END
$$$$
