CWL.pdb
     RDKit          3D

 29 30  0  0  1  0  0  0  0  0999 V2000
   28.9832  -20.5953  -14.7266 N   0  0  0  0  0  0  0  0  0  0  0  0
   28.2635  -19.6987  -13.8751 C   0  0  1  0  0  0  0  0  0  0  0  0
   27.4980  -18.6331  -14.6306 C   0  0  0  0  0  0  0  0  0  0  0  0
   28.5943  -17.4154  -15.3821 S   0  0  0  0  0  0  0  0  0  0  0  0
   27.2805  -20.4607  -13.0728 C   0  0  0  0  0  0  0  0  0  0  0  0
   26.7997  -21.5633  -13.4870 O   0  0  0  0  0  0  0  0  0  0  0  0
   26.8593  -19.9661  -11.8215 N   0  0  0  0  0  0  0  0  0  0  0  0
   25.9222  -20.7254  -11.0381 C   0  0  1  0  0  0  0  0  0  0  0  0
   25.9488  -20.3825   -9.5719 C   0  0  0  0  0  0  0  0  0  0  0  0
   27.1639  -20.7270   -8.8580 C   0  0  0  0  0  0  0  0  0  0  0  0
   28.1655  -21.5249   -9.3898 C   0  0  0  0  0  0  0  0  0  0  0  0
   29.1319  -21.6010   -8.4659 N   0  0  0  0  0  0  0  0  0  0  0  0
   28.7984  -20.8893   -7.3634 C   0  0  0  0  0  0  0  0  0  0  0  0
   29.4154  -20.6479   -6.1578 C   0  0  0  0  0  0  0  0  0  0  0  0
   28.8031  -19.8631   -5.1990 C   0  0  0  0  0  0  0  0  0  0  0  0
   27.5777  -19.3001   -5.3999 C   0  0  0  0  0  0  0  0  0  0  0  0
   26.9559  -19.5455   -6.6203 C   0  0  0  0  0  0  0  0  0  0  0  0
   27.5490  -20.3311   -7.6045 C   0  0  0  0  0  0  0  0  0  0  0  0
   24.5365  -20.4936  -11.5148 C   0  0  0  0  0  0  0  0  0  0  0  0
   24.1902  -19.3135  -11.7693 O   0  0  0  0  0  0  0  0  0  0  0  0
   20.1524  -21.9574  -14.7092 C   0  0  0  0  0  0  0  0  0  0  0  0
   21.5405  -22.4919  -14.5020 C   0  0  2  0  0  0  0  0  0  0  0  0
   21.5688  -23.9483  -15.0230 C   0  0  0  0  0  0  0  0  0  0  0  0
   22.0633  -22.5327  -13.1340 C   0  0  0  0  0  0  0  0  0  0  0  0
   22.2741  -21.2997  -12.3474 C   0  0  2  0  0  0  0  0  0  0  0  0
   23.6041  -21.5236  -11.6925 N   0  0  0  0  0  0  0  0  0  0  0  0
   21.3648  -21.0070  -11.2442 C   0  0  0  0  0  0  0  0  0  0  0  0
   20.2398  -20.2206  -11.4403 O   0  0  0  0  0  0  0  0  0  0  0  0
   21.5331  -21.4328  -10.0807 O   0  0  0  0  0  0  0  0  0  0  0  0
  2  1  1  6
  2  3  1  0
  3  4  1  0
  5  6  2  0
  5  2  1  0
  7  5  1  0
  8  7  1  0
  9 10  1  0
  8  9  1  1
 10 11  2  0
 11 12  1  0
 13 12  1  0
 14 13  2  0
 15 14  1  0
 16 17  1  0
 16 15  2  0
 17 18  2  0
 18 10  1  0
 18 13  1  0
 19  8  1  0
 19 20  2  0
 22 21  1  1
 23 22  1  0
 24 22  1  0
 25 24  1  1
 25 26  1  0
 26 19  1  0
 27 25  1  0
 28 27  1  0
 29 27  2  0
M  END
$$$$
