CWL.pdb
     RDKit          3D

 29 30  0  0  1  0  0  0  0  0999 V2000
   20.2870  -13.0025  -17.5820 N   0  0  0  0  0  0  0  0  0  0  0  0
   20.0499  -12.4493  -16.2841 C   0  0  1  0  0  0  0  0  0  0  0  0
   21.2922  -12.3806  -15.4215 C   0  0  0  0  0  0  0  0  0  0  0  0
   21.9064  -14.0185  -14.9861 S   0  0  0  0  0  0  0  0  0  0  0  0
   19.5334  -11.0691  -16.4218 C   0  0  0  0  0  0  0  0  0  0  0  0
   20.0440  -10.2503  -17.2507 O   0  0  0  0  0  0  0  0  0  0  0  0
   18.4532  -10.6395  -15.6239 N   0  0  0  0  0  0  0  0  0  0  0  0
   17.9200   -9.3161  -15.8057 C   0  0  1  0  0  0  0  0  0  0  0  0
   16.4489   -9.2145  -15.4999 C   0  0  0  0  0  0  0  0  0  0  0  0
   15.5700  -10.0331  -16.3137 C   0  0  0  0  0  0  0  0  0  0  0  0
   15.9166  -10.5204  -17.5646 C   0  0  0  0  0  0  0  0  0  0  0  0
   14.8796  -11.2486  -17.9978 N   0  0  0  0  0  0  0  0  0  0  0  0
   13.8809  -11.2521  -17.0835 C   0  0  0  0  0  0  0  0  0  0  0  0
   12.6307  -11.8238  -17.0348 C   0  0  0  0  0  0  0  0  0  0  0  0
   11.8133  -11.6351  -15.9364 C   0  0  0  0  0  0  0  0  0  0  0  0
   12.2018  -10.8849  -14.8661 C   0  0  0  0  0  0  0  0  0  0  0  0
   13.4669  -10.3079  -14.9179 C   0  0  0  0  0  0  0  0  0  0  0  0
   14.3117  -10.4815  -16.0106 C   0  0  0  0  0  0  0  0  0  0  0  0
   18.6166   -8.3481  -14.9232 C   0  0  0  0  0  0  0  0  0  0  0  0
   19.1089   -8.7769  -13.8504 O   0  0  0  0  0  0  0  0  0  0  0  0
   22.0206   -4.6504  -13.4436 C   0  0  0  0  0  0  0  0  0  0  0  0
   22.1835   -5.9886  -14.1056 C   0  0  2  0  0  0  0  0  0  0  0  0
   23.1709   -5.8158  -15.2839 C   0  0  0  0  0  0  0  0  0  0  0  0
   20.9887   -6.6307  -14.6590 C   0  0  0  0  0  0  0  0  0  0  0  0
   19.6381   -6.0699  -14.4464 C   0  0  2  0  0  0  0  0  0  0  0  0
   18.7489   -6.9879  -15.2302 N   0  0  0  0  0  0  0  0  0  0  0  0
   19.3417   -4.7384  -14.9649 C   0  0  0  0  0  0  0  0  0  0  0  0
   19.0962   -4.5401  -16.3150 O   0  0  0  0  0  0  0  0  0  0  0  0
   19.2906   -3.7151  -14.2482 O   0  0  0  0  0  0  0  0  0  0  0  0
  2  1  1  6
  2  3  1  0
  3  4  1  0
  5  6  2  0
  5  2  1  0
  7  5  1  0
  8  7  1  0
  9 10  1  0
  8  9  1  1
 10 11  2  0
 11 12  1  0
 13 12  1  0
 14 13  2  0
 15 14  1  0
 16 17  1  0
 16 15  2  0
 17 18  2  0
 18 10  1  0
 18 13  1  0
 19  8  1  0
 19 20  2  0
 22 21  1  6
 23 22  1  0
 24 22  1  0
 25 24  1  6
 25 26  1  0
 26 19  1  0
 27 25  1  0
 28 27  1  0
 29 27  2  0
M  END
$$$$
