CWL.pdb
     RDKit          3D

 29 30  0  0  1  0  0  0  0  0999 V2000
   28.7783  -21.0627  -14.6917 N   0  0  0  0  0  0  0  0  0  0  0  0
   28.1858  -20.0436  -13.8810 C   0  0  1  0  0  0  0  0  0  0  0  0
   27.5271  -18.9415  -14.6833 C   0  0  0  0  0  0  0  0  0  0  0  0
   27.3286  -17.4294  -13.7221 S   0  0  0  0  0  0  0  0  0  0  0  0
   27.1431  -20.6423  -13.0179 C   0  0  0  0  0  0  0  0  0  0  0  0
   26.4247  -21.6113  -13.4219 O   0  0  0  0  0  0  0  0  0  0  0  0
   26.9310  -20.1381  -11.7184 N   0  0  0  0  0  0  0  0  0  0  0  0
   25.9330  -20.7428  -10.8776 C   0  0  1  0  0  0  0  0  0  0  0  0
   26.0667  -20.3706   -9.4245 C   0  0  0  0  0  0  0  0  0  0  0  0
   27.3387  -20.6826   -8.8003 C   0  0  0  0  0  0  0  0  0  0  0  0
   28.3141  -21.4663   -9.3977 C   0  0  0  0  0  0  0  0  0  0  0  0
   29.3482  -21.5125   -8.5482 N   0  0  0  0  0  0  0  0  0  0  0  0
   29.0833  -20.7950   -7.4309 C   0  0  0  0  0  0  0  0  0  0  0  0
   29.7836  -20.5276   -6.2774 C   0  0  0  0  0  0  0  0  0  0  0  0
   29.2284  -19.7442   -5.2833 C   0  0  0  0  0  0  0  0  0  0  0  0
   27.9799  -19.2081   -5.3973 C   0  0  0  0  0  0  0  0  0  0  0  0
   27.2739  -19.4800   -6.5651 C   0  0  0  0  0  0  0  0  0  0  0  0
   27.8081  -20.2648   -7.5832 C   0  0  0  0  0  0  0  0  0  0  0  0
   24.5729  -20.3360  -11.3084 C   0  0  0  0  0  0  0  0  0  0  0  0
   24.3483  -19.1115  -11.4734 O   0  0  0  0  0  0  0  0  0  0  0  0
   20.0920  -21.5999  -14.4927 C   0  0  0  0  0  0  0  0  0  0  0  0
   21.4623  -21.0061  -14.6516 C   0  0  2  0  0  0  0  0  0  0  0  0
   22.0567  -21.5374  -15.9773 C   0  0  0  0  0  0  0  0  0  0  0  0
   22.4562  -21.2854  -13.6122 C   0  0  0  0  0  0  0  0  0  0  0  0
   22.2550  -20.8580  -12.2120 C   0  0  2  0  0  0  0  0  0  0  0  0
   23.5357  -21.2491  -11.5377 N   0  0  0  0  0  0  0  0  0  0  0  0
   21.2112  -21.5051  -11.4239 C   0  0  0  0  0  0  0  0  0  0  0  0
   21.4084  -22.7663  -10.8826 O   0  0  0  0  0  0  0  0  0  0  0  0
   20.0998  -20.9821  -11.1899 O   0  0  0  0  0  0  0  0  0  0  0  0
  2  1  1  6
  2  3  1  0
  3  4  1  0
  5  6  2  0
  5  2  1  0
  7  5  1  0
  8  7  1  0
  9 10  1  0
  8  9  1  1
 10 11  2  0
 11 12  1  0
 13 12  1  0
 14 13  2  0
 15 14  1  0
 16 17  1  0
 16 15  2  0
 17 18  2  0
 18 10  1  0
 18 13  1  0
 19  8  1  0
 19 20  2  0
 22 21  1  1
 23 22  1  0
 24 22  1  0
 25 24  1  6
 25 26  1  0
 26 19  1  0
 27 25  1  0
 28 27  1  0
 29 27  2  0
M  END
$$$$
