CWL.pdb
     RDKit          3D

 29 30  0  0  1  0  0  0  0  0999 V2000
   31.0796  -21.7387  -10.9197 N   0  0  0  0  0  0  0  0  0  0  0  0
   30.0890  -20.7612  -11.2509 C   0  0  1  0  0  0  0  0  0  0  0  0
   29.9015  -20.5733  -12.7415 C   0  0  0  0  0  0  0  0  0  0  0  0
   28.7128  -19.2710  -13.1162 S   0  0  0  0  0  0  0  0  0  0  0  0
   28.7818  -21.1729  -10.6919 C   0  0  0  0  0  0  0  0  0  0  0  0
   28.4821  -22.4002  -10.5426 O   0  0  0  0  0  0  0  0  0  0  0  0
   27.8396  -20.1950  -10.3125 N   0  0  0  0  0  0  0  0  0  0  0  0
   26.5439  -20.6042   -9.8411 C   0  0  1  0  0  0  0  0  0  0  0  0
   26.0221  -19.7584   -8.7097 C   0  0  0  0  0  0  0  0  0  0  0  0
   26.9621  -19.4693   -7.6430 C   0  0  0  0  0  0  0  0  0  0  0  0
   27.6864  -18.2901   -7.5581 C   0  0  0  0  0  0  0  0  0  0  0  0
   28.4205  -18.3657   -6.4407 N   0  0  0  0  0  0  0  0  0  0  0  0
   28.2025  -19.5398   -5.8024 C   0  0  0  0  0  0  0  0  0  0  0  0
   28.6925  -20.1067   -4.6487 C   0  0  0  0  0  0  0  0  0  0  0  0
   28.2728  -21.3611   -4.2483 C   0  0  0  0  0  0  0  0  0  0  0  0
   27.3675  -22.0845   -4.9668 C   0  0  0  0  0  0  0  0  0  0  0  0
   26.8733  -21.5087   -6.1331 C   0  0  0  0  0  0  0  0  0  0  0  0
   27.2773  -20.2469   -6.5603 C   0  0  0  0  0  0  0  0  0  0  0  0
   25.5449  -20.5325  -10.9356 C   0  0  0  0  0  0  0  0  0  0  0  0
   25.5844  -19.5413  -11.7059 O   0  0  0  0  0  0  0  0  0  0  0  0
   21.7032  -23.3858  -14.0791 C   0  0  0  0  0  0  0  0  0  0  0  0
   23.2038  -23.3418  -14.1234 C   0  0  2  0  0  0  0  0  0  0  0  0
   23.7104  -24.7757  -14.4069 C   0  0  0  0  0  0  0  0  0  0  0  0
   23.9127  -22.8826  -12.9264 C   0  0  0  0  0  0  0  0  0  0  0  0
   23.6983  -21.5310  -12.3689 C   0  0  2  0  0  0  0  0  0  0  0  0
   24.5671  -21.5128  -11.1471 N   0  0  0  0  0  0  0  0  0  0  0  0
   22.3695  -21.1757  -11.8814 C   0  0  0  0  0  0  0  0  0  0  0  0
   21.9724  -21.5075  -10.5951 O   0  0  0  0  0  0  0  0  0  0  0  0
   21.5228  -20.5658  -12.5703 O   0  0  0  0  0  0  0  0  0  0  0  0
  2  1  1  6
  2  3  1  0
  3  4  1  0
  5  6  2  0
  5  2  1  0
  7  5  1  0
  8  7  1  0
  9 10  1  0
  8  9  1  1
 10 11  2  0
 11 12  1  0
 13 12  1  0
 14 13  2  0
 15 14  1  0
 16 17  1  0
 16 15  2  0
 17 18  2  0
 18 10  1  0
 18 13  1  0
 19  8  1  0
 19 20  2  0
 22 21  1  1
 23 22  1  0
 24 22  1  0
 25 24  1  1
 25 26  1  0
 26 19  1  0
 27 25  1  0
 28 27  1  0
 29 27  2  0
M  END
$$$$
