CWL.pdb
     RDKit          3D

 29 30  0  0  1  0  0  0  0  0999 V2000
   27.8991  -19.7368  -16.3749 N   0  0  0  0  0  0  0  0  0  0  0  0
   27.6598  -20.8487  -15.5072 C   0  0  1  0  0  0  0  0  0  0  0  0
   28.9262  -21.5436  -15.0537 C   0  0  0  0  0  0  0  0  0  0  0  0
   29.8155  -22.2968  -16.4290 S   0  0  0  0  0  0  0  0  0  0  0  0
   26.9538  -20.3845  -14.2919 C   0  0  0  0  0  0  0  0  0  0  0  0
   26.9894  -19.1654  -13.9300 O   0  0  0  0  0  0  0  0  0  0  0  0
   26.2227  -21.3018  -13.5096 N   0  0  0  0  0  0  0  0  0  0  0  0
   25.4229  -20.8206  -12.4153 C   0  0  1  0  0  0  0  0  0  0  0  0
   23.9572  -21.1350  -12.5595 C   0  0  0  0  0  0  0  0  0  0  0  0
   23.2138  -20.3011  -13.4852 C   0  0  0  0  0  0  0  0  0  0  0  0
   23.4596  -20.2624  -14.8492 C   0  0  0  0  0  0  0  0  0  0  0  0
   22.5711  -19.4121  -15.3791 N   0  0  0  0  0  0  0  0  0  0  0  0
   21.7647  -18.9011  -14.4189 C   0  0  0  0  0  0  0  0  0  0  0  0
   20.7202  -18.0059  -14.4235 C   0  0  0  0  0  0  0  0  0  0  0  0
   20.0798  -17.6663  -13.2468 C   0  0  0  0  0  0  0  0  0  0  0  0
   20.4476  -18.1943  -12.0447 C   0  0  0  0  0  0  0  0  0  0  0  0
   21.5042  -19.0996  -12.0428 C   0  0  0  0  0  0  0  0  0  0  0  0
   22.1670  -19.4608  -13.2125 C   0  0  0  0  0  0  0  0  0  0  0  0
   25.8740  -21.4223  -11.1364 C   0  0  0  0  0  0  0  0  0  0  0  0
   26.1421  -22.6491  -11.1242 O   0  0  0  0  0  0  0  0  0  0  0  0
   26.9007  -18.9038   -6.6004 C   0  0  0  0  0  0  0  0  0  0  0  0
   27.8424  -20.0094   -6.9832 C   0  0  2  0  0  0  0  0  0  0  0  0
   29.2775  -19.4317   -6.9754 C   0  0  0  0  0  0  0  0  0  0  0  0
   27.6602  -20.6445   -8.2907 C   0  0  0  0  0  0  0  0  0  0  0  0
   26.4012  -21.3289   -8.6515 C   0  0  2  0  0  0  0  0  0  0  0  0
   26.0134  -20.6894   -9.9510 N   0  0  0  0  0  0  0  0  0  0  0  0
   25.2353  -21.1525   -7.7918 C   0  0  0  0  0  0  0  0  0  0  0  0
   25.1176  -21.8540   -6.6016 O   0  0  0  0  0  0  0  0  0  0  0  0
   24.2902  -20.3796   -8.0617 O   0  0  0  0  0  0  0  0  0  0  0  0
  2  1  1  6
  2  3  1  0
  3  4  1  0
  5  6  2  0
  5  2  1  0
  7  5  1  0
  8  7  1  0
  9 10  1  0
  8  9  1  6
 10 11  2  0
 11 12  1  0
 13 12  1  0
 14 13  2  0
 15 14  1  0
 16 17  1  0
 16 15  2  0
 17 18  2  0
 18 10  1  0
 18 13  1  0
 19  8  1  0
 19 20  2  0
 22 21  1  6
 23 22  1  0
 24 22  1  0
 25 24  1  1
 25 26  1  0
 26 19  1  0
 27 25  1  0
 28 27  1  0
 29 27  2  0
M  END
$$$$
