CWL.pdb
     RDKit          3D

 29 30  0  0  1  0  0  0  0  0999 V2000
   28.7254  -25.4469  -16.9789 N   0  0  0  0  0  0  0  0  0  0  0  0
   27.6431  -24.6115  -17.4000 C   0  0  1  0  0  0  0  0  0  0  0  0
   26.2944  -25.2971  -17.3431 C   0  0  0  0  0  0  0  0  0  0  0  0
   26.2318  -26.7581  -18.3973 S   0  0  0  0  0  0  0  0  0  0  0  0
   27.5681  -23.4206  -16.5243 C   0  0  0  0  0  0  0  0  0  0  0  0
   28.0086  -23.4468  -15.3312 O   0  0  0  0  0  0  0  0  0  0  0  0
   26.9993  -22.2253  -17.0098 N   0  0  0  0  0  0  0  0  0  0  0  0
   27.0131  -21.0474  -16.1846 C   0  0  1  0  0  0  0  0  0  0  0  0
   26.6734  -19.7858  -16.9335 C   0  0  0  0  0  0  0  0  0  0  0  0
   26.5692  -18.5786  -16.1357 C   0  0  0  0  0  0  0  0  0  0  0  0
   27.5593  -18.1463  -15.2665 C   0  0  0  0  0  0  0  0  0  0  0  0
   27.1302  -16.9961  -14.7315 N   0  0  0  0  0  0  0  0  0  0  0  0
   25.9091  -16.6682  -15.2159 C   0  0  0  0  0  0  0  0  0  0  0  0
   25.0428  -15.6220  -14.9976 C   0  0  0  0  0  0  0  0  0  0  0  0
   23.8282  -15.5659  -15.6546 C   0  0  0  0  0  0  0  0  0  0  0  0
   23.4375  -16.5299  -16.5361 C   0  0  0  0  0  0  0  0  0  0  0  0
   24.3156  -17.5868  -16.7553 C   0  0  0  0  0  0  0  0  0  0  0  0
   25.5455  -17.6690  -16.1085 C   0  0  0  0  0  0  0  0  0  0  0  0
   26.0327  -21.1750  -15.0784 C   0  0  0  0  0  0  0  0  0  0  0  0
   24.9768  -21.8185  -15.2977 O   0  0  0  0  0  0  0  0  0  0  0  0
   24.4238  -20.0726   -9.7276 C   0  0  0  0  0  0  0  0  0  0  0  0
   25.6235  -20.8869  -10.1193 C   0  0  2  0  0  0  0  0  0  0  0  0
   26.7761  -20.5251   -9.1530 C   0  0  0  0  0  0  0  0  0  0  0  0
   26.1534  -20.7202  -11.4748 C   0  0  0  0  0  0  0  0  0  0  0  0
   25.2920  -20.8617  -12.6671 C   0  0  2  0  0  0  0  0  0  0  0  0
   26.2302  -20.6144  -13.8101 N   0  0  0  0  0  0  0  0  0  0  0  0
   24.2078  -19.9056  -12.8669 C   0  0  0  0  0  0  0  0  0  0  0  0
   22.9043  -20.2269  -12.5202 O   0  0  0  0  0  0  0  0  0  0  0  0
   24.3751  -18.7648  -13.3504 O   0  0  0  0  0  0  0  0  0  0  0  0
  2  1  1  1
  2  3  1  0
  3  4  1  0
  5  6  2  0
  5  2  1  0
  7  5  1  0
  8  7  1  0
  9 10  1  0
  8  9  1  6
 10 11  2  0
 11 12  1  0
 13 12  1  0
 14 13  2  0
 15 14  1  0
 16 17  1  0
 16 15  2  0
 17 18  2  0
 18 10  1  0
 18 13  1  0
 19  8  1  0
 19 20  2  0
 22 21  1  1
 23 22  1  0
 24 22  1  0
 25 24  1  1
 25 26  1  0
 26 19  1  0
 27 25  1  0
 28 27  1  0
 29 27  2  0
M  END
$$$$
