SGI.pdb
     RDKit          3D

 19 18  0  0  1  0  0  0  0  0999 V2000
   25.7574  -19.8055  -17.7544 O   0  0  0  0  0  0  0  0  0  0  0  0
   27.1341  -20.0115  -17.9054 C   0  0  0  0  0  0  0  0  0  0  0  0
   27.6286  -20.8888  -16.7817 C   0  0  2  0  0  0  0  0  0  0  0  0
   26.8223  -22.0798  -16.7281 N   0  0  0  0  0  0  0  0  0  0  0  0
   27.5669  -20.1450  -15.4722 C   0  0  0  0  0  0  0  0  0  0  0  0
   28.5811  -19.5761  -15.0364 O   0  0  0  0  0  0  0  0  0  0  0  0
   26.3573  -20.0877  -14.7289 N   0  0  0  0  0  0  0  0  0  0  0  0
   26.1843  -19.3412  -13.5264 C   0  0  0  0  0  0  0  0  0  0  0  0
   26.2512  -20.1644  -12.3032 C   0  0  0  0  0  0  0  0  0  0  0  0
   26.2549  -21.4132  -12.4269 O   0  0  0  0  0  0  0  0  0  0  0  0
   28.0398  -19.8012   -6.3427 C   0  0  0  0  0  0  0  0  0  0  0  0
   27.2806  -20.5181   -7.4279 C   0  0  0  0  0  0  0  0  0  0  0  0
   27.0662  -19.7440   -8.6728 C   0  0  2  0  0  0  0  0  0  0  0  0
   26.3777  -18.4146   -8.3287 C   0  0  0  0  0  0  0  0  0  0  0  0
   26.3511  -20.4358   -9.7830 C   0  0  2  0  0  0  0  0  0  0  0  0
   26.3117  -19.6324  -10.9916 N   0  0  0  0  0  0  0  0  0  0  0  0
   25.0119  -20.9591   -9.4441 C   0  0  0  0  0  0  0  0  0  0  0  0
   24.8219  -22.2301   -8.9205 O   0  0  0  0  0  0  0  0  0  0  0  0
   23.9387  -20.2835   -9.6090 O   0  0  0  0  0  0  0  0  0  0  0  0
  2  1  1  0
  3  2  1  0
  3  4  1  1
  5  6  2  0
  5  3  1  0
  7  5  1  0
  8  7  1  0
  9 10  2  0
  9  8  1  0
 11 12  1  0
 12 13  1  0
 13 14  1  1
 15 16  1  6
 15 13  1  0
 16  9  1  0
 17 15  1  0
 18 17  1  0
 19 17  2  0
M  END
$$$$
