SGI.pdb
     RDKit          3D

 19 18  0  0  1  0  0  0  0  0999 V2000
   19.5343  -14.7882  -17.7931 O   0  0  0  0  0  0  0  0  0  0  0  0
   19.9210  -13.6073  -17.1477 C   0  0  0  0  0  0  0  0  0  0  0  0
   18.6969  -12.9293  -16.5830 C   0  0  2  0  0  0  0  0  0  0  0  0
   17.8462  -12.5190  -17.6689 N   0  0  0  0  0  0  0  0  0  0  0  0
   19.0971  -11.7434  -15.7431 C   0  0  0  0  0  0  0  0  0  0  0  0
   19.7180  -11.9191  -14.6821 O   0  0  0  0  0  0  0  0  0  0  0  0
   18.7706  -10.4229  -16.1536 N   0  0  0  0  0  0  0  0  0  0  0  0
   19.1550   -9.2423  -15.4526 C   0  0  0  0  0  0  0  0  0  0  0  0
   18.7803   -7.9937  -16.1447 C   0  0  0  0  0  0  0  0  0  0  0  0
   19.1307   -7.8494  -17.3410 O   0  0  0  0  0  0  0  0  0  0  0  0
   13.9767   -6.7400  -16.2755 C   0  0  0  0  0  0  0  0  0  0  0  0
   15.3628   -6.5792  -16.8421 C   0  0  0  0  0  0  0  0  0  0  0  0
   16.1855   -5.5157  -16.2200 C   0  0  2  0  0  0  0  0  0  0  0  0
   15.8223   -4.1626  -16.8500 C   0  0  0  0  0  0  0  0  0  0  0  0
   17.6625   -5.7177  -16.2207 C   0  0  2  0  0  0  0  0  0  0  0  0
   18.0466   -6.9423  -15.5420 N   0  0  0  0  0  0  0  0  0  0  0  0
   18.4586   -4.5687  -15.7433 C   0  0  0  0  0  0  0  0  0  0  0  0
   19.0355   -4.5379  -14.4816 O   0  0  0  0  0  0  0  0  0  0  0  0
   18.6710   -3.5264  -16.4532 O   0  0  0  0  0  0  0  0  0  0  0  0
  2  1  1  0
  3  2  1  0
  3  4  1  6
  5  6  2  0
  5  3  1  0
  7  5  1  0
  8  7  1  0
  9 10  2  0
  9  8  1  0
 11 12  1  0
 12 13  1  0
 13 14  1  6
 15 16  1  1
 15 13  1  0
 16  9  1  0
 17 15  1  0
 18 17  1  0
 19 17  2  0
M  END
$$$$
