SGI.pdb
     RDKit          3D

 19 18  0  0  1  0  0  0  0  0999 V2000
   25.5806  -20.9458  -17.5464 O   0  0  0  0  0  0  0  0  0  0  0  0
   26.3472  -19.8177  -17.8631 C   0  0  0  0  0  0  0  0  0  0  0  0
   27.7847  -20.0745  -17.4829 C   0  0  2  0  0  0  0  0  0  0  0  0
   28.2143  -21.3098  -18.0838 N   0  0  0  0  0  0  0  0  0  0  0  0
   27.9259  -20.1347  -15.9835 C   0  0  0  0  0  0  0  0  0  0  0  0
   28.8342  -20.8120  -15.4752 O   0  0  0  0  0  0  0  0  0  0  0  0
   27.0284  -19.4227  -15.1430 N   0  0  0  0  0  0  0  0  0  0  0  0
   27.1973  -19.2609  -13.7365 C   0  0  0  0  0  0  0  0  0  0  0  0
   26.2724  -20.0813  -12.9304 C   0  0  0  0  0  0  0  0  0  0  0  0
   25.5324  -20.9012  -13.5261 O   0  0  0  0  0  0  0  0  0  0  0  0
   26.9444  -19.3921   -7.6166 C   0  0  0  0  0  0  0  0  0  0  0  0
   26.8078  -20.3249   -8.7910 C   0  0  0  0  0  0  0  0  0  0  0  0
   25.4224  -20.5569   -9.2621 C   0  0  2  0  0  0  0  0  0  0  0  0
   24.7989  -21.7036   -8.4520 C   0  0  0  0  0  0  0  0  0  0  0  0
   25.2354  -20.7819  -10.7238 C   0  0  2  0  0  0  0  0  0  0  0  0
   26.1658  -20.0021  -11.5199 N   0  0  0  0  0  0  0  0  0  0  0  0
   23.8509  -20.6289  -11.2156 C   0  0  0  0  0  0  0  0  0  0  0  0
   23.0078  -21.7138  -11.4104 O   0  0  0  0  0  0  0  0  0  0  0  0
   23.3338  -19.4935  -11.4965 O   0  0  0  0  0  0  0  0  0  0  0  0
  2  1  1  0
  3  2  1  0
  3  4  1  6
  5  6  2  0
  5  3  1  0
  7  5  1  0
  8  7  1  0
  9 10  2  0
  9  8  1  0
 11 12  1  0
 12 13  1  0
 13 14  1  1
 15 16  1  6
 15 13  1  0
 16  9  1  0
 17 15  1  0
 18 17  1  0
 19 17  2  0
M  END
$$$$
