SGI.pdb
     RDKit          3D

 19 18  0  0  1  0  0  0  0  0999 V2000
   26.1787  -18.5554  -18.9274 O   0  0  0  0  0  0  0  0  0  0  0  0
   26.9756  -18.7304  -17.7894 C   0  0  0  0  0  0  0  0  0  0  0  0
   26.1511  -19.3766  -16.7034 C   0  0  2  0  0  0  0  0  0  0  0  0
   24.9489  -18.6095  -16.5094 N   0  0  0  0  0  0  0  0  0  0  0  0
   26.9434  -19.4570  -15.4237 C   0  0  0  0  0  0  0  0  0  0  0  0
   27.9747  -20.1472  -15.3779 O   0  0  0  0  0  0  0  0  0  0  0  0
   26.5217  -18.7494  -14.2659 N   0  0  0  0  0  0  0  0  0  0  0  0
   27.1585  -18.8336  -12.9929 C   0  0  0  0  0  0  0  0  0  0  0  0
   26.5567  -19.8382  -12.0947 C   0  0  0  0  0  0  0  0  0  0  0  0
   26.3596  -20.9937  -12.5429 O   0  0  0  0  0  0  0  0  0  0  0  0
   27.5936  -19.3193   -6.8111 C   0  0  0  0  0  0  0  0  0  0  0  0
   27.3297  -20.1233   -8.0568 C   0  0  0  0  0  0  0  0  0  0  0  0
   25.9033  -20.2722   -8.4282 C   0  0  2  0  0  0  0  0  0  0  0  0
   25.2489  -21.3163   -7.5109 C   0  0  0  0  0  0  0  0  0  0  0  0
   25.6055  -20.5672   -9.8588 C   0  0  2  0  0  0  0  0  0  0  0  0
   26.1852  -19.5805  -10.7521 N   0  0  0  0  0  0  0  0  0  0  0  0
   24.1817  -20.8031  -10.1733 C   0  0  0  0  0  0  0  0  0  0  0  0
   23.6295  -22.0758  -10.2071 O   0  0  0  0  0  0  0  0  0  0  0  0
   23.3614  -19.8579  -10.4365 O   0  0  0  0  0  0  0  0  0  0  0  0
  2  1  1  0
  3  2  1  0
  3  4  1  1
  5  6  2  0
  5  3  1  0
  7  5  1  0
  8  7  1  0
  9 10  2  0
  9  8  1  0
 11 12  1  0
 12 13  1  0
 13 14  1  1
 15 16  1  6
 15 13  1  0
 16  9  1  0
 17 15  1  0
 18 17  1  0
 19 17  2  0
M  END
$$$$
