SGI.pdb
     RDKit          3D

 19 18  0  0  1  0  0  0  0  0999 V2000
   25.4429  -19.1229  -16.5644 O   0  0  0  0  0  0  0  0  0  0  0  0
   24.4266  -18.9008  -15.6271 C   0  0  0  0  0  0  0  0  0  0  0  0
   25.0435  -18.7292  -14.2608 C   0  0  2  0  0  0  0  0  0  0  0  0
   26.1276  -17.7869  -14.3517 N   0  0  0  0  0  0  0  0  0  0  0  0
   25.5335  -20.0554  -13.7384 C   0  0  0  0  0  0  0  0  0  0  0  0
   24.7286  -20.9835  -13.5571 O   0  0  0  0  0  0  0  0  0  0  0  0
   26.9104  -20.2555  -13.4503 N   0  0  0  0  0  0  0  0  0  0  0  0
   27.4535  -21.4541  -12.9011 C   0  0  0  0  0  0  0  0  0  0  0  0
   27.1935  -21.6150  -11.4572 C   0  0  0  0  0  0  0  0  0  0  0  0
   27.4446  -22.7250  -10.9284 O   0  0  0  0  0  0  0  0  0  0  0  0
   28.1804  -20.2487   -6.2186 C   0  0  0  0  0  0  0  0  0  0  0  0
   26.9104  -19.8329   -6.9129 C   0  0  0  0  0  0  0  0  0  0  0  0
   27.0081  -19.6845   -8.3838 C   0  0  2  0  0  0  0  0  0  0  0  0
   26.4750  -18.3018   -8.7884 C   0  0  0  0  0  0  0  0  0  0  0  0
   26.3826  -20.7538   -9.2131 C   0  0  2  0  0  0  0  0  0  0  0  0
   26.6761  -20.5914  -10.6256 N   0  0  0  0  0  0  0  0  0  0  0  0
   24.9383  -20.9662   -8.9873 C   0  0  0  0  0  0  0  0  0  0  0  0
   24.4462  -21.5564   -7.8318 O   0  0  0  0  0  0  0  0  0  0  0  0
   24.0440  -20.6250   -9.8353 O   0  0  0  0  0  0  0  0  0  0  0  0
  2  1  1  0
  3  2  1  0
  3  4  1  6
  5  6  2  0
  5  3  1  0
  7  5  1  0
  8  7  1  0
  9 10  2  0
  9  8  1  0
 11 12  1  0
 12 13  1  0
 13 14  1  6
 15 16  1  6
 15 13  1  0
 16  9  1  0
 17 15  1  0
 18 17  1  0
 19 17  2  0
M  END
$$$$
