SGI.pdb
     RDKit          3D

 19 18  0  0  1  0  0  0  0  0999 V2000
   17.8549  -10.7017  -16.4353 O   0  0  0  0  0  0  0  0  0  0  0  0
   16.5898  -10.8299  -15.8490 C   0  0  0  0  0  0  0  0  0  0  0  0
   16.7368  -11.4753  -14.4929 C   0  0  2  0  0  0  0  0  0  0  0  0
   15.4287  -11.6879  -13.9315 N   0  0  0  0  0  0  0  0  0  0  0  0
   17.5695  -10.6045  -13.5873 C   0  0  0  0  0  0  0  0  0  0  0  0
   18.8025  -10.5657  -13.7300 O   0  0  0  0  0  0  0  0  0  0  0  0
   16.9570   -9.8254  -12.5691 N   0  0  0  0  0  0  0  0  0  0  0  0
   17.6442   -8.8758  -11.7570 C   0  0  0  0  0  0  0  0  0  0  0  0
   16.7877   -7.7709  -11.2841 C   0  0  0  0  0  0  0  0  0  0  0  0
   16.3624   -6.9455  -12.1283 O   0  0  0  0  0  0  0  0  0  0  0  0
   12.8223   -8.5003   -7.4420 C   0  0  0  0  0  0  0  0  0  0  0  0
   14.1782   -8.0099   -7.8767 C   0  0  0  0  0  0  0  0  0  0  0  0
   14.1829   -7.1128   -9.0558 C   0  0  2  0  0  0  0  0  0  0  0  0
   13.5003   -7.8239  -10.2341 C   0  0  0  0  0  0  0  0  0  0  0  0
   15.4997   -6.5507   -9.4709 C   0  0  2  0  0  0  0  0  0  0  0  0
   16.4129   -7.5812   -9.9310 N   0  0  0  0  0  0  0  0  0  0  0  0
   16.1479   -5.6625   -8.4846 C   0  0  0  0  0  0  0  0  0  0  0  0
   15.7145   -4.3640   -8.2568 O   0  0  0  0  0  0  0  0  0  0  0  0
   17.1490   -6.0234   -7.7754 O   0  0  0  0  0  0  0  0  0  0  0  0
  2  1  1  0
  3  2  1  0
  3  4  1  1
  5  6  2  0
  5  3  1  0
  7  5  1  0
  8  7  1  0
  9 10  2  0
  9  8  1  0
 11 12  1  0
 12 13  1  0
 13 14  1  6
 15 16  1  1
 15 13  1  0
 16  9  1  0
 17 15  1  0
 18 17  1  0
 19 17  2  0
M  END
$$$$
