PKH.pdb
     RDKit          3D

 27 28  0  0  1  0  0  0  0  0999 V2000
    8.9412  -14.5686   19.0955 N   0  0  0  0  0  0  0  0  0  0  0  0
    8.9367  -13.6182   18.0009 C   0  0  0  0  0  0  0  0  0  0  0  0
    7.9416  -12.5388   18.3554 C   0  0  0  0  0  0  0  0  0  0  0  0
    7.1742  -13.1722   19.4967 C   0  0  0  0  0  0  0  0  0  0  0  0
    8.2869  -13.9445   20.2004 C   0  0  1  0  0  0  0  0  0  0  0  0
    7.7944  -14.8498   21.2362 C   0  0  0  0  0  0  0  0  0  0  0  0
    7.0832  -14.3331   22.1549 O   0  0  0  0  0  0  0  0  0  0  0  0
    8.0462  -16.2391   21.2932 N   0  0  0  0  0  0  0  0  0  0  0  0
    7.4289  -17.0468   22.3111 C   0  0  1  0  0  0  0  0  0  0  0  0
    7.4742  -18.5164   21.9435 C   0  0  0  0  0  0  0  0  0  0  0  0
    6.8337  -18.7371   20.5936 C   0  0  0  0  0  0  0  0  0  0  0  0
    6.8579  -20.2292   20.3232 C   0  0  0  0  0  0  0  0  0  0  0  0
    6.2611  -20.5022   18.9434 C   0  0  0  0  0  0  0  0  0  0  0  0
    6.3090  -21.9158   18.6252 N   0  0  0  0  0  0  0  0  0  0  0  0
    8.1407  -16.8006   23.5985 C   0  0  0  0  0  0  0  0  0  0  0  0
    9.3787  -16.5777   23.6426 O   0  0  0  0  0  0  0  0  0  0  0  0
    7.4327  -16.8105   24.8287 N   0  0  0  0  0  0  0  0  0  0  0  0
    8.1678  -16.5652   26.1025 C   0  0  1  0  0  0  0  0  0  0  0  0
    7.2672  -15.7669   26.9987 C   0  0  0  0  0  0  0  0  0  0  0  0
    7.1873  -14.3392   26.6316 C   0  0  0  0  0  0  0  0  0  0  0  0
    7.7958  -13.6013   25.6453 C   0  0  0  0  0  0  0  0  0  0  0  0
    7.3335  -12.3160   25.6717 N   0  0  0  0  0  0  0  0  0  0  0  0
    6.4547  -12.2647   26.6562 C   0  0  0  0  0  0  0  0  0  0  0  0
    6.3387  -13.4536   27.2540 N   0  0  0  0  0  0  0  0  0  0  0  0
    8.4267  -17.9231   26.6583 C   0  0  0  0  0  0  0  0  0  0  0  0
    9.3104  -18.0355   27.7394 O   0  0  0  0  0  0  0  0  0  0  0  0
    7.9099  -18.9494   26.2234 O   0  0  0  0  0  0  0  0  0  0  0  0
  1  5  1  0
  1  2  1  0
  2  3  1  0
  4  3  1  0
  5  4  1  0
  6  7  2  0
  5  6  1  1
  8  6  1  0
  9 10  1  6
  9  8  1  0
 11 12  1  0
 11 10  1  0
 13 14  1  0
 13 12  1  0
 15  9  1  0
 16 15  2  0
 17 15  1  0
 18 17  1  0
 19 20  1  0
 18 19  1  1
 20 21  2  0
 22 21  1  0
 23 22  1  0
 24 23  2  0
 24 20  1  0
 25 26  1  0
 25 18  1  0
 27 25  2  0
M  END
$$$$
