PKH.pdb
     RDKit          3D

 27 28  0  0  1  0  0  0  0  0999 V2000
    7.5095  -15.5742   19.3628 N   0  0  0  0  0  0  0  0  0  0  0  0
    7.1815  -15.2285   17.9937 C   0  0  0  0  0  0  0  0  0  0  0  0
    7.9039  -13.9407   17.6766 C   0  0  0  0  0  0  0  0  0  0  0  0
    8.3112  -13.4544   19.0515 C   0  0  0  0  0  0  0  0  0  0  0  0
    8.6309  -14.7768   19.7434 C   0  0  1  0  0  0  0  0  0  0  0  0
    8.8477  -14.6374   21.1816 C   0  0  0  0  0  0  0  0  0  0  0  0
   10.0404  -14.4111   21.5599 O   0  0  0  0  0  0  0  0  0  0  0  0
    7.8440  -14.7340   22.1717 N   0  0  0  0  0  0  0  0  0  0  0  0
    8.1512  -14.4435   23.5467 C   0  0  1  0  0  0  0  0  0  0  0  0
    7.0342  -13.6553   24.2006 C   0  0  0  0  0  0  0  0  0  0  0  0
    7.3837  -13.3480   25.6375 C   0  0  0  0  0  0  0  0  0  0  0  0
    6.2757  -12.4737   26.1926 C   0  0  0  0  0  0  0  0  0  0  0  0
    6.5965  -12.1110   27.6416 C   0  0  0  0  0  0  0  0  0  0  0  0
    5.5214  -11.3413   28.2365 N   0  0  0  0  0  0  0  0  0  0  0  0
    8.3751  -15.7351   24.2583 C   0  0  0  0  0  0  0  0  0  0  0  0
    7.5224  -16.6608   24.2418 O   0  0  0  0  0  0  0  0  0  0  0  0
    9.5732  -15.9611   24.9851 N   0  0  0  0  0  0  0  0  0  0  0  0
    9.8434  -17.3117   25.5563 C   0  0  1  0  0  0  0  0  0  0  0  0
   11.2216  -17.7188   25.1245 C   0  0  0  0  0  0  0  0  0  0  0  0
   11.3562  -17.8814   23.6634 C   0  0  0  0  0  0  0  0  0  0  0  0
   11.8113  -17.0412   22.6763 C   0  0  0  0  0  0  0  0  0  0  0  0
   11.8065  -17.6887   21.4734 N   0  0  0  0  0  0  0  0  0  0  0  0
   11.3578  -18.9068   21.7168 C   0  0  0  0  0  0  0  0  0  0  0  0
   11.0780  -19.0613   23.0138 N   0  0  0  0  0  0  0  0  0  0  0  0
    9.7678  -17.1211   27.0321 C   0  0  0  0  0  0  0  0  0  0  0  0
    9.3939  -15.8607   27.5158 O   0  0  0  0  0  0  0  0  0  0  0  0
   10.0141  -18.0053   27.8488 O   0  0  0  0  0  0  0  0  0  0  0  0
  1  5  1  0
  1  2  1  0
  2  3  1  0
  4  3  1  0
  5  4  1  0
  6  7  2  0
  5  6  1  1
  8  6  1  0
  9 10  1  1
  9  8  1  0
 11 12  1  0
 11 10  1  0
 13 14  1  0
 13 12  1  0
 15  9  1  0
 16 15  2  0
 17 15  1  0
 18 17  1  0
 19 20  1  0
 18 19  1  1
 20 21  2  0
 22 21  1  0
 23 22  1  0
 24 23  2  0
 24 20  1  0
 25 26  1  0
 25 18  1  0
 27 25  2  0
M  END
$$$$
