PKH.pdb
     RDKit          3D

 27 28  0  0  1  0  0  0  0  0999 V2000
    8.1229  -20.6691   19.0970 N   0  0  0  0  0  0  0  0  0  0  0  0
    7.0452  -21.2341   18.3091 C   0  0  0  0  0  0  0  0  0  0  0  0
    6.7322  -20.2444   17.2122 C   0  0  0  0  0  0  0  0  0  0  0  0
    7.4381  -18.9953   17.6961 C   0  0  0  0  0  0  0  0  0  0  0  0
    8.6846  -19.5977   18.3388 C   0  0  1  0  0  0  0  0  0  0  0  0
    9.4670  -18.6271   19.1007 C   0  0  0  0  0  0  0  0  0  0  0  0
   10.7157  -18.5887   18.8643 O   0  0  0  0  0  0  0  0  0  0  0  0
    8.9467  -17.7387   20.0688 N   0  0  0  0  0  0  0  0  0  0  0  0
    9.8048  -16.7744   20.7037 C   0  0  1  0  0  0  0  0  0  0  0  0
    9.0567  -15.4901   21.0003 C   0  0  0  0  0  0  0  0  0  0  0  0
    8.7862  -14.7358   19.7201 C   0  0  0  0  0  0  0  0  0  0  0  0
    7.9476  -13.5246   20.0807 C   0  0  0  0  0  0  0  0  0  0  0  0
    7.6641  -12.7125   18.8180 C   0  0  0  0  0  0  0  0  0  0  0  0
    6.7587  -11.6149   19.0966 N   0  0  0  0  0  0  0  0  0  0  0  0
   10.3385  -17.3785   21.9586 C   0  0  0  0  0  0  0  0  0  0  0  0
    9.6052  -18.0277   22.7492 O   0  0  0  0  0  0  0  0  0  0  0  0
   11.7083  -17.2368   22.3027 N   0  0  0  0  0  0  0  0  0  0  0  0
   12.2272  -17.8880   23.5397 C   0  0  1  0  0  0  0  0  0  0  0  0
   13.7092  -18.0560   23.3756 C   0  0  0  0  0  0  0  0  0  0  0  0
   14.0785  -19.1216   22.4229 C   0  0  0  0  0  0  0  0  0  0  0  0
   13.3928  -20.2093   21.9390 C   0  0  0  0  0  0  0  0  0  0  0  0
   14.1513  -20.8636   21.0101 N   0  0  0  0  0  0  0  0  0  0  0  0
   15.2834  -20.1889   20.9230 C   0  0  0  0  0  0  0  0  0  0  0  0
   15.2785  -19.1409   21.7512 N   0  0  0  0  0  0  0  0  0  0  0  0
   11.9043  -16.9314   24.6355 C   0  0  0  0  0  0  0  0  0  0  0  0
   12.1758  -17.3220   25.9530 O   0  0  0  0  0  0  0  0  0  0  0  0
   11.4140  -15.8202   24.4501 O   0  0  0  0  0  0  0  0  0  0  0  0
  1  5  1  0
  1  2  1  0
  2  3  1  0
  4  3  1  0
  5  4  1  0
  6  7  2  0
  5  6  1  1
  8  6  1  0
  9 10  1  1
  9  8  1  0
 11 12  1  0
 11 10  1  0
 13 14  1  0
 13 12  1  0
 15  9  1  0
 16 15  2  0
 17 15  1  0
 18 17  1  0
 19 20  1  0
 18 19  1  6
 20 21  2  0
 22 21  1  0
 23 22  1  0
 24 23  2  0
 24 20  1  0
 25 26  1  0
 25 18  1  0
 27 25  2  0
M  END
$$$$
