PKH.pdb
     RDKit          3D

 27 28  0  0  1  0  0  0  0  0999 V2000
    8.1272  -14.8628   18.9803 N   0  0  0  0  0  0  0  0  0  0  0  0
    7.9844  -13.6553   18.1911 C   0  0  0  0  0  0  0  0  0  0  0  0
    7.4969  -12.5717   19.1233 C   0  0  0  0  0  0  0  0  0  0  0  0
    7.0452  -13.3663   20.3304 C   0  0  0  0  0  0  0  0  0  0  0  0
    8.0920  -14.4768   20.3544 C   0  0  1  0  0  0  0  0  0  0  0  0
    7.7793  -15.5437   21.3024 C   0  0  0  0  0  0  0  0  0  0  0  0
    7.9134  -15.2684   22.5364 O   0  0  0  0  0  0  0  0  0  0  0  0
    7.3444  -16.8427   20.9552 N   0  0  0  0  0  0  0  0  0  0  0  0
    7.1062  -17.8254   21.9784 C   0  0  1  0  0  0  0  0  0  0  0  0
    6.0713  -18.8385   21.5316 C   0  0  0  0  0  0  0  0  0  0  0  0
    5.9052  -19.9125   22.5804 C   0  0  0  0  0  0  0  0  0  0  0  0
    4.8484  -20.8755   22.0742 C   0  0  0  0  0  0  0  0  0  0  0  0
    4.6083  -21.9593   23.1239 C   0  0  0  0  0  0  0  0  0  0  0  0
    3.5359  -22.8475   22.7202 N   0  0  0  0  0  0  0  0  0  0  0  0
    8.4011  -18.4949   22.2938 C   0  0  0  0  0  0  0  0  0  0  0  0
    9.0752  -19.0893   21.4126 O   0  0  0  0  0  0  0  0  0  0  0  0
    8.9183  -18.4810   23.6156 N   0  0  0  0  0  0  0  0  0  0  0  0
   10.3908  -18.5764   23.8304 C   0  0  1  0  0  0  0  0  0  0  0  0
   11.0255  -17.4019   23.1453 C   0  0  0  0  0  0  0  0  0  0  0  0
   12.4671  -17.2626   23.4314 C   0  0  0  0  0  0  0  0  0  0  0  0
   13.3315  -17.9939   24.2095 C   0  0  0  0  0  0  0  0  0  0  0  0
   14.5996  -17.5000   24.0888 N   0  0  0  0  0  0  0  0  0  0  0  0
   14.5167  -16.4835   23.2497 C   0  0  0  0  0  0  0  0  0  0  0  0
   13.2591  -16.3098   22.8343 N   0  0  0  0  0  0  0  0  0  0  0  0
   10.5636  -18.5049   25.3086 C   0  0  0  0  0  0  0  0  0  0  0  0
    9.4138  -18.4090   26.1029 O   0  0  0  0  0  0  0  0  0  0  0  0
   11.6559  -18.5253   25.8706 O   0  0  0  0  0  0  0  0  0  0  0  0
  1  5  1  0
  1  2  1  0
  2  3  1  0
  4  3  1  0
  5  4  1  0
  6  7  2  0
  5  6  1  1
  8  6  1  0
  9 10  1  6
  9  8  1  0
 11 12  1  0
 11 10  1  0
 13 14  1  0
 13 12  1  0
 15  9  1  0
 16 15  2  0
 17 15  1  0
 18 17  1  0
 19 20  1  0
 18 19  1  6
 20 21  2  0
 22 21  1  0
 23 22  1  0
 24 23  2  0
 24 20  1  0
 25 26  1  0
 25 18  1  0
 27 25  2  0
M  END
$$$$
