PKH.pdb
     RDKit          3D

 27 28  0  0  1  0  0  0  0  0999 V2000
    7.7066  -15.1863   19.0631 N   0  0  0  0  0  0  0  0  0  0  0  0
    7.2395  -14.7812   17.7519 C   0  0  0  0  0  0  0  0  0  0  0  0
    7.6726  -13.3485   17.5503 C   0  0  0  0  0  0  0  0  0  0  0  0
    8.0523  -12.9276   18.9543 C   0  0  0  0  0  0  0  0  0  0  0  0
    8.6669  -14.2189   19.4876 C   0  0  1  0  0  0  0  0  0  0  0  0
    8.9328  -14.1809   20.9238 C   0  0  0  0  0  0  0  0  0  0  0  0
   10.1481  -14.0563   21.2764 O   0  0  0  0  0  0  0  0  0  0  0  0
    7.9529  -14.2711   21.9381 N   0  0  0  0  0  0  0  0  0  0  0  0
    8.3149  -14.0714   23.3160 C   0  0  1  0  0  0  0  0  0  0  0  0
    7.2024  -13.3792   24.0776 C   0  0  0  0  0  0  0  0  0  0  0  0
    7.6025  -13.1802   25.5203 C   0  0  0  0  0  0  0  0  0  0  0  0
    6.4316  -12.5224   26.2249 C   0  0  0  0  0  0  0  0  0  0  0  0
    6.7903  -12.2907   27.6918 C   0  0  0  0  0  0  0  0  0  0  0  0
    5.6581  -11.7634   28.4282 N   0  0  0  0  0  0  0  0  0  0  0  0
    8.6197  -15.4022   23.9166 C   0  0  0  0  0  0  0  0  0  0  0  0
    7.7824  -16.3420   23.9122 O   0  0  0  0  0  0  0  0  0  0  0  0
    9.8806  -15.6511   24.5191 N   0  0  0  0  0  0  0  0  0  0  0  0
   10.2655  -17.0484   24.8692 C   0  0  1  0  0  0  0  0  0  0  0  0
   11.5847  -17.3328   24.2130 C   0  0  0  0  0  0  0  0  0  0  0  0
   12.1290  -18.6657   24.5396 C   0  0  0  0  0  0  0  0  0  0  0  0
   11.6382  -19.7082   25.2877 C   0  0  0  0  0  0  0  0  0  0  0  0
   12.4959  -20.7699   25.2277 N   0  0  0  0  0  0  0  0  0  0  0  0
   13.4960  -20.3874   24.4546 C   0  0  0  0  0  0  0  0  0  0  0  0
   13.3136  -19.1364   24.0234 N   0  0  0  0  0  0  0  0  0  0  0  0
   10.3835  -17.0482   26.3545 C   0  0  0  0  0  0  0  0  0  0  0  0
   10.4470  -15.8122   27.0106 O   0  0  0  0  0  0  0  0  0  0  0  0
   10.4281  -18.0691   27.0366 O   0  0  0  0  0  0  0  0  0  0  0  0
  1  5  1  0
  1  2  1  0
  2  3  1  0
  4  3  1  0
  5  4  1  0
  6  7  2  0
  5  6  1  1
  8  6  1  0
  9 10  1  1
  9  8  1  0
 11 12  1  0
 11 10  1  0
 13 14  1  0
 13 12  1  0
 15  9  1  0
 16 15  2  0
 17 15  1  0
 18 17  1  0
 19 20  1  0
 18 19  1  6
 20 21  2  0
 22 21  1  0
 23 22  1  0
 24 23  2  0
 24 20  1  0
 25 26  1  0
 25 18  1  0
 27 25  2  0
M  END
$$$$
