PKH.pdb
     RDKit          3D

 27 28  0  0  1  0  0  0  0  0999 V2000
    9.2190  -14.3016   18.4432 N   0  0  0  0  0  0  0  0  0  0  0  0
    8.7618  -13.3318   17.4676 C   0  0  0  0  0  0  0  0  0  0  0  0
    7.6810  -12.5116   18.1310 C   0  0  0  0  0  0  0  0  0  0  0  0
    7.3515  -13.3433   19.3527 C   0  0  0  0  0  0  0  0  0  0  0  0
    8.7324  -13.8812   19.7179 C   0  0  1  0  0  0  0  0  0  0  0  0
    8.6944  -14.9134   20.7513 C   0  0  0  0  0  0  0  0  0  0  0  0
    8.0476  -14.6373   21.8105 O   0  0  0  0  0  0  0  0  0  0  0  0
    9.3150  -16.1800   20.6632 N   0  0  0  0  0  0  0  0  0  0  0  0
    9.1793  -17.1302   21.7347 C   0  0  1  0  0  0  0  0  0  0  0  0
    9.6591  -18.5036   21.3101 C   0  0  0  0  0  0  0  0  0  0  0  0
    8.7918  -19.0381   20.1951 C   0  0  0  0  0  0  0  0  0  0  0  0
    9.3974  -20.3540   19.7459 C   0  0  0  0  0  0  0  0  0  0  0  0
    8.5408  -20.9493   18.6295 C   0  0  0  0  0  0  0  0  0  0  0  0
    9.1875  -22.1028   18.0351 N   0  0  0  0  0  0  0  0  0  0  0  0
    9.9630  -16.6328   22.9022 C   0  0  0  0  0  0  0  0  0  0  0  0
   11.1333  -16.1868   22.7770 O   0  0  0  0  0  0  0  0  0  0  0  0
    9.4040  -16.6482   24.2069 N   0  0  0  0  0  0  0  0  0  0  0  0
   10.2166  -16.1678   25.3611 C   0  0  1  0  0  0  0  0  0  0  0  0
    9.3667  -15.2134   26.1474 C   0  0  0  0  0  0  0  0  0  0  0  0
   10.0119  -14.7343   27.3859 C   0  0  0  0  0  0  0  0  0  0  0  0
   11.2617  -14.9398   27.9179 C   0  0  0  0  0  0  0  0  0  0  0  0
   11.4063  -14.2113   29.0645 N   0  0  0  0  0  0  0  0  0  0  0  0
   10.2657  -13.5675   29.2338 C   0  0  0  0  0  0  0  0  0  0  0  0
    9.4068  -13.8534   28.2515 N   0  0  0  0  0  0  0  0  0  0  0  0
   10.5254  -17.3968   26.1448 C   0  0  0  0  0  0  0  0  0  0  0  0
   11.6443  -17.3777   26.9873 O   0  0  0  0  0  0  0  0  0  0  0  0
    9.8553  -18.4254   26.0948 O   0  0  0  0  0  0  0  0  0  0  0  0
  1  5  1  0
  1  2  1  0
  2  3  1  0
  4  3  1  0
  5  4  1  0
  6  7  2  0
  5  6  1  1
  8  6  1  0
  9 10  1  6
  9  8  1  0
 11 12  1  0
 11 10  1  0
 13 14  1  0
 13 12  1  0
 15  9  1  0
 16 15  2  0
 17 15  1  0
 18 17  1  0
 19 20  1  0
 18 19  1  1
 20 21  2  0
 22 21  1  0
 23 22  1  0
 24 23  2  0
 24 20  1  0
 25 26  1  0
 25 18  1  0
 27 25  2  0
M  END
$$$$
