PKH.pdb
     RDKit          3D

 27 28  0  0  1  0  0  0  0  0999 V2000
    8.8611  -14.8345   19.2112 N   0  0  0  0  0  0  0  0  0  0  0  0
    8.8145  -14.0546   17.9902 C   0  0  0  0  0  0  0  0  0  0  0  0
    7.9140  -12.8713   18.2543 C   0  0  0  0  0  0  0  0  0  0  0  0
    7.2141  -13.2800   19.5332 C   0  0  0  0  0  0  0  0  0  0  0  0
    8.3392  -14.0148   20.2570 C   0  0  1  0  0  0  0  0  0  0  0  0
    7.8888  -14.7256   21.4516 C   0  0  0  0  0  0  0  0  0  0  0  0
    7.3272  -14.0272   22.3536 O   0  0  0  0  0  0  0  0  0  0  0  0
    8.0289  -16.1136   21.6771 N   0  0  0  0  0  0  0  0  0  0  0  0
    7.4486  -16.7207   22.8450 C   0  0  1  0  0  0  0  0  0  0  0  0
    7.3935  -18.2289   22.7057 C   0  0  0  0  0  0  0  0  0  0  0  0
    6.8615  -18.8514   23.9747 C   0  0  0  0  0  0  0  0  0  0  0  0
    6.9062  -20.3561   23.7902 C   0  0  0  0  0  0  0  0  0  0  0  0
    6.3982  -21.0361   25.0606 C   0  0  0  0  0  0  0  0  0  0  0  0
    6.5936  -22.4713   24.9974 N   0  0  0  0  0  0  0  0  0  0  0  0
    8.2644  -16.3277   24.0301 C   0  0  0  0  0  0  0  0  0  0  0  0
    9.5215  -16.2829   23.9877 O   0  0  0  0  0  0  0  0  0  0  0  0
    7.6379  -15.9878   25.2577 N   0  0  0  0  0  0  0  0  0  0  0  0
    8.4610  -15.4538   26.3805 C   0  0  1  0  0  0  0  0  0  0  0  0
    7.5371  -14.7291   27.3147 C   0  0  0  0  0  0  0  0  0  0  0  0
    7.1390  -13.3929   26.8293 C   0  0  0  0  0  0  0  0  0  0  0  0
    7.4924  -12.6690   25.7165 C   0  0  0  0  0  0  0  0  0  0  0  0
    6.7869  -11.4998   25.6770 N   0  0  0  0  0  0  0  0  0  0  0  0
    6.0118  -11.5053   26.7463 C   0  0  0  0  0  0  0  0  0  0  0  0
    6.1926  -12.6197   27.4602 N   0  0  0  0  0  0  0  0  0  0  0  0
    9.0521  -16.6606   27.0244 C   0  0  0  0  0  0  0  0  0  0  0  0
    8.6215  -17.9194   26.5861 O   0  0  0  0  0  0  0  0  0  0  0  0
    9.8950  -16.6151   27.9171 O   0  0  0  0  0  0  0  0  0  0  0  0
  1  5  1  0
  1  2  1  0
  2  3  1  0
  4  3  1  0
  5  4  1  0
  6  7  2  0
  5  6  1  1
  8  6  1  0
  9 10  1  6
  9  8  1  0
 11 12  1  0
 11 10  1  0
 13 14  1  0
 13 12  1  0
 15  9  1  0
 16 15  2  0
 17 15  1  0
 18 17  1  0
 19 20  1  0
 18 19  1  1
 20 21  2  0
 22 21  1  0
 23 22  1  0
 24 23  2  0
 24 20  1  0
 25 26  1  0
 25 18  1  0
 27 25  2  0
M  END
$$$$
