KNM.pdb
     RDKit          3D

 26 25  0  0  1  0  0  0  0  0999 V2000
    8.6371  -16.3484   19.0260 N   0  0  0  0  0  0  0  0  0  0  0  0
    7.6988  -17.0440   19.8550 C   0  0  1  0  0  0  0  0  0  0  0  0
    7.3060  -18.3878   19.2496 C   0  0  0  0  0  0  0  0  0  0  0  0
    7.8570  -18.5336   17.8699 C   0  0  0  0  0  0  0  0  0  0  0  0
    8.5101  -19.8797   17.6502 C   0  0  0  0  0  0  0  0  0  0  0  0
    8.9609  -20.0241   16.2087 C   0  0  0  0  0  0  0  0  0  0  0  0
    8.9017  -21.4024   15.7942 N   0  0  0  0  0  0  0  0  0  0  0  0
    8.2814  -17.3738   21.1994 C   0  0  0  0  0  0  0  0  0  0  0  0
    7.6184  -18.0338   22.0345 O   0  0  0  0  0  0  0  0  0  0  0  0
   11.3861  -15.5728   20.9677 N   0  0  0  0  0  0  0  0  0  0  0  0
   12.2316  -16.6177   21.5494 C   0  0  0  0  0  0  0  0  0  0  0  0
   13.3781  -16.6217   21.0816 O   0  0  0  0  0  0  0  0  0  0  0  0
   11.6507  -17.4869   22.5617 C   0  0  0  0  0  0  0  0  0  0  0  0
   10.2043  -17.2194   22.8595 C   0  0  2  0  0  0  0  0  0  0  0  0
    9.5819  -16.9274   21.4997 N   0  0  0  0  0  0  0  0  0  0  0  0
    9.9516  -16.0206   23.6685 C   0  0  0  0  0  0  0  0  0  0  0  0
   10.9259  -15.5634   24.3952 O   0  0  0  0  0  0  0  0  0  0  0  0
    6.7759  -10.9847   27.8754 C   0  0  0  0  0  0  0  0  0  0  0  0
    7.4221  -11.8118   26.3958 S   0  0  0  0  0  0  0  0  0  0  0  0
    6.5026  -13.3178   26.0225 C   0  0  0  0  0  0  0  0  0  0  0  0
    7.0059  -14.0131   24.7731 C   0  0  0  0  0  0  0  0  0  0  0  0
    8.3425  -14.6543   25.0228 C   0  0  2  0  0  0  0  0  0  0  0  0
    8.7557  -15.2867   23.7476 N   0  0  0  0  0  0  0  0  0  0  0  0
    8.1807  -15.7169   26.0280 C   0  0  0  0  0  0  0  0  0  0  0  0
    7.5882  -16.7659   25.6613 O   0  0  0  0  0  0  0  0  0  0  0  0
    8.6329  -15.6331   27.3302 O   0  0  0  0  0  0  0  0  0  0  0  0
  2  1  1  6
  3  2  1  0
  4  3  1  0
  4  5  1  0
  6  5  1  0
  6  7  1  0
  8  9  2  0
  8  2  1  0
 10 11  1  0
 11 13  1  0
 12 11  2  0
 14 13  1  6
 14 15  1  0
 15  8  1  0
 16 23  1  0
 16 14  1  0
 17 16  2  0
 19 20  1  0
 19 18  1  0
 20 21  1  0
 22 21  1  6
 22 24  1  0
 22 23  1  0
 24 26  1  0
 25 24  2  0
M  END
$$$$
