KNM.pdb
     RDKit          3D

 26 25  0  0  1  0  0  0  0  0999 V2000
    9.9801  -13.4840   18.7541 N   0  0  0  0  0  0  0  0  0  0  0  0
    8.7051  -13.3493   19.3927 C   0  0  1  0  0  0  0  0  0  0  0  0
    7.5616  -13.4742   18.3910 C   0  0  0  0  0  0  0  0  0  0  0  0
    7.8578  -14.5223   17.3701 C   0  0  0  0  0  0  0  0  0  0  0  0
    8.0305  -13.9430   15.9839 C   0  0  0  0  0  0  0  0  0  0  0  0
    8.3785  -15.0352   14.9898 C   0  0  0  0  0  0  0  0  0  0  0  0
    8.4410  -14.5031   13.6527 N   0  0  0  0  0  0  0  0  0  0  0  0
    8.4680  -14.4398   20.3978 C   0  0  0  0  0  0  0  0  0  0  0  0
    7.3404  -14.5808   20.9281 O   0  0  0  0  0  0  0  0  0  0  0  0
    9.2763  -19.4254   20.5917 N   0  0  0  0  0  0  0  0  0  0  0  0
   10.1353  -18.2633   20.3540 C   0  0  0  0  0  0  0  0  0  0  0  0
   10.5136  -18.1800   19.1778 O   0  0  0  0  0  0  0  0  0  0  0  0
   10.4285  -17.3848   21.4764 C   0  0  0  0  0  0  0  0  0  0  0  0
    9.3544  -16.3824   21.7826 C   0  0  2  0  0  0  0  0  0  0  0  0
    9.5347  -15.2958   20.7298 N   0  0  0  0  0  0  0  0  0  0  0  0
    9.4967  -15.6998   23.0745 C   0  0  0  0  0  0  0  0  0  0  0  0
   10.5795  -15.0134   23.2815 O   0  0  0  0  0  0  0  0  0  0  0  0
    6.3658  -11.0759   26.2674 C   0  0  0  0  0  0  0  0  0  0  0  0
    6.5706  -12.3651   27.5271 S   0  0  0  0  0  0  0  0  0  0  0  0
    7.9131  -13.4945   27.1087 C   0  0  0  0  0  0  0  0  0  0  0  0
    7.7373  -14.1278   25.7427 C   0  0  0  0  0  0  0  0  0  0  0  0
    8.9047  -15.0161   25.4139 C   0  0  2  0  0  0  0  0  0  0  0  0
    8.5769  -15.6939   24.1372 N   0  0  0  0  0  0  0  0  0  0  0  0
    9.0291  -16.0453   26.4583 C   0  0  0  0  0  0  0  0  0  0  0  0
    8.6125  -17.1998   26.1764 O   0  0  0  0  0  0  0  0  0  0  0  0
    9.5672  -15.8235   27.7107 O   0  0  0  0  0  0  0  0  0  0  0  0
  2  1  1  6
  3  2  1  0
  4  3  1  0
  4  5  1  0
  6  5  1  0
  6  7  1  0
  8  9  2  0
  8  2  1  0
 10 11  1  0
 11 13  1  0
 12 11  2  0
 14 13  1  6
 14 15  1  0
 15  8  1  0
 16 23  1  0
 16 14  1  0
 17 16  2  0
 19 20  1  0
 19 18  1  0
 20 21  1  0
 22 21  1  1
 22 24  1  0
 22 23  1  0
 24 26  1  0
 25 24  2  0
M  END
$$$$
