KNM.pdb
     RDKit          3D

 26 25  0  0  1  0  0  0  0  0999 V2000
    9.0513  -14.7376   18.9857 N   0  0  0  0  0  0  0  0  0  0  0  0
    8.3423  -15.9810   18.9335 C   0  0  1  0  0  0  0  0  0  0  0  0
    8.7407  -16.8014   17.7109 C   0  0  0  0  0  0  0  0  0  0  0  0
    8.9887  -15.9186   16.5329 C   0  0  0  0  0  0  0  0  0  0  0  0
    7.9912  -16.1499   15.4202 C   0  0  0  0  0  0  0  0  0  0  0  0
    8.3551  -15.3264   14.1989 C   0  0  0  0  0  0  0  0  0  0  0  0
    7.8684  -13.9774   14.3331 N   0  0  0  0  0  0  0  0  0  0  0  0
    8.6615  -16.8537   20.1134 C   0  0  0  0  0  0  0  0  0  0  0  0
    8.7333  -18.0987   19.9818 O   0  0  0  0  0  0  0  0  0  0  0  0
   11.2250  -19.2161   21.9651 N   0  0  0  0  0  0  0  0  0  0  0  0
   11.8492  -18.0509   21.3344 C   0  0  0  0  0  0  0  0  0  0  0  0
   12.8826  -18.3375   20.7154 O   0  0  0  0  0  0  0  0  0  0  0  0
   11.2100  -16.7544   21.5023 C   0  0  0  0  0  0  0  0  0  0  0  0
    9.9453  -16.7811   22.3097 C   0  0  2  0  0  0  0  0  0  0  0  0
    8.8770  -16.2458   21.3643 N   0  0  0  0  0  0  0  0  0  0  0  0
    9.9310  -15.8758   23.4654 C   0  0  0  0  0  0  0  0  0  0  0  0
   10.7987  -16.0837   24.4090 O   0  0  0  0  0  0  0  0  0  0  0  0
    7.0886  -11.3767   28.2411 C   0  0  0  0  0  0  0  0  0  0  0  0
    6.7617  -11.6939   26.4851 S   0  0  0  0  0  0  0  0  0  0  0  0
    6.5787  -13.4570   26.1521 C   0  0  0  0  0  0  0  0  0  0  0  0
    7.1839  -13.8649   24.8236 C   0  0  0  0  0  0  0  0  0  0  0  0
    8.5336  -14.4955   25.0250 C   0  0  2  0  0  0  0  0  0  0  0  0
    9.0754  -14.7808   23.6753 N   0  0  0  0  0  0  0  0  0  0  0  0
    8.3605  -15.7770   25.7277 C   0  0  0  0  0  0  0  0  0  0  0  0
    7.9209  -16.7448   25.0525 O   0  0  0  0  0  0  0  0  0  0  0  0
    8.6469  -15.9779   27.0636 O   0  0  0  0  0  0  0  0  0  0  0  0
  2  1  1  1
  3  2  1  0
  4  3  1  0
  4  5  1  0
  6  5  1  0
  6  7  1  0
  8  9  2  0
  8  2  1  0
 10 11  1  0
 11 13  1  0
 12 11  2  0
 14 13  1  6
 14 15  1  0
 15  8  1  0
 16 23  1  0
 16 14  1  0
 17 16  2  0
 19 20  1  0
 19 18  1  0
 20 21  1  0
 22 21  1  6
 22 24  1  0
 22 23  1  0
 24 26  1  0
 25 24  2  0
M  END
$$$$
