KNM.pdb
     RDKit          3D

 26 25  0  0  1  0  0  0  0  0999 V2000
    7.8534  -14.4302   19.3244 N   0  0  0  0  0  0  0  0  0  0  0  0
    8.2104  -15.8024   19.1213 C   0  0  1  0  0  0  0  0  0  0  0  0
    8.5312  -16.0863   17.6574 C   0  0  0  0  0  0  0  0  0  0  0  0
    8.0236  -14.9925   16.7774 C   0  0  0  0  0  0  0  0  0  0  0  0
    8.1226  -15.3421   15.3095 C   0  0  0  0  0  0  0  0  0  0  0  0
    7.7254  -14.1555   14.4514 C   0  0  0  0  0  0  0  0  0  0  0  0
    7.6458  -14.5362   13.0645 N   0  0  0  0  0  0  0  0  0  0  0  0
    9.4560  -16.1709   19.8752 C   0  0  0  0  0  0  0  0  0  0  0  0
    9.7862  -17.3734   20.0073 O   0  0  0  0  0  0  0  0  0  0  0  0
   13.3756  -16.1382   19.3845 N   0  0  0  0  0  0  0  0  0  0  0  0
   13.2736  -14.7384   19.8028 C   0  0  0  0  0  0  0  0  0  0  0  0
   13.9231  -13.9733   19.0775 O   0  0  0  0  0  0  0  0  0  0  0  0
   12.4584  -14.4272   20.9673 C   0  0  0  0  0  0  0  0  0  0  0  0
   11.4368  -15.4711   21.3118 C   0  0  2  0  0  0  0  0  0  0  0  0
   10.2404  -15.1413   20.4278 N   0  0  0  0  0  0  0  0  0  0  0  0
   10.9315  -15.4101   22.6889 C   0  0  0  0  0  0  0  0  0  0  0  0
   11.7805  -15.5913   23.6547 O   0  0  0  0  0  0  0  0  0  0  0  0
    6.7645  -11.4022   27.0791 C   0  0  0  0  0  0  0  0  0  0  0  0
    6.2064  -12.9133   26.2449 S   0  0  0  0  0  0  0  0  0  0  0  0
    7.5498  -14.1018   26.0561 C   0  0  0  0  0  0  0  0  0  0  0  0
    8.0035  -14.2445   24.6168 C   0  0  0  0  0  0  0  0  0  0  0  0
    9.2761  -15.0407   24.5366 C   0  0  2  0  0  0  0  0  0  0  0  0
    9.6091  -15.1665   23.0978 N   0  0  0  0  0  0  0  0  0  0  0  0
    9.0276  -16.3907   25.0673 C   0  0  0  0  0  0  0  0  0  0  0  0
    8.8486  -17.3117   24.2272 O   0  0  0  0  0  0  0  0  0  0  0  0
    8.9794  -16.7027   26.4117 O   0  0  0  0  0  0  0  0  0  0  0  0
  2  1  1  6
  3  2  1  0
  4  3  1  0
  4  5  1  0
  6  5  1  0
  6  7  1  0
  8  9  2  0
  8  2  1  0
 10 11  1  0
 11 13  1  0
 12 11  2  0
 14 13  1  1
 14 15  1  0
 15  8  1  0
 16 23  1  0
 16 14  1  0
 17 16  2  0
 19 20  1  0
 19 18  1  0
 20 21  1  0
 22 21  1  6
 22 24  1  0
 22 23  1  0
 24 26  1  0
 25 24  2  0
M  END
$$$$
