KNM.pdb
     RDKit          3D

 26 25  0  0  1  0  0  0  0  0999 V2000
    8.3788  -18.3257   19.8765 N   0  0  0  0  0  0  0  0  0  0  0  0
    9.7284  -17.9240   19.6142 C   0  0  1  0  0  0  0  0  0  0  0  0
   10.0804  -18.0755   18.1379 C   0  0  0  0  0  0  0  0  0  0  0  0
    8.9991  -17.5205   17.2712 C   0  0  0  0  0  0  0  0  0  0  0  0
    9.3201  -17.6465   15.7988 C   0  0  0  0  0  0  0  0  0  0  0  0
    8.2894  -16.9096   14.9640 C   0  0  0  0  0  0  0  0  0  0  0  0
    8.5912  -17.0324   13.5609 N   0  0  0  0  0  0  0  0  0  0  0  0
    9.9465  -16.4705   19.9232 C   0  0  0  0  0  0  0  0  0  0  0  0
   11.0531  -15.9300   19.6870 O   0  0  0  0  0  0  0  0  0  0  0  0
    8.7199  -12.3939   18.0415 N   0  0  0  0  0  0  0  0  0  0  0  0
    7.9980  -13.5306   18.6175 C   0  0  0  0  0  0  0  0  0  0  0  0
    7.5692  -14.3112   17.7572 O   0  0  0  0  0  0  0  0  0  0  0  0
    7.8763  -13.6044   20.0657 C   0  0  0  0  0  0  0  0  0  0  0  0
    9.0442  -14.2425   20.7592 C   0  0  2  0  0  0  0  0  0  0  0  0
    8.8862  -15.7323   20.4813 N   0  0  0  0  0  0  0  0  0  0  0  0
    9.0381  -14.1168   22.2219 C   0  0  0  0  0  0  0  0  0  0  0  0
    9.0925  -12.9220   22.7279 O   0  0  0  0  0  0  0  0  0  0  0  0
    5.9522  -11.7383   27.9313 C   0  0  0  0  0  0  0  0  0  0  0  0
    5.7996  -12.8909   26.5387 S   0  0  0  0  0  0  0  0  0  0  0  0
    7.3310  -13.8023   26.2609 C   0  0  0  0  0  0  0  0  0  0  0  0
    7.5438  -14.1528   24.8016 C   0  0  0  0  0  0  0  0  0  0  0  0
    8.8563  -14.8604   24.6103 C   0  0  2  0  0  0  0  0  0  0  0  0
    8.9718  -15.1584   23.1630 N   0  0  0  0  0  0  0  0  0  0  0  0
    8.8187  -16.1389   25.3381 C   0  0  0  0  0  0  0  0  0  0  0  0
    8.6859  -17.1852   24.6500 O   0  0  0  0  0  0  0  0  0  0  0  0
    8.9185  -16.2575   26.7104 O   0  0  0  0  0  0  0  0  0  0  0  0
  2  1  1  6
  3  2  1  0
  4  3  1  0
  4  5  1  0
  6  5  1  0
  6  7  1  0
  8  9  2  0
  8  2  1  0
 10 11  1  0
 11 13  1  0
 12 11  2  0
 14 13  1  6
 14 15  1  0
 15  8  1  0
 16 23  1  0
 16 14  1  0
 17 16  2  0
 19 20  1  0
 19 18  1  0
 20 21  1  0
 22 21  1  6
 22 24  1  0
 22 23  1  0
 24 26  1  0
 25 24  2  0
M  END
$$$$
