KNM.pdb
     RDKit          3D

 26 25  0  0  1  0  0  0  0  0999 V2000
    7.2146  -18.5554   20.9807 N   0  0  0  0  0  0  0  0  0  0  0  0
    8.6318  -18.7090   20.8410 C   0  0  1  0  0  0  0  0  0  0  0  0
    9.0123  -19.1280   19.4247 C   0  0  0  0  0  0  0  0  0  0  0  0
    7.9710  -20.0193   18.8333 C   0  0  0  0  0  0  0  0  0  0  0  0
    8.3727  -20.5523   17.4763 C   0  0  0  0  0  0  0  0  0  0  0  0
    7.3007  -21.4754   16.9279 C   0  0  0  0  0  0  0  0  0  0  0  0
    7.6800  -21.9809   15.6336 N   0  0  0  0  0  0  0  0  0  0  0  0
    9.3578  -17.4156   21.0767 C   0  0  0  0  0  0  0  0  0  0  0  0
   10.6007  -17.3479   20.9249 O   0  0  0  0  0  0  0  0  0  0  0  0
    6.2017  -14.4748   19.7824 N   0  0  0  0  0  0  0  0  0  0  0  0
    7.6638  -14.3944   19.8097 C   0  0  0  0  0  0  0  0  0  0  0  0
    8.1819  -14.7260   18.7350 O   0  0  0  0  0  0  0  0  0  0  0  0
    8.3046  -13.9544   21.0399 C   0  0  0  0  0  0  0  0  0  0  0  0
    9.2917  -14.9286   21.6133 C   0  0  2  0  0  0  0  0  0  0  0  0
    8.6154  -16.2865   21.4702 N   0  0  0  0  0  0  0  0  0  0  0  0
    9.5504  -14.7724   23.0500 C   0  0  0  0  0  0  0  0  0  0  0  0
   10.0070  -13.6289   23.4628 O   0  0  0  0  0  0  0  0  0  0  0  0
    7.1128  -11.1258   27.4089 C   0  0  0  0  0  0  0  0  0  0  0  0
    6.5559  -12.8484   27.2929 S   0  0  0  0  0  0  0  0  0  0  0  0
    7.9420  -13.9803   27.0687 C   0  0  0  0  0  0  0  0  0  0  0  0
    8.1155  -14.4105   25.6256 C   0  0  0  0  0  0  0  0  0  0  0  0
    9.2973  -15.3285   25.4825 C   0  0  2  0  0  0  0  0  0  0  0  0
    9.3522  -15.7320   24.0574 N   0  0  0  0  0  0  0  0  0  0  0  0
    9.0631  -16.5361   26.2903 C   0  0  0  0  0  0  0  0  0  0  0  0
    8.6566  -17.5612   25.6821 O   0  0  0  0  0  0  0  0  0  0  0  0
    9.2593  -16.6107   27.6552 O   0  0  0  0  0  0  0  0  0  0  0  0
  2  1  1  6
  3  2  1  0
  4  3  1  0
  4  5  1  0
  6  5  1  0
  6  7  1  0
  8  9  2  0
  8  2  1  0
 10 11  1  0
 11 13  1  0
 12 11  2  0
 14 13  1  1
 14 15  1  0
 15  8  1  0
 16 23  1  0
 16 14  1  0
 17 16  2  0
 19 20  1  0
 19 18  1  0
 20 21  1  0
 22 21  1  6
 22 24  1  0
 22 23  1  0
 24 26  1  0
 25 24  2  0
M  END
$$$$
