KNM.pdb
     RDKit          3D

 26 25  0  0  1  0  0  0  0  0999 V2000
    7.5966  -16.4180   19.8072 N   0  0  0  0  0  0  0  0  0  0  0  0
    7.5736  -17.7372   20.3646 C   0  0  1  0  0  0  0  0  0  0  0  0
    7.7132  -18.8040   19.2834 C   0  0  0  0  0  0  0  0  0  0  0  0
    7.4256  -18.2366   17.9329 C   0  0  0  0  0  0  0  0  0  0  0  0
    6.6623  -19.2017   17.0538 C   0  0  0  0  0  0  0  0  0  0  0  0
    6.4583  -18.6143   15.6698 C   0  0  0  0  0  0  0  0  0  0  0  0
    5.7667  -19.5484   14.8190 N   0  0  0  0  0  0  0  0  0  0  0  0
    8.7288  -17.9681   21.2961 C   0  0  0  0  0  0  0  0  0  0  0  0
    8.9246  -19.1010   21.7968 O   0  0  0  0  0  0  0  0  0  0  0  0
   12.2075  -18.5849   21.0200 N   0  0  0  0  0  0  0  0  0  0  0  0
   12.6630  -17.2124   21.2514 C   0  0  0  0  0  0  0  0  0  0  0  0
   13.7197  -16.9525   20.6605 O   0  0  0  0  0  0  0  0  0  0  0  0
   11.8566  -16.3564   22.1085 C   0  0  0  0  0  0  0  0  0  0  0  0
   10.6387  -17.0179   22.6841 C   0  0  2  0  0  0  0  0  0  0  0  0
    9.5827  -16.8895   21.5933 N   0  0  0  0  0  0  0  0  0  0  0  0
   10.0682  -16.3469   23.8588 C   0  0  0  0  0  0  0  0  0  0  0  0
   10.7877  -16.2997   24.9388 O   0  0  0  0  0  0  0  0  0  0  0  0
    6.2805  -10.9513   25.9337 C   0  0  0  0  0  0  0  0  0  0  0  0
    7.1096  -12.3153   26.7957 S   0  0  0  0  0  0  0  0  0  0  0  0
    6.4691  -13.9179   26.2723 C   0  0  0  0  0  0  0  0  0  0  0  0
    7.0991  -14.4041   24.9822 C   0  0  0  0  0  0  0  0  0  0  0  0
    8.2929  -15.2723   25.2672 C   0  0  2  0  0  0  0  0  0  0  0  0
    8.8099  -15.7285   23.9552 N   0  0  0  0  0  0  0  0  0  0  0  0
    7.8514  -16.4566   26.0209 C   0  0  0  0  0  0  0  0  0  0  0  0
    7.3626  -17.4082   25.3564 O   0  0  0  0  0  0  0  0  0  0  0  0
    7.9397  -16.5844   27.3931 O   0  0  0  0  0  0  0  0  0  0  0  0
  2  1  1  6
  3  2  1  0
  4  3  1  0
  4  5  1  0
  6  5  1  0
  6  7  1  0
  8  9  2  0
  8  2  1  0
 10 11  1  0
 11 13  1  0
 12 11  2  0
 14 13  1  6
 14 15  1  0
 15  8  1  0
 16 23  1  0
 16 14  1  0
 17 16  2  0
 19 20  1  0
 19 18  1  0
 20 21  1  0
 22 21  1  6
 22 24  1  0
 22 23  1  0
 24 26  1  0
 25 24  2  0
M  END
$$$$
