KNM.pdb
     RDKit          3D

 26 25  0  0  1  0  0  0  0  0999 V2000
    7.3008  -15.6216   23.3164 N   0  0  0  0  0  0  0  0  0  0  0  0
    7.0104  -16.5152   22.2353 C   0  0  1  0  0  0  0  0  0  0  0  0
    6.9517  -15.7787   20.9009 C   0  0  0  0  0  0  0  0  0  0  0  0
    7.8652  -14.5981   20.9017 C   0  0  0  0  0  0  0  0  0  0  0  0
    7.8285  -13.8411   19.5931 C   0  0  0  0  0  0  0  0  0  0  0  0
    8.8276  -12.6993   19.6101 C   0  0  0  0  0  0  0  0  0  0  0  0
    8.7400  -11.9304   18.3952 N   0  0  0  0  0  0  0  0  0  0  0  0
    8.0845  -17.5511   22.0656 C   0  0  0  0  0  0  0  0  0  0  0  0
    8.2087  -18.1654   20.9794 O   0  0  0  0  0  0  0  0  0  0  0  0
   12.6232  -16.5166   20.5472 N   0  0  0  0  0  0  0  0  0  0  0  0
   11.8058  -15.9454   21.6198 C   0  0  0  0  0  0  0  0  0  0  0  0
   12.3667  -15.0071   22.2014 O   0  0  0  0  0  0  0  0  0  0  0  0
   10.4920  -16.5217   21.8634 C   0  0  0  0  0  0  0  0  0  0  0  0
   10.3854  -17.3217   23.1286 C   0  0  2  0  0  0  0  0  0  0  0  0
    8.9443  -17.8160   23.1478 N   0  0  0  0  0  0  0  0  0  0  0  0
   10.5474  -16.5467   24.3650 C   0  0  0  0  0  0  0  0  0  0  0  0
   11.7390  -16.1272   24.6657 O   0  0  0  0  0  0  0  0  0  0  0  0
    6.1390  -12.3368   26.4712 C   0  0  0  0  0  0  0  0  0  0  0  0
    7.6839  -11.8035   27.2585 S   0  0  0  0  0  0  0  0  0  0  0  0
    8.8616  -13.1625   27.3972 C   0  0  0  0  0  0  0  0  0  0  0  0
    8.7528  -14.1471   26.2499 C   0  0  0  0  0  0  0  0  0  0  0  0
    9.8164  -15.2044   26.3535 C   0  0  2  0  0  0  0  0  0  0  0  0
    9.5427  -16.1896   25.2806 N   0  0  0  0  0  0  0  0  0  0  0  0
    9.6816  -15.8904   27.6485 C   0  0  0  0  0  0  0  0  0  0  0  0
    9.8963  -15.2060   28.6836 O   0  0  0  0  0  0  0  0  0  0  0  0
    9.3390  -17.2203   27.7937 O   0  0  0  0  0  0  0  0  0  0  0  0
  2  1  1  1
  3  2  1  0
  4  3  1  0
  4  5  1  0
  6  5  1  0
  6  7  1  0
  8  9  2  0
  8  2  1  0
 10 11  1  0
 11 13  1  0
 12 11  2  0
 14 13  1  6
 14 15  1  0
 15  8  1  0
 16 23  1  0
 16 14  1  0
 17 16  2  0
 19 20  1  0
 19 18  1  0
 20 21  1  0
 22 21  1  1
 22 24  1  0
 22 23  1  0
 24 26  1  0
 25 24  2  0
M  END
$$$$
