KNM.pdb
     RDKit          3D

 26 25  0  0  1  0  0  0  0  0999 V2000
   11.9280  -19.5565   19.6735 N   0  0  0  0  0  0  0  0  0  0  0  0
   12.6410  -18.3274   19.8539 C   0  0  1  0  0  0  0  0  0  0  0  0
   12.9931  -17.6834   18.5168 C   0  0  0  0  0  0  0  0  0  0  0  0
   14.4590  -17.7742   18.2497 C   0  0  0  0  0  0  0  0  0  0  0  0
   14.7720  -17.8358   16.7715 C   0  0  0  0  0  0  0  0  0  0  0  0
   16.2669  -17.7218   16.5383 C   0  0  0  0  0  0  0  0  0  0  0  0
   16.5688  -17.8049   15.1324 N   0  0  0  0  0  0  0  0  0  0  0  0
   11.8128  -17.3044   20.5770 C   0  0  0  0  0  0  0  0  0  0  0  0
   11.1290  -16.4718   19.9353 O   0  0  0  0  0  0  0  0  0  0  0  0
    7.9336  -16.3333   22.1029 N   0  0  0  0  0  0  0  0  0  0  0  0
    8.2966  -17.7468   21.9796 C   0  0  0  0  0  0  0  0  0  0  0  0
    7.3827  -18.4366   21.5080 O   0  0  0  0  0  0  0  0  0  0  0  0
    9.6270  -18.1540   22.4060 C   0  0  0  0  0  0  0  0  0  0  0  0
   10.5427  -17.0202   22.7641 C   0  0  2  0  0  0  0  0  0  0  0  0
   11.8213  -17.3008   21.9844 N   0  0  0  0  0  0  0  0  0  0  0  0
   10.9488  -16.9759   24.1742 C   0  0  0  0  0  0  0  0  0  0  0  0
   12.0323  -17.6064   24.5131 O   0  0  0  0  0  0  0  0  0  0  0  0
   10.3322  -12.1283   29.0020 C   0  0  0  0  0  0  0  0  0  0  0  0
    9.3408  -12.6610   27.5792 S   0  0  0  0  0  0  0  0  0  0  0  0
   10.1546  -13.9830   26.6611 C   0  0  0  0  0  0  0  0  0  0  0  0
   10.1169  -15.3097   27.3935 C   0  0  0  0  0  0  0  0  0  0  0  0
   10.8307  -16.3727   26.6058 C   0  0  2  0  0  0  0  0  0  0  0  0
   10.2940  -16.3117   25.2256 N   0  0  0  0  0  0  0  0  0  0  0  0
   10.4935  -17.6899   27.1689 C   0  0  0  0  0  0  0  0  0  0  0  0
    9.5200  -18.3002   26.6536 O   0  0  0  0  0  0  0  0  0  0  0  0
   11.1711  -18.2872   28.2136 O   0  0  0  0  0  0  0  0  0  0  0  0
  2  1  1  6
  3  2  1  0
  4  3  1  0
  4  5  1  0
  6  5  1  0
  6  7  1  0
  8  9  2  0
  8  2  1  0
 10 11  1  0
 11 13  1  0
 12 11  2  0
 14 13  1  1
 14 15  1  0
 15  8  1  0
 16 23  1  0
 16 14  1  0
 17 16  2  0
 19 20  1  0
 19 18  1  0
 20 21  1  0
 22 21  1  1
 22 24  1  0
 22 23  1  0
 24 26  1  0
 25 24  2  0
M  END
$$$$
