KNM.pdb
     RDKit          3D

 26 25  0  0  1  0  0  0  0  0999 V2000
    8.6590  -19.9363   23.0738 N   0  0  0  0  0  0  0  0  0  0  0  0
   10.0038  -19.6546   22.6692 C   0  0  1  0  0  0  0  0  0  0  0  0
   10.2951  -20.2017   21.2756 C   0  0  0  0  0  0  0  0  0  0  0  0
   10.2551  -21.6940   21.2684 C   0  0  0  0  0  0  0  0  0  0  0  0
   10.4926  -22.2695   19.8903 C   0  0  0  0  0  0  0  0  0  0  0  0
   10.2875  -23.7728   19.8983 C   0  0  0  0  0  0  0  0  0  0  0  0
   10.5882  -24.3328   18.6057 N   0  0  0  0  0  0  0  0  0  0  0  0
   10.2581  -18.1775   22.5726 C   0  0  0  0  0  0  0  0  0  0  0  0
   11.3608  -17.7486   22.1570 O   0  0  0  0  0  0  0  0  0  0  0  0
    8.9424  -16.3426   20.1322 N   0  0  0  0  0  0  0  0  0  0  0  0
    7.8859  -15.6310   20.8549 C   0  0  0  0  0  0  0  0  0  0  0  0
    6.8961  -15.3975   20.1485 O   0  0  0  0  0  0  0  0  0  0  0  0
    8.1143  -15.2983   22.2530 C   0  0  0  0  0  0  0  0  0  0  0  0
    9.4220  -15.7851   22.8055 C   0  0  2  0  0  0  0  0  0  0  0  0
    9.2361  -17.2898   22.9575 N   0  0  0  0  0  0  0  0  0  0  0  0
    9.7446  -15.2951   24.1514 C   0  0  0  0  0  0  0  0  0  0  0  0
   10.1945  -14.0821   24.2631 O   0  0  0  0  0  0  0  0  0  0  0  0
    6.1890  -12.0127   26.0772 C   0  0  0  0  0  0  0  0  0  0  0  0
    7.4804  -12.1457   27.3442 S   0  0  0  0  0  0  0  0  0  0  0  0
    8.8838  -13.1175   26.7618 C   0  0  0  0  0  0  0  0  0  0  0  0
    8.7536  -14.5894   27.0998 C   0  0  0  0  0  0  0  0  0  0  0  0
    9.9702  -15.3485   26.6487 C   0  0  2  0  0  0  0  0  0  0  0  0
    9.6155  -15.9953   25.3631 N   0  0  0  0  0  0  0  0  0  0  0  0
   10.2606  -16.4081   27.6279 C   0  0  0  0  0  0  0  0  0  0  0  0
   10.0453  -17.5952   27.2670 O   0  0  0  0  0  0  0  0  0  0  0  0
   10.7477  -16.1811   28.9001 O   0  0  0  0  0  0  0  0  0  0  0  0
  2  1  1  6
  3  2  1  0
  4  3  1  0
  4  5  1  0
  6  5  1  0
  6  7  1  0
  8  9  2  0
  8  2  1  0
 10 11  1  0
 11 13  1  0
 12 11  2  0
 14 13  1  1
 14 15  1  0
 15  8  1  0
 16 23  1  0
 16 14  1  0
 17 16  2  0
 19 20  1  0
 19 18  1  0
 20 21  1  0
 22 21  1  1
 22 24  1  0
 22 23  1  0
 24 26  1  0
 25 24  2  0
M  END
$$$$
