KNM.pdb
     RDKit          3D

 26 25  0  0  1  0  0  0  0  0999 V2000
    7.2645  -17.9489   20.0795 N   0  0  0  0  0  0  0  0  0  0  0  0
    8.6912  -18.0698   20.1152 C   0  0  1  0  0  0  0  0  0  0  0  0
    9.2623  -18.3686   18.7328 C   0  0  0  0  0  0  0  0  0  0  0  0
    8.6395  -19.5942   18.1510 C   0  0  0  0  0  0  0  0  0  0  0  0
    7.8037  -19.2900   16.9280 C   0  0  0  0  0  0  0  0  0  0  0  0
    7.1836  -20.5605   16.3772 C   0  0  0  0  0  0  0  0  0  0  0  0
    6.2509  -20.2542   15.3231 N   0  0  0  0  0  0  0  0  0  0  0  0
    9.3478  -16.7887   20.5433 C   0  0  0  0  0  0  0  0  0  0  0  0
   10.5974  -16.6835   20.5406 O   0  0  0  0  0  0  0  0  0  0  0  0
    6.8466  -13.4621   18.7696 N   0  0  0  0  0  0  0  0  0  0  0  0
    8.1883  -13.4145   19.3548 C   0  0  0  0  0  0  0  0  0  0  0  0
    9.0846  -13.4474   18.5011 O   0  0  0  0  0  0  0  0  0  0  0  0
    8.3035  -13.3376   20.8034 C   0  0  0  0  0  0  0  0  0  0  0  0
    9.1567  -14.4072   21.4200 C   0  0  2  0  0  0  0  0  0  0  0  0
    8.5332  -15.7141   20.9459 N   0  0  0  0  0  0  0  0  0  0  0  0
    9.1120  -14.4642   22.8864 C   0  0  0  0  0  0  0  0  0  0  0  0
    9.4106  -13.3852   23.5444 O   0  0  0  0  0  0  0  0  0  0  0  0
    6.6239  -11.0274   27.3956 C   0  0  0  0  0  0  0  0  0  0  0  0
    6.3065  -12.4433   26.3068 S   0  0  0  0  0  0  0  0  0  0  0  0
    7.5566  -13.7278   26.5070 C   0  0  0  0  0  0  0  0  0  0  0  0
    7.3955  -14.8581   25.5099 C   0  0  0  0  0  0  0  0  0  0  0  0
    8.7309  -15.4529   25.1596 C   0  0  2  0  0  0  0  0  0  0  0  0
    8.7699  -15.5706   23.6826 N   0  0  0  0  0  0  0  0  0  0  0  0
    8.8126  -16.8080   25.7278 C   0  0  0  0  0  0  0  0  0  0  0  0
    8.6478  -17.7720   24.9344 O   0  0  0  0  0  0  0  0  0  0  0  0
    9.0552  -17.0811   27.0596 O   0  0  0  0  0  0  0  0  0  0  0  0
  2  1  1  6
  3  2  1  0
  4  3  1  0
  4  5  1  0
  6  5  1  0
  6  7  1  0
  8  9  2  0
  8  2  1  0
 10 11  1  0
 11 13  1  0
 12 11  2  0
 14 13  1  6
 14 15  1  0
 15  8  1  0
 16 23  1  0
 16 14  1  0
 17 16  2  0
 19 20  1  0
 19 18  1  0
 20 21  1  0
 22 21  1  6
 22 24  1  0
 22 23  1  0
 24 26  1  0
 25 24  2  0
M  END
$$$$
