THP.pdb
     RDKit          3D

 25 26  0  0  1  0  0  0  0  0999 V2000
    9.7332  -13.9448   18.9506 C   0  0  0  0  0  0  0  0  0  0  0  0
    9.0954  -14.0646   20.2907 C   0  0  1  0  0  0  0  0  0  0  0  0
    9.1930  -12.8683   20.9654 O   0  0  0  0  0  0  0  0  0  0  0  0
    7.6574  -14.5048   20.2514 C   0  0  2  0  0  0  0  0  0  0  0  0
    6.8086  -13.5941   19.5310 N   0  0  0  0  0  0  0  0  0  0  0  0
    7.0963  -14.7312   21.6054 C   0  0  0  0  0  0  0  0  0  0  0  0
    6.2889  -13.9333   22.1505 O   0  0  0  0  0  0  0  0  0  0  0  0
    7.4569  -15.8773   22.3480 N   0  0  0  0  0  0  0  0  0  0  0  0
    7.0494  -16.0514   23.7455 C   0  0  1  0  0  0  0  0  0  0  0  0
    7.1415  -17.5116   23.9841 C   0  0  0  0  0  0  0  0  0  0  0  0
    7.0536  -18.0032   25.3478 C   0  0  0  0  0  0  0  0  0  0  0  0
    6.8227  -17.0963   26.4017 C   0  0  0  0  0  0  0  0  0  0  0  0
    6.7814  -17.7629   27.5408 N   0  0  0  0  0  0  0  0  0  0  0  0
    6.9750  -19.0614   27.2743 C   0  0  0  0  0  0  0  0  0  0  0  0
    7.1366  -19.1840   25.9498 N   0  0  0  0  0  0  0  0  0  0  0  0
    7.9308  -15.2753   24.6459 C   0  0  0  0  0  0  0  0  0  0  0  0
    9.1492  -15.1527   24.1893 O   0  0  0  0  0  0  0  0  0  0  0  0
    7.6760  -14.6763   25.8611 N   0  0  0  0  0  0  0  0  0  0  0  0
    6.5460  -14.6034   26.7076 C   0  0  0  0  0  0  0  0  0  0  0  0
    6.4166  -13.0622   26.8089 C   0  0  0  0  0  0  0  0  0  0  0  0
    7.8738  -12.7314   27.1086 C   0  0  0  0  0  0  0  0  0  0  0  0
    8.6877  -13.9080   26.6177 C   0  0  1  0  0  0  0  0  0  0  0  0
    9.2146  -14.6404   27.7656 C   0  0  0  0  0  0  0  0  0  0  0  0
    8.8116  -15.7355   28.2103 O   0  0  0  0  0  0  0  0  0  0  0  0
   10.2848  -14.0560   28.4416 O   0  0  0  0  0  0  0  0  0  0  0  0
  2  1  1  6
  3  2  1  0
  4  5  1  1
  4  2  1  0
  4  6  1  0
  6  7  2  0
  8  6  1  0
  8  9  1  0
  9 16  1  0
 10 11  1  0
  9 10  1  1
 11 12  2  0
 13 12  1  0
 14 13  1  0
 15 14  2  0
 15 11  1  0
 16 17  2  0
 18 16  1  0
 18 22  1  0
 19 18  1  0
 20 19  1  0
 20 21  1  0
 21 22  1  0
 22 23  1  1
 23 25  1  0
 24 23  2  0
M  END
$$$$
