THP.pdb
     RDKit          3D

 25 26  0  0  1  0  0  0  0  0999 V2000
    8.4566  -12.5071   20.1119 C   0  0  0  0  0  0  0  0  0  0  0  0
    8.0060  -13.6108   19.2198 C   0  0  1  0  0  0  0  0  0  0  0  0
    8.6357  -13.5143   17.9992 O   0  0  0  0  0  0  0  0  0  0  0  0
    8.2176  -14.9876   19.7882 C   0  0  2  0  0  0  0  0  0  0  0  0
    7.8449  -16.0367   18.8776 N   0  0  0  0  0  0  0  0  0  0  0  0
    7.5116  -15.1836   21.0776 C   0  0  0  0  0  0  0  0  0  0  0  0
    6.3924  -15.7546   21.1617 O   0  0  0  0  0  0  0  0  0  0  0  0
    8.0840  -14.7254   22.2849 N   0  0  0  0  0  0  0  0  0  0  0  0
    7.6337  -15.2202   23.5894 C   0  0  1  0  0  0  0  0  0  0  0  0
    7.9303  -16.6724   23.5626 C   0  0  0  0  0  0  0  0  0  0  0  0
    7.7870  -17.4370   24.7889 C   0  0  0  0  0  0  0  0  0  0  0  0
    6.5140  -17.9035   25.1743 C   0  0  0  0  0  0  0  0  0  0  0  0
    6.6255  -18.5672   26.3103 N   0  0  0  0  0  0  0  0  0  0  0  0
    7.9129  -18.5528   26.6801 C   0  0  0  0  0  0  0  0  0  0  0  0
    8.5941  -17.8681   25.7514 N   0  0  0  0  0  0  0  0  0  0  0  0
    8.3403  -14.5195   24.6847 C   0  0  0  0  0  0  0  0  0  0  0  0
    9.6184  -14.3701   24.4565 O   0  0  0  0  0  0  0  0  0  0  0  0
    7.8746  -14.0124   25.8790 N   0  0  0  0  0  0  0  0  0  0  0  0
    6.6267  -14.0395   26.5429 C   0  0  0  0  0  0  0  0  0  0  0  0
    6.4087  -12.5145   26.7141 C   0  0  0  0  0  0  0  0  0  0  0  0
    7.7855  -12.1479   27.2551 C   0  0  0  0  0  0  0  0  0  0  0  0
    8.7208  -13.2570   26.8275 C   0  0  1  0  0  0  0  0  0  0  0  0
    9.1017  -14.0425   27.9978 C   0  0  0  0  0  0  0  0  0  0  0  0
    8.6941  -15.1820   28.3057 O   0  0  0  0  0  0  0  0  0  0  0  0
   10.0209  -13.4596   28.8690 O   0  0  0  0  0  0  0  0  0  0  0  0
  2  1  1  1
  3  2  1  0
  4  5  1  6
  4  2  1  0
  4  6  1  0
  6  7  2  0
  8  6  1  0
  8  9  1  0
  9 16  1  0
 10 11  1  0
  9 10  1  6
 11 12  2  0
 13 12  1  0
 14 13  1  0
 15 14  2  0
 15 11  1  0
 16 17  2  0
 18 16  1  0
 18 22  1  0
 19 18  1  0
 20 19  1  0
 20 21  1  0
 21 22  1  0
 22 23  1  1
 23 25  1  0
 24 23  2  0
M  END
$$$$
