THP.pdb
     RDKit          3D

 25 26  0  0  1  0  0  0  0  0999 V2000
   10.9822  -16.4010   18.8378 C   0  0  0  0  0  0  0  0  0  0  0  0
   10.0557  -16.0884   19.9607 C   0  0  1  0  0  0  0  0  0  0  0  0
    9.5400  -14.8213   19.8046 O   0  0  0  0  0  0  0  0  0  0  0  0
    8.9305  -17.0736   20.1232 C   0  0  2  0  0  0  0  0  0  0  0  0
    8.1720  -17.2670   18.9165 N   0  0  0  0  0  0  0  0  0  0  0  0
    8.0106  -16.7069   21.2271 C   0  0  0  0  0  0  0  0  0  0  0  0
    6.7820  -16.9828   21.2104 O   0  0  0  0  0  0  0  0  0  0  0  0
    8.4925  -16.0189   22.3628 N   0  0  0  0  0  0  0  0  0  0  0  0
    7.7585  -16.0148   23.6319 C   0  0  1  0  0  0  0  0  0  0  0  0
    7.5357  -17.4474   23.9412 C   0  0  0  0  0  0  0  0  0  0  0  0
    7.1736  -17.8209   25.2971 C   0  0  0  0  0  0  0  0  0  0  0  0
    8.1786  -18.2159   26.2029 C   0  0  0  0  0  0  0  0  0  0  0  0
    7.6205  -18.5064   27.3638 N   0  0  0  0  0  0  0  0  0  0  0  0
    6.2989  -18.3180   27.2529 C   0  0  0  0  0  0  0  0  0  0  0  0
    6.0515  -17.9059   26.0022 N   0  0  0  0  0  0  0  0  0  0  0  0
    8.5390  -15.3248   24.6830 C   0  0  0  0  0  0  0  0  0  0  0  0
    9.8305  -15.4195   24.5072 O   0  0  0  0  0  0  0  0  0  0  0  0
    8.1288  -14.6157   25.7917 N   0  0  0  0  0  0  0  0  0  0  0  0
    6.8860  -14.4293   26.4396 C   0  0  0  0  0  0  0  0  0  0  0  0
    6.8197  -12.8813   26.3984 C   0  0  0  0  0  0  0  0  0  0  0  0
    8.2275  -12.5806   26.8991 C   0  0  0  0  0  0  0  0  0  0  0  0
    9.0478  -13.8240   26.6372 C   0  0  1  0  0  0  0  0  0  0  0  0
    9.3526  -14.4752   27.9079 C   0  0  0  0  0  0  0  0  0  0  0  0
    8.8429  -15.5220   28.3595 O   0  0  0  0  0  0  0  0  0  0  0  0
   10.3180  -13.8643   28.7070 O   0  0  0  0  0  0  0  0  0  0  0  0
  2  1  1  6
  3  2  1  0
  4  5  1  6
  4  2  1  0
  4  6  1  0
  6  7  2  0
  8  6  1  0
  8  9  1  0
  9 16  1  0
 10 11  1  0
  9 10  1  1
 11 12  2  0
 13 12  1  0
 14 13  1  0
 15 14  2  0
 15 11  1  0
 16 17  2  0
 18 16  1  0
 18 22  1  0
 19 18  1  0
 20 19  1  0
 20 21  1  0
 21 22  1  0
 22 23  1  1
 23 25  1  0
 24 23  2  0
M  END
$$$$
