THP.pdb
     RDKit          3D

 25 26  0  0  1  0  0  0  0  0999 V2000
   11.9518  -20.5671   18.6629 C   0  0  0  0  0  0  0  0  0  0  0  0
   11.7000  -19.7321   19.8697 C   0  0  1  0  0  0  0  0  0  0  0  0
   12.1883  -20.3670   20.9897 O   0  0  0  0  0  0  0  0  0  0  0  0
   12.2724  -18.3432   19.7883 C   0  0  2  0  0  0  0  0  0  0  0  0
   13.6975  -18.3315   19.5939 N   0  0  0  0  0  0  0  0  0  0  0  0
   11.9323  -17.5192   20.9734 C   0  0  0  0  0  0  0  0  0  0  0  0
   12.7851  -17.1824   21.8366 O   0  0  0  0  0  0  0  0  0  0  0  0
   10.6081  -17.0731   21.1799 N   0  0  0  0  0  0  0  0  0  0  0  0
   10.2531  -16.2038   22.3057 C   0  0  1  0  0  0  0  0  0  0  0  0
    9.4269  -15.1297   21.7045 C   0  0  0  0  0  0  0  0  0  0  0  0
    8.0380  -15.4118   21.3874 C   0  0  0  0  0  0  0  0  0  0  0  0
    7.5484  -16.7276   21.5118 C   0  0  0  0  0  0  0  0  0  0  0  0
    6.2721  -16.7449   21.1737 N   0  0  0  0  0  0  0  0  0  0  0  0
    5.9108  -15.5001   20.8354 C   0  0  0  0  0  0  0  0  0  0  0  0
    6.9876  -14.7142   20.9709 N   0  0  0  0  0  0  0  0  0  0  0  0
    9.5215  -16.9659   23.3420 C   0  0  0  0  0  0  0  0  0  0  0  0
    9.3571  -18.2246   23.0317 O   0  0  0  0  0  0  0  0  0  0  0  0
    8.9980  -16.5671   24.5534 N   0  0  0  0  0  0  0  0  0  0  0  0
    8.7133  -15.3128   25.1405 C   0  0  0  0  0  0  0  0  0  0  0  0
    9.5471  -15.4568   26.4391 C   0  0  0  0  0  0  0  0  0  0  0  0
    9.0826  -16.8479   26.8539 C   0  0  0  0  0  0  0  0  0  0  0  0
    8.5583  -17.5135   25.6009 C   0  0  1  0  0  0  0  0  0  0  0  0
    7.1053  -17.6271   25.6891 C   0  0  0  0  0  0  0  0  0  0  0  0
    6.2579  -16.9679   25.0514 O   0  0  0  0  0  0  0  0  0  0  0  0
    6.6060  -18.5743   26.5821 O   0  0  0  0  0  0  0  0  0  0  0  0
  2  1  1  6
  3  2  1  0
  4  5  1  1
  4  2  1  0
  4  6  1  0
  6  7  2  0
  8  6  1  0
  8  9  1  0
  9 16  1  0
 10 11  1  0
  9 10  1  6
 11 12  2  0
 13 12  1  0
 14 13  1  0
 15 14  2  0
 15 11  1  0
 16 17  2  0
 18 16  1  0
 18 22  1  0
 19 18  1  0
 20 19  1  0
 20 21  1  0
 21 22  1  0
 22 23  1  1
 23 25  1  0
 24 23  2  0
M  END
$$$$
