THP.pdb
     RDKit          3D

 25 26  0  0  1  0  0  0  0  0999 V2000
    9.9455  -14.2168   18.3054 C   0  0  0  0  0  0  0  0  0  0  0  0
    9.4529  -14.2758   19.7092 C   0  0  1  0  0  0  0  0  0  0  0  0
   10.0379  -13.2766   20.4543 O   0  0  0  0  0  0  0  0  0  0  0  0
    7.9566  -14.1920   19.8410 C   0  0  2  0  0  0  0  0  0  0  0  0
    7.4049  -13.0006   19.2535 N   0  0  0  0  0  0  0  0  0  0  0  0
    7.5043  -14.2991   21.2493 C   0  0  0  0  0  0  0  0  0  0  0  0
    7.1203  -13.3043   21.9192 O   0  0  0  0  0  0  0  0  0  0  0  0
    7.4883  -15.5509   21.9035 N   0  0  0  0  0  0  0  0  0  0  0  0
    7.0278  -15.6924   23.2881 C   0  0  1  0  0  0  0  0  0  0  0  0
    6.8986  -17.1549   23.4930 C   0  0  0  0  0  0  0  0  0  0  0  0
    6.8023  -17.6642   24.8496 C   0  0  0  0  0  0  0  0  0  0  0  0
    7.9566  -18.1529   25.4939 C   0  0  0  0  0  0  0  0  0  0  0  0
    7.6318  -18.5591   26.7076 N   0  0  0  0  0  0  0  0  0  0  0  0
    6.3190  -18.3563   26.8806 C   0  0  0  0  0  0  0  0  0  0  0  0
    5.8395  -17.8175   25.7513 N   0  0  0  0  0  0  0  0  0  0  0  0
    7.9930  -15.0741   24.2241 C   0  0  0  0  0  0  0  0  0  0  0  0
    9.2282  -15.1377   23.8021 O   0  0  0  0  0  0  0  0  0  0  0  0
    7.7997  -14.4571   25.4417 N   0  0  0  0  0  0  0  0  0  0  0  0
    6.6736  -14.2336   26.2669 C   0  0  0  0  0  0  0  0  0  0  0  0
    6.7608  -12.6907   26.3853 C   0  0  0  0  0  0  0  0  0  0  0  0
    8.2435  -12.5721   26.7174 C   0  0  0  0  0  0  0  0  0  0  0  0
    8.8935  -13.8470   26.2275 C   0  0  1  0  0  0  0  0  0  0  0  0
    9.2874  -14.6577   27.3761 C   0  0  0  0  0  0  0  0  0  0  0  0
    8.7479  -15.7105   27.7759 O   0  0  0  0  0  0  0  0  0  0  0  0
   10.3859  -14.2104   28.1089 O   0  0  0  0  0  0  0  0  0  0  0  0
  2  1  1  6
  3  2  1  0
  4  5  1  1
  4  2  1  0
  4  6  1  0
  6  7  2  0
  8  6  1  0
  8  9  1  0
  9 16  1  0
 10 11  1  0
  9 10  1  1
 11 12  2  0
 13 12  1  0
 14 13  1  0
 15 14  2  0
 15 11  1  0
 16 17  2  0
 18 16  1  0
 18 22  1  0
 19 18  1  0
 20 19  1  0
 20 21  1  0
 21 22  1  0
 22 23  1  1
 23 25  1  0
 24 23  2  0
M  END
$$$$
