THP.pdb
     RDKit          3D

 25 26  0  0  1  0  0  0  0  0999 V2000
    8.7716  -12.9530   21.1476 C   0  0  0  0  0  0  0  0  0  0  0  0
    7.9588  -13.7882   20.2208 C   0  0  1  0  0  0  0  0  0  0  0  0
    8.4192  -13.6420   18.9314 O   0  0  0  0  0  0  0  0  0  0  0  0
    7.9219  -15.2487   20.5799 C   0  0  2  0  0  0  0  0  0  0  0  0
    7.0931  -16.0252   19.6972 N   0  0  0  0  0  0  0  0  0  0  0  0
    7.4947  -15.4776   21.9814 C   0  0  0  0  0  0  0  0  0  0  0  0
    6.3300  -15.2255   22.3886 O   0  0  0  0  0  0  0  0  0  0  0  0
    8.4014  -15.9988   22.9309 N   0  0  0  0  0  0  0  0  0  0  0  0
    8.0199  -16.2030   24.3316 C   0  0  1  0  0  0  0  0  0  0  0  0
    8.0047  -17.6751   24.5055 C   0  0  0  0  0  0  0  0  0  0  0  0
    6.9788  -18.4478   23.8276 C   0  0  0  0  0  0  0  0  0  0  0  0
    5.6422  -18.0009   23.8486 C   0  0  0  0  0  0  0  0  0  0  0  0
    4.8934  -18.8538   23.1737 N   0  0  0  0  0  0  0  0  0  0  0  0
    5.6830  -19.8341   22.7155 C   0  0  0  0  0  0  0  0  0  0  0  0
    6.9330  -19.5706   23.1199 N   0  0  0  0  0  0  0  0  0  0  0  0
    8.9833  -15.5373   25.2364 C   0  0  0  0  0  0  0  0  0  0  0  0
   10.2015  -15.5192   24.7637 O   0  0  0  0  0  0  0  0  0  0  0  0
    8.8031  -14.9482   26.4697 N   0  0  0  0  0  0  0  0  0  0  0  0
    7.6730  -14.6516   27.2659 C   0  0  0  0  0  0  0  0  0  0  0  0
    7.8949  -13.1281   27.4456 C   0  0  0  0  0  0  0  0  0  0  0  0
    9.3694  -13.1574   27.8299 C   0  0  0  0  0  0  0  0  0  0  0  0
    9.9187  -14.4685   27.3132 C   0  0  1  0  0  0  0  0  0  0  0  0
   10.1966  -15.3515   28.4422 C   0  0  0  0  0  0  0  0  0  0  0  0
    9.5620  -16.3752   28.7723 O   0  0  0  0  0  0  0  0  0  0  0  0
   11.2894  -15.0184   29.2414 O   0  0  0  0  0  0  0  0  0  0  0  0
  2  1  1  1
  3  2  1  0
  4  5  1  6
  4  2  1  0
  4  6  1  0
  6  7  2  0
  8  6  1  0
  8  9  1  0
  9 16  1  0
 10 11  1  0
  9 10  1  1
 11 12  2  0
 13 12  1  0
 14 13  1  0
 15 14  2  0
 15 11  1  0
 16 17  2  0
 18 16  1  0
 18 22  1  0
 19 18  1  0
 20 19  1  0
 20 21  1  0
 21 22  1  0
 22 23  1  1
 23 25  1  0
 24 23  2  0
M  END
$$$$
