THP.pdb
     RDKit          3D

 25 26  0  0  1  0  0  0  0  0999 V2000
   12.1268  -17.4080   22.2725 C   0  0  0  0  0  0  0  0  0  0  0  0
   12.9344  -16.5285   21.3830 C   0  0  1  0  0  0  0  0  0  0  0  0
   13.9056  -17.2690   20.7472 O   0  0  0  0  0  0  0  0  0  0  0  0
   12.1258  -15.7759   20.3618 C   0  0  2  0  0  0  0  0  0  0  0  0
   12.9353  -14.9898   19.4698 N   0  0  0  0  0  0  0  0  0  0  0  0
   11.0952  -14.9083   20.9818 C   0  0  0  0  0  0  0  0  0  0  0  0
   11.3650  -13.7918   21.4980 O   0  0  0  0  0  0  0  0  0  0  0  0
    9.7426  -15.3142   21.0155 N   0  0  0  0  0  0  0  0  0  0  0  0
    8.7135  -14.5157   21.6883 C   0  0  1  0  0  0  0  0  0  0  0  0
    7.5170  -14.6389   20.8218 C   0  0  0  0  0  0  0  0  0  0  0  0
    7.6084  -14.2041   19.4391 C   0  0  0  0  0  0  0  0  0  0  0  0
    7.9937  -12.8797   19.1493 C   0  0  0  0  0  0  0  0  0  0  0  0
    8.0077  -12.7133   17.8395 N   0  0  0  0  0  0  0  0  0  0  0  0
    7.6490  -13.8694   17.2657 C   0  0  0  0  0  0  0  0  0  0  0  0
    7.4133  -14.7525   18.2455 N   0  0  0  0  0  0  0  0  0  0  0  0
    8.4736  -15.0221   23.0579 C   0  0  0  0  0  0  0  0  0  0  0  0
    9.2723  -16.0021   23.3888 O   0  0  0  0  0  0  0  0  0  0  0  0
    7.5622  -14.6331   24.0164 N   0  0  0  0  0  0  0  0  0  0  0  0
    6.4592  -13.7488   24.0279 C   0  0  0  0  0  0  0  0  0  0  0  0
    6.8964  -12.8294   25.1967 C   0  0  0  0  0  0  0  0  0  0  0  0
    7.2833  -13.9081   26.2014 C   0  0  0  0  0  0  0  0  0  0  0  0
    7.5599  -15.1595   25.3981 C   0  0  1  0  0  0  0  0  0  0  0  0
    6.4932  -16.1279   25.6345 C   0  0  0  0  0  0  0  0  0  0  0  0
    6.2627  -16.7522   26.6911 O   0  0  0  0  0  0  0  0  0  0  0  0
    5.6362  -16.3864   24.5655 O   0  0  0  0  0  0  0  0  0  0  0  0
  2  1  1  6
  3  2  1  0
  4  5  1  1
  4  2  1  0
  4  6  1  0
  6  7  2  0
  8  6  1  0
  8  9  1  0
  9 16  1  0
 10 11  1  0
  9 10  1  6
 11 12  2  0
 13 12  1  0
 14 13  1  0
 15 14  2  0
 15 11  1  0
 16 17  2  0
 18 16  1  0
 18 22  1  0
 19 18  1  0
 20 19  1  0
 20 21  1  0
 21 22  1  0
 22 23  1  6
 23 25  1  0
 24 23  2  0
M  END
$$$$
