VVW.pdb
     RDKit          3D

 29 30  0  0  1  0  0  0  0  0999 V2000
    6.9982  -19.7581   23.3615 C   0  0  0  0  0  0  0  0  0  0  0  0
    5.7248  -19.2096   22.7624 C   0  0  2  0  0  0  0  0  0  0  0  0
    4.6819  -20.3196   22.8236 C   0  0  0  0  0  0  0  0  0  0  0  0
    5.9447  -18.7311   21.3394 C   0  0  2  0  0  0  0  0  0  0  0  0
    6.2896  -19.8778   20.5517 N   0  0  0  0  0  0  0  0  0  0  0  0
    6.9607  -17.6603   21.2761 C   0  0  0  0  0  0  0  0  0  0  0  0
    8.1717  -17.9331   21.0771 O   0  0  0  0  0  0  0  0  0  0  0  0
    6.7819  -14.0436   19.5010 C   0  0  0  0  0  0  0  0  0  0  0  0
    7.2112  -13.9566   20.9215 C   0  0  2  0  0  0  0  0  0  0  0  0
    8.3857  -12.9876   21.0048 C   0  0  0  0  0  0  0  0  0  0  0  0
    7.6863  -15.2592   21.5132 C   0  0  2  0  0  0  0  0  0  0  0  0
    6.6513  -16.2687   21.4319 N   0  0  0  0  0  0  0  0  0  0  0  0
    8.2388  -15.1119   22.8721 C   0  0  0  0  0  0  0  0  0  0  0  0
    7.6744  -14.3618   23.7024 O   0  0  0  0  0  0  0  0  0  0  0  0
    9.4037  -15.7970   23.2853 N   0  0  0  0  0  0  0  0  0  0  0  0
   10.0448  -15.3995   24.5292 C   0  0  1  0  0  0  0  0  0  0  0  0
    9.2967  -16.0374   25.7137 C   0  0  0  0  0  0  0  0  0  0  0  0
    8.0000  -15.3615   25.8507 C   0  0  0  0  0  0  0  0  0  0  0  0
    6.7447  -15.8760   25.5987 C   0  0  0  0  0  0  0  0  0  0  0  0
    5.8333  -14.9235   25.8491 N   0  0  0  0  0  0  0  0  0  0  0  0
    6.4743  -13.8005   26.2587 C   0  0  0  0  0  0  0  0  0  0  0  0
    6.0010  -12.5526   26.6333 C   0  0  0  0  0  0  0  0  0  0  0  0
    6.8368  -11.5358   27.0196 C   0  0  0  0  0  0  0  0  0  0  0  0
    8.1853  -11.7974   27.0240 C   0  0  0  0  0  0  0  0  0  0  0  0
    8.6674  -13.0346   26.6536 C   0  0  0  0  0  0  0  0  0  0  0  0
    7.8235  -14.0680   26.2614 C   0  0  0  0  0  0  0  0  0  0  0  0
   11.4655  -15.7731   24.5543 C   0  0  0  0  0  0  0  0  0  0  0  0
   11.9423  -16.4730   23.6405 O   0  0  0  0  0  0  0  0  0  0  0  0
   12.2893  -15.3604   25.5790 O   0  0  0  0  0  0  0  0  0  0  0  0
  2  1  1  6
  2  3  1  0
  4  5  1  6
  4  2  1  0
  6  4  1  0
  7  6  2  0
  9  8  1  6
  9 11  1  0
 10  9  1  0
 11 12  1  1
 12  6  1  0
 13 11  1  0
 13 14  2  0
 15 16  1  0
 15 13  1  0
 16 17  1  1
 18 17  1  0
 19 18  2  0
 20 19  1  0
 21 20  1  0
 21 26  2  0
 22 21  1  0
 23 22  2  0
 23 24  1  0
 24 25  2  0
 25 26  1  0
 26 18  1  0
 27 16  1  0
 28 27  2  0
 29 27  1  0
M  END
$$$$
