VVW.pdb
     RDKit          3D

 29 30  0  0  1  0  0  0  0  0999 V2000
    5.3452  -18.9714   22.6806 C   0  0  0  0  0  0  0  0  0  0  0  0
    4.5332  -17.9581   21.9091 C   0  0  2  0  0  0  0  0  0  0  0  0
    3.1528  -18.5635   21.6822 C   0  0  0  0  0  0  0  0  0  0  0  0
    5.2037  -17.5954   20.5973 C   0  0  2  0  0  0  0  0  0  0  0  0
    5.2375  -18.7812   19.7928 N   0  0  0  0  0  0  0  0  0  0  0  0
    6.5414  -17.0066   20.8142 C   0  0  0  0  0  0  0  0  0  0  0  0
    7.5682  -17.7317   20.8338 O   0  0  0  0  0  0  0  0  0  0  0  0
    7.3913  -12.6469   21.0030 C   0  0  0  0  0  0  0  0  0  0  0  0
    8.2397  -13.7466   20.4734 C   0  0  2  0  0  0  0  0  0  0  0  0
    7.8350  -14.0047   19.0260 C   0  0  0  0  0  0  0  0  0  0  0  0
    8.0914  -15.0584   21.2012 C   0  0  2  0  0  0  0  0  0  0  0  0
    6.7633  -15.6038   21.0127 N   0  0  0  0  0  0  0  0  0  0  0  0
    8.4844  -14.9823   22.6202 C   0  0  0  0  0  0  0  0  0  0  0  0
    8.0494  -14.0566   23.3443 O   0  0  0  0  0  0  0  0  0  0  0  0
    9.3500  -15.9313   23.2095 N   0  0  0  0  0  0  0  0  0  0  0  0
   10.0141  -15.5915   24.4585 C   0  0  1  0  0  0  0  0  0  0  0  0
    9.2488  -16.2300   25.6316 C   0  0  0  0  0  0  0  0  0  0  0  0
    8.0178  -15.4582   25.8464 C   0  0  0  0  0  0  0  0  0  0  0  0
    6.7133  -15.8873   25.7113 C   0  0  0  0  0  0  0  0  0  0  0  0
    5.8940  -14.8644   25.9992 N   0  0  0  0  0  0  0  0  0  0  0  0
    6.6429  -13.7796   26.3186 C   0  0  0  0  0  0  0  0  0  0  0  0
    6.2899  -12.4904   26.6859 C   0  0  0  0  0  0  0  0  0  0  0  0
    7.2232  -11.5262   26.9703 C   0  0  0  0  0  0  0  0  0  0  0  0
    8.5460  -11.8847   26.8782 C   0  0  0  0  0  0  0  0  0  0  0  0
    8.9089  -13.1637   26.5140 C   0  0  0  0  0  0  0  0  0  0  0  0
    7.9659  -14.1440   26.2249 C   0  0  0  0  0  0  0  0  0  0  0  0
   11.4190  -16.0212   24.4637 C   0  0  0  0  0  0  0  0  0  0  0  0
   11.8681  -16.6964   23.5177 O   0  0  0  0  0  0  0  0  0  0  0  0
   12.2584  -15.6887   25.5049 O   0  0  0  0  0  0  0  0  0  0  0  0
  2  1  1  6
  2  3  1  0
  4  5  1  6
  4  2  1  0
  6  4  1  0
  7  6  2  0
  9  8  1  1
  9 11  1  0
 10  9  1  0
 11 12  1  1
 12  6  1  0
 13 11  1  0
 13 14  2  0
 15 16  1  0
 15 13  1  0
 16 17  1  1
 18 17  1  0
 19 18  2  0
 20 19  1  0
 21 20  1  0
 21 26  2  0
 22 21  1  0
 23 22  2  0
 23 24  1  0
 24 25  2  0
 25 26  1  0
 26 18  1  0
 27 16  1  0
 28 27  2  0
 29 27  1  0
M  END
$$$$
