VVW.pdb
     RDKit          3D

 29 30  0  0  1  0  0  0  0  0999 V2000
    6.7572  -13.7984   19.2052 C   0  0  0  0  0  0  0  0  0  0  0  0
    7.8474  -12.9059   19.7494 C   0  0  2  0  0  0  0  0  0  0  0  0
    8.1784  -11.8853   18.6665 C   0  0  0  0  0  0  0  0  0  0  0  0
    9.0710  -13.7088   20.1495 C   0  0  2  0  0  0  0  0  0  0  0  0
    9.6235  -14.2704   18.9521 N   0  0  0  0  0  0  0  0  0  0  0  0
    8.7441  -14.7280   21.1680 C   0  0  0  0  0  0  0  0  0  0  0  0
    8.1477  -14.4103   22.2281 O   0  0  0  0  0  0  0  0  0  0  0  0
    7.7183  -18.7132   20.4675 C   0  0  0  0  0  0  0  0  0  0  0  0
    8.7544  -18.4809   21.5078 C   0  0  2  0  0  0  0  0  0  0  0  0
    8.4684  -19.4129   22.6804 C   0  0  0  0  0  0  0  0  0  0  0  0
    8.7775  -17.0813   22.0673 C   0  0  2  0  0  0  0  0  0  0  0  0
    9.0726  -16.1169   21.0282 N   0  0  0  0  0  0  0  0  0  0  0  0
    9.6530  -16.9417   23.2453 C   0  0  0  0  0  0  0  0  0  0  0  0
   10.8986  -16.9568   23.1082 O   0  0  0  0  0  0  0  0  0  0  0  0
    9.1335  -16.7880   24.5505 N   0  0  0  0  0  0  0  0  0  0  0  0
   10.0602  -16.7389   25.6709 C   0  0  1  0  0  0  0  0  0  0  0  0
    9.7843  -15.4743   26.5042 C   0  0  0  0  0  0  0  0  0  0  0  0
    8.3533  -15.1614   26.3969 C   0  0  0  0  0  0  0  0  0  0  0  0
    7.2992  -16.0434   26.2740 C   0  0  0  0  0  0  0  0  0  0  0  0
    6.1586  -15.3402   26.2035 N   0  0  0  0  0  0  0  0  0  0  0  0
    6.4532  -14.0184   26.2783 C   0  0  0  0  0  0  0  0  0  0  0  0
    5.6477  -12.8905   26.2509 C   0  0  0  0  0  0  0  0  0  0  0  0
    6.1588  -11.6207   26.3406 C   0  0  0  0  0  0  0  0  0  0  0  0
    7.5217  -11.4983   26.4610 C   0  0  0  0  0  0  0  0  0  0  0  0
    8.3325  -12.6127   26.4894 C   0  0  0  0  0  0  0  0  0  0  0  0
    7.8184  -13.9017   26.3988 C   0  0  0  0  0  0  0  0  0  0  0  0
    9.9657  -17.9410   26.5101 C   0  0  0  0  0  0  0  0  0  0  0  0
    8.9821  -18.6986   26.4056 O   0  0  0  0  0  0  0  0  0  0  0  0
   10.9536  -18.2503   27.4197 O   0  0  0  0  0  0  0  0  0  0  0  0
  2  1  1  6
  2  3  1  0
  4  5  1  6
  4  2  1  0
  6  4  1  0
  7  6  2  0
  9  8  1  6
  9 11  1  0
 10  9  1  0
 11 12  1  6
 12  6  1  0
 13 11  1  0
 13 14  2  0
 15 16  1  0
 15 13  1  0
 16 17  1  1
 18 17  1  0
 19 18  2  0
 20 19  1  0
 21 20  1  0
 21 26  2  0
 22 21  1  0
 23 22  2  0
 23 24  1  0
 24 25  2  0
 25 26  1  0
 26 18  1  0
 27 16  1  0
 28 27  2  0
 29 27  1  0
M  END
$$$$
