VVW.pdb
     RDKit          3D

 29 30  0  0  1  0  0  0  0  0999 V2000
    8.8968  -12.7324   21.0026 C   0  0  0  0  0  0  0  0  0  0  0  0
    7.6280  -13.3095   20.4209 C   0  0  2  0  0  0  0  0  0  0  0  0
    6.5975  -13.3575   21.5431 C   0  0  0  0  0  0  0  0  0  0  0  0
    7.8678  -14.6849   19.8269 C   0  0  2  0  0  0  0  0  0  0  0  0
    6.6674  -15.0709   19.1454 N   0  0  0  0  0  0  0  0  0  0  0  0
    8.2849  -15.6578   20.8577 C   0  0  0  0  0  0  0  0  0  0  0  0
    7.4320  -16.2482   21.5681 O   0  0  0  0  0  0  0  0  0  0  0  0
   10.9178  -18.5740   20.3672 C   0  0  0  0  0  0  0  0  0  0  0  0
   11.1833  -17.8183   21.6194 C   0  0  2  0  0  0  0  0  0  0  0  0
   11.4906  -18.8227   22.7250 C   0  0  0  0  0  0  0  0  0  0  0  0
   10.0250  -16.9851   22.1058 C   0  0  2  0  0  0  0  0  0  0  0  0
    9.6546  -15.9931   21.1181 N   0  0  0  0  0  0  0  0  0  0  0  0
   10.2473  -16.4075   23.4440 C   0  0  0  0  0  0  0  0  0  0  0  0
   11.0122  -15.4249   23.5855 O   0  0  0  0  0  0  0  0  0  0  0  0
    9.6194  -16.9278   24.5981 N   0  0  0  0  0  0  0  0  0  0  0  0
    9.9522  -16.3558   25.8936 C   0  0  1  0  0  0  0  0  0  0  0  0
    8.6947  -16.3409   26.7814 C   0  0  0  0  0  0  0  0  0  0  0  0
    7.6680  -15.5389   26.1034 C   0  0  0  0  0  0  0  0  0  0  0  0
    6.6030  -15.9870   25.3490 C   0  0  0  0  0  0  0  0  0  0  0  0
    5.9118  -14.9240   24.9100 N   0  0  0  0  0  0  0  0  0  0  0  0
    6.5087  -13.7945   25.3656 C   0  0  0  0  0  0  0  0  0  0  0  0
    6.1971  -12.4542   25.1981 C   0  0  0  0  0  0  0  0  0  0  0  0
    6.9487  -11.4504   25.7541 C   0  0  0  0  0  0  0  0  0  0  0  0
    8.0425  -11.8216   26.4976 C   0  0  0  0  0  0  0  0  0  0  0  0
    8.3620  -13.1513   26.6711 C   0  0  0  0  0  0  0  0  0  0  0  0
    7.6027  -14.1719   26.1091 C   0  0  0  0  0  0  0  0  0  0  0  0
   11.0401  -17.0919   26.5516 C   0  0  0  0  0  0  0  0  0  0  0  0
   11.5677  -16.6343   27.5833 O   0  0  0  0  0  0  0  0  0  0  0  0
   11.4928  -18.2909   26.0451 O   0  0  0  0  0  0  0  0  0  0  0  0
  2  1  1  1
  2  3  1  0
  4  5  1  1
  4  2  1  0
  6  4  1  0
  7  6  2  0
  9  8  1  6
  9 11  1  0
 10  9  1  0
 11 12  1  6
 12  6  1  0
 13 11  1  0
 13 14  2  0
 15 16  1  0
 15 13  1  0
 16 17  1  1
 18 17  1  0
 19 18  2  0
 20 19  1  0
 21 20  1  0
 21 26  2  0
 22 21  1  0
 23 22  2  0
 23 24  1  0
 24 25  2  0
 25 26  1  0
 26 18  1  0
 27 16  1  0
 28 27  2  0
 29 27  1  0
M  END
$$$$
