VVW.pdb
     RDKit          3D

 29 30  0  0  1  0  0  0  0  0999 V2000
    7.0480  -14.6812   18.8430 C   0  0  0  0  0  0  0  0  0  0  0  0
    7.7935  -13.5599   19.5272 C   0  0  2  0  0  0  0  0  0  0  0  0
    7.8831  -12.4057   18.5356 C   0  0  0  0  0  0  0  0  0  0  0  0
    9.1690  -14.0085   19.9841 C   0  0  2  0  0  0  0  0  0  0  0  0
    9.9134  -14.3642   18.8120 N   0  0  0  0  0  0  0  0  0  0  0  0
    9.0842  -15.1062   20.9694 C   0  0  0  0  0  0  0  0  0  0  0  0
    8.3665  -14.9958   21.9957 O   0  0  0  0  0  0  0  0  0  0  0  0
    9.6927  -19.2274   20.1182 C   0  0  0  0  0  0  0  0  0  0  0  0
   10.3367  -18.6635   21.3334 C   0  0  2  0  0  0  0  0  0  0  0  0
   10.2047  -19.6842   22.4587 C   0  0  0  0  0  0  0  0  0  0  0  0
    9.7142  -17.3862   21.8369 C   0  0  2  0  0  0  0  0  0  0  0  0
    9.7932  -16.3453   20.8333 N   0  0  0  0  0  0  0  0  0  0  0  0
   10.2402  -16.9614   23.1470 C   0  0  0  0  0  0  0  0  0  0  0  0
   11.3912  -16.4734   23.2342 O   0  0  0  0  0  0  0  0  0  0  0  0
    9.4830  -17.0845   24.3338 N   0  0  0  0  0  0  0  0  0  0  0  0
   10.0527  -16.5978   25.5807 C   0  0  1  0  0  0  0  0  0  0  0  0
    9.8343  -15.0773   25.6806 C   0  0  0  0  0  0  0  0  0  0  0  0
    8.3919  -14.8317   25.8074 C   0  0  0  0  0  0  0  0  0  0  0  0
    7.3569  -15.7090   25.5563 C   0  0  0  0  0  0  0  0  0  0  0  0
    6.1955  -15.0808   25.7951 N   0  0  0  0  0  0  0  0  0  0  0  0
    6.4579  -13.8121   26.1965 C   0  0  0  0  0  0  0  0  0  0  0  0
    5.6219  -12.7672   26.5583 C   0  0  0  0  0  0  0  0  0  0  0  0
    6.1026  -11.5398   26.9378 C   0  0  0  0  0  0  0  0  0  0  0  0
    7.4662  -11.3742   26.9488 C   0  0  0  0  0  0  0  0  0  0  0  0
    8.3072  -12.4061   26.5912 C   0  0  0  0  0  0  0  0  0  0  0  0
    7.8240  -13.6519   26.2058 C   0  0  0  0  0  0  0  0  0  0  0  0
    9.4757  -17.2800   26.7470 C   0  0  0  0  0  0  0  0  0  0  0  0
    8.4953  -18.0356   26.6055 O   0  0  0  0  0  0  0  0  0  0  0  0
   10.0031  -17.0988   28.0072 O   0  0  0  0  0  0  0  0  0  0  0  0
  2  1  1  6
  2  3  1  0
  4  5  1  6
  4  2  1  0
  6  4  1  0
  7  6  2  0
  9  8  1  6
  9 11  1  0
 10  9  1  0
 11 12  1  6
 12  6  1  0
 13 11  1  0
 13 14  2  0
 15 16  1  0
 15 13  1  0
 16 17  1  1
 18 17  1  0
 19 18  2  0
 20 19  1  0
 21 20  1  0
 21 26  2  0
 22 21  1  0
 23 22  2  0
 23 24  1  0
 24 25  2  0
 25 26  1  0
 26 18  1  0
 27 16  1  0
 28 27  2  0
 29 27  1  0
M  END
$$$$
