MHG.pdb
     RDKit          3D

 23 23  0  0  1  0  0  0  0  0999 V2000
   24.5029  -14.4237  -14.7449 C   0  0  0  0  0  0  0  0  0  0  0  0
   23.0818  -15.0271  -15.6865 S   0  0  0  0  0  0  0  0  0  0  0  0
   23.1241  -14.4141  -17.3971 C   0  0  0  0  0  0  0  0  0  0  0  0
   23.3488  -12.9198  -17.4340 C   0  0  0  0  0  0  0  0  0  0  0  0
   22.2094  -12.3056  -18.2092 C   0  0  2  0  0  0  0  0  0  0  0  0
   22.2901  -12.7848  -19.5652 N   0  0  0  0  0  0  0  0  0  0  0  0
   22.2461  -10.8141  -18.1473 C   0  0  0  0  0  0  0  0  0  0  0  0
   23.1300  -10.1297  -18.6772 O   0  0  0  0  0  0  0  0  0  0  0  0
   21.2134  -10.1371  -17.4435 N   0  0  0  0  0  0  0  0  0  0  0  0
   21.1454   -8.6727  -17.4113 C   0  0  1  0  0  0  0  0  0  0  0  0
   19.8876   -8.1777  -18.0891 C   0  0  0  0  0  0  0  0  0  0  0  0
   19.8441   -8.4697  -19.5215 C   0  0  0  0  0  0  0  0  0  0  0  0
   20.4578   -7.7160  -20.4945 C   0  0  0  0  0  0  0  0  0  0  0  0
   20.2028   -8.2809  -21.6744 N   0  0  0  0  0  0  0  0  0  0  0  0
   19.4406   -9.3798  -21.4903 C   0  0  0  0  0  0  0  0  0  0  0  0
   19.2308   -9.4780  -20.1544 N   0  0  0  0  0  0  0  0  0  0  0  0
   21.0941   -8.2382  -16.0069 C   0  0  0  0  0  0  0  0  0  0  0  0
   20.4967   -8.9281  -15.1587 O   0  0  0  0  0  0  0  0  0  0  0  0
   21.7226   -7.0374  -15.6173 N   0  0  0  0  0  0  0  0  0  0  0  0
   21.8311   -6.6357  -14.2144 C   0  0  0  0  0  0  0  0  0  0  0  0
   22.5628   -5.3711  -14.1601 C   0  0  0  0  0  0  0  0  0  0  0  0
   22.7172   -4.6731  -12.9718 O   0  0  0  0  0  0  0  0  0  0  0  0
   23.0630   -4.9143  -15.2357 O   0  0  0  0  0  0  0  0  0  0  0  0
  1  2  1  0
  3  2  1  0
  4  3  1  0
  5  4  1  0
  5  7  1  0
  5  6  1  6
  7  8  2  0
  7  9  1  0
  9 10  1  0
 10 17  1  0
 10 11  1  6
 12 11  1  0
 12 13  2  0
 14 13  1  0
 15 14  1  0
 16 15  2  0
 16 12  1  0
 17 19  1  0
 17 18  2  0
 19 20  1  0
 21 20  1  0
 21 22  1  0
 23 21  2  0
M  END
$$$$
