MHG.pdb
     RDKit          3D

 23 23  0  0  1  0  0  0  0  0999 V2000
   26.6437  -32.4755  -21.3706 C   0  0  0  0  0  0  0  0  0  0  0  0
   24.9448  -33.0881  -21.2776 S   0  0  0  0  0  0  0  0  0  0  0  0
   23.9826  -32.1604  -20.0459 C   0  0  0  0  0  0  0  0  0  0  0  0
   24.8849  -31.3210  -19.1706 C   0  0  0  0  0  0  0  0  0  0  0  0
   24.7173  -31.8001  -17.7497 C   0  0  2  0  0  0  0  0  0  0  0  0
   23.5061  -31.2198  -17.2289 N   0  0  0  0  0  0  0  0  0  0  0  0
   25.9022  -31.4511  -16.9108 C   0  0  0  0  0  0  0  0  0  0  0  0
   26.0131  -30.3838  -16.2951 O   0  0  0  0  0  0  0  0  0  0  0  0
   26.9640  -32.3905  -16.8092 N   0  0  0  0  0  0  0  0  0  0  0  0
   28.1264  -32.1383  -15.9518 C   0  0  1  0  0  0  0  0  0  0  0  0
   28.3020  -33.2507  -14.9429 C   0  0  0  0  0  0  0  0  0  0  0  0
   27.2310  -33.3101  -13.9486 C   0  0  0  0  0  0  0  0  0  0  0  0
   26.2327  -32.3738  -13.8145 C   0  0  0  0  0  0  0  0  0  0  0  0
   25.4429  -32.7554  -12.8111 N   0  0  0  0  0  0  0  0  0  0  0  0
   25.9038  -33.9136  -12.2929 C   0  0  0  0  0  0  0  0  0  0  0  0
   27.0080  -34.2384  -13.0095 N   0  0  0  0  0  0  0  0  0  0  0  0
   29.3313  -32.1085  -16.7951 C   0  0  0  0  0  0  0  0  0  0  0  0
   29.3557  -32.7286  -17.8755 O   0  0  0  0  0  0  0  0  0  0  0  0
   30.4633  -31.3764  -16.3812 N   0  0  0  0  0  0  0  0  0  0  0  0
   31.6389  -31.2119  -17.2369 C   0  0  0  0  0  0  0  0  0  0  0  0
   32.4602  -32.4154  -17.1155 C   0  0  0  0  0  0  0  0  0  0  0  0
   33.6931  -32.5183  -17.7419 O   0  0  0  0  0  0  0  0  0  0  0  0
   32.0197  -33.3810  -16.4159 O   0  0  0  0  0  0  0  0  0  0  0  0
  1  2  1  0
  3  2  1  0
  4  3  1  0
  5  4  1  0
  5  7  1  0
  5  6  1  1
  7  8  2  0
  7  9  1  0
  9 10  1  0
 10 17  1  0
 10 11  1  1
 12 11  1  0
 12 13  2  0
 14 13  1  0
 15 14  1  0
 16 15  2  0
 16 12  1  0
 17 19  1  0
 17 18  2  0
 19 20  1  0
 21 20  1  0
 21 22  1  0
 23 21  2  0
M  END
$$$$
