MHG.pdb
     RDKit          3D

 23 23  0  0  1  0  0  0  0  0999 V2000
   17.2365  -31.8804    2.0427 C   0  0  0  0  0  0  0  0  0  0  0  0
   18.5929  -31.9457    0.8484 S   0  0  0  0  0  0  0  0  0  0  0  0
   20.2030  -31.8110    1.6809 C   0  0  0  0  0  0  0  0  0  0  0  0
   21.3371  -31.8604    0.6829 C   0  0  0  0  0  0  0  0  0  0  0  0
   22.6303  -31.7949    1.4575 C   0  0  2  0  0  0  0  0  0  0  0  0
   23.1111  -30.4383    1.3986 N   0  0  0  0  0  0  0  0  0  0  0  0
   23.6367  -32.7612    0.9256 C   0  0  0  0  0  0  0  0  0  0  0  0
   23.4343  -33.9783    0.8352 O   0  0  0  0  0  0  0  0  0  0  0  0
   24.8976  -32.2636    0.4982 N   0  0  0  0  0  0  0  0  0  0  0  0
   25.9339  -33.1594   -0.0250 C   0  0  1  0  0  0  0  0  0  0  0  0
   26.4855  -32.6378   -1.3327 C   0  0  0  0  0  0  0  0  0  0  0  0
   27.4655  -33.5313   -1.9494 C   0  0  0  0  0  0  0  0  0  0  0  0
   27.3783  -34.9037   -1.9595 C   0  0  0  0  0  0  0  0  0  0  0  0
   28.4420  -35.3788   -2.6068 N   0  0  0  0  0  0  0  0  0  0  0  0
   29.2148  -34.3501   -3.0155 C   0  0  0  0  0  0  0  0  0  0  0  0
   28.5939  -33.2189   -2.5995 N   0  0  0  0  0  0  0  0  0  0  0  0
   27.0435  -33.2037    0.9396 C   0  0  0  0  0  0  0  0  0  0  0  0
   27.4629  -32.1530    1.4615 O   0  0  0  0  0  0  0  0  0  0  0  0
   27.6359  -34.4385    1.2759 N   0  0  0  0  0  0  0  0  0  0  0  0
   28.8258  -34.5253    2.1233 C   0  0  0  0  0  0  0  0  0  0  0  0
   28.3894  -34.5303    3.5187 C   0  0  0  0  0  0  0  0  0  0  0  0
   29.3010  -34.5186    4.5636 O   0  0  0  0  0  0  0  0  0  0  0  0
   27.1421  -34.5458    3.7629 O   0  0  0  0  0  0  0  0  0  0  0  0
  1  2  1  0
  3  2  1  0
  4  3  1  0
  5  4  1  0
  5  7  1  0
  5  6  1  6
  7  8  2  0
  7  9  1  0
  9 10  1  0
 10 17  1  0
 10 11  1  6
 12 11  1  0
 12 13  2  0
 14 13  1  0
 15 14  1  0
 16 15  2  0
 16 12  1  0
 17 19  1  0
 17 18  2  0
 19 20  1  0
 21 20  1  0
 21 22  1  0
 23 21  2  0
M  END
$$$$
