FVD.pdb
     RDKit          3D

 27 27  0  0  1  0  0  0  0  0999 V2000
    9.0261  -15.2279   25.2420 N   0  0  0  0  0  0  0  0  0  0  0  0
    7.8328  -16.0167   24.9904 C   0  0  1  0  0  0  0  0  0  0  0  0
    6.7543  -15.5753   25.9557 C   0  0  0  0  0  0  0  0  0  0  0  0
    6.9805  -14.1537   26.3086 C   0  0  0  0  0  0  0  0  0  0  0  0
    6.0672  -13.2091   25.9073 C   0  0  0  0  0  0  0  0  0  0  0  0
    6.2999  -11.8910   26.2473 C   0  0  0  0  0  0  0  0  0  0  0  0
    7.4245  -11.5236   26.9750 C   0  0  0  0  0  0  0  0  0  0  0  0
    8.3298  -12.4819   27.3693 C   0  0  0  0  0  0  0  0  0  0  0  0
    8.0871  -13.8091   27.0219 C   0  0  0  0  0  0  0  0  0  0  0  0
    7.3258  -15.8397   23.6216 C   0  0  0  0  0  0  0  0  0  0  0  0
    6.2828  -16.4372   23.2908 O   0  0  0  0  0  0  0  0  0  0  0  0
    8.4002  -12.8969   20.5079 C   0  0  0  0  0  0  0  0  0  0  0  0
    7.5152  -14.1239   20.4120 C   0  0  2  0  0  0  0  0  0  0  0  0
    6.0591  -13.7740   20.6686 C   0  0  0  0  0  0  0  0  0  0  0  0
    7.9990  -15.2507   21.2583 C   0  0  2  0  0  0  0  0  0  0  0  0
    7.9611  -15.0289   22.6679 N   0  0  0  0  0  0  0  0  0  0  0  0
    9.3651  -15.6392   20.7961 C   0  0  0  0  0  0  0  0  0  0  0  0
   10.2065  -14.7100   20.6358 O   0  0  0  0  0  0  0  0  0  0  0  0
    9.7674  -16.9524   20.5327 N   0  0  0  0  0  0  0  0  0  0  0  0
   11.1519  -17.3986   20.5129 C   0  0  1  0  0  0  0  0  0  0  0  0
   11.9315  -17.0268   21.7249 C   0  0  0  0  0  0  0  0  0  0  0  0
   13.3289  -17.4525   21.5795 C   0  0  0  0  0  0  0  0  0  0  0  0
   13.7222  -18.0817   20.5727 O   0  0  0  0  0  0  0  0  0  0  0  0
   11.2490  -18.8540   20.2828 C   0  0  0  0  0  0  0  0  0  0  0  0
   10.3250  -19.6954   20.8578 O   0  0  0  0  0  0  0  0  0  0  0  0
   14.2995  -17.1776   22.5604 O   0  0  0  0  0  0  0  0  0  0  0  0
   12.1573  -19.3236   19.5751 O   0  0  0  0  0  0  0  0  0  0  0  0
  2  1  1  6
  3  2  1  0
  4  3  1  0
  4  5  2  0
  6  5  1  0
  7  6  2  0
  8  9  2  0
  8  7  1  0
  9  4  1  0
 10  2  1  0
 11 10  2  0
 13 15  1  0
 13 12  1  1
 14 13  1  0
 15 16  1  1
 16 10  1  0
 17 19  1  0
 17 15  1  0
 18 17  2  0
 20 19  1  0
 21 22  1  0
 20 21  1  1
 22 23  2  0
 22 26  1  0
 24 25  1  0
 24 20  1  0
 27 24  2  0
M  END
$$$$
