FVD.pdb
     RDKit          3D

 27 27  0  0  1  0  0  0  0  0999 V2000
    5.9019  -18.1283   25.9585 N   0  0  0  0  0  0  0  0  0  0  0  0
    6.3649  -16.7804   25.6789 C   0  0  1  0  0  0  0  0  0  0  0  0
    7.0286  -16.2339   26.9242 C   0  0  0  0  0  0  0  0  0  0  0  0
    7.0381  -14.7537   26.8511 C   0  0  0  0  0  0  0  0  0  0  0  0
    5.8439  -14.0764   26.8009 C   0  0  0  0  0  0  0  0  0  0  0  0
    5.8784  -12.6975   26.7324 C   0  0  0  0  0  0  0  0  0  0  0  0
    7.0840  -12.0081   26.7143 C   0  0  0  0  0  0  0  0  0  0  0  0
    8.2716  -12.7013   26.7650 C   0  0  0  0  0  0  0  0  0  0  0  0
    8.2274  -14.0922   26.8341 C   0  0  0  0  0  0  0  0  0  0  0  0
    7.3433  -16.7432   24.5819 C   0  0  0  0  0  0  0  0  0  0  0  0
    8.1507  -17.6867   24.4716 O   0  0  0  0  0  0  0  0  0  0  0  0
    6.6579  -14.3561   21.1546 C   0  0  0  0  0  0  0  0  0  0  0  0
    8.0945  -14.4479   21.6298 C   0  0  2  0  0  0  0  0  0  0  0  0
    9.0634  -14.4325   20.4596 C   0  0  0  0  0  0  0  0  0  0  0  0
    8.3225  -15.5917   22.5569 C   0  0  2  0  0  0  0  0  0  0  0  0
    7.4119  -15.6944   23.6515 N   0  0  0  0  0  0  0  0  0  0  0  0
    9.7418  -15.5519   23.0201 C   0  0  0  0  0  0  0  0  0  0  0  0
   10.1189  -14.5160   23.6379 O   0  0  0  0  0  0  0  0  0  0  0  0
   10.6697  -16.5780   22.8156 N   0  0  0  0  0  0  0  0  0  0  0  0
   12.0421  -16.5520   23.2976 C   0  0  1  0  0  0  0  0  0  0  0  0
   12.5807  -17.8852   23.6815 C   0  0  0  0  0  0  0  0  0  0  0  0
   11.9231  -18.3654   24.9029 C   0  0  0  0  0  0  0  0  0  0  0  0
   11.1071  -17.6559   25.5316 O   0  0  0  0  0  0  0  0  0  0  0  0
   12.9465  -15.9089   22.3234 C   0  0  0  0  0  0  0  0  0  0  0  0
   12.5720  -15.8243   21.0025 O   0  0  0  0  0  0  0  0  0  0  0  0
   12.1730  -19.6449   25.4323 O   0  0  0  0  0  0  0  0  0  0  0  0
   14.0412  -15.4443   22.6871 O   0  0  0  0  0  0  0  0  0  0  0  0
  2  1  1  1
  3  2  1  0
  4  3  1  0
  4  5  2  0
  6  5  1  0
  7  6  2  0
  8  9  2  0
  8  7  1  0
  9  4  1  0
 10  2  1  0
 11 10  2  0
 13 15  1  0
 13 12  1  6
 14 13  1  0
 15 16  1  1
 16 10  1  0
 17 19  1  0
 17 15  1  0
 18 17  2  0
 20 19  1  0
 21 22  1  0
 20 21  1  6
 22 23  2  0
 22 26  1  0
 24 25  1  0
 24 20  1  0
 27 24  2  0
M  END
$$$$
