FVD.pdb
     RDKit          3D

 27 27  0  0  1  0  0  0  0  0999 V2000
    6.1364  -17.4043   22.5380 N   0  0  0  0  0  0  0  0  0  0  0  0
    6.9243  -16.2174   22.2553 C   0  0  1  0  0  0  0  0  0  0  0  0
    6.2358  -15.4355   21.1578 C   0  0  0  0  0  0  0  0  0  0  0  0
    7.1851  -14.4351   20.6151 C   0  0  0  0  0  0  0  0  0  0  0  0
    6.6947  -13.2940   20.0278 C   0  0  0  0  0  0  0  0  0  0  0  0
    7.5987  -12.3770   19.5288 C   0  0  0  0  0  0  0  0  0  0  0  0
    8.9675  -12.5961   19.6151 C   0  0  0  0  0  0  0  0  0  0  0  0
    9.4427  -13.7442   20.2063 C   0  0  0  0  0  0  0  0  0  0  0  0
    8.5235  -14.6638   20.7070 C   0  0  0  0  0  0  0  0  0  0  0  0
    7.0564  -15.3429   23.4300 C   0  0  0  0  0  0  0  0  0  0  0  0
    6.5292  -14.2138   23.3943 O   0  0  0  0  0  0  0  0  0  0  0  0
    8.3943  -12.8814   27.0413 C   0  0  0  0  0  0  0  0  0  0  0  0
    7.6122  -13.7450   26.0715 C   0  0  2  0  0  0  0  0  0  0  0  0
    6.3163  -14.2365   26.6938 C   0  0  0  0  0  0  0  0  0  0  0  0
    8.4313  -14.8459   25.4911 C   0  0  2  0  0  0  0  0  0  0  0  0
    7.7489  -15.7194   24.5916 N   0  0  0  0  0  0  0  0  0  0  0  0
    9.0771  -15.5974   26.6086 C   0  0  0  0  0  0  0  0  0  0  0  0
    8.3188  -16.0606   27.5071 O   0  0  0  0  0  0  0  0  0  0  0  0
   10.4533  -15.8186   26.7218 N   0  0  0  0  0  0  0  0  0  0  0  0
   11.0504  -16.9038   27.4849 C   0  0  1  0  0  0  0  0  0  0  0  0
   12.3756  -17.3515   26.9769 C   0  0  0  0  0  0  0  0  0  0  0  0
   12.3411  -17.4810   25.5151 C   0  0  0  0  0  0  0  0  0  0  0  0
   11.6390  -18.3476   24.9491 O   0  0  0  0  0  0  0  0  0  0  0  0
   11.1526  -16.5657   28.9188 C   0  0  0  0  0  0  0  0  0  0  0  0
   11.5517  -17.5285   29.8166 O   0  0  0  0  0  0  0  0  0  0  0  0
   13.0928  -16.6411   24.6728 O   0  0  0  0  0  0  0  0  0  0  0  0
   10.8813  -15.4203   29.3198 O   0  0  0  0  0  0  0  0  0  0  0  0
  2  1  1  1
  3  2  1  0
  4  3  1  0
  4  5  2  0
  6  5  1  0
  7  6  2  0
  8  9  2  0
  8  7  1  0
  9  4  1  0
 10  2  1  0
 11 10  2  0
 13 15  1  0
 13 12  1  1
 14 13  1  0
 15 16  1  1
 16 10  1  0
 17 19  1  0
 17 15  1  0
 18 17  2  0
 20 19  1  0
 21 22  1  0
 20 21  1  6
 22 23  2  0
 22 26  1  0
 24 25  1  0
 24 20  1  0
 27 24  2  0
M  END
$$$$
