FVD.pdb
     RDKit          3D

 27 27  0  0  1  0  0  0  0  0999 V2000
    5.7498  -18.0646   25.8952 N   0  0  0  0  0  0  0  0  0  0  0  0
    6.2832  -16.7407   25.6265 C   0  0  1  0  0  0  0  0  0  0  0  0
    7.0371  -16.2703   26.8514 C   0  0  0  0  0  0  0  0  0  0  0  0
    7.0566  -14.7884   26.8616 C   0  0  0  0  0  0  0  0  0  0  0  0
    5.8671  -14.1013   26.8367 C   0  0  0  0  0  0  0  0  0  0  0  0
    5.9108  -12.7211   26.8461 C   0  0  0  0  0  0  0  0  0  0  0  0
    7.1208  -12.0399   26.8797 C   0  0  0  0  0  0  0  0  0  0  0  0
    8.3035  -12.7428   26.9042 C   0  0  0  0  0  0  0  0  0  0  0  0
    8.2499  -14.1350   26.8946 C   0  0  0  0  0  0  0  0  0  0  0  0
    7.2100  -16.7340   24.4850 C   0  0  0  0  0  0  0  0  0  0  0  0
    8.0212  -17.6737   24.3707 O   0  0  0  0  0  0  0  0  0  0  0  0
    8.7065  -14.5561   20.2130 C   0  0  0  0  0  0  0  0  0  0  0  0
    7.8521  -14.4931   21.4636 C   0  0  2  0  0  0  0  0  0  0  0  0
    7.9921  -13.1495   22.1590 C   0  0  0  0  0  0  0  0  0  0  0  0
    8.0836  -15.6465   22.3779 C   0  0  2  0  0  0  0  0  0  0  0  0
    7.2250  -15.7183   23.5161 N   0  0  0  0  0  0  0  0  0  0  0  0
    9.5246  -15.6597   22.7704 C   0  0  0  0  0  0  0  0  0  0  0  0
    9.9036  -14.7906   23.6058 O   0  0  0  0  0  0  0  0  0  0  0  0
   10.4706  -16.5639   22.2771 N   0  0  0  0  0  0  0  0  0  0  0  0
   11.8671  -16.5946   22.6839 C   0  0  1  0  0  0  0  0  0  0  0  0
   12.4657  -17.9568   22.7124 C   0  0  0  0  0  0  0  0  0  0  0  0
   12.0120  -18.6855   23.9032 C   0  0  0  0  0  0  0  0  0  0  0  0
   12.1016  -18.1917   25.0489 O   0  0  0  0  0  0  0  0  0  0  0  0
   12.6947  -15.7019   21.8480 C   0  0  0  0  0  0  0  0  0  0  0  0
   12.3801  -15.5309   20.5198 O   0  0  0  0  0  0  0  0  0  0  0  0
   11.4534  -19.9744   23.8226 O   0  0  0  0  0  0  0  0  0  0  0  0
   13.6713  -15.1051   22.3343 O   0  0  0  0  0  0  0  0  0  0  0  0
  2  1  1  1
  3  2  1  0
  4  3  1  0
  4  5  2  0
  6  5  1  0
  7  6  2  0
  8  9  2  0
  8  7  1  0
  9  4  1  0
 10  2  1  0
 11 10  2  0
 13 15  1  0
 13 12  1  6
 14 13  1  0
 15 16  1  1
 16 10  1  0
 17 19  1  0
 17 15  1  0
 18 17  2  0
 20 19  1  0
 21 22  1  0
 20 21  1  6
 22 23  2  0
 22 26  1  0
 24 25  1  0
 24 20  1  0
 27 24  2  0
M  END
$$$$
