FVD.pdb
     RDKit          3D

 27 27  0  0  1  0  0  0  0  0999 V2000
    5.7468  -17.9723   25.6306 N   0  0  0  0  0  0  0  0  0  0  0  0
    6.2970  -16.6562   25.3574 C   0  0  1  0  0  0  0  0  0  0  0  0
    7.0150  -16.1702   26.5977 C   0  0  0  0  0  0  0  0  0  0  0  0
    7.0491  -14.6887   26.5815 C   0  0  0  0  0  0  0  0  0  0  0  0
    8.2618  -14.0458   26.5231 C   0  0  0  0  0  0  0  0  0  0  0  0
    8.2680  -12.6649   26.5098 C   0  0  0  0  0  0  0  0  0  0  0  0
    7.0842  -11.9397   26.5542 C   0  0  0  0  0  0  0  0  0  0  0  0
    5.8777  -12.5987   26.6126 C   0  0  0  0  0  0  0  0  0  0  0  0
    5.8808  -13.9919   26.6255 C   0  0  0  0  0  0  0  0  0  0  0  0
    7.2593  -16.6737   24.2458 C   0  0  0  0  0  0  0  0  0  0  0  0
    8.1556  -17.5402   24.2474 O   0  0  0  0  0  0  0  0  0  0  0  0
    8.0269  -13.2883   21.4882 C   0  0  0  0  0  0  0  0  0  0  0  0
    7.7828  -14.7084   21.0174 C   0  0  2  0  0  0  0  0  0  0  0  0
    6.3843  -14.8660   20.4451 C   0  0  0  0  0  0  0  0  0  0  0  0
    8.1006  -15.7237   22.0606 C   0  0  2  0  0  0  0  0  0  0  0  0
    7.2168  -15.7600   23.1810 N   0  0  0  0  0  0  0  0  0  0  0  0
    9.5217  -15.5419   22.4828 C   0  0  0  0  0  0  0  0  0  0  0  0
    9.7555  -14.6635   23.3607 O   0  0  0  0  0  0  0  0  0  0  0  0
   10.5982  -16.2751   21.9735 N   0  0  0  0  0  0  0  0  0  0  0  0
   11.8848  -16.4138   22.6382 C   0  0  1  0  0  0  0  0  0  0  0  0
   11.9028  -17.4247   23.7303 C   0  0  0  0  0  0  0  0  0  0  0  0
   13.2587  -17.5563   24.2773 C   0  0  0  0  0  0  0  0  0  0  0  0
   13.7479  -16.6900   25.0353 O   0  0  0  0  0  0  0  0  0  0  0  0
   12.9651  -16.7007   21.6733 C   0  0  0  0  0  0  0  0  0  0  0  0
   12.6830  -17.4111   20.5296 O   0  0  0  0  0  0  0  0  0  0  0  0
   14.0801  -18.6596   23.9807 O   0  0  0  0  0  0  0  0  0  0  0  0
   14.1251  -16.3061   21.8862 O   0  0  0  0  0  0  0  0  0  0  0  0
  2  1  1  1
  3  2  1  0
  4  3  1  0
  4  5  2  0
  6  5  1  0
  7  6  2  0
  8  9  2  0
  8  7  1  0
  9  4  1  0
 10  2  1  0
 11 10  2  0
 13 15  1  0
 13 12  1  1
 14 13  1  0
 15 16  1  1
 16 10  1  0
 17 19  1  0
 17 15  1  0
 18 17  2  0
 20 19  1  0
 21 22  1  0
 20 21  1  1
 22 23  2  0
 22 26  1  0
 24 25  1  0
 24 20  1  0
 27 24  2  0
M  END
$$$$
