FVD.pdb
     RDKit          3D

 27 27  0  0  1  0  0  0  0  0999 V2000
    5.9005  -18.1763   25.8772 N   0  0  0  0  0  0  0  0  0  0  0  0
    6.2503  -16.7893   25.6254 C   0  0  1  0  0  0  0  0  0  0  0  0
    6.8012  -16.1946   26.9032 C   0  0  0  0  0  0  0  0  0  0  0  0
    6.7577  -14.7167   26.8010 C   0  0  0  0  0  0  0  0  0  0  0  0
    7.9330  -14.0063   26.8396 C   0  0  0  0  0  0  0  0  0  0  0  0
    7.8669  -12.6303   26.7433 C   0  0  0  0  0  0  0  0  0  0  0  0
    6.6488  -11.9761   26.6109 C   0  0  0  0  0  0  0  0  0  0  0  0
    5.4805  -12.7022   26.5739 C   0  0  0  0  0  0  0  0  0  0  0  0
    5.5566  -14.0900   26.6716 C   0  0  0  0  0  0  0  0  0  0  0  0
    7.2719  -16.6534   24.5766 C   0  0  0  0  0  0  0  0  0  0  0  0
    8.1775  -17.5078   24.5128 O   0  0  0  0  0  0  0  0  0  0  0  0
    6.5308  -14.1337   21.1735 C   0  0  0  0  0  0  0  0  0  0  0  0
    7.9525  -14.2578   21.6845 C   0  0  2  0  0  0  0  0  0  0  0  0
    8.9569  -14.1498   20.5497 C   0  0  0  0  0  0  0  0  0  0  0  0
    8.1578  -15.4688   22.5278 C   0  0  2  0  0  0  0  0  0  0  0  0
    7.2764  -15.6057   23.6424 N   0  0  0  0  0  0  0  0  0  0  0  0
    9.5906  -15.5188   22.9464 C   0  0  0  0  0  0  0  0  0  0  0  0
    9.9692  -14.6788   23.8113 O   0  0  0  0  0  0  0  0  0  0  0  0
   10.5293  -16.4272   22.4470 N   0  0  0  0  0  0  0  0  0  0  0  0
   11.8902  -16.5581   22.9444 C   0  0  1  0  0  0  0  0  0  0  0  0
   12.1765  -17.8597   23.6067 C   0  0  0  0  0  0  0  0  0  0  0  0
   13.5961  -17.9418   23.9716 C   0  0  0  0  0  0  0  0  0  0  0  0
   14.1322  -17.0933   24.7178 O   0  0  0  0  0  0  0  0  0  0  0  0
   12.8826  -16.3099   21.8794 C   0  0  0  0  0  0  0  0  0  0  0  0
   12.4670  -16.2227   20.5710 O   0  0  0  0  0  0  0  0  0  0  0  0
   14.4290  -18.9750   23.5042 O   0  0  0  0  0  0  0  0  0  0  0  0
   14.0881  -16.1796   22.1556 O   0  0  0  0  0  0  0  0  0  0  0  0
  2  1  1  1
  3  2  1  0
  4  3  1  0
  4  5  2  0
  6  5  1  0
  7  6  2  0
  8  9  2  0
  8  7  1  0
  9  4  1  0
 10  2  1  0
 11 10  2  0
 13 15  1  0
 13 12  1  6
 14 13  1  0
 15 16  1  1
 16 10  1  0
 17 19  1  0
 17 15  1  0
 18 17  2  0
 20 19  1  0
 21 22  1  0
 20 21  1  6
 22 23  2  0
 22 26  1  0
 24 25  1  0
 24 20  1  0
 27 24  2  0
M  END
$$$$
