FVD.pdb
     RDKit          3D

 27 27  0  0  1  0  0  0  0  0999 V2000
    6.2305  -17.3066   26.3508 N   0  0  0  0  0  0  0  0  0  0  0  0
    6.7484  -16.1692   25.6108 C   0  0  1  0  0  0  0  0  0  0  0  0
    7.7114  -15.4157   26.5024 C   0  0  0  0  0  0  0  0  0  0  0  0
    7.2010  -14.0388   26.7024 C   0  0  0  0  0  0  0  0  0  0  0  0
    8.0522  -13.0695   27.1750 C   0  0  0  0  0  0  0  0  0  0  0  0
    7.5534  -11.7942   27.3539 C   0  0  0  0  0  0  0  0  0  0  0  0
    6.2285  -11.4930   27.0658 C   0  0  0  0  0  0  0  0  0  0  0  0
    5.3887  -12.4752   26.5932 C   0  0  0  0  0  0  0  0  0  0  0  0
    5.9004  -13.7590   26.4157 C   0  0  0  0  0  0  0  0  0  0  0  0
    7.4689  -16.5760   24.3953 C   0  0  0  0  0  0  0  0  0  0  0  0
    7.8766  -17.7510   24.3097 O   0  0  0  0  0  0  0  0  0  0  0  0
    8.6435  -13.7606   21.0940 C   0  0  0  0  0  0  0  0  0  0  0  0
    8.0406  -15.1429   20.9396 C   0  0  2  0  0  0  0  0  0  0  0  0
    6.5542  -15.0643   20.6353 C   0  0  0  0  0  0  0  0  0  0  0  0
    8.3511  -16.0383   22.0892 C   0  0  2  0  0  0  0  0  0  0  0  0
    7.7201  -15.7032   23.3250 N   0  0  0  0  0  0  0  0  0  0  0  0
    9.8349  -16.1298   22.2328 C   0  0  0  0  0  0  0  0  0  0  0  0
   10.4165  -15.1822   22.8334 O   0  0  0  0  0  0  0  0  0  0  0  0
   10.6127  -17.1869   21.7498 N   0  0  0  0  0  0  0  0  0  0  0  0
   12.0537  -17.2907   21.9204 C   0  0  1  0  0  0  0  0  0  0  0  0
   12.5191  -18.6232   22.3923 C   0  0  0  0  0  0  0  0  0  0  0  0
   12.3401  -18.7379   23.8448 C   0  0  0  0  0  0  0  0  0  0  0  0
   11.9191  -17.7814   24.5320 O   0  0  0  0  0  0  0  0  0  0  0  0
   12.7738  -16.9177   20.6863 C   0  0  0  0  0  0  0  0  0  0  0  0
   14.1455  -16.8157   20.7051 O   0  0  0  0  0  0  0  0  0  0  0  0
   12.6308  -19.9251   24.5419 O   0  0  0  0  0  0  0  0  0  0  0  0
   12.1512  -16.6956   19.6330 O   0  0  0  0  0  0  0  0  0  0  0  0
  2  1  1  1
  3  2  1  0
  4  3  1  0
  4  5  2  0
  6  5  1  0
  7  6  2  0
  8  9  2  0
  8  7  1  0
  9  4  1  0
 10  2  1  0
 11 10  2  0
 13 15  1  0
 13 12  1  1
 14 13  1  0
 15 16  1  1
 16 10  1  0
 17 19  1  0
 17 15  1  0
 18 17  2  0
 20 19  1  0
 21 22  1  0
 20 21  1  6
 22 23  2  0
 22 26  1  0
 24 25  1  0
 24 20  1  0
 27 24  2  0
M  END
$$$$
