FVD.pdb
     RDKit          3D

 27 27  0  0  1  0  0  0  0  0999 V2000
    8.4546  -14.1850   23.3391 N   0  0  0  0  0  0  0  0  0  0  0  0
    8.4108  -15.1122   24.4562 C   0  0  1  0  0  0  0  0  0  0  0  0
    7.0399  -15.0321   25.0918 C   0  0  0  0  0  0  0  0  0  0  0  0
    6.8392  -13.6644   25.6261 C   0  0  0  0  0  0  0  0  0  0  0  0
    7.7608  -12.6881   25.3348 C   0  0  0  0  0  0  0  0  0  0  0  0
    7.5527  -11.4216   25.8445 C   0  0  0  0  0  0  0  0  0  0  0  0
    6.4441  -11.1360   26.6310 C   0  0  0  0  0  0  0  0  0  0  0  0
    5.5302  -12.1251   26.9138 C   0  0  0  0  0  0  0  0  0  0  0  0
    5.7481  -13.3998   26.3953 C   0  0  0  0  0  0  0  0  0  0  0  0
    8.6430  -16.5022   24.0365 C   0  0  0  0  0  0  0  0  0  0  0  0
    8.1734  -17.4218   24.7353 O   0  0  0  0  0  0  0  0  0  0  0  0
   10.1850  -19.8052   20.6407 C   0  0  0  0  0  0  0  0  0  0  0  0
    9.8363  -18.3749   21.0022 C   0  0  2  0  0  0  0  0  0  0  0  0
   10.7765  -17.3914   20.3261 C   0  0  0  0  0  0  0  0  0  0  0  0
    9.7330  -18.1614   22.4731 C   0  0  2  0  0  0  0  0  0  0  0  0
    9.3694  -16.8439   22.8850 N   0  0  0  0  0  0  0  0  0  0  0  0
   11.0091  -18.6070   23.1085 C   0  0  0  0  0  0  0  0  0  0  0  0
   11.9903  -17.8126   23.0526 O   0  0  0  0  0  0  0  0  0  0  0  0
   11.1845  -19.8349   23.7546 N   0  0  0  0  0  0  0  0  0  0  0  0
   12.4493  -20.3015   24.3014 C   0  0  1  0  0  0  0  0  0  0  0  0
   12.3175  -21.4064   25.2898 C   0  0  0  0  0  0  0  0  0  0  0  0
   11.4924  -20.9758   26.4250 C   0  0  0  0  0  0  0  0  0  0  0  0
   11.4965  -19.7917   26.8278 O   0  0  0  0  0  0  0  0  0  0  0  0
   13.3891  -20.6958   23.2329 C   0  0  0  0  0  0  0  0  0  0  0  0
   14.7005  -20.2853   23.2966 O   0  0  0  0  0  0  0  0  0  0  0  0
   10.6546  -21.8672   27.1202 O   0  0  0  0  0  0  0  0  0  0  0  0
   13.0052  -21.3942   22.2783 O   0  0  0  0  0  0  0  0  0  0  0  0
  2  1  1  6
  3  2  1  0
  4  3  1  0
  4  5  2  0
  6  5  1  0
  7  6  2  0
  8  9  2  0
  8  7  1  0
  9  4  1  0
 10  2  1  0
 11 10  2  0
 13 15  1  0
 13 12  1  1
 14 13  1  0
 15 16  1  6
 16 10  1  0
 17 19  1  0
 17 15  1  0
 18 17  2  0
 20 19  1  0
 21 22  1  0
 20 21  1  1
 22 23  2  0
 22 26  1  0
 24 25  1  0
 24 20  1  0
 27 24  2  0
M  END
$$$$
