HFI.pdb
     RDKit          3D

 30 31  0  0  1  0  0  0  0  0999 V2000
   11.4187  -17.3663   19.5863 N   0  0  0  0  0  0  0  0  0  0  0  0
   10.5587  -17.9048   20.6177 C   0  0  1  0  0  0  0  0  0  0  0  0
   11.2290  -19.1069   21.2070 C   0  0  0  0  0  0  0  0  0  0  0  0
   11.1185  -20.2281   20.2414 C   0  0  0  0  0  0  0  0  0  0  0  0
   10.5434  -20.2565   18.9898 C   0  0  0  0  0  0  0  0  0  0  0  0
   10.6541  -21.4745   18.4359 N   0  0  0  0  0  0  0  0  0  0  0  0
   11.3042  -22.2393   19.3328 C   0  0  0  0  0  0  0  0  0  0  0  0
   11.5885  -21.4951   20.4259 N   0  0  0  0  0  0  0  0  0  0  0  0
   10.2905  -16.8479   21.6196 C   0  0  0  0  0  0  0  0  0  0  0  0
   11.1581  -15.9572   21.8596 O   0  0  0  0  0  0  0  0  0  0  0  0
    9.0734  -16.7780   22.3486 N   0  0  0  0  0  0  0  0  0  0  0  0
    8.9002  -15.7503   23.3543 C   0  0  1  0  0  0  0  0  0  0  0  0
    7.4240  -15.4695   23.4748 C   0  0  0  0  0  0  0  0  0  0  0  0
    7.0934  -14.4211   24.4295 C   0  0  0  0  0  0  0  0  0  0  0  0
    7.4310  -13.1046   24.2143 C   0  0  0  0  0  0  0  0  0  0  0  0
    7.0792  -12.1729   25.1715 C   0  0  0  0  0  0  0  0  0  0  0  0
    6.4076  -12.5137   26.3246 C   0  0  0  0  0  0  0  0  0  0  0  0
    6.0775  -13.8208   26.5287 C   0  0  0  0  0  0  0  0  0  0  0  0
    6.4208  -14.7659   25.5831 C   0  0  0  0  0  0  0  0  0  0  0  0
    9.3287  -16.3398   24.6707 C   0  0  0  0  0  0  0  0  0  0  0  0
    9.2168  -17.5756   24.9106 O   0  0  0  0  0  0  0  0  0  0  0  0
   10.2469  -13.4178   29.4985 C   0  0  0  0  0  0  0  0  0  0  0  0
    9.7136  -14.4474   28.5267 C   0  0  0  0  0  0  0  0  0  0  0  0
   10.9084  -15.1264   27.8907 C   0  0  2  0  0  0  0  0  0  0  0  0
   11.7766  -14.1136   27.2079 C   0  0  0  0  0  0  0  0  0  0  0  0
   10.4832  -16.1543   26.8662 C   0  0  2  0  0  0  0  0  0  0  0  0
    9.8780  -15.5406   25.7050 N   0  0  0  0  0  0  0  0  0  0  0  0
    9.4581  -17.0052   27.5126 C   0  0  0  0  0  0  0  0  0  0  0  0
    9.7309  -17.8186   28.4351 O   0  0  0  0  0  0  0  0  0  0  0  0
    8.1435  -16.9039   27.0863 O   0  0  0  0  0  0  0  0  0  0  0  0
  2  3  1  0
  2  1  1  6
  3  4  1  0
  4  8  1  0
  5  6  1  0
  5  4  2  0
  6  7  1  0
  7  8  2  0
  9  2  1  0
  9 10  2  0
 11  9  1  0
 12 11  1  0
 12 20  1  0
 12 13  1  1
 14 19  1  0
 14 13  1  0
 15 14  2  0
 16 17  2  0
 16 15  1  0
 17 18  1  0
 18 19  2  0
 20 27  1  0
 21 20  2  0
 23 22  1  0
 24 23  1  0
 24 26  1  0
 24 25  1  6
 26 28  1  0
 26 27  1  6
 28 29  2  0
 28 30  1  0
M  END
$$$$
