HFI.pdb
     RDKit          3D

 30 31  0  0  1  0  0  0  0  0999 V2000
   11.7946  -16.9082   19.8406 N   0  0  0  0  0  0  0  0  0  0  0  0
   10.6504  -17.3945   20.5808 C   0  0  1  0  0  0  0  0  0  0  0  0
   10.9445  -18.7905   21.0350 C   0  0  0  0  0  0  0  0  0  0  0  0
   10.4426  -19.7355   20.0070 C   0  0  0  0  0  0  0  0  0  0  0  0
    9.7926  -19.4786   18.8197 C   0  0  0  0  0  0  0  0  0  0  0  0
    9.5042  -20.6184   18.1716 N   0  0  0  0  0  0  0  0  0  0  0  0
    9.9695  -21.6191   18.9424 C   0  0  0  0  0  0  0  0  0  0  0  0
   10.5376  -21.0953   20.0526 N   0  0  0  0  0  0  0  0  0  0  0  0
   10.3776  -16.4703   21.7051 C   0  0  0  0  0  0  0  0  0  0  0  0
   11.3173  -15.8007   22.2269 O   0  0  0  0  0  0  0  0  0  0  0  0
    9.0769  -16.2892   22.2463 N   0  0  0  0  0  0  0  0  0  0  0  0
    8.8552  -15.2676   23.2487 C   0  0  1  0  0  0  0  0  0  0  0  0
    7.3920  -14.9057   23.2202 C   0  0  0  0  0  0  0  0  0  0  0  0
    6.9766  -14.0202   24.2987 C   0  0  0  0  0  0  0  0  0  0  0  0
    6.3012  -14.4833   25.4045 C   0  0  0  0  0  0  0  0  0  0  0  0
    5.9438  -13.5752   26.3820 C   0  0  0  0  0  0  0  0  0  0  0  0
    6.2380  -12.2329   26.2886 C   0  0  0  0  0  0  0  0  0  0  0  0
    6.9075  -11.7838   25.1890 C   0  0  0  0  0  0  0  0  0  0  0  0
    7.2728  -12.6767   24.2019 C   0  0  0  0  0  0  0  0  0  0  0  0
    9.1098  -15.8988   24.5906 C   0  0  0  0  0  0  0  0  0  0  0  0
    9.1735  -17.1533   24.7310 O   0  0  0  0  0  0  0  0  0  0  0  0
   11.1301  -14.0043   30.1431 C   0  0  0  0  0  0  0  0  0  0  0  0
   11.0944  -15.0923   29.0925 C   0  0  0  0  0  0  0  0  0  0  0  0
   10.3398  -14.5418   27.9006 C   0  0  2  0  0  0  0  0  0  0  0  0
    9.0016  -14.0216   28.3305 C   0  0  0  0  0  0  0  0  0  0  0  0
   10.1196  -15.6014   26.8443 C   0  0  2  0  0  0  0  0  0  0  0  0
    9.2907  -15.1201   25.7616 N   0  0  0  0  0  0  0  0  0  0  0  0
    9.4015  -16.7179   27.5004 C   0  0  0  0  0  0  0  0  0  0  0  0
    9.9602  -17.5052   28.3098 O   0  0  0  0  0  0  0  0  0  0  0  0
    8.0589  -16.9060   27.2133 O   0  0  0  0  0  0  0  0  0  0  0  0
  2  3  1  0
  2  1  1  1
  3  4  1  0
  4  8  1  0
  5  6  1  0
  5  4  2  0
  6  7  1  0
  7  8  2  0
  9  2  1  0
  9 10  2  0
 11  9  1  0
 12 11  1  0
 12 20  1  0
 12 13  1  1
 14 19  1  0
 14 13  1  0
 15 14  2  0
 16 17  2  0
 16 15  1  0
 17 18  1  0
 18 19  2  0
 20 27  1  0
 21 20  2  0
 23 22  1  0
 24 23  1  0
 24 26  1  0
 24 25  1  1
 26 28  1  0
 26 27  1  6
 28 29  2  0
 28 30  1  0
M  END
$$$$
