HFI.pdb
     RDKit          3D

 30 31  0  0  1  0  0  0  0  0999 V2000
   11.5811  -17.1506   19.7824 N   0  0  0  0  0  0  0  0  0  0  0  0
   10.4801  -17.6320   20.5884 C   0  0  1  0  0  0  0  0  0  0  0  0
   10.7894  -19.0331   21.0159 C   0  0  0  0  0  0  0  0  0  0  0  0
   10.3009  -19.9636   19.9685 C   0  0  0  0  0  0  0  0  0  0  0  0
    9.6691  -19.6899   18.7751 C   0  0  0  0  0  0  0  0  0  0  0  0
    9.3882  -20.8206   18.1080 N   0  0  0  0  0  0  0  0  0  0  0  0
    9.8399  -21.8322   18.8726 C   0  0  0  0  0  0  0  0  0  0  0  0
   10.3925  -21.3240   19.9978 N   0  0  0  0  0  0  0  0  0  0  0  0
   10.2844  -16.7124   21.7323 C   0  0  0  0  0  0  0  0  0  0  0  0
   11.2723  -16.1092   22.2461 O   0  0  0  0  0  0  0  0  0  0  0  0
    9.0073  -16.4632   22.3018 N   0  0  0  0  0  0  0  0  0  0  0  0
    8.8724  -15.4720   23.3492 C   0  0  1  0  0  0  0  0  0  0  0  0
    7.4127  -15.1099   23.4540 C   0  0  0  0  0  0  0  0  0  0  0  0
    7.1273  -14.0620   24.4236 C   0  0  0  0  0  0  0  0  0  0  0  0
    7.5219  -12.7584   24.2273 C   0  0  0  0  0  0  0  0  0  0  0  0
    7.2103  -11.8262   25.1979 C   0  0  0  0  0  0  0  0  0  0  0  0
    6.5238  -12.1541   26.3460 C   0  0  0  0  0  0  0  0  0  0  0  0
    6.1373  -13.4485   26.5312 C   0  0  0  0  0  0  0  0  0  0  0  0
    6.4398  -14.3938   25.5721 C   0  0  0  0  0  0  0  0  0  0  0  0
    9.2370  -16.1429   24.6458 C   0  0  0  0  0  0  0  0  0  0  0  0
    8.9895  -17.3651   24.8515 O   0  0  0  0  0  0  0  0  0  0  0  0
   10.4177  -13.3358   29.4609 C   0  0  0  0  0  0  0  0  0  0  0  0
    9.7879  -14.2173   28.4049 C   0  0  0  0  0  0  0  0  0  0  0  0
   10.8536  -15.1836   27.9319 C   0  0  2  0  0  0  0  0  0  0  0  0
   12.0054  -14.4327   27.3357 C   0  0  0  0  0  0  0  0  0  0  0  0
   10.3164  -16.1356   26.8868 C   0  0  2  0  0  0  0  0  0  0  0  0
    9.8748  -15.4395   25.6987 N   0  0  0  0  0  0  0  0  0  0  0  0
    9.1372  -16.8047   27.4822 C   0  0  0  0  0  0  0  0  0  0  0  0
    7.9550  -16.5274   27.1468 O   0  0  0  0  0  0  0  0  0  0  0  0
    9.3407  -17.7765   28.4489 O   0  0  0  0  0  0  0  0  0  0  0  0
  2  3  1  0
  2  1  1  6
  3  4  1  0
  4  8  1  0
  5  6  1  0
  5  4  2  0
  6  7  1  0
  7  8  2  0
  9  2  1  0
  9 10  2  0
 11  9  1  0
 12 11  1  0
 12 20  1  0
 12 13  1  1
 14 19  1  0
 14 13  1  0
 15 14  2  0
 16 17  2  0
 16 15  1  0
 17 18  1  0
 18 19  2  0
 20 27  1  0
 21 20  2  0
 23 22  1  0
 24 23  1  0
 24 26  1  0
 24 25  1  6
 26 28  1  0
 26 27  1  6
 28 29  2  0
 28 30  1  0
M  END
$$$$
