HFI.pdb
     RDKit          3D

 30 31  0  0  1  0  0  0  0  0999 V2000
   11.2616  -17.0126   19.7354 N   0  0  0  0  0  0  0  0  0  0  0  0
   10.2154  -17.5205   20.5961 C   0  0  1  0  0  0  0  0  0  0  0  0
   10.5826  -18.9118   21.0099 C   0  0  0  0  0  0  0  0  0  0  0  0
   10.2126  -19.8418   19.9146 C   0  0  0  0  0  0  0  0  0  0  0  0
    9.0029  -20.4424   19.6427 C   0  0  0  0  0  0  0  0  0  0  0  0
    9.0853  -21.2200   18.5513 N   0  0  0  0  0  0  0  0  0  0  0  0
   10.3545  -21.1230   18.1136 C   0  0  0  0  0  0  0  0  0  0  0  0
   11.0423  -20.2929   18.9306 N   0  0  0  0  0  0  0  0  0  0  0  0
   10.0526  -16.6031   21.7470 C   0  0  0  0  0  0  0  0  0  0  0  0
   11.0566  -16.0101   22.2409 O   0  0  0  0  0  0  0  0  0  0  0  0
    8.7905  -16.3449   22.3451 N   0  0  0  0  0  0  0  0  0  0  0  0
    8.6975  -15.4013   23.4400 C   0  0  1  0  0  0  0  0  0  0  0  0
    7.2423  -15.0535   23.6245 C   0  0  0  0  0  0  0  0  0  0  0  0
    6.9924  -14.0749   24.6733 C   0  0  0  0  0  0  0  0  0  0  0  0
    7.5945  -12.8376   24.6759 C   0  0  0  0  0  0  0  0  0  0  0  0
    7.3019  -11.9687   25.7091 C   0  0  0  0  0  0  0  0  0  0  0  0
    6.4352  -12.2957   26.7284 C   0  0  0  0  0  0  0  0  0  0  0  0
    5.8437  -13.5241   26.7167 C   0  0  0  0  0  0  0  0  0  0  0  0
    6.1241  -14.4056   25.6923 C   0  0  0  0  0  0  0  0  0  0  0  0
    9.1220  -16.1259   24.6885 C   0  0  0  0  0  0  0  0  0  0  0  0
    8.9554  -17.3718   24.8202 O   0  0  0  0  0  0  0  0  0  0  0  0
   10.1263  -13.6839   29.7395 C   0  0  0  0  0  0  0  0  0  0  0  0
    9.5828  -14.4999   28.5873 C   0  0  0  0  0  0  0  0  0  0  0  0
   10.7418  -15.2798   28.0028 C   0  0  2  0  0  0  0  0  0  0  0  0
   11.7745  -14.3410   27.4568 C   0  0  0  0  0  0  0  0  0  0  0  0
   10.2903  -16.1911   26.8836 C   0  0  2  0  0  0  0  0  0  0  0  0
    9.7285  -15.4491   25.7768 N   0  0  0  0  0  0  0  0  0  0  0  0
    9.2215  -17.0533   27.4376 C   0  0  0  0  0  0  0  0  0  0  0  0
    9.4427  -17.9413   28.3033 O   0  0  0  0  0  0  0  0  0  0  0  0
    7.9232  -16.8773   26.9861 O   0  0  0  0  0  0  0  0  0  0  0  0
  2  3  1  0
  2  1  1  6
  3  4  1  0
  4  8  1  0
  5  6  1  0
  5  4  2  0
  6  7  1  0
  7  8  2  0
  9  2  1  0
  9 10  2  0
 11  9  1  0
 12 11  1  0
 12 20  1  0
 12 13  1  1
 14 19  1  0
 14 13  1  0
 15 14  2  0
 16 17  2  0
 16 15  1  0
 17 18  1  0
 18 19  2  0
 20 27  1  0
 21 20  2  0
 23 22  1  0
 24 23  1  0
 24 26  1  0
 24 25  1  6
 26 28  1  0
 26 27  1  6
 28 29  2  0
 28 30  1  0
M  END
$$$$
