HFI.pdb
     RDKit          3D

 30 31  0  0  1  0  0  0  0  0999 V2000
   11.2812  -17.3784   19.6798 N   0  0  0  0  0  0  0  0  0  0  0  0
   10.4066  -17.9164   20.6991 C   0  0  1  0  0  0  0  0  0  0  0  0
   11.0146  -19.1823   21.2184 C   0  0  0  0  0  0  0  0  0  0  0  0
   10.4528  -20.3227   20.4533 C   0  0  0  0  0  0  0  0  0  0  0  0
    9.5376  -20.3243   19.4234 C   0  0  0  0  0  0  0  0  0  0  0  0
    9.2906  -21.5742   18.9999 N   0  0  0  0  0  0  0  0  0  0  0  0
   10.0493  -22.3867   19.7590 C   0  0  0  0  0  0  0  0  0  0  0  0
   10.7542  -21.6398   20.6391 N   0  0  0  0  0  0  0  0  0  0  0  0
   10.2149  -16.8961   21.7550 C   0  0  0  0  0  0  0  0  0  0  0  0
   11.1548  -16.1036   22.0586 O   0  0  0  0  0  0  0  0  0  0  0  0
    8.9944  -16.7546   22.4676 N   0  0  0  0  0  0  0  0  0  0  0  0
    8.8367  -15.6630   23.4063 C   0  0  1  0  0  0  0  0  0  0  0  0
    7.3616  -15.3830   23.5417 C   0  0  0  0  0  0  0  0  0  0  0  0
    7.0413  -14.3218   24.4857 C   0  0  0  0  0  0  0  0  0  0  0  0
    6.2416  -14.5386   25.5843 C   0  0  0  0  0  0  0  0  0  0  0  0
    5.9875  -13.4763   26.4299 C   0  0  0  0  0  0  0  0  0  0  0  0
    6.5030  -12.2177   26.2128 C   0  0  0  0  0  0  0  0  0  0  0  0
    7.2943  -12.0130   25.1215 C   0  0  0  0  0  0  0  0  0  0  0  0
    7.5591  -13.0627   24.2653 C   0  0  0  0  0  0  0  0  0  0  0  0
    9.2988  -16.1609   24.7488 C   0  0  0  0  0  0  0  0  0  0  0  0
    9.0756  -17.3456   25.1285 O   0  0  0  0  0  0  0  0  0  0  0  0
   10.1961  -12.5046   28.7743 C   0  0  0  0  0  0  0  0  0  0  0  0
   10.5640  -13.4300   27.6354 C   0  0  0  0  0  0  0  0  0  0  0  0
   10.1654  -14.8313   28.0482 C   0  0  2  0  0  0  0  0  0  0  0  0
   10.9434  -15.2560   29.2567 C   0  0  0  0  0  0  0  0  0  0  0  0
   10.4233  -15.8309   26.9429 C   0  0  2  0  0  0  0  0  0  0  0  0
   10.0060  -15.3284   25.6527 N   0  0  0  0  0  0  0  0  0  0  0  0
    9.6053  -17.0270   27.2474 C   0  0  0  0  0  0  0  0  0  0  0  0
    8.3496  -17.0374   27.1464 O   0  0  0  0  0  0  0  0  0  0  0  0
   10.2460  -18.1842   27.6607 O   0  0  0  0  0  0  0  0  0  0  0  0
  2  3  1  0
  2  1  1  6
  3  4  1  0
  4  8  1  0
  5  6  1  0
  5  4  2  0
  6  7  1  0
  7  8  2  0
  9  2  1  0
  9 10  2  0
 11  9  1  0
 12 11  1  0
 12 20  1  0
 12 13  1  1
 14 19  1  0
 14 13  1  0
 15 14  2  0
 16 17  2  0
 16 15  1  0
 17 18  1  0
 18 19  2  0
 20 27  1  0
 21 20  2  0
 23 22  1  0
 24 23  1  0
 24 26  1  0
 24 25  1  1
 26 28  1  0
 26 27  1  6
 28 29  2  0
 28 30  1  0
M  END
$$$$
