HFI.pdb
     RDKit          3D

 30 31  0  0  1  0  0  0  0  0999 V2000
   11.0742  -17.0090   19.6416 N   0  0  0  0  0  0  0  0  0  0  0  0
   10.0904  -17.5441   20.5578 C   0  0  1  0  0  0  0  0  0  0  0  0
   10.5382  -18.9082   20.9825 C   0  0  0  0  0  0  0  0  0  0  0  0
   10.2836  -19.8552   19.8690 C   0  0  0  0  0  0  0  0  0  0  0  0
    9.0945  -20.3926   19.4270 C   0  0  0  0  0  0  0  0  0  0  0  0
    9.2949  -21.2143   18.3844 N   0  0  0  0  0  0  0  0  0  0  0  0
   10.6203  -21.2096   18.1494 C   0  0  0  0  0  0  0  0  0  0  0  0
   11.2251  -20.3918   19.0410 N   0  0  0  0  0  0  0  0  0  0  0  0
    9.9362  -16.6098   21.6962 C   0  0  0  0  0  0  0  0  0  0  0  0
   10.9475  -16.0308   22.1917 O   0  0  0  0  0  0  0  0  0  0  0  0
    8.6744  -16.3197   22.2802 N   0  0  0  0  0  0  0  0  0  0  0  0
    8.5872  -15.3424   23.3456 C   0  0  1  0  0  0  0  0  0  0  0  0
    7.1578  -14.8690   23.4190 C   0  0  0  0  0  0  0  0  0  0  0  0
    6.8769  -13.9967   24.5505 C   0  0  0  0  0  0  0  0  0  0  0  0
    6.1333  -14.4168   25.6293 C   0  0  0  0  0  0  0  0  0  0  0  0
    5.9138  -13.5249   26.6611 C   0  0  0  0  0  0  0  0  0  0  0  0
    6.4097  -12.2400   26.6470 C   0  0  0  0  0  0  0  0  0  0  0  0
    7.1453  -11.8333   25.5735 C   0  0  0  0  0  0  0  0  0  0  0  0
    7.3750  -12.7107   24.5331 C   0  0  0  0  0  0  0  0  0  0  0  0
    8.8611  -16.0660   24.6361 C   0  0  0  0  0  0  0  0  0  0  0  0
    8.5218  -17.2719   24.8041 O   0  0  0  0  0  0  0  0  0  0  0  0
   10.6209  -13.5836   29.4991 C   0  0  0  0  0  0  0  0  0  0  0  0
    9.8173  -14.3852   28.4989 C   0  0  0  0  0  0  0  0  0  0  0  0
   10.7705  -15.3515   27.8276 C   0  0  2  0  0  0  0  0  0  0  0  0
   11.8609  -14.5998   27.1261 C   0  0  0  0  0  0  0  0  0  0  0  0
   10.0604  -16.2163   26.8102 C   0  0  2  0  0  0  0  0  0  0  0  0
    9.5117  -15.4331   25.7253 N   0  0  0  0  0  0  0  0  0  0  0  0
    8.9310  -16.8661   27.5137 C   0  0  0  0  0  0  0  0  0  0  0  0
    7.7294  -16.5434   27.3168 O   0  0  0  0  0  0  0  0  0  0  0  0
    9.2056  -17.8714   28.4271 O   0  0  0  0  0  0  0  0  0  0  0  0
  2  3  1  0
  2  1  1  6
  3  4  1  0
  4  8  1  0
  5  6  1  0
  5  4  2  0
  6  7  1  0
  7  8  2  0
  9  2  1  0
  9 10  2  0
 11  9  1  0
 12 11  1  0
 12 20  1  0
 12 13  1  1
 14 19  1  0
 14 13  1  0
 15 14  2  0
 16 17  2  0
 16 15  1  0
 17 18  1  0
 18 19  2  0
 20 27  1  0
 21 20  2  0
 23 22  1  0
 24 23  1  0
 24 26  1  0
 24 25  1  6
 26 28  1  0
 26 27  1  6
 28 29  2  0
 28 30  1  0
M  END
$$$$
