HFI.pdb
     RDKit          3D

 30 31  0  0  1  0  0  0  0  0999 V2000
    9.1894  -17.1120   19.7952 N   0  0  0  0  0  0  0  0  0  0  0  0
   10.4191  -16.4783   20.2190 C   0  0  1  0  0  0  0  0  0  0  0  0
   10.8918  -15.5857   19.1138 C   0  0  0  0  0  0  0  0  0  0  0  0
    9.7052  -15.0305   18.4171 C   0  0  0  0  0  0  0  0  0  0  0  0
    9.4031  -13.7239   18.1012 C   0  0  0  0  0  0  0  0  0  0  0  0
    8.2238  -13.6422   17.4647 N   0  0  0  0  0  0  0  0  0  0  0  0
    7.7592  -14.9018   17.3676 C   0  0  0  0  0  0  0  0  0  0  0  0
    8.6471  -15.7466   17.9399 N   0  0  0  0  0  0  0  0  0  0  0  0
   10.1717  -15.7465   21.4823 C   0  0  0  0  0  0  0  0  0  0  0  0
   11.0845  -15.0399   22.0031 O   0  0  0  0  0  0  0  0  0  0  0  0
    8.9257  -15.7966   22.1623 N   0  0  0  0  0  0  0  0  0  0  0  0
    8.7496  -15.0468   23.3889 C   0  0  1  0  0  0  0  0  0  0  0  0
    7.2726  -14.8084   23.5737 C   0  0  0  0  0  0  0  0  0  0  0  0
    6.9463  -13.9273   24.6860 C   0  0  0  0  0  0  0  0  0  0  0  0
    7.2575  -12.5870   24.6713 C   0  0  0  0  0  0  0  0  0  0  0  0
    6.9121  -11.8221   25.7684 C   0  0  0  0  0  0  0  0  0  0  0  0
    6.2720  -12.3506   26.8675 C   0  0  0  0  0  0  0  0  0  0  0  0
    5.9679  -13.6797   26.8723 C   0  0  0  0  0  0  0  0  0  0  0  0
    6.3054  -14.4598   25.7849 C   0  0  0  0  0  0  0  0  0  0  0  0
    9.1802  -15.9392   24.5212 C   0  0  0  0  0  0  0  0  0  0  0  0
    9.3472  -17.1814   24.3586 O   0  0  0  0  0  0  0  0  0  0  0  0
   10.5364  -13.4282   29.3418 C   0  0  0  0  0  0  0  0  0  0  0  0
   10.6875  -14.0917   27.9906 C   0  0  0  0  0  0  0  0  0  0  0  0
   10.2208  -15.5246   28.1388 C   0  0  2  0  0  0  0  0  0  0  0  0
   11.1703  -16.2909   29.0091 C   0  0  0  0  0  0  0  0  0  0  0  0
   10.1361  -16.2229   26.8000 C   0  0  2  0  0  0  0  0  0  0  0  0
    9.4194  -15.4328   25.8237 N   0  0  0  0  0  0  0  0  0  0  0  0
    9.3731  -17.4734   27.0163 C   0  0  0  0  0  0  0  0  0  0  0  0
    9.9205  -18.5545   27.3608 O   0  0  0  0  0  0  0  0  0  0  0  0
    7.9997  -17.4555   26.8327 O   0  0  0  0  0  0  0  0  0  0  0  0
  2  3  1  0
  2  1  1  6
  3  4  1  0
  4  8  1  0
  5  6  1  0
  5  4  2  0
  6  7  1  0
  7  8  2  0
  9  2  1  0
  9 10  2  0
 11  9  1  0
 12 11  1  0
 12 20  1  0
 12 13  1  1
 14 19  1  0
 14 13  1  0
 15 14  2  0
 16 17  2  0
 16 15  1  0
 17 18  1  0
 18 19  2  0
 20 27  1  0
 21 20  2  0
 23 22  1  0
 24 23  1  0
 24 26  1  0
 24 25  1  1
 26 28  1  0
 26 27  1  6
 28 29  2  0
 28 30  1  0
M  END
$$$$
