HFI.pdb
     RDKit          3D

 30 31  0  0  1  0  0  0  0  0999 V2000
    9.7950  -18.0580   20.3152 N   0  0  0  0  0  0  0  0  0  0  0  0
   10.8461  -17.0859   20.5243 C   0  0  1  0  0  0  0  0  0  0  0  0
   11.1089  -16.3921   19.2239 C   0  0  0  0  0  0  0  0  0  0  0  0
   11.1698  -17.4135   18.1494 C   0  0  0  0  0  0  0  0  0  0  0  0
   10.9706  -18.7750   18.2187 C   0  0  0  0  0  0  0  0  0  0  0  0
   11.1179  -19.3458   17.0125 N   0  0  0  0  0  0  0  0  0  0  0  0
   11.4141  -18.3496   16.1570 C   0  0  0  0  0  0  0  0  0  0  0  0
   11.4475  -17.1795   16.8347 N   0  0  0  0  0  0  0  0  0  0  0  0
   10.4322  -16.1548   21.5987 C   0  0  0  0  0  0  0  0  0  0  0  0
   11.2246  -15.2559   22.0083 O   0  0  0  0  0  0  0  0  0  0  0  0
    9.1534  -16.2183   22.2135 N   0  0  0  0  0  0  0  0  0  0  0  0
    8.8748  -15.3943   23.3716 C   0  0  1  0  0  0  0  0  0  0  0  0
    7.3790  -15.2385   23.4756 C   0  0  0  0  0  0  0  0  0  0  0  0
    6.9457  -14.3526   24.5468 C   0  0  0  0  0  0  0  0  0  0  0  0
    6.2536  -14.8157   25.6422 C   0  0  0  0  0  0  0  0  0  0  0  0
    5.8800  -13.9072   26.6134 C   0  0  0  0  0  0  0  0  0  0  0  0
    6.1741  -12.5646   26.5235 C   0  0  0  0  0  0  0  0  0  0  0  0
    6.8603  -12.1157   25.4342 C   0  0  0  0  0  0  0  0  0  0  0  0
    7.2419  -13.0089   24.4536 C   0  0  0  0  0  0  0  0  0  0  0  0
    9.3056  -16.1727   24.5850 C   0  0  0  0  0  0  0  0  0  0  0  0
    9.6261  -17.3930   24.5097 O   0  0  0  0  0  0  0  0  0  0  0  0
   10.5146  -13.0881   29.0902 C   0  0  0  0  0  0  0  0  0  0  0  0
   10.6882  -13.9207   27.8391 C   0  0  0  0  0  0  0  0  0  0  0  0
   10.2092  -15.3207   28.1607 C   0  0  2  0  0  0  0  0  0  0  0  0
   11.1309  -15.9690   29.1487 C   0  0  0  0  0  0  0  0  0  0  0  0
   10.1554  -16.1878   26.9228 C   0  0  2  0  0  0  0  0  0  0  0  0
    9.3733  -15.5780   25.8703 N   0  0  0  0  0  0  0  0  0  0  0  0
    9.4832  -17.4487   27.3116 C   0  0  0  0  0  0  0  0  0  0  0  0
    8.2302  -17.5787   27.3184 O   0  0  0  0  0  0  0  0  0  0  0  0
   10.2635  -18.5317   27.6838 O   0  0  0  0  0  0  0  0  0  0  0  0
  2  3  1  0
  2  1  1  6
  3  4  1  0
  4  8  1  0
  5  6  1  0
  5  4  2  0
  6  7  1  0
  7  8  2  0
  9  2  1  0
  9 10  2  0
 11  9  1  0
 12 11  1  0
 12 20  1  0
 12 13  1  1
 14 19  1  0
 14 13  1  0
 15 14  2  0
 16 17  2  0
 16 15  1  0
 17 18  1  0
 18 19  2  0
 20 27  1  0
 21 20  2  0
 23 22  1  0
 24 23  1  0
 24 26  1  0
 24 25  1  1
 26 28  1  0
 26 27  1  6
 28 29  2  0
 28 30  1  0
M  END
$$$$
