HFI.pdb
     RDKit          3D

 30 31  0  0  1  0  0  0  0  0999 V2000
   11.1198  -17.0629   19.6279 N   0  0  0  0  0  0  0  0  0  0  0  0
   10.0930  -17.5177   20.5401 C   0  0  1  0  0  0  0  0  0  0  0  0
   10.4920  -18.8630   21.0623 C   0  0  0  0  0  0  0  0  0  0  0  0
    9.8903  -19.9032   20.1919 C   0  0  0  0  0  0  0  0  0  0  0  0
    9.1572  -19.7636   19.0337 C   0  0  0  0  0  0  0  0  0  0  0  0
    8.7931  -20.9605   18.5465 N   0  0  0  0  0  0  0  0  0  0  0  0
    9.2924  -21.8804   19.3930 C   0  0  0  0  0  0  0  0  0  0  0  0
    9.9564  -21.2511   20.3893 N   0  0  0  0  0  0  0  0  0  0  0  0
    9.9244  -16.5119   21.6136 C   0  0  0  0  0  0  0  0  0  0  0  0
   10.9016  -15.7937   21.9783 O   0  0  0  0  0  0  0  0  0  0  0  0
    8.6858  -16.3032   22.2769 N   0  0  0  0  0  0  0  0  0  0  0  0
    8.6130  -15.3642   23.3771 C   0  0  1  0  0  0  0  0  0  0  0  0
    7.1703  -14.9585   23.5403 C   0  0  0  0  0  0  0  0  0  0  0  0
    6.9278  -14.0580   24.6584 C   0  0  0  0  0  0  0  0  0  0  0  0
    6.2336  -14.4547   25.7782 C   0  0  0  0  0  0  0  0  0  0  0  0
    6.0481  -13.5367   26.7936 C   0  0  0  0  0  0  0  0  0  0  0  0
    6.5304  -12.2485   26.7242 C   0  0  0  0  0  0  0  0  0  0  0  0
    7.2170  -11.8651   25.6104 C   0  0  0  0  0  0  0  0  0  0  0  0
    7.4121  -12.7687   24.5855 C   0  0  0  0  0  0  0  0  0  0  0  0
    8.9867  -16.1140   24.6269 C   0  0  0  0  0  0  0  0  0  0  0  0
    8.7477  -17.3484   24.7551 O   0  0  0  0  0  0  0  0  0  0  0  0
   10.1230  -13.8660   29.7266 C   0  0  0  0  0  0  0  0  0  0  0  0
    9.5540  -14.6745   28.5814 C   0  0  0  0  0  0  0  0  0  0  0  0
   10.7120  -15.3879   27.9158 C   0  0  2  0  0  0  0  0  0  0  0  0
   11.6958  -14.3914   27.3819 C   0  0  0  0  0  0  0  0  0  0  0  0
   10.2450  -16.2549   26.7681 C   0  0  2  0  0  0  0  0  0  0  0  0
    9.6240  -15.4750   25.7205 N   0  0  0  0  0  0  0  0  0  0  0  0
    9.2202  -17.1737   27.3144 C   0  0  0  0  0  0  0  0  0  0  0  0
    7.9943  -17.0641   27.0457 O   0  0  0  0  0  0  0  0  0  0  0  0
    9.6248  -18.1973   28.1564 O   0  0  0  0  0  0  0  0  0  0  0  0
  2  3  1  0
  2  1  1  6
  3  4  1  0
  4  8  1  0
  5  6  1  0
  5  4  2  0
  6  7  1  0
  7  8  2  0
  9  2  1  0
  9 10  2  0
 11  9  1  0
 12 11  1  0
 12 20  1  0
 12 13  1  1
 14 19  1  0
 14 13  1  0
 15 14  2  0
 16 17  2  0
 16 15  1  0
 17 18  1  0
 18 19  2  0
 20 27  1  0
 21 20  2  0
 23 22  1  0
 24 23  1  0
 24 26  1  0
 24 25  1  6
 26 28  1  0
 26 27  1  6
 28 29  2  0
 28 30  1  0
M  END
$$$$
