HFI.pdb
     RDKit          3D

 30 31  0  0  1  0  0  0  0  0999 V2000
    9.9593  -17.9915   20.2631 N   0  0  0  0  0  0  0  0  0  0  0  0
   11.1246  -17.2920   20.7595 C   0  0  1  0  0  0  0  0  0  0  0  0
   11.7511  -16.5548   19.6169 C   0  0  0  0  0  0  0  0  0  0  0  0
   12.1936  -17.5447   18.6041 C   0  0  0  0  0  0  0  0  0  0  0  0
   12.0527  -18.9152   18.5945 C   0  0  0  0  0  0  0  0  0  0  0  0
   12.5948  -19.4478   17.4877 N   0  0  0  0  0  0  0  0  0  0  0  0
   13.0896  -18.4176   16.7764 C   0  0  0  0  0  0  0  0  0  0  0  0
   12.8519  -17.2648   17.4428 N   0  0  0  0  0  0  0  0  0  0  0  0
   10.7125  -16.3962   21.8642 C   0  0  0  0  0  0  0  0  0  0  0  0
   11.5536  -15.6222   22.4095 O   0  0  0  0  0  0  0  0  0  0  0  0
    9.3822  -16.3577   22.3603 N   0  0  0  0  0  0  0  0  0  0  0  0
    9.0577  -15.4858   23.4703 C   0  0  1  0  0  0  0  0  0  0  0  0
    7.5645  -15.2791   23.4711 C   0  0  0  0  0  0  0  0  0  0  0  0
    7.0886  -14.3785   24.5114 C   0  0  0  0  0  0  0  0  0  0  0  0
    7.3614  -13.0299   24.4907 C   0  0  0  0  0  0  0  0  0  0  0  0
    6.8714  -12.2464   25.5174 C   0  0  0  0  0  0  0  0  0  0  0  0
    6.1254  -12.7645   26.5527 C   0  0  0  0  0  0  0  0  0  0  0  0
    5.8605  -14.1019   26.5643 C   0  0  0  0  0  0  0  0  0  0  0  0
    6.3418  -14.9006   25.5467 C   0  0  0  0  0  0  0  0  0  0  0  0
    9.3828  -16.2351   24.7339 C   0  0  0  0  0  0  0  0  0  0  0  0
    9.4585  -17.4965   24.7550 O   0  0  0  0  0  0  0  0  0  0  0  0
   10.5116  -13.2373   29.3610 C   0  0  0  0  0  0  0  0  0  0  0  0
   10.7186  -14.0207   28.0834 C   0  0  0  0  0  0  0  0  0  0  0  0
   10.2212  -15.4288   28.3339 C   0  0  2  0  0  0  0  0  0  0  0  0
   11.0834  -16.1087   29.3538 C   0  0  0  0  0  0  0  0  0  0  0  0
   10.2393  -16.2579   27.0692 C   0  0  2  0  0  0  0  0  0  0  0  0
    9.6200  -15.5655   25.9610 N   0  0  0  0  0  0  0  0  0  0  0  0
    9.4417  -17.4751   27.3432 C   0  0  0  0  0  0  0  0  0  0  0  0
    8.1819  -17.4776   27.3465 O   0  0  0  0  0  0  0  0  0  0  0  0
   10.1070  -18.6617   27.6071 O   0  0  0  0  0  0  0  0  0  0  0  0
  2  3  1  0
  2  1  1  6
  3  4  1  0
  4  8  1  0
  5  6  1  0
  5  4  2  0
  6  7  1  0
  7  8  2  0
  9  2  1  0
  9 10  2  0
 11  9  1  0
 12 11  1  0
 12 20  1  0
 12 13  1  1
 14 19  1  0
 14 13  1  0
 15 14  2  0
 16 17  2  0
 16 15  1  0
 17 18  1  0
 18 19  2  0
 20 27  1  0
 21 20  2  0
 23 22  1  0
 24 23  1  0
 24 26  1  0
 24 25  1  1
 26 28  1  0
 26 27  1  6
 28 29  2  0
 28 30  1  0
M  END
$$$$
