HFI.pdb
     RDKit          3D

 30 31  0  0  1  0  0  0  0  0999 V2000
   11.9207  -16.9082   19.7931 N   0  0  0  0  0  0  0  0  0  0  0  0
   10.9091  -17.5128   20.6325 C   0  0  1  0  0  0  0  0  0  0  0  0
   11.4453  -18.8104   21.1525 C   0  0  0  0  0  0  0  0  0  0  0  0
   11.0095  -19.8983   20.2425 C   0  0  0  0  0  0  0  0  0  0  0  0
   10.2515  -19.8324   19.0938 C   0  0  0  0  0  0  0  0  0  0  0  0
   10.0792  -21.0519   18.5594 N   0  0  0  0  0  0  0  0  0  0  0  0
   10.7285  -21.9125   19.3655 C   0  0  0  0  0  0  0  0  0  0  0  0
   11.2931  -21.2248   20.3843 N   0  0  0  0  0  0  0  0  0  0  0  0
   10.5520  -16.5649   21.7125 C   0  0  0  0  0  0  0  0  0  0  0  0
   11.4008  -15.7258   22.1356 O   0  0  0  0  0  0  0  0  0  0  0  0
    9.2673  -16.5463   22.3182 N   0  0  0  0  0  0  0  0  0  0  0  0
    8.9650  -15.5484   23.3234 C   0  0  1  0  0  0  0  0  0  0  0  0
    7.4844  -15.2707   23.2645 C   0  0  0  0  0  0  0  0  0  0  0  0
    7.0240  -14.2871   24.2343 C   0  0  0  0  0  0  0  0  0  0  0  0
    6.3018  -14.6442   25.3498 C   0  0  0  0  0  0  0  0  0  0  0  0
    5.9038  -13.6475   26.2194 C   0  0  0  0  0  0  0  0  0  0  0  0
    6.2026  -12.3194   26.0100 C   0  0  0  0  0  0  0  0  0  0  0  0
    6.9187  -11.9758   24.9017 C   0  0  0  0  0  0  0  0  0  0  0  0
    7.3250  -12.9582   24.0214 C   0  0  0  0  0  0  0  0  0  0  0  0
    9.2256  -16.1764   24.6657 C   0  0  0  0  0  0  0  0  0  0  0  0
    9.2760  -17.4309   24.8114 O   0  0  0  0  0  0  0  0  0  0  0  0
   10.0959  -12.7187   28.9582 C   0  0  0  0  0  0  0  0  0  0  0  0
   10.5060  -13.6382   27.8290 C   0  0  0  0  0  0  0  0  0  0  0  0
   10.0195  -15.0281   28.1818 C   0  0  2  0  0  0  0  0  0  0  0  0
   10.8621  -15.6091   29.2765 C   0  0  0  0  0  0  0  0  0  0  0  0
   10.0822  -15.9579   26.9908 C   0  0  2  0  0  0  0  0  0  0  0  0
    9.4272  -15.3945   25.8311 N   0  0  0  0  0  0  0  0  0  0  0  0
    9.3504  -17.1885   27.3688 C   0  0  0  0  0  0  0  0  0  0  0  0
    8.1051  -17.3122   27.2244 O   0  0  0  0  0  0  0  0  0  0  0  0
   10.0636  -18.2494   27.9038 O   0  0  0  0  0  0  0  0  0  0  0  0
  2  3  1  0
  2  1  1  6
  3  4  1  0
  4  8  1  0
  5  6  1  0
  5  4  2  0
  6  7  1  0
  7  8  2  0
  9  2  1  0
  9 10  2  0
 11  9  1  0
 12 11  1  0
 12 20  1  0
 12 13  1  1
 14 19  1  0
 14 13  1  0
 15 14  2  0
 16 17  2  0
 16 15  1  0
 17 18  1  0
 18 19  2  0
 20 27  1  0
 21 20  2  0
 23 22  1  0
 24 23  1  0
 24 26  1  0
 24 25  1  1
 26 28  1  0
 26 27  1  6
 28 29  2  0
 28 30  1  0
M  END
$$$$
