HFI.pdb
     RDKit          3D

 30 31  0  0  1  0  0  0  0  0999 V2000
    9.4924  -18.6623   20.8420 N   0  0  0  0  0  0  0  0  0  0  0  0
   10.4449  -17.6025   20.5912 C   0  0  1  0  0  0  0  0  0  0  0  0
   10.3534  -17.2220   19.1460 C   0  0  0  0  0  0  0  0  0  0  0  0
   10.8334  -18.3627   18.3276 C   0  0  0  0  0  0  0  0  0  0  0  0
   11.9075  -19.2009   18.5326 C   0  0  0  0  0  0  0  0  0  0  0  0
   12.0007  -20.1136   17.5524 N   0  0  0  0  0  0  0  0  0  0  0  0
   10.9821  -19.8659   16.7079 C   0  0  0  0  0  0  0  0  0  0  0  0
   10.2722  -18.8105   17.1680 N   0  0  0  0  0  0  0  0  0  0  0  0
   10.1559  -16.4715   21.5023 C   0  0  0  0  0  0  0  0  0  0  0  0
   10.8826  -15.4345   21.4872 O   0  0  0  0  0  0  0  0  0  0  0  0
    9.0729  -16.4888   22.4211 N   0  0  0  0  0  0  0  0  0  0  0  0
    8.9190  -15.4017   23.3657 C   0  0  1  0  0  0  0  0  0  0  0  0
    7.5308  -15.4907   23.9465 C   0  0  0  0  0  0  0  0  0  0  0  0
    7.1709  -14.3700   24.8036 C   0  0  0  0  0  0  0  0  0  0  0  0
    6.4575  -14.5408   25.9677 C   0  0  0  0  0  0  0  0  0  0  0  0
    6.1579  -13.4234   26.7226 C   0  0  0  0  0  0  0  0  0  0  0  0
    6.5457  -12.1545   26.3529 C   0  0  0  0  0  0  0  0  0  0  0  0
    7.2523  -11.9958   25.1976 C   0  0  0  0  0  0  0  0  0  0  0  0
    7.5608  -13.1009   24.4304 C   0  0  0  0  0  0  0  0  0  0  0  0
    9.8714  -15.6613   24.5012 C   0  0  0  0  0  0  0  0  0  0  0  0
   11.1152  -15.4734   24.3786 O   0  0  0  0  0  0  0  0  0  0  0  0
    9.9073  -13.0315   28.7272 C   0  0  0  0  0  0  0  0  0  0  0  0
   10.2593  -13.9085   27.5458 C   0  0  0  0  0  0  0  0  0  0  0  0
   10.0910  -15.3470   27.9879 C   0  0  2  0  0  0  0  0  0  0  0  0
   11.0433  -15.6610   29.1017 C   0  0  0  0  0  0  0  0  0  0  0  0
   10.3540  -16.3116   26.8532 C   0  0  2  0  0  0  0  0  0  0  0  0
    9.4224  -16.1285   25.7624 N   0  0  0  0  0  0  0  0  0  0  0  0
   10.1526  -17.6751   27.3944 C   0  0  0  0  0  0  0  0  0  0  0  0
   10.9964  -18.2453   28.1359 O   0  0  0  0  0  0  0  0  0  0  0  0
    8.9879  -18.3537   27.0728 O   0  0  0  0  0  0  0  0  0  0  0  0
  2  3  1  0
  2  1  1  6
  3  4  1  0
  4  8  1  0
  5  6  1  0
  5  4  2  0
  6  7  1  0
  7  8  2  0
  9  2  1  0
  9 10  2  0
 11  9  1  0
 12 11  1  0
 12 20  1  0
 12 13  1  1
 14 19  1  0
 14 13  1  0
 15 14  2  0
 16 17  2  0
 16 15  1  0
 17 18  1  0
 18 19  2  0
 20 27  1  0
 21 20  2  0
 23 22  1  0
 24 23  1  0
 24 26  1  0
 24 25  1  1
 26 28  1  0
 26 27  1  6
 28 29  2  0
 28 30  1  0
M  END
$$$$
