HFI.pdb
     RDKit          3D

 30 31  0  0  1  0  0  0  0  0999 V2000
   10.1515  -18.2313   20.3753 N   0  0  0  0  0  0  0  0  0  0  0  0
   11.1251  -17.1659   20.4770 C   0  0  1  0  0  0  0  0  0  0  0  0
   11.3119  -16.5698   19.1164 C   0  0  0  0  0  0  0  0  0  0  0  0
   11.8945  -17.6034   18.2255 C   0  0  0  0  0  0  0  0  0  0  0  0
   13.2094  -17.9788   18.0573 C   0  0  0  0  0  0  0  0  0  0  0  0
   13.3179  -18.9608   17.1481 N   0  0  0  0  0  0  0  0  0  0  0  0
   12.0672  -19.2232   16.7250 C   0  0  0  0  0  0  0  0  0  0  0  0
   11.2014  -18.4085   17.3701 N   0  0  0  0  0  0  0  0  0  0  0  0
   10.6551  -16.1797   21.4766 C   0  0  0  0  0  0  0  0  0  0  0  0
   11.3683  -15.1753   21.7704 O   0  0  0  0  0  0  0  0  0  0  0  0
    9.4077  -16.3045   22.1443 N   0  0  0  0  0  0  0  0  0  0  0  0
    9.0802  -15.3958   23.2236 C   0  0  1  0  0  0  0  0  0  0  0  0
    7.5811  -15.2398   23.2540 C   0  0  0  0  0  0  0  0  0  0  0  0
    7.0961  -14.3515   24.3007 C   0  0  0  0  0  0  0  0  0  0  0  0
    6.4159  -14.8221   25.4004 C   0  0  0  0  0  0  0  0  0  0  0  0
    5.9903  -13.9106   26.3471 C   0  0  0  0  0  0  0  0  0  0  0  0
    6.2216  -12.5580   26.2290 C   0  0  0  0  0  0  0  0  0  0  0  0
    6.8965  -12.1017   25.1357 C   0  0  0  0  0  0  0  0  0  0  0  0
    7.3294  -12.9978   24.1792 C   0  0  0  0  0  0  0  0  0  0  0  0
    9.4619  -16.0773   24.5096 C   0  0  0  0  0  0  0  0  0  0  0  0
    9.6617  -17.3241   24.5645 O   0  0  0  0  0  0  0  0  0  0  0  0
   10.4885  -12.8064   28.9635 C   0  0  0  0  0  0  0  0  0  0  0  0
   10.7762  -13.6789   27.7616 C   0  0  0  0  0  0  0  0  0  0  0  0
   10.2439  -15.0621   28.0725 C   0  0  2  0  0  0  0  0  0  0  0  0
   11.0633  -15.7014   29.1524 C   0  0  0  0  0  0  0  0  0  0  0  0
   10.2814  -15.9587   26.8552 C   0  0  2  0  0  0  0  0  0  0  0  0
    9.6160  -15.3569   25.7211 N   0  0  0  0  0  0  0  0  0  0  0  0
    9.5432  -17.1926   27.2089 C   0  0  0  0  0  0  0  0  0  0  0  0
   10.1027  -18.1977   27.7225 O   0  0  0  0  0  0  0  0  0  0  0  0
    8.1800  -17.2458   26.9654 O   0  0  0  0  0  0  0  0  0  0  0  0
  2  3  1  0
  2  1  1  6
  3  4  1  0
  4  8  1  0
  5  6  1  0
  5  4  2  0
  6  7  1  0
  7  8  2  0
  9  2  1  0
  9 10  2  0
 11  9  1  0
 12 11  1  0
 12 20  1  0
 12 13  1  1
 14 19  1  0
 14 13  1  0
 15 14  2  0
 16 17  2  0
 16 15  1  0
 17 18  1  0
 18 19  2  0
 20 27  1  0
 21 20  2  0
 23 22  1  0
 24 23  1  0
 24 26  1  0
 24 25  1  1
 26 28  1  0
 26 27  1  6
 28 29  2  0
 28 30  1  0
M  END
$$$$
