SKD.pdb
     RDKit          3D

 24 23  0  0  1  0  0  0  0  0999 V2000
   15.7562  -11.1457  -15.5713 O   0  0  0  0  0  0  0  0  0  0  0  0
   16.8172  -10.3158  -15.2058 C   0  0  0  0  0  0  0  0  0  0  0  0
   18.0944  -11.0392  -15.6287 C   0  0  2  0  0  0  0  0  0  0  0  0
   18.1414  -12.3741  -15.1135 N   0  0  0  0  0  0  0  0  0  0  0  0
   19.2604  -10.2716  -15.1446 C   0  0  0  0  0  0  0  0  0  0  0  0
   19.3543   -9.8100  -13.9868 O   0  0  0  0  0  0  0  0  0  0  0  0
   20.3692  -10.0191  -16.0203 N   0  0  0  0  0  0  0  0  0  0  0  0
   21.5670   -9.3463  -15.5615 C   0  0  1  0  0  0  0  0  0  0  0  0
   22.7770   -9.6842  -16.4328 C   0  0  0  0  0  0  0  0  0  0  0  0
   23.1968  -11.0813  -16.0944 C   0  0  0  0  0  0  0  0  0  0  0  0
   24.2816  -11.6011  -17.0101 C   0  0  0  0  0  0  0  0  0  0  0  0
   24.7050  -13.0024  -16.6560 C   0  0  0  0  0  0  0  0  0  0  0  0
   25.7113  -13.3935  -17.6505 N   0  0  0  0  0  0  0  0  0  0  0  0
   21.3620   -7.8844  -15.6856 C   0  0  0  0  0  0  0  0  0  0  0  0
   20.7186   -7.4173  -16.6539 O   0  0  0  0  0  0  0  0  0  0  0  0
   21.8744   -6.9432  -14.7302 N   0  0  0  0  0  0  0  0  0  0  0  0
   21.5006   -5.5472  -14.8137 C   0  0  1  0  0  0  0  0  0  0  0  0
   20.0085   -5.3522  -14.6895 C   0  0  0  0  0  0  0  0  0  0  0  0
   19.6380   -3.9270  -14.6549 C   0  0  0  0  0  0  0  0  0  0  0  0
   19.8453   -3.2120  -15.6563 O   0  0  0  0  0  0  0  0  0  0  0  0
   22.2530   -4.7155  -13.8578 C   0  0  0  0  0  0  0  0  0  0  0  0
   22.4305   -3.3558  -14.0309 O   0  0  0  0  0  0  0  0  0  0  0  0
   19.0664   -3.4249  -13.4998 O   0  0  0  0  0  0  0  0  0  0  0  0
   22.7542   -5.2572  -12.8455 O   0  0  0  0  0  0  0  0  0  0  0  0
  1  2  1  0
  3  5  1  0
  3  2  1  0
  3  4  1  1
  5  6  2  0
  7  8  1  0
  7  5  1  0
  8  9  1  6
 10  9  1  0
 11 10  1  0
 12 11  1  0
 12 13  1  0
 14 16  1  0
 14  8  1  0
 15 14  2  0
 17 18  1  1
 17 16  1  0
 18 19  1  0
 19 20  2  0
 21 17  1  0
 21 22  1  0
 23 19  1  0
 24 21  2  0
M  END
$$$$
