SKD.pdb
     RDKit          3D

 24 23  0  0  1  0  0  0  0  0999 V2000
   24.7069  -14.3995  -15.5198 O   0  0  0  0  0  0  0  0  0  0  0  0
   26.0432  -14.5200  -15.1350 C   0  0  0  0  0  0  0  0  0  0  0  0
   26.8096  -14.9694  -16.3775 C   0  0  2  0  0  0  0  0  0  0  0  0
   26.5723  -14.0987  -17.4889 N   0  0  0  0  0  0  0  0  0  0  0  0
   26.3981  -16.3464  -16.7202 C   0  0  0  0  0  0  0  0  0  0  0  0
   25.6170  -16.6239  -17.6557 O   0  0  0  0  0  0  0  0  0  0  0  0
   26.9000  -17.4569  -15.9619 N   0  0  0  0  0  0  0  0  0  0  0  0
   26.4832  -18.8174  -16.2327 C   0  0  1  0  0  0  0  0  0  0  0  0
   27.5794  -19.8261  -15.8888 C   0  0  0  0  0  0  0  0  0  0  0  0
   27.0815  -21.1816  -16.2850 C   0  0  0  0  0  0  0  0  0  0  0  0
   28.1058  -22.2689  -16.0530 C   0  0  0  0  0  0  0  0  0  0  0  0
   27.6066  -23.6244  -16.4791 C   0  0  0  0  0  0  0  0  0  0  0  0
   28.7267  -24.5545  -16.2924 N   0  0  0  0  0  0  0  0  0  0  0  0
   25.3331  -19.1401  -15.3566 C   0  0  0  0  0  0  0  0  0  0  0  0
   25.3736  -18.8649  -14.1349 O   0  0  0  0  0  0  0  0  0  0  0  0
   24.1378  -19.7698  -15.8423 N   0  0  0  0  0  0  0  0  0  0  0  0
   23.0547  -20.0726  -14.9309 C   0  0  1  0  0  0  0  0  0  0  0  0
   21.9291  -19.0718  -15.0368 C   0  0  0  0  0  0  0  0  0  0  0  0
   20.8454  -19.3551  -14.0802 C   0  0  0  0  0  0  0  0  0  0  0  0
   19.7755  -18.7172  -14.1546 O   0  0  0  0  0  0  0  0  0  0  0  0
   22.5819  -21.4608  -15.0763 C   0  0  0  0  0  0  0  0  0  0  0  0
   23.1310  -22.5135  -14.3689 O   0  0  0  0  0  0  0  0  0  0  0  0
   21.0540  -20.3299  -13.1215 O   0  0  0  0  0  0  0  0  0  0  0  0
   21.6447  -21.7025  -15.8717 O   0  0  0  0  0  0  0  0  0  0  0  0
  1  2  1  0
  3  5  1  0
  3  2  1  0
  3  4  1  6
  5  6  2  0
  7  8  1  0
  7  5  1  0
  8  9  1  1
 10  9  1  0
 11 10  1  0
 12 11  1  0
 12 13  1  0
 14 16  1  0
 14  8  1  0
 15 14  2  0
 17 18  1  6
 17 16  1  0
 18 19  1  0
 19 20  2  0
 21 17  1  0
 21 22  1  0
 23 19  1  0
 24 21  2  0
M  END
$$$$
