SKD.pdb
     RDKit          3D

 24 23  0  0  1  0  0  0  0  0999 V2000
   20.4904  -30.9307   -9.6290 O   0  0  0  0  0  0  0  0  0  0  0  0
   19.5727  -30.3201  -10.4853 C   0  0  0  0  0  0  0  0  0  0  0  0
   20.3801  -29.3882  -11.3869 C   0  0  2  0  0  0  0  0  0  0  0  0
   21.7462  -29.8038  -11.4891 N   0  0  0  0  0  0  0  0  0  0  0  0
   20.3108  -28.0171  -10.8405 C   0  0  0  0  0  0  0  0  0  0  0  0
   21.1238  -27.5607  -10.0080 O   0  0  0  0  0  0  0  0  0  0  0  0
   19.2673  -27.1265  -11.2624 N   0  0  0  0  0  0  0  0  0  0  0  0
   19.1742  -25.7692  -10.7656 C   0  0  1  0  0  0  0  0  0  0  0  0
   18.6194  -24.8144  -11.8229 C   0  0  0  0  0  0  0  0  0  0  0  0
   18.6118  -23.4408  -11.2265 C   0  0  0  0  0  0  0  0  0  0  0  0
   18.1599  -22.3828  -12.2072 C   0  0  0  0  0  0  0  0  0  0  0  0
   18.2058  -20.9985  -11.6156 C   0  0  0  0  0  0  0  0  0  0  0  0
   17.6189  -20.1012  -12.6180 N   0  0  0  0  0  0  0  0  0  0  0  0
   18.2117  -25.7455   -9.6397 C   0  0  0  0  0  0  0  0  0  0  0  0
   17.1190  -26.3519   -9.7305 O   0  0  0  0  0  0  0  0  0  0  0  0
   18.4674  -25.0459   -8.4123 N   0  0  0  0  0  0  0  0  0  0  0  0
   17.5026  -25.0943   -7.3342 C   0  0  1  0  0  0  0  0  0  0  0  0
   18.1447  -24.8554   -5.9886 C   0  0  0  0  0  0  0  0  0  0  0  0
   17.1743  -24.9630   -4.8858 C   0  0  0  0  0  0  0  0  0  0  0  0
   16.3744  -24.0286   -4.6756 O   0  0  0  0  0  0  0  0  0  0  0  0
   16.3600  -24.1952   -7.5742 C   0  0  0  0  0  0  0  0  0  0  0  0
   15.0495  -24.5840   -7.3706 O   0  0  0  0  0  0  0  0  0  0  0  0
   17.1836  -26.1097   -4.1125 O   0  0  0  0  0  0  0  0  0  0  0  0
   16.5793  -23.0301   -7.9791 O   0  0  0  0  0  0  0  0  0  0  0  0
  1  2  1  0
  3  5  1  0
  3  2  1  0
  3  4  1  1
  5  6  2  0
  7  8  1  0
  7  5  1  0
  8  9  1  6
 10  9  1  0
 11 10  1  0
 12 11  1  0
 12 13  1  0
 14 16  1  0
 14  8  1  0
 15 14  2  0
 17 18  1  1
 17 16  1  0
 18 19  1  0
 19 20  2  0
 21 17  1  0
 21 22  1  0
 23 19  1  0
 24 21  2  0
M  END
$$$$
