SKD.pdb
     RDKit          3D

 24 23  0  0  1  0  0  0  0  0999 V2000
   14.0378   -7.8580  -11.6276 O   0  0  0  0  0  0  0  0  0  0  0  0
   15.4117   -7.6867  -11.8042 C   0  0  0  0  0  0  0  0  0  0  0  0
   16.0102   -9.0883  -11.9066 C   0  0  2  0  0  0  0  0  0  0  0  0
   15.9236   -9.7925  -10.6631 N   0  0  0  0  0  0  0  0  0  0  0  0
   17.4232   -8.9748  -12.3233 C   0  0  0  0  0  0  0  0  0  0  0  0
   18.3786   -8.8993  -11.5209 O   0  0  0  0  0  0  0  0  0  0  0  0
   17.7618   -8.9463  -13.7178 N   0  0  0  0  0  0  0  0  0  0  0  0
   19.1306   -8.8011  -14.1686 C   0  0  1  0  0  0  0  0  0  0  0  0
   19.3737   -9.5315  -15.4896 C   0  0  0  0  0  0  0  0  0  0  0  0
   19.5295  -10.9872  -15.1747 C   0  0  0  0  0  0  0  0  0  0  0  0
   19.8886  -11.8107  -16.3905 C   0  0  0  0  0  0  0  0  0  0  0  0
   18.6875  -12.4861  -16.9982 C   0  0  0  0  0  0  0  0  0  0  0  0
   19.1893  -13.2928  -18.1172 N   0  0  0  0  0  0  0  0  0  0  0  0
   19.3885   -7.3668  -14.4344 C   0  0  0  0  0  0  0  0  0  0  0  0
   18.5680   -6.6901  -15.0969 O   0  0  0  0  0  0  0  0  0  0  0  0
   20.5611   -6.6866  -13.9616 N   0  0  0  0  0  0  0  0  0  0  0  0
   20.7210   -5.2670  -14.1951 C   0  0  1  0  0  0  0  0  0  0  0  0
   19.5787   -4.4660  -13.6176 C   0  0  0  0  0  0  0  0  0  0  0  0
   19.7957   -3.0155  -13.7542 C   0  0  0  0  0  0  0  0  0  0  0  0
   20.9565   -2.5753  -13.8794 O   0  0  0  0  0  0  0  0  0  0  0  0
   22.0331   -4.7761  -13.7380 C   0  0  0  0  0  0  0  0  0  0  0  0
   22.9101   -5.5585  -13.0107 O   0  0  0  0  0  0  0  0  0  0  0  0
   18.6920   -2.1821  -13.7386 O   0  0  0  0  0  0  0  0  0  0  0  0
   22.3730   -3.6029  -14.0170 O   0  0  0  0  0  0  0  0  0  0  0  0
  1  2  1  0
  3  5  1  0
  3  2  1  0
  3  4  1  1
  5  6  2  0
  7  8  1  0
  7  5  1  0
  8  9  1  6
 10  9  1  0
 11 10  1  0
 12 11  1  0
 12 13  1  0
 14 16  1  0
 14  8  1  0
 15 14  2  0
 17 18  1  1
 17 16  1  0
 18 19  1  0
 19 20  2  0
 21 17  1  0
 21 22  1  0
 23 19  1  0
 24 21  2  0
M  END
$$$$
