SKD.pdb
     RDKit          3D

 24 23  0  0  1  0  0  0  0  0999 V2000
   21.8306  -16.1105  -17.1324 O   0  0  0  0  0  0  0  0  0  0  0  0
   22.9895  -15.9334  -16.3749 C   0  0  0  0  0  0  0  0  0  0  0  0
   24.0360  -16.8782  -16.9627 C   0  0  2  0  0  0  0  0  0  0  0  0
   24.1590  -16.7154  -18.3797 N   0  0  0  0  0  0  0  0  0  0  0  0
   23.6534  -18.2700  -16.6473 C   0  0  0  0  0  0  0  0  0  0  0  0
   23.0055  -19.0039  -17.4245 O   0  0  0  0  0  0  0  0  0  0  0  0
   24.0265  -18.8510  -15.3890 N   0  0  0  0  0  0  0  0  0  0  0  0
   23.6480  -20.2021  -15.0294 C   0  0  1  0  0  0  0  0  0  0  0  0
   24.7030  -20.8718  -14.1485 C   0  0  0  0  0  0  0  0  0  0  0  0
   25.6296  -21.6245  -15.0526 C   0  0  0  0  0  0  0  0  0  0  0  0
   25.2511  -23.0814  -15.1919 C   0  0  0  0  0  0  0  0  0  0  0  0
   26.2120  -23.8399  -16.0692 C   0  0  0  0  0  0  0  0  0  0  0  0
   25.7600  -25.2364  -16.0659 N   0  0  0  0  0  0  0  0  0  0  0  0
   22.4086  -20.1436  -14.2201 C   0  0  0  0  0  0  0  0  0  0  0  0
   22.4237  -19.6262  -13.0791 O   0  0  0  0  0  0  0  0  0  0  0  0
   21.1523  -20.6621  -14.6828 N   0  0  0  0  0  0  0  0  0  0  0  0
   19.9745  -20.5652  -13.8468 C   0  0  1  0  0  0  0  0  0  0  0  0
   18.8302  -19.8830  -14.5576 C   0  0  0  0  0  0  0  0  0  0  0  0
   18.6094  -18.5135  -14.0623 C   0  0  0  0  0  0  0  0  0  0  0  0
   19.3720  -18.0416  -13.1947 O   0  0  0  0  0  0  0  0  0  0  0  0
   19.5842  -21.8718  -13.2883 C   0  0  0  0  0  0  0  0  0  0  0  0
   19.2132  -22.0374  -11.9673 O   0  0  0  0  0  0  0  0  0  0  0  0
   17.5518  -17.7896  -14.5825 O   0  0  0  0  0  0  0  0  0  0  0  0
   19.5868  -22.8768  -14.0364 O   0  0  0  0  0  0  0  0  0  0  0  0
  1  2  1  0
  3  5  1  0
  3  2  1  0
  3  4  1  6
  5  6  2  0
  7  8  1  0
  7  5  1  0
  8  9  1  1
 10  9  1  0
 11 10  1  0
 12 11  1  0
 12 13  1  0
 14 16  1  0
 14  8  1  0
 15 14  2  0
 17 18  1  6
 17 16  1  0
 18 19  1  0
 19 20  2  0
 21 17  1  0
 21 22  1  0
 23 19  1  0
 24 21  2  0
M  END
$$$$
