SKD.pdb
     RDKit          3D

 24 23  0  0  1  0  0  0  0  0999 V2000
   18.7285  -15.0669  -14.9475 O   0  0  0  0  0  0  0  0  0  0  0  0
   18.1547  -13.8232  -15.2165 C   0  0  0  0  0  0  0  0  0  0  0  0
   16.7041  -13.9080  -14.7458 C   0  0  2  0  0  0  0  0  0  0  0  0
   15.8687  -14.5447  -15.7186 N   0  0  0  0  0  0  0  0  0  0  0  0
   16.2096  -12.5424  -14.4744 C   0  0  0  0  0  0  0  0  0  0  0  0
   15.7338  -11.7903  -15.3520 O   0  0  0  0  0  0  0  0  0  0  0  0
   16.2600  -12.0106  -13.1422 N   0  0  0  0  0  0  0  0  0  0  0  0
   15.7165  -10.7076  -12.8188 C   0  0  1  0  0  0  0  0  0  0  0  0
   15.1295  -10.6716  -11.4076 C   0  0  0  0  0  0  0  0  0  0  0  0
   14.3272   -9.4128  -11.2878 C   0  0  0  0  0  0  0  0  0  0  0  0
   13.6574   -9.2753   -9.9396 C   0  0  0  0  0  0  0  0  0  0  0  0
   12.7813   -8.0530   -9.8589 C   0  0  0  0  0  0  0  0  0  0  0  0
   12.0559   -8.1480   -8.5864 N   0  0  0  0  0  0  0  0  0  0  0  0
   16.8210   -9.7205  -12.8337 C   0  0  0  0  0  0  0  0  0  0  0  0
   17.9122   -9.9859  -12.2781 O   0  0  0  0  0  0  0  0  0  0  0  0
   16.7089   -8.4373  -13.4678 N   0  0  0  0  0  0  0  0  0  0  0  0
   17.8710   -7.5824  -13.5875 C   0  0  1  0  0  0  0  0  0  0  0  0
   19.0583   -8.3178  -14.1614 C   0  0  0  0  0  0  0  0  0  0  0  0
   20.2242   -7.4348  -14.3358 C   0  0  0  0  0  0  0  0  0  0  0  0
   20.1824   -6.2660  -13.9010 O   0  0  0  0  0  0  0  0  0  0  0  0
   17.5718   -6.3435  -14.3272 C   0  0  0  0  0  0  0  0  0  0  0  0
   18.4486   -5.2765  -14.3805 O   0  0  0  0  0  0  0  0  0  0  0  0
   21.3381   -7.9381  -14.9832 O   0  0  0  0  0  0  0  0  0  0  0  0
   16.4801   -6.2478  -14.9343 O   0  0  0  0  0  0  0  0  0  0  0  0
  1  2  1  0
  3  5  1  0
  3  2  1  0
  3  4  1  6
  5  6  2  0
  7  8  1  0
  7  5  1  0
  8  9  1  1
 10  9  1  0
 11 10  1  0
 12 11  1  0
 12 13  1  0
 14 16  1  0
 14  8  1  0
 15 14  2  0
 17 18  1  6
 17 16  1  0
 18 19  1  0
 19 20  2  0
 21 17  1  0
 21 22  1  0
 23 19  1  0
 24 21  2  0
M  END
$$$$
