SKD.pdb
     RDKit          3D

 24 23  0  0  1  0  0  0  0  0999 V2000
   28.2605  -18.1306  -16.6216 O   0  0  0  0  0  0  0  0  0  0  0  0
   27.1688  -18.9650  -16.3761 C   0  0  0  0  0  0  0  0  0  0  0  0
   27.7142  -20.1760  -15.6217 C   0  0  2  0  0  0  0  0  0  0  0  0
   28.2938  -21.1362  -16.5115 N   0  0  0  0  0  0  0  0  0  0  0  0
   26.6132  -20.7982  -14.8577 C   0  0  0  0  0  0  0  0  0  0  0  0
   25.8997  -21.7244  -15.2997 O   0  0  0  0  0  0  0  0  0  0  0  0
   26.3123  -20.3435  -13.5300 N   0  0  0  0  0  0  0  0  0  0  0  0
   25.1624  -20.8324  -12.7975 C   0  0  1  0  0  0  0  0  0  0  0  0
   25.2222  -20.4420  -11.3205 C   0  0  0  0  0  0  0  0  0  0  0  0
   24.0589  -21.0924  -10.6376 C   0  0  0  0  0  0  0  0  0  0  0  0
   23.9769  -20.7441   -9.1688 C   0  0  0  0  0  0  0  0  0  0  0  0
   22.8707  -21.4865   -8.4665 C   0  0  0  0  0  0  0  0  0  0  0  0
   22.9102  -21.0562   -7.0638 N   0  0  0  0  0  0  0  0  0  0  0  0
   23.9464  -20.1894  -13.3474 C   0  0  0  0  0  0  0  0  0  0  0  0
   23.9585  -18.9746  -13.6540 O   0  0  0  0  0  0  0  0  0  0  0  0
   22.7167  -20.9006  -13.5555 N   0  0  0  0  0  0  0  0  0  0  0  0
   21.5738  -20.2227  -14.1297 C   0  0  1  0  0  0  0  0  0  0  0  0
   21.5523  -20.3259  -15.6359 C   0  0  0  0  0  0  0  0  0  0  0  0
   20.3882  -19.6385  -16.2207 C   0  0  0  0  0  0  0  0  0  0  0  0
   19.4460  -20.3106  -16.6870 O   0  0  0  0  0  0  0  0  0  0  0  0
   20.3062  -20.6653  -13.5224 C   0  0  0  0  0  0  0  0  0  0  0  0
   19.2588  -19.8001  -13.2685 O   0  0  0  0  0  0  0  0  0  0  0  0
   20.3799  -18.2554  -16.2327 O   0  0  0  0  0  0  0  0  0  0  0  0
   20.1665  -21.8735  -13.2220 O   0  0  0  0  0  0  0  0  0  0  0  0
  1  2  1  0
  3  5  1  0
  3  2  1  0
  3  4  1  6
  5  6  2  0
  7  8  1  0
  7  5  1  0
  8  9  1  1
 10  9  1  0
 11 10  1  0
 12 11  1  0
 12 13  1  0
 14 16  1  0
 14  8  1  0
 15 14  2  0
 17 18  1  6
 17 16  1  0
 18 19  1  0
 19 20  2  0
 21 17  1  0
 21 22  1  0
 23 19  1  0
 24 21  2  0
M  END
$$$$
