SKD.pdb
     RDKit          3D

 24 23  0  0  1  0  0  0  0  0999 V2000
   18.4569  -21.7294  -12.7452 O   0  0  0  0  0  0  0  0  0  0  0  0
   17.7162  -22.6940  -12.0602 C   0  0  0  0  0  0  0  0  0  0  0  0
   18.1743  -22.6342  -10.6043 C   0  0  2  0  0  0  0  0  0  0  0  0
   19.5980  -22.5232  -10.5020 N   0  0  0  0  0  0  0  0  0  0  0  0
   17.7133  -23.8533   -9.9084 C   0  0  0  0  0  0  0  0  0  0  0  0
   16.5187  -24.2188   -9.8681 O   0  0  0  0  0  0  0  0  0  0  0  0
   18.6573  -24.6935   -9.2277 N   0  0  0  0  0  0  0  0  0  0  0  0
   18.2579  -25.9323   -8.5922 C   0  0  1  0  0  0  0  0  0  0  0  0
   19.3271  -27.0154   -8.7377 C   0  0  0  0  0  0  0  0  0  0  0  0
   19.1658  -27.6247  -10.0960 C   0  0  0  0  0  0  0  0  0  0  0  0
   20.1993  -28.6901  -10.3826 C   0  0  0  0  0  0  0  0  0  0  0  0
   20.0146  -29.3146  -11.7406 C   0  0  0  0  0  0  0  0  0  0  0  0
   21.1466  -30.2293  -11.9320 N   0  0  0  0  0  0  0  0  0  0  0  0
   18.1097  -25.6885   -7.1385 C   0  0  0  0  0  0  0  0  0  0  0  0
   18.6463  -24.6880   -6.6084 O   0  0  0  0  0  0  0  0  0  0  0  0
   17.3634  -26.5602   -6.2757 N   0  0  0  0  0  0  0  0  0  0  0  0
   16.8879  -26.0815   -4.9950 C   0  0  1  0  0  0  0  0  0  0  0  0
   16.1266  -24.7838   -5.1227 C   0  0  0  0  0  0  0  0  0  0  0  0
   15.5738  -24.3377   -3.8323 C   0  0  0  0  0  0  0  0  0  0  0  0
   15.1684  -25.1841   -3.0100 O   0  0  0  0  0  0  0  0  0  0  0  0
   16.1194  -27.1098   -4.2714 C   0  0  0  0  0  0  0  0  0  0  0  0
   14.9711  -27.6821   -4.7853 O   0  0  0  0  0  0  0  0  0  0  0  0
   15.5228  -22.9799   -3.5741 O   0  0  0  0  0  0  0  0  0  0  0  0
   16.5182  -27.4844   -3.1444 O   0  0  0  0  0  0  0  0  0  0  0  0
  1  2  1  0
  3  5  1  0
  3  2  1  0
  3  4  1  6
  5  6  2  0
  7  8  1  0
  7  5  1  0
  8  9  1  1
 10  9  1  0
 11 10  1  0
 12 11  1  0
 12 13  1  0
 14 16  1  0
 14  8  1  0
 15 14  2  0
 17 18  1  6
 17 16  1  0
 18 19  1  0
 19 20  2  0
 21 17  1  0
 21 22  1  0
 23 19  1  0
 24 21  2  0
M  END
$$$$
