QNL.pdb
     RDKit          3D

 26 25  0  0  1  0  0  0  0  0999 V2000
   24.7639  -18.9154  -20.9183 N   0  0  0  0  0  0  0  0  0  0  0  0
   23.3713  -18.7832  -20.7247 C   0  0  0  0  0  0  0  0  0  0  0  0
   22.6333  -19.7750  -20.8968 O   0  0  0  0  0  0  0  0  0  0  0  0
   22.7949  -17.4971  -20.3261 C   0  0  0  0  0  0  0  0  0  0  0  0
   23.8065  -16.4034  -20.1825 C   0  0  0  0  0  0  0  0  0  0  0  0
   23.3704  -15.5384  -19.0031 C   0  0  2  0  0  0  0  0  0  0  0  0
   21.9396  -15.6259  -18.8044 N   0  0  0  0  0  0  0  0  0  0  0  0
   23.7061  -14.1283  -19.3180 C   0  0  0  0  0  0  0  0  0  0  0  0
   24.7708  -13.8493  -19.9383 O   0  0  0  0  0  0  0  0  0  0  0  0
   19.7181  -11.2631  -20.4456 N   0  0  0  0  0  0  0  0  0  0  0  0
   21.1170  -11.1507  -20.5452 C   0  0  0  0  0  0  0  0  0  0  0  0
   21.6867  -11.2700  -21.6489 O   0  0  0  0  0  0  0  0  0  0  0  0
   21.9124  -10.8889  -19.3282 C   0  0  0  0  0  0  0  0  0  0  0  0
   23.1934  -11.6961  -19.2852 C   0  0  2  0  0  0  0  0  0  0  0  0
   22.8639  -13.0622  -18.9435 N   0  0  0  0  0  0  0  0  0  0  0  0
   24.0642  -11.1521  -18.1877 C   0  0  0  0  0  0  0  0  0  0  0  0
   23.8300  -11.4793  -17.0001 O   0  0  0  0  0  0  0  0  0  0  0  0
   28.8519  -12.8885  -16.7680 C   0  0  0  0  0  0  0  0  0  0  0  0
   28.0264  -11.6465  -16.4410 C   0  0  2  0  0  0  0  0  0  0  0  0
   27.5944  -11.7236  -15.0037 C   0  0  0  0  0  0  0  0  0  0  0  0
   26.8221  -11.5644  -17.3180 C   0  0  0  0  0  0  0  0  0  0  0  0
   26.2568  -10.2089  -17.5352 C   0  0  2  0  0  0  0  0  0  0  0  0
   25.1400  -10.2790  -18.4819 N   0  0  0  0  0  0  0  0  0  0  0  0
   27.2208   -9.1686  -17.9472 C   0  0  0  0  0  0  0  0  0  0  0  0
   27.8194   -8.2936  -17.0827 O   0  0  0  0  0  0  0  0  0  0  0  0
   27.5256   -9.0597  -19.1646 O   0  0  0  0  0  0  0  0  0  0  0  0
  2  1  1  0
  2  3  2  0
  4  5  1  0
  4  2  1  0
  6  7  1  6
  6  5  1  0
  8  6  1  0
  9  8  2  0
 11 13  1  0
 11 10  1  0
 12 11  2  0
 14 13  1  1
 14 15  1  0
 15  8  1  0
 16 14  1  0
 16 17  2  0
 19 18  1  6
 19 21  1  0
 20 19  1  0
 22 21  1  6
 22 23  1  0
 22 24  1  0
 23 16  1  0
 24 26  2  0
 24 25  1  0
M  END
$$$$
