QNL.pdb
     RDKit          3D

 26 25  0  0  1  0  0  0  0  0999 V2000
   23.2634  -17.9464  -19.6252 N   0  0  0  0  0  0  0  0  0  0  0  0
   22.1424  -17.4118  -18.9529 C   0  0  0  0  0  0  0  0  0  0  0  0
   21.0699  -17.2643  -19.5744 O   0  0  0  0  0  0  0  0  0  0  0  0
   22.2331  -17.0331  -17.5411 C   0  0  0  0  0  0  0  0  0  0  0  0
   23.6007  -17.2073  -16.9583 C   0  0  0  0  0  0  0  0  0  0  0  0
   23.5081  -18.3178  -15.9155 C   0  0  2  0  0  0  0  0  0  0  0  0
   23.1269  -17.7806  -14.6269 N   0  0  0  0  0  0  0  0  0  0  0  0
   24.8506  -18.9334  -15.7788 C   0  0  0  0  0  0  0  0  0  0  0  0
   25.7683  -18.6516  -16.6003 O   0  0  0  0  0  0  0  0  0  0  0  0
   27.2023  -16.9494  -15.2571 N   0  0  0  0  0  0  0  0  0  0  0  0
   27.7039  -18.2638  -15.2461 C   0  0  0  0  0  0  0  0  0  0  0  0
   28.4262  -18.6758  -16.1764 O   0  0  0  0  0  0  0  0  0  0  0  0
   27.3683  -19.1590  -14.1199 C   0  0  0  0  0  0  0  0  0  0  0  0
   26.4982  -20.3247  -14.5421 C   0  0  2  0  0  0  0  0  0  0  0  0
   25.1500  -19.8419  -14.7438 N   0  0  0  0  0  0  0  0  0  0  0  0
   26.4586  -21.3227  -13.4191 C   0  0  0  0  0  0  0  0  0  0  0  0
   27.5360  -21.7484  -12.9389 O   0  0  0  0  0  0  0  0  0  0  0  0
   24.5397  -20.9111   -8.8840 C   0  0  0  0  0  0  0  0  0  0  0  0
   25.9217  -20.5168   -9.3990 C   0  0  2  0  0  0  0  0  0  0  0  0
   26.1377  -19.0560   -9.1200 C   0  0  0  0  0  0  0  0  0  0  0  0
   26.0309  -20.7637  -10.8665 C   0  0  0  0  0  0  0  0  0  0  0  0
   24.9251  -21.5345  -11.4887 C   0  0  2  0  0  0  0  0  0  0  0  0
   25.2229  -21.7832  -12.9022 N   0  0  0  0  0  0  0  0  0  0  0  0
   23.5742  -20.9570  -11.3376 C   0  0  0  0  0  0  0  0  0  0  0  0
   23.1460  -19.8306  -11.9849 O   0  0  0  0  0  0  0  0  0  0  0  0
   22.7479  -21.5177  -10.5698 O   0  0  0  0  0  0  0  0  0  0  0  0
  2  1  1  0
  2  3  2  0
  4  5  1  0
  4  2  1  0
  6  7  1  1
  6  5  1  0
  8  6  1  0
  9  8  2  0
 11 13  1  0
 11 10  1  0
 12 11  2  0
 14 13  1  1
 14 15  1  0
 15  8  1  0
 16 14  1  0
 16 17  2  0
 19 18  1  6
 19 21  1  0
 20 19  1  0
 22 21  1  6
 22 23  1  0
 22 24  1  0
 23 16  1  0
 24 26  2  0
 24 25  1  0
M  END
$$$$
