QNL.pdb
     RDKit          3D

 26 25  0  0  1  0  0  0  0  0999 V2000
   27.0759  -21.0793  -19.7528 N   0  0  0  0  0  0  0  0  0  0  0  0
   28.4629  -21.0451  -20.0161 C   0  0  0  0  0  0  0  0  0  0  0  0
   28.9948  -22.0010  -20.6172 O   0  0  0  0  0  0  0  0  0  0  0  0
   29.2726  -19.9015  -19.5898 C   0  0  0  0  0  0  0  0  0  0  0  0
   28.4998  -18.8655  -18.8351 C   0  0  0  0  0  0  0  0  0  0  0  0
   28.2282  -19.4307  -17.4436 C   0  0  2  0  0  0  0  0  0  0  0  0
   28.2104  -20.8775  -17.4724 N   0  0  0  0  0  0  0  0  0  0  0  0
   26.8893  -18.9623  -17.0102 C   0  0  0  0  0  0  0  0  0  0  0  0
   26.4278  -17.8664  -17.4373 O   0  0  0  0  0  0  0  0  0  0  0  0
   22.0321  -17.5843  -17.1778 N   0  0  0  0  0  0  0  0  0  0  0  0
   22.5135  -18.8118  -16.6867 C   0  0  0  0  0  0  0  0  0  0  0  0
   21.7776  -19.5570  -16.0084 O   0  0  0  0  0  0  0  0  0  0  0  0
   23.9037  -19.2158  -16.9806 C   0  0  0  0  0  0  0  0  0  0  0  0
   24.7725  -19.2567  -15.7404 C   0  0  2  0  0  0  0  0  0  0  0  0
   26.0927  -19.7095  -16.1196 N   0  0  0  0  0  0  0  0  0  0  0  0
   24.2013  -20.2713  -14.7902 C   0  0  0  0  0  0  0  0  0  0  0  0
   24.1188  -21.4697  -15.1498 O   0  0  0  0  0  0  0  0  0  0  0  0
   25.9682  -22.1945  -11.8024 C   0  0  0  0  0  0  0  0  0  0  0  0
   25.4284  -20.8451  -11.3352 C   0  0  2  0  0  0  0  0  0  0  0  0
   25.9644  -20.5655   -9.9594 C   0  0  0  0  0  0  0  0  0  0  0  0
   23.9369  -20.8559  -11.2946 C   0  0  0  0  0  0  0  0  0  0  0  0
   23.2429  -20.9271  -12.6051 C   0  0  2  0  0  0  0  0  0  0  0  0
   23.7585  -19.8875  -13.5007 N   0  0  0  0  0  0  0  0  0  0  0  0
   21.7676  -20.8826  -12.5547 C   0  0  0  0  0  0  0  0  0  0  0  0
   20.9878  -21.8884  -12.0532 O   0  0  0  0  0  0  0  0  0  0  0  0
   21.1673  -19.8669  -12.9960 O   0  0  0  0  0  0  0  0  0  0  0  0
  2  1  1  0
  2  3  2  0
  4  5  1  0
  4  2  1  0
  6  7  1  6
  6  5  1  0
  8  6  1  0
  9  8  2  0
 11 13  1  0
 11 10  1  0
 12 11  2  0
 14 13  1  6
 14 15  1  0
 15  8  1  0
 16 14  1  0
 16 17  2  0
 19 18  1  1
 19 21  1  0
 20 19  1  0
 22 21  1  1
 22 23  1  0
 22 24  1  0
 23 16  1  0
 24 26  2  0
 24 25  1  0
M  END
$$$$
