QNL.pdb
     RDKit          3D

 26 25  0  0  1  0  0  0  0  0999 V2000
   21.3728  -15.8440  -15.2239 N   0  0  0  0  0  0  0  0  0  0  0  0
   21.4100  -17.2353  -15.4634 C   0  0  0  0  0  0  0  0  0  0  0  0
   20.4611  -17.9478  -15.0761 O   0  0  0  0  0  0  0  0  0  0  0  0
   22.5483  -17.8398  -16.1589 C   0  0  0  0  0  0  0  0  0  0  0  0
   23.0464  -19.0970  -15.5173 C   0  0  0  0  0  0  0  0  0  0  0  0
   24.2212  -18.7115  -14.6226 C   0  0  2  0  0  0  0  0  0  0  0  0
   25.2720  -18.0866  -15.3971 N   0  0  0  0  0  0  0  0  0  0  0  0
   24.7681  -19.9523  -14.0215 C   0  0  0  0  0  0  0  0  0  0  0  0
   23.9907  -20.8254  -13.5425 O   0  0  0  0  0  0  0  0  0  0  0  0
   28.6719  -20.9603  -16.1846 N   0  0  0  0  0  0  0  0  0  0  0  0
   27.9715  -21.8667  -15.3677 C   0  0  0  0  0  0  0  0  0  0  0  0
   27.3102  -22.7966  -15.8727 O   0  0  0  0  0  0  0  0  0  0  0  0
   28.0238  -21.7103  -13.8997 C   0  0  0  0  0  0  0  0  0  0  0  0
   26.6725  -21.3785  -13.3011 C   0  0  2  0  0  0  0  0  0  0  0  0
   26.1540  -20.2015  -13.9624 N   0  0  0  0  0  0  0  0  0  0  0  0
   26.8638  -21.0356  -11.8504 C   0  0  0  0  0  0  0  0  0  0  0  0
   28.0259  -20.8844  -11.4042 O   0  0  0  0  0  0  0  0  0  0  0  0
   26.5583  -19.1880   -6.8949 C   0  0  0  0  0  0  0  0  0  0  0  0
   27.2643  -20.3689   -7.5565 C   0  0  2  0  0  0  0  0  0  0  0  0
   28.7327  -20.2826   -7.2483 C   0  0  0  0  0  0  0  0  0  0  0  0
   27.0649  -20.3453   -9.0350 C   0  0  0  0  0  0  0  0  0  0  0  0
   25.9345  -21.1521   -9.5600 C   0  0  2  0  0  0  0  0  0  0  0  0
   25.7498  -20.8830  -10.9890 N   0  0  0  0  0  0  0  0  0  0  0  0
   24.6544  -21.0125   -8.8368 C   0  0  0  0  0  0  0  0  0  0  0  0
   23.5352  -20.4307   -9.3660 O   0  0  0  0  0  0  0  0  0  0  0  0
   24.5632  -21.4472   -7.6580 O   0  0  0  0  0  0  0  0  0  0  0  0
  2  1  1  0
  2  3  2  0
  4  5  1  0
  4  2  1  0
  6  7  1  6
  6  5  1  0
  8  6  1  0
  9  8  2  0
 11 13  1  0
 11 10  1  0
 12 11  2  0
 14 13  1  6
 14 15  1  0
 15  8  1  0
 16 14  1  0
 16 17  2  0
 19 18  1  1
 19 21  1  0
 20 19  1  0
 22 21  1  1
 22 23  1  0
 22 24  1  0
 23 16  1  0
 24 26  2  0
 24 25  1  0
M  END
$$$$
