QNL.pdb
     RDKit          3D

 26 25  0  0  1  0  0  0  0  0999 V2000
   31.5433  -24.3756  -15.3622 N   0  0  0  0  0  0  0  0  0  0  0  0
   32.0257  -24.5825  -16.6733 C   0  0  0  0  0  0  0  0  0  0  0  0
   32.8971  -25.4535  -16.8737 O   0  0  0  0  0  0  0  0  0  0  0  0
   31.5114  -23.7855  -17.7891 C   0  0  0  0  0  0  0  0  0  0  0  0
   30.5428  -22.7230  -17.3731 C   0  0  0  0  0  0  0  0  0  0  0  0
   29.2244  -23.4185  -17.0451 C   0  0  2  0  0  0  0  0  0  0  0  0
   28.7110  -24.1170  -18.2040 N   0  0  0  0  0  0  0  0  0  0  0  0
   28.2391  -22.3787  -16.6604 C   0  0  0  0  0  0  0  0  0  0  0  0
   28.5983  -21.3845  -15.9684 O   0  0  0  0  0  0  0  0  0  0  0  0
   22.4572  -20.6953  -17.6366 N   0  0  0  0  0  0  0  0  0  0  0  0
   23.8163  -20.3744  -17.4650 C   0  0  0  0  0  0  0  0  0  0  0  0
   24.1568  -19.2367  -17.0819 O   0  0  0  0  0  0  0  0  0  0  0  0
   24.8442  -21.3984  -17.7425 C   0  0  0  0  0  0  0  0  0  0  0  0
   25.9517  -21.4065  -16.7092 C   0  0  2  0  0  0  0  0  0  0  0  0
   26.8858  -22.4581  -17.0456 N   0  0  0  0  0  0  0  0  0  0  0  0
   25.3545  -21.7421  -15.3715 C   0  0  0  0  0  0  0  0  0  0  0  0
   24.9146  -22.8988  -15.1693 O   0  0  0  0  0  0  0  0  0  0  0  0
   25.3551  -19.6051   -9.6504 C   0  0  0  0  0  0  0  0  0  0  0  0
   24.9666  -20.7617  -10.5679 C   0  0  2  0  0  0  0  0  0  0  0  0
   25.5450  -22.0312  -10.0091 C   0  0  0  0  0  0  0  0  0  0  0  0
   25.4902  -20.5426  -11.9479 C   0  0  0  0  0  0  0  0  0  0  0  0
   24.7155  -21.1625  -13.0523 C   0  0  2  0  0  0  0  0  0  0  0  0
   25.2852  -20.7693  -14.3443 N   0  0  0  0  0  0  0  0  0  0  0  0
   23.2591  -20.9181  -13.0322 C   0  0  0  0  0  0  0  0  0  0  0  0
   22.3500  -21.7554  -12.4460 O   0  0  0  0  0  0  0  0  0  0  0  0
   22.8015  -19.8820  -13.5836 O   0  0  0  0  0  0  0  0  0  0  0  0
  2  1  1  0
  2  3  2  0
  4  5  1  0
  4  2  1  0
  6  7  1  6
  6  5  1  0
  8  6  1  0
  9  8  2  0
 11 13  1  0
 11 10  1  0
 12 11  2  0
 14 13  1  6
 14 15  1  0
 15  8  1  0
 16 14  1  0
 16 17  2  0
 19 18  1  1
 19 21  1  0
 20 19  1  0
 22 21  1  1
 22 23  1  0
 22 24  1  0
 23 16  1  0
 24 26  2  0
 24 25  1  0
M  END
$$$$
