QNL.pdb
     RDKit          3D

 26 25  0  0  1  0  0  0  0  0999 V2000
   17.3822  -23.6621  -15.7323 N   0  0  0  0  0  0  0  0  0  0  0  0
   17.5327  -23.2559  -14.3881 C   0  0  0  0  0  0  0  0  0  0  0  0
   16.6620  -23.5743  -13.5522 O   0  0  0  0  0  0  0  0  0  0  0  0
   18.6968  -22.4691  -13.9750 C   0  0  0  0  0  0  0  0  0  0  0  0
   19.6274  -22.1365  -15.0991 C   0  0  0  0  0  0  0  0  0  0  0  0
   20.9660  -21.7493  -14.4764 C   0  0  2  0  0  0  0  0  0  0  0  0
   20.7676  -21.0885  -13.2042 N   0  0  0  0  0  0  0  0  0  0  0  0
   21.6398  -20.7952  -15.3906 C   0  0  0  0  0  0  0  0  0  0  0  0
   21.9016  -21.1289  -16.5807 O   0  0  0  0  0  0  0  0  0  0  0  0
   19.9207  -16.5884  -14.8738 N   0  0  0  0  0  0  0  0  0  0  0  0
   20.7908  -17.0124  -15.8949 C   0  0  0  0  0  0  0  0  0  0  0  0
   20.3594  -17.2387  -17.0436 O   0  0  0  0  0  0  0  0  0  0  0  0
   22.2269  -17.1894  -15.5973 C   0  0  0  0  0  0  0  0  0  0  0  0
   22.7073  -18.6008  -15.8649 C   0  0  2  0  0  0  0  0  0  0  0  0
   22.0081  -19.5002  -14.9739 N   0  0  0  0  0  0  0  0  0  0  0  0
   24.1704  -18.6790  -15.5307 C   0  0  0  0  0  0  0  0  0  0  0  0
   24.9685  -17.8842  -16.0818 O   0  0  0  0  0  0  0  0  0  0  0  0
   27.9750  -21.3358  -11.4543 C   0  0  0  0  0  0  0  0  0  0  0  0
   27.8332  -20.5776  -12.7717 C   0  0  2  0  0  0  0  0  0  0  0  0
   28.5778  -19.2772  -12.6582 C   0  0  0  0  0  0  0  0  0  0  0  0
   26.3980  -20.3034  -13.0739 C   0  0  0  0  0  0  0  0  0  0  0  0
   26.1012  -19.7600  -14.4233 C   0  0  2  0  0  0  0  0  0  0  0  0
   24.6520  -19.6365  -14.6046 N   0  0  0  0  0  0  0  0  0  0  0  0
   26.7050  -20.4889  -15.5571 C   0  0  0  0  0  0  0  0  0  0  0  0
   26.3160  -21.7372  -15.9594 O   0  0  0  0  0  0  0  0  0  0  0  0
   27.6383  -19.9492  -16.2084 O   0  0  0  0  0  0  0  0  0  0  0  0
  2  1  1  0
  2  3  2  0
  4  5  1  0
  4  2  1  0
  6  7  1  1
  6  5  1  0
  8  6  1  0
  9  8  2  0
 11 13  1  0
 11 10  1  0
 12 11  2  0
 14 13  1  1
 14 15  1  0
 15  8  1  0
 16 14  1  0
 16 17  2  0
 19 18  1  1
 19 21  1  0
 20 19  1  0
 22 21  1  1
 22 23  1  0
 22 24  1  0
 23 16  1  0
 24 26  2  0
 24 25  1  0
M  END
$$$$
