QNL.pdb
     RDKit          3D

 26 25  0  0  1  0  0  0  0  0999 V2000
   29.6382  -25.0420  -16.5573 N   0  0  0  0  0  0  0  0  0  0  0  0
   30.3591  -24.0805  -17.2990 C   0  0  0  0  0  0  0  0  0  0  0  0
   31.6000  -24.1817  -17.3880 O   0  0  0  0  0  0  0  0  0  0  0  0
   29.6616  -22.9744  -17.9587 C   0  0  0  0  0  0  0  0  0  0  0  0
   28.1701  -23.0746  -17.8849 C   0  0  0  0  0  0  0  0  0  0  0  0
   27.5999  -21.8908  -18.6614 C   0  0  2  0  0  0  0  0  0  0  0  0
   28.6585  -21.1399  -19.3016 N   0  0  0  0  0  0  0  0  0  0  0  0
   26.9174  -20.9940  -17.6971 C   0  0  0  0  0  0  0  0  0  0  0  0
   27.5820  -20.1544  -17.0265 O   0  0  0  0  0  0  0  0  0  0  0  0
   23.3513  -18.1708  -15.3443 N   0  0  0  0  0  0  0  0  0  0  0  0
   22.7882  -18.6948  -16.5223 C   0  0  0  0  0  0  0  0  0  0  0  0
   21.6578  -18.3287  -16.9033 O   0  0  0  0  0  0  0  0  0  0  0  0
   23.5475  -19.6870  -17.3104 C   0  0  0  0  0  0  0  0  0  0  0  0
   24.8575  -20.0721  -16.6547 C   0  0  2  0  0  0  0  0  0  0  0  0
   25.5235  -21.0427  -17.4948 N   0  0  0  0  0  0  0  0  0  0  0  0
   24.5567  -20.7397  -15.3422 C   0  0  0  0  0  0  0  0  0  0  0  0
   24.1569  -21.9281  -15.3364 O   0  0  0  0  0  0  0  0  0  0  0  0
   24.2504  -20.7602   -9.8182 C   0  0  0  0  0  0  0  0  0  0  0  0
   25.5413  -21.0804  -10.5677 C   0  0  2  0  0  0  0  0  0  0  0  0
   26.7050  -20.6264   -9.7322 C   0  0  0  0  0  0  0  0  0  0  0  0
   25.5752  -20.3840  -11.8868 C   0  0  0  0  0  0  0  0  0  0  0  0
   24.5344  -20.7813  -12.8682 C   0  0  2  0  0  0  0  0  0  0  0  0
   24.7200  -20.0422  -14.1203 N   0  0  0  0  0  0  0  0  0  0  0  0
   23.1368  -20.6706  -12.4035 C   0  0  0  0  0  0  0  0  0  0  0  0
   22.3937  -21.7270  -11.9530 O   0  0  0  0  0  0  0  0  0  0  0  0
   22.5721  -19.5447  -12.4147 O   0  0  0  0  0  0  0  0  0  0  0  0
  2  1  1  0
  2  3  2  0
  4  5  1  0
  4  2  1  0
  6  7  1  1
  6  5  1  0
  8  6  1  0
  9  8  2  0
 11 13  1  0
 11 10  1  0
 12 11  2  0
 14 13  1  6
 14 15  1  0
 15  8  1  0
 16 14  1  0
 16 17  2  0
 19 18  1  1
 19 21  1  0
 20 19  1  0
 22 21  1  1
 22 23  1  0
 22 24  1  0
 23 16  1  0
 24 26  2  0
 24 25  1  0
M  END
$$$$
