QNL.pdb
     RDKit          3D

 26 25  0  0  1  0  0  0  0  0999 V2000
   15.0376  -15.5283  -19.3045 N   0  0  0  0  0  0  0  0  0  0  0  0
   15.2622  -16.1884  -18.0765 C   0  0  0  0  0  0  0  0  0  0  0  0
   14.6262  -17.2308  -17.8175 O   0  0  0  0  0  0  0  0  0  0  0  0
   16.2305  -15.6586  -17.1138 C   0  0  0  0  0  0  0  0  0  0  0  0
   16.8228  -14.3448  -17.5177 C   0  0  0  0  0  0  0  0  0  0  0  0
   17.7483  -13.9013  -16.3880 C   0  0  2  0  0  0  0  0  0  0  0  0
   17.0929  -14.0376  -15.1049 N   0  0  0  0  0  0  0  0  0  0  0  0
   18.0682  -12.4673  -16.5916 C   0  0  0  0  0  0  0  0  0  0  0  0
   18.6291  -12.0839  -17.6568 O   0  0  0  0  0  0  0  0  0  0  0  0
   14.2868   -9.4567  -15.9860 N   0  0  0  0  0  0  0  0  0  0  0  0
   15.6209   -9.3631  -16.4227 C   0  0  0  0  0  0  0  0  0  0  0  0
   15.8877   -9.2992  -17.6400 O   0  0  0  0  0  0  0  0  0  0  0  0
   16.7108   -9.3408  -15.4258 C   0  0  0  0  0  0  0  0  0  0  0  0
   17.9443  -10.0842  -15.8951 C   0  0  2  0  0  0  0  0  0  0  0  0
   17.7637  -11.4925  -15.6204 N   0  0  0  0  0  0  0  0  0  0  0  0
   19.1218   -9.6129  -15.0889 C   0  0  0  0  0  0  0  0  0  0  0  0
   19.1123   -9.7635  -13.8441 O   0  0  0  0  0  0  0  0  0  0  0  0
   22.9553  -10.9750  -13.9012 C   0  0  0  0  0  0  0  0  0  0  0  0
   22.8496  -10.5029  -15.3491 C   0  0  2  0  0  0  0  0  0  0  0  0
   24.1275  -10.8494  -16.0601 C   0  0  0  0  0  0  0  0  0  0  0  0
   22.6306   -9.0283  -15.4113 C   0  0  0  0  0  0  0  0  0  0  0  0
   21.3374   -8.5315  -14.8774 C   0  0  2  0  0  0  0  0  0  0  0  0
   20.2345   -9.0041  -15.7193 N   0  0  0  0  0  0  0  0  0  0  0  0
   21.2444   -7.0718  -14.6728 C   0  0  0  0  0  0  0  0  0  0  0  0
   21.7113   -6.4227  -13.5629 O   0  0  0  0  0  0  0  0  0  0  0  0
   20.7049   -6.3593  -15.5605 O   0  0  0  0  0  0  0  0  0  0  0  0
  2  1  1  0
  2  3  2  0
  4  5  1  0
  4  2  1  0
  6  7  1  1
  6  5  1  0
  8  6  1  0
  9  8  2  0
 11 13  1  0
 11 10  1  0
 12 11  2  0
 14 13  1  1
 14 15  1  0
 15  8  1  0
 16 14  1  0
 16 17  2  0
 19 18  1  1
 19 21  1  0
 20 19  1  0
 22 21  1  6
 22 23  1  0
 22 24  1  0
 23 16  1  0
 24 26  2  0
 24 25  1  0
M  END
$$$$
