QNL.pdb
     RDKit          3D

 26 25  0  0  1  0  0  0  0  0999 V2000
   29.2250  -22.7229  -16.6207 N   0  0  0  0  0  0  0  0  0  0  0  0
   29.8112  -22.1817  -17.7859 C   0  0  0  0  0  0  0  0  0  0  0  0
   30.6832  -22.8373  -18.3926 O   0  0  0  0  0  0  0  0  0  0  0  0
   29.4031  -20.8651  -18.2808 C   0  0  0  0  0  0  0  0  0  0  0  0
   28.4255  -20.1643  -17.3900 C   0  0  0  0  0  0  0  0  0  0  0  0
   27.1359  -20.9804  -17.4061 C   0  0  2  0  0  0  0  0  0  0  0  0
   26.6641  -21.1671  -18.7614 N   0  0  0  0  0  0  0  0  0  0  0  0
   26.1026  -20.2223  -16.6593 C   0  0  0  0  0  0  0  0  0  0  0  0
   26.4290  -19.2318  -15.9462 O   0  0  0  0  0  0  0  0  0  0  0  0
   20.1444  -19.1121  -16.4929 N   0  0  0  0  0  0  0  0  0  0  0  0
   21.4940  -18.7768  -16.2798 C   0  0  0  0  0  0  0  0  0  0  0  0
   21.8008  -17.8006  -15.5657 O   0  0  0  0  0  0  0  0  0  0  0  0
   22.5525  -19.5922  -16.9101 C   0  0  0  0  0  0  0  0  0  0  0  0
   23.7425  -19.8072  -15.9979 C   0  0  2  0  0  0  0  0  0  0  0  0
   24.7385  -20.5720  -16.7152 N   0  0  0  0  0  0  0  0  0  0  0  0
   23.2999  -20.6307  -14.8213 C   0  0  0  0  0  0  0  0  0  0  0  0
   22.9067  -21.8065  -15.0091 O   0  0  0  0  0  0  0  0  0  0  0  0
   25.6200  -22.1371  -11.4712 C   0  0  0  0  0  0  0  0  0  0  0  0
   25.1697  -20.6902  -11.2857 C   0  0  2  0  0  0  0  0  0  0  0  0
   25.7934  -20.1521  -10.0287 C   0  0  0  0  0  0  0  0  0  0  0  0
   23.6839  -20.6070  -11.1780 C   0  0  0  0  0  0  0  0  0  0  0  0
   22.9145  -20.9563  -12.3988 C   0  0  2  0  0  0  0  0  0  0  0  0
   23.3231  -20.0934  -13.5109 N   0  0  0  0  0  0  0  0  0  0  0  0
   21.4446  -20.9549  -12.2548 C   0  0  0  0  0  0  0  0  0  0  0  0
   20.7315  -21.9643  -11.6685 O   0  0  0  0  0  0  0  0  0  0  0  0
   20.7846  -19.9753  -12.6924 O   0  0  0  0  0  0  0  0  0  0  0  0
  2  1  1  0
  2  3  2  0
  4  5  1  0
  4  2  1  0
  6  7  1  6
  6  5  1  0
  8  6  1  0
  9  8  2  0
 11 13  1  0
 11 10  1  0
 12 11  2  0
 14 13  1  6
 14 15  1  0
 15  8  1  0
 16 14  1  0
 16 17  2  0
 19 18  1  1
 19 21  1  0
 20 19  1  0
 22 21  1  1
 22 23  1  0
 22 24  1  0
 23 16  1  0
 24 26  2  0
 24 25  1  0
M  END
$$$$
