QNL.pdb
     RDKit          3D

 26 25  0  0  1  0  0  0  0  0999 V2000
   23.3178  -21.4968  -10.7287 N   0  0  0  0  0  0  0  0  0  0  0  0
   23.4097  -20.4193  -11.6369 C   0  0  0  0  0  0  0  0  0  0  0  0
   22.4690  -19.6024  -11.7134 O   0  0  0  0  0  0  0  0  0  0  0  0
   24.5948  -20.2584  -12.4822 C   0  0  0  0  0  0  0  0  0  0  0  0
   25.3527  -21.5300  -12.7035 C   0  0  0  0  0  0  0  0  0  0  0  0
   24.5884  -22.3334  -13.7522 C   0  0  2  0  0  0  0  0  0  0  0  0
   25.0652  -23.6990  -13.7997 N   0  0  0  0  0  0  0  0  0  0  0  0
   24.8354  -21.7132  -15.0768 C   0  0  0  0  0  0  0  0  0  0  0  0
   25.9954  -21.7191  -15.5775 O   0  0  0  0  0  0  0  0  0  0  0  0
   22.8122  -20.8667  -20.4033 N   0  0  0  0  0  0  0  0  0  0  0  0
   22.7790  -20.0658  -19.2470 C   0  0  0  0  0  0  0  0  0  0  0  0
   22.8091  -18.8215  -19.3352 O   0  0  0  0  0  0  0  0  0  0  0  0
   22.7079  -20.7105  -17.9197 C   0  0  0  0  0  0  0  0  0  0  0  0
   24.0234  -20.6487  -17.1713 C   0  0  2  0  0  0  0  0  0  0  0  0
   23.8024  -21.1031  -15.8163 N   0  0  0  0  0  0  0  0  0  0  0  0
   24.4663  -19.2143  -17.1014 C   0  0  0  0  0  0  0  0  0  0  0  0
   24.0177  -18.4778  -16.1910 O   0  0  0  0  0  0  0  0  0  0  0  0
   29.1071  -18.3126  -16.2278 C   0  0  0  0  0  0  0  0  0  0  0  0
   28.1627  -18.1054  -17.4092 C   0  0  2  0  0  0  0  0  0  0  0  0
   28.9289  -17.4547  -18.5263 C   0  0  0  0  0  0  0  0  0  0  0  0
   27.0132  -17.2361  -17.0230 C   0  0  0  0  0  0  0  0  0  0  0  0
   25.8160  -17.2997  -17.8988 C   0  0  2  0  0  0  0  0  0  0  0  0
   25.3800  -18.6911  -18.0488 N   0  0  0  0  0  0  0  0  0  0  0  0
   25.9507  -16.6535  -19.2199 C   0  0  0  0  0  0  0  0  0  0  0  0
   25.7797  -17.3035  -20.4114 O   0  0  0  0  0  0  0  0  0  0  0  0
   26.2417  -15.4293  -19.2792 O   0  0  0  0  0  0  0  0  0  0  0  0
  2  1  1  0
  2  3  2  0
  4  5  1  0
  4  2  1  0
  6  7  1  6
  6  5  1  0
  8  6  1  0
  9  8  2  0
 11 13  1  0
 11 10  1  0
 12 11  2  0
 14 13  1  6
 14 15  1  0
 15  8  1  0
 16 14  1  0
 16 17  2  0
 19 18  1  1
 19 21  1  0
 20 19  1  0
 22 21  1  6
 22 23  1  0
 22 24  1  0
 23 16  1  0
 24 26  2  0
 24 25  1  0
M  END
$$$$
