QNL.pdb
     RDKit          3D

 26 25  0  0  1  0  0  0  0  0999 V2000
   26.8339  -21.2701  -21.4610 N   0  0  0  0  0  0  0  0  0  0  0  0
   27.3226  -20.1081  -20.8245 C   0  0  0  0  0  0  0  0  0  0  0  0
   28.5475  -19.8686  -20.8459 O   0  0  0  0  0  0  0  0  0  0  0  0
   26.4051  -19.1907  -20.1452 C   0  0  0  0  0  0  0  0  0  0  0  0
   26.8731  -18.7676  -18.7879 C   0  0  0  0  0  0  0  0  0  0  0  0
   26.3940  -19.8243  -17.7964 C   0  0  2  0  0  0  0  0  0  0  0  0
   25.7020  -20.8945  -18.4821 N   0  0  0  0  0  0  0  0  0  0  0  0
   25.4369  -19.1801  -16.8642 C   0  0  0  0  0  0  0  0  0  0  0  0
   25.8022  -18.2058  -16.1476 O   0  0  0  0  0  0  0  0  0  0  0  0
   23.0325  -16.3972  -16.5908 N   0  0  0  0  0  0  0  0  0  0  0  0
   21.9225  -17.2060  -16.8957 C   0  0  0  0  0  0  0  0  0  0  0  0
   20.9373  -16.7321  -17.4972 O   0  0  0  0  0  0  0  0  0  0  0  0
   21.9300  -18.6286  -16.4973 C   0  0  0  0  0  0  0  0  0  0  0  0
   23.2045  -19.0259  -15.7816 C   0  0  2  0  0  0  0  0  0  0  0  0
   24.1043  -19.6226  -16.7437 N   0  0  0  0  0  0  0  0  0  0  0  0
   22.8712  -20.0772  -14.7606 C   0  0  0  0  0  0  0  0  0  0  0  0
   22.4749  -21.2026  -15.1463 O   0  0  0  0  0  0  0  0  0  0  0  0
   25.4892  -22.0057  -11.9772 C   0  0  0  0  0  0  0  0  0  0  0  0
   24.9640  -20.6870  -11.4152 C   0  0  2  0  0  0  0  0  0  0  0  0
   25.6452  -20.4209  -10.1024 C   0  0  0  0  0  0  0  0  0  0  0  0
   23.4881  -20.7506  -11.2052 C   0  0  0  0  0  0  0  0  0  0  0  0
   22.6536  -20.8712  -12.4271 C   0  0  2  0  0  0  0  0  0  0  0  0
   23.0002  -19.8089  -13.3758 N   0  0  0  0  0  0  0  0  0  0  0  0
   21.1938  -20.9135  -12.2072 C   0  0  0  0  0  0  0  0  0  0  0  0
   20.5115  -22.0299  -11.8080 O   0  0  0  0  0  0  0  0  0  0  0  0
   20.5131  -19.8701  -12.3936 O   0  0  0  0  0  0  0  0  0  0  0  0
  2  1  1  0
  2  3  2  0
  4  5  1  0
  4  2  1  0
  6  7  1  6
  6  5  1  0
  8  6  1  0
  9  8  2  0
 11 13  1  0
 11 10  1  0
 12 11  2  0
 14 13  1  6
 14 15  1  0
 15  8  1  0
 16 14  1  0
 16 17  2  0
 19 18  1  1
 19 21  1  0
 20 19  1  0
 22 21  1  1
 22 23  1  0
 22 24  1  0
 23 16  1  0
 24 26  2  0
 24 25  1  0
M  END
$$$$
