QNL.pdb
     RDKit          3D

 26 25  0  0  1  0  0  0  0  0999 V2000
   15.1832  -14.5953  -17.1086 N   0  0  0  0  0  0  0  0  0  0  0  0
   16.2641  -15.4091  -16.7039 C   0  0  0  0  0  0  0  0  0  0  0  0
   16.0441  -16.5852  -16.3482 O   0  0  0  0  0  0  0  0  0  0  0  0
   17.6307  -14.8824  -16.7002 C   0  0  0  0  0  0  0  0  0  0  0  0
   17.7255  -13.4532  -17.1346 C   0  0  0  0  0  0  0  0  0  0  0  0
   17.8641  -12.6068  -15.8721 C   0  0  2  0  0  0  0  0  0  0  0  0
   16.5825  -12.4464  -15.2192 N   0  0  0  0  0  0  0  0  0  0  0  0
   18.3492  -11.2629  -16.2704 C   0  0  0  0  0  0  0  0  0  0  0  0
   19.0492  -11.1204  -17.3125 O   0  0  0  0  0  0  0  0  0  0  0  0
   16.4869   -8.8979  -17.9274 N   0  0  0  0  0  0  0  0  0  0  0  0
   16.2446   -8.0087  -16.8644 C   0  0  0  0  0  0  0  0  0  0  0  0
   15.1877   -7.3471  -16.8180 O   0  0  0  0  0  0  0  0  0  0  0  0
   17.2551   -7.8618  -15.7968 C   0  0  0  0  0  0  0  0  0  0  0  0
   18.4338   -8.7956  -15.9784 C   0  0  2  0  0  0  0  0  0  0  0  0
   18.0529  -10.1112  -15.5140 N   0  0  0  0  0  0  0  0  0  0  0  0
   19.5612   -8.3168  -15.1076 C   0  0  0  0  0  0  0  0  0  0  0  0
   19.3834   -8.2250  -13.8697 O   0  0  0  0  0  0  0  0  0  0  0  0
   23.1644  -10.2725  -14.0575 C   0  0  0  0  0  0  0  0  0  0  0  0
   23.2886   -9.5784  -15.4116 C   0  0  2  0  0  0  0  0  0  0  0  0
   24.6200   -9.9337  -16.0112 C   0  0  0  0  0  0  0  0  0  0  0  0
   23.1917   -8.0973  -15.2591 C   0  0  0  0  0  0  0  0  0  0  0  0
   21.8951   -7.5696  -14.7646 C   0  0  2  0  0  0  0  0  0  0  0  0
   20.8144   -7.9708  -15.6699 N   0  0  0  0  0  0  0  0  0  0  0  0
   21.8469   -6.1151  -14.5127 C   0  0  0  0  0  0  0  0  0  0  0  0
   22.4129   -5.5069  -13.4259 O   0  0  0  0  0  0  0  0  0  0  0  0
   21.2524   -5.3679  -15.3342 O   0  0  0  0  0  0  0  0  0  0  0  0
  2  1  1  0
  2  3  2  0
  4  5  1  0
  4  2  1  0
  6  7  1  6
  6  5  1  0
  8  6  1  0
  9  8  2  0
 11 13  1  0
 11 10  1  0
 12 11  2  0
 14 13  1  1
 14 15  1  0
 15  8  1  0
 16 14  1  0
 16 17  2  0
 19 18  1  1
 19 21  1  0
 20 19  1  0
 22 21  1  6
 22 23  1  0
 22 24  1  0
 23 16  1  0
 24 26  2  0
 24 25  1  0
M  END
$$$$
