IFL.pdb
     RDKit          3D

 28 28  0  0  1  0  0  0  0  0999 V2000
    9.9402  -17.5034   17.7917 C   0  0  0  0  0  0  0  0  0  0  0  0
    9.6046  -17.7708   19.2298 C   0  0  0  0  0  0  0  0  0  0  0  0
   10.7631  -18.2771   20.0461 C   0  0  2  0  0  0  0  0  0  0  0  0
   11.1904  -19.6311   19.5133 C   0  0  0  0  0  0  0  0  0  0  0  0
   10.4960  -18.3319   21.5327 C   0  0  2  0  0  0  0  0  0  0  0  0
    9.2926  -19.1933   21.7058 N   0  0  0  0  0  0  0  0  0  0  0  0
   10.1613  -17.0537   22.1533 C   0  0  0  0  0  0  0  0  0  0  0  0
   11.0514  -16.1277   22.1759 O   0  0  0  0  0  0  0  0  0  0  0  0
    8.9345  -16.6872   22.7552 N   0  0  0  0  0  0  0  0  0  0  0  0
    8.7275  -15.4583   23.4786 C   0  0  1  0  0  0  0  0  0  0  0  0
    7.2539  -15.3487   23.8061 C   0  0  0  0  0  0  0  0  0  0  0  0
    6.9814  -14.1139   24.5864 C   0  0  0  0  0  0  0  0  0  0  0  0
    6.2231  -14.1561   25.7431 C   0  0  0  0  0  0  0  0  0  0  0  0
    5.9888  -13.0078   26.4396 C   0  0  0  0  0  0  0  0  0  0  0  0
    6.5126  -11.8029   25.9838 C   0  0  0  0  0  0  0  0  0  0  0  0
    7.2655  -11.7806   24.8295 C   0  0  0  0  0  0  0  0  0  0  0  0
    7.5125  -12.9293   24.1134 C   0  0  0  0  0  0  0  0  0  0  0  0
    9.4742  -15.4006   24.7549 C   0  0  0  0  0  0  0  0  0  0  0  0
    9.9561  -14.3516   25.2398 O   0  0  0  0  0  0  0  0  0  0  0  0
    8.9282  -13.4854   28.6487 C   0  0  0  0  0  0  0  0  0  0  0  0
    9.8049  -14.2756   27.7393 C   0  0  1  0  0  0  0  0  0  0  0  0
   11.2458  -13.9201   28.1061 C   0  0  0  0  0  0  0  0  0  0  0  0
    9.5722  -15.7208   27.6734 C   0  0  0  0  0  0  0  0  0  0  0  0
   10.3308  -16.6036   26.7824 C   0  0  2  0  0  0  0  0  0  0  0  0
    9.6485  -16.6149   25.4642 N   0  0  0  0  0  0  0  0  0  0  0  0
   10.6773  -17.9561   27.1687 C   0  0  0  0  0  0  0  0  0  0  0  0
   10.3591  -19.1322   26.5457 O   0  0  0  0  0  0  0  0  0  0  0  0
   11.3776  -18.1165   28.2474 O   0  0  0  0  0  0  0  0  0  0  0  0
  2  1  1  0
  3  2  1  0
  3  4  1  6
  5  3  1  0
  5  6  1  6
  7  5  1  0
  8  7  2  0
  9  7  1  0
 10  9  1  0
 11 12  1  0
 10 11  1  1
 12 13  2  0
 13 14  1  0
 15 14  2  0
 16 15  1  0
 17 12  1  0
 17 16  2  0
 18 10  1  0
 18 19  2  0
 21 20  1  1
 22 21  1  0
 24 23  1  1
 23 21  1  0
 24 25  1  0
 25 18  1  0
 26 24  1  0
 27 26  1  0
 28 26  2  0
M  END
$$$$
