IFL.pdb
     RDKit          3D

 28 28  0  0  1  0  0  0  0  0999 V2000
    9.0360  -17.0061   16.8765 C   0  0  0  0  0  0  0  0  0  0  0  0
   10.2785  -16.2536   17.2532 C   0  0  0  0  0  0  0  0  0  0  0  0
   10.3139  -15.8083   18.6903 C   0  0  2  0  0  0  0  0  0  0  0  0
   10.7072  -16.9840   19.5638 C   0  0  0  0  0  0  0  0  0  0  0  0
    9.0311  -15.1712   19.1729 C   0  0  2  0  0  0  0  0  0  0  0  0
    8.9002  -13.8876   18.4276 N   0  0  0  0  0  0  0  0  0  0  0  0
    9.0072  -14.8124   20.5877 C   0  0  0  0  0  0  0  0  0  0  0  0
    9.8580  -13.9524   21.0199 O   0  0  0  0  0  0  0  0  0  0  0  0
    8.1328  -15.3073   21.5838 N   0  0  0  0  0  0  0  0  0  0  0  0
    8.1534  -14.8783   22.9592 C   0  0  1  0  0  0  0  0  0  0  0  0
    6.7214  -14.7320   23.4269 C   0  0  0  0  0  0  0  0  0  0  0  0
    6.6681  -14.0425   24.7420 C   0  0  0  0  0  0  0  0  0  0  0  0
    7.0614  -12.7220   24.8695 C   0  0  0  0  0  0  0  0  0  0  0  0
    7.0019  -12.1140   26.0883 C   0  0  0  0  0  0  0  0  0  0  0  0
    6.5471  -12.8237   27.1942 C   0  0  0  0  0  0  0  0  0  0  0  0
    6.1596  -14.1383   27.0478 C   0  0  0  0  0  0  0  0  0  0  0  0
    6.2126  -14.7686   25.8258 C   0  0  0  0  0  0  0  0  0  0  0  0
    8.8213  -15.8433   23.8606 C   0  0  0  0  0  0  0  0  0  0  0  0
    8.8843  -17.0756   23.6477 O   0  0  0  0  0  0  0  0  0  0  0  0
   10.6264  -14.6805   29.2079 C   0  0  0  0  0  0  0  0  0  0  0  0
   10.3262  -14.4814   27.7621 C   0  0  1  0  0  0  0  0  0  0  0  0
   10.5378  -12.9949   27.4742 C   0  0  0  0  0  0  0  0  0  0  0  0
   11.0185  -15.3522   26.8082 C   0  0  0  0  0  0  0  0  0  0  0  0
   10.3038  -16.2025   25.8518 C   0  0  2  0  0  0  0  0  0  0  0  0
    9.4239  -15.3292   25.0356 N   0  0  0  0  0  0  0  0  0  0  0  0
    9.5713  -17.3767   26.2799 C   0  0  0  0  0  0  0  0  0  0  0  0
    8.2265  -17.6193   26.2095 O   0  0  0  0  0  0  0  0  0  0  0  0
   10.2440  -18.3486   26.8117 O   0  0  0  0  0  0  0  0  0  0  0  0
  2  1  1  0
  3  2  1  0
  3  4  1  1
  5  3  1  0
  5  6  1  6
  7  5  1  0
  8  7  2  0
  9  7  1  0
 10  9  1  0
 11 12  1  0
 10 11  1  1
 12 13  2  0
 13 14  1  0
 15 14  2  0
 16 15  1  0
 17 12  1  0
 17 16  2  0
 18 10  1  0
 18 19  2  0
 21 20  1  1
 22 21  1  0
 24 23  1  1
 23 21  1  0
 24 25  1  0
 25 18  1  0
 26 24  1  0
 27 26  1  0
 28 26  2  0
M  END
$$$$
