IFL.pdb
     RDKit          3D

 28 28  0  0  1  0  0  0  0  0999 V2000
    8.8726  -16.4067   16.2021 C   0  0  0  0  0  0  0  0  0  0  0  0
    8.0568  -15.3851   16.9391 C   0  0  0  0  0  0  0  0  0  0  0  0
    8.4851  -15.1714   18.3659 C   0  0  2  0  0  0  0  0  0  0  0  0
    8.5003  -16.5071   19.0839 C   0  0  0  0  0  0  0  0  0  0  0  0
    7.6553  -14.1547   19.1158 C   0  0  2  0  0  0  0  0  0  0  0  0
    7.9039  -12.8451   18.4501 N   0  0  0  0  0  0  0  0  0  0  0  0
    8.0203  -13.9633   20.5162 C   0  0  0  0  0  0  0  0  0  0  0  0
    9.2027  -13.5446   20.7932 O   0  0  0  0  0  0  0  0  0  0  0  0
    7.2079  -14.1862   21.6528 N   0  0  0  0  0  0  0  0  0  0  0  0
    7.6800  -14.0938   23.0110 C   0  0  1  0  0  0  0  0  0  0  0  0
    6.4885  -13.8258   23.9051 C   0  0  0  0  0  0  0  0  0  0  0  0
    6.9328  -13.4816   25.2805 C   0  0  0  0  0  0  0  0  0  0  0  0
    7.0592  -14.4583   26.2526 C   0  0  0  0  0  0  0  0  0  0  0  0
    7.4691  -14.1144   27.5065 C   0  0  0  0  0  0  0  0  0  0  0  0
    7.7573  -12.7862   27.8004 C   0  0  0  0  0  0  0  0  0  0  0  0
    7.6256  -11.8272   26.8191 C   0  0  0  0  0  0  0  0  0  0  0  0
    7.2132  -12.1554   25.5480 C   0  0  0  0  0  0  0  0  0  0  0  0
    8.3265  -15.3361   23.4890 C   0  0  0  0  0  0  0  0  0  0  0  0
    7.8131  -16.4745   23.3989 O   0  0  0  0  0  0  0  0  0  0  0  0
   11.6874  -18.2960   22.1729 C   0  0  0  0  0  0  0  0  0  0  0  0
   12.2709  -17.6744   23.3949 C   0  0  1  0  0  0  0  0  0  0  0  0
   13.7673  -17.5104   23.1279 C   0  0  0  0  0  0  0  0  0  0  0  0
   11.6408  -16.4467   23.8879 C   0  0  0  0  0  0  0  0  0  0  0  0
   10.3241  -16.4378   24.5319 C   0  0  2  0  0  0  0  0  0  0  0  0
    9.6069  -15.2177   24.0845 N   0  0  0  0  0  0  0  0  0  0  0  0
   10.1788  -16.5964   25.9646 C   0  0  0  0  0  0  0  0  0  0  0  0
   10.3463  -17.7235   26.7222 O   0  0  0  0  0  0  0  0  0  0  0  0
    9.8397  -15.5546   26.6571 O   0  0  0  0  0  0  0  0  0  0  0  0
  2  1  1  0
  3  2  1  0
  3  4  1  1
  5  3  1  0
  5  6  1  6
  7  5  1  0
  8  7  2  0
  9  7  1  0
 10  9  1  0
 11 12  1  0
 10 11  1  1
 12 13  2  0
 13 14  1  0
 15 14  2  0
 16 15  1  0
 17 12  1  0
 17 16  2  0
 18 10  1  0
 18 19  2  0
 21 20  1  6
 22 21  1  0
 24 23  1  1
 23 21  1  0
 24 25  1  0
 25 18  1  0
 26 24  1  0
 27 26  1  0
 28 26  2  0
M  END
$$$$
