IFL.pdb
     RDKit          3D

 28 28  0  0  1  0  0  0  0  0999 V2000
   10.0568  -19.7840   17.5510 C   0  0  0  0  0  0  0  0  0  0  0  0
   10.1767  -19.8442   19.0457 C   0  0  0  0  0  0  0  0  0  0  0  0
    9.9958  -18.5158   19.7295 C   0  0  2  0  0  0  0  0  0  0  0  0
   11.0135  -17.5339   19.1816 C   0  0  0  0  0  0  0  0  0  0  0  0
   10.0551  -18.5828   21.2382 C   0  0  2  0  0  0  0  0  0  0  0  0
    8.9301  -19.4649   21.6582 N   0  0  0  0  0  0  0  0  0  0  0  0
    9.8423  -17.3136   21.9273 C   0  0  0  0  0  0  0  0  0  0  0  0
   10.7549  -16.4124   21.8547 O   0  0  0  0  0  0  0  0  0  0  0  0
    8.7160  -16.9315   22.6934 N   0  0  0  0  0  0  0  0  0  0  0  0
    8.5981  -15.6692   23.3781 C   0  0  1  0  0  0  0  0  0  0  0  0
    7.2574  -15.6389   24.0798 C   0  0  0  0  0  0  0  0  0  0  0  0
    7.0388  -14.3232   24.7347 C   0  0  0  0  0  0  0  0  0  0  0  0
    6.3681  -14.2320   25.9417 C   0  0  0  0  0  0  0  0  0  0  0  0
    6.1817  -13.0118   26.5204 C   0  0  0  0  0  0  0  0  0  0  0  0
    6.6659  -11.8681   25.8951 C   0  0  0  0  0  0  0  0  0  0  0  0
    7.3315  -11.9787   24.6931 C   0  0  0  0  0  0  0  0  0  0  0  0
    7.5291  -13.2016   24.0940 C   0  0  0  0  0  0  0  0  0  0  0  0
    9.6440  -15.4631   24.4045 C   0  0  0  0  0  0  0  0  0  0  0  0
   10.5468  -14.5994   24.3237 O   0  0  0  0  0  0  0  0  0  0  0  0
   10.3180  -14.6388   29.3316 C   0  0  0  0  0  0  0  0  0  0  0  0
   10.1622  -14.4798   27.8584 C   0  0  1  0  0  0  0  0  0  0  0  0
   10.1025  -12.9765   27.5865 C   0  0  0  0  0  0  0  0  0  0  0  0
   11.1270  -15.1769   27.0037 C   0  0  0  0  0  0  0  0  0  0  0  0
   10.8350  -16.4664   26.3709 C   0  0  2  0  0  0  0  0  0  0  0  0
    9.6119  -16.3019   25.5462 N   0  0  0  0  0  0  0  0  0  0  0  0
   10.7466  -17.6885   27.1438 C   0  0  0  0  0  0  0  0  0  0  0  0
    9.6830  -18.5381   27.2828 O   0  0  0  0  0  0  0  0  0  0  0  0
   11.7933  -18.0581   27.8129 O   0  0  0  0  0  0  0  0  0  0  0  0
  2  1  1  0
  3  2  1  0
  3  4  1  6
  5  3  1  0
  5  6  1  1
  7  5  1  0
  8  7  2  0
  9  7  1  0
 10  9  1  0
 11 12  1  0
 10 11  1  1
 12 13  2  0
 13 14  1  0
 15 14  2  0
 16 15  1  0
 17 12  1  0
 17 16  2  0
 18 10  1  0
 18 19  2  0
 21 20  1  1
 22 21  1  0
 24 23  1  1
 23 21  1  0
 24 25  1  0
 25 18  1  0
 26 24  1  0
 27 26  1  0
 28 26  2  0
M  END
$$$$
