IFL.pdb
     RDKit          3D

 28 28  0  0  1  0  0  0  0  0999 V2000
    0.9531  -20.3154   21.6516 C   0  0  0  0  0  0  0  0  0  0  0  0
    2.4187  -20.4058   21.9619 C   0  0  0  0  0  0  0  0  0  0  0  0
    3.0895  -19.0716   22.1482 C   0  0  2  0  0  0  0  0  0  0  0  0
    2.8011  -18.1992   20.9418 C   0  0  0  0  0  0  0  0  0  0  0  0
    4.5737  -19.1575   22.4210 C   0  0  2  0  0  0  0  0  0  0  0  0
    4.7315  -20.1072   23.5581 N   0  0  0  0  0  0  0  0  0  0  0  0
    5.2007  -17.9125   22.8543 C   0  0  0  0  0  0  0  0  0  0  0  0
    5.2495  -16.9278   22.0306 O   0  0  0  0  0  0  0  0  0  0  0  0
    5.7831  -17.6382   24.1141 N   0  0  0  0  0  0  0  0  0  0  0  0
    6.4512  -16.4041   24.4412 C   0  0  1  0  0  0  0  0  0  0  0  0
    6.5565  -16.3123   25.9482 C   0  0  0  0  0  0  0  0  0  0  0  0
    6.8953  -14.9272   26.3660 C   0  0  0  0  0  0  0  0  0  0  0  0
    8.1937  -14.5814   26.6969 C   0  0  0  0  0  0  0  0  0  0  0  0
    8.4764  -13.3030   27.0768 C   0  0  0  0  0  0  0  0  0  0  0  0
    7.4597  -12.3557   27.1292 C   0  0  0  0  0  0  0  0  0  0  0  0
    6.1725  -12.7188   26.7958 C   0  0  0  0  0  0  0  0  0  0  0  0
    5.8681  -14.0041   26.4102 C   0  0  0  0  0  0  0  0  0  0  0  0
    7.8227  -16.3205   23.8917 C   0  0  0  0  0  0  0  0  0  0  0  0
    8.6617  -17.2479   23.9535 O   0  0  0  0  0  0  0  0  0  0  0  0
    8.0822  -12.1139   20.2780 C   0  0  0  0  0  0  0  0  0  0  0  0
    8.0855  -13.4502   20.9372 C   0  0  1  0  0  0  0  0  0  0  0  0
    7.5511  -14.4453   19.9069 C   0  0  0  0  0  0  0  0  0  0  0  0
    9.3389  -13.8879   21.5574 C   0  0  0  0  0  0  0  0  0  0  0  0
    9.4232  -15.0704   22.4196 C   0  0  2  0  0  0  0  0  0  0  0  0
    8.1990  -15.1102   23.2581 N   0  0  0  0  0  0  0  0  0  0  0  0
   10.5893  -15.3309   23.2387 C   0  0  0  0  0  0  0  0  0  0  0  0
   10.6591  -15.5237   24.5916 O   0  0  0  0  0  0  0  0  0  0  0  0
   11.7417  -15.3913   22.6486 O   0  0  0  0  0  0  0  0  0  0  0  0
  2  1  1  0
  3  2  1  0
  3  4  1  6
  5  3  1  0
  5  6  1  1
  7  5  1  0
  8  7  2  0
  9  7  1  0
 10  9  1  0
 11 12  1  0
 10 11  1  1
 12 13  2  0
 13 14  1  0
 15 14  2  0
 16 15  1  0
 17 12  1  0
 17 16  2  0
 18 10  1  0
 18 19  2  0
 21 20  1  6
 22 21  1  0
 24 23  1  1
 23 21  1  0
 24 25  1  0
 25 18  1  0
 26 24  1  0
 27 26  1  0
 28 26  2  0
M  END
$$$$
