IFL.pdb
     RDKit          3D

 28 28  0  0  1  0  0  0  0  0999 V2000
   12.8444  -20.7227   19.8655 C   0  0  0  0  0  0  0  0  0  0  0  0
   12.1315  -19.4385   19.5578 C   0  0  0  0  0  0  0  0  0  0  0  0
   11.7573  -18.6377   20.7758 C   0  0  2  0  0  0  0  0  0  0  0  0
   11.0376  -19.5396   21.7599 C   0  0  0  0  0  0  0  0  0  0  0  0
   10.9484  -17.3965   20.4763 C   0  0  2  0  0  0  0  0  0  0  0  0
   11.8369  -16.5058   19.6780 N   0  0  0  0  0  0  0  0  0  0  0  0
   10.5496  -16.6159   21.6436 C   0  0  0  0  0  0  0  0  0  0  0  0
   11.4590  -16.0143   22.3228 O   0  0  0  0  0  0  0  0  0  0  0  0
    9.2393  -16.4269   22.1425 N   0  0  0  0  0  0  0  0  0  0  0  0
    8.9308  -15.6729   23.3311 C   0  0  1  0  0  0  0  0  0  0  0  0
    7.4812  -15.2449   23.2526 C   0  0  0  0  0  0  0  0  0  0  0  0
    7.1628  -14.2743   24.3316 C   0  0  0  0  0  0  0  0  0  0  0  0
    7.5431  -12.9476   24.2302 C   0  0  0  0  0  0  0  0  0  0  0  0
    7.2376  -12.0786   25.2352 C   0  0  0  0  0  0  0  0  0  0  0  0
    6.5468  -12.5300   26.3544 C   0  0  0  0  0  0  0  0  0  0  0  0
    6.1763  -13.8551   26.4377 C   0  0  0  0  0  0  0  0  0  0  0  0
    6.4758  -14.7468   25.4333 C   0  0  0  0  0  0  0  0  0  0  0  0
    9.0990  -16.4540   24.5767 C   0  0  0  0  0  0  0  0  0  0  0  0
    8.8178  -17.6691   24.6870 O   0  0  0  0  0  0  0  0  0  0  0  0
   10.1710  -13.2754   28.9766 C   0  0  0  0  0  0  0  0  0  0  0  0
   10.4718  -14.1964   27.8447 C   0  0  1  0  0  0  0  0  0  0  0  0
   11.9376  -13.9681   27.4752 C   0  0  0  0  0  0  0  0  0  0  0  0
   10.1429  -15.6126   28.0280 C   0  0  0  0  0  0  0  0  0  0  0  0
   10.0251  -16.5483   26.9059 C   0  0  2  0  0  0  0  0  0  0  0  0
    9.6113  -15.7736   25.7092 N   0  0  0  0  0  0  0  0  0  0  0  0
    9.2348  -17.7582   27.0062 C   0  0  0  0  0  0  0  0  0  0  0  0
    8.0852  -18.0872   26.3409 O   0  0  0  0  0  0  0  0  0  0  0  0
    9.6341  -18.6748   27.8310 O   0  0  0  0  0  0  0  0  0  0  0  0
  2  1  1  0
  3  2  1  0
  3  4  1  1
  5  3  1  0
  5  6  1  6
  7  5  1  0
  8  7  2  0
  9  7  1  0
 10  9  1  0
 11 12  1  0
 10 11  1  6
 12 13  2  0
 13 14  1  0
 15 14  2  0
 16 15  1  0
 17 12  1  0
 17 16  2  0
 18 10  1  0
 18 19  2  0
 21 20  1  1
 22 21  1  0
 24 23  1  1
 23 21  1  0
 24 25  1  0
 25 18  1  0
 26 24  1  0
 27 26  1  0
 28 26  2  0
M  END
$$$$
