IFL.pdb
     RDKit          3D

 28 28  0  0  1  0  0  0  0  0999 V2000
    6.5529  -22.6999   21.3351 C   0  0  0  0  0  0  0  0  0  0  0  0
    5.6019  -21.9048   22.1811 C   0  0  0  0  0  0  0  0  0  0  0  0
    5.9793  -20.4557   22.3314 C   0  0  2  0  0  0  0  0  0  0  0  0
    7.4403  -20.3627   22.7269 C   0  0  0  0  0  0  0  0  0  0  0  0
    5.1013  -19.6834   23.2890 C   0  0  2  0  0  0  0  0  0  0  0  0
    3.7612  -19.5959   22.6437 N   0  0  0  0  0  0  0  0  0  0  0  0
    5.5124  -18.3049   23.5377 C   0  0  0  0  0  0  0  0  0  0  0  0
    5.3038  -17.4254   22.6249 O   0  0  0  0  0  0  0  0  0  0  0  0
    6.1337  -17.7912   24.7003 N   0  0  0  0  0  0  0  0  0  0  0  0
    6.6814  -16.4622   24.8007 C   0  0  1  0  0  0  0  0  0  0  0  0
    6.7534  -16.0936   26.2669 C   0  0  0  0  0  0  0  0  0  0  0  0
    7.0844  -14.6542   26.4291 C   0  0  0  0  0  0  0  0  0  0  0  0
    6.0969  -13.6864   26.3740 C   0  0  0  0  0  0  0  0  0  0  0  0
    6.4289  -12.3730   26.5263 C   0  0  0  0  0  0  0  0  0  0  0  0
    7.7560  -12.0144   26.7357 C   0  0  0  0  0  0  0  0  0  0  0  0
    8.7259  -12.9925   26.7876 C   0  0  0  0  0  0  0  0  0  0  0  0
    8.4098  -14.3231   26.6361 C   0  0  0  0  0  0  0  0  0  0  0  0
    8.0484  -16.3519   24.2448 C   0  0  0  0  0  0  0  0  0  0  0  0
    8.9730  -17.1602   24.4886 O   0  0  0  0  0  0  0  0  0  0  0  0
    7.6921  -12.5458   22.2500 C   0  0  0  0  0  0  0  0  0  0  0  0
    8.0141  -13.5988   21.2461 C   0  0  1  0  0  0  0  0  0  0  0  0
    7.8795  -12.9449   19.8708 C   0  0  0  0  0  0  0  0  0  0  0  0
    9.2784  -14.3202   21.4143 C   0  0  0  0  0  0  0  0  0  0  0  0
    9.4882  -15.3105   22.4745 C   0  0  2  0  0  0  0  0  0  0  0  0
    8.3162  -15.2587   23.3838 N   0  0  0  0  0  0  0  0  0  0  0  0
   10.7115  -15.3448   23.2498 C   0  0  0  0  0  0  0  0  0  0  0  0
   10.8630  -15.3435   24.6097 O   0  0  0  0  0  0  0  0  0  0  0  0
   11.8355  -15.3755   22.6052 O   0  0  0  0  0  0  0  0  0  0  0  0
  2  1  1  0
  3  2  1  0
  3  4  1  1
  5  3  1  0
  5  6  1  6
  7  5  1  0
  8  7  2  0
  9  7  1  0
 10  9  1  0
 11 12  1  0
 10 11  1  1
 12 13  2  0
 13 14  1  0
 15 14  2  0
 16 15  1  0
 17 12  1  0
 17 16  2  0
 18 10  1  0
 18 19  2  0
 21 20  1  1
 22 21  1  0
 24 23  1  6
 23 21  1  0
 24 25  1  0
 25 18  1  0
 26 24  1  0
 27 26  1  0
 28 26  2  0
M  END
$$$$
