IFL.pdb
     RDKit          3D

 28 28  0  0  1  0  0  0  0  0999 V2000
   12.8274  -20.7936   20.1766 C   0  0  0  0  0  0  0  0  0  0  0  0
   11.4387  -20.2246   20.1655 C   0  0  0  0  0  0  0  0  0  0  0  0
   11.2700  -19.0019   21.0264 C   0  0  2  0  0  0  0  0  0  0  0  0
   11.7649  -19.3096   22.4265 C   0  0  0  0  0  0  0  0  0  0  0  0
    9.8627  -18.4510   21.0507 C   0  0  2  0  0  0  0  0  0  0  0  0
    9.5335  -18.0935   19.6421 N   0  0  0  0  0  0  0  0  0  0  0  0
    9.6867  -17.2246   21.8226 C   0  0  0  0  0  0  0  0  0  0  0  0
   10.4688  -16.2324   21.5899 O   0  0  0  0  0  0  0  0  0  0  0  0
    8.7273  -16.9765   22.8323 N   0  0  0  0  0  0  0  0  0  0  0  0
    8.7013  -15.7861   23.6438 C   0  0  1  0  0  0  0  0  0  0  0  0
    7.3189  -15.6588   24.2466 C   0  0  0  0  0  0  0  0  0  0  0  0
    7.1718  -14.3579   24.9493 C   0  0  0  0  0  0  0  0  0  0  0  0
    7.6903  -13.1945   24.4084 C   0  0  0  0  0  0  0  0  0  0  0  0
    7.5408  -12.0146   25.0746 C   0  0  0  0  0  0  0  0  0  0  0  0
    6.8690  -11.9875   26.2919 C   0  0  0  0  0  0  0  0  0  0  0  0
    6.3594  -13.1564   26.8150 C   0  0  0  0  0  0  0  0  0  0  0  0
    6.5006  -14.3567   26.1570 C   0  0  0  0  0  0  0  0  0  0  0  0
    9.6735  -15.8197   24.7590 C   0  0  0  0  0  0  0  0  0  0  0  0
   10.7908  -15.2552   24.7339 O   0  0  0  0  0  0  0  0  0  0  0  0
    8.9339  -13.7321   29.1858 C   0  0  0  0  0  0  0  0  0  0  0  0
    9.6083  -14.4150   28.0461 C   0  0  1  0  0  0  0  0  0  0  0  0
   10.9093  -13.6538   27.7907 C   0  0  0  0  0  0  0  0  0  0  0  0
    9.8055  -15.8629   28.1547 C   0  0  0  0  0  0  0  0  0  0  0  0
   10.2788  -16.6823   27.0352 C   0  0  2  0  0  0  0  0  0  0  0  0
    9.3059  -16.5388   25.9233 N   0  0  0  0  0  0  0  0  0  0  0  0
   10.6247  -18.0782   27.2093 C   0  0  0  0  0  0  0  0  0  0  0  0
   10.0833  -19.1766   26.5988 O   0  0  0  0  0  0  0  0  0  0  0  0
   11.5653  -18.3676   28.0528 O   0  0  0  0  0  0  0  0  0  0  0  0
  2  1  1  0
  3  2  1  0
  3  4  1  1
  5  3  1  0
  5  6  1  6
  7  5  1  0
  8  7  2  0
  9  7  1  0
 10  9  1  0
 11 12  1  0
 10 11  1  1
 12 13  2  0
 13 14  1  0
 15 14  2  0
 16 15  1  0
 17 12  1  0
 17 16  2  0
 18 10  1  0
 18 19  2  0
 21 20  1  1
 22 21  1  0
 24 23  1  1
 23 21  1  0
 24 25  1  0
 25 18  1  0
 26 24  1  0
 27 26  1  0
 28 26  2  0
M  END
$$$$
