IFL.pdb
     RDKit          3D

 28 28  0  0  1  0  0  0  0  0999 V2000
   10.3797  -21.4553   20.4039 C   0  0  0  0  0  0  0  0  0  0  0  0
    9.3233  -20.3910   20.3459 C   0  0  0  0  0  0  0  0  0  0  0  0
    9.5143  -19.2821   21.3452 C   0  0  2  0  0  0  0  0  0  0  0  0
    9.8031  -19.8858   22.7061 C   0  0  0  0  0  0  0  0  0  0  0  0
    8.3643  -18.3036   21.4119 C   0  0  2  0  0  0  0  0  0  0  0  0
    8.2745  -17.6774   20.0629 N   0  0  0  0  0  0  0  0  0  0  0  0
    8.5390  -17.1996   22.3508 C   0  0  0  0  0  0  0  0  0  0  0  0
    9.5300  -16.3994   22.1836 O   0  0  0  0  0  0  0  0  0  0  0  0
    7.7252  -16.8828   23.4639 N   0  0  0  0  0  0  0  0  0  0  0  0
    8.0317  -15.8465   24.4170 C   0  0  1  0  0  0  0  0  0  0  0  0
    6.7355  -15.3997   25.0579 C   0  0  0  0  0  0  0  0  0  0  0  0
    6.9574  -14.2011   25.9075 C   0  0  0  0  0  0  0  0  0  0  0  0
    7.3466  -14.3282   27.2294 C   0  0  0  0  0  0  0  0  0  0  0  0
    7.5433  -13.2113   27.9860 C   0  0  0  0  0  0  0  0  0  0  0  0
    7.3519  -11.9532   27.4256 C   0  0  0  0  0  0  0  0  0  0  0  0
    6.9642  -11.8464   26.1072 C   0  0  0  0  0  0  0  0  0  0  0  0
    6.7609  -12.9623   25.3281 C   0  0  0  0  0  0  0  0  0  0  0  0
    8.9328  -16.2989   25.5001 C   0  0  0  0  0  0  0  0  0  0  0  0
    8.7099  -17.2911   26.2305 O   0  0  0  0  0  0  0  0  0  0  0  0
   14.2414  -15.0040   24.6256 C   0  0  0  0  0  0  0  0  0  0  0  0
   12.9806  -15.7239   24.9608 C   0  0  1  0  0  0  0  0  0  0  0  0
   13.2201  -17.1976   24.6320 C   0  0  0  0  0  0  0  0  0  0  0  0
   12.4299  -15.5204   26.3034 C   0  0  0  0  0  0  0  0  0  0  0  0
   11.1167  -16.0330   26.7050 C   0  0  2  0  0  0  0  0  0  0  0  0
   10.1195  -15.5549   25.7149 N   0  0  0  0  0  0  0  0  0  0  0  0
   10.6064  -15.8445   28.0476 C   0  0  0  0  0  0  0  0  0  0  0  0
    9.5978  -15.0231   28.4723 O   0  0  0  0  0  0  0  0  0  0  0  0
   11.1570  -16.5231   29.0048 O   0  0  0  0  0  0  0  0  0  0  0  0
  2  1  1  0
  3  2  1  0
  3  4  1  1
  5  3  1  0
  5  6  1  6
  7  5  1  0
  8  7  2  0
  9  7  1  0
 10  9  1  0
 11 12  1  0
 10 11  1  1
 12 13  2  0
 13 14  1  0
 15 14  2  0
 16 15  1  0
 17 12  1  0
 17 16  2  0
 18 10  1  0
 18 19  2  0
 21 20  1  1
 22 21  1  0
 24 23  1  1
 23 21  1  0
 24 25  1  0
 25 18  1  0
 26 24  1  0
 27 26  1  0
 28 26  2  0
M  END
$$$$
