IFL.pdb
     RDKit          3D

 28 28  0  0  1  0  0  0  0  0999 V2000
   10.6301  -19.6722   17.7142 C   0  0  0  0  0  0  0  0  0  0  0  0
   10.4849  -19.7887   19.2034 C   0  0  0  0  0  0  0  0  0  0  0  0
   10.4120  -18.4661   19.9178 C   0  0  2  0  0  0  0  0  0  0  0  0
   11.6461  -17.6519   19.5803 C   0  0  0  0  0  0  0  0  0  0  0  0
   10.2216  -18.5797   21.4129 C   0  0  2  0  0  0  0  0  0  0  0  0
    8.9889  -19.3924   21.6129 N   0  0  0  0  0  0  0  0  0  0  0  0
    9.9823  -17.3186   22.1082 C   0  0  0  0  0  0  0  0  0  0  0  0
   10.9440  -16.4716   22.1970 O   0  0  0  0  0  0  0  0  0  0  0  0
    8.7803  -16.8905   22.7195 N   0  0  0  0  0  0  0  0  0  0  0  0
    8.6262  -15.6279   23.3966 C   0  0  1  0  0  0  0  0  0  0  0  0
    7.1890  -15.5146   23.8574 C   0  0  0  0  0  0  0  0  0  0  0  0
    6.9718  -14.2378   24.5856 C   0  0  0  0  0  0  0  0  0  0  0  0
    7.4827  -13.0466   24.1010 C   0  0  0  0  0  0  0  0  0  0  0  0
    7.2681  -11.8897   24.7895 C   0  0  0  0  0  0  0  0  0  0  0  0
    6.5382  -11.9138   25.9729 C   0  0  0  0  0  0  0  0  0  0  0  0
    6.0371  -13.1099   26.4400 C   0  0  0  0  0  0  0  0  0  0  0  0
    6.2435  -14.2875   25.7587 C   0  0  0  0  0  0  0  0  0  0  0  0
    9.4898  -15.4982   24.5913 C   0  0  0  0  0  0  0  0  0  0  0  0
   10.1933  -14.4937   24.8436 O   0  0  0  0  0  0  0  0  0  0  0  0
    9.6107  -12.8450   28.0545 C   0  0  0  0  0  0  0  0  0  0  0  0
   10.4033  -14.0717   27.7594 C   0  0  1  0  0  0  0  0  0  0  0  0
   11.4247  -14.2122   28.8883 C   0  0  0  0  0  0  0  0  0  0  0  0
    9.6566  -15.3072   27.5078 C   0  0  0  0  0  0  0  0  0  0  0  0
   10.2342  -16.4476   26.7905 C   0  0  2  0  0  0  0  0  0  0  0  0
    9.5140  -16.5854   25.4999 N   0  0  0  0  0  0  0  0  0  0  0  0
   10.3743  -17.7463   27.4169 C   0  0  0  0  0  0  0  0  0  0  0  0
   11.3592  -18.1893   28.2572 O   0  0  0  0  0  0  0  0  0  0  0  0
    9.4678  -18.6387   27.1682 O   0  0  0  0  0  0  0  0  0  0  0  0
  2  1  1  0
  3  2  1  0
  3  4  1  1
  5  3  1  0
  5  6  1  6
  7  5  1  0
  8  7  2  0
  9  7  1  0
 10  9  1  0
 11 12  1  0
 10 11  1  1
 12 13  2  0
 13 14  1  0
 15 14  2  0
 16 15  1  0
 17 12  1  0
 17 16  2  0
 18 10  1  0
 18 19  2  0
 21 20  1  1
 22 21  1  0
 24 23  1  1
 23 21  1  0
 24 25  1  0
 25 18  1  0
 26 24  1  0
 27 26  1  0
 28 26  2  0
M  END
$$$$
