IFL.pdb
     RDKit          3D

 28 28  0  0  1  0  0  0  0  0999 V2000
   10.2775  -17.6361   16.1532 C   0  0  0  0  0  0  0  0  0  0  0  0
   10.0097  -18.1613   17.5332 C   0  0  0  0  0  0  0  0  0  0  0  0
   10.6203  -17.3352   18.6330 C   0  0  2  0  0  0  0  0  0  0  0  0
   12.0881  -17.1089   18.3261 C   0  0  0  0  0  0  0  0  0  0  0  0
   10.4318  -17.9111   20.0177 C   0  0  2  0  0  0  0  0  0  0  0  0
    9.2248  -18.7817   19.9433 N   0  0  0  0  0  0  0  0  0  0  0  0
   10.1524  -16.9346   21.0661 C   0  0  0  0  0  0  0  0  0  0  0  0
   11.0820  -16.1179   21.4112 O   0  0  0  0  0  0  0  0  0  0  0  0
    8.9421  -16.7628   21.7783 N   0  0  0  0  0  0  0  0  0  0  0  0
    8.7830  -15.8609   22.8907 C   0  0  1  0  0  0  0  0  0  0  0  0
    7.3204  -15.4825   22.9830 C   0  0  0  0  0  0  0  0  0  0  0  0
    7.0977  -14.5199   24.0927 C   0  0  0  0  0  0  0  0  0  0  0  0
    6.5929  -14.9419   25.3101 C   0  0  0  0  0  0  0  0  0  0  0  0
    6.3985  -14.0371   26.3111 C   0  0  0  0  0  0  0  0  0  0  0  0
    6.7084  -12.6976   26.1030 C   0  0  0  0  0  0  0  0  0  0  0  0
    7.2103  -12.2959   24.8837 C   0  0  0  0  0  0  0  0  0  0  0  0
    7.4132  -13.1947   23.8617 C   0  0  0  0  0  0  0  0  0  0  0  0
    9.1720  -16.4599   24.1867 C   0  0  0  0  0  0  0  0  0  0  0  0
    9.1877  -17.6909   24.4149 O   0  0  0  0  0  0  0  0  0  0  0  0
   10.2289  -14.7207   29.5335 C   0  0  0  0  0  0  0  0  0  0  0  0
    9.9770  -14.3131   28.1226 C   0  0  1  0  0  0  0  0  0  0  0  0
    9.9494  -12.7846   28.1092 C   0  0  0  0  0  0  0  0  0  0  0  0
   10.8564  -14.8775   27.0953 C   0  0  0  0  0  0  0  0  0  0  0  0
   10.4807  -16.0398   26.2850 C   0  0  2  0  0  0  0  0  0  0  0  0
    9.5483  -15.5750   25.2276 N   0  0  0  0  0  0  0  0  0  0  0  0
    9.9728  -17.2544   26.8896 C   0  0  0  0  0  0  0  0  0  0  0  0
    8.6840  -17.7114   26.9396 O   0  0  0  0  0  0  0  0  0  0  0  0
   10.8215  -18.0379   27.4776 O   0  0  0  0  0  0  0  0  0  0  0  0
  2  1  1  0
  3  2  1  0
  3  4  1  6
  5  3  1  0
  5  6  1  6
  7  5  1  0
  8  7  2  0
  9  7  1  0
 10  9  1  0
 11 12  1  0
 10 11  1  1
 12 13  2  0
 13 14  1  0
 15 14  2  0
 16 15  1  0
 17 12  1  0
 17 16  2  0
 18 10  1  0
 18 19  2  0
 21 20  1  1
 22 21  1  0
 24 23  1  1
 23 21  1  0
 24 25  1  0
 25 18  1  0
 26 24  1  0
 27 26  1  0
 28 26  2  0
M  END
$$$$
