IFL.pdb
     RDKit          3D

 28 28  0  0  1  0  0  0  0  0999 V2000
    7.5202  -12.4035   18.6950 C   0  0  0  0  0  0  0  0  0  0  0  0
    7.7149  -13.5226   19.6757 C   0  0  0  0  0  0  0  0  0  0  0  0
    8.7052  -14.5641   19.2292 C   0  0  2  0  0  0  0  0  0  0  0  0
    8.2562  -15.1365   17.8986 C   0  0  0  0  0  0  0  0  0  0  0  0
    8.9520  -15.6585   20.2421 C   0  0  2  0  0  0  0  0  0  0  0  0
    7.7554  -16.5450   20.1938 N   0  0  0  0  0  0  0  0  0  0  0  0
    9.0593  -15.2124   21.6279 C   0  0  0  0  0  0  0  0  0  0  0  0
   10.1174  -14.5814   21.9920 O   0  0  0  0  0  0  0  0  0  0  0  0
    8.1108  -15.3901   22.6624 N   0  0  0  0  0  0  0  0  0  0  0  0
    8.3066  -14.9475   24.0196 C   0  0  1  0  0  0  0  0  0  0  0  0
    6.9458  -14.6938   24.6317 C   0  0  0  0  0  0  0  0  0  0  0  0
    7.0682  -13.8504   25.8489 C   0  0  0  0  0  0  0  0  0  0  0  0
    7.1383  -12.4716   25.7549 C   0  0  0  0  0  0  0  0  0  0  0  0
    7.2502  -11.7220   26.8881 C   0  0  0  0  0  0  0  0  0  0  0  0
    7.2931  -12.3469   28.1297 C   0  0  0  0  0  0  0  0  0  0  0  0
    7.2220  -13.7214   28.2035 C   0  0  0  0  0  0  0  0  0  0  0  0
    7.1089  -14.4944   27.0707 C   0  0  0  0  0  0  0  0  0  0  0  0
    8.9971  -15.9470   24.8646 C   0  0  0  0  0  0  0  0  0  0  0  0
    8.6410  -17.1426   24.9713 O   0  0  0  0  0  0  0  0  0  0  0  0
   12.6060  -16.7815   23.7169 C   0  0  0  0  0  0  0  0  0  0  0  0
   13.1536  -16.8120   25.1023 C   0  0  1  0  0  0  0  0  0  0  0  0
   14.5734  -16.2509   25.0218 C   0  0  0  0  0  0  0  0  0  0  0  0
   12.3499  -16.1836   26.1542 C   0  0  0  0  0  0  0  0  0  0  0  0
   10.9333  -16.4986   26.3609 C   0  0  2  0  0  0  0  0  0  0  0  0
   10.1314  -15.5123   25.5943 N   0  0  0  0  0  0  0  0  0  0  0  0
   10.3773  -16.6589   27.6890 C   0  0  0  0  0  0  0  0  0  0  0  0
   10.5377  -17.6985   28.5641 O   0  0  0  0  0  0  0  0  0  0  0  0
    9.6150  -15.7144   28.1436 O   0  0  0  0  0  0  0  0  0  0  0  0
  2  1  1  0
  3  2  1  0
  3  4  1  6
  5  3  1  0
  5  6  1  1
  7  5  1  0
  8  7  2  0
  9  7  1  0
 10  9  1  0
 11 12  1  0
 10 11  1  1
 12 13  2  0
 13 14  1  0
 15 14  2  0
 16 15  1  0
 17 12  1  0
 17 16  2  0
 18 10  1  0
 18 19  2  0
 21 20  1  6
 22 21  1  0
 24 23  1  1
 23 21  1  0
 24 25  1  0
 25 18  1  0
 26 24  1  0
 27 26  1  0
 28 26  2  0
M  END
$$$$
