GEV.pdb
     RDKit          3D

 21 20  0  0  1  0  0  0  0  0999 V2000
   13.6738  -13.1313  -12.5549 N   0  0  0  0  0  0  0  0  0  0  0  0
   13.5927  -11.7284  -12.8413 C   0  0  0  0  0  0  0  0  0  0  0  0
   14.5733  -10.9485  -12.0056 C   0  0  0  0  0  0  0  0  0  0  0  0
   14.6142  -11.1617  -10.7708 O   0  0  0  0  0  0  0  0  0  0  0  0
   15.4344   -9.9921  -12.6001 N   0  0  0  0  0  0  0  0  0  0  0  0
   16.3525   -9.1458  -11.8737 C   0  0  1  0  0  0  0  0  0  0  0  0
   17.3470   -8.5158  -12.7769 C   0  0  0  0  0  0  0  0  0  0  0  0
   18.3538   -9.4277  -13.3825 C   0  0  0  0  0  0  0  0  0  0  0  0
   19.3674   -8.7994  -14.2288 C   0  0  0  0  0  0  0  0  0  0  0  0
   19.2342   -8.7496  -15.4787 O   0  0  0  0  0  0  0  0  0  0  0  0
   15.5670   -8.0901  -11.1447 C   0  0  0  0  0  0  0  0  0  0  0  0
   14.6225   -7.5204  -11.7393 O   0  0  0  0  0  0  0  0  0  0  0  0
   20.5161   -8.2318  -13.6975 O   0  0  0  0  0  0  0  0  0  0  0  0
   13.8299   -5.9584   -7.2180 C   0  0  0  0  0  0  0  0  0  0  0  0
   14.5137   -7.1420   -7.8628 C   0  0  1  0  0  0  0  0  0  0  0  0
   13.5189   -8.2611   -8.0736 C   0  0  0  0  0  0  0  0  0  0  0  0
   15.1212   -6.6848   -9.1728 C   0  0  2  0  0  0  0  0  0  0  0  0
   15.8738   -7.7326   -9.8101 N   0  0  0  0  0  0  0  0  0  0  0  0
   16.0470   -5.5573   -8.9056 C   0  0  0  0  0  0  0  0  0  0  0  0
   17.4297   -5.6944   -8.9446 O   0  0  0  0  0  0  0  0  0  0  0  0
   15.6115   -4.4153   -8.6286 O   0  0  0  0  0  0  0  0  0  0  0  0
  2  1  1  0
  3  4  2  0
  3  2  1  0
  5  3  1  0
  6  5  1  0
  6 11  1  0
  6  7  1  6
  8  9  1  0
  8  7  1  0
  9 13  1  0
 10  9  2  0
 11 12  2  0
 15 14  1  6
 15 16  1  0
 17 15  1  0
 18 11  1  0
 17 18  1  1
 19 20  1  0
 19 17  1  0
 21 19  2  0
M  END
$$$$
