GEV.pdb
     RDKit          3D

 21 20  0  0  1  0  0  0  0  0999 V2000
   17.8601  -14.9965  -17.4304 N   0  0  0  0  0  0  0  0  0  0  0  0
   17.3333  -13.7478  -16.9614 C   0  0  0  0  0  0  0  0  0  0  0  0
   18.3773  -12.6641  -17.0212 C   0  0  0  0  0  0  0  0  0  0  0  0
   19.5816  -12.9804  -16.8750 O   0  0  0  0  0  0  0  0  0  0  0  0
   18.0092  -11.3125  -17.2385 N   0  0  0  0  0  0  0  0  0  0  0  0
   18.9391  -10.2122  -17.3456 C   0  0  1  0  0  0  0  0  0  0  0  0
   18.2889   -8.9983  -17.8983 C   0  0  0  0  0  0  0  0  0  0  0  0
   19.1615   -7.8060  -18.0681 C   0  0  0  0  0  0  0  0  0  0  0  0
   18.5098   -6.5946  -18.5641 C   0  0  0  0  0  0  0  0  0  0  0  0
   19.1652   -5.5425  -18.7791 O   0  0  0  0  0  0  0  0  0  0  0  0
   19.5103   -9.9244  -15.9840 C   0  0  0  0  0  0  0  0  0  0  0  0
   18.7622  -10.0145  -14.9829 O   0  0  0  0  0  0  0  0  0  0  0  0
   17.1473   -6.5478  -18.8197 O   0  0  0  0  0  0  0  0  0  0  0  0
   22.3110  -11.5542  -14.2350 C   0  0  0  0  0  0  0  0  0  0  0  0
   22.6384  -10.0789  -14.2098 C   0  0  1  0  0  0  0  0  0  0  0  0
   23.7118   -9.7708  -15.2292 C   0  0  0  0  0  0  0  0  0  0  0  0
   21.3672   -9.3048  -14.4907 C   0  0  2  0  0  0  0  0  0  0  0  0
   20.8667   -9.5570  -15.8159 N   0  0  0  0  0  0  0  0  0  0  0  0
   21.6540   -7.8536  -14.3811 C   0  0  0  0  0  0  0  0  0  0  0  0
   21.6233   -6.9964  -15.4749 O   0  0  0  0  0  0  0  0  0  0  0  0
   21.9411   -7.3332  -13.2778 O   0  0  0  0  0  0  0  0  0  0  0  0
  2  1  1  0
  3  4  2  0
  3  2  1  0
  5  3  1  0
  6  5  1  0
  6 11  1  0
  6  7  1  1
  8  9  1  0
  8  7  1  0
  9 13  1  0
 10  9  2  0
 11 12  2  0
 15 14  1  6
 15 16  1  0
 17 15  1  0
 18 11  1  0
 17 18  1  6
 19 20  1  0
 19 17  1  0
 21 19  2  0
M  END
$$$$
