GEV.pdb
     RDKit          3D

 21 20  0  0  1  0  0  0  0  0999 V2000
   17.8078  -15.3048  -16.5084 N   0  0  0  0  0  0  0  0  0  0  0  0
   17.1698  -14.0845  -16.1073 C   0  0  0  0  0  0  0  0  0  0  0  0
   18.0439  -12.8947  -16.4042 C   0  0  0  0  0  0  0  0  0  0  0  0
   19.2060  -13.0935  -16.8307 O   0  0  0  0  0  0  0  0  0  0  0  0
   17.5655  -11.5749  -16.2066 N   0  0  0  0  0  0  0  0  0  0  0  0
   18.3062  -10.3746  -16.5186 C   0  0  1  0  0  0  0  0  0  0  0  0
   17.4025   -9.2393  -16.8289 C   0  0  0  0  0  0  0  0  0  0  0  0
   18.0602   -7.9702  -17.2396 C   0  0  0  0  0  0  0  0  0  0  0  0
   17.1689   -6.8654  -17.5902 C   0  0  0  0  0  0  0  0  0  0  0  0
   17.2561   -6.2847  -18.7028 O   0  0  0  0  0  0  0  0  0  0  0  0
   19.1917  -10.0330  -15.3515 C   0  0  0  0  0  0  0  0  0  0  0  0
   18.7481  -10.1882  -14.1899 O   0  0  0  0  0  0  0  0  0  0  0  0
   16.1913   -6.4079  -16.7191 O   0  0  0  0  0  0  0  0  0  0  0  0
   22.5016  -11.4382  -14.5483 C   0  0  0  0  0  0  0  0  0  0  0  0
   22.6943   -9.9395  -14.5187 C   0  0  1  0  0  0  0  0  0  0  0  0
   23.4120   -9.4864  -15.7701 C   0  0  0  0  0  0  0  0  0  0  0  0
   21.3331   -9.2873  -14.3922 C   0  0  2  0  0  0  0  0  0  0  0  0
   20.5061   -9.5437  -15.5414 N   0  0  0  0  0  0  0  0  0  0  0  0
   21.5122   -7.8192  -14.2788 C   0  0  0  0  0  0  0  0  0  0  0  0
   22.0054   -7.2083  -13.1318 O   0  0  0  0  0  0  0  0  0  0  0  0
   21.2201   -7.0573  -15.2299 O   0  0  0  0  0  0  0  0  0  0  0  0
  2  1  1  0
  3  4  2  0
  3  2  1  0
  5  3  1  0
  6  5  1  0
  6 11  1  0
  6  7  1  1
  8  9  1  0
  8  7  1  0
  9 13  1  0
 10  9  2  0
 11 12  2  0
 15 14  1  6
 15 16  1  0
 17 15  1  0
 18 11  1  0
 17 18  1  6
 19 20  1  0
 19 17  1  0
 21 19  2  0
M  END
$$$$
