CVN.pdb
     RDKit          3D

 22 21  0  0  1  0  0  0  0  0999 V2000
   15.7796  -10.8083  -11.5614 N   0  0  0  0  0  0  0  0  0  0  0  0
   16.5074   -9.7714  -10.8782 C   0  0  1  0  0  0  0  0  0  0  0  0
   17.7986   -9.5219  -11.6538 C   0  0  0  0  0  0  0  0  0  0  0  0
   18.8514  -11.0073  -11.5848 S   0  0  0  0  0  0  0  0  0  0  0  0
   15.7454   -8.5241  -10.6916 C   0  0  0  0  0  0  0  0  0  0  0  0
   15.0423   -8.1380  -11.6881 O   0  0  0  0  0  0  0  0  0  0  0  0
   15.3844   -6.6512   -7.0034 C   0  0  0  0  0  0  0  0  0  0  0  0
   14.2940   -6.4438   -8.0276 C   0  0  1  0  0  0  0  0  0  0  0  0
   13.6444   -5.1015   -7.8368 C   0  0  0  0  0  0  0  0  0  0  0  0
   14.8974   -6.6112   -9.4056 C   0  0  2  0  0  0  0  0  0  0  0  0
   15.7517   -7.7549   -9.5003 N   0  0  0  0  0  0  0  0  0  0  0  0
   15.5979   -5.3653   -9.8383 C   0  0  0  0  0  0  0  0  0  0  0  0
   16.7866   -5.1259   -9.4556 O   0  0  0  0  0  0  0  0  0  0  0  0
   16.8180   -0.7772  -12.4659 N   0  0  0  0  0  0  0  0  0  0  0  0
   16.3708   -1.9299  -13.1511 C   0  0  0  0  0  0  0  0  0  0  0  0
   16.4992   -1.8891  -14.4232 O   0  0  0  0  0  0  0  0  0  0  0  0
   15.7937   -3.1379  -12.5775 C   0  0  0  0  0  0  0  0  0  0  0  0
   15.7185   -3.1747  -11.0709 C   0  0  2  0  0  0  0  0  0  0  0  0
   15.0138   -4.3883  -10.6791 N   0  0  0  0  0  0  0  0  0  0  0  0
   15.0506   -1.9631  -10.5768 C   0  0  0  0  0  0  0  0  0  0  0  0
   13.8160   -1.8732  -10.5190 O   0  0  0  0  0  0  0  0  0  0  0  0
   15.8263   -0.8976  -10.1657 O   0  0  0  0  0  0  0  0  0  0  0  0
  2  1  1  6
  2  3  1  0
  2  5  1  0
  4  3  1  0
  5 11  1  0
  5  6  2  0
  8  7  1  1
  8 10  1  0
  8  9  1  0
 10 12  1  0
 10 11  1  1
 12 19  1  0
 13 12  2  0
 14 15  1  0
 15 16  2  0
 17 15  1  0
 18 20  1  0
 18 17  1  6
 19 18  1  0
 20 22  1  0
 21 20  2  0
M  END
$$$$
