CVN.pdb
     RDKit          3D

 22 21  0  0  1  0  0  0  0  0999 V2000
   16.0745  -13.6104  -15.3586 N   0  0  0  0  0  0  0  0  0  0  0  0
   16.2252  -12.1834  -15.4709 C   0  0  1  0  0  0  0  0  0  0  0  0
   15.3331  -11.5374  -14.4137 C   0  0  0  0  0  0  0  0  0  0  0  0
   13.6250  -11.4269  -15.0382 S   0  0  0  0  0  0  0  0  0  0  0  0
   17.6174  -11.7145  -15.3556 C   0  0  0  0  0  0  0  0  0  0  0  0
   18.2921  -12.1852  -14.3760 O   0  0  0  0  0  0  0  0  0  0  0  0
   20.4810  -12.3337  -17.3991 C   0  0  0  0  0  0  0  0  0  0  0  0
   20.4557  -10.8290  -17.2719 C   0  0  1  0  0  0  0  0  0  0  0  0
   19.9566  -10.2039  -18.5448 C   0  0  0  0  0  0  0  0  0  0  0  0
   19.6084  -10.4671  -16.0710 C   0  0  2  0  0  0  0  0  0  0  0  0
   18.2277  -10.7971  -16.2483 N   0  0  0  0  0  0  0  0  0  0  0  0
   19.7868   -9.0308  -15.7033 C   0  0  0  0  0  0  0  0  0  0  0  0
   18.9329   -8.1603  -16.0638 O   0  0  0  0  0  0  0  0  0  0  0  0
   22.2742   -4.4505  -14.0842 N   0  0  0  0  0  0  0  0  0  0  0  0
   22.5100   -5.6091  -13.3095 C   0  0  0  0  0  0  0  0  0  0  0  0
   23.2770   -5.4399  -12.2999 O   0  0  0  0  0  0  0  0  0  0  0  0
   21.9823   -6.9487  -13.5291 C   0  0  0  0  0  0  0  0  0  0  0  0
   21.1235   -7.1196  -14.7579 C   0  0  2  0  0  0  0  0  0  0  0  0
   20.8817   -8.5434  -14.9507 N   0  0  0  0  0  0  0  0  0  0  0  0
   21.7875   -6.5091  -15.9174 C   0  0  0  0  0  0  0  0  0  0  0  0
   22.5833   -7.1428  -16.6249 O   0  0  0  0  0  0  0  0  0  0  0  0
   21.5121   -5.1912  -16.2229 O   0  0  0  0  0  0  0  0  0  0  0  0
  2  1  1  1
  2  3  1  0
  2  5  1  0
  4  3  1  0
  5 11  1  0
  5  6  2  0
  8  7  1  6
  8 10  1  0
  8  9  1  0
 10 12  1  0
 10 11  1  6
 12 19  1  0
 13 12  2  0
 14 15  1  0
 15 16  2  0
 17 15  1  0
 18 20  1  0
 18 17  1  1
 19 18  1  0
 20 22  1  0
 21 20  2  0
M  END
$$$$
