CVN.pdb
     RDKit          3D

 22 21  0  0  1  0  0  0  0  0999 V2000
   18.4196  -24.6324   -6.2404 N   0  0  0  0  0  0  0  0  0  0  0  0
   19.0399  -24.7129   -7.5366 C   0  0  1  0  0  0  0  0  0  0  0  0
   18.3652  -25.8466   -8.3049 C   0  0  0  0  0  0  0  0  0  0  0  0
   19.1720  -27.4284   -7.8965 S   0  0  0  0  0  0  0  0  0  0  0  0
   19.0040  -23.4531   -8.3002 C   0  0  0  0  0  0  0  0  0  0  0  0
   17.9302  -22.7648   -8.2031 O   0  0  0  0  0  0  0  0  0  0  0  0
   21.0027  -19.7693  -10.7922 C   0  0  0  0  0  0  0  0  0  0  0  0
   21.2348  -20.9835   -9.9247 C   0  0  1  0  0  0  0  0  0  0  0  0
   21.8164  -20.5771   -8.5993 C   0  0  0  0  0  0  0  0  0  0  0  0
   19.9234  -21.7264   -9.7851 C   0  0  2  0  0  0  0  0  0  0  0  0
   20.0668  -22.9802   -9.1112 N   0  0  0  0  0  0  0  0  0  0  0  0
   19.2565  -21.8891  -11.1113 C   0  0  0  0  0  0  0  0  0  0  0  0
   19.5938  -22.8335  -11.8931 O   0  0  0  0  0  0  0  0  0  0  0  0
   14.5170  -21.5872  -14.5236 N   0  0  0  0  0  0  0  0  0  0  0  0
   15.4589  -20.6393  -14.0628 C   0  0  0  0  0  0  0  0  0  0  0  0
   15.6704  -19.6561  -14.8532 O   0  0  0  0  0  0  0  0  0  0  0  0
   16.1985  -20.6576  -12.8082 C   0  0  0  0  0  0  0  0  0  0  0  0
   17.5945  -21.2259  -12.8807 C   0  0  2  0  0  0  0  0  0  0  0  0
   18.2324  -21.0349  -11.5848 N   0  0  0  0  0  0  0  0  0  0  0  0
   18.3405  -20.5749  -13.9660 C   0  0  0  0  0  0  0  0  0  0  0  0
   19.0481  -19.5772  -13.7675 O   0  0  0  0  0  0  0  0  0  0  0  0
   18.2471  -21.0949  -15.2415 O   0  0  0  0  0  0  0  0  0  0  0  0
  2  1  1  1
  2  3  1  0
  2  5  1  0
  4  3  1  0
  5 11  1  0
  5  6  2  0
  8  7  1  6
  8 10  1  0
  8  9  1  0
 10 12  1  0
 10 11  1  6
 12 19  1  0
 13 12  2  0
 14 15  1  0
 15 16  2  0
 17 15  1  0
 18 20  1  0
 18 17  1  1
 19 18  1  0
 20 22  1  0
 21 20  2  0
M  END
$$$$
