CVN.pdb
     RDKit          3D

 22 21  0  0  1  0  0  0  0  0999 V2000
   13.7632   -9.0444   -7.7858 N   0  0  0  0  0  0  0  0  0  0  0  0
   14.4381   -7.9816   -8.4833 C   0  0  1  0  0  0  0  0  0  0  0  0
   14.8777   -6.9511   -7.4461 C   0  0  0  0  0  0  0  0  0  0  0  0
   13.4234   -6.0410   -6.8325 S   0  0  0  0  0  0  0  0  0  0  0  0
   15.5743   -8.4293   -9.3079 C   0  0  0  0  0  0  0  0  0  0  0  0
   16.4598   -9.1352   -8.7129 O   0  0  0  0  0  0  0  0  0  0  0  0
   15.2035   -9.3541  -13.0876 C   0  0  0  0  0  0  0  0  0  0  0  0
   16.4428   -9.7882  -12.3415 C   0  0  1  0  0  0  0  0  0  0  0  0
   17.5358  -10.1514  -13.3076 C   0  0  0  0  0  0  0  0  0  0  0  0
   16.8432   -8.6759  -11.3962 C   0  0  2  0  0  0  0  0  0  0  0  0
   15.7300   -8.1270  -10.6846 N   0  0  0  0  0  0  0  0  0  0  0  0
   17.6136   -7.6160  -12.1124 C   0  0  0  0  0  0  0  0  0  0  0  0
   17.0107   -6.7240  -12.7889 O   0  0  0  0  0  0  0  0  0  0  0  0
   21.7503   -4.6818  -14.0993 N   0  0  0  0  0  0  0  0  0  0  0  0
   22.0425   -5.4977  -12.9826 C   0  0  0  0  0  0  0  0  0  0  0  0
   23.2470   -5.4254  -12.5581 O   0  0  0  0  0  0  0  0  0  0  0  0
   21.1380   -6.3924  -12.2735 C   0  0  0  0  0  0  0  0  0  0  0  0
   19.7518   -6.5169  -12.8563 C   0  0  2  0  0  0  0  0  0  0  0  0
   19.0257   -7.5245  -12.0944 N   0  0  0  0  0  0  0  0  0  0  0  0
   19.8408   -6.8591  -14.2822 C   0  0  0  0  0  0  0  0  0  0  0  0
   20.1215   -8.0039  -14.6646 O   0  0  0  0  0  0  0  0  0  0  0  0
   19.6029   -5.8726  -15.2183 O   0  0  0  0  0  0  0  0  0  0  0  0
  2  1  1  1
  2  3  1  0
  2  5  1  0
  4  3  1  0
  5 11  1  0
  5  6  2  0
  8  7  1  6
  8 10  1  0
  8  9  1  0
 10 12  1  0
 10 11  1  6
 12 19  1  0
 13 12  2  0
 14 15  1  0
 15 16  2  0
 17 15  1  0
 18 20  1  0
 18 17  1  1
 19 18  1  0
 20 22  1  0
 21 20  2  0
M  END
$$$$
