CVN.pdb
     RDKit          3D

 22 21  0  0  1  0  0  0  0  0999 V2000
   17.9702  -14.2017  -15.9759 N   0  0  0  0  0  0  0  0  0  0  0  0
   18.3750  -13.0794  -16.7811 C   0  0  1  0  0  0  0  0  0  0  0  0
   17.1258  -12.5156  -17.4538 C   0  0  0  0  0  0  0  0  0  0  0  0
   16.4858  -13.7184  -18.6635 S   0  0  0  0  0  0  0  0  0  0  0  0
   19.0997  -12.0347  -16.0363 C   0  0  0  0  0  0  0  0  0  0  0  0
   18.5529  -11.6324  -14.9521 O   0  0  0  0  0  0  0  0  0  0  0  0
   23.0579  -10.7347  -16.8437 C   0  0  0  0  0  0  0  0  0  0  0  0
   22.4312  -10.6570  -15.4719 C   0  0  1  0  0  0  0  0  0  0  0  0
   23.0756   -9.5663  -14.6624 C   0  0  0  0  0  0  0  0  0  0  0  0
   20.9402  -10.4575  -15.6404 C   0  0  2  0  0  0  0  0  0  0  0  0
   20.3342  -11.4712  -16.4479 N   0  0  0  0  0  0  0  0  0  0  0  0
   20.6383   -9.0897  -16.1581 C   0  0  0  0  0  0  0  0  0  0  0  0
   20.2301   -8.9255  -17.3511 O   0  0  0  0  0  0  0  0  0  0  0  0
   18.8254   -4.1240  -16.5349 N   0  0  0  0  0  0  0  0  0  0  0  0
   18.2059   -5.3847  -16.3776 C   0  0  0  0  0  0  0  0  0  0  0  0
   16.9356   -5.3877  -16.5283 O   0  0  0  0  0  0  0  0  0  0  0  0
   18.8441   -6.6577  -16.0715 C   0  0  0  0  0  0  0  0  0  0  0  0
   20.3387   -6.6077  -15.8702 C   0  0  2  0  0  0  0  0  0  0  0  0
   20.7776   -7.9107  -15.3880 N   0  0  0  0  0  0  0  0  0  0  0  0
   20.6784   -5.5279  -14.9339 C   0  0  0  0  0  0  0  0  0  0  0  0
   21.1061   -5.7598  -13.7942 O   0  0  0  0  0  0  0  0  0  0  0  0
   20.5150   -4.2191  -15.3415 O   0  0  0  0  0  0  0  0  0  0  0  0
  2  1  1  1
  2  3  1  0
  2  5  1  0
  4  3  1  0
  5 11  1  0
  5  6  2  0
  8  7  1  6
  8 10  1  0
  8  9  1  0
 10 12  1  0
 10 11  1  6
 12 19  1  0
 13 12  2  0
 14 15  1  0
 15 16  2  0
 17 15  1  0
 18 20  1  0
 18 17  1  1
 19 18  1  0
 20 22  1  0
 21 20  2  0
M  END
$$$$
