CVN.pdb
     RDKit          3D

 22 21  0  0  1  0  0  0  0  0999 V2000
   27.5571  -21.2440  -10.0482 N   0  0  0  0  0  0  0  0  0  0  0  0
   26.1411  -21.0374  -10.2028 C   0  0  1  0  0  0  0  0  0  0  0  0
   25.6982  -20.0388   -9.1362 C   0  0  0  0  0  0  0  0  0  0  0  0
   24.6816  -20.8888   -7.8857 S   0  0  0  0  0  0  0  0  0  0  0  0
   25.7411  -20.5944  -11.5500 C   0  0  0  0  0  0  0  0  0  0  0  0
   26.2929  -19.5230  -11.9787 O   0  0  0  0  0  0  0  0  0  0  0  0
   26.2305  -21.9909  -14.8707 C   0  0  0  0  0  0  0  0  0  0  0  0
   24.7439  -21.7420  -14.7759 C   0  0  1  0  0  0  0  0  0  0  0  0
   24.0080  -23.0367  -14.5703 C   0  0  0  0  0  0  0  0  0  0  0  0
   24.4981  -20.7462  -13.6628 C   0  0  2  0  0  0  0  0  0  0  0  0
   24.8051  -21.2751  -12.3695 N   0  0  0  0  0  0  0  0  0  0  0  0
   23.1051  -20.2115  -13.7208 C   0  0  0  0  0  0  0  0  0  0  0  0
   22.1779  -20.7470  -13.0349 O   0  0  0  0  0  0  0  0  0  0  0  0
   19.3520  -16.1989  -16.4946 N   0  0  0  0  0  0  0  0  0  0  0  0
   20.0349  -16.6340  -15.3359 C   0  0  0  0  0  0  0  0  0  0  0  0
   19.4241  -16.4183  -14.2329 O   0  0  0  0  0  0  0  0  0  0  0  0
   21.3323  -17.2918  -15.2623 C   0  0  0  0  0  0  0  0  0  0  0  0
   21.3405  -18.6491  -14.6030 C   0  0  2  0  0  0  0  0  0  0  0  0
   22.7215  -19.1052  -14.5156 N   0  0  0  0  0  0  0  0  0  0  0  0
   20.4982  -19.5783  -15.3679 C   0  0  0  0  0  0  0  0  0  0  0  0
   20.8965  -20.1162  -16.4108 O   0  0  0  0  0  0  0  0  0  0  0  0
   19.2274  -19.8571  -14.9059 O   0  0  0  0  0  0  0  0  0  0  0  0
  2  1  1  6
  2  3  1  0
  2  5  1  0
  4  3  1  0
  5 11  1  0
  5  6  2  0
  8  7  1  1
  8 10  1  0
  8  9  1  0
 10 12  1  0
 10 11  1  1
 12 19  1  0
 13 12  2  0
 14 15  1  0
 15 16  2  0
 17 15  1  0
 18 20  1  0
 18 17  1  6
 19 18  1  0
 20 22  1  0
 21 20  2  0
M  END
$$$$
