CVN.pdb
     RDKit          3D

 22 21  0  0  1  0  0  0  0  0999 V2000
   38.5596   -9.8328  -13.6461 N   0  0  0  0  0  0  0  0  0  0  0  0
   37.2386   -9.2629  -13.6893 C   0  0  1  0  0  0  0  0  0  0  0  0
   37.3227   -7.8512  -13.1140 C   0  0  0  0  0  0  0  0  0  0  0  0
   37.6849   -7.9373  -11.3304 S   0  0  0  0  0  0  0  0  0  0  0  0
   36.6286   -9.2588  -15.0307 C   0  0  0  0  0  0  0  0  0  0  0  0
   37.4062   -8.9659  -16.0033 O   0  0  0  0  0  0  0  0  0  0  0  0
   32.3649   -9.5148  -17.1207 C   0  0  0  0  0  0  0  0  0  0  0  0
   33.6108  -10.3438  -16.9171 C   0  0  1  0  0  0  0  0  0  0  0  0
   33.8635  -11.2133  -18.1172 C   0  0  0  0  0  0  0  0  0  0  0  0
   34.7623   -9.4073  -16.6202 C   0  0  2  0  0  0  0  0  0  0  0  0
   35.2660   -9.5544  -15.2893 N   0  0  0  0  0  0  0  0  0  0  0  0
   34.3896   -7.9911  -16.9128 C   0  0  0  0  0  0  0  0  0  0  0  0
   34.1844   -7.6104  -18.1085 O   0  0  0  0  0  0  0  0  0  0  0  0
   32.9589   -2.8086  -16.4408 N   0  0  0  0  0  0  0  0  0  0  0  0
   32.1285   -3.9261  -16.1963 C   0  0  0  0  0  0  0  0  0  0  0  0
   30.8865   -3.6574  -16.0493 O   0  0  0  0  0  0  0  0  0  0  0  0
   32.5244   -5.3244  -16.0987 C   0  0  0  0  0  0  0  0  0  0  0  0
   34.0016   -5.5969  -16.2417 C   0  0  2  0  0  0  0  0  0  0  0  0
   34.2405   -6.9970  -15.9167 N   0  0  0  0  0  0  0  0  0  0  0  0
   34.7611   -4.6894  -15.3712 C   0  0  0  0  0  0  0  0  0  0  0  0
   35.0551   -4.9928  -14.2063 O   0  0  0  0  0  0  0  0  0  0  0  0
   35.1566   -3.4650  -15.8716 O   0  0  0  0  0  0  0  0  0  0  0  0
  2  1  1  6
  2  3  1  0
  2  5  1  0
  4  3  1  0
  5 11  1  0
  5  6  2  0
  8  7  1  6
  8 10  1  0
  8  9  1  0
 10 12  1  0
 10 11  1  1
 12 19  1  0
 13 12  2  0
 14 15  1  0
 15 16  2  0
 17 15  1  0
 18 20  1  0
 18 17  1  1
 19 18  1  0
 20 22  1  0
 21 20  2  0
M  END
$$$$
