CVN.pdb
     RDKit          3D

 22 21  0  0  1  0  0  0  0  0999 V2000
   28.5532  -22.1739  -17.9285 N   0  0  0  0  0  0  0  0  0  0  0  0
   28.8185  -23.0896  -16.8503 C   0  0  1  0  0  0  0  0  0  0  0  0
   27.4874  -23.7044  -16.4248 C   0  0  0  0  0  0  0  0  0  0  0  0
   26.6142  -22.5609  -15.3068 S   0  0  0  0  0  0  0  0  0  0  0  0
   29.8094  -24.1307  -17.1751 C   0  0  0  0  0  0  0  0  0  0  0  0
   29.7025  -24.6710  -18.3297 O   0  0  0  0  0  0  0  0  0  0  0  0
   32.8530  -25.5960  -14.5476 C   0  0  0  0  0  0  0  0  0  0  0  0
   33.1125  -25.4384  -16.0270 C   0  0  1  0  0  0  0  0  0  0  0  0
   34.1015  -26.4680  -16.4981 C   0  0  0  0  0  0  0  0  0  0  0  0
   31.7878  -25.5239  -16.7543 C   0  0  2  0  0  0  0  0  0  0  0  0
   30.8433  -24.5501  -16.2998 N   0  0  0  0  0  0  0  0  0  0  0  0
   31.2274  -26.9064  -16.6852 C   0  0  0  0  0  0  0  0  0  0  0  0
   30.3553  -27.2074  -15.8101 O   0  0  0  0  0  0  0  0  0  0  0  0
   27.8712  -30.8879  -17.0080 N   0  0  0  0  0  0  0  0  0  0  0  0
   28.7669  -30.3523  -17.9614 C   0  0  0  0  0  0  0  0  0  0  0  0
   28.9091  -31.0498  -19.0242 O   0  0  0  0  0  0  0  0  0  0  0  0
   29.5289  -29.1144  -17.8691 C   0  0  0  0  0  0  0  0  0  0  0  0
   30.9877  -29.2696  -17.5162 C   0  0  2  0  0  0  0  0  0  0  0  0
   31.6095  -27.9526  -17.5581 N   0  0  0  0  0  0  0  0  0  0  0  0
   31.6260  -30.2127  -18.4441 C   0  0  0  0  0  0  0  0  0  0  0  0
   31.9722  -29.8757  -19.5852 O   0  0  0  0  0  0  0  0  0  0  0  0
   31.8447  -31.5104  -18.0266 O   0  0  0  0  0  0  0  0  0  0  0  0
  2  1  1  6
  2  3  1  0
  2  5  1  0
  4  3  1  0
  5 11  1  0
  5  6  2  0
  8  7  1  1
  8 10  1  0
  8  9  1  0
 10 12  1  0
 10 11  1  1
 12 19  1  0
 13 12  2  0
 14 15  1  0
 15 16  2  0
 17 15  1  0
 18 20  1  0
 18 17  1  6
 19 18  1  0
 20 22  1  0
 21 20  2  0
M  END
$$$$
