CVN.pdb
     RDKit          3D

 22 21  0  0  1  0  0  0  0  0999 V2000
   25.0097  -15.5628  -16.0587 N   0  0  0  0  0  0  0  0  0  0  0  0
   24.4717  -14.4693  -16.8244 C   0  0  1  0  0  0  0  0  0  0  0  0
   23.0353  -14.8264  -17.1985 C   0  0  0  0  0  0  0  0  0  0  0  0
   23.0372  -16.2064  -18.3882 S   0  0  0  0  0  0  0  0  0  0  0  0
   24.5385  -13.1657  -16.1406 C   0  0  0  0  0  0  0  0  0  0  0  0
   24.0400  -13.1198  -14.9634 O   0  0  0  0  0  0  0  0  0  0  0  0
   27.4068  -11.1958  -15.1342 C   0  0  0  0  0  0  0  0  0  0  0  0
   26.5106  -10.1900  -15.8168 C   0  0  1  0  0  0  0  0  0  0  0  0
   27.0876   -9.7917  -17.1467 C   0  0  0  0  0  0  0  0  0  0  0  0
   25.1260  -10.7898  -15.9358 C   0  0  2  0  0  0  0  0  0  0  0  0
   25.1101  -11.9966  -16.7041 N   0  0  0  0  0  0  0  0  0  0  0  0
   24.1527   -9.7888  -16.4655 C   0  0  0  0  0  0  0  0  0  0  0  0
   23.9363   -9.6960  -17.7150 O   0  0  0  0  0  0  0  0  0  0  0  0
   19.8980   -6.7936  -17.2844 N   0  0  0  0  0  0  0  0  0  0  0  0
   20.1276   -8.1884  -17.2755 C   0  0  0  0  0  0  0  0  0  0  0  0
   19.1792   -8.8975  -17.7591 O   0  0  0  0  0  0  0  0  0  0  0  0
   21.3055   -8.8930  -16.7881 C   0  0  0  0  0  0  0  0  0  0  0  0
   22.3794   -8.0265  -16.1776 C   0  0  2  0  0  0  0  0  0  0  0  0
   23.4203   -8.8969  -15.6465 N   0  0  0  0  0  0  0  0  0  0  0  0
   21.7944   -7.1668  -15.1400 C   0  0  0  0  0  0  0  0  0  0  0  0
   22.0824   -7.2978  -13.9419 O   0  0  0  0  0  0  0  0  0  0  0  0
   20.8992   -6.1857  -15.5170 O   0  0  0  0  0  0  0  0  0  0  0  0
  2  1  1  1
  2  3  1  0
  2  5  1  0
  4  3  1  0
  5 11  1  0
  5  6  2  0
  8  7  1  6
  8 10  1  0
  8  9  1  0
 10 12  1  0
 10 11  1  6
 12 19  1  0
 13 12  2  0
 14 15  1  0
 15 16  2  0
 17 15  1  0
 18 20  1  0
 18 17  1  1
 19 18  1  0
 20 22  1  0
 21 20  2  0
M  END
$$$$
