CVN.pdb
     RDKit          3D

 22 21  0  0  1  0  0  0  0  0999 V2000
   25.2862  -21.5508  -14.4408 N   0  0  0  0  0  0  0  0  0  0  0  0
   23.8952  -21.2934  -14.7057 C   0  0  1  0  0  0  0  0  0  0  0  0
   23.4983  -22.1063  -15.9356 C   0  0  0  0  0  0  0  0  0  0  0  0
   21.7337  -21.8398  -16.3028 S   0  0  0  0  0  0  0  0  0  0  0  0
   23.0035  -21.5755  -13.5670 C   0  0  0  0  0  0  0  0  0  0  0  0
   23.2544  -22.6404  -12.9041 O   0  0  0  0  0  0  0  0  0  0  0  0
   22.0297  -19.5629  -10.4904 C   0  0  0  0  0  0  0  0  0  0  0  0
   20.7514  -20.0239  -11.1494 C   0  0  1  0  0  0  0  0  0  0  0  0
   20.0754  -18.8742  -11.8432 C   0  0  0  0  0  0  0  0  0  0  0  0
   21.0847  -21.1612  -12.0910 C   0  0  2  0  0  0  0  0  0  0  0  0
   21.9159  -20.7514  -13.1810 N   0  0  0  0  0  0  0  0  0  0  0  0
   19.8441  -21.8395  -12.5714 C   0  0  0  0  0  0  0  0  0  0  0  0
   19.5638  -21.8721  -13.8112 O   0  0  0  0  0  0  0  0  0  0  0  0
   15.1498  -24.5969  -12.6326 N   0  0  0  0  0  0  0  0  0  0  0  0
   15.8409  -24.5874  -11.3996 C   0  0  0  0  0  0  0  0  0  0  0  0
   15.2957  -25.2719  -10.4666 O   0  0  0  0  0  0  0  0  0  0  0  0
   17.0846  -23.8990  -11.0821 C   0  0  0  0  0  0  0  0  0  0  0  0
   17.7044  -23.1146  -12.2123 C   0  0  2  0  0  0  0  0  0  0  0  0
   18.9162  -22.4773  -11.7140 N   0  0  0  0  0  0  0  0  0  0  0  0
   16.7369  -22.1368  -12.7279 C   0  0  0  0  0  0  0  0  0  0  0  0
   16.4799  -21.0873  -12.1213 O   0  0  0  0  0  0  0  0  0  0  0  0
   16.0995  -22.4001  -13.9240 O   0  0  0  0  0  0  0  0  0  0  0  0
  2  1  1  1
  2  3  1  0
  2  5  1  0
  4  3  1  0
  5 11  1  0
  5  6  2  0
  8  7  1  6
  8 10  1  0
  8  9  1  0
 10 12  1  0
 10 11  1  6
 12 19  1  0
 13 12  2  0
 14 15  1  0
 15 16  2  0
 17 15  1  0
 18 20  1  0
 18 17  1  1
 19 18  1  0
 20 22  1  0
 21 20  2  0
M  END
$$$$
