LKG.pdb
     RDKit          3D

 22 21  0  0  1  0  0  0  0  0999 V2000
    7.7214  -12.4507   27.5913 C   0  0  0  0  0  0  0  0  0  0  0  0
    6.8164  -12.6513   26.4023 C   0  0  2  0  0  0  0  0  0  0  0  0
    5.6541  -11.6801   26.4371 C   0  0  0  0  0  0  0  0  0  0  0  0
    6.2802  -14.0476   26.3256 C   0  0  0  0  0  0  0  0  0  0  0  0
    7.3244  -15.0865   26.0346 C   0  0  2  0  0  0  0  0  0  0  0  0
    8.6359  -14.6474   26.4226 N   0  0  0  0  0  0  0  0  0  0  0  0
    7.2774  -15.3376   24.5527 C   0  0  0  0  0  0  0  0  0  0  0  0
    6.2844  -15.8826   24.0105 O   0  0  0  0  0  0  0  0  0  0  0  0
    8.3546  -14.9687   23.7043 N   0  0  0  0  0  0  0  0  0  0  0  0
    8.4628  -15.5090   22.3531 C   0  0  1  0  0  0  0  0  0  0  0  0
    8.2106  -14.4006   21.3986 C   0  0  0  0  0  0  0  0  0  0  0  0
    8.1337  -14.7762   19.9622 C   0  0  0  0  0  0  0  0  0  0  0  0
    8.1945  -13.4789   19.1567 C   0  0  0  0  0  0  0  0  0  0  0  0
    8.1225  -13.7569   17.6744 C   0  0  0  0  0  0  0  0  0  0  0  0
    8.1694  -12.4951   16.9665 N   0  0  0  0  0  0  0  0  0  0  0  0
    9.7092  -16.2373   22.2070 C   0  0  0  0  0  0  0  0  0  0  0  0
   10.7509  -15.8490   22.7742 O   0  0  0  0  0  0  0  0  0  0  0  0
    9.7656  -17.4080   21.4144 N   0  0  0  0  0  0  0  0  0  0  0  0
   10.8822  -18.3132   21.4305 C   0  0  0  0  0  0  0  0  0  0  0  0
   11.7916  -17.9728   20.3168 C   0  0  0  0  0  0  0  0  0  0  0  0
   11.5204  -16.8949   19.5072 O   0  0  0  0  0  0  0  0  0  0  0  0
   12.8156  -18.6698   20.1083 O   0  0  0  0  0  0  0  0  0  0  0  0
  2  1  1  1
  2  4  1  0
  2  3  1  0
  5  7  1  0
  5  4  1  0
  5  6  1  6
  7  8  2  0
  9 10  1  0
  9  7  1  0
 11 12  1  0
 10 11  1  6
 12 13  1  0
 13 14  1  0
 14 15  1  0
 16 18  1  0
 16 10  1  0
 17 16  2  0
 19 20  1  0
 19 18  1  0
 20 21  1  0
 22 20  2  0
M  END
$$$$
