LKG.pdb
     RDKit          3D

 22 21  0  0  1  0  0  0  0  0999 V2000
    7.5208  -12.3549   27.5137 C   0  0  0  0  0  0  0  0  0  0  0  0
    6.8274  -12.6063   26.1987 C   0  0  2  0  0  0  0  0  0  0  0  0
    5.6582  -11.6606   26.0140 C   0  0  0  0  0  0  0  0  0  0  0  0
    6.3359  -14.0158   26.0760 C   0  0  0  0  0  0  0  0  0  0  0  0
    7.4283  -15.0457   26.0893 C   0  0  2  0  0  0  0  0  0  0  0  0
    8.6754  -14.4942   26.5407 N   0  0  0  0  0  0  0  0  0  0  0  0
    7.5620  -15.5464   24.6777 C   0  0  0  0  0  0  0  0  0  0  0  0
    6.6238  -16.1541   24.1051 O   0  0  0  0  0  0  0  0  0  0  0  0
    8.7552  -15.3529   23.9328 N   0  0  0  0  0  0  0  0  0  0  0  0
    8.9537  -16.0189   22.6496 C   0  0  1  0  0  0  0  0  0  0  0  0
    9.0457  -14.9708   21.6027 C   0  0  0  0  0  0  0  0  0  0  0  0
    7.7568  -14.3990   21.1315 C   0  0  0  0  0  0  0  0  0  0  0  0
    8.0581  -13.6027   19.8624 C   0  0  0  0  0  0  0  0  0  0  0  0
    6.8107  -12.9394   19.3293 C   0  0  0  0  0  0  0  0  0  0  0  0
    7.1650  -12.1670   18.1574 N   0  0  0  0  0  0  0  0  0  0  0  0
   10.0543  -16.9598   22.7426 C   0  0  0  0  0  0  0  0  0  0  0  0
   10.3648  -17.6835   21.7743 O   0  0  0  0  0  0  0  0  0  0  0  0
   10.7997  -17.0736   23.9398 N   0  0  0  0  0  0  0  0  0  0  0  0
   11.8394  -18.0485   24.1268 C   0  0  0  0  0  0  0  0  0  0  0  0
   13.0941  -17.5294   23.5443 C   0  0  0  0  0  0  0  0  0  0  0  0
   13.0859  -16.3690   22.8064 O   0  0  0  0  0  0  0  0  0  0  0  0
   14.1719  -18.1493   23.7232 O   0  0  0  0  0  0  0  0  0  0  0  0
  2  1  1  1
  2  4  1  0
  2  3  1  0
  5  7  1  0
  5  4  1  0
  5  6  1  6
  7  8  2  0
  9 10  1  0
  9  7  1  0
 11 12  1  0
 10 11  1  6
 12 13  1  0
 13 14  1  0
 14 15  1  0
 16 18  1  0
 16 10  1  0
 17 16  2  0
 19 20  1  0
 19 18  1  0
 20 21  1  0
 22 20  2  0
M  END
$$$$
