LKG.pdb
     RDKit          3D

 22 21  0  0  1  0  0  0  0  0999 V2000
    7.9565  -12.7194   27.4906 C   0  0  0  0  0  0  0  0  0  0  0  0
    6.9643  -12.8583   26.3639 C   0  0  2  0  0  0  0  0  0  0  0  0
    5.8661  -11.8209   26.4791 C   0  0  0  0  0  0  0  0  0  0  0  0
    6.3429  -14.2202   26.3187 C   0  0  0  0  0  0  0  0  0  0  0  0
    7.3033  -15.3169   25.9593 C   0  0  2  0  0  0  0  0  0  0  0  0
    8.6100  -15.0821   26.5076 N   0  0  0  0  0  0  0  0  0  0  0  0
    7.3687  -15.3537   24.4574 C   0  0  0  0  0  0  0  0  0  0  0  0
    6.3734  -15.6810   23.7648 O   0  0  0  0  0  0  0  0  0  0  0  0
    8.5592  -15.0197   23.7593 N   0  0  0  0  0  0  0  0  0  0  0  0
    8.6514  -15.1874   22.3126 C   0  0  1  0  0  0  0  0  0  0  0  0
    8.6192  -13.8379   21.6954 C   0  0  0  0  0  0  0  0  0  0  0  0
    7.6111  -13.6310   20.6225 C   0  0  0  0  0  0  0  0  0  0  0  0
    8.3815  -13.4140   19.3206 C   0  0  0  0  0  0  0  0  0  0  0  0
    7.4384  -13.1795   18.1649 C   0  0  0  0  0  0  0  0  0  0  0  0
    8.2227  -12.9299   16.9741 N   0  0  0  0  0  0  0  0  0  0  0  0
    9.7780  -16.0398   21.9815 C   0  0  0  0  0  0  0  0  0  0  0  0
   10.0926  -16.2568   20.7934 O   0  0  0  0  0  0  0  0  0  0  0  0
   10.5446  -16.6431   23.0062 N   0  0  0  0  0  0  0  0  0  0  0  0
   11.6578  -17.5140   22.7437 C   0  0  0  0  0  0  0  0  0  0  0  0
   12.2243  -17.9694   24.0301 C   0  0  0  0  0  0  0  0  0  0  0  0
   13.4261  -18.6371   24.0590 O   0  0  0  0  0  0  0  0  0  0  0  0
   11.6068  -17.7462   25.1010 O   0  0  0  0  0  0  0  0  0  0  0  0
  2  1  1  1
  2  4  1  0
  2  3  1  0
  5  7  1  0
  5  4  1  0
  5  6  1  1
  7  8  2  0
  9 10  1  0
  9  7  1  0
 11 12  1  0
 10 11  1  6
 12 13  1  0
 13 14  1  0
 14 15  1  0
 16 18  1  0
 16 10  1  0
 17 16  2  0
 19 20  1  0
 19 18  1  0
 20 21  1  0
 22 20  2  0
M  END
$$$$
