LKG.pdb
     RDKit          3D

 22 21  0  0  1  0  0  0  0  0999 V2000
    5.6737  -12.7046   26.0071 C   0  0  0  0  0  0  0  0  0  0  0  0
    6.5802  -13.1769   27.1153 C   0  0  2  0  0  0  0  0  0  0  0  0
    7.4830  -12.0568   27.5903 C   0  0  0  0  0  0  0  0  0  0  0  0
    7.4272  -14.3401   26.6997 C   0  0  0  0  0  0  0  0  0  0  0  0
    6.6700  -15.4200   25.9822 C   0  0  2  0  0  0  0  0  0  0  0  0
    6.3849  -16.5336   26.8437 N   0  0  0  0  0  0  0  0  0  0  0  0
    7.5358  -15.8595   24.8339 C   0  0  0  0  0  0  0  0  0  0  0  0
    8.4222  -16.7373   24.9786 O   0  0  0  0  0  0  0  0  0  0  0  0
    7.3871  -15.2998   23.5374 N   0  0  0  0  0  0  0  0  0  0  0  0
    8.2970  -15.6629   22.4559 C   0  0  1  0  0  0  0  0  0  0  0  0
    7.7795  -15.0569   21.2036 C   0  0  0  0  0  0  0  0  0  0  0  0
    8.5329  -15.3731   19.9615 C   0  0  0  0  0  0  0  0  0  0  0  0
    8.0895  -16.7646   19.5114 C   0  0  0  0  0  0  0  0  0  0  0  0
    8.7473  -17.1480   18.2074 C   0  0  0  0  0  0  0  0  0  0  0  0
    8.3597  -18.5031   17.8773 N   0  0  0  0  0  0  0  0  0  0  0  0
    9.6634  -15.3471   22.8284 C   0  0  0  0  0  0  0  0  0  0  0  0
    9.9314  -14.3115   23.4712 O   0  0  0  0  0  0  0  0  0  0  0  0
   10.7221  -16.2135   22.4675 N   0  0  0  0  0  0  0  0  0  0  0  0
   12.1079  -15.8747   22.6446 C   0  0  0  0  0  0  0  0  0  0  0  0
   12.9402  -17.0117   22.1998 C   0  0  0  0  0  0  0  0  0  0  0  0
   12.3481  -18.1560   21.7192 O   0  0  0  0  0  0  0  0  0  0  0  0
   14.1924  -16.9334   22.2606 O   0  0  0  0  0  0  0  0  0  0  0  0
  2  1  1  6
  2  4  1  0
  2  3  1  0
  5  7  1  0
  5  4  1  0
  5  6  1  1
  7  8  2  0
  9 10  1  0
  9  7  1  0
 11 12  1  0
 10 11  1  6
 12 13  1  0
 13 14  1  0
 14 15  1  0
 16 18  1  0
 16 10  1  0
 17 16  2  0
 19 20  1  0
 19 18  1  0
 20 21  1  0
 22 20  2  0
M  END
$$$$
