LKG.pdb
     RDKit          3D

 22 21  0  0  1  0  0  0  0  0999 V2000
    7.5818  -14.0958   18.6552 C   0  0  0  0  0  0  0  0  0  0  0  0
    7.4860  -13.4098   19.9943 C   0  0  2  0  0  0  0  0  0  0  0  0
    7.9336  -11.9657   19.8957 C   0  0  0  0  0  0  0  0  0  0  0  0
    8.2998  -14.0996   21.0455 C   0  0  0  0  0  0  0  0  0  0  0  0
    7.9020  -15.5275   21.2850 C   0  0  2  0  0  0  0  0  0  0  0  0
    6.5739  -15.6278   21.8230 N   0  0  0  0  0  0  0  0  0  0  0  0
    8.9006  -16.0930   22.2568 C   0  0  0  0  0  0  0  0  0  0  0  0
    8.8287  -15.8512   23.4871 O   0  0  0  0  0  0  0  0  0  0  0  0
    9.9671  -16.9243   21.8236 N   0  0  0  0  0  0  0  0  0  0  0  0
   10.9606  -17.4221   22.7694 C   0  0  1  0  0  0  0  0  0  0  0  0
   10.9295  -18.9053   22.7231 C   0  0  0  0  0  0  0  0  0  0  0  0
    9.7150  -19.5540   23.2837 C   0  0  0  0  0  0  0  0  0  0  0  0
    9.8248  -21.0477   22.9794 C   0  0  0  0  0  0  0  0  0  0  0  0
    8.5650  -21.7770   23.3806 C   0  0  0  0  0  0  0  0  0  0  0  0
    8.7222  -23.1793   23.0575 N   0  0  0  0  0  0  0  0  0  0  0  0
   12.2395  -16.7793   22.5316 C   0  0  0  0  0  0  0  0  0  0  0  0
   12.8823  -16.9948   21.4837 O   0  0  0  0  0  0  0  0  0  0  0  0
   12.7833  -15.8911   23.4893 N   0  0  0  0  0  0  0  0  0  0  0  0
   13.8248  -16.2675   24.4059 C   0  0  0  0  0  0  0  0  0  0  0  0
   15.1118  -16.3033   23.6810 C   0  0  0  0  0  0  0  0  0  0  0  0
   15.9357  -15.2023   23.6795 O   0  0  0  0  0  0  0  0  0  0  0  0
   15.4550  -17.3423   23.0641 O   0  0  0  0  0  0  0  0  0  0  0  0
  2  1  1  6
  2  4  1  0
  2  3  1  0
  5  7  1  0
  5  4  1  0
  5  6  1  1
  7  8  2  0
  9 10  1  0
  9  7  1  0
 11 12  1  0
 10 11  1  6
 12 13  1  0
 13 14  1  0
 14 15  1  0
 16 18  1  0
 16 10  1  0
 17 16  2  0
 19 20  1  0
 19 18  1  0
 20 21  1  0
 22 20  2  0
M  END
$$$$
