LKG.pdb
     RDKit          3D

 22 21  0  0  1  0  0  0  0  0999 V2000
    7.9305  -12.3583   27.3969 C   0  0  0  0  0  0  0  0  0  0  0  0
    6.8711  -12.5859   26.3486 C   0  0  2  0  0  0  0  0  0  0  0  0
    5.7554  -11.5691   26.4771 C   0  0  0  0  0  0  0  0  0  0  0  0
    6.2848  -13.9621   26.4228 C   0  0  0  0  0  0  0  0  0  0  0  0
    7.2804  -15.0622   26.1930 C   0  0  2  0  0  0  0  0  0  0  0  0
    8.5969  -14.6896   26.6306 N   0  0  0  0  0  0  0  0  0  0  0  0
    7.2822  -15.3362   24.7144 C   0  0  0  0  0  0  0  0  0  0  0  0
    6.3378  -15.9505   24.1595 O   0  0  0  0  0  0  0  0  0  0  0  0
    8.3525  -14.9115   23.8835 N   0  0  0  0  0  0  0  0  0  0  0  0
    8.5306  -15.4701   22.5472 C   0  0  1  0  0  0  0  0  0  0  0  0
    8.2308  -14.3999   21.5634 C   0  0  0  0  0  0  0  0  0  0  0  0
    8.3161  -14.7839   20.1297 C   0  0  0  0  0  0  0  0  0  0  0  0
    8.0582  -13.5189   19.3117 C   0  0  0  0  0  0  0  0  0  0  0  0
    8.0859  -13.8153   17.8314 C   0  0  0  0  0  0  0  0  0  0  0  0
    7.8651  -12.5796   17.1104 N   0  0  0  0  0  0  0  0  0  0  0  0
    9.8254  -16.1171   22.4471 C   0  0  0  0  0  0  0  0  0  0  0  0
   10.7823  -15.7543   23.1615 O   0  0  0  0  0  0  0  0  0  0  0  0
   10.0269  -17.1776   21.5324 N   0  0  0  0  0  0  0  0  0  0  0  0
   11.3130  -17.7740   21.2938 C   0  0  0  0  0  0  0  0  0  0  0  0
   11.1499  -18.9087   20.3616 C   0  0  0  0  0  0  0  0  0  0  0  0
   12.2453  -19.6363   19.9594 O   0  0  0  0  0  0  0  0  0  0  0  0
   10.0076  -19.2103   19.9350 O   0  0  0  0  0  0  0  0  0  0  0  0
  2  1  1  1
  2  4  1  0
  2  3  1  0
  5  7  1  0
  5  4  1  0
  5  6  1  6
  7  8  2  0
  9 10  1  0
  9  7  1  0
 11 12  1  0
 10 11  1  6
 12 13  1  0
 13 14  1  0
 14 15  1  0
 16 18  1  0
 16 10  1  0
 17 16  2  0
 19 20  1  0
 19 18  1  0
 20 21  1  0
 22 20  2  0
M  END
$$$$
