LKG.pdb
     RDKit          3D

 22 21  0  0  1  0  0  0  0  0999 V2000
   10.1274  -14.7230   30.3246 C   0  0  0  0  0  0  0  0  0  0  0  0
   10.4592  -14.4784   28.8744 C   0  0  2  0  0  0  0  0  0  0  0  0
    9.2925  -13.8349   28.1534 C   0  0  0  0  0  0  0  0  0  0  0  0
   10.8378  -15.7380   28.1579 C   0  0  0  0  0  0  0  0  0  0  0  0
    9.7014  -16.7030   27.9796 C   0  0  2  0  0  0  0  0  0  0  0  0
    9.8393  -17.8520   28.8306 N   0  0  0  0  0  0  0  0  0  0  0  0
    9.7173  -17.1210   26.5352 C   0  0  0  0  0  0  0  0  0  0  0  0
   10.5135  -17.9961   26.1138 O   0  0  0  0  0  0  0  0  0  0  0  0
    8.8321  -16.5435   25.5870 N   0  0  0  0  0  0  0  0  0  0  0  0
    8.9401  -16.8660   24.1679 C   0  0  1  0  0  0  0  0  0  0  0  0
    7.5953  -16.7039   23.5611 C   0  0  0  0  0  0  0  0  0  0  0  0
    6.5459  -17.6470   24.0298 C   0  0  0  0  0  0  0  0  0  0  0  0
    6.6890  -18.9232   23.2012 C   0  0  0  0  0  0  0  0  0  0  0  0
    5.6248  -19.9298   23.5674 C   0  0  0  0  0  0  0  0  0  0  0  0
    5.8172  -21.1169   22.7616 N   0  0  0  0  0  0  0  0  0  0  0  0
   10.0305  -16.1186   23.5696 C   0  0  0  0  0  0  0  0  0  0  0  0
   10.2663  -14.9415   23.9108 O   0  0  0  0  0  0  0  0  0  0  0  0
   10.8508  -16.7153   22.5832 N   0  0  0  0  0  0  0  0  0  0  0  0
   11.8210  -15.9790   21.8196 C   0  0  0  0  0  0  0  0  0  0  0  0
   13.1659  -16.2415   22.3724 C   0  0  0  0  0  0  0  0  0  0  0  0
   14.2856  -16.0016   21.6111 O   0  0  0  0  0  0  0  0  0  0  0  0
   13.2875  -16.6851   23.5413 O   0  0  0  0  0  0  0  0  0  0  0  0
  2  1  1  1
  2  4  1  0
  2  3  1  0
  5  7  1  0
  5  4  1  0
  5  6  1  1
  7  8  2  0
  9 10  1  0
  9  7  1  0
 11 12  1  0
 10 11  1  6
 12 13  1  0
 13 14  1  0
 14 15  1  0
 16 18  1  0
 16 10  1  0
 17 16  2  0
 19 20  1  0
 19 18  1  0
 20 21  1  0
 22 20  2  0
M  END
$$$$
