LKG.pdb
     RDKit          3D

 22 21  0  0  1  0  0  0  0  0999 V2000
    5.6981  -12.8181   26.3346 C   0  0  0  0  0  0  0  0  0  0  0  0
    6.7834  -13.5186   27.1121 C   0  0  2  0  0  0  0  0  0  0  0  0
    7.7736  -12.5211   27.6777 C   0  0  0  0  0  0  0  0  0  0  0  0
    7.5240  -14.5188   26.2788 C   0  0  0  0  0  0  0  0  0  0  0  0
    6.6341  -15.4089   25.4603 C   0  0  2  0  0  0  0  0  0  0  0  0
    6.3884  -16.6640   26.1144 N   0  0  0  0  0  0  0  0  0  0  0  0
    7.3401  -15.6340   24.1519 C   0  0  0  0  0  0  0  0  0  0  0  0
    8.0853  -16.6286   23.9708 O   0  0  0  0  0  0  0  0  0  0  0  0
    7.1936  -14.7310   23.0659 N   0  0  0  0  0  0  0  0  0  0  0  0
    8.0101  -14.8659   21.8640 C   0  0  1  0  0  0  0  0  0  0  0  0
    7.6260  -13.7790   20.9290 C   0  0  0  0  0  0  0  0  0  0  0  0
    8.4934  -13.6041   19.7343 C   0  0  0  0  0  0  0  0  0  0  0  0
    7.6459  -13.9530   18.5113 C   0  0  0  0  0  0  0  0  0  0  0  0
    8.4557  -13.8445   17.2415 C   0  0  0  0  0  0  0  0  0  0  0  0
    7.5778  -14.0777   16.1143 N   0  0  0  0  0  0  0  0  0  0  0  0
    9.4124  -14.9644   22.2239 C   0  0  0  0  0  0  0  0  0  0  0  0
    9.9030  -14.2295   23.1053 O   0  0  0  0  0  0  0  0  0  0  0  0
   10.2530  -15.9015   21.5781 N   0  0  0  0  0  0  0  0  0  0  0  0
   11.6808  -15.9194   21.7439 C   0  0  0  0  0  0  0  0  0  0  0  0
   12.2454  -17.0104   20.9230 C   0  0  0  0  0  0  0  0  0  0  0  0
   13.6037  -17.2231   20.8950 O   0  0  0  0  0  0  0  0  0  0  0  0
   11.4830  -17.7463   20.2484 O   0  0  0  0  0  0  0  0  0  0  0  0
  2  1  1  6
  2  4  1  0
  2  3  1  0
  5  7  1  0
  5  4  1  0
  5  6  1  1
  7  8  2  0
  9 10  1  0
  9  7  1  0
 11 12  1  0
 10 11  1  6
 12 13  1  0
 13 14  1  0
 14 15  1  0
 16 18  1  0
 16 10  1  0
 17 16  2  0
 19 20  1  0
 19 18  1  0
 20 21  1  0
 22 20  2  0
M  END
$$$$
