FCQ.pdb
     RDKit          3D

 27 27  0  0  1  0  0  0  0  0999 V2000
    6.2732  -16.4616   21.9356 N   0  0  0  0  0  0  0  0  0  0  0  0
    7.6898  -16.6372   21.9875 C   0  0  1  0  0  0  0  0  0  0  0  0
    8.3870  -16.3246   20.6810 C   0  0  0  0  0  0  0  0  0  0  0  0
    8.1030  -14.8990   20.3582 C   0  0  0  0  0  0  0  0  0  0  0  0
    7.3901  -14.1301   21.2574 C   0  0  0  0  0  0  0  0  0  0  0  0
    7.0932  -12.8094   21.0233 C   0  0  0  0  0  0  0  0  0  0  0  0
    7.5317  -12.2465   19.8401 C   0  0  0  0  0  0  0  0  0  0  0  0
    8.2532  -12.9888   18.9083 C   0  0  0  0  0  0  0  0  0  0  0  0
    8.5253  -14.3105   19.1905 C   0  0  0  0  0  0  0  0  0  0  0  0
    8.3441  -15.8316   23.0483 C   0  0  0  0  0  0  0  0  0  0  0  0
    9.5861  -15.6395   22.9259 O   0  0  0  0  0  0  0  0  0  0  0  0
    7.6224  -15.3003   24.1464 N   0  0  0  0  0  0  0  0  0  0  0  0
    8.3957  -14.6704   25.2137 C   0  0  1  0  0  0  0  0  0  0  0  0
    7.3717  -13.8539   26.0031 C   0  0  0  0  0  0  0  0  0  0  0  0
    8.2010  -12.9074   27.2851 S   0  0  0  0  0  0  0  0  0  0  0  0
    8.9820  -15.6797   26.1093 C   0  0  0  0  0  0  0  0  0  0  0  0
    8.3732  -16.7966   26.2330 O   0  0  0  0  0  0  0  0  0  0  0  0
   12.1907  -19.6403   25.1305 N   0  0  0  0  0  0  0  0  0  0  0  0
   12.7190  -19.5225   26.4328 C   0  0  0  0  0  0  0  0  0  0  0  0
   13.3669  -20.5254   26.8927 O   0  0  0  0  0  0  0  0  0  0  0  0
   12.5877  -18.3480   27.2840 C   0  0  0  0  0  0  0  0  0  0  0  0
   11.7864  -17.2153   26.8059 C   0  0  0  0  0  0  0  0  0  0  0  0
   10.7377  -16.6207   27.6570 C   0  0  2  0  0  0  0  0  0  0  0  0
   10.1662  -15.5104   26.8405 N   0  0  0  0  0  0  0  0  0  0  0  0
   11.2037  -16.1533   28.9526 C   0  0  0  0  0  0  0  0  0  0  0  0
   11.3656  -14.9168   29.1422 O   0  0  0  0  0  0  0  0  0  0  0  0
   11.4679  -17.0128   29.9835 O   0  0  0  0  0  0  0  0  0  0  0  0
  2  1  1  6
  3  2  1  0
  4  3  1  0
  5  4  2  0
  6  5  1  0
  7  6  2  0
  7  8  1  0
  8  9  2  0
  9  4  1  0
 10  2  1  0
 10 11  2  0
 12 10  1  0
 13 12  1  0
 13 14  1  1
 14 15  1  0
 16 13  1  0
 17 16  2  0
 19 18  1  0
 19 21  1  0
 20 19  2  0
 22 21  1  0
 23 22  1  6
 23 24  1  0
 24 16  1  0
 25 23  1  0
 26 25  2  0
 27 25  1  0
M  END
$$$$
