FCQ.pdb
     RDKit          3D

 27 27  0  0  1  0  0  0  0  0999 V2000
    7.4337  -14.6710   20.5411 N   0  0  0  0  0  0  0  0  0  0  0  0
    7.0690  -15.3325   21.7533 C   0  0  1  0  0  0  0  0  0  0  0  0
    7.1811  -16.8400   21.6778 C   0  0  0  0  0  0  0  0  0  0  0  0
    6.8742  -17.3748   23.0331 C   0  0  0  0  0  0  0  0  0  0  0  0
    7.8123  -18.1537   23.6822 C   0  0  0  0  0  0  0  0  0  0  0  0
    7.5948  -18.6788   24.9328 C   0  0  0  0  0  0  0  0  0  0  0  0
    6.3880  -18.4074   25.5487 C   0  0  0  0  0  0  0  0  0  0  0  0
    5.4169  -17.6264   24.9270 C   0  0  0  0  0  0  0  0  0  0  0  0
    5.6838  -17.1228   23.6717 C   0  0  0  0  0  0  0  0  0  0  0  0
    7.8560  -14.8833   22.9286 C   0  0  0  0  0  0  0  0  0  0  0  0
    9.1123  -14.9639   22.8309 O   0  0  0  0  0  0  0  0  0  0  0  0
    7.2400  -14.3876   24.1050 N   0  0  0  0  0  0  0  0  0  0  0  0
    8.1160  -13.8539   25.1451 C   0  0  1  0  0  0  0  0  0  0  0  0
    7.2326  -12.8893   25.9373 C   0  0  0  0  0  0  0  0  0  0  0  0
    8.1114  -12.3101   27.3931 S   0  0  0  0  0  0  0  0  0  0  0  0
    8.5750  -14.9200   26.0493 C   0  0  0  0  0  0  0  0  0  0  0  0
    7.6926  -15.6810   26.5744 O   0  0  0  0  0  0  0  0  0  0  0  0
   12.3053  -19.5557   25.1382 N   0  0  0  0  0  0  0  0  0  0  0  0
   12.3284  -18.2184   24.6912 C   0  0  0  0  0  0  0  0  0  0  0  0
   13.1466  -17.9316   23.7502 O   0  0  0  0  0  0  0  0  0  0  0  0
   11.4897  -17.1487   25.2142 C   0  0  0  0  0  0  0  0  0  0  0  0
   11.4584  -16.9203   26.6635 C   0  0  0  0  0  0  0  0  0  0  0  0
   10.2920  -16.2793   27.3011 C   0  0  2  0  0  0  0  0  0  0  0  0
    9.9147  -15.1684   26.3793 N   0  0  0  0  0  0  0  0  0  0  0  0
   10.5293  -15.8013   28.6536 C   0  0  0  0  0  0  0  0  0  0  0  0
   10.8063  -16.6306   29.5628 O   0  0  0  0  0  0  0  0  0  0  0  0
   10.4697  -14.4733   28.9763 O   0  0  0  0  0  0  0  0  0  0  0  0
  2  1  1  6
  3  2  1  0
  4  3  1  0
  5  4  2  0
  6  5  1  0
  7  6  2  0
  7  8  1  0
  8  9  2  0
  9  4  1  0
 10  2  1  0
 10 11  2  0
 12 10  1  0
 13 12  1  0
 13 14  1  1
 14 15  1  0
 16 13  1  0
 17 16  2  0
 19 18  1  0
 19 21  1  0
 20 19  2  0
 22 21  1  0
 23 22  1  6
 23 24  1  0
 24 16  1  0
 25 23  1  0
 26 25  2  0
 27 25  1  0
M  END
$$$$
