FCQ.pdb
     RDKit          3D

 27 27  0  0  1  0  0  0  0  0999 V2000
    6.4008  -16.5699   26.3697 N   0  0  0  0  0  0  0  0  0  0  0  0
    6.4162  -16.4558   24.9460 C   0  0  1  0  0  0  0  0  0  0  0  0
    5.7152  -15.2175   24.4301 C   0  0  0  0  0  0  0  0  0  0  0  0
    6.2938  -14.0495   25.1499 C   0  0  0  0  0  0  0  0  0  0  0  0
    5.5028  -13.3367   26.0298 C   0  0  0  0  0  0  0  0  0  0  0  0
    5.9720  -12.2497   26.7265 C   0  0  0  0  0  0  0  0  0  0  0  0
    7.2856  -11.8700   26.5271 C   0  0  0  0  0  0  0  0  0  0  0  0
    8.1146  -12.5630   25.6485 C   0  0  0  0  0  0  0  0  0  0  0  0
    7.5958  -13.6472   24.9733 C   0  0  0  0  0  0  0  0  0  0  0  0
    7.7835  -16.4694   24.3693 C   0  0  0  0  0  0  0  0  0  0  0  0
    8.7072  -16.8966   25.1168 O   0  0  0  0  0  0  0  0  0  0  0  0
    8.0506  -16.0282   23.0490 N   0  0  0  0  0  0  0  0  0  0  0  0
    9.3208  -16.4333   22.4521 C   0  0  1  0  0  0  0  0  0  0  0  0
    9.2816  -15.8617   21.0343 C   0  0  0  0  0  0  0  0  0  0  0  0
   10.7813  -16.3095   20.1524 S   0  0  0  0  0  0  0  0  0  0  0  0
   10.4576  -15.8339   23.1684 C   0  0  0  0  0  0  0  0  0  0  0  0
   10.3425  -14.6262   23.5705 O   0  0  0  0  0  0  0  0  0  0  0  0
   11.9374  -17.3751   29.3533 N   0  0  0  0  0  0  0  0  0  0  0  0
   11.5285  -16.5339   28.2978 C   0  0  0  0  0  0  0  0  0  0  0  0
   10.3602  -16.0187   28.3813 O   0  0  0  0  0  0  0  0  0  0  0  0
   12.3359  -16.2056   27.1310 C   0  0  0  0  0  0  0  0  0  0  0  0
   11.7532  -16.3837   25.7960 C   0  0  0  0  0  0  0  0  0  0  0  0
   12.5326  -16.0650   24.5841 C   0  0  2  0  0  0  0  0  0  0  0  0
   11.6643  -16.4907   23.4479 N   0  0  0  0  0  0  0  0  0  0  0  0
   13.8432  -16.6919   24.5261 C   0  0  0  0  0  0  0  0  0  0  0  0
   13.9931  -17.7506   23.8570 O   0  0  0  0  0  0  0  0  0  0  0  0
   14.9295  -16.1666   25.1704 O   0  0  0  0  0  0  0  0  0  0  0  0
  2  1  1  1
  3  2  1  0
  4  3  1  0
  5  4  2  0
  6  5  1  0
  7  6  2  0
  7  8  1  0
  8  9  2  0
  9  4  1  0
 10  2  1  0
 10 11  2  0
 12 10  1  0
 13 12  1  0
 13 14  1  6
 14 15  1  0
 16 13  1  0
 17 16  2  0
 19 18  1  0
 19 21  1  0
 20 19  2  0
 22 21  1  0
 23 22  1  1
 23 24  1  0
 24 16  1  0
 25 23  1  0
 26 25  2  0
 27 25  1  0
M  END
$$$$
