FCQ.pdb
     RDKit          3D

 27 27  0  0  1  0  0  0  0  0999 V2000
   10.2028  -17.4777   21.1787 N   0  0  0  0  0  0  0  0  0  0  0  0
    9.5232  -16.2805   21.5592 C   0  0  1  0  0  0  0  0  0  0  0  0
    8.1403  -16.1518   20.9577 C   0  0  0  0  0  0  0  0  0  0  0  0
    7.7446  -14.7201   21.0606 C   0  0  0  0  0  0  0  0  0  0  0  0
    8.1988  -13.8223   20.1142 C   0  0  0  0  0  0  0  0  0  0  0  0
    7.8726  -12.4883   20.1489 C   0  0  0  0  0  0  0  0  0  0  0  0
    7.0596  -12.0465   21.1751 C   0  0  0  0  0  0  0  0  0  0  0  0
    6.5816  -12.9206   22.1482 C   0  0  0  0  0  0  0  0  0  0  0  0
    6.9378  -14.2500   22.0687 C   0  0  0  0  0  0  0  0  0  0  0  0
    9.3890  -16.1217   23.0287 C   0  0  0  0  0  0  0  0  0  0  0  0
    9.3714  -17.1835   23.7118 O   0  0  0  0  0  0  0  0  0  0  0  0
    9.2852  -14.8491   23.6442 N   0  0  0  0  0  0  0  0  0  0  0  0
    9.4877  -14.7864   25.0896 C   0  0  1  0  0  0  0  0  0  0  0  0
    8.5752  -13.6527   25.5591 C   0  0  0  0  0  0  0  0  0  0  0  0
    8.6805  -13.4819   27.3443 S   0  0  0  0  0  0  0  0  0  0  0  0
    9.0576  -16.0345   25.7392 C   0  0  0  0  0  0  0  0  0  0  0  0
    8.1385  -16.7186   25.1728 O   0  0  0  0  0  0  0  0  0  0  0  0
   13.1168  -18.4213   23.8077 N   0  0  0  0  0  0  0  0  0  0  0  0
   12.5765  -19.5037   24.5324 C   0  0  0  0  0  0  0  0  0  0  0  0
   12.8959  -20.6814   24.1473 O   0  0  0  0  0  0  0  0  0  0  0  0
   11.6928  -19.3798   25.6835 C   0  0  0  0  0  0  0  0  0  0  0  0
   11.0042  -18.1040   25.9111 C   0  0  0  0  0  0  0  0  0  0  0  0
   10.0705  -17.9421   27.0424 C   0  0  2  0  0  0  0  0  0  0  0  0
    9.5836  -16.5356   26.9383 N   0  0  0  0  0  0  0  0  0  0  0  0
   10.6488  -18.2179   28.3476 C   0  0  0  0  0  0  0  0  0  0  0  0
   10.2896  -19.2499   28.9775 O   0  0  0  0  0  0  0  0  0  0  0  0
   11.5813  -17.3955   28.9180 O   0  0  0  0  0  0  0  0  0  0  0  0
  2  1  1  1
  3  2  1  0
  4  3  1  0
  5  4  2  0
  6  5  1  0
  7  6  2  0
  7  8  1  0
  8  9  2  0
  9  4  1  0
 10  2  1  0
 10 11  2  0
 12 10  1  0
 13 12  1  0
 13 14  1  1
 14 15  1  0
 16 13  1  0
 17 16  2  0
 19 18  1  0
 19 21  1  0
 20 19  2  0
 22 21  1  0
 23 22  1  6
 23 24  1  0
 24 16  1  0
 25 23  1  0
 26 25  2  0
 27 25  1  0
M  END
$$$$
