AYK.pdb
     RDKit          3D

 27 27  0  0  1  0  0  0  0  0999 V2000
   25.4918  -18.3539  -17.9061 C   0  0  0  0  0  0  0  0  0  0  0  0
   25.0373  -19.6504  -17.2696 C   0  0  2  0  0  0  0  0  0  0  0  0
   24.2755  -20.4470  -18.1886 N   0  0  0  0  0  0  0  0  0  0  0  0
   24.2142  -19.2696  -16.0701 C   0  0  0  0  0  0  0  0  0  0  0  0
   24.7686  -18.6406  -15.1650 O   0  0  0  0  0  0  0  0  0  0  0  0
   18.0165  -16.5804  -19.3210 O   0  0  0  0  0  0  0  0  0  0  0  0
   18.9033  -16.8550  -18.2735 C   0  0  0  0  0  0  0  0  0  0  0  0
   20.2159  -16.4381  -18.3036 C   0  0  0  0  0  0  0  0  0  0  0  0
   21.0745  -16.7170  -17.2643 C   0  0  0  0  0  0  0  0  0  0  0  0
   20.6570  -17.4331  -16.1340 C   0  0  0  0  0  0  0  0  0  0  0  0
   21.6016  -17.7618  -15.0575 C   0  0  0  0  0  0  0  0  0  0  0  0
   21.9722  -19.1716  -14.8760 C   0  0  2  0  0  0  0  0  0  0  0  0
   22.8444  -19.6245  -15.9865 N   0  0  0  0  0  0  0  0  0  0  0  0
   20.9627  -20.1811  -14.5826 C   0  0  0  0  0  0  0  0  0  0  0  0
   20.5570  -20.9571  -15.5398 O   0  0  0  0  0  0  0  0  0  0  0  0
   19.3372  -17.8404  -16.1266 C   0  0  0  0  0  0  0  0  0  0  0  0
   18.4836  -17.5601  -17.1657 C   0  0  0  0  0  0  0  0  0  0  0  0
   20.3385  -20.4551  -13.3490 N   0  0  0  0  0  0  0  0  0  0  0  0
   19.3117  -21.5435  -13.2188 C   0  0  1  0  0  0  0  0  0  0  0  0
   19.5343  -22.1585  -11.9087 C   0  0  0  0  0  0  0  0  0  0  0  0
   18.9102  -23.3393  -11.3698 C   0  0  0  0  0  0  0  0  0  0  0  0
   19.1761  -23.7206   -9.9571 C   0  0  0  0  0  0  0  0  0  0  0  0
   18.4133  -24.9766   -9.5430 C   0  0  0  0  0  0  0  0  0  0  0  0
   18.5162  -25.2045   -8.1220 N   0  0  0  0  0  0  0  0  0  0  0  0
   18.0409  -20.9181  -13.5517 C   0  0  0  0  0  0  0  0  0  0  0  0
   17.8611  -19.6552  -13.4409 O   0  0  0  0  0  0  0  0  0  0  0  0
   16.9211  -21.5658  -14.0150 O   0  0  0  0  0  0  0  0  0  0  0  0
  2  1  1  6
  2  3  1  0
  4  5  2  0
  4  2  1  0
  7  6  1  0
  8  7  2  0
  9  8  1  0
 10  9  2  0
 10 16  1  0
 12 11  1  6
 11 10  1  0
 12 13  1  0
 13  4  1  0
 14 15  2  0
 14 12  1  0
 16 17  2  0
 17  7  1  0
 18 14  1  0
 19 18  1  0
 19 20  1  1
 21 22  1  0
 21 20  1  0
 22 23  1  0
 23 24  1  0
 25 19  1  0
 26 25  2  0
 27 25  1  0
M  END
$$$$
