AYK.pdb
     RDKit          3D

 27 27  0  0  1  0  0  0  0  0999 V2000
   30.2071  -26.1953  -19.3785 C   0  0  0  0  0  0  0  0  0  0  0  0
   31.6013  -26.7860  -19.3841 C   0  0  2  0  0  0  0  0  0  0  0  0
   32.2963  -26.4780  -20.6013 N   0  0  0  0  0  0  0  0  0  0  0  0
   31.4347  -28.2709  -19.2152 C   0  0  0  0  0  0  0  0  0  0  0  0
   30.9240  -28.9042  -20.1427 O   0  0  0  0  0  0  0  0  0  0  0  0
   32.9278  -36.5787  -16.1981 O   0  0  0  0  0  0  0  0  0  0  0  0
   32.9080  -35.2086  -16.4839 C   0  0  0  0  0  0  0  0  0  0  0  0
   33.2609  -34.7188  -17.7221 C   0  0  0  0  0  0  0  0  0  0  0  0
   33.2357  -33.3679  -17.9859 C   0  0  0  0  0  0  0  0  0  0  0  0
   32.8525  -32.4332  -17.0142 C   0  0  0  0  0  0  0  0  0  0  0  0
   32.8785  -30.9923  -17.3014 C   0  0  0  0  0  0  0  0  0  0  0  0
   31.6434  -30.3679  -17.7936 C   0  0  2  0  0  0  0  0  0  0  0  0
   31.8530  -28.9184  -18.0256 N   0  0  0  0  0  0  0  0  0  0  0  0
   30.3696  -30.5929  -17.1219 C   0  0  0  0  0  0  0  0  0  0  0  0
   30.1033  -29.9219  -16.0440 O   0  0  0  0  0  0  0  0  0  0  0  0
   32.5033  -32.9479  -15.7810 C   0  0  0  0  0  0  0  0  0  0  0  0
   32.5298  -34.2967  -15.5217 C   0  0  0  0  0  0  0  0  0  0  0  0
   29.3317  -31.4704  -17.4953 N   0  0  0  0  0  0  0  0  0  0  0  0
   28.0439  -31.5285  -16.7245 C   0  0  1  0  0  0  0  0  0  0  0  0
   26.9791  -31.2457  -17.6891 C   0  0  0  0  0  0  0  0  0  0  0  0
   25.5573  -31.2449  -17.4600 C   0  0  0  0  0  0  0  0  0  0  0  0
   24.6370  -31.0271  -18.6079 C   0  0  0  0  0  0  0  0  0  0  0  0
   23.1697  -31.0531  -18.1867 C   0  0  0  0  0  0  0  0  0  0  0  0
   22.2972  -30.9163  -19.3277 N   0  0  0  0  0  0  0  0  0  0  0  0
   28.0859  -32.7870  -15.9957 C   0  0  0  0  0  0  0  0  0  0  0  0
   28.7814  -33.7809  -16.4055 O   0  0  0  0  0  0  0  0  0  0  0  0
   27.4244  -33.0614  -14.8230 O   0  0  0  0  0  0  0  0  0  0  0  0
  2  1  1  6
  2  3  1  0
  4  5  2  0
  4  2  1  0
  7  6  1  0
  8  7  2  0
  9  8  1  0
 10  9  2  0
 10 16  1  0
 12 11  1  1
 11 10  1  0
 12 13  1  0
 13  4  1  0
 14 15  2  0
 14 12  1  0
 16 17  2  0
 17  7  1  0
 18 14  1  0
 19 18  1  0
 19 20  1  6
 21 22  1  0
 21 20  1  0
 22 23  1  0
 23 24  1  0
 25 19  1  0
 26 25  2  0
 27 25  1  0
M  END
$$$$
