AYK.pdb
     RDKit          3D

 27 27  0  0  1  0  0  0  0  0999 V2000
   26.4489  -21.5400  -18.5282 C   0  0  0  0  0  0  0  0  0  0  0  0
   27.4709  -21.8638  -17.4589 C   0  0  2  0  0  0  0  0  0  0  0  0
   28.2219  -23.0409  -17.7906 N   0  0  0  0  0  0  0  0  0  0  0  0
   26.7028  -22.0528  -16.1800 C   0  0  0  0  0  0  0  0  0  0  0  0
   26.0429  -23.0871  -16.0497 O   0  0  0  0  0  0  0  0  0  0  0  0
   24.6750  -20.6287   -7.4952 O   0  0  0  0  0  0  0  0  0  0  0  0
   25.1850  -20.6195   -8.7987 C   0  0  0  0  0  0  0  0  0  0  0  0
   26.2144  -21.4504   -9.1828 C   0  0  0  0  0  0  0  0  0  0  0  0
   26.7037  -21.4281  -10.4694 C   0  0  0  0  0  0  0  0  0  0  0  0
   26.1815  -20.5652  -11.4427 C   0  0  0  0  0  0  0  0  0  0  0  0
   26.7501  -20.5231  -12.7971 C   0  0  0  0  0  0  0  0  0  0  0  0
   26.0417  -21.2458  -13.8618 C   0  0  2  0  0  0  0  0  0  0  0  0
   26.7389  -21.0704  -15.1588 N   0  0  0  0  0  0  0  0  0  0  0  0
   24.6023  -21.1001  -14.0383 C   0  0  0  0  0  0  0  0  0  0  0  0
   24.1610  -20.2112  -14.8739 O   0  0  0  0  0  0  0  0  0  0  0  0
   25.1505  -19.7420  -11.0341 C   0  0  0  0  0  0  0  0  0  0  0  0
   24.6650  -19.7672   -9.7493 C   0  0  0  0  0  0  0  0  0  0  0  0
   23.5704  -21.8246  -13.4084 N   0  0  0  0  0  0  0  0  0  0  0  0
   22.1252  -21.4960  -13.6521 C   0  0  1  0  0  0  0  0  0  0  0  0
   21.4860  -22.7487  -14.0596 C   0  0  0  0  0  0  0  0  0  0  0  0
   20.2021  -22.9213  -14.6889 C   0  0  0  0  0  0  0  0  0  0  0  0
   19.1501  -23.7057  -13.9890 C   0  0  0  0  0  0  0  0  0  0  0  0
   17.8797  -23.8450  -14.8243 C   0  0  0  0  0  0  0  0  0  0  0  0
   18.0539  -24.8117  -15.8812 N   0  0  0  0  0  0  0  0  0  0  0  0
   21.6866  -20.7772  -12.4655 C   0  0  0  0  0  0  0  0  0  0  0  0
   22.2347  -20.9631  -11.3233 O   0  0  0  0  0  0  0  0  0  0  0  0
   20.6809  -19.8424  -12.4156 O   0  0  0  0  0  0  0  0  0  0  0  0
  2  1  1  6
  2  3  1  0
  4  5  2  0
  4  2  1  0
  7  6  1  0
  8  7  2  0
  9  8  1  0
 10  9  2  0
 10 16  1  0
 12 11  1  1
 11 10  1  0
 12 13  1  0
 13  4  1  0
 14 15  2  0
 14 12  1  0
 16 17  2  0
 17  7  1  0
 18 14  1  0
 19 18  1  0
 19 20  1  1
 21 22  1  0
 21 20  1  0
 22 23  1  0
 23 24  1  0
 25 19  1  0
 26 25  2  0
 27 25  1  0
M  END
$$$$
