AYK.pdb
     RDKit          3D

 27 27  0  0  1  0  0  0  0  0999 V2000
   28.5500  -20.3108  -18.3643 C   0  0  0  0  0  0  0  0  0  0  0  0
   27.3597  -19.4785  -17.9362 C   0  0  2  0  0  0  0  0  0  0  0  0
   27.7442  -18.1287  -17.6369 N   0  0  0  0  0  0  0  0  0  0  0  0
   26.7786  -20.1580  -16.7271 C   0  0  0  0  0  0  0  0  0  0  0  0
   26.2829  -21.2780  -16.8760 O   0  0  0  0  0  0  0  0  0  0  0  0
   25.2129  -21.1682   -7.8629 O   0  0  0  0  0  0  0  0  0  0  0  0
   25.6687  -20.8602   -9.1500 C   0  0  0  0  0  0  0  0  0  0  0  0
   26.2293  -21.8141   -9.9706 C   0  0  0  0  0  0  0  0  0  0  0  0
   26.6724  -21.4935  -11.2340 C   0  0  0  0  0  0  0  0  0  0  0  0
   26.5749  -20.1907  -11.7418 C   0  0  0  0  0  0  0  0  0  0  0  0
   27.0976  -19.8592  -13.0746 C   0  0  0  0  0  0  0  0  0  0  0  0
   26.2589  -20.1738  -14.2387 C   0  0  2  0  0  0  0  0  0  0  0  0
   26.8020  -19.5274  -15.4578 N   0  0  0  0  0  0  0  0  0  0  0  0
   24.8110  -20.0155  -14.1853 C   0  0  0  0  0  0  0  0  0  0  0  0
   24.2965  -18.8610  -14.4777 O   0  0  0  0  0  0  0  0  0  0  0  0
   26.0097  -19.2521  -10.9010 C   0  0  0  0  0  0  0  0  0  0  0  0
   25.5687  -19.5759   -9.6410 C   0  0  0  0  0  0  0  0  0  0  0  0
   23.8412  -20.9829  -13.8533 N   0  0  0  0  0  0  0  0  0  0  0  0
   22.3814  -20.6349  -13.7912 C   0  0  1  0  0  0  0  0  0  0  0  0
   21.6988  -21.5847  -14.6721 C   0  0  0  0  0  0  0  0  0  0  0  0
   20.3513  -21.5113  -15.1751 C   0  0  0  0  0  0  0  0  0  0  0  0
   19.8536  -22.5841  -16.0769 C   0  0  0  0  0  0  0  0  0  0  0  0
   18.4186  -22.3357  -16.5353 C   0  0  0  0  0  0  0  0  0  0  0  0
   17.9042  -23.4638  -17.2733 N   0  0  0  0  0  0  0  0  0  0  0  0
   22.0622  -20.5581  -12.3738 C   0  0  0  0  0  0  0  0  0  0  0  0
   22.6990  -21.2449  -11.5008 O   0  0  0  0  0  0  0  0  0  0  0  0
   21.0882  -19.7705  -11.8089 O   0  0  0  0  0  0  0  0  0  0  0  0
  2  1  1  1
  2  3  1  0
  4  5  2  0
  4  2  1  0
  7  6  1  0
  8  7  2  0
  9  8  1  0
 10  9  2  0
 10 16  1  0
 12 11  1  1
 11 10  1  0
 12 13  1  0
 13  4  1  0
 14 15  2  0
 14 12  1  0
 16 17  2  0
 17  7  1  0
 18 14  1  0
 19 18  1  0
 19 20  1  1
 21 22  1  0
 21 20  1  0
 22 23  1  0
 23 24  1  0
 25 19  1  0
 26 25  2  0
 27 25  1  0
M  END
$$$$
