AYK.pdb
     RDKit          3D

 27 27  0  0  1  0  0  0  0  0999 V2000
   28.7918  -22.0868  -16.1198 C   0  0  0  0  0  0  0  0  0  0  0  0
   27.4861  -21.4266  -16.5097 C   0  0  2  0  0  0  0  0  0  0  0  0
   27.6764  -20.0432  -16.8407 N   0  0  0  0  0  0  0  0  0  0  0  0
   26.5635  -21.5809  -15.3323 C   0  0  0  0  0  0  0  0  0  0  0  0
   26.2917  -22.7244  -14.9571 O   0  0  0  0  0  0  0  0  0  0  0  0
   30.5183  -21.7514   -9.9266 O   0  0  0  0  0  0  0  0  0  0  0  0
   29.3498  -21.2507  -10.5125 C   0  0  0  0  0  0  0  0  0  0  0  0
   28.1097  -21.4500   -9.9470 C   0  0  0  0  0  0  0  0  0  0  0  0
   26.9706  -20.9502  -10.5370 C   0  0  0  0  0  0  0  0  0  0  0  0
   27.0183  -20.2201  -11.7325 C   0  0  0  0  0  0  0  0  0  0  0  0
   25.7863  -19.7366  -12.3711 C   0  0  0  0  0  0  0  0  0  0  0  0
   25.2051  -20.5513  -13.4464 C   0  0  2  0  0  0  0  0  0  0  0  0
   26.0253  -20.4449  -14.6772 N   0  0  0  0  0  0  0  0  0  0  0  0
   23.7879  -20.4605  -13.7743 C   0  0  0  0  0  0  0  0  0  0  0  0
   23.3883  -19.5146  -14.5671 O   0  0  0  0  0  0  0  0  0  0  0  0
   28.2724  -20.0334  -12.2804 C   0  0  0  0  0  0  0  0  0  0  0  0
   29.4065  -20.5337  -11.6886 C   0  0  0  0  0  0  0  0  0  0  0  0
   22.7388  -21.2958  -13.3403 N   0  0  0  0  0  0  0  0  0  0  0  0
   21.3174  -21.0422  -13.7540 C   0  0  1  0  0  0  0  0  0  0  0  0
   20.8613  -22.2665  -14.4152 C   0  0  0  0  0  0  0  0  0  0  0  0
   19.5672  -22.8914  -14.3212 C   0  0  0  0  0  0  0  0  0  0  0  0
   19.3335  -24.1854  -15.0162 C   0  0  0  0  0  0  0  0  0  0  0  0
   17.8760  -24.6322  -14.9334 C   0  0  0  0  0  0  0  0  0  0  0  0
   17.6616  -25.8520  -15.6737 N   0  0  0  0  0  0  0  0  0  0  0  0
   20.6524  -20.5361  -12.5630 C   0  0  0  0  0  0  0  0  0  0  0  0
   21.1543  -20.6870  -11.3947 O   0  0  0  0  0  0  0  0  0  0  0  0
   19.4596  -19.8546  -12.5343 O   0  0  0  0  0  0  0  0  0  0  0  0
  2  1  1  1
  2  3  1  0
  4  5  2  0
  4  2  1  0
  7  6  1  0
  8  7  2  0
  9  8  1  0
 10  9  2  0
 10 16  1  0
 12 11  1  1
 11 10  1  0
 12 13  1  0
 13  4  1  0
 14 15  2  0
 14 12  1  0
 16 17  2  0
 17  7  1  0
 18 14  1  0
 19 18  1  0
 19 20  1  1
 21 22  1  0
 21 20  1  0
 22 23  1  0
 23 24  1  0
 25 19  1  0
 26 25  2  0
 27 25  1  0
M  END
$$$$
