AYK.pdb
     RDKit          3D

 27 27  0  0  1  0  0  0  0  0999 V2000
   14.7170  -10.1275  -15.7476 C   0  0  0  0  0  0  0  0  0  0  0  0
   15.1727  -10.0535  -14.3056 C   0  0  2  0  0  0  0  0  0  0  0  0
   14.2162  -10.6563  -13.4218 N   0  0  0  0  0  0  0  0  0  0  0  0
   15.3567   -8.5943  -13.9922 C   0  0  0  0  0  0  0  0  0  0  0  0
   14.3795   -7.8504  -14.1097 O   0  0  0  0  0  0  0  0  0  0  0  0
   13.4376   -7.0420   -7.6614 O   0  0  0  0  0  0  0  0  0  0  0  0
   14.3944   -6.9167   -8.6752 C   0  0  0  0  0  0  0  0  0  0  0  0
   14.4067   -5.8402   -9.5346 C   0  0  0  0  0  0  0  0  0  0  0  0
   15.3555   -5.7330  -10.5264 C   0  0  0  0  0  0  0  0  0  0  0  0
   16.3470   -6.7071  -10.7076 C   0  0  0  0  0  0  0  0  0  0  0  0
   17.3210   -6.5979  -11.8025 C   0  0  0  0  0  0  0  0  0  0  0  0
   16.8174   -6.6788  -13.1800 C   0  0  2  0  0  0  0  0  0  0  0  0
   16.6156   -8.0938  -13.5750 N   0  0  0  0  0  0  0  0  0  0  0  0
   17.4610   -5.9400  -14.2589 C   0  0  0  0  0  0  0  0  0  0  0  0
   18.4876   -6.4663  -14.8523 O   0  0  0  0  0  0  0  0  0  0  0  0
   16.3142   -7.7766   -9.8342 C   0  0  0  0  0  0  0  0  0  0  0  0
   15.3658   -7.8799   -8.8459 C   0  0  0  0  0  0  0  0  0  0  0  0
   17.1087   -4.6793  -14.7817 N   0  0  0  0  0  0  0  0  0  0  0  0
   17.8325   -4.0933  -15.9601 C   0  0  1  0  0  0  0  0  0  0  0  0
   16.8854   -4.1251  -17.0763 C   0  0  0  0  0  0  0  0  0  0  0  0
   17.1387   -3.8105  -18.4587 C   0  0  0  0  0  0  0  0  0  0  0  0
   16.0288   -3.9175  -19.4428 C   0  0  0  0  0  0  0  0  0  0  0  0
   16.4591   -3.5040  -20.8481 C   0  0  0  0  0  0  0  0  0  0  0  0
   15.4434   -3.8270  -21.8207 N   0  0  0  0  0  0  0  0  0  0  0  0
   18.3945   -2.8387  -15.4838 C   0  0  0  0  0  0  0  0  0  0  0  0
   17.9498   -2.2559  -14.4339 O   0  0  0  0  0  0  0  0  0  0  0  0
   19.4322   -2.1492  -16.0633 O   0  0  0  0  0  0  0  0  0  0  0  0
  2  1  1  6
  2  3  1  0
  4  5  2  0
  4  2  1  0
  7  6  1  0
  8  7  2  0
  9  8  1  0
 10  9  2  0
 10 16  1  0
 12 11  1  1
 11 10  1  0
 12 13  1  0
 13  4  1  0
 14 15  2  0
 14 12  1  0
 16 17  2  0
 17  7  1  0
 18 14  1  0
 19 18  1  0
 19 20  1  6
 21 22  1  0
 21 20  1  0
 22 23  1  0
 23 24  1  0
 25 19  1  0
 26 25  2  0
 27 25  1  0
M  END
$$$$
