AYK.pdb
     RDKit          3D

 27 27  0  0  1  0  0  0  0  0999 V2000
   28.7075  -21.7048  -16.4444 C   0  0  0  0  0  0  0  0  0  0  0  0
   27.3252  -21.1760  -16.7641 C   0  0  2  0  0  0  0  0  0  0  0  0
   27.3585  -19.7754  -17.0748 N   0  0  0  0  0  0  0  0  0  0  0  0
   26.4769  -21.4428  -15.5514 C   0  0  0  0  0  0  0  0  0  0  0  0
   26.3456  -22.6133  -15.1842 O   0  0  0  0  0  0  0  0  0  0  0  0
   30.5244  -21.7319  -10.1597 O   0  0  0  0  0  0  0  0  0  0  0  0
   29.3410  -21.2411  -10.7236 C   0  0  0  0  0  0  0  0  0  0  0  0
   28.1177  -21.4180  -10.1156 C   0  0  0  0  0  0  0  0  0  0  0  0
   26.9636  -20.9283  -10.6844 C   0  0  0  0  0  0  0  0  0  0  0  0
   26.9783  -20.2315  -11.9006 C   0  0  0  0  0  0  0  0  0  0  0  0
   25.7297  -19.7590  -12.5147 C   0  0  0  0  0  0  0  0  0  0  0  0
   25.1312  -20.5821  -13.5739 C   0  0  2  0  0  0  0  0  0  0  0  0
   25.8497  -20.3792  -14.8552 N   0  0  0  0  0  0  0  0  0  0  0  0
   23.6910  -20.5864  -13.7976 C   0  0  0  0  0  0  0  0  0  0  0  0
   23.1364  -19.5386  -14.3243 O   0  0  0  0  0  0  0  0  0  0  0  0
   28.2160  -20.0668  -12.4910 C   0  0  0  0  0  0  0  0  0  0  0  0
   29.3653  -20.5569  -11.9202 C   0  0  0  0  0  0  0  0  0  0  0  0
   22.7698  -21.6160  -13.5182 N   0  0  0  0  0  0  0  0  0  0  0  0
   21.3062  -21.4550  -13.8145 C   0  0  1  0  0  0  0  0  0  0  0  0
   20.8388  -22.7626  -14.2790 C   0  0  0  0  0  0  0  0  0  0  0  0
   19.5210  -23.1169  -14.7396 C   0  0  0  0  0  0  0  0  0  0  0  0
   19.2788  -24.4882  -15.2620 C   0  0  0  0  0  0  0  0  0  0  0  0
   17.8604  -24.6607  -15.7999 C   0  0  0  0  0  0  0  0  0  0  0  0
   17.6371  -26.0105  -16.2581 N   0  0  0  0  0  0  0  0  0  0  0  0
   20.7385  -20.8287  -12.6303 C   0  0  0  0  0  0  0  0  0  0  0  0
   21.3159  -20.8958  -11.4894 O   0  0  0  0  0  0  0  0  0  0  0  0
   19.5688  -20.1095  -12.5816 O   0  0  0  0  0  0  0  0  0  0  0  0
  2  1  1  1
  2  3  1  0
  4  5  2  0
  4  2  1  0
  7  6  1  0
  8  7  2  0
  9  8  1  0
 10  9  2  0
 10 16  1  0
 12 11  1  1
 11 10  1  0
 12 13  1  0
 13  4  1  0
 14 15  2  0
 14 12  1  0
 16 17  2  0
 17  7  1  0
 18 14  1  0
 19 18  1  0
 19 20  1  1
 21 22  1  0
 21 20  1  0
 22 23  1  0
 23 24  1  0
 25 19  1  0
 26 25  2  0
 27 25  1  0
M  END
$$$$
