AYK.pdb
     RDKit          3D

 27 27  0  0  1  0  0  0  0  0999 V2000
   22.2535  -13.0990  -16.5766 C   0  0  0  0  0  0  0  0  0  0  0  0
   21.7295  -11.9367  -17.3934 C   0  0  2  0  0  0  0  0  0  0  0  0
   22.4194  -11.8234  -18.6467 N   0  0  0  0  0  0  0  0  0  0  0  0
   21.9242  -10.7047  -16.5535 C   0  0  0  0  0  0  0  0  0  0  0  0
   21.4279  -10.6910  -15.4240 O   0  0  0  0  0  0  0  0  0  0  0  0
   28.3253  -11.6526  -16.1045 O   0  0  0  0  0  0  0  0  0  0  0  0
   27.3030  -10.6980  -16.1584 C   0  0  0  0  0  0  0  0  0  0  0  0
   26.6194  -10.3001  -15.0307 C   0  0  0  0  0  0  0  0  0  0  0  0
   25.6165   -9.3596  -15.1021 C   0  0  0  0  0  0  0  0  0  0  0  0
   25.2460   -8.7666  -16.3168 C   0  0  0  0  0  0  0  0  0  0  0  0
   24.1406   -7.8004  -16.3787 C   0  0  0  0  0  0  0  0  0  0  0  0
   22.7690   -8.3205  -16.3008 C   0  0  2  0  0  0  0  0  0  0  0  0
   22.6560   -9.5962  -17.0483 N   0  0  0  0  0  0  0  0  0  0  0  0
   21.6245   -7.4645  -16.5864 C   0  0  0  0  0  0  0  0  0  0  0  0
   21.2548   -7.3048  -17.8196 O   0  0  0  0  0  0  0  0  0  0  0  0
   25.9454   -9.1815  -17.4333 C   0  0  0  0  0  0  0  0  0  0  0  0
   26.9455  -10.1201  -17.3579 C   0  0  0  0  0  0  0  0  0  0  0  0
   20.8173   -6.7568  -15.6730 N   0  0  0  0  0  0  0  0  0  0  0  0
   19.6373   -5.9511  -16.1359 C   0  0  1  0  0  0  0  0  0  0  0  0
   18.5775   -6.9163  -16.4349 C   0  0  0  0  0  0  0  0  0  0  0  0
   17.1734   -6.6564  -16.6222 C   0  0  0  0  0  0  0  0  0  0  0  0
   16.6211   -6.6115  -18.0023 C   0  0  0  0  0  0  0  0  0  0  0  0
   15.1251   -6.3067  -18.0177 C   0  0  0  0  0  0  0  0  0  0  0  0
   14.6296   -6.1946  -19.3681 N   0  0  0  0  0  0  0  0  0  0  0  0
   19.4541   -4.9190  -15.1270 C   0  0  0  0  0  0  0  0  0  0  0  0
   20.0016   -4.9997  -13.9723 O   0  0  0  0  0  0  0  0  0  0  0  0
   18.7124   -3.7716  -15.2736 O   0  0  0  0  0  0  0  0  0  0  0  0
  2  1  1  1
  2  3  1  0
  4  5  2  0
  4  2  1  0
  7  6  1  0
  8  7  2  0
  9  8  1  0
 10  9  2  0
 10 16  1  0
 12 11  1  6
 11 10  1  0
 12 13  1  0
 13  4  1  0
 14 15  2  0
 14 12  1  0
 16 17  2  0
 17  7  1  0
 18 14  1  0
 19 18  1  0
 19 20  1  1
 21 22  1  0
 21 20  1  0
 22 23  1  0
 23 24  1  0
 25 19  1  0
 26 25  2  0
 27 25  1  0
M  END
$$$$
