AYK.pdb
     RDKit          3D

 27 27  0  0  1  0  0  0  0  0999 V2000
   28.9128  -23.0261  -17.1619 C   0  0  0  0  0  0  0  0  0  0  0  0
   27.8813  -21.9177  -17.1462 C   0  0  2  0  0  0  0  0  0  0  0  0
   28.4963  -20.6273  -17.2736 N   0  0  0  0  0  0  0  0  0  0  0  0
   27.1443  -22.0411  -15.8412 C   0  0  0  0  0  0  0  0  0  0  0  0
   26.4631  -23.0529  -15.6557 O   0  0  0  0  0  0  0  0  0  0  0  0
   25.0689  -20.0976   -7.2729 O   0  0  0  0  0  0  0  0  0  0  0  0
   25.6188  -20.2529   -8.5507 C   0  0  0  0  0  0  0  0  0  0  0  0
   26.0621  -21.4742   -9.0081 C   0  0  0  0  0  0  0  0  0  0  0  0
   26.6003  -21.6089  -10.2680 C   0  0  0  0  0  0  0  0  0  0  0  0
   26.7219  -20.5175  -11.1391 C   0  0  0  0  0  0  0  0  0  0  0  0
   27.3432  -20.6731  -12.4616 C   0  0  0  0  0  0  0  0  0  0  0  0
   26.4846  -21.0874  -13.5791 C   0  0  2  0  0  0  0  0  0  0  0  0
   27.2328  -21.0241  -14.8578 N   0  0  0  0  0  0  0  0  0  0  0  0
   25.1492  -20.5280  -13.7469 C   0  0  0  0  0  0  0  0  0  0  0  0
   25.0240  -19.3644  -14.3066 O   0  0  0  0  0  0  0  0  0  0  0  0
   26.2708  -19.3038  -10.6584 C   0  0  0  0  0  0  0  0  0  0  0  0
   25.7343  -19.1736   -9.4005 C   0  0  0  0  0  0  0  0  0  0  0  0
   23.9140  -21.0981  -13.3784 N   0  0  0  0  0  0  0  0  0  0  0  0
   22.6223  -20.3584  -13.5794 C   0  0  1  0  0  0  0  0  0  0  0  0
   22.3710  -20.3628  -15.0219 C   0  0  0  0  0  0  0  0  0  0  0  0
   21.3083  -19.7026  -15.7352 C   0  0  0  0  0  0  0  0  0  0  0  0
   20.5448  -20.4587  -16.7635 C   0  0  0  0  0  0  0  0  0  0  0  0
   19.4462  -19.6151  -17.4056 C   0  0  0  0  0  0  0  0  0  0  0  0
   18.6585  -20.3981  -18.3266 N   0  0  0  0  0  0  0  0  0  0  0  0
   21.6816  -20.9629  -12.6485 C   0  0  0  0  0  0  0  0  0  0  0  0
   20.6058  -20.3661  -12.2938 O   0  0  0  0  0  0  0  0  0  0  0  0
   21.8110  -22.1981  -12.0607 O   0  0  0  0  0  0  0  0  0  0  0  0
  2  1  1  1
  2  3  1  0
  4  5  2  0
  4  2  1  0
  7  6  1  0
  8  7  2  0
  9  8  1  0
 10  9  2  0
 10 16  1  0
 12 11  1  1
 11 10  1  0
 12 13  1  0
 13  4  1  0
 14 15  2  0
 14 12  1  0
 16 17  2  0
 17  7  1  0
 18 14  1  0
 19 18  1  0
 19 20  1  6
 21 22  1  0
 21 20  1  0
 22 23  1  0
 23 24  1  0
 25 19  1  0
 26 25  2  0
 27 25  1  0
M  END
$$$$
