AYK.pdb
     RDKit          3D

 27 27  0  0  1  0  0  0  0  0999 V2000
   29.4430  -22.9950  -17.5368 C   0  0  0  0  0  0  0  0  0  0  0  0
   28.3391  -21.9608  -17.6048 C   0  0  2  0  0  0  0  0  0  0  0  0
   28.8712  -20.6318  -17.7048 N   0  0  0  0  0  0  0  0  0  0  0  0
   27.5238  -22.1260  -16.3521 C   0  0  0  0  0  0  0  0  0  0  0  0
   26.9134  -23.1867  -16.1956 O   0  0  0  0  0  0  0  0  0  0  0  0
   24.5398  -20.3329   -8.0692 O   0  0  0  0  0  0  0  0  0  0  0  0
   25.2491  -20.4096   -9.2735 C   0  0  0  0  0  0  0  0  0  0  0  0
   25.9218  -19.3249   -9.7917 C   0  0  0  0  0  0  0  0  0  0  0  0
   26.6144  -19.4182  -10.9777 C   0  0  0  0  0  0  0  0  0  0  0  0
   26.6678  -20.6126  -11.7093 C   0  0  0  0  0  0  0  0  0  0  0  0
   27.3726  -20.6780  -12.9971 C   0  0  0  0  0  0  0  0  0  0  0  0
   26.6376  -21.2018  -14.1560 C   0  0  2  0  0  0  0  0  0  0  0  0
   27.4618  -21.0924  -15.3840 N   0  0  0  0  0  0  0  0  0  0  0  0
   25.2682  -20.7835  -14.4278 C   0  0  0  0  0  0  0  0  0  0  0  0
   25.0635  -19.6163  -14.9557 O   0  0  0  0  0  0  0  0  0  0  0  0
   25.9859  -21.6858  -11.1700 C   0  0  0  0  0  0  0  0  0  0  0  0
   25.2958  -21.5887   -9.9862 C   0  0  0  0  0  0  0  0  0  0  0  0
   24.0769  -21.5003  -14.1962 N   0  0  0  0  0  0  0  0  0  0  0  0
   22.7329  -20.8924  -14.4795 C   0  0  1  0  0  0  0  0  0  0  0  0
   22.2718  -21.4909  -15.7338 C   0  0  0  0  0  0  0  0  0  0  0  0
   21.0665  -21.1933  -16.4637 C   0  0  0  0  0  0  0  0  0  0  0  0
   20.7824  -21.9265  -17.7261 C   0  0  0  0  0  0  0  0  0  0  0  0
   19.5431  -21.3920  -18.4398 C   0  0  0  0  0  0  0  0  0  0  0  0
   19.4166  -21.9591  -19.7605 N   0  0  0  0  0  0  0  0  0  0  0  0
   21.9729  -21.0434  -13.2481 C   0  0  0  0  0  0  0  0  0  0  0  0
   22.3763  -21.7968  -12.2946 O   0  0  0  0  0  0  0  0  0  0  0  0
   20.7833  -20.4218  -12.9542 O   0  0  0  0  0  0  0  0  0  0  0  0
  2  1  1  1
  2  3  1  0
  4  5  2  0
  4  2  1  0
  7  6  1  0
  8  7  2  0
  9  8  1  0
 10  9  2  0
 10 16  1  0
 12 11  1  1
 11 10  1  0
 12 13  1  0
 13  4  1  0
 14 15  2  0
 14 12  1  0
 16 17  2  0
 17  7  1  0
 18 14  1  0
 19 18  1  0
 19 20  1  6
 21 22  1  0
 21 20  1  0
 22 23  1  0
 23 24  1  0
 25 19  1  0
 26 25  2  0
 27 25  1  0
M  END
$$$$
