HMT.pdb
     RDKit          3D

 26 26  0  0  1  0  0  0  0  0999 V2000
    5.4331  -15.6051   20.6091 N   0  0  0  0  0  0  0  0  0  0  0  0
    6.7367  -16.0821   20.9727 C   0  0  1  0  0  0  0  0  0  0  0  0
    7.5789  -16.1412   19.6986 C   0  0  0  0  0  0  0  0  0  0  0  0
    7.7375  -14.7884   19.1263 C   0  0  0  0  0  0  0  0  0  0  0  0
    6.8942  -13.7044   19.1914 C   0  0  0  0  0  0  0  0  0  0  0  0
    7.4471  -12.6801   18.5243 N   0  0  0  0  0  0  0  0  0  0  0  0
    8.6154  -13.0941   18.0427 C   0  0  0  0  0  0  0  0  0  0  0  0
    8.7959  -14.3912   18.4121 N   0  0  0  0  0  0  0  0  0  0  0  0
    7.4113  -15.2134   21.9714 C   0  0  0  0  0  0  0  0  0  0  0  0
    7.3514  -13.9785   21.7806 O   0  0  0  0  0  0  0  0  0  0  0  0
    6.5460  -11.4505   27.9439 C   0  0  0  0  0  0  0  0  0  0  0  0
    6.1043  -12.6105   26.6215 S   0  0  0  0  0  0  0  0  0  0  0  0
    7.5724  -13.4929   26.0449 C   0  0  0  0  0  0  0  0  0  0  0  0
    7.2211  -14.3233   24.8371 C   0  0  0  0  0  0  0  0  0  0  0  0
    8.4276  -14.9902   24.2352 C   0  0  2  0  0  0  0  0  0  0  0  0
    8.0868  -15.7699   23.0824 N   0  0  0  0  0  0  0  0  0  0  0  0
    9.1361  -15.8386   25.2452 C   0  0  0  0  0  0  0  0  0  0  0  0
    9.4690  -15.4485   26.3874 O   0  0  0  0  0  0  0  0  0  0  0  0
   12.2586  -19.4664   25.8669 C   0  0  0  0  0  0  0  0  0  0  0  0
   11.5418  -18.3291   25.2127 C   0  0  1  0  0  0  0  0  0  0  0  0
   11.4434  -18.6059   23.8503 O   0  0  0  0  0  0  0  0  0  0  0  0
   10.1786  -18.0595   25.8203 C   0  0  2  0  0  0  0  0  0  0  0  0
    9.4759  -17.1899   24.9303 N   0  0  0  0  0  0  0  0  0  0  0  0
   10.2477  -17.5976   27.2010 C   0  0  0  0  0  0  0  0  0  0  0  0
   10.0515  -18.4770   28.2578 O   0  0  0  0  0  0  0  0  0  0  0  0
   10.4839  -16.3989   27.5296 O   0  0  0  0  0  0  0  0  0  0  0  0
  2  1  1  6
  2  3  1  0
  3  4  1  0
  4  5  2  0
  5  6  1  0
  7  6  1  0
  8  4  1  0
  8  7  2  0
  9  2  1  0
 10  9  2  0
 11 12  1  0
 13 12  1  0
 15 14  1  1
 14 13  1  0
 15 16  1  0
 16  9  1  0
 17 18  2  0
 17 15  1  0
 20 22  1  0
 20 19  1  1
 21 20  1  0
 22 23  1  6
 23 17  1  0
 24 22  1  0
 25 24  1  0
 26 24  2  0
M  END
$$$$
