HMT.pdb
     RDKit          3D

 26 26  0  0  1  0  0  0  0  0999 V2000
   10.0156  -16.1138   19.8422 N   0  0  0  0  0  0  0  0  0  0  0  0
    8.9200  -16.3686   20.7333 C   0  0  1  0  0  0  0  0  0  0  0  0
    8.6225  -17.8669   20.6827 C   0  0  0  0  0  0  0  0  0  0  0  0
    8.0316  -18.2281   19.3777 C   0  0  0  0  0  0  0  0  0  0  0  0
    7.1086  -17.5513   18.6157 C   0  0  0  0  0  0  0  0  0  0  0  0
    6.8616  -18.2558   17.5009 N   0  0  0  0  0  0  0  0  0  0  0  0
    7.6060  -19.3567   17.5445 C   0  0  0  0  0  0  0  0  0  0  0  0
    8.3266  -19.3415   18.6986 N   0  0  0  0  0  0  0  0  0  0  0  0
    9.2106  -15.9692   22.1344 C   0  0  0  0  0  0  0  0  0  0  0  0
   10.3983  -16.0636   22.5157 O   0  0  0  0  0  0  0  0  0  0  0  0
    7.0580  -10.9907   26.6658 C   0  0  0  0  0  0  0  0  0  0  0  0
    6.3872  -12.6621   26.8802 S   0  0  0  0  0  0  0  0  0  0  0  0
    7.5951  -13.8959   26.3466 C   0  0  0  0  0  0  0  0  0  0  0  0
    7.3959  -14.1986   24.8835 C   0  0  0  0  0  0  0  0  0  0  0  0
    8.4269  -15.1587   24.3561 C   0  0  2  0  0  0  0  0  0  0  0  0
    8.1824  -15.5052   22.9875 N   0  0  0  0  0  0  0  0  0  0  0  0
    8.4970  -16.3934   25.2000 C   0  0  0  0  0  0  0  0  0  0  0  0
    7.5258  -17.1500   25.4281 O   0  0  0  0  0  0  0  0  0  0  0  0
   10.3117  -19.2968   24.5962 C   0  0  0  0  0  0  0  0  0  0  0  0
   10.8112  -18.8873   25.9446 C   0  0  1  0  0  0  0  0  0  0  0  0
   12.0858  -18.3458   25.7879 O   0  0  0  0  0  0  0  0  0  0  0  0
    9.8833  -17.9177   26.6509 C   0  0  2  0  0  0  0  0  0  0  0  0
    9.7329  -16.7746   25.8065 N   0  0  0  0  0  0  0  0  0  0  0  0
   10.2966  -17.6205   28.0166 C   0  0  0  0  0  0  0  0  0  0  0  0
   10.2687  -18.6012   28.9995 O   0  0  0  0  0  0  0  0  0  0  0  0
   10.6990  -16.4828   28.3969 O   0  0  0  0  0  0  0  0  0  0  0  0
  2  1  1  6
  2  3  1  0
  3  4  1  0
  4  5  2  0
  5  6  1  0
  7  6  1  0
  8  4  1  0
  8  7  2  0
  9  2  1  0
 10  9  2  0
 11 12  1  0
 13 12  1  0
 15 14  1  1
 14 13  1  0
 15 16  1  0
 16  9  1  0
 17 18  2  0
 17 15  1  0
 20 22  1  0
 20 19  1  6
 21 20  1  0
 22 23  1  6
 23 17  1  0
 24 22  1  0
 25 24  1  0
 26 24  2  0
M  END
$$$$
