HMT.pdb
     RDKit          3D

 26 26  0  0  1  0  0  0  0  0999 V2000
    9.5279  -16.1362   19.4521 N   0  0  0  0  0  0  0  0  0  0  0  0
    8.4653  -16.3829   20.3845 C   0  0  1  0  0  0  0  0  0  0  0  0
    8.1759  -17.8836   20.3683 C   0  0  0  0  0  0  0  0  0  0  0  0
    7.5403  -18.2690   19.0915 C   0  0  0  0  0  0  0  0  0  0  0  0
    6.2329  -18.1357   18.6875 C   0  0  0  0  0  0  0  0  0  0  0  0
    6.1077  -18.6248   17.4445 N   0  0  0  0  0  0  0  0  0  0  0  0
    7.3030  -19.0614   17.0590 C   0  0  0  0  0  0  0  0  0  0  0  0
    8.1860  -18.8433   18.0710 N   0  0  0  0  0  0  0  0  0  0  0  0
    8.8014  -15.9590   21.7681 C   0  0  0  0  0  0  0  0  0  0  0  0
    9.9697  -16.1761   22.1591 O   0  0  0  0  0  0  0  0  0  0  0  0
    7.0288  -11.1676   27.5687 C   0  0  0  0  0  0  0  0  0  0  0  0
    6.2138  -12.3205   26.4302 S   0  0  0  0  0  0  0  0  0  0  0  0
    7.3668  -13.6130   25.9144 C   0  0  0  0  0  0  0  0  0  0  0  0
    7.1137  -13.9699   24.4720 C   0  0  0  0  0  0  0  0  0  0  0  0
    8.1238  -14.9513   23.9436 C   0  0  2  0  0  0  0  0  0  0  0  0
    7.8355  -15.3395   22.5948 N   0  0  0  0  0  0  0  0  0  0  0  0
    8.2150  -16.1593   24.8235 C   0  0  0  0  0  0  0  0  0  0  0  0
    7.2353  -16.8591   25.1674 O   0  0  0  0  0  0  0  0  0  0  0  0
   10.2445  -19.0958   24.1525 C   0  0  0  0  0  0  0  0  0  0  0  0
   10.6792  -18.6260   25.5036 C   0  0  1  0  0  0  0  0  0  0  0  0
   11.9109  -17.9889   25.3647 O   0  0  0  0  0  0  0  0  0  0  0  0
    9.6624  -17.7205   26.1718 C   0  0  2  0  0  0  0  0  0  0  0  0
    9.4830  -16.5806   25.3288 N   0  0  0  0  0  0  0  0  0  0  0  0
    9.9928  -17.4120   27.5574 C   0  0  0  0  0  0  0  0  0  0  0  0
    9.9179  -18.3880   28.5426 O   0  0  0  0  0  0  0  0  0  0  0  0
   10.3606  -16.2682   27.9539 O   0  0  0  0  0  0  0  0  0  0  0  0
  2  1  1  6
  2  3  1  0
  3  4  1  0
  4  5  2  0
  5  6  1  0
  7  6  1  0
  8  4  1  0
  8  7  2  0
  9  2  1  0
 10  9  2  0
 11 12  1  0
 13 12  1  0
 15 14  1  1
 14 13  1  0
 15 16  1  0
 16  9  1  0
 17 18  2  0
 17 15  1  0
 20 22  1  0
 20 19  1  6
 21 20  1  0
 22 23  1  6
 23 17  1  0
 24 22  1  0
 25 24  1  0
 26 24  2  0
M  END
$$$$
