HMT.pdb
     RDKit          3D

 26 26  0  0  1  0  0  0  0  0999 V2000
   10.0586  -13.8227   19.6159 N   0  0  0  0  0  0  0  0  0  0  0  0
    8.8437  -14.2021   20.2786 C   0  0  1  0  0  0  0  0  0  0  0  0
    8.4143  -15.5568   19.7159 C   0  0  0  0  0  0  0  0  0  0  0  0
    8.0734  -15.4317   18.2838 C   0  0  0  0  0  0  0  0  0  0  0  0
    8.1806  -14.3447   17.4486 C   0  0  0  0  0  0  0  0  0  0  0  0
    7.7526  -14.6902   16.2249 N   0  0  0  0  0  0  0  0  0  0  0  0
    7.3799  -15.9657   16.2715 C   0  0  0  0  0  0  0  0  0  0  0  0
    7.5766  -16.4238   17.5375 N   0  0  0  0  0  0  0  0  0  0  0  0
    8.9982  -14.3055   21.7526 C   0  0  0  0  0  0  0  0  0  0  0  0
   10.1019  -14.7113   22.1795 O   0  0  0  0  0  0  0  0  0  0  0  0
    7.4581  -11.2070   27.8532 C   0  0  0  0  0  0  0  0  0  0  0  0
    6.1896  -12.2574   27.0935 S   0  0  0  0  0  0  0  0  0  0  0  0
    6.9582  -13.6597   26.2516 C   0  0  0  0  0  0  0  0  0  0  0  0
    6.8931  -13.4513   24.7602 C   0  0  0  0  0  0  0  0  0  0  0  0
    8.0355  -14.1168   24.0428 C   0  0  2  0  0  0  0  0  0  0  0  0
    7.9383  -13.9580   22.6221 N   0  0  0  0  0  0  0  0  0  0  0  0
    8.1246  -15.5685   24.3983 C   0  0  0  0  0  0  0  0  0  0  0  0
    7.2170  -16.4049   24.1877 O   0  0  0  0  0  0  0  0  0  0  0  0
   11.0117  -19.3936   25.1235 C   0  0  0  0  0  0  0  0  0  0  0  0
   10.7196  -17.9714   24.7668 C   0  0  1  0  0  0  0  0  0  0  0  0
   10.6409  -17.8808   23.3783 O   0  0  0  0  0  0  0  0  0  0  0  0
    9.4607  -17.4416   25.4261 C   0  0  2  0  0  0  0  0  0  0  0  0
    9.3040  -16.0801   25.0209 N   0  0  0  0  0  0  0  0  0  0  0  0
    9.4333  -17.6590   26.8670 C   0  0  0  0  0  0  0  0  0  0  0  0
    8.8910  -18.8199   27.4028 O   0  0  0  0  0  0  0  0  0  0  0  0
    9.8870  -16.8326   27.7109 O   0  0  0  0  0  0  0  0  0  0  0  0
  2  1  1  6
  2  3  1  0
  3  4  1  0
  4  5  2  0
  5  6  1  0
  7  6  1  0
  8  4  1  0
  8  7  2  0
  9  2  1  0
 10  9  2  0
 11 12  1  0
 13 12  1  0
 15 14  1  1
 14 13  1  0
 15 16  1  0
 16  9  1  0
 17 18  2  0
 17 15  1  0
 20 22  1  0
 20 19  1  6
 21 20  1  0
 22 23  1  1
 23 17  1  0
 24 22  1  0
 25 24  1  0
 26 24  2  0
M  END
$$$$
