HMT.pdb
     RDKit          3D

 26 26  0  0  1  0  0  0  0  0999 V2000
    6.4088  -15.0248   21.0682 N   0  0  0  0  0  0  0  0  0  0  0  0
    7.5484  -15.8665   21.2968 C   0  0  1  0  0  0  0  0  0  0  0  0
    8.4119  -15.8268   20.0363 C   0  0  0  0  0  0  0  0  0  0  0  0
    8.1695  -14.5759   19.2885 C   0  0  0  0  0  0  0  0  0  0  0  0
    7.4864  -13.4451   19.6693 C   0  0  0  0  0  0  0  0  0  0  0  0
    7.5208  -12.5552   18.6658 N   0  0  0  0  0  0  0  0  0  0  0  0
    8.2079  -13.0992   17.6657 C   0  0  0  0  0  0  0  0  0  0  0  0
    8.6079  -14.3426   18.0470 N   0  0  0  0  0  0  0  0  0  0  0  0
    8.3588  -15.4361   22.4651 C   0  0  0  0  0  0  0  0  0  0  0  0
    8.9410  -14.3325   22.3752 O   0  0  0  0  0  0  0  0  0  0  0  0
    6.9525  -11.4280   25.9465 C   0  0  0  0  0  0  0  0  0  0  0  0
    6.6494  -12.8490   27.0320 S   0  0  0  0  0  0  0  0  0  0  0  0
    7.8486  -14.1595   26.6993 C   0  0  0  0  0  0  0  0  0  0  0  0
    7.6786  -14.6531   25.2852 C   0  0  0  0  0  0  0  0  0  0  0  0
    8.7015  -15.6935   24.9195 C   0  0  2  0  0  0  0  0  0  0  0  0
    8.4591  -16.2463   23.6200 N   0  0  0  0  0  0  0  0  0  0  0  0
    8.7553  -16.7827   25.9454 C   0  0  0  0  0  0  0  0  0  0  0  0
    7.8165  -17.0680   26.7233 O   0  0  0  0  0  0  0  0  0  0  0  0
   10.8474  -20.1208   25.2593 C   0  0  0  0  0  0  0  0  0  0  0  0
   11.1649  -19.5422   26.6008 C   0  0  1  0  0  0  0  0  0  0  0  0
   12.4155  -18.9321   26.5241 O   0  0  0  0  0  0  0  0  0  0  0  0
   10.1077  -18.5725   27.0933 C   0  0  2  0  0  0  0  0  0  0  0  0
    9.9351  -17.5761   26.0835 N   0  0  0  0  0  0  0  0  0  0  0  0
   10.3835  -18.0524   28.4265 C   0  0  0  0  0  0  0  0  0  0  0  0
   10.3498  -18.8847   29.5378 O   0  0  0  0  0  0  0  0  0  0  0  0
   10.6653  -16.8420   28.6639 O   0  0  0  0  0  0  0  0  0  0  0  0
  2  1  1  6
  2  3  1  0
  3  4  1  0
  4  5  2  0
  5  6  1  0
  7  6  1  0
  8  4  1  0
  8  7  2  0
  9  2  1  0
 10  9  2  0
 11 12  1  0
 13 12  1  0
 15 14  1  1
 14 13  1  0
 15 16  1  0
 16  9  1  0
 17 18  2  0
 17 15  1  0
 20 22  1  0
 20 19  1  6
 21 20  1  0
 22 23  1  6
 23 17  1  0
 24 22  1  0
 25 24  1  0
 26 24  2  0
M  END
$$$$
