HMT.pdb
     RDKit          3D

 26 26  0  0  1  0  0  0  0  0999 V2000
   11.4571  -14.5565   20.3703 N   0  0  0  0  0  0  0  0  0  0  0  0
   10.1065  -14.3815   20.8225 C   0  0  1  0  0  0  0  0  0  0  0  0
    9.2074  -15.2424   19.9356 C   0  0  0  0  0  0  0  0  0  0  0  0
    8.7472  -14.4660   18.7659 C   0  0  0  0  0  0  0  0  0  0  0  0
    9.0977  -13.1997   18.3610 C   0  0  0  0  0  0  0  0  0  0  0  0
    8.4282  -12.8992   17.2378 N   0  0  0  0  0  0  0  0  0  0  0  0
    7.6671  -13.9446   16.9282 C   0  0  0  0  0  0  0  0  0  0  0  0
    7.8620  -14.9098   17.8673 N   0  0  0  0  0  0  0  0  0  0  0  0
    9.9185  -14.7715   22.2437 C   0  0  0  0  0  0  0  0  0  0  0  0
   10.9455  -15.0839   22.8861 O   0  0  0  0  0  0  0  0  0  0  0  0
    7.3373  -10.8402   27.4147 C   0  0  0  0  0  0  0  0  0  0  0  0
    6.4703  -11.6397   26.0369 S   0  0  0  0  0  0  0  0  0  0  0  0
    6.9657  -13.3727   25.9052 C   0  0  0  0  0  0  0  0  0  0  0  0
    7.1539  -13.7357   24.4544 C   0  0  0  0  0  0  0  0  0  0  0  0
    8.4265  -14.5029   24.2208 C   0  0  2  0  0  0  0  0  0  0  0  0
    8.6321  -14.7848   22.8311 N   0  0  0  0  0  0  0  0  0  0  0  0
    8.4468  -15.7710   25.0166 C   0  0  0  0  0  0  0  0  0  0  0  0
    8.1841  -15.8429   26.2387 O   0  0  0  0  0  0  0  0  0  0  0  0
    8.8145  -19.4012   22.8762 C   0  0  0  0  0  0  0  0  0  0  0  0
    9.6189  -19.2150   24.1225 C   0  0  1  0  0  0  0  0  0  0  0  0
   10.9023  -18.8161   23.7538 O   0  0  0  0  0  0  0  0  0  0  0  0
    8.9923  -18.2301   25.0907 C   0  0  2  0  0  0  0  0  0  0  0  0
    8.7825  -17.0064   24.3830 N   0  0  0  0  0  0  0  0  0  0  0  0
    9.7377  -18.0974   26.3361 C   0  0  0  0  0  0  0  0  0  0  0  0
    9.9208  -19.1873   27.1772 O   0  0  0  0  0  0  0  0  0  0  0  0
   10.2573  -17.0138   26.7318 O   0  0  0  0  0  0  0  0  0  0  0  0
  2  1  1  6
  2  3  1  0
  3  4  1  0
  4  5  2  0
  5  6  1  0
  7  6  1  0
  8  4  1  0
  8  7  2  0
  9  2  1  0
 10  9  2  0
 11 12  1  0
 13 12  1  0
 15 14  1  6
 14 13  1  0
 15 16  1  0
 16  9  1  0
 17 18  2  0
 17 15  1  0
 20 22  1  0
 20 19  1  6
 21 20  1  0
 22 23  1  6
 23 17  1  0
 24 22  1  0
 25 24  1  0
 26 24  2  0
M  END
$$$$
