HMT.pdb
     RDKit          3D

 26 26  0  0  1  0  0  0  0  0999 V2000
    7.5887  -16.7129   20.4955 N   0  0  0  0  0  0  0  0  0  0  0  0
    8.9846  -16.5307   20.7737 C   0  0  1  0  0  0  0  0  0  0  0  0
    9.5635  -15.6447   19.6709 C   0  0  0  0  0  0  0  0  0  0  0  0
    8.7826  -14.3959   19.5544 C   0  0  0  0  0  0  0  0  0  0  0  0
    8.9915  -13.1727   20.1464 C   0  0  0  0  0  0  0  0  0  0  0  0
    8.0278  -12.3264   19.7525 N   0  0  0  0  0  0  0  0  0  0  0  0
    7.2202  -12.9878   18.9288 C   0  0  0  0  0  0  0  0  0  0  0  0
    7.6830  -14.2614   18.8056 N   0  0  0  0  0  0  0  0  0  0  0  0
    9.2322  -15.8998   22.0958 C   0  0  0  0  0  0  0  0  0  0  0  0
   10.4200  -15.6313   22.3820 O   0  0  0  0  0  0  0  0  0  0  0  0
    7.3051  -10.9923   26.7579 C   0  0  0  0  0  0  0  0  0  0  0  0
    6.3798  -12.5507   26.6886 S   0  0  0  0  0  0  0  0  0  0  0  0
    7.4860  -13.9192   26.2773 C   0  0  0  0  0  0  0  0  0  0  0  0
    7.2867  -14.3149   24.8366 C   0  0  0  0  0  0  0  0  0  0  0  0
    8.3863  -15.2107   24.3357 C   0  0  2  0  0  0  0  0  0  0  0  0
    8.1648  -15.6209   22.9808 N   0  0  0  0  0  0  0  0  0  0  0  0
    8.5535  -16.4073   25.2199 C   0  0  0  0  0  0  0  0  0  0  0  0
    7.6163  -17.1535   25.5843 O   0  0  0  0  0  0  0  0  0  0  0  0
   11.7510  -19.8951   26.3856 C   0  0  0  0  0  0  0  0  0  0  0  0
   11.3856  -18.5717   25.7939 C   0  0  1  0  0  0  0  0  0  0  0  0
   11.2508  -18.7358   24.4165 O   0  0  0  0  0  0  0  0  0  0  0  0
   10.1312  -17.9759   26.4035 C   0  0  2  0  0  0  0  0  0  0  0  0
    9.8495  -16.7611   25.7054 N   0  0  0  0  0  0  0  0  0  0  0  0
   10.2042  -17.8465   27.8533 C   0  0  0  0  0  0  0  0  0  0  0  0
    9.7293  -18.8532   28.6839 O   0  0  0  0  0  0  0  0  0  0  0  0
   10.6901  -16.8394   28.4451 O   0  0  0  0  0  0  0  0  0  0  0  0
  2  1  1  6
  2  3  1  0
  3  4  1  0
  4  5  2  0
  5  6  1  0
  7  6  1  0
  8  4  1  0
  8  7  2  0
  9  2  1  0
 10  9  2  0
 11 12  1  0
 13 12  1  0
 15 14  1  1
 14 13  1  0
 15 16  1  0
 16  9  1  0
 17 18  2  0
 17 15  1  0
 20 22  1  0
 20 19  1  1
 21 20  1  0
 22 23  1  6
 23 17  1  0
 24 22  1  0
 25 24  1  0
 26 24  2  0
M  END
$$$$
