CLT.pdb
     RDKit          3D

 22 21  0  0  1  0  0  0  0  0999 V2000
   21.8646  -10.8757  -21.1978 N   0  0  0  0  0  0  0  0  0  0  0  0
   22.5585   -9.6451  -20.8550 C   0  0  1  0  0  0  0  0  0  0  0  0
   21.8395   -8.4601  -21.4528 C   0  0  0  0  0  0  0  0  0  0  0  0
   22.0775   -8.5421  -23.2535 S   0  0  0  0  0  0  0  0  0  0  0  0
   22.6373   -9.5854  -19.3733 C   0  0  0  0  0  0  0  0  0  0  0  0
   21.6633  -10.0431  -18.7289 O   0  0  0  0  0  0  0  0  0  0  0  0
   24.7481  -10.5661  -14.5605 C   0  0  0  0  0  0  0  0  0  0  0  0
   25.5928   -9.7980  -15.5122 C   0  0  1  0  0  0  0  0  0  0  0  0
   27.0047  -10.4022  -15.4582 C   0  0  0  0  0  0  0  0  0  0  0  0
   25.1152   -9.6381  -16.8915 C   0  0  0  0  0  0  0  0  0  0  0  0
   23.8164   -9.0017  -17.1960 C   0  0  2  0  0  0  0  0  0  0  0  0
   23.7506   -9.0408  -18.6966 N   0  0  0  0  0  0  0  0  0  0  0  0
   23.5838   -7.6158  -16.8377 C   0  0  0  0  0  0  0  0  0  0  0  0
   24.3183   -6.6937  -17.3431 O   0  0  0  0  0  0  0  0  0  0  0  0
   20.9669   -5.5001  -17.7310 C   0  0  0  0  0  0  0  0  0  0  0  0
   21.0523   -5.3053  -16.2473 C   0  0  1  0  0  0  0  0  0  0  0  0
   20.0045   -6.0611  -15.6733 O   0  0  0  0  0  0  0  0  0  0  0  0
   22.3690   -5.7685  -15.6472 C   0  0  2  0  0  0  0  0  0  0  0  0
   22.5744   -7.1750  -15.9562 N   0  0  0  0  0  0  0  0  0  0  0  0
   22.5028   -5.4068  -14.2411 C   0  0  0  0  0  0  0  0  0  0  0  0
   22.5235   -6.1715  -13.2525 O   0  0  0  0  0  0  0  0  0  0  0  0
   22.6261   -4.0429  -13.9318 O   0  0  0  0  0  0  0  0  0  0  0  0
  2  1  1  1
  2  3  1  0
  2  5  1  0
  3  4  1  0
  5 12  1  0
  5  6  2  0
  8  7  1  1
  8 10  1  0
  8  9  1  0
 11 10  1  6
 11 13  1  0
 12 11  1  0
 13 19  1  0
 13 14  2  0
 16 15  1  6
 16 18  1  0
 17 16  1  0
 18 20  1  0
 18 19  1  1
 20 22  1  0
 21 20  2  0
M  END
$$$$
