CLT.pdb
     RDKit          3D

 22 21  0  0  1  0  0  0  0  0999 V2000
   26.3837  -33.7771   -8.5438 N   0  0  0  0  0  0  0  0  0  0  0  0
   27.2163  -32.9606   -7.6756 C   0  0  1  0  0  0  0  0  0  0  0  0
   26.3521  -32.0794   -6.8066 C   0  0  0  0  0  0  0  0  0  0  0  0
   25.2739  -33.1762   -5.8369 S   0  0  0  0  0  0  0  0  0  0  0  0
   28.0700  -33.8875   -6.8899 C   0  0  0  0  0  0  0  0  0  0  0  0
   27.7635  -35.1037   -6.9089 O   0  0  0  0  0  0  0  0  0  0  0  0
   33.6325  -33.2969   -6.4921 C   0  0  0  0  0  0  0  0  0  0  0  0
   32.3814  -34.0975   -6.4370 C   0  0  1  0  0  0  0  0  0  0  0  0
   32.7900  -35.5776   -6.3745 C   0  0  0  0  0  0  0  0  0  0  0  0
   31.3844  -33.7583   -5.4138 C   0  0  0  0  0  0  0  0  0  0  0  0
   30.0534  -34.4002   -5.3816 C   0  0  2  0  0  0  0  0  0  0  0  0
   29.1839  -33.4418   -6.1453 N   0  0  0  0  0  0  0  0  0  0  0  0
   29.3763  -34.6077   -4.1160 C   0  0  0  0  0  0  0  0  0  0  0  0
   28.7103  -33.6494   -3.5837 O   0  0  0  0  0  0  0  0  0  0  0  0
   29.5014  -38.3259   -1.7045 C   0  0  0  0  0  0  0  0  0  0  0  0
   28.3116  -37.4450   -1.9389 C   0  0  1  0  0  0  0  0  0  0  0  0
   27.4863  -37.5578   -0.7966 O   0  0  0  0  0  0  0  0  0  0  0  0
   28.6674  -35.9812   -2.1371 C   0  0  2  0  0  0  0  0  0  0  0  0
   29.3773  -35.8212   -3.3967 N   0  0  0  0  0  0  0  0  0  0  0  0
   29.3181  -35.3989   -0.9694 C   0  0  0  0  0  0  0  0  0  0  0  0
   30.4982  -34.9992   -0.8704 O   0  0  0  0  0  0  0  0  0  0  0  0
   28.5498  -35.2573    0.1971 O   0  0  0  0  0  0  0  0  0  0  0  0
  2  1  1  6
  2  3  1  0
  2  5  1  0
  3  4  1  0
  5 12  1  0
  5  6  2  0
  8  7  1  1
  8 10  1  0
  8  9  1  0
 11 10  1  1
 11 13  1  0
 12 11  1  0
 13 19  1  0
 13 14  2  0
 16 15  1  1
 16 18  1  0
 17 16  1  0
 18 20  1  0
 18 19  1  6
 20 22  1  0
 21 20  2  0
M  END
$$$$
