CLT.pdb
     RDKit          3D

 22 21  0  0  1  0  0  0  0  0999 V2000
   20.8717  -20.3616  -10.7574 N   0  0  0  0  0  0  0  0  0  0  0  0
   21.7488  -21.4443  -11.1718 C   0  0  1  0  0  0  0  0  0  0  0  0
   21.0763  -22.2792  -12.2344 C   0  0  0  0  0  0  0  0  0  0  0  0
   19.6817  -23.1340  -11.4406 S   0  0  0  0  0  0  0  0  0  0  0  0
   23.0159  -20.8265  -11.6388 C   0  0  0  0  0  0  0  0  0  0  0  0
   22.9277  -19.7478  -12.2728 O   0  0  0  0  0  0  0  0  0  0  0  0
   27.5284  -21.2174   -8.4962 C   0  0  0  0  0  0  0  0  0  0  0  0
   26.4533  -20.7800   -9.4247 C   0  0  1  0  0  0  0  0  0  0  0  0
   26.3183  -19.2561   -9.2799 C   0  0  0  0  0  0  0  0  0  0  0  0
   26.5395  -21.1935  -10.8309 C   0  0  0  0  0  0  0  0  0  0  0  0
   25.5510  -20.7471  -11.8350 C   0  0  2  0  0  0  0  0  0  0  0  0
   24.2777  -21.4104  -11.3919 N   0  0  0  0  0  0  0  0  0  0  0  0
   25.7116  -21.1167  -13.2282 C   0  0  0  0  0  0  0  0  0  0  0  0
   25.8659  -22.3492  -13.5479 O   0  0  0  0  0  0  0  0  0  0  0  0
   23.3674  -20.2444  -16.2186 C   0  0  0  0  0  0  0  0  0  0  0  0
   24.7881  -19.8839  -16.5318 C   0  0  1  0  0  0  0  0  0  0  0  0
   24.9258  -18.5000  -16.2774 O   0  0  0  0  0  0  0  0  0  0  0  0
   25.8064  -20.6349  -15.6907 C   0  0  2  0  0  0  0  0  0  0  0  0
   25.7019  -20.2053  -14.3049 N   0  0  0  0  0  0  0  0  0  0  0  0
   27.1468  -20.5936  -16.2632 C   0  0  0  0  0  0  0  0  0  0  0  0
   27.5192  -21.0323  -17.3728 O   0  0  0  0  0  0  0  0  0  0  0  0
   28.1598  -19.9938  -15.4983 O   0  0  0  0  0  0  0  0  0  0  0  0
  2  1  1  6
  2  3  1  0
  2  5  1  0
  3  4  1  0
  5 12  1  0
  5  6  2  0
  8  7  1  1
  8 10  1  0
  8  9  1  0
 11 10  1  1
 11 13  1  0
 12 11  1  0
 13 19  1  0
 13 14  2  0
 16 15  1  1
 16 18  1  0
 17 16  1  0
 18 20  1  0
 18 19  1  1
 20 22  1  0
 21 20  2  0
M  END
$$$$
