CLT.pdb
     RDKit          3D

 22 21  0  0  1  0  0  0  0  0999 V2000
   35.1626  -38.5460   -7.2614 N   0  0  0  0  0  0  0  0  0  0  0  0
   33.9000  -38.7173   -6.5613 C   0  0  1  0  0  0  0  0  0  0  0  0
   33.8397  -40.0858   -5.9272 C   0  0  0  0  0  0  0  0  0  0  0  0
   33.3576  -41.2588   -7.2301 S   0  0  0  0  0  0  0  0  0  0  0  0
   33.7965  -37.6165   -5.5700 C   0  0  0  0  0  0  0  0  0  0  0  0
   34.8555  -37.2533   -5.0044 O   0  0  0  0  0  0  0  0  0  0  0  0
   30.9204  -33.2121   -6.6068 C   0  0  0  0  0  0  0  0  0  0  0  0
   31.9374  -34.1186   -6.0126 C   0  0  1  0  0  0  0  0  0  0  0  0
   33.1954  -33.2779   -5.7437 C   0  0  0  0  0  0  0  0  0  0  0  0
   31.5535  -34.9231   -4.8458 C   0  0  0  0  0  0  0  0  0  0  0  0
   32.4811  -35.8974   -4.2335 C   0  0  2  0  0  0  0  0  0  0  0  0
   32.5691  -36.9905   -5.2607 N   0  0  0  0  0  0  0  0  0  0  0  0
   32.1241  -36.5624   -2.9951 C   0  0  0  0  0  0  0  0  0  0  0  0
   31.3378  -37.5755   -3.0182 O   0  0  0  0  0  0  0  0  0  0  0  0
   32.7789  -37.1812    1.9240 C   0  0  0  0  0  0  0  0  0  0  0  0
   33.0670  -36.4502    0.6476 C   0  0  1  0  0  0  0  0  0  0  0  0
   34.3999  -36.7578    0.2905 O   0  0  0  0  0  0  0  0  0  0  0  0
   32.1539  -36.8464   -0.5003 C   0  0  2  0  0  0  0  0  0  0  0  0
   32.5925  -36.1846   -1.7192 N   0  0  0  0  0  0  0  0  0  0  0  0
   30.7415  -36.6913   -0.1731 C   0  0  0  0  0  0  0  0  0  0  0  0
   29.9798  -37.5334    0.3495 O   0  0  0  0  0  0  0  0  0  0  0  0
   30.1397  -35.4578   -0.4685 O   0  0  0  0  0  0  0  0  0  0  0  0
  2  1  1  1
  2  3  1  0
  2  5  1  0
  3  4  1  0
  5 12  1  0
  5  6  2  0
  8  7  1  1
  8 10  1  0
  8  9  1  0
 11 10  1  6
 11 13  1  0
 12 11  1  0
 13 19  1  0
 13 14  2  0
 16 15  1  1
 16 18  1  0
 17 16  1  0
 18 20  1  0
 18 19  1  6
 20 22  1  0
 21 20  2  0
M  END
$$$$
