CLT.pdb
     RDKit          3D

 22 21  0  0  1  0  0  0  0  0999 V2000
   12.7823  -12.9010  -11.2011 N   0  0  0  0  0  0  0  0  0  0  0  0
   12.4581  -11.4865  -11.1151 C   0  0  1  0  0  0  0  0  0  0  0  0
   11.4045  -11.2589  -10.0584 C   0  0  0  0  0  0  0  0  0  0  0  0
    9.8882  -12.0852  -10.6276 S   0  0  0  0  0  0  0  0  0  0  0  0
   13.7243  -10.7637  -10.8331 C   0  0  0  0  0  0  0  0  0  0  0  0
   14.5433  -11.3215  -10.0640 O   0  0  0  0  0  0  0  0  0  0  0  0
   18.1224  -10.2559  -13.3523 C   0  0  0  0  0  0  0  0  0  0  0  0
   17.2880  -10.0253  -12.1440 C   0  0  1  0  0  0  0  0  0  0  0  0
   18.2399   -9.6474  -10.9984 C   0  0  0  0  0  0  0  0  0  0  0  0
   16.1566   -9.0953  -12.2487 C   0  0  0  0  0  0  0  0  0  0  0  0
   15.2980   -8.7811  -11.0874 C   0  0  2  0  0  0  0  0  0  0  0  0
   14.0156   -9.5014  -11.3949 N   0  0  0  0  0  0  0  0  0  0  0  0
   14.9125   -7.4092  -10.8178 C   0  0  0  0  0  0  0  0  0  0  0  0
   14.1246   -6.7973  -11.6240 O   0  0  0  0  0  0  0  0  0  0  0  0
   13.2869   -5.9651   -7.6088 C   0  0  0  0  0  0  0  0  0  0  0  0
   14.4908   -5.1578   -7.9901 C   0  0  1  0  0  0  0  0  0  0  0  0
   15.5616   -5.6136   -7.1874 O   0  0  0  0  0  0  0  0  0  0  0  0
   14.8838   -5.3033   -9.4505 C   0  0  2  0  0  0  0  0  0  0  0  0
   15.3359   -6.6637   -9.6976 N   0  0  0  0  0  0  0  0  0  0  0  0
   15.7870   -4.2490   -9.8962 C   0  0  0  0  0  0  0  0  0  0  0  0
   15.5744   -3.0174   -9.9184 O   0  0  0  0  0  0  0  0  0  0  0  0
   17.0546   -4.6351  -10.3601 O   0  0  0  0  0  0  0  0  0  0  0  0
  2  1  1  1
  2  3  1  0
  2  5  1  0
  3  4  1  0
  5 12  1  0
  5  6  2  0
  8  7  1  6
  8 10  1  0
  8  9  1  0
 11 10  1  6
 11 13  1  0
 12 11  1  0
 13 19  1  0
 13 14  2  0
 16 15  1  6
 16 18  1  0
 17 16  1  0
 18 20  1  0
 18 19  1  1
 20 22  1  0
 21 20  2  0
M  END
$$$$
