CLT.pdb
     RDKit          3D

 22 21  0  0  1  0  0  0  0  0999 V2000
   17.1623  -10.7779  -18.0893 N   0  0  0  0  0  0  0  0  0  0  0  0
   18.1112   -9.7094  -18.3566 C   0  0  1  0  0  0  0  0  0  0  0  0
   17.3898   -8.4970  -18.8934 C   0  0  0  0  0  0  0  0  0  0  0  0
   16.8884   -8.8834  -20.5978 S   0  0  0  0  0  0  0  0  0  0  0  0
   18.8325   -9.4372  -17.0874 C   0  0  0  0  0  0  0  0  0  0  0  0
   18.1757   -9.5333  -16.0231 O   0  0  0  0  0  0  0  0  0  0  0  0
   22.5234   -9.9086  -13.2046 C   0  0  0  0  0  0  0  0  0  0  0  0
   22.9603   -9.8136  -14.6222 C   0  0  1  0  0  0  0  0  0  0  0  0
   24.0245  -10.8996  -14.8446 C   0  0  0  0  0  0  0  0  0  0  0  0
   21.9304   -9.8299  -15.6686 C   0  0  0  0  0  0  0  0  0  0  0  0
   20.9009   -8.7736  -15.7633 C   0  0  2  0  0  0  0  0  0  0  0  0
   20.1992   -9.0833  -17.0553 N   0  0  0  0  0  0  0  0  0  0  0  0
   21.2944   -7.3814  -15.8644 C   0  0  0  0  0  0  0  0  0  0  0  0
   22.0673   -7.0039  -16.8158 O   0  0  0  0  0  0  0  0  0  0  0  0
   19.3225   -4.4344  -16.5732 C   0  0  0  0  0  0  0  0  0  0  0  0
   20.1037   -4.0911  -15.3409 C   0  0  1  0  0  0  0  0  0  0  0  0
   19.2250   -4.2397  -14.2434 O   0  0  0  0  0  0  0  0  0  0  0  0
   21.3127   -4.9839  -15.1180 C   0  0  2  0  0  0  0  0  0  0  0  0
   20.8767   -6.3648  -14.9800 N   0  0  0  0  0  0  0  0  0  0  0  0
   22.1868   -4.4910  -14.0602 C   0  0  0  0  0  0  0  0  0  0  0  0
   22.4801   -5.0555  -12.9843 O   0  0  0  0  0  0  0  0  0  0  0  0
   22.7852   -3.2348  -14.2470 O   0  0  0  0  0  0  0  0  0  0  0  0
  2  1  1  1
  2  3  1  0
  2  5  1  0
  3  4  1  0
  5 12  1  0
  5  6  2  0
  8  7  1  1
  8 10  1  0
  8  9  1  0
 11 10  1  6
 11 13  1  0
 12 11  1  0
 13 19  1  0
 13 14  2  0
 16 15  1  6
 16 18  1  0
 17 16  1  0
 18 20  1  0
 18 19  1  1
 20 22  1  0
 21 20  2  0
M  END
$$$$
