CLT.pdb
     RDKit          3D

 22 21  0  0  1  0  0  0  0  0999 V2000
   28.1283  -21.7323  -15.6320 N   0  0  0  0  0  0  0  0  0  0  0  0
   27.3836  -20.5565  -15.2122 C   0  0  1  0  0  0  0  0  0  0  0  0
   26.8891  -19.7971  -16.4193 C   0  0  0  0  0  0  0  0  0  0  0  0
   28.3347  -18.9958  -17.1769 S   0  0  0  0  0  0  0  0  0  0  0  0
   26.2818  -21.0268  -14.3345 C   0  0  0  0  0  0  0  0  0  0  0  0
   25.7609  -22.1336  -14.6122 O   0  0  0  0  0  0  0  0  0  0  0  0
   26.2323  -19.9891   -8.8655 C   0  0  0  0  0  0  0  0  0  0  0  0
   26.0237  -20.6571  -10.1768 C   0  0  1  0  0  0  0  0  0  0  0  0
   25.8677  -22.1610   -9.9023 C   0  0  0  0  0  0  0  0  0  0  0  0
   24.9647  -20.1455  -11.0560 C   0  0  0  0  0  0  0  0  0  0  0  0
   24.6849  -20.7555  -12.3729 C   0  0  2  0  0  0  0  0  0  0  0  0
   25.8230  -20.2770  -13.2294 N   0  0  0  0  0  0  0  0  0  0  0  0
   23.4815  -20.3981  -13.0991 C   0  0  0  0  0  0  0  0  0  0  0  0
   23.2727  -19.1757  -13.4265 O   0  0  0  0  0  0  0  0  0  0  0  0
   22.2355  -21.6360  -16.3949 C   0  0  0  0  0  0  0  0  0  0  0  0
   21.0833  -21.7247  -15.4403 C   0  0  1  0  0  0  0  0  0  0  0  0
   20.9599  -23.0839  -15.0713 O   0  0  0  0  0  0  0  0  0  0  0  0
   21.2708  -20.8958  -14.1809 C   0  0  2  0  0  0  0  0  0  0  0  0
   22.4872  -21.3142  -13.5017 N   0  0  0  0  0  0  0  0  0  0  0  0
   20.0709  -20.8529  -13.3536 C   0  0  0  0  0  0  0  0  0  0  0  0
   19.9413  -21.2399  -12.1722 O   0  0  0  0  0  0  0  0  0  0  0  0
   18.9072  -20.3163  -13.9273 O   0  0  0  0  0  0  0  0  0  0  0  0
  2  1  1  6
  2  3  1  0
  2  5  1  0
  3  4  1  0
  5 12  1  0
  5  6  2  0
  8  7  1  1
  8 10  1  0
  8  9  1  0
 11 10  1  1
 11 13  1  0
 12 11  1  0
 13 19  1  0
 13 14  2  0
 16 15  1  6
 16 18  1  0
 17 16  1  0
 18 20  1  0
 18 19  1  1
 20 22  1  0
 21 20  2  0
M  END
$$$$
