CLT.pdb
     RDKit          3D

 22 21  0  0  1  0  0  0  0  0999 V2000
   13.6388  -12.2337  -10.8405 N   0  0  0  0  0  0  0  0  0  0  0  0
   15.0618  -11.9368  -10.8584 C   0  0  1  0  0  0  0  0  0  0  0  0
   15.7421  -12.7228  -11.9529 C   0  0  0  0  0  0  0  0  0  0  0  0
   15.9651  -14.4182  -11.3351 S   0  0  0  0  0  0  0  0  0  0  0  0
   15.2002  -10.4683  -11.0305 C   0  0  0  0  0  0  0  0  0  0  0  0
   14.3689   -9.8981  -11.7769 O   0  0  0  0  0  0  0  0  0  0  0  0
   15.1393   -5.3448   -9.9736 C   0  0  0  0  0  0  0  0  0  0  0  0
   15.8735   -6.2379   -9.0395 C   0  0  1  0  0  0  0  0  0  0  0  0
   15.3869   -5.9106   -7.6191 C   0  0  0  0  0  0  0  0  0  0  0  0
   15.8619   -7.6818   -9.3060 C   0  0  0  0  0  0  0  0  0  0  0  0
   16.3449   -8.2403  -10.5864 C   0  0  2  0  0  0  0  0  0  0  0  0
   16.2164   -9.7246  -10.3916 N   0  0  0  0  0  0  0  0  0  0  0  0
   17.7176   -8.0251  -11.0020 C   0  0  0  0  0  0  0  0  0  0  0  0
   18.6798   -8.3368  -10.2132 O   0  0  0  0  0  0  0  0  0  0  0  0
   19.7726   -9.6714  -13.3185 C   0  0  0  0  0  0  0  0  0  0  0  0
   19.9012   -8.2292  -13.7059 C   0  0  1  0  0  0  0  0  0  0  0  0
   19.0536   -8.0263  -14.8191 O   0  0  0  0  0  0  0  0  0  0  0  0
   19.4946   -7.2645  -12.6049 C   0  0  2  0  0  0  0  0  0  0  0  0
   18.1023   -7.4925  -12.2504 N   0  0  0  0  0  0  0  0  0  0  0  0
   19.8483   -5.8833  -12.9102 C   0  0  0  0  0  0  0  0  0  0  0  0
   19.0756   -4.9231  -13.1180 O   0  0  0  0  0  0  0  0  0  0  0  0
   21.2138   -5.5655  -12.9847 O   0  0  0  0  0  0  0  0  0  0  0  0
  2  1  1  6
  2  3  1  0
  2  5  1  0
  3  4  1  0
  5 12  1  0
  5  6  2  0
  8  7  1  6
  8 10  1  0
  8  9  1  0
 11 10  1  1
 11 13  1  0
 12 11  1  0
 13 19  1  0
 13 14  2  0
 16 15  1  1
 16 18  1  0
 17 16  1  0
 18 20  1  0
 18 19  1  6
 20 22  1  0
 21 20  2  0
M  END
$$$$
