CLT.pdb
     RDKit          3D

 22 21  0  0  1  0  0  0  0  0999 V2000
   17.3985  -10.6613  -18.6583 N   0  0  0  0  0  0  0  0  0  0  0  0
   18.5018   -9.7421  -18.8848 C   0  0  1  0  0  0  0  0  0  0  0  0
   18.0017   -8.4865  -19.5567 C   0  0  0  0  0  0  0  0  0  0  0  0
   17.5238   -8.9401  -21.2513 S   0  0  0  0  0  0  0  0  0  0  0  0
   19.1306   -9.4798  -17.5652 C   0  0  0  0  0  0  0  0  0  0  0  0
   18.3634   -9.3406  -16.5826 O   0  0  0  0  0  0  0  0  0  0  0  0
   22.6388  -10.2569  -13.4422 C   0  0  0  0  0  0  0  0  0  0  0  0
   23.1672  -10.0751  -14.8196 C   0  0  1  0  0  0  0  0  0  0  0  0
   24.2993  -11.0963  -15.0117 C   0  0  0  0  0  0  0  0  0  0  0  0
   22.2145  -10.0932  -15.9367 C   0  0  0  0  0  0  0  0  0  0  0  0
   21.1445   -9.0813  -16.0628 C   0  0  2  0  0  0  0  0  0  0  0  0
   20.5298   -9.3864  -17.3996 N   0  0  0  0  0  0  0  0  0  0  0  0
   21.4788   -7.6708  -16.1071 C   0  0  0  0  0  0  0  0  0  0  0  0
   22.1959   -7.2145  -17.0677 O   0  0  0  0  0  0  0  0  0  0  0  0
   19.6412   -4.8112  -16.8677 C   0  0  0  0  0  0  0  0  0  0  0  0
   20.2832   -4.4530  -15.5615 C   0  0  1  0  0  0  0  0  0  0  0  0
   19.2967   -4.6140  -14.5617 O   0  0  0  0  0  0  0  0  0  0  0  0
   21.4763   -5.3255  -15.2100 C   0  0  2  0  0  0  0  0  0  0  0  0
   21.0592   -6.7180  -15.1552 N   0  0  0  0  0  0  0  0  0  0  0  0
   22.2023   -4.8394  -14.0427 C   0  0  0  0  0  0  0  0  0  0  0  0
   22.3854   -5.4279  -12.9552 O   0  0  0  0  0  0  0  0  0  0  0  0
   22.7759   -3.5604  -14.1227 O   0  0  0  0  0  0  0  0  0  0  0  0
  2  1  1  1
  2  3  1  0
  2  5  1  0
  3  4  1  0
  5 12  1  0
  5  6  2  0
  8  7  1  1
  8 10  1  0
  8  9  1  0
 11 10  1  6
 11 13  1  0
 12 11  1  0
 13 19  1  0
 13 14  2  0
 16 15  1  6
 16 18  1  0
 17 16  1  0
 18 20  1  0
 18 19  1  1
 20 22  1  0
 21 20  2  0
M  END
$$$$
