CLT.pdb
     RDKit          3D

 22 21  0  0  1  0  0  0  0  0999 V2000
   18.1651  -14.3775  -17.2939 N   0  0  0  0  0  0  0  0  0  0  0  0
   18.5899  -13.1456  -17.9387 C   0  0  1  0  0  0  0  0  0  0  0  0
   17.3958  -12.4204  -18.5101 C   0  0  0  0  0  0  0  0  0  0  0  0
   16.8362  -13.3679  -19.9574 S   0  0  0  0  0  0  0  0  0  0  0  0
   19.3174  -12.3470  -16.9198 C   0  0  0  0  0  0  0  0  0  0  0  0
   18.7714  -12.2151  -15.7982 O   0  0  0  0  0  0  0  0  0  0  0  0
   23.4566  -10.8622  -13.7596 C   0  0  0  0  0  0  0  0  0  0  0  0
   23.6860  -11.0146  -15.2202 C   0  0  1  0  0  0  0  0  0  0  0  0
   25.0066  -11.7802  -15.3966 C   0  0  0  0  0  0  0  0  0  0  0  0
   22.6067  -11.5839  -16.0369 C   0  0  0  0  0  0  0  0  0  0  0  0
   21.2835  -10.9334  -16.1400 C   0  0  2  0  0  0  0  0  0  0  0  0
   20.5711  -11.7515  -17.1797 N   0  0  0  0  0  0  0  0  0  0  0  0
   21.1816   -9.5604  -16.5960 C   0  0  0  0  0  0  0  0  0  0  0  0
   21.6872   -9.2237  -17.7257 O   0  0  0  0  0  0  0  0  0  0  0  0
   18.4462   -7.7205  -17.7904 C   0  0  0  0  0  0  0  0  0  0  0  0
   19.0299   -6.8271  -16.7379 C   0  0  1  0  0  0  0  0  0  0  0  0
   18.2339   -6.9827  -15.5800 O   0  0  0  0  0  0  0  0  0  0  0  0
   20.4693   -7.1617  -16.3851 C   0  0  2  0  0  0  0  0  0  0  0  0
   20.5409   -8.5252  -15.8832 N   0  0  0  0  0  0  0  0  0  0  0  0
   21.0908   -6.1472  -15.5421 C   0  0  0  0  0  0  0  0  0  0  0  0
   21.4789   -6.2669  -14.3600 O   0  0  0  0  0  0  0  0  0  0  0  0
   21.2903   -4.8745  -16.1002 O   0  0  0  0  0  0  0  0  0  0  0  0
  2  1  1  1
  2  3  1  0
  2  5  1  0
  3  4  1  0
  5 12  1  0
  5  6  2  0
  8  7  1  1
  8 10  1  0
  8  9  1  0
 11 10  1  6
 11 13  1  0
 12 11  1  0
 13 19  1  0
 13 14  2  0
 16 15  1  6
 16 18  1  0
 17 16  1  0
 18 20  1  0
 18 19  1  1
 20 22  1  0
 21 20  2  0
M  END
$$$$
