CLT.pdb
     RDKit          3D

 22 21  0  0  1  0  0  0  0  0999 V2000
   19.0723  -11.8357  -18.8391 N   0  0  0  0  0  0  0  0  0  0  0  0
   20.0004  -10.7532  -19.1223 C   0  0  1  0  0  0  0  0  0  0  0  0
   19.3051   -9.6643  -19.9028 C   0  0  0  0  0  0  0  0  0  0  0  0
   19.1100  -10.2680  -21.6067 S   0  0  0  0  0  0  0  0  0  0  0  0
   20.5318  -10.2801  -17.8188 C   0  0  0  0  0  0  0  0  0  0  0  0
   19.7104  -10.1441  -16.8807 O   0  0  0  0  0  0  0  0  0  0  0  0
   23.9941  -10.4338  -13.6075 C   0  0  0  0  0  0  0  0  0  0  0  0
   24.5477  -10.2081  -14.9683 C   0  0  1  0  0  0  0  0  0  0  0  0
   25.8153  -11.0678  -15.0928 C   0  0  0  0  0  0  0  0  0  0  0  0
   23.6521  -10.3786  -16.1193 C   0  0  0  0  0  0  0  0  0  0  0  0
   22.4266   -9.5677  -16.2781 C   0  0  2  0  0  0  0  0  0  0  0  0
   21.8993   -9.9891  -17.6205 N   0  0  0  0  0  0  0  0  0  0  0  0
   22.5142   -8.1212  -16.3371 C   0  0  0  0  0  0  0  0  0  0  0  0
   23.2774   -7.5627  -17.2035 O   0  0  0  0  0  0  0  0  0  0  0  0
   20.1271   -5.5476  -17.2602 C   0  0  0  0  0  0  0  0  0  0  0  0
   20.6518   -5.1405  -15.9165 C   0  0  1  0  0  0  0  0  0  0  0  0
   19.6807   -5.5242  -14.9634 O   0  0  0  0  0  0  0  0  0  0  0  0
   21.9728   -5.7976  -15.5541 C   0  0  2  0  0  0  0  0  0  0  0  0
   21.7976   -7.2407  -15.4998 N   0  0  0  0  0  0  0  0  0  0  0  0
   22.5966   -5.1947  -14.3822 C   0  0  0  0  0  0  0  0  0  0  0  0
   22.8639   -5.7417  -13.2905 O   0  0  0  0  0  0  0  0  0  0  0  0
   22.9508   -3.8386  -14.4623 O   0  0  0  0  0  0  0  0  0  0  0  0
  2  1  1  1
  2  3  1  0
  2  5  1  0
  3  4  1  0
  5 12  1  0
  5  6  2  0
  8  7  1  1
  8 10  1  0
  8  9  1  0
 11 10  1  6
 11 13  1  0
 12 11  1  0
 13 19  1  0
 13 14  2  0
 16 15  1  6
 16 18  1  0
 17 16  1  0
 18 20  1  0
 18 19  1  1
 20 22  1  0
 21 20  2  0
M  END
$$$$
