CLT.pdb
     RDKit          3D

 22 21  0  0  1  0  0  0  0  0999 V2000
   28.2856  -22.6008  -16.2974 N   0  0  0  0  0  0  0  0  0  0  0  0
   27.8494  -21.3160  -15.7755 C   0  0  1  0  0  0  0  0  0  0  0  0
   27.3490  -20.4420  -16.8999 C   0  0  0  0  0  0  0  0  0  0  0  0
   28.7887  -20.0082  -17.9221 S   0  0  0  0  0  0  0  0  0  0  0  0
   26.8101  -21.5900  -14.7508 C   0  0  0  0  0  0  0  0  0  0  0  0
   25.9611  -22.4739  -15.0180 O   0  0  0  0  0  0  0  0  0  0  0  0
   24.9029  -21.7348   -9.4437 C   0  0  0  0  0  0  0  0  0  0  0  0
   25.3951  -20.4706  -10.0509 C   0  0  1  0  0  0  0  0  0  0  0  0
   26.1087  -19.6806   -8.9427 C   0  0  0  0  0  0  0  0  0  0  0  0
   26.2038  -20.5564  -11.2735 C   0  0  0  0  0  0  0  0  0  0  0  0
   25.6760  -21.1617  -12.5143 C   0  0  2  0  0  0  0  0  0  0  0  0
   26.7595  -20.8975  -13.5212 N   0  0  0  0  0  0  0  0  0  0  0  0
   24.4603  -20.6470  -13.1147 C   0  0  0  0  0  0  0  0  0  0  0  0
   24.4219  -19.4387  -13.5431 O   0  0  0  0  0  0  0  0  0  0  0  0
   22.6021  -21.4947  -16.1101 C   0  0  0  0  0  0  0  0  0  0  0  0
   21.5756  -21.4911  -15.0180 C   0  0  1  0  0  0  0  0  0  0  0  0
   21.3013  -22.8429  -14.7081 O   0  0  0  0  0  0  0  0  0  0  0  0
   22.0356  -20.7875  -13.7524 C   0  0  2  0  0  0  0  0  0  0  0  0
   23.2740  -21.3911  -13.2850 N   0  0  0  0  0  0  0  0  0  0  0  0
   20.9762  -20.6733  -12.7571 C   0  0  0  0  0  0  0  0  0  0  0  0
   20.9591  -21.1449  -11.5997 O   0  0  0  0  0  0  0  0  0  0  0  0
   19.8264  -19.9515  -13.1147 O   0  0  0  0  0  0  0  0  0  0  0  0
  2  1  1  6
  2  3  1  0
  2  5  1  0
  3  4  1  0
  5 12  1  0
  5  6  2  0
  8  7  1  1
  8 10  1  0
  8  9  1  0
 11 10  1  1
 11 13  1  0
 12 11  1  0
 13 19  1  0
 13 14  2  0
 16 15  1  6
 16 18  1  0
 17 16  1  0
 18 20  1  0
 18 19  1  1
 20 22  1  0
 21 20  2  0
M  END
$$$$
