WNV.pdb
     RDKit          3D

 30 31  0  0  1  0  0  0  0  0999 V2000
   27.1447  -20.5169  -10.9493 N   0  0  0  0  0  0  0  0  0  0  0  0
   26.1514  -20.6677   -9.9427 C   0  0  1  0  0  0  0  0  0  0  0  0
   26.4485  -19.9771   -8.6440 C   0  0  0  0  0  0  0  0  0  0  0  0
   27.7108  -20.3809   -8.0060 C   0  0  0  0  0  0  0  0  0  0  0  0
   28.7190  -21.1763   -8.5592 C   0  0  0  0  0  0  0  0  0  0  0  0
   29.7115  -21.3122   -7.6857 N   0  0  0  0  0  0  0  0  0  0  0  0
   29.4209  -20.6422   -6.5593 C   0  0  0  0  0  0  0  0  0  0  0  0
   30.1472  -20.5073   -5.3982 C   0  0  0  0  0  0  0  0  0  0  0  0
   29.6282  -19.7613   -4.3657 C   0  0  0  0  0  0  0  0  0  0  0  0
   28.4086  -19.1731   -4.5136 C   0  0  0  0  0  0  0  0  0  0  0  0
   27.6824  -19.3191   -5.6990 C   0  0  0  0  0  0  0  0  0  0  0  0
   28.1789  -20.0601   -6.7493 C   0  0  0  0  0  0  0  0  0  0  0  0
   24.7939  -20.2893  -10.4563 C   0  0  0  0  0  0  0  0  0  0  0  0
   24.4707  -19.0969  -10.5881 O   0  0  0  0  0  0  0  0  0  0  0  0
   20.1931  -20.0684  -12.2125 N   0  0  0  0  0  0  0  0  0  0  0  0
   21.2162  -20.2511  -13.2050 C   0  0  0  0  0  0  0  0  0  0  0  0
   20.8812  -19.9227  -14.3705 O   0  0  0  0  0  0  0  0  0  0  0  0
   22.5329  -20.7853  -12.8200 C   0  0  0  0  0  0  0  0  0  0  0  0
   22.5292  -21.0496  -11.3197 C   0  0  2  0  0  0  0  0  0  0  0  0
   23.8570  -21.2974  -10.8009 N   0  0  0  0  0  0  0  0  0  0  0  0
   21.5899  -22.1258  -10.9488 C   0  0  0  0  0  0  0  0  0  0  0  0
   21.9268  -23.3364  -10.9741 O   0  0  0  0  0  0  0  0  0  0  0  0
   18.0302  -21.3639   -8.8095 C   0  0  0  0  0  0  0  0  0  0  0  0
   18.7769  -22.6813   -8.8049 C   0  0  2  0  0  0  0  0  0  0  0  0
   19.8432  -22.6467   -7.7527 C   0  0  0  0  0  0  0  0  0  0  0  0
   19.3128  -22.9197  -10.1992 C   0  0  2  0  0  0  0  0  0  0  0  0
   20.2362  -21.8624  -10.5361 N   0  0  0  0  0  0  0  0  0  0  0  0
   18.2301  -23.0580  -11.2030 C   0  0  0  0  0  0  0  0  0  0  0  0
   17.9155  -22.1445  -12.0108 O   0  0  0  0  0  0  0  0  0  0  0  0
   17.4950  -24.2341  -11.2984 O   0  0  0  0  0  0  0  0  0  0  0  0
  2  1  1  6
  2 13  1  0
  2  3  1  0
  3  4  1  0
  4  5  2  0
  6  5  1  0
  7  6  1  0
  8  7  2  0
  9  8  1  0
 10 11  1  0
 10  9  2  0
 11 12  2  0
 12  7  1  0
 12  4  1  0
 13 14  2  0
 16 15  1  0
 17 16  2  0
 18 16  1  0
 19 18  1  6
 19 21  1  0
 20 19  1  0
 20 13  1  0
 21 22  2  0
 24 23  1  6
 24 26  1  0
 25 24  1  0
 26 28  1  0
 27 21  1  0
 26 27  1  6
 28 29  2  0
 28 30  1  0
M  END
$$$$
