WNV.pdb
     RDKit          3D

 30 31  0  0  1  0  0  0  0  0999 V2000
   27.8262  -22.0788  -14.0574 N   0  0  0  0  0  0  0  0  0  0  0  0
   26.7058  -21.7639  -13.2399 C   0  0  1  0  0  0  0  0  0  0  0  0
   26.8280  -20.4930  -12.4514 C   0  0  0  0  0  0  0  0  0  0  0  0
   27.7784  -20.5523  -11.3305 C   0  0  0  0  0  0  0  0  0  0  0  0
   29.1741  -20.5855  -11.4086 C   0  0  0  0  0  0  0  0  0  0  0  0
   29.6900  -20.6237  -10.1843 N   0  0  0  0  0  0  0  0  0  0  0  0
   28.7028  -20.6183   -9.2745 C   0  0  0  0  0  0  0  0  0  0  0  0
   28.7666  -20.6515   -7.9002 C   0  0  0  0  0  0  0  0  0  0  0  0
   27.5981  -20.6412   -7.1745 C   0  0  0  0  0  0  0  0  0  0  0  0
   26.4049  -20.5988   -7.8299 C   0  0  0  0  0  0  0  0  0  0  0  0
   26.3560  -20.5655   -9.2265 C   0  0  0  0  0  0  0  0  0  0  0  0
   27.5108  -20.5741   -9.9779 C   0  0  0  0  0  0  0  0  0  0  0  0
   25.4313  -21.7875  -14.0303 C   0  0  0  0  0  0  0  0  0  0  0  0
   25.2519  -21.0022  -14.9762 O   0  0  0  0  0  0  0  0  0  0  0  0
   24.3829  -26.0807  -15.1691 N   0  0  0  0  0  0  0  0  0  0  0  0
   23.5852  -24.9467  -15.5472 C   0  0  0  0  0  0  0  0  0  0  0  0
   23.7076  -24.5959  -16.7474 O   0  0  0  0  0  0  0  0  0  0  0  0
   22.7132  -24.2930  -14.5575 C   0  0  0  0  0  0  0  0  0  0  0  0
   23.1513  -22.8416  -14.4089 C   0  0  2  0  0  0  0  0  0  0  0  0
   24.4087  -22.7153  -13.7041 N   0  0  0  0  0  0  0  0  0  0  0  0
   22.0992  -22.0047  -13.7999 C   0  0  0  0  0  0  0  0  0  0  0  0
   21.9429  -21.9398  -12.5546 O   0  0  0  0  0  0  0  0  0  0  0  0
   21.6797  -18.4767  -14.1552 C   0  0  0  0  0  0  0  0  0  0  0  0
   20.2951  -18.9787  -14.5071 C   0  0  2  0  0  0  0  0  0  0  0  0
   19.2679  -18.0397  -13.9515 C   0  0  0  0  0  0  0  0  0  0  0  0
   20.1642  -20.3928  -13.9861 C   0  0  2  0  0  0  0  0  0  0  0  0
   21.1897  -21.2128  -14.5860 N   0  0  0  0  0  0  0  0  0  0  0  0
   18.8063  -20.9488  -14.2005 C   0  0  0  0  0  0  0  0  0  0  0  0
   18.4394  -21.4788  -15.2824 O   0  0  0  0  0  0  0  0  0  0  0  0
   17.8533  -20.9079  -13.1892 O   0  0  0  0  0  0  0  0  0  0  0  0
  2  1  1  6
  2 13  1  0
  2  3  1  0
  3  4  1  0
  4  5  2  0
  6  5  1  0
  7  6  1  0
  8  7  2  0
  9  8  1  0
 10 11  1  0
 10  9  2  0
 11 12  2  0
 12  7  1  0
 12  4  1  0
 13 14  2  0
 16 15  1  0
 17 16  2  0
 18 16  1  0
 19 18  1  1
 19 21  1  0
 20 19  1  0
 20 13  1  0
 21 22  2  0
 24 23  1  1
 24 26  1  0
 25 24  1  0
 26 28  1  0
 27 21  1  0
 26 27  1  6
 28 29  2  0
 28 30  1  0
M  END
$$$$
