WNV.pdb
     RDKit          3D

 30 31  0  0  1  0  0  0  0  0999 V2000
   27.7086  -21.7158  -13.5404 N   0  0  0  0  0  0  0  0  0  0  0  0
   26.5847  -21.4936  -12.6977 C   0  0  1  0  0  0  0  0  0  0  0  0
   26.7120  -20.3314  -11.7569 C   0  0  0  0  0  0  0  0  0  0  0  0
   27.7834  -20.4620  -10.7577 C   0  0  0  0  0  0  0  0  0  0  0  0
   29.1438  -20.6734  -11.0021 C   0  0  0  0  0  0  0  0  0  0  0  0
   29.8029  -20.7242   -9.8491 N   0  0  0  0  0  0  0  0  0  0  0  0
   28.9472  -20.5564   -8.8284 C   0  0  0  0  0  0  0  0  0  0  0  0
   29.1809  -20.5392   -7.4722 C   0  0  0  0  0  0  0  0  0  0  0  0
   28.1238  -20.3516   -6.6123 C   0  0  0  0  0  0  0  0  0  0  0  0
   26.8705  -20.1875   -7.1199 C   0  0  0  0  0  0  0  0  0  0  0  0
   26.6487  -20.2075   -8.4998 C   0  0  0  0  0  0  0  0  0  0  0  0
   27.6893  -20.3928   -9.3838 C   0  0  0  0  0  0  0  0  0  0  0  0
   25.3162  -21.4065  -13.4934 C   0  0  0  0  0  0  0  0  0  0  0  0
   25.1196  -20.4658  -14.2808 O   0  0  0  0  0  0  0  0  0  0  0  0
   21.4951  -22.9544  -16.8282 N   0  0  0  0  0  0  0  0  0  0  0  0
   21.6017  -23.6654  -15.5839 C   0  0  0  0  0  0  0  0  0  0  0  0
   20.5342  -24.1993  -15.1915 O   0  0  0  0  0  0  0  0  0  0  0  0
   22.8905  -23.7259  -14.8749 C   0  0  0  0  0  0  0  0  0  0  0  0
   23.0705  -22.4357  -14.0852 C   0  0  2  0  0  0  0  0  0  0  0  0
   24.3194  -22.4066  -13.3551 N   0  0  0  0  0  0  0  0  0  0  0  0
   21.9185  -22.1592  -13.2051 C   0  0  0  0  0  0  0  0  0  0  0  0
   21.7645  -22.7551  -12.1094 O   0  0  0  0  0  0  0  0  0  0  0  0
   19.6213  -18.6329  -13.4855 C   0  0  0  0  0  0  0  0  0  0  0  0
   19.7887  -19.4944  -12.2515 C   0  0  2  0  0  0  0  0  0  0  0  0
   21.0468  -19.1038  -11.5373 C   0  0  0  0  0  0  0  0  0  0  0  0
   19.7669  -20.9431  -12.6864 C   0  0  2  0  0  0  0  0  0  0  0  0
   20.9030  -21.1957  -13.5406 N   0  0  0  0  0  0  0  0  0  0  0  0
   18.4862  -21.3180  -13.3330 C   0  0  0  0  0  0  0  0  0  0  0  0
   18.3532  -21.4495  -14.5784 O   0  0  0  0  0  0  0  0  0  0  0  0
   17.3456  -21.5467  -12.5718 O   0  0  0  0  0  0  0  0  0  0  0  0
  2  1  1  6
  2 13  1  0
  2  3  1  0
  3  4  1  0
  4  5  2  0
  6  5  1  0
  7  6  1  0
  8  7  2  0
  9  8  1  0
 10 11  1  0
 10  9  2  0
 11 12  2  0
 12  7  1  0
 12  4  1  0
 13 14  2  0
 16 15  1  0
 17 16  2  0
 18 16  1  0
 19 18  1  1
 19 21  1  0
 20 19  1  0
 20 13  1  0
 21 22  2  0
 24 23  1  6
 24 26  1  0
 25 24  1  0
 26 28  1  0
 27 21  1  0
 26 27  1  6
 28 29  2  0
 28 30  1  0
M  END
$$$$
