WNV.pdb
     RDKit          3D

 30 31  0  0  1  0  0  0  0  0999 V2000
   28.5859  -20.1638   -9.8786 N   0  0  0  0  0  0  0  0  0  0  0  0
   27.3079  -20.7582   -9.6883 C   0  0  1  0  0  0  0  0  0  0  0  0
   26.4915  -20.1734   -8.5732 C   0  0  0  0  0  0  0  0  0  0  0  0
   27.2766  -19.6231   -7.4578 C   0  0  0  0  0  0  0  0  0  0  0  0
   27.9600  -18.4036   -7.4279 C   0  0  0  0  0  0  0  0  0  0  0  0
   28.5427  -18.2461   -6.2438 N   0  0  0  0  0  0  0  0  0  0  0  0
   28.2847  -19.3089   -5.4651 C   0  0  0  0  0  0  0  0  0  0  0  0
   28.6816  -19.5770   -4.1749 C   0  0  0  0  0  0  0  0  0  0  0  0
   28.2865  -20.7541   -3.5831 C   0  0  0  0  0  0  0  0  0  0  0  0
   27.5128  -21.6281   -4.2850 C   0  0  0  0  0  0  0  0  0  0  0  0
   27.1176  -21.3420   -5.5949 C   0  0  0  0  0  0  0  0  0  0  0  0
   27.4983  -20.1702   -6.2116 C   0  0  0  0  0  0  0  0  0  0  0  0
   26.5268  -20.7914  -10.9683 C   0  0  0  0  0  0  0  0  0  0  0  0
   26.6181  -19.8696  -11.7962 O   0  0  0  0  0  0  0  0  0  0  0  0
   23.8504  -22.5280  -14.9111 N   0  0  0  0  0  0  0  0  0  0  0  0
   24.3698  -23.6905  -14.2447 C   0  0  0  0  0  0  0  0  0  0  0  0
   24.3013  -24.7525  -14.9125 O   0  0  0  0  0  0  0  0  0  0  0  0
   24.9252  -23.5776  -12.8861 C   0  0  0  0  0  0  0  0  0  0  0  0
   24.9926  -22.1027  -12.5108 C   0  0  2  0  0  0  0  0  0  0  0  0
   25.6687  -21.8856  -11.2501 N   0  0  0  0  0  0  0  0  0  0  0  0
   23.6622  -21.4640  -12.5324 C   0  0  0  0  0  0  0  0  0  0  0  0
   22.9110  -21.4649  -11.5248 O   0  0  0  0  0  0  0  0  0  0  0  0
   22.9356  -18.3060  -14.8999 C   0  0  0  0  0  0  0  0  0  0  0  0
   21.7582  -19.2578  -14.9243 C   0  0  2  0  0  0  0  0  0  0  0  0
   20.4835  -18.4729  -14.9919 C   0  0  0  0  0  0  0  0  0  0  0  0
   21.8532  -20.1502  -13.7066 C   0  0  2  0  0  0  0  0  0  0  0  0
   23.1412  -20.8023  -13.6998 N   0  0  0  0  0  0  0  0  0  0  0  0
   20.7344  -21.1203  -13.6303 C   0  0  0  0  0  0  0  0  0  0  0  0
   20.6909  -22.1801  -14.3093 O   0  0  0  0  0  0  0  0  0  0  0  0
   19.6552  -20.8960  -12.7830 O   0  0  0  0  0  0  0  0  0  0  0  0
  2  1  1  6
  2 13  1  0
  2  3  1  0
  3  4  1  0
  4  5  2  0
  6  5  1  0
  7  6  1  0
  8  7  2  0
  9  8  1  0
 10 11  1  0
 10  9  2  0
 11 12  2  0
 12  7  1  0
 12  4  1  0
 13 14  2  0
 16 15  1  0
 17 16  2  0
 18 16  1  0
 19 18  1  1
 19 21  1  0
 20 19  1  0
 20 13  1  0
 21 22  2  0
 24 23  1  1
 24 26  1  0
 25 24  1  0
 26 28  1  0
 27 21  1  0
 26 27  1  6
 28 29  2  0
 28 30  1  0
M  END
$$$$
