WNV.pdb
     RDKit          3D

 30 31  0  0  1  0  0  0  0  0999 V2000
   26.1044  -22.9127  -11.6428 N   0  0  0  0  0  0  0  0  0  0  0  0
   25.4967  -21.7316  -11.1344 C   0  0  1  0  0  0  0  0  0  0  0  0
   26.3542  -20.5011  -11.1820 C   0  0  0  0  0  0  0  0  0  0  0  0
   27.5651  -20.5613  -10.3492 C   0  0  0  0  0  0  0  0  0  0  0  0
   28.8508  -20.9318  -10.7551 C   0  0  0  0  0  0  0  0  0  0  0  0
   29.6860  -20.8511   -9.7245 N   0  0  0  0  0  0  0  0  0  0  0  0
   29.0221  -20.4409   -8.6321 C   0  0  0  0  0  0  0  0  0  0  0  0
   29.4763  -20.2215   -7.3516 C   0  0  0  0  0  0  0  0  0  0  0  0
   28.5889  -19.8002   -6.3887 C   0  0  0  0  0  0  0  0  0  0  0  0
   27.2820  -19.6097   -6.7219 C   0  0  0  0  0  0  0  0  0  0  0  0
   26.8355  -19.8368   -8.0268 C   0  0  0  0  0  0  0  0  0  0  0  0
   27.7028  -20.2583   -9.0110 C   0  0  0  0  0  0  0  0  0  0  0  0
   24.1640  -21.4851  -11.7769 C   0  0  0  0  0  0  0  0  0  0  0  0
   23.9988  -21.6670  -12.9948 O   0  0  0  0  0  0  0  0  0  0  0  0
   20.3844  -22.8427   -8.8112 N   0  0  0  0  0  0  0  0  0  0  0  0
   20.1387  -22.1795  -10.0622 C   0  0  0  0  0  0  0  0  0  0  0  0
   19.4289  -22.8293  -10.8700 O   0  0  0  0  0  0  0  0  0  0  0  0
   20.7034  -20.8436  -10.3143 C   0  0  0  0  0  0  0  0  0  0  0  0
   21.7015  -20.9475  -11.4605 C   0  0  2  0  0  0  0  0  0  0  0  0
   23.0682  -21.0388  -10.9940 N   0  0  0  0  0  0  0  0  0  0  0  0
   21.5330  -19.8589  -12.4426 C   0  0  0  0  0  0  0  0  0  0  0  0
   21.7821  -18.6615  -12.1531 O   0  0  0  0  0  0  0  0  0  0  0  0
   22.8916  -19.6897  -15.9409 C   0  0  0  0  0  0  0  0  0  0  0  0
   21.4041  -19.4437  -16.0820 C   0  0  2  0  0  0  0  0  0  0  0  0
   21.1660  -18.4317  -17.1612 C   0  0  0  0  0  0  0  0  0  0  0  0
   20.8699  -19.0220  -14.7311 C   0  0  2  0  0  0  0  0  0  0  0  0
   21.0761  -20.0946  -13.7872 N   0  0  0  0  0  0  0  0  0  0  0  0
   19.4506  -18.5971  -14.7941 C   0  0  0  0  0  0  0  0  0  0  0  0
   18.4872  -19.4075  -14.8272 O   0  0  0  0  0  0  0  0  0  0  0  0
   19.1125  -17.2488  -14.8203 O   0  0  0  0  0  0  0  0  0  0  0  0
  2  1  1  6
  2 13  1  0
  2  3  1  0
  3  4  1  0
  4  5  2  0
  6  5  1  0
  7  6  1  0
  8  7  2  0
  9  8  1  0
 10 11  1  0
 10  9  2  0
 11 12  2  0
 12  7  1  0
 12  4  1  0
 13 14  2  0
 16 15  1  0
 17 16  2  0
 18 16  1  0
 19 18  1  1
 19 21  1  0
 20 19  1  0
 20 13  1  0
 21 22  2  0
 24 23  1  1
 24 26  1  0
 25 24  1  0
 26 28  1  0
 27 21  1  0
 26 27  1  1
 28 29  2  0
 28 30  1  0
M  END
$$$$
