WNV.pdb
     RDKit          3D

 30 31  0  0  1  0  0  0  0  0999 V2000
   24.4388  -20.9540  -15.6349 N   0  0  0  0  0  0  0  0  0  0  0  0
   25.0315  -20.1079  -14.6574 C   0  0  1  0  0  0  0  0  0  0  0  0
   24.0988  -19.1234  -14.0151 C   0  0  0  0  0  0  0  0  0  0  0  0
   23.7191  -17.9872  -14.8685 C   0  0  0  0  0  0  0  0  0  0  0  0
   22.4664  -17.7423  -15.4394 C   0  0  0  0  0  0  0  0  0  0  0  0
   22.5053  -16.6107  -16.1353 N   0  0  0  0  0  0  0  0  0  0  0  0
   23.7338  -16.0741  -16.0625 C   0  0  0  0  0  0  0  0  0  0  0  0
   24.2292  -14.9196  -16.6244 C   0  0  0  0  0  0  0  0  0  0  0  0
   25.5434  -14.5778  -16.4051 C   0  0  0  0  0  0  0  0  0  0  0  0
   26.3254  -15.3876  -15.6384 C   0  0  0  0  0  0  0  0  0  0  0  0
   25.8080  -16.5573  -15.0743 C   0  0  0  0  0  0  0  0  0  0  0  0
   24.4952  -16.9230  -15.2770 C   0  0  0  0  0  0  0  0  0  0  0  0
   25.7698  -20.9048  -13.6231 C   0  0  0  0  0  0  0  0  0  0  0  0
   25.2593  -21.9151  -13.1111 O   0  0  0  0  0  0  0  0  0  0  0  0
   29.9331  -22.6747  -10.5249 N   0  0  0  0  0  0  0  0  0  0  0  0
   29.8519  -21.2767  -10.8477 C   0  0  0  0  0  0  0  0  0  0  0  0
   30.3171  -20.5076   -9.9698 O   0  0  0  0  0  0  0  0  0  0  0  0
   29.2587  -20.8459  -12.1243 C   0  0  0  0  0  0  0  0  0  0  0  0
   27.7450  -20.9877  -12.0279 C   0  0  2  0  0  0  0  0  0  0  0  0
   27.0704  -20.5106  -13.2158 N   0  0  0  0  0  0  0  0  0  0  0  0
   27.2061  -20.3592  -10.8061 C   0  0  0  0  0  0  0  0  0  0  0  0
   26.9494  -19.1302  -10.7518 O   0  0  0  0  0  0  0  0  0  0  0  0
   24.7465  -20.6370   -6.6434 C   0  0  0  0  0  0  0  0  0  0  0  0
   25.4534  -21.4117   -7.7358 C   0  0  2  0  0  0  0  0  0  0  0  0
   26.0850  -22.6374   -7.1491 C   0  0  0  0  0  0  0  0  0  0  0  0
   26.4440  -20.4825   -8.4017 C   0  0  2  0  0  0  0  0  0  0  0  0
   26.9401  -21.1068   -9.6050 N   0  0  0  0  0  0  0  0  0  0  0  0
   27.5399  -20.0788   -7.4879 C   0  0  0  0  0  0  0  0  0  0  0  0
   28.6895  -20.5923   -7.5180 O   0  0  0  0  0  0  0  0  0  0  0  0
   27.3405  -19.0892   -6.5321 O   0  0  0  0  0  0  0  0  0  0  0  0
  2  1  1  6
  2 13  1  0
  2  3  1  0
  3  4  1  0
  4  5  2  0
  6  5  1  0
  7  6  1  0
  8  7  2  0
  9  8  1  0
 10 11  1  0
 10  9  2  0
 11 12  2  0
 12  7  1  0
 12  4  1  0
 13 14  2  0
 16 15  1  0
 17 16  2  0
 18 16  1  0
 19 18  1  6
 19 21  1  0
 20 19  1  0
 20 13  1  0
 21 22  2  0
 24 23  1  1
 24 26  1  0
 25 24  1  0
 26 28  1  0
 27 21  1  0
 26 27  1  6
 28 29  2  0
 28 30  1  0
M  END
$$$$
