WNV.pdb
     RDKit          3D

 30 31  0  0  1  0  0  0  0  0999 V2000
   26.4984  -22.8379  -11.9688 N   0  0  0  0  0  0  0  0  0  0  0  0
   25.8668  -21.6832  -11.4297 C   0  0  1  0  0  0  0  0  0  0  0  0
   26.7242  -20.4528  -11.3763 C   0  0  0  0  0  0  0  0  0  0  0  0
   27.8334  -20.5161  -10.4124 C   0  0  0  0  0  0  0  0  0  0  0  0
   29.1740  -20.8039  -10.6865 C   0  0  0  0  0  0  0  0  0  0  0  0
   29.8809  -20.7557   -9.5620 N   0  0  0  0  0  0  0  0  0  0  0  0
   29.0768  -20.4472   -8.5322 C   0  0  0  0  0  0  0  0  0  0  0  0
   29.3700  -20.2936   -7.1964 C   0  0  0  0  0  0  0  0  0  0  0  0
   28.3585  -19.9750   -6.3204 C   0  0  0  0  0  0  0  0  0  0  0  0
   27.0904  -19.8189   -6.7923 C   0  0  0  0  0  0  0  0  0  0  0  0
   26.8078  -19.9782   -8.1520 C   0  0  0  0  0  0  0  0  0  0  0  0
   27.8019  -20.2965   -9.0514 C   0  0  0  0  0  0  0  0  0  0  0  0
   24.5644  -21.4032  -12.1189 C   0  0  0  0  0  0  0  0  0  0  0  0
   24.3977  -21.6993  -13.3139 O   0  0  0  0  0  0  0  0  0  0  0  0
   19.5919  -20.8066  -12.7165 N   0  0  0  0  0  0  0  0  0  0  0  0
   19.7913  -20.4281  -11.3445 C   0  0  0  0  0  0  0  0  0  0  0  0
   18.7345  -20.2012  -10.7039 O   0  0  0  0  0  0  0  0  0  0  0  0
   21.1533  -20.3327  -10.7942 C   0  0  0  0  0  0  0  0  0  0  0  0
   22.1478  -20.6504  -11.9035 C   0  0  2  0  0  0  0  0  0  0  0  0
   23.4995  -20.7928  -11.4072 N   0  0  0  0  0  0  0  0  0  0  0  0
   22.0738  -19.6765  -13.0099 C   0  0  0  0  0  0  0  0  0  0  0  0
   22.1804  -18.4400  -12.8118 O   0  0  0  0  0  0  0  0  0  0  0  0
   22.1484  -21.0125  -17.0114 C   0  0  0  0  0  0  0  0  0  0  0  0
   22.7401  -19.6831  -16.5922 C   0  0  2  0  0  0  0  0  0  0  0  0
   24.1787  -19.8731  -16.2184 C   0  0  0  0  0  0  0  0  0  0  0  0
   21.8931  -19.1281  -15.4684 C   0  0  2  0  0  0  0  0  0  0  0  0
   21.8766  -20.0753  -14.3790 N   0  0  0  0  0  0  0  0  0  0  0  0
   20.5266  -18.7680  -15.9177 C   0  0  0  0  0  0  0  0  0  0  0  0
   19.5038  -19.4442  -15.6300 O   0  0  0  0  0  0  0  0  0  0  0  0
   20.3092  -17.6378  -16.6975 O   0  0  0  0  0  0  0  0  0  0  0  0
  2  1  1  6
  2 13  1  0
  2  3  1  0
  3  4  1  0
  4  5  2  0
  6  5  1  0
  7  6  1  0
  8  7  2  0
  9  8  1  0
 10 11  1  0
 10  9  2  0
 11 12  2  0
 12  7  1  0
 12  4  1  0
 13 14  2  0
 16 15  1  0
 17 16  2  0
 18 16  1  0
 19 18  1  1
 19 21  1  0
 20 19  1  0
 20 13  1  0
 21 22  2  0
 24 23  1  1
 24 26  1  0
 25 24  1  0
 26 28  1  0
 27 21  1  0
 26 27  1  1
 28 29  2  0
 28 30  1  0
M  END
$$$$
