WNV.pdb
     RDKit          3D

 30 31  0  0  1  0  0  0  0  0999 V2000
   27.2763  -21.7719  -15.1698 N   0  0  0  0  0  0  0  0  0  0  0  0
   26.3414  -21.5659  -14.1179 C   0  0  1  0  0  0  0  0  0  0  0  0
   26.5621  -20.3265  -13.3013 C   0  0  0  0  0  0  0  0  0  0  0  0
   27.8863  -20.2335  -12.6679 C   0  0  0  0  0  0  0  0  0  0  0  0
   29.0299  -19.6209  -13.1894 C   0  0  0  0  0  0  0  0  0  0  0  0
   30.0307  -19.7292  -12.3217 N   0  0  0  0  0  0  0  0  0  0  0  0
   29.6162  -20.3912  -11.2298 C   0  0  0  0  0  0  0  0  0  0  0  0
   30.3052  -20.7341  -10.0888 C   0  0  0  0  0  0  0  0  0  0  0  0
   29.6536  -21.4267   -9.0950 C   0  0  0  0  0  0  0  0  0  0  0  0
   28.3429  -21.7583   -9.2607 C   0  0  0  0  0  0  0  0  0  0  0  0
   27.6563  -21.4032  -10.4253 C   0  0  0  0  0  0  0  0  0  0  0  0
   28.2843  -20.7088  -11.4362 C   0  0  0  0  0  0  0  0  0  0  0  0
   24.9305  -21.6351  -14.6222 C   0  0  0  0  0  0  0  0  0  0  0  0
   24.5439  -20.8942  -15.5415 O   0  0  0  0  0  0  0  0  0  0  0  0
   20.4478  -24.8601  -16.0625 N   0  0  0  0  0  0  0  0  0  0  0  0
   20.7818  -24.2667  -14.7970 C   0  0  0  0  0  0  0  0  0  0  0  0
   19.7974  -23.8506  -14.1364 O   0  0  0  0  0  0  0  0  0  0  0  0
   22.1873  -24.1844  -14.3669 C   0  0  0  0  0  0  0  0  0  0  0  0
   22.6456  -22.7361  -14.4820 C   0  0  2  0  0  0  0  0  0  0  0  0
   24.0149  -22.5558  -14.0505 N   0  0  0  0  0  0  0  0  0  0  0  0
   21.7299  -21.8084  -13.7899 C   0  0  0  0  0  0  0  0  0  0  0  0
   21.7330  -21.6851  -12.5392 O   0  0  0  0  0  0  0  0  0  0  0  0
   19.3452  -17.7013  -13.5021 C   0  0  0  0  0  0  0  0  0  0  0  0
   20.1694  -18.6661  -14.3285 C   0  0  2  0  0  0  0  0  0  0  0  0
   19.8400  -18.4876  -15.7794 C   0  0  0  0  0  0  0  0  0  0  0  0
   19.9033  -20.0648  -13.8173 C   0  0  2  0  0  0  0  0  0  0  0  0
   20.7800  -20.9892  -14.4962 N   0  0  0  0  0  0  0  0  0  0  0  0
   18.4770  -20.4495  -13.9451 C   0  0  0  0  0  0  0  0  0  0  0  0
   18.0355  -21.1652  -14.8826 O   0  0  0  0  0  0  0  0  0  0  0  0
   17.5396  -20.0253  -13.0103 O   0  0  0  0  0  0  0  0  0  0  0  0
  2  1  1  6
  2 13  1  0
  2  3  1  0
  3  4  1  0
  4  5  2  0
  6  5  1  0
  7  6  1  0
  8  7  2  0
  9  8  1  0
 10 11  1  0
 10  9  2  0
 11 12  2  0
 12  7  1  0
 12  4  1  0
 13 14  2  0
 16 15  1  0
 17 16  2  0
 18 16  1  0
 19 18  1  1
 19 21  1  0
 20 19  1  0
 20 13  1  0
 21 22  2  0
 24 23  1  1
 24 26  1  0
 25 24  1  0
 26 28  1  0
 27 21  1  0
 26 27  1  6
 28 29  2  0
 28 30  1  0
M  END
$$$$
