CME.pdb
     RDKit          3D

 24 23  0  0  1  0  0  0  0  0999 V2000
   28.1900  -21.0218  -15.9177 N   0  0  0  0  0  0  0  0  0  0  0  0
   28.2730  -20.5468  -14.5727 C   0  0  1  0  0  0  0  0  0  0  0  0
   28.3720  -19.0303  -14.6303 C   0  0  0  0  0  0  0  0  0  0  0  0
   26.8506  -18.2913  -15.2372 S   0  0  0  0  0  0  0  0  0  0  0  0
   27.1135  -20.9728  -13.7402 C   0  0  0  0  0  0  0  0  0  0  0  0
   26.1158  -21.5259  -14.2869 O   0  0  0  0  0  0  0  0  0  0  0  0
   26.6885  -19.1784   -7.4683 C   0  0  0  0  0  0  0  0  0  0  0  0
   25.6053  -20.6439   -7.4478 S   0  0  0  0  0  0  0  0  0  0  0  0
   25.0673  -21.0705   -9.1486 C   0  0  0  0  0  0  0  0  0  0  0  0
   26.2174  -20.7908  -10.0636 C   0  0  0  0  0  0  0  0  0  0  0  0
   25.9311  -21.0334  -11.5031 C   0  0  2  0  0  0  0  0  0  0  0  0
   27.0615  -20.7909  -12.3441 N   0  0  0  0  0  0  0  0  0  0  0  0
   24.7065  -20.3257  -11.9741 C   0  0  0  0  0  0  0  0  0  0  0  0
   24.8655  -19.2125  -12.5299 O   0  0  0  0  0  0  0  0  0  0  0  0
   23.4009  -20.8360  -11.8283 N   0  0  0  0  0  0  0  0  0  0  0  0
   22.2663  -20.3017  -12.5657 C   0  0  1  0  0  0  0  0  0  0  0  0
   22.5663  -20.2249  -14.0186 C   0  0  0  0  0  0  0  0  0  0  0  0
   22.3559  -21.4378  -14.8452 C   0  0  0  0  0  0  0  0  0  0  0  0
   22.4874  -21.3485  -16.2832 C   0  0  0  0  0  0  0  0  0  0  0  0
   22.6657  -20.3392  -16.9886 O   0  0  0  0  0  0  0  0  0  0  0  0
   21.0061  -20.9321  -12.1838 C   0  0  0  0  0  0  0  0  0  0  0  0
   19.7973  -20.4085  -12.6471 O   0  0  0  0  0  0  0  0  0  0  0  0
   22.4080  -22.5542  -17.0270 O   0  0  0  0  0  0  0  0  0  0  0  0
   20.9619  -21.9346  -11.4435 O   0  0  0  0  0  0  0  0  0  0  0  0
  2  1  1  6
  3  4  1  0
  3  2  1  0
  5  6  2  0
  5  2  1  0
  7  8  1  0
  8  9  1  0
  9 10  1  0
 11 10  1  1
 11 13  1  0
 11 12  1  0
 12  5  1  0
 13 15  1  0
 14 13  2  0
 15 16  1  0
 16 21  1  0
 17 18  1  0
 16 17  1  6
 19 20  2  0
 19 18  1  0
 21 24  2  0
 21 22  1  0
 23 19  1  0
M  END
$$$$
