CME.pdb
     RDKit          3D

 24 23  0  0  1  0  0  0  0  0999 V2000
   29.5847  -31.8726  -15.8037 N   0  0  0  0  0  0  0  0  0  0  0  0
   28.2055  -31.8710  -15.4306 C   0  0  1  0  0  0  0  0  0  0  0  0
   27.3933  -32.1467  -16.6866 C   0  0  0  0  0  0  0  0  0  0  0  0
   27.0480  -30.6354  -17.5953 S   0  0  0  0  0  0  0  0  0  0  0  0
   27.8964  -32.8683  -14.3680 C   0  0  0  0  0  0  0  0  0  0  0  0
   28.6697  -33.8524  -14.1845 O   0  0  0  0  0  0  0  0  0  0  0  0
   24.4283  -31.2372   -9.1699 C   0  0  0  0  0  0  0  0  0  0  0  0
   25.4393  -32.6428   -8.6008 S   0  0  0  0  0  0  0  0  0  0  0  0
   25.8458  -33.7528  -10.0032 C   0  0  0  0  0  0  0  0  0  0  0  0
   26.1153  -32.8874  -11.1934 C   0  0  0  0  0  0  0  0  0  0  0  0
   26.4562  -33.6356  -12.4332 C   0  0  2  0  0  0  0  0  0  0  0  0
   26.7644  -32.7773  -13.5344 N   0  0  0  0  0  0  0  0  0  0  0  0
   25.4387  -34.6680  -12.7810 C   0  0  0  0  0  0  0  0  0  0  0  0
   24.4066  -34.2778  -13.3777 O   0  0  0  0  0  0  0  0  0  0  0  0
   25.5758  -36.0374  -12.4778 N   0  0  0  0  0  0  0  0  0  0  0  0
   24.4997  -36.9948  -12.6835 C   0  0  1  0  0  0  0  0  0  0  0  0
   24.2081  -37.7419  -11.4330 C   0  0  0  0  0  0  0  0  0  0  0  0
   23.1383  -38.7683  -11.4602 C   0  0  0  0  0  0  0  0  0  0  0  0
   22.8154  -39.4895  -10.2484 C   0  0  0  0  0  0  0  0  0  0  0  0
   21.8574  -39.3210   -9.4725 O   0  0  0  0  0  0  0  0  0  0  0  0
   23.3604  -36.4112  -13.3853 C   0  0  0  0  0  0  0  0  0  0  0  0
   22.5580  -35.4651  -12.7440 O   0  0  0  0  0  0  0  0  0  0  0  0
   23.6851  -40.5401   -9.8567 O   0  0  0  0  0  0  0  0  0  0  0  0
   23.0646  -36.7311  -14.5537 O   0  0  0  0  0  0  0  0  0  0  0  0
  2  1  1  6
  3  4  1  0
  3  2  1  0
  5  6  2  0
  5  2  1  0
  7  8  1  0
  8  9  1  0
  9 10  1  0
 11 10  1  1
 11 13  1  0
 11 12  1  0
 12  5  1  0
 13 15  1  0
 14 13  2  0
 15 16  1  0
 16 21  1  0
 17 18  1  0
 16 17  1  1
 19 20  2  0
 19 18  1  0
 21 24  2  0
 21 22  1  0
 23 19  1  0
M  END
$$$$
