CME.pdb
     RDKit          3D

 24 23  0  0  1  0  0  0  0  0999 V2000
   19.2366  -12.9687  -17.4314 N   0  0  0  0  0  0  0  0  0  0  0  0
   19.5403  -11.6138  -17.7682 C   0  0  1  0  0  0  0  0  0  0  0  0
   18.2194  -10.8833  -17.9544 C   0  0  0  0  0  0  0  0  0  0  0  0
   17.3190  -11.4994  -19.3822 S   0  0  0  0  0  0  0  0  0  0  0  0
   20.3800  -10.9400  -16.7387 C   0  0  0  0  0  0  0  0  0  0  0  0
   20.0292  -10.9682  -15.5237 O   0  0  0  0  0  0  0  0  0  0  0  0
   26.2395  -11.7528  -14.5916 C   0  0  0  0  0  0  0  0  0  0  0  0
   26.3646  -10.0709  -15.2827 S   0  0  0  0  0  0  0  0  0  0  0  0
   24.7315   -9.2369  -15.2458 C   0  0  0  0  0  0  0  0  0  0  0  0
   23.8170  -10.0068  -16.1453 C   0  0  0  0  0  0  0  0  0  0  0  0
   22.4021   -9.5479  -16.1223 C   0  0  2  0  0  0  0  0  0  0  0  0
   21.5723  -10.2556  -17.0469 N   0  0  0  0  0  0  0  0  0  0  0  0
   22.2740   -8.0688  -16.2563 C   0  0  0  0  0  0  0  0  0  0  0  0
   22.4904   -7.5746  -17.3888 O   0  0  0  0  0  0  0  0  0  0  0  0
   21.9282   -7.2120  -15.1921 N   0  0  0  0  0  0  0  0  0  0  0  0
   21.7220   -5.7834  -15.3744 C   0  0  1  0  0  0  0  0  0  0  0  0
   20.2924   -5.4839  -15.6449 C   0  0  0  0  0  0  0  0  0  0  0  0
   19.8685   -4.0638  -15.6946 C   0  0  0  0  0  0  0  0  0  0  0  0
   18.4787   -3.7459  -15.9402 C   0  0  0  0  0  0  0  0  0  0  0  0
   17.7076   -3.0441  -15.2613 O   0  0  0  0  0  0  0  0  0  0  0  0
   22.3794   -4.9887  -14.3412 C   0  0  0  0  0  0  0  0  0  0  0  0
   22.6458   -3.6366  -14.5670 O   0  0  0  0  0  0  0  0  0  0  0  0
   17.8755   -4.2892  -17.1040 O   0  0  0  0  0  0  0  0  0  0  0  0
   22.7242   -5.4762  -13.2464 O   0  0  0  0  0  0  0  0  0  0  0  0
  2  1  1  1
  3  4  1  0
  3  2  1  0
  5  6  2  0
  5  2  1  0
  7  8  1  0
  8  9  1  0
  9 10  1  0
 11 10  1  6
 11 13  1  0
 11 12  1  0
 12  5  1  0
 13 15  1  0
 14 13  2  0
 15 16  1  0
 16 21  1  0
 17 18  1  0
 16 17  1  1
 19 20  2  0
 19 18  1  0
 21 24  2  0
 21 22  1  0
 23 19  1  0
M  END
$$$$
