CME.pdb
     RDKit          3D

 24 23  0  0  1  0  0  0  0  0999 V2000
   20.2373  -12.2236  -16.1346 N   0  0  0  0  0  0  0  0  0  0  0  0
   19.1454  -11.3518  -16.4334 C   0  0  1  0  0  0  0  0  0  0  0  0
   18.4697  -10.9999  -15.1171 C   0  0  0  0  0  0  0  0  0  0  0  0
   17.5496  -12.3935  -14.4533 S   0  0  0  0  0  0  0  0  0  0  0  0
   19.5733  -10.1219  -17.1568 C   0  0  0  0  0  0  0  0  0  0  0  0
   20.6643   -9.5595  -16.8511 O   0  0  0  0  0  0  0  0  0  0  0  0
   18.2234   -5.7751  -23.7031 C   0  0  0  0  0  0  0  0  0  0  0  0
   17.9511   -7.2583  -22.6797 S   0  0  0  0  0  0  0  0  0  0  0  0
   18.8682   -7.1254  -21.0968 C   0  0  0  0  0  0  0  0  0  0  0  0
   18.4699   -8.2933  -20.2510 C   0  0  0  0  0  0  0  0  0  0  0  0
   19.1733   -8.3733  -18.9426 C   0  0  2  0  0  0  0  0  0  0  0  0
   18.8146   -9.5333  -18.1877 N   0  0  0  0  0  0  0  0  0  0  0  0
   19.0576   -7.1169  -18.1486 C   0  0  0  0  0  0  0  0  0  0  0  0
   18.2154   -7.1014  -17.2191 O   0  0  0  0  0  0  0  0  0  0  0  0
   19.8337   -5.9648  -18.3863 N   0  0  0  0  0  0  0  0  0  0  0  0
   20.1399   -4.9997  -17.3415 C   0  0  1  0  0  0  0  0  0  0  0  0
   20.6836   -5.6771  -16.1363 C   0  0  0  0  0  0  0  0  0  0  0  0
   21.1685   -4.8360  -15.0155 C   0  0  0  0  0  0  0  0  0  0  0  0
   21.6442   -5.4708  -13.8057 C   0  0  0  0  0  0  0  0  0  0  0  0
   21.0041   -6.1333  -12.9693 O   0  0  0  0  0  0  0  0  0  0  0  0
   20.8847   -3.8496  -17.8454 C   0  0  0  0  0  0  0  0  0  0  0  0
   20.9357   -2.6714  -17.0977 O   0  0  0  0  0  0  0  0  0  0  0  0
   23.0229   -5.3444  -13.4949 O   0  0  0  0  0  0  0  0  0  0  0  0
   21.4847   -3.8734  -18.9383 O   0  0  0  0  0  0  0  0  0  0  0  0
  2  1  1  1
  3  4  1  0
  3  2  1  0
  5  6  2  0
  5  2  1  0
  7  8  1  0
  8  9  1  0
  9 10  1  0
 11 10  1  6
 11 13  1  0
 11 12  1  0
 12  5  1  0
 13 15  1  0
 14 13  2  0
 15 16  1  0
 16 21  1  0
 17 18  1  0
 16 17  1  1
 19 20  2  0
 19 18  1  0
 21 24  2  0
 21 22  1  0
 23 19  1  0
M  END
$$$$
