CME.pdb
     RDKit          3D

 24 23  0  0  1  0  0  0  0  0999 V2000
   25.5813  -22.0224  -11.8415 N   0  0  0  0  0  0  0  0  0  0  0  0
   25.0101  -21.7873  -13.1300 C   0  0  1  0  0  0  0  0  0  0  0  0
   23.7633  -22.6514  -13.2402 C   0  0  0  0  0  0  0  0  0  0  0  0
   24.1782  -24.3911  -13.4145 S   0  0  0  0  0  0  0  0  0  0  0  0
   24.6846  -20.3522  -13.3613 C   0  0  0  0  0  0  0  0  0  0  0  0
   24.0366  -19.7054  -12.4884 O   0  0  0  0  0  0  0  0  0  0  0  0
   26.8782  -13.7240  -17.0670 C   0  0  0  0  0  0  0  0  0  0  0  0
   27.0986  -15.4904  -16.6757 S   0  0  0  0  0  0  0  0  0  0  0  0
   25.6261  -16.1439  -15.7989 C   0  0  0  0  0  0  0  0  0  0  0  0
   25.9029  -17.5766  -15.4686 C   0  0  0  0  0  0  0  0  0  0  0  0
   24.7663  -18.2906  -14.8273 C   0  0  2  0  0  0  0  0  0  0  0  0
   25.0657  -19.6555  -14.5249 N   0  0  0  0  0  0  0  0  0  0  0  0
   23.4908  -18.1398  -15.5840 C   0  0  0  0  0  0  0  0  0  0  0  0
   23.2242  -19.0177  -16.4395 O   0  0  0  0  0  0  0  0  0  0  0  0
   22.5848  -17.0779  -15.3900 N   0  0  0  0  0  0  0  0  0  0  0  0
   21.3145  -16.9959  -16.0945 C   0  0  1  0  0  0  0  0  0  0  0  0
   20.1839  -17.3295  -15.1904 C   0  0  0  0  0  0  0  0  0  0  0  0
   19.6666  -18.7191  -15.1944 C   0  0  0  0  0  0  0  0  0  0  0  0
   18.4974  -19.0437  -14.4067 C   0  0  0  0  0  0  0  0  0  0  0  0
   18.4246  -19.7054  -13.3555 O   0  0  0  0  0  0  0  0  0  0  0  0
   21.1916  -15.7731  -16.8825 C   0  0  0  0  0  0  0  0  0  0  0  0
   22.2115  -14.8197  -16.8520 O   0  0  0  0  0  0  0  0  0  0  0  0
   17.2432  -18.5598  -14.8609 O   0  0  0  0  0  0  0  0  0  0  0  0
   20.1934  -15.5368  -17.5916 O   0  0  0  0  0  0  0  0  0  0  0  0
  2  1  1  1
  3  4  1  0
  3  2  1  0
  5  6  2  0
  5  2  1  0
  7  8  1  0
  8  9  1  0
  9 10  1  0
 11 10  1  6
 11 13  1  0
 11 12  1  0
 12  5  1  0
 13 15  1  0
 14 13  2  0
 15 16  1  0
 16 21  1  0
 17 18  1  0
 16 17  1  1
 19 20  2  0
 19 18  1  0
 21 24  2  0
 21 22  1  0
 23 19  1  0
M  END
$$$$
