CME.pdb
     RDKit          3D

 24 23  0  0  1  0  0  0  0  0999 V2000
   18.1716  -12.3935  -15.9835 N   0  0  0  0  0  0  0  0  0  0  0  0
   18.5842  -11.2954  -16.7992 C   0  0  1  0  0  0  0  0  0  0  0  0
   17.4263  -10.3111  -16.8580 C   0  0  0  0  0  0  0  0  0  0  0  0
   16.1080  -10.9045  -17.9252 S   0  0  0  0  0  0  0  0  0  0  0  0
   19.8188  -10.6343  -16.2913 C   0  0  0  0  0  0  0  0  0  0  0  0
   19.8664  -10.2240  -15.0957 O   0  0  0  0  0  0  0  0  0  0  0  0
   26.6427  -10.0670  -14.4802 C   0  0  0  0  0  0  0  0  0  0  0  0
   25.0884  -10.7314  -15.1616 S   0  0  0  0  0  0  0  0  0  0  0  0
   24.6951   -9.9325  -16.7652 C   0  0  0  0  0  0  0  0  0  0  0  0
   23.3917  -10.4957  -17.2364 C   0  0  0  0  0  0  0  0  0  0  0  0
   22.1911   -9.8328  -16.6601 C   0  0  2  0  0  0  0  0  0  0  0  0
   20.9655  -10.4341  -17.0849 N   0  0  0  0  0  0  0  0  0  0  0  0
   22.1999   -8.3549  -16.8552 C   0  0  0  0  0  0  0  0  0  0  0  0
   22.0931   -7.9309  -18.0309 O   0  0  0  0  0  0  0  0  0  0  0  0
   22.3204   -7.4258  -15.8024 N   0  0  0  0  0  0  0  0  0  0  0  0
   22.3744   -5.9898  -16.0299 C   0  0  1  0  0  0  0  0  0  0  0  0
   21.2604   -5.2995  -15.3301 C   0  0  0  0  0  0  0  0  0  0  0  0
   21.2028   -3.8190  -15.3892 C   0  0  0  0  0  0  0  0  0  0  0  0
   20.1237   -3.1234  -14.7225 C   0  0  0  0  0  0  0  0  0  0  0  0
   19.1504   -3.5987  -14.1102 O   0  0  0  0  0  0  0  0  0  0  0  0
   23.7147   -5.4444  -15.8367 C   0  0  0  0  0  0  0  0  0  0  0  0
   24.2731   -4.6095  -16.8069 O   0  0  0  0  0  0  0  0  0  0  0  0
   20.1411   -1.7048  -14.7472 O   0  0  0  0  0  0  0  0  0  0  0  0
   24.3972   -5.7009  -14.8251 O   0  0  0  0  0  0  0  0  0  0  0  0
  2  1  1  1
  3  4  1  0
  3  2  1  0
  5  6  2  0
  5  2  1  0
  7  8  1  0
  8  9  1  0
  9 10  1  0
 11 10  1  6
 11 13  1  0
 11 12  1  0
 12  5  1  0
 13 15  1  0
 14 13  2  0
 15 16  1  0
 16 21  1  0
 17 18  1  0
 16 17  1  1
 19 20  2  0
 19 18  1  0
 21 24  2  0
 21 22  1  0
 23 19  1  0
M  END
$$$$
