RCI.pdb
     RDKit          3D

 26 25  0  0  1  0  0  0  0  0999 V2000
   21.1983  -19.0064  -15.2509 N   0  0  0  0  0  0  0  0  0  0  0  0
   20.2788  -19.4566  -14.2713 C   0  0  0  0  0  0  0  0  0  0  0  0
   19.0968  -19.8939  -14.5893 N   0  0  0  0  0  0  0  0  0  0  0  0
   20.6250  -19.4443  -12.8883 N   0  0  0  0  0  0  0  0  0  0  0  0
   22.0002  -19.2297  -12.4810 C   0  0  0  0  0  0  0  0  0  0  0  0
   22.8202  -20.4372  -12.9074 C   0  0  0  0  0  0  0  0  0  0  0  0
   23.6524  -20.9736  -11.7676 C   0  0  0  0  0  0  0  0  0  0  0  0
   25.0330  -21.2553  -12.3318 C   0  0  2  0  0  0  0  0  0  0  0  0
   24.9200  -22.3364  -13.3178 N   0  0  0  0  0  0  0  0  0  0  0  0
   25.9734  -21.6763  -11.2742 C   0  0  0  0  0  0  0  0  0  0  0  0
   25.9918  -22.8620  -10.8220 O   0  0  0  0  0  0  0  0  0  0  0  0
   18.4326  -20.2025  -13.8474 N   0  0  0  0  0  0  0  0  0  0  0  0
   26.8880  -20.7657  -10.7293 C   0  0  2  0  0  0  0  0  0  0  0  0
   27.8246  -21.1318   -9.6408 C   0  0  0  0  0  0  0  0  0  0  0  0
   29.2388  -20.8469  -10.1137 S   0  0  0  0  0  0  0  0  0  0  0  0
   30.5023  -21.1931   -8.8926 C   0  0  0  0  0  0  0  0  0  0  0  0
   27.5424  -20.2823   -8.4599 O   0  0  0  0  0  0  0  0  0  0  0  0
   27.0755  -19.1029   -8.6098 C   0  0  0  0  0  0  0  0  0  0  0  0
   26.2727  -19.9550   -2.7665 C   0  0  0  0  0  0  0  0  0  0  0  0
   27.5423  -19.6994   -3.5161 C   0  0  2  0  0  0  0  0  0  0  0  0
   27.6637  -20.5527   -4.7573 C   0  0  0  0  0  0  0  0  0  0  0  0
   28.7187  -21.6009   -4.6488 C   0  0  2  0  0  0  0  0  0  0  0  0
   27.7634  -19.7296   -6.0197 N   0  0  0  0  0  0  0  0  0  0  0  0
   27.7608  -20.7038   -7.1274 C   0  0  0  0  0  0  0  0  0  0  0  0
   28.9974  -18.9024   -6.0765 O   0  0  0  0  0  0  0  0  0  0  0  0
   30.0751  -19.3165   -6.5871 O   0  0  0  0  0  0  0  0  0  0  0  0
  2  3  2  0
  2  1  1  0
  4  2  1  0
  5  4  1  0
  6  5  1  0
  7  6  1  0
  8 10  1  0
  8  7  1  0
  8  9  1  6
 10 11  2  0
 12 13  1  0
 12 10  1  0
 13 16  1  0
 13 14  1  1
 15 14  1  0
 16 23  1  0
 16 17  2  0
 18 19  1  0
 19 20  1  0
 20 21  1  6
 22 20  1  0
 22 24  1  0
 22 23  1  6
 24 25  2  0
 24 26  1  0
M  END
$$$$
