RCI.pdb
     RDKit          3D

 26 25  0  0  1  0  0  0  0  0999 V2000
   23.2313  -23.6974  -13.9416 N   0  0  0  0  0  0  0  0  0  0  0  0
   23.3480  -23.3904  -15.3200 C   0  0  0  0  0  0  0  0  0  0  0  0
   22.3049  -23.2584  -16.0841 N   0  0  0  0  0  0  0  0  0  0  0  0
   24.6291  -23.2142  -15.9203 N   0  0  0  0  0  0  0  0  0  0  0  0
   25.8314  -23.2942  -15.1134 C   0  0  0  0  0  0  0  0  0  0  0  0
   26.7314  -22.1237  -15.4774 C   0  0  0  0  0  0  0  0  0  0  0  0
   26.1712  -20.8152  -14.9742 C   0  0  0  0  0  0  0  0  0  0  0  0
   27.0603  -20.3740  -13.8259 C   0  0  2  0  0  0  0  0  0  0  0  0
   27.9505  -21.4864  -13.4740 N   0  0  0  0  0  0  0  0  0  0  0  0
   26.2655  -20.0099  -12.6360 C   0  0  0  0  0  0  0  0  0  0  0  0
   25.1941  -19.3351  -12.7222 O   0  0  0  0  0  0  0  0  0  0  0  0
   22.4184  -23.0306  -17.0951 N   0  0  0  0  0  0  0  0  0  0  0  0
   26.6762  -20.4042  -11.3561 C   0  0  1  0  0  0  0  0  0  0  0  0
   25.8509  -20.1717  -10.1474 C   0  0  0  0  0  0  0  0  0  0  0  0
   24.5525  -20.9432  -10.3019 S   0  0  0  0  0  0  0  0  0  0  0  0
   23.5458  -20.9853   -8.8213 C   0  0  0  0  0  0  0  0  0  0  0  0
   26.5735  -20.6972   -8.9653 O   0  0  0  0  0  0  0  0  0  0  0  0
   26.9800  -21.9077   -8.9427 C   0  0  0  0  0  0  0  0  0  0  0  0
   30.2193  -18.9004   -4.4366 C   0  0  0  0  0  0  0  0  0  0  0  0
   29.3040  -19.9584   -4.9677 C   0  0  2  0  0  0  0  0  0  0  0  0
   28.5120  -19.4905   -6.1666 C   0  0  0  0  0  0  0  0  0  0  0  0
   27.9166  -18.1355   -5.9850 C   0  0  2  0  0  0  0  0  0  0  0  0
   27.5189  -20.5231   -6.6448 N   0  0  0  0  0  0  0  0  0  0  0  0
   26.8568  -19.9207   -7.8173 C   0  0  0  0  0  0  0  0  0  0  0  0
   26.5047  -20.8724   -5.6152 O   0  0  0  0  0  0  0  0  0  0  0  0
   26.7773  -21.5619   -4.5935 O   0  0  0  0  0  0  0  0  0  0  0  0
  2  3  2  0
  2  1  1  0
  4  2  1  0
  5  4  1  0
  6  5  1  0
  7  6  1  0
  8 10  1  0
  8  7  1  0
  8  9  1  1
 10 11  2  0
 12 13  1  0
 12 10  1  0
 13 16  1  0
 13 14  1  6
 15 14  1  0
 16 23  1  0
 16 17  2  0
 18 19  1  0
 19 20  1  0
 20 21  1  6
 22 20  1  0
 22 24  1  0
 22 23  1  1
 24 25  2  0
 24 26  1  0
M  END
$$$$
