RCI.pdb
     RDKit          3D

 26 25  0  0  1  0  0  0  0  0999 V2000
   25.4783  -25.2998  -15.4140 N   0  0  0  0  0  0  0  0  0  0  0  0
   24.1195  -24.9004  -15.3725 C   0  0  0  0  0  0  0  0  0  0  0  0
   23.1696  -25.7305  -15.0596 N   0  0  0  0  0  0  0  0  0  0  0  0
   23.7460  -23.5584  -15.6764 N   0  0  0  0  0  0  0  0  0  0  0  0
   24.7329  -22.4968  -15.6301 C   0  0  0  0  0  0  0  0  0  0  0  0
   24.7800  -21.9480  -14.2127 C   0  0  0  0  0  0  0  0  0  0  0  0
   25.1344  -20.4805  -14.1971 C   0  0  0  0  0  0  0  0  0  0  0  0
   26.2758  -20.3189  -13.2098 C   0  0  2  0  0  0  0  0  0  0  0  0
   26.9846  -21.5997  -13.1057 N   0  0  0  0  0  0  0  0  0  0  0  0
   25.7823  -19.9414  -11.8703 C   0  0  0  0  0  0  0  0  0  0  0  0
   24.6625  -19.3684  -11.7017 O   0  0  0  0  0  0  0  0  0  0  0  0
   22.1793  -25.4071  -15.0213 N   0  0  0  0  0  0  0  0  0  0  0  0
   26.5469  -20.2084  -10.7273 C   0  0  1  0  0  0  0  0  0  0  0  0
   25.9562  -20.2679   -9.3694 C   0  0  0  0  0  0  0  0  0  0  0  0
   25.0059  -21.4506   -9.3150 S   0  0  0  0  0  0  0  0  0  0  0  0
   24.3866  -21.8166   -7.6750 C   0  0  0  0  0  0  0  0  0  0  0  0
   27.0408  -20.4890   -8.3843 O   0  0  0  0  0  0  0  0  0  0  0  0
   27.7985  -21.5129   -8.4773 C   0  0  0  0  0  0  0  0  0  0  0  0
   30.0166  -17.5456   -3.8221 C   0  0  0  0  0  0  0  0  0  0  0  0
   29.8070  -18.7879   -4.6295 C   0  0  2  0  0  0  0  0  0  0  0  0
   28.7044  -18.6350   -5.6516 C   0  0  0  0  0  0  0  0  0  0  0  0
   27.5361  -17.8599   -5.1440 C   0  0  2  0  0  0  0  0  0  0  0  0
   28.3209  -19.9479   -6.2921 N   0  0  0  0  0  0  0  0  0  0  0  0
   27.3064  -19.6100   -7.3082 C   0  0  0  0  0  0  0  0  0  0  0  0
   27.7591  -20.9241   -5.3216 O   0  0  0  0  0  0  0  0  0  0  0  0
   26.5186  -21.1076   -5.1769 O   0  0  0  0  0  0  0  0  0  0  0  0
  2  3  2  0
  2  1  1  0
  4  2  1  0
  5  4  1  0
  6  5  1  0
  7  6  1  0
  8 10  1  0
  8  7  1  0
  8  9  1  1
 10 11  2  0
 12 13  1  0
 12 10  1  0
 13 16  1  0
 13 14  1  6
 15 14  1  0
 16 23  1  0
 16 17  2  0
 18 19  1  0
 19 20  1  0
 20 21  1  6
 22 20  1  0
 22 24  1  0
 22 23  1  1
 24 25  2  0
 24 26  1  0
M  END
$$$$
