RCI.pdb
     RDKit          3D

 26 25  0  0  1  0  0  0  0  0999 V2000
   17.8740  -24.8945   -8.9389 N   0  0  0  0  0  0  0  0  0  0  0  0
   18.5023  -23.7906   -8.3108 C   0  0  0  0  0  0  0  0  0  0  0  0
   19.0414  -23.8875   -7.1321 N   0  0  0  0  0  0  0  0  0  0  0  0
   18.5639  -22.5225   -8.9595 N   0  0  0  0  0  0  0  0  0  0  0  0
   17.9728  -22.3435  -10.2717 C   0  0  0  0  0  0  0  0  0  0  0  0
   19.0430  -22.6074  -11.3193 C   0  0  0  0  0  0  0  0  0  0  0  0
   19.9323  -21.4040  -11.5199 C   0  0  0  0  0  0  0  0  0  0  0  0
   20.8122  -21.7082  -12.7187 C   0  0  2  0  0  0  0  0  0  0  0  0
   21.1435  -23.1378  -12.7008 N   0  0  0  0  0  0  0  0  0  0  0  0
   22.0673  -20.9315  -12.6788 C   0  0  0  0  0  0  0  0  0  0  0  0
   22.0752  -19.6625  -12.6977 O   0  0  0  0  0  0  0  0  0  0  0  0
   19.5395  -23.0735   -6.7126 N   0  0  0  0  0  0  0  0  0  0  0  0
   23.3066  -21.5817  -12.6179 C   0  0  1  0  0  0  0  0  0  0  0  0
   24.5941  -20.8521  -12.6979 C   0  0  0  0  0  0  0  0  0  0  0  0
   25.6251  -21.6155  -11.8860 S   0  0  0  0  0  0  0  0  0  0  0  0
   25.4737  -21.3921  -10.1156 C   0  0  0  0  0  0  0  0  0  0  0  0
   25.0384  -20.8176  -14.1110 O   0  0  0  0  0  0  0  0  0  0  0  0
   25.2287  -21.9042  -14.7547 C   0  0  0  0  0  0  0  0  0  0  0  0
   22.3320  -18.1544  -17.4424 C   0  0  0  0  0  0  0  0  0  0  0  0
   23.2743  -19.1248  -16.8024 C   0  0  2  0  0  0  0  0  0  0  0  0
   24.7202  -18.7111  -16.9503 C   0  0  0  0  0  0  0  0  0  0  0  0
   25.1086  -18.4266  -18.3615 C   0  0  2  0  0  0  0  0  0  0  0  0
   25.6679  -19.6524  -16.2453 N   0  0  0  0  0  0  0  0  0  0  0  0
   25.2735  -19.6188  -14.8243 C   0  0  0  0  0  0  0  0  0  0  0  0
   27.0930  -19.2519  -16.3843 O   0  0  0  0  0  0  0  0  0  0  0  0
   27.5412  -18.1566  -15.9450 O   0  0  0  0  0  0  0  0  0  0  0  0
  2  3  2  0
  2  1  1  0
  4  2  1  0
  5  4  1  0
  6  5  1  0
  7  6  1  0
  8 10  1  0
  8  7  1  0
  8  9  1  1
 10 11  2  0
 12 13  1  0
 12 10  1  0
 13 16  1  0
 13 14  1  1
 15 14  1  0
 16 23  1  0
 16 17  2  0
 18 19  1  0
 19 20  1  0
 20 21  1  1
 22 20  1  0
 22 24  1  0
 22 23  1  6
 24 25  2  0
 24 26  1  0
M  END
$$$$
