RCI.pdb
     RDKit          3D

 26 25  0  0  1  0  0  0  0  0999 V2000
   33.5377  -13.7695  -21.1728 N   0  0  0  0  0  0  0  0  0  0  0  0
   33.9280  -13.9347  -19.8207 C   0  0  0  0  0  0  0  0  0  0  0  0
   35.0456  -14.5128  -19.4950 N   0  0  0  0  0  0  0  0  0  0  0  0
   33.0970  -13.4664  -18.7611 N   0  0  0  0  0  0  0  0  0  0  0  0
   31.8611  -12.7674  -19.0560 C   0  0  0  0  0  0  0  0  0  0  0  0
   32.0999  -11.2761  -18.8786 C   0  0  0  0  0  0  0  0  0  0  0  0
   30.8401  -10.4796  -19.1192 C   0  0  0  0  0  0  0  0  0  0  0  0
   31.2009   -9.0205  -18.9084 C   0  0  2  0  0  0  0  0  0  0  0  0
   32.4625   -8.9573  -18.1613 N   0  0  0  0  0  0  0  0  0  0  0  0
   30.1592   -8.3121  -18.1381 C   0  0  0  0  0  0  0  0  0  0  0  0
   30.3159   -8.0059  -16.9165 O   0  0  0  0  0  0  0  0  0  0  0  0
   35.3170  -14.6070  -18.4928 N   0  0  0  0  0  0  0  0  0  0  0  0
   28.9477   -7.9509  -18.7416 C   0  0  1  0  0  0  0  0  0  0  0  0
   27.8754   -7.2355  -18.0105 C   0  0  0  0  0  0  0  0  0  0  0  0
   27.6097   -5.9208  -18.7217 S   0  0  0  0  0  0  0  0  0  0  0  0
   26.1902   -5.0250  -18.0972 C   0  0  0  0  0  0  0  0  0  0  0  0
   26.6397   -8.0522  -18.0524 O   0  0  0  0  0  0  0  0  0  0  0  0
   26.2574   -8.5890  -19.1465 C   0  0  0  0  0  0  0  0  0  0  0  0
   26.2073  -12.1183  -15.2063 C   0  0  0  0  0  0  0  0  0  0  0  0
   25.9890  -11.0906  -16.2719 C   0  0  2  0  0  0  0  0  0  0  0  0
   24.7868  -10.2174  -15.9965 C   0  0  0  0  0  0  0  0  0  0  0  0
   23.5405  -10.9960  -15.7440 C   0  0  2  0  0  0  0  0  0  0  0  0
   24.6142   -9.1262  -17.0265 N   0  0  0  0  0  0  0  0  0  0  0  0
   25.8241   -8.2890  -16.9211 C   0  0  0  0  0  0  0  0  0  0  0  0
   23.4028   -8.2961  -16.7941 O   0  0  0  0  0  0  0  0  0  0  0  0
   23.4069   -7.2728  -16.0549 O   0  0  0  0  0  0  0  0  0  0  0  0
  2  3  2  0
  2  1  1  0
  4  2  1  0
  5  4  1  0
  6  5  1  0
  7  6  1  0
  8 10  1  0
  8  7  1  0
  8  9  1  1
 10 11  2  0
 12 13  1  0
 12 10  1  0
 13 16  1  0
 13 14  1  1
 15 14  1  0
 16 23  1  0
 16 17  2  0
 18 19  1  0
 19 20  1  0
 20 21  1  1
 22 20  1  0
 22 24  1  0
 22 23  1  6
 24 25  2  0
 24 26  1  0
M  END
$$$$
