RCI.pdb
     RDKit          3D

 26 25  0  0  1  0  0  0  0  0999 V2000
   22.8522  -25.3193  -13.9725 N   0  0  0  0  0  0  0  0  0  0  0  0
   24.2164  -25.4922  -14.3142 C   0  0  0  0  0  0  0  0  0  0  0  0
   24.5788  -26.0885  -15.4107 N   0  0  0  0  0  0  0  0  0  0  0  0
   25.2482  -25.0118  -13.4554 N   0  0  0  0  0  0  0  0  0  0  0  0
   24.9129  -24.2878  -12.2444 C   0  0  0  0  0  0  0  0  0  0  0  0
   24.5406  -22.8634  -12.6252 C   0  0  0  0  0  0  0  0  0  0  0  0
   25.7639  -21.9920  -12.7786 C   0  0  0  0  0  0  0  0  0  0  0  0
   25.2673  -20.6056  -13.1458 C   0  0  2  0  0  0  0  0  0  0  0  0
   24.0505  -20.7471  -13.9540 N   0  0  0  0  0  0  0  0  0  0  0  0
   26.2725  -19.8619  -13.9311 C   0  0  0  0  0  0  0  0  0  0  0  0
   27.3867  -19.5085  -13.4369 O   0  0  0  0  0  0  0  0  0  0  0  0
   25.5894  -26.2345  -15.6213 N   0  0  0  0  0  0  0  0  0  0  0  0
   26.0230  -19.5185  -15.2661 C   0  0  1  0  0  0  0  0  0  0  0  0
   27.0244  -18.8266  -16.1115 C   0  0  0  0  0  0  0  0  0  0  0  0
   27.4508  -19.7753  -17.2175 S   0  0  0  0  0  0  0  0  0  0  0  0
   28.6611  -19.0881  -18.3446 C   0  0  0  0  0  0  0  0  0  0  0  0
   26.3911  -17.6376  -16.7286 O   0  0  0  0  0  0  0  0  0  0  0  0
   25.2768  -17.7456  -17.3434 C   0  0  0  0  0  0  0  0  0  0  0  0
   24.5756  -12.4443  -16.7038 C   0  0  0  0  0  0  0  0  0  0  0  0
   25.9576  -12.7555  -17.1859 C   0  0  2  0  0  0  0  0  0  0  0  0
   26.5222  -14.0077  -16.5561 C   0  0  0  0  0  0  0  0  0  0  0  0
   27.9146  -13.8350  -16.0513 C   0  0  2  0  0  0  0  0  0  0  0  0
   26.3481  -15.2264  -17.4310 N   0  0  0  0  0  0  0  0  0  0  0  0
   26.9558  -16.3414  -16.6804 C   0  0  0  0  0  0  0  0  0  0  0  0
   27.0094  -15.0885  -18.7555 O   0  0  0  0  0  0  0  0  0  0  0  0
   28.2186  -15.3938  -18.9509 O   0  0  0  0  0  0  0  0  0  0  0  0
  2  3  2  0
  2  1  1  0
  4  2  1  0
  5  4  1  0
  6  5  1  0
  7  6  1  0
  8 10  1  0
  8  7  1  0
  8  9  1  6
 10 11  2  0
 12 13  1  0
 12 10  1  0
 13 16  1  0
 13 14  1  1
 15 14  1  0
 16 23  1  0
 16 17  2  0
 18 19  1  0
 19 20  1  0
 20 21  1  6
 22 20  1  0
 22 24  1  0
 22 23  1  6
 24 25  2  0
 24 26  1  0
M  END
$$$$
