RCI.pdb
     RDKit          3D

 26 25  0  0  1  0  0  0  0  0999 V2000
   30.4036  -23.7365  -17.0067 N   0  0  0  0  0  0  0  0  0  0  0  0
   29.2286  -24.4040  -16.5807 C   0  0  0  0  0  0  0  0  0  0  0  0
   29.2172  -25.6787  -16.3273 N   0  0  0  0  0  0  0  0  0  0  0  0
   28.0058  -23.6899  -16.4143 N   0  0  0  0  0  0  0  0  0  0  0  0
   27.9757  -22.2477  -16.5636 C   0  0  0  0  0  0  0  0  0  0  0  0
   28.2399  -21.6196  -15.2041 C   0  0  0  0  0  0  0  0  0  0  0  0
   27.2230  -20.5522  -14.8787 C   0  0  0  0  0  0  0  0  0  0  0  0
   26.1675  -21.2080  -14.0071 C   0  0  2  0  0  0  0  0  0  0  0  0
   24.9822  -21.4710  -14.8315 N   0  0  0  0  0  0  0  0  0  0  0  0
   25.7768  -20.3348  -12.8822 C   0  0  0  0  0  0  0  0  0  0  0  0
   25.1605  -19.2401  -13.0618 O   0  0  0  0  0  0  0  0  0  0  0  0
   28.3623  -26.1303  -15.9372 N   0  0  0  0  0  0  0  0  0  0  0  0
   26.0792  -20.6939  -11.5624 C   0  0  2  0  0  0  0  0  0  0  0  0
   25.6707  -19.8714  -10.3993 C   0  0  0  0  0  0  0  0  0  0  0  0
   24.1542  -19.8669  -10.3284 S   0  0  0  0  0  0  0  0  0  0  0  0
   23.4167  -21.4989  -10.3347 C   0  0  0  0  0  0  0  0  0  0  0  0
   26.1985  -20.4945   -9.1628 O   0  0  0  0  0  0  0  0  0  0  0  0
   26.0262  -21.7409   -8.9436 C   0  0  0  0  0  0  0  0  0  0  0  0
   29.9098  -19.1437   -4.3805 C   0  0  0  0  0  0  0  0  0  0  0  0
   28.9258  -20.0743   -5.0168 C   0  0  2  0  0  0  0  0  0  0  0  0
   28.3618  -19.5267   -6.3073 C   0  0  0  0  0  0  0  0  0  0  0  0
   27.9227  -18.1057   -6.2004 C   0  0  2  0  0  0  0  0  0  0  0  0
   27.3176  -20.4331   -6.9150 N   0  0  0  0  0  0  0  0  0  0  0  0
   26.9085  -19.7774   -8.1714 C   0  0  0  0  0  0  0  0  0  0  0  0
   26.1341  -20.6250   -6.0359 O   0  0  0  0  0  0  0  0  0  0  0  0
   26.1819  -21.2811   -4.9584 O   0  0  0  0  0  0  0  0  0  0  0  0
  2  3  2  0
  2  1  1  0
  4  2  1  0
  5  4  1  0
  6  5  1  0
  7  6  1  0
  8 10  1  0
  8  7  1  0
  8  9  1  6
 10 11  2  0
 12 13  1  0
 12 10  1  0
 13 16  1  0
 13 14  1  6
 15 14  1  0
 16 23  1  0
 16 17  2  0
 18 19  1  0
 19 20  1  0
 20 21  1  6
 22 20  1  0
 22 24  1  0
 22 23  1  1
 24 25  2  0
 24 26  1  0
M  END
$$$$
