RCI.pdb
     RDKit          3D

 26 25  0  0  1  0  0  0  0  0999 V2000
   19.1058  -10.7460  -22.4310 N   0  0  0  0  0  0  0  0  0  0  0  0
   18.2001  -11.8082  -22.1875 C   0  0  0  0  0  0  0  0  0  0  0  0
   17.6427  -12.4704  -23.1570 N   0  0  0  0  0  0  0  0  0  0  0  0
   17.8671  -12.1893  -20.8546 N   0  0  0  0  0  0  0  0  0  0  0  0
   18.5479  -11.5796  -19.7285 C   0  0  0  0  0  0  0  0  0  0  0  0
   17.9324  -12.1195  -18.4470 C   0  0  0  0  0  0  0  0  0  0  0  0
   18.5285  -11.4628  -17.2253 C   0  0  0  0  0  0  0  0  0  0  0  0
   19.9641  -11.9458  -17.1283 C   0  0  2  0  0  0  0  0  0  0  0  0
   19.9522  -13.3665  -16.7605 N   0  0  0  0  0  0  0  0  0  0  0  0
   20.7177  -11.1981  -16.1021 C   0  0  0  0  0  0  0  0  0  0  0  0
   20.3178  -11.1136  -14.9006 O   0  0  0  0  0  0  0  0  0  0  0  0
   17.0405  -13.2964  -22.9523 N   0  0  0  0  0  0  0  0  0  0  0  0
   21.9155  -10.5492  -16.4286 C   0  0  2  0  0  0  0  0  0  0  0  0
   22.6447   -9.6904  -15.4657 C   0  0  0  0  0  0  0  0  0  0  0  0
   24.1339   -9.8721  -15.6986 S   0  0  0  0  0  0  0  0  0  0  0  0
   24.8770  -11.1650  -14.7069 C   0  0  0  0  0  0  0  0  0  0  0  0
   22.2961   -8.2742  -15.7273 O   0  0  0  0  0  0  0  0  0  0  0  0
   22.2529   -7.8304  -16.9241 C   0  0  0  0  0  0  0  0  0  0  0  0
   18.1910   -4.5282  -15.8794 C   0  0  0  0  0  0  0  0  0  0  0  0
   19.6669   -4.5464  -15.6328 C   0  0  2  0  0  0  0  0  0  0  0  0
   20.1780   -5.9239  -15.2796 C   0  0  0  0  0  0  0  0  0  0  0  0
   19.3889   -6.5846  -14.2006 C   0  0  2  0  0  0  0  0  0  0  0  0
   21.6677   -5.9440  -15.0315 N   0  0  0  0  0  0  0  0  0  0  0  0
   21.9946   -7.3447  -14.7044 C   0  0  0  0  0  0  0  0  0  0  0  0
   22.0814   -5.0540  -13.9147 O   0  0  0  0  0  0  0  0  0  0  0  0
   22.1485   -5.4464  -12.7167 O   0  0  0  0  0  0  0  0  0  0  0  0
  2  3  2  0
  2  1  1  0
  4  2  1  0
  5  4  1  0
  6  5  1  0
  7  6  1  0
  8 10  1  0
  8  7  1  0
  8  9  1  1
 10 11  2  0
 12 13  1  0
 12 10  1  0
 13 16  1  0
 13 14  1  1
 15 14  1  0
 16 23  1  0
 16 17  2  0
 18 19  1  0
 19 20  1  0
 20 21  1  6
 22 20  1  0
 22 24  1  0
 22 23  1  1
 24 25  2  0
 24 26  1  0
M  END
$$$$
