RCI.pdb
     RDKit          3D

 26 25  0  0  1  0  0  0  0  0999 V2000
   25.1522  -25.4022  -18.6223 N   0  0  0  0  0  0  0  0  0  0  0  0
   26.0761  -26.0129  -17.7385 C   0  0  0  0  0  0  0  0  0  0  0  0
   26.6553  -27.1410  -18.0236 N   0  0  0  0  0  0  0  0  0  0  0  0
   26.4041  -25.4021  -16.4927 N   0  0  0  0  0  0  0  0  0  0  0  0
   25.6509  -24.2566  -16.0198 C   0  0  0  0  0  0  0  0  0  0  0  0
   26.2851  -22.9975  -16.5899 C   0  0  0  0  0  0  0  0  0  0  0  0
   26.9384  -22.1676  -15.5112 C   0  0  0  0  0  0  0  0  0  0  0  0
   26.3572  -22.6362  -14.1897 C   0  0  2  0  0  0  0  0  0  0  0  0
   24.9933  -23.1224  -14.4286 N   0  0  0  0  0  0  0  0  0  0  0  0
   26.3019  -21.5381  -13.2040 C   0  0  0  0  0  0  0  0  0  0  0  0
   27.2723  -20.7388  -13.0308 O   0  0  0  0  0  0  0  0  0  0  0  0
   27.2732  -27.6068  -17.3249 N   0  0  0  0  0  0  0  0  0  0  0  0
   25.1589  -21.3424  -12.4181 C   0  0  2  0  0  0  0  0  0  0  0  0
   25.0881  -20.3092  -11.3581 C   0  0  0  0  0  0  0  0  0  0  0  0
   23.6352  -19.9051  -11.1834 S   0  0  0  0  0  0  0  0  0  0  0  0
   23.3610  -18.7039   -9.8837 C   0  0  0  0  0  0  0  0  0  0  0  0
   25.5707  -20.8946  -10.0853 O   0  0  0  0  0  0  0  0  0  0  0  0
   25.3830  -22.1322   -9.8317 C   0  0  0  0  0  0  0  0  0  0  0  0
   29.2674  -19.5789   -5.3074 C   0  0  0  0  0  0  0  0  0  0  0  0
   28.2315  -20.4654   -5.9240 C   0  0  2  0  0  0  0  0  0  0  0  0
   27.6479  -19.8806   -7.1893 C   0  0  0  0  0  0  0  0  0  0  0  0
   27.2516  -18.4502   -7.0472 C   0  0  2  0  0  0  0  0  0  0  0  0
   26.5627  -20.7477   -7.7824 N   0  0  0  0  0  0  0  0  0  0  0  0
   26.2526  -20.1497   -9.0947 C   0  0  0  0  0  0  0  0  0  0  0  0
   25.3352  -20.7942   -6.9448 O   0  0  0  0  0  0  0  0  0  0  0  0
   24.2953  -20.1329   -7.2187 O   0  0  0  0  0  0  0  0  0  0  0  0
  2  3  2  0
  2  1  1  0
  4  2  1  0
  5  4  1  0
  6  5  1  0
  7  6  1  0
  8 10  1  0
  8  7  1  0
  8  9  1  6
 10 11  2  0
 12 13  1  0
 12 10  1  0
 13 16  1  0
 13 14  1  6
 15 14  1  0
 16 23  1  0
 16 17  2  0
 18 19  1  0
 19 20  1  0
 20 21  1  6
 22 20  1  0
 22 24  1  0
 22 23  1  1
 24 25  2  0
 24 26  1  0
M  END
$$$$
