RET.pdb
     RDKit          3D

 28 27  0  0  1  0  0  0  0  0999 V2000
    8.9256  -11.9807   20.0512 N   0  0  0  0  0  0  0  0  0  0  0  0
    8.7852  -12.8707   18.9555 C   0  0  0  0  0  0  0  0  0  0  0  0
    9.5146  -12.7744   17.8978 N   0  0  0  0  0  0  0  0  0  0  0  0
    7.8161  -13.9086   19.0048 N   0  0  0  0  0  0  0  0  0  0  0  0
    6.9333  -14.0256   20.1435 C   0  0  0  0  0  0  0  0  0  0  0  0
    7.0083  -15.4536   20.6406 C   0  0  0  0  0  0  0  0  0  0  0  0
    8.3759  -16.0572   20.4827 C   0  0  0  0  0  0  0  0  0  0  0  0
    8.3016  -17.4490   21.1180 C   0  0  2  0  0  0  0  0  0  0  0  0
    7.1775  -18.1900   20.6372 N   0  0  0  0  0  0  0  0  0  0  0  0
    8.1589  -17.2762   22.6080 C   0  0  0  0  0  0  0  0  0  0  0  0
    7.0131  -17.2246   23.1449 O   0  0  0  0  0  0  0  0  0  0  0  0
    9.3785  -13.3773   17.0617 N   0  0  0  0  0  0  0  0  0  0  0  0
    9.2674  -17.1658   23.4590 C   0  0  2  0  0  0  0  0  0  0  0  0
    9.0902  -17.1774   24.9195 C   0  0  0  0  0  0  0  0  0  0  0  0
   10.2490  -17.8661   25.5490 C   0  0  0  0  0  0  0  0  0  0  0  0
   10.1435  -17.9500   27.0328 C   0  0  0  0  0  0  0  0  0  0  0  0
   11.2421  -18.6194   27.7261 O   0  0  0  0  0  0  0  0  0  0  0  0
   11.7868  -18.1043   28.7151 C   0  0  0  0  0  0  0  0  0  0  0  0
    9.0922  -15.7484   25.3209 O   0  0  0  0  0  0  0  0  0  0  0  0
    9.9586  -15.0042   24.7911 O   0  0  0  0  0  0  0  0  0  0  0  0
   11.7040  -19.8577   27.2888 C   0  0  0  0  0  0  0  0  0  0  0  0
    6.5950  -12.8552   25.0913 C   0  0  2  0  0  0  0  0  0  0  0  0
    7.1247  -12.9830   26.4794 O   0  0  0  0  0  0  0  0  0  0  0  0
    6.1192  -13.5396   27.2674 C   0  0  2  0  0  0  0  0  0  0  0  0
    8.3837  -13.7706   26.5854 N   0  0  0  0  0  0  0  0  0  0  0  0
    8.1962  -15.1599   26.2450 C   0  0  0  0  0  0  0  0  0  0  0  0
    9.1418  -13.5494   27.8428 O   0  0  0  0  0  0  0  0  0  0  0  0
    9.5093  -12.3364   28.3713 O   0  0  0  0  0  0  0  0  0  0  0  0
  2  4  1  0
  2  1  1  0
  3  2  2  0
  5  4  1  0
  6  5  1  0
  7  8  1  0
  7  6  1  0
  8  9  1  6
 10 11  2  0
 10  8  1  0
 12 10  1  0
 13 12  1  0
 13 14  1  6
 15 14  1  0
 16 15  1  0
 17 16  2  0
 18 13  1  0
 18 25  1  0
 19 18  2  0
 20 16  1  0
 22 21  1  1
 22 24  1  0
 22 23  1  0
 24 25  1  1
 24 26  1  0
 26 27  1  0
 28 26  2  0
M  END
$$$$
