RET.pdb
     RDKit          3D

 28 27  0  0  1  0  0  0  0  0999 V2000
    8.6868  -15.3724   15.3488 N   0  0  0  0  0  0  0  0  0  0  0  0
    8.2697  -14.0306   15.5433 C   0  0  0  0  0  0  0  0  0  0  0  0
    7.7551  -13.3292   14.5929 N   0  0  0  0  0  0  0  0  0  0  0  0
    8.4144  -13.4210   16.8186 N   0  0  0  0  0  0  0  0  0  0  0  0
    7.3777  -13.5657   17.8156 C   0  0  0  0  0  0  0  0  0  0  0  0
    7.4135  -14.9946   18.3144 C   0  0  0  0  0  0  0  0  0  0  0  0
    7.1173  -15.1089   19.7838 C   0  0  0  0  0  0  0  0  0  0  0  0
    8.3938  -14.6725   20.5094 C   0  0  2  0  0  0  0  0  0  0  0  0
    9.5637  -15.2184   19.8952 N   0  0  0  0  0  0  0  0  0  0  0  0
    8.3199  -15.1739   21.9284 C   0  0  0  0  0  0  0  0  0  0  0  0
    7.2796  -14.9864   22.6257 O   0  0  0  0  0  0  0  0  0  0  0  0
    7.4836  -12.3325   14.7105 N   0  0  0  0  0  0  0  0  0  0  0  0
    9.3800  -15.8605   22.5364 C   0  0  1  0  0  0  0  0  0  0  0  0
    9.2444  -16.3783   23.9069 C   0  0  0  0  0  0  0  0  0  0  0  0
   10.4250  -17.2235   24.2312 C   0  0  0  0  0  0  0  0  0  0  0  0
   10.3662  -17.8091   25.6000 C   0  0  0  0  0  0  0  0  0  0  0  0
   11.4641  -18.6980   25.9747 O   0  0  0  0  0  0  0  0  0  0  0  0
   11.5451  -19.1723   27.1187 C   0  0  0  0  0  0  0  0  0  0  0  0
    9.2486  -15.1758   24.7771 O   0  0  0  0  0  0  0  0  0  0  0  0
   10.1776  -14.3441   24.6029 O   0  0  0  0  0  0  0  0  0  0  0  0
   12.4488  -19.0338   25.0499 C   0  0  0  0  0  0  0  0  0  0  0  0
    7.1468  -12.1406   25.1089 C   0  0  2  0  0  0  0  0  0  0  0  0
    7.3039  -12.7665   26.4532 O   0  0  0  0  0  0  0  0  0  0  0  0
    6.1106  -13.4175   26.7599 C   0  0  2  0  0  0  0  0  0  0  0  0
    8.4626  -13.6945   26.5661 N   0  0  0  0  0  0  0  0  0  0  0  0
    8.2905  -14.8912   25.7790 C   0  0  0  0  0  0  0  0  0  0  0  0
    8.9173  -13.9419   27.9578 O   0  0  0  0  0  0  0  0  0  0  0  0
    9.2225  -12.9889   28.8980 O   0  0  0  0  0  0  0  0  0  0  0  0
  2  4  1  0
  2  1  1  0
  3  2  2  0
  5  4  1  0
  6  5  1  0
  7  8  1  0
  7  6  1  0
  8  9  1  6
 10 11  2  0
 10  8  1  0
 12 10  1  0
 13 12  1  0
 13 14  1  6
 15 14  1  0
 16 15  1  0
 17 16  2  0
 18 13  1  0
 18 25  1  0
 19 18  2  0
 20 16  1  0
 22 21  1  1
 22 24  1  0
 22 23  1  0
 24 25  1  1
 24 26  1  0
 26 27  1  0
 28 26  2  0
M  END
$$$$
