RET.pdb
     RDKit          3D

 28 27  0  0  1  0  0  0  0  0999 V2000
    9.3976  -11.3716   19.7162 N   0  0  0  0  0  0  0  0  0  0  0  0
    8.9404  -12.6528   19.3139 C   0  0  0  0  0  0  0  0  0  0  0  0
    9.3223  -13.2010   18.2122 N   0  0  0  0  0  0  0  0  0  0  0  0
    8.0325  -13.3722   20.1367 N   0  0  0  0  0  0  0  0  0  0  0  0
    7.5035  -14.6436   19.6971 C   0  0  0  0  0  0  0  0  0  0  0  0
    6.5073  -15.1130   20.7358 C   0  0  0  0  0  0  0  0  0  0  0  0
    7.1482  -15.4392   22.0559 C   0  0  0  0  0  0  0  0  0  0  0  0
    7.7051  -16.8595   21.9180 C   0  0  2  0  0  0  0  0  0  0  0  0
    6.6617  -17.8221   21.7497 N   0  0  0  0  0  0  0  0  0  0  0  0
    8.4619  -17.1896   23.1784 C   0  0  0  0  0  0  0  0  0  0  0  0
    7.8594  -17.6578   24.1891 O   0  0  0  0  0  0  0  0  0  0  0  0
    8.9195  -14.0905   17.8553 N   0  0  0  0  0  0  0  0  0  0  0  0
    9.8458  -16.9983   23.2932 C   0  0  2  0  0  0  0  0  0  0  0  0
   10.5554  -17.4019   24.5172 C   0  0  0  0  0  0  0  0  0  0  0  0
   11.9995  -17.5847   24.2098 C   0  0  0  0  0  0  0  0  0  0  0  0
   12.8041  -17.9843   25.3984 C   0  0  0  0  0  0  0  0  0  0  0  0
   14.2345  -18.1865   25.1773 O   0  0  0  0  0  0  0  0  0  0  0  0
   14.8092  -17.6915   24.1950 C   0  0  0  0  0  0  0  0  0  0  0  0
   10.3940  -16.2605   25.4523 O   0  0  0  0  0  0  0  0  0  0  0  0
   10.6284  -15.1095   24.9993 O   0  0  0  0  0  0  0  0  0  0  0  0
   14.9877  -18.9436   26.0701 C   0  0  0  0  0  0  0  0  0  0  0  0
    8.6814  -13.6749   26.2129 C   0  0  2  0  0  0  0  0  0  0  0  0
    8.8654  -14.3329   27.5384 O   0  0  0  0  0  0  0  0  0  0  0  0
    7.7134  -15.0684   27.8104 C   0  0  2  0  0  0  0  0  0  0  0  0
   10.0801  -15.1884   27.6351 N   0  0  0  0  0  0  0  0  0  0  0  0
    9.9940  -16.3657   26.8057 C   0  0  0  0  0  0  0  0  0  0  0  0
   10.5344  -15.4543   29.0235 O   0  0  0  0  0  0  0  0  0  0  0  0
   10.7504  -16.6866   29.5893 O   0  0  0  0  0  0  0  0  0  0  0  0
  2  4  1  0
  2  1  1  0
  3  2  2  0
  5  4  1  0
  6  5  1  0
  7  8  1  0
  7  6  1  0
  8  9  1  1
 10 11  2  0
 10  8  1  0
 12 10  1  0
 13 12  1  0
 13 14  1  6
 15 14  1  0
 16 15  1  0
 17 16  2  0
 18 13  1  0
 18 25  1  0
 19 18  2  0
 20 16  1  0
 22 21  1  1
 22 24  1  0
 22 23  1  0
 24 25  1  1
 24 26  1  0
 26 27  1  0
 28 26  2  0
M  END
$$$$
