RET.pdb
     RDKit          3D

 28 27  0  0  1  0  0  0  0  0999 V2000
   10.1832  -17.2222   16.9018 N   0  0  0  0  0  0  0  0  0  0  0  0
   10.7520  -16.5663   15.7798 C   0  0  0  0  0  0  0  0  0  0  0  0
   11.9486  -16.8179   15.3741 N   0  0  0  0  0  0  0  0  0  0  0  0
    9.9959  -15.5979   15.0662 N   0  0  0  0  0  0  0  0  0  0  0  0
    8.6271  -15.3234   15.4413 C   0  0  0  0  0  0  0  0  0  0  0  0
    8.6517  -14.3262   16.5800 C   0  0  0  0  0  0  0  0  0  0  0  0
    7.9284  -14.8166   17.8031 C   0  0  0  0  0  0  0  0  0  0  0  0
    7.9619  -13.6611   18.8081 C   0  0  2  0  0  0  0  0  0  0  0  0
    8.0638  -12.3943   18.1534 N   0  0  0  0  0  0  0  0  0  0  0  0
    9.1703  -13.8428   19.6897 C   0  0  0  0  0  0  0  0  0  0  0  0
   10.1850  -13.0970   19.5556 O   0  0  0  0  0  0  0  0  0  0  0  0
   12.3713  -16.3574   14.5433 N   0  0  0  0  0  0  0  0  0  0  0  0
    9.2305  -14.8287   20.6843 C   0  0  2  0  0  0  0  0  0  0  0  0
   10.3813  -14.8961   21.5985 C   0  0  0  0  0  0  0  0  0  0  0  0
   10.0821  -15.8571   22.6941 C   0  0  0  0  0  0  0  0  0  0  0  0
   11.2387  -16.0824   23.6060 C   0  0  0  0  0  0  0  0  0  0  0  0
   11.0465  -17.0664   24.6693 O   0  0  0  0  0  0  0  0  0  0  0  0
    9.9360  -17.5808   24.8758 C   0  0  0  0  0  0  0  0  0  0  0  0
   11.4987  -15.4232   20.7758 O   0  0  0  0  0  0  0  0  0  0  0  0
   11.3709  -16.5863   20.3112 O   0  0  0  0  0  0  0  0  0  0  0  0
   12.1122  -17.4505   25.4782 C   0  0  0  0  0  0  0  0  0  0  0  0
   13.3417  -14.1902   17.7021 C   0  0  2  0  0  0  0  0  0  0  0  0
   14.3456  -14.6939   18.6830 O   0  0  0  0  0  0  0  0  0  0  0  0
   15.0903  -13.6025   19.1259 C   0  0  2  0  0  0  0  0  0  0  0  0
   13.7609  -15.4418   19.8298 N   0  0  0  0  0  0  0  0  0  0  0  0
   12.6886  -14.7203   20.4707 C   0  0  0  0  0  0  0  0  0  0  0  0
   14.7628  -16.0044   20.7703 O   0  0  0  0  0  0  0  0  0  0  0  0
   15.8329  -16.8000   20.4425 O   0  0  0  0  0  0  0  0  0  0  0  0
  2  4  1  0
  2  1  1  0
  3  2  2  0
  5  4  1  0
  6  5  1  0
  7  8  1  0
  7  6  1  0
  8  9  1  6
 10 11  2  0
 10  8  1  0
 12 10  1  0
 13 12  1  0
 13 14  1  6
 15 14  1  0
 16 15  1  0
 17 16  2  0
 18 13  1  0
 18 25  1  0
 19 18  2  0
 20 16  1  0
 22 21  1  6
 22 24  1  0
 22 23  1  0
 24 25  1  6
 24 26  1  0
 26 27  1  0
 28 26  2  0
M  END
$$$$
