RET.pdb
     RDKit          3D

 28 27  0  0  1  0  0  0  0  0999 V2000
    7.3764  -13.2344   15.9524 N   0  0  0  0  0  0  0  0  0  0  0  0
    8.0768  -14.4494   15.7389 C   0  0  0  0  0  0  0  0  0  0  0  0
    8.7378  -14.6773   14.6567 N   0  0  0  0  0  0  0  0  0  0  0  0
    8.0626  -15.4607   16.7368 N   0  0  0  0  0  0  0  0  0  0  0  0
    7.3936  -15.2292   17.9972 C   0  0  0  0  0  0  0  0  0  0  0  0
    8.2504  -14.2794   18.8068 C   0  0  0  0  0  0  0  0  0  0  0  0
    7.7576  -14.1034   20.2160 C   0  0  0  0  0  0  0  0  0  0  0  0
    8.8190  -13.2653   20.9354 C   0  0  2  0  0  0  0  0  0  0  0  0
    9.5031  -12.3920   20.0337 N   0  0  0  0  0  0  0  0  0  0  0  0
    9.8247  -14.2073   21.5449 C   0  0  0  0  0  0  0  0  0  0  0  0
   11.0183  -14.2384   21.1227 O   0  0  0  0  0  0  0  0  0  0  0  0
    9.3116  -15.5327   14.5155 N   0  0  0  0  0  0  0  0  0  0  0  0
    9.4954  -15.0804   22.5910 C   0  0  2  0  0  0  0  0  0  0  0  0
   10.5427  -15.8608   23.2684 C   0  0  0  0  0  0  0  0  0  0  0  0
   10.0639  -16.2546   24.6208 C   0  0  0  0  0  0  0  0  0  0  0  0
   11.0224  -17.1344   25.3469 C   0  0  0  0  0  0  0  0  0  0  0  0
   10.6973  -17.4417   26.7382 O   0  0  0  0  0  0  0  0  0  0  0  0
    9.8752  -16.7610   27.3715 C   0  0  0  0  0  0  0  0  0  0  0  0
   10.7173  -17.0778   22.4367 O   0  0  0  0  0  0  0  0  0  0  0  0
    9.6739  -17.6232   21.9906 O   0  0  0  0  0  0  0  0  0  0  0  0
   11.3068  -18.5119   27.3868 C   0  0  0  0  0  0  0  0  0  0  0  0
   12.8930  -19.9744   19.2583 C   0  0  2  0  0  0  0  0  0  0  0  0
   12.8372  -18.7460   20.1020 O   0  0  0  0  0  0  0  0  0  0  0  0
   12.4392  -17.6888   19.2859 C   0  0  1  0  0  0  0  0  0  0  0  0
   11.9542  -18.8609   21.2951 N   0  0  0  0  0  0  0  0  0  0  0  0
   11.9606  -17.6665   22.1041 C   0  0  0  0  0  0  0  0  0  0  0  0
   12.1249  -20.1185   22.0659 O   0  0  0  0  0  0  0  0  0  0  0  0
   11.6079  -21.3492   21.7441 O   0  0  0  0  0  0  0  0  0  0  0  0
  2  4  1  0
  2  1  1  0
  3  2  2  0
  5  4  1  0
  6  5  1  0
  7  8  1  0
  7  6  1  0
  8  9  1  6
 10 11  2  0
 10  8  1  0
 12 10  1  0
 13 12  1  0
 13 14  1  1
 15 14  1  0
 16 15  1  0
 17 16  2  0
 18 13  1  0
 18 25  1  0
 19 18  2  0
 20 16  1  0
 22 21  1  6
 22 24  1  0
 22 23  1  0
 24 25  1  1
 24 26  1  0
 26 27  1  0
 28 26  2  0
M  END
$$$$
