RET.pdb
     RDKit          3D

 28 27  0  0  1  0  0  0  0  0999 V2000
    8.0570  -12.1081   19.2771 N   0  0  0  0  0  0  0  0  0  0  0  0
    7.7848  -12.9917   18.2012 C   0  0  0  0  0  0  0  0  0  0  0  0
    8.1123  -12.7127   16.9868 N   0  0  0  0  0  0  0  0  0  0  0  0
    7.1315  -14.2291   18.4480 N   0  0  0  0  0  0  0  0  0  0  0  0
    6.5569  -14.5018   19.7462 C   0  0  0  0  0  0  0  0  0  0  0  0
    7.6767  -14.4612   20.7642 C   0  0  0  0  0  0  0  0  0  0  0  0
    7.6802  -15.6548   21.6780 C   0  0  0  0  0  0  0  0  0  0  0  0
    8.4835  -16.7405   20.9552 C   0  0  2  0  0  0  0  0  0  0  0  0
    7.6301  -17.7203   20.3589 N   0  0  0  0  0  0  0  0  0  0  0  0
    9.3626  -17.4252   21.9695 C   0  0  0  0  0  0  0  0  0  0  0  0
    8.9443  -18.4351   22.6089 O   0  0  0  0  0  0  0  0  0  0  0  0
    7.9803  -13.3789   16.1995 N   0  0  0  0  0  0  0  0  0  0  0  0
   10.6639  -16.9865   22.2507 C   0  0  1  0  0  0  0  0  0  0  0  0
   11.5047  -17.7152   23.2133 C   0  0  0  0  0  0  0  0  0  0  0  0
   12.9005  -17.2073   23.1288 C   0  0  0  0  0  0  0  0  0  0  0  0
   13.7980  -17.7893   24.1660 C   0  0  0  0  0  0  0  0  0  0  0  0
   15.1980  -17.3722   24.1226 O   0  0  0  0  0  0  0  0  0  0  0  0
   15.5401  -16.2320   24.4737 C   0  0  0  0  0  0  0  0  0  0  0  0
   10.9425  -17.3840   24.5465 O   0  0  0  0  0  0  0  0  0  0  0  0
   11.0239  -16.1852   24.9225 O   0  0  0  0  0  0  0  0  0  0  0  0
   16.1842  -18.2511   23.6838 C   0  0  0  0  0  0  0  0  0  0  0  0
    7.7134  -16.9819   26.0015 C   0  0  2  0  0  0  0  0  0  0  0  0
    8.4691  -17.8580   26.9422 O   0  0  0  0  0  0  0  0  0  0  0  0
    7.9551  -19.1481   26.8259 C   0  0  2  0  0  0  0  0  0  0  0  0
    9.9437  -17.8505   26.7369 N   0  0  0  0  0  0  0  0  0  0  0  0
   10.3205  -18.3066   25.4211 C   0  0  0  0  0  0  0  0  0  0  0  0
   10.7201  -18.4697   27.8408 O   0  0  0  0  0  0  0  0  0  0  0  0
   10.6256  -18.1640   29.1761 O   0  0  0  0  0  0  0  0  0  0  0  0
  2  4  1  0
  2  1  1  0
  3  2  2  0
  5  4  1  0
  6  5  1  0
  7  8  1  0
  7  6  1  0
  8  9  1  1
 10 11  2  0
 10  8  1  0
 12 10  1  0
 13 12  1  0
 13 14  1  6
 15 14  1  0
 16 15  1  0
 17 16  2  0
 18 13  1  0
 18 25  1  0
 19 18  2  0
 20 16  1  0
 22 21  1  1
 22 24  1  0
 22 23  1  0
 24 25  1  1
 24 26  1  0
 26 27  1  0
 28 26  2  0
M  END
$$$$
