RET.pdb
     RDKit          3D

 28 27  0  0  1  0  0  0  0  0999 V2000
    8.3795  -14.6875   16.5231 N   0  0  0  0  0  0  0  0  0  0  0  0
    7.8601  -13.4830   17.0634 C   0  0  0  0  0  0  0  0  0  0  0  0
    8.0514  -12.3411   16.4983 N   0  0  0  0  0  0  0  0  0  0  0  0
    7.1021  -13.5138   18.2648 N   0  0  0  0  0  0  0  0  0  0  0  0
    7.1385  -14.6802   19.1178 C   0  0  0  0  0  0  0  0  0  0  0  0
    8.4508  -14.6595   19.8723 C   0  0  0  0  0  0  0  0  0  0  0  0
    8.5742  -15.7836   20.8626 C   0  0  0  0  0  0  0  0  0  0  0  0
    9.9335  -15.6010   21.5449 C   0  0  2  0  0  0  0  0  0  0  0  0
   10.9545  -16.3682   20.9024 N   0  0  0  0  0  0  0  0  0  0  0  0
    9.8079  -16.0707   22.9711 C   0  0  0  0  0  0  0  0  0  0  0  0
    8.9288  -15.5777   23.7378 O   0  0  0  0  0  0  0  0  0  0  0  0
    7.6672  -11.4525   16.8776 N   0  0  0  0  0  0  0  0  0  0  0  0
   10.6428  -17.0591   23.5106 C   0  0  1  0  0  0  0  0  0  0  0  0
   10.3242  -17.6782   24.8067 C   0  0  0  0  0  0  0  0  0  0  0  0
   11.1867  -18.8740   25.0046 C   0  0  0  0  0  0  0  0  0  0  0  0
   10.6206  -20.1103   24.3954 C   0  0  0  0  0  0  0  0  0  0  0  0
   11.4691  -21.2997   24.4303 O   0  0  0  0  0  0  0  0  0  0  0  0
   12.2011  -21.5953   23.4727 C   0  0  0  0  0  0  0  0  0  0  0  0
   10.6697  -16.6513   25.8213 O   0  0  0  0  0  0  0  0  0  0  0  0
   11.7010  -15.9606   25.6113 O   0  0  0  0  0  0  0  0  0  0  0  0
   11.4743  -22.1319   25.5462 C   0  0  0  0  0  0  0  0  0  0  0  0
    9.8312  -13.3077   26.7308 C   0  0  2  0  0  0  0  0  0  0  0  0
    9.6603  -14.1566   27.9448 O   0  0  0  0  0  0  0  0  0  0  0  0
    8.3001  -14.4240   28.0872 C   0  0  2  0  0  0  0  0  0  0  0  0
   10.4532  -15.4166   27.9288 N   0  0  0  0  0  0  0  0  0  0  0  0
    9.9296  -16.3868   26.9983 C   0  0  0  0  0  0  0  0  0  0  0  0
   10.7584  -15.9667   29.2738 O   0  0  0  0  0  0  0  0  0  0  0  0
   10.5356  -17.2532   29.6989 O   0  0  0  0  0  0  0  0  0  0  0  0
  2  4  1  0
  2  1  1  0
  3  2  2  0
  5  4  1  0
  6  5  1  0
  7  8  1  0
  7  6  1  0
  8  9  1  6
 10 11  2  0
 10  8  1  0
 12 10  1  0
 13 12  1  0
 13 14  1  1
 15 14  1  0
 16 15  1  0
 17 16  2  0
 18 13  1  0
 18 25  1  0
 19 18  2  0
 20 16  1  0
 22 21  1  1
 22 24  1  0
 22 23  1  0
 24 25  1  1
 24 26  1  0
 26 27  1  0
 28 26  2  0
M  END
$$$$
