LRW.pdb
     RDKit          3D

 34 35  0  0  1  0  0  0  0  0999 V2000
   17.0998  -15.6768    2.7540 C   0  0  0  0  0  0  0  0  0  0  0  0
   16.5027  -16.9247    2.1617 C   0  0  1  0  0  0  0  0  0  0  0  0
   17.5268  -17.7532    1.4539 C   0  0  0  0  0  0  0  0  0  0  0  0
   15.8024  -17.7608    3.2322 C   0  0  0  0  0  0  0  0  0  0  0  0
   15.0624  -18.9172    2.6076 C   0  0  2  0  0  0  0  0  0  0  0  0
   13.7610  -18.5189    2.1119 N   0  0  0  0  0  0  0  0  0  0  0  0
   14.8573  -19.9959    3.6030 C   0  0  0  0  0  0  0  0  0  0  0  0
   13.7842  -20.0146    4.2647 O   0  0  0  0  0  0  0  0  0  0  0  0
   16.0613  -27.9191    1.6343 N   0  0  0  0  0  0  0  0  0  0  0  0
   15.1925  -26.9764    1.0305 C   0  0  0  0  0  0  0  0  0  0  0  0
   14.5399  -27.3383   -0.0140 N   0  0  0  0  0  0  0  0  0  0  0  0
   15.0275  -25.6654    1.5407 N   0  0  0  0  0  0  0  0  0  0  0  0
   15.6861  -25.2148    2.7254 C   0  0  0  0  0  0  0  0  0  0  0  0
   15.1961  -23.8583    3.1879 C   0  0  0  0  0  0  0  0  0  0  0  0
   15.9552  -23.3939    4.4119 C   0  0  0  0  0  0  0  0  0  0  0  0
   15.5366  -22.0112    4.8436 C   0  0  2  0  0  0  0  0  0  0  0  0
   15.8013  -21.0102    3.8542 N   0  0  0  0  0  0  0  0  0  0  0  0
   16.3723  -21.6778    6.0397 C   0  0  0  0  0  0  0  0  0  0  0  0
   17.5744  -21.3220    5.9484 O   0  0  0  0  0  0  0  0  0  0  0  0
   13.9100  -26.6784   -0.4832 N   0  0  0  0  0  0  0  0  0  0  0  0
   15.8027  -21.7598    7.3521 C   0  0  2  0  0  0  0  0  0  0  0  0
   16.5811  -21.5051    8.5536 C   0  0  0  0  0  0  0  0  0  0  0  0
   15.6960  -20.9055    9.6246 C   0  0  0  0  0  0  0  0  0  0  0  0
   15.2604  -19.5569    9.1857 C   0  0  0  0  0  0  0  0  0  0  0  0
   16.0050  -18.5943    8.5184 N   0  0  0  0  0  0  0  0  0  0  0  0
   15.2588  -17.5089    8.3021 C   0  0  0  0  0  0  0  0  0  0  0  0
   14.0394  -17.7341    8.8115 C   0  0  0  0  0  0  0  0  0  0  0  0
   12.8745  -16.9823    8.8805 C   0  0  0  0  0  0  0  0  0  0  0  0
   11.7427  -17.4812    9.4785 C   0  0  0  0  0  0  0  0  0  0  0  0
   11.7109  -18.7430   10.0344 C   0  0  0  0  0  0  0  0  0  0  0  0
   12.8540  -19.5077    9.9782 C   0  0  0  0  0  0  0  0  0  0  0  0
   13.9870  -19.0090    9.3798 C   0  0  0  0  0  0  0  0  0  0  0  0
   17.1656  -22.7520    9.0843 O   0  0  0  0  0  0  0  0  0  0  0  0
   17.0326  -23.8666    8.5491 O   0  0  0  0  0  0  0  0  0  0  0  0
  2  1  1  1
  2  4  1  0
  3  2  1  0
  5  4  1  0
  5  6  1  1
  7  8  2  0
  7  5  1  0
  9 10  1  0
 10 12  1  0
 11 10  2  0
 12 13  1  0
 13 14  1  0
 14 15  1  0
 16 15  1  6
 16 17  1  0
 17  7  1  0
 18 19  2  0
 18 16  1  0
 20 18  1  0
 21 20  1  0
 21 22  1  6
 22 23  1  0
 23 31  1  0
 23 24  2  0
 24 25  1  0
 26 25  1  0
 26 27  2  0
 28 27  1  0
 29 28  2  0
 30 31  2  0
 30 29  1  0
 31 26  1  0
 32 21  1  0
 33 32  2  0
 34 32  1  0
M  END
$$$$
