LRW.pdb
     RDKit          3D

 34 35  0  0  1  0  0  0  0  0999 V2000
   28.0762  -17.9426  -17.3957 C   0  0  0  0  0  0  0  0  0  0  0  0
   28.0067  -19.1173  -16.4576 C   0  0  1  0  0  0  0  0  0  0  0  0
   29.3356  -19.4216  -15.8431 C   0  0  0  0  0  0  0  0  0  0  0  0
   26.9651  -18.8865  -15.3636 C   0  0  0  0  0  0  0  0  0  0  0  0
   27.2234  -19.7868  -14.1813 C   0  0  2  0  0  0  0  0  0  0  0  0
   27.1437  -21.1871  -14.5434 N   0  0  0  0  0  0  0  0  0  0  0  0
   26.2247  -19.5370  -13.1153 C   0  0  0  0  0  0  0  0  0  0  0  0
   25.8170  -18.3583  -12.9301 O   0  0  0  0  0  0  0  0  0  0  0  0
   22.9684  -24.1616  -15.1935 N   0  0  0  0  0  0  0  0  0  0  0  0
   22.3059  -24.3841  -13.9608 C   0  0  0  0  0  0  0  0  0  0  0  0
   22.1734  -25.5950  -13.5559 N   0  0  0  0  0  0  0  0  0  0  0  0
   21.7937  -23.3225  -13.1755 N   0  0  0  0  0  0  0  0  0  0  0  0
   21.9921  -21.9500  -13.5179 C   0  0  0  0  0  0  0  0  0  0  0  0
   23.3603  -21.4384  -13.1175 C   0  0  0  0  0  0  0  0  0  0  0  0
   23.3123  -20.7548  -11.7683 C   0  0  0  0  0  0  0  0  0  0  0  0
   24.6675  -20.2470  -11.3453 C   0  0  2  0  0  0  0  0  0  0  0  0
   25.7004  -20.5503  -12.2898 N   0  0  0  0  0  0  0  0  0  0  0  0
   25.0055  -20.9689  -10.0784 C   0  0  0  0  0  0  0  0  0  0  0  0
   25.2673  -22.1979  -10.0481 O   0  0  0  0  0  0  0  0  0  0  0  0
   21.6858  -25.7942  -12.6755 N   0  0  0  0  0  0  0  0  0  0  0  0
   25.0388  -20.2530   -8.8375 C   0  0  1  0  0  0  0  0  0  0  0  0
   25.0791  -20.9300   -7.5513 C   0  0  0  0  0  0  0  0  0  0  0  0
   25.4890  -19.9562   -6.4680 C   0  0  0  0  0  0  0  0  0  0  0  0
   26.9215  -19.6152   -6.6480 C   0  0  0  0  0  0  0  0  0  0  0  0
   27.5819  -19.2973   -7.8267 N   0  0  0  0  0  0  0  0  0  0  0  0
   28.8705  -19.0549   -7.5768 C   0  0  0  0  0  0  0  0  0  0  0  0
   29.0746  -19.2055   -6.2605 C   0  0  0  0  0  0  0  0  0  0  0  0
   30.1894  -19.0847   -5.4422 C   0  0  0  0  0  0  0  0  0  0  0  0
   30.1029  -19.3040   -4.0887 C   0  0  0  0  0  0  0  0  0  0  0  0
   28.9134  -19.6520   -3.4838 C   0  0  0  0  0  0  0  0  0  0  0  0
   27.7938  -19.7778   -4.2744 C   0  0  0  0  0  0  0  0  0  0  0  0
   27.8796  -19.5585   -5.6290 C   0  0  0  0  0  0  0  0  0  0  0  0
   23.7568  -21.4820   -7.1979 O   0  0  0  0  0  0  0  0  0  0  0  0
   22.6931  -21.1490   -7.7493 O   0  0  0  0  0  0  0  0  0  0  0  0
  2  1  1  1
  2  4  1  0
  3  2  1  0
  5  4  1  0
  5  6  1  6
  7  8  2  0
  7  5  1  0
  9 10  1  0
 10 12  1  0
 11 10  2  0
 12 13  1  0
 13 14  1  0
 14 15  1  0
 16 15  1  6
 16 17  1  0
 17  7  1  0
 18 19  2  0
 18 16  1  0
 20 18  1  0
 21 20  1  0
 21 22  1  1
 22 23  1  0
 23 31  1  0
 23 24  2  0
 24 25  1  0
 26 25  1  0
 26 27  2  0
 28 27  1  0
 29 28  2  0
 30 31  2  0
 30 29  1  0
 31 26  1  0
 32 21  1  0
 33 32  2  0
 34 32  1  0
M  END
$$$$
