LRW.pdb
     RDKit          3D

 34 35  0  0  1  0  0  0  0  0999 V2000
   19.2483  -18.8599  -15.5452 C   0  0  0  0  0  0  0  0  0  0  0  0
   18.9854  -19.2426  -14.1137 C   0  0  1  0  0  0  0  0  0  0  0  0
   17.6774  -19.9498  -13.9552 C   0  0  0  0  0  0  0  0  0  0  0  0
   20.1175  -20.1060  -13.5586 C   0  0  0  0  0  0  0  0  0  0  0  0
   21.2946  -19.2516  -13.1594 C   0  0  2  0  0  0  0  0  0  0  0  0
   21.8455  -18.5323  -14.2896 N   0  0  0  0  0  0  0  0  0  0  0  0
   22.3727  -20.0935  -12.5891 C   0  0  0  0  0  0  0  0  0  0  0  0
   22.0930  -20.8784  -11.6427 O   0  0  0  0  0  0  0  0  0  0  0  0
   24.8094  -26.3653  -14.9859 N   0  0  0  0  0  0  0  0  0  0  0  0
   24.3465  -25.5299  -16.0329 C   0  0  0  0  0  0  0  0  0  0  0  0
   23.4517  -25.9956  -16.8268 N   0  0  0  0  0  0  0  0  0  0  0  0
   24.8373  -24.2151  -16.2239 N   0  0  0  0  0  0  0  0  0  0  0  0
   25.6599  -23.5558  -15.2602 C   0  0  0  0  0  0  0  0  0  0  0  0
   24.8624  -22.9624  -14.1174 C   0  0  0  0  0  0  0  0  0  0  0  0
   25.4706  -21.6583  -13.6488 C   0  0  0  0  0  0  0  0  0  0  0  0
   24.6548  -21.0169  -12.5550 C   0  0  2  0  0  0  0  0  0  0  0  0
   23.7037  -20.0665  -13.0481 N   0  0  0  0  0  0  0  0  0  0  0  0
   25.6249  -20.2637  -11.6996 C   0  0  0  0  0  0  0  0  0  0  0  0
   26.3050  -19.3000  -12.1340 O   0  0  0  0  0  0  0  0  0  0  0  0
   23.0453  -25.3969  -17.5540 N   0  0  0  0  0  0  0  0  0  0  0  0
   25.8037  -20.6364  -10.3275 C   0  0  2  0  0  0  0  0  0  0  0  0
   27.0628  -20.4399   -9.6273 C   0  0  0  0  0  0  0  0  0  0  0  0
   26.9640  -20.9935   -8.2223 C   0  0  0  0  0  0  0  0  0  0  0  0
   27.2682  -19.9081   -7.2579 C   0  0  0  0  0  0  0  0  0  0  0  0
   26.8777  -18.5775   -7.3188 N   0  0  0  0  0  0  0  0  0  0  0  0
   27.3539  -17.9132   -6.2635 C   0  0  0  0  0  0  0  0  0  0  0  0
   28.0491  -18.7755   -5.5082 C   0  0  0  0  0  0  0  0  0  0  0  0
   28.7531  -18.6570   -4.3178 C   0  0  0  0  0  0  0  0  0  0  0  0
   29.3864  -19.7398   -3.7575 C   0  0  0  0  0  0  0  0  0  0  0  0
   29.3529  -20.9861   -4.3470 C   0  0  0  0  0  0  0  0  0  0  0  0
   28.6608  -21.1287   -5.5282 C   0  0  0  0  0  0  0  0  0  0  0  0
   28.0268  -20.0455   -6.0895 C   0  0  0  0  0  0  0  0  0  0  0  0
   28.1698  -21.1303  -10.3173 O   0  0  0  0  0  0  0  0  0  0  0  0
   29.3072  -20.6493  -10.4635 O   0  0  0  0  0  0  0  0  0  0  0  0
  2  1  1  6
  2  4  1  0
  3  2  1  0
  5  4  1  0
  5  6  1  6
  7  8  2  0
  7  5  1  0
  9 10  1  0
 10 12  1  0
 11 10  2  0
 12 13  1  0
 13 14  1  0
 14 15  1  0
 16 15  1  6
 16 17  1  0
 17  7  1  0
 18 19  2  0
 18 16  1  0
 20 18  1  0
 21 20  1  0
 21 22  1  1
 22 23  1  0
 23 31  1  0
 23 24  2  0
 24 25  1  0
 26 25  1  0
 26 27  2  0
 28 27  1  0
 29 28  2  0
 30 31  2  0
 30 29  1  0
 31 26  1  0
 32 21  1  0
 33 32  2  0
 34 32  1  0
M  END
$$$$
