LRW.pdb
     RDKit          3D

 34 35  0  0  1  0  0  0  0  0999 V2000
   29.4025  -16.3484  -20.0405 C   0  0  0  0  0  0  0  0  0  0  0  0
   29.3736  -17.6443  -19.2761 C   0  0  1  0  0  0  0  0  0  0  0  0
   30.5533  -18.5069  -19.5931 C   0  0  0  0  0  0  0  0  0  0  0  0
   29.2987  -17.3932  -17.7706 C   0  0  0  0  0  0  0  0  0  0  0  0
   29.2731  -18.6967  -17.0121 C   0  0  2  0  0  0  0  0  0  0  0  0
   28.5776  -19.7334  -17.7467 N   0  0  0  0  0  0  0  0  0  0  0  0
   28.5838  -18.5228  -15.7117 C   0  0  0  0  0  0  0  0  0  0  0  0
   29.0152  -17.6521  -14.9081 O   0  0  0  0  0  0  0  0  0  0  0  0
   21.5279  -21.1504  -14.4763 N   0  0  0  0  0  0  0  0  0  0  0  0
   21.5078  -19.8700  -13.8693 C   0  0  0  0  0  0  0  0  0  0  0  0
   20.7182  -19.6852  -12.8743 N   0  0  0  0  0  0  0  0  0  0  0  0
   22.3230  -18.8049  -14.3244 N   0  0  0  0  0  0  0  0  0  0  0  0
   23.1819  -18.9270  -15.4592 C   0  0  0  0  0  0  0  0  0  0  0  0
   24.5416  -19.4935  -15.1062 C   0  0  0  0  0  0  0  0  0  0  0  0
   25.3645  -18.4891  -14.3291 C   0  0  0  0  0  0  0  0  0  0  0  0
   26.7751  -18.9711  -14.1025 C   0  0  2  0  0  0  0  0  0  0  0  0
   27.4644  -19.2814  -15.3188 N   0  0  0  0  0  0  0  0  0  0  0  0
   26.6597  -20.2454  -13.3259 C   0  0  0  0  0  0  0  0  0  0  0  0
   26.4908  -21.3621  -13.8777 O   0  0  0  0  0  0  0  0  0  0  0  0
   20.6957  -18.7785  -12.3949 N   0  0  0  0  0  0  0  0  0  0  0  0
   26.7418  -20.2181  -11.8955 C   0  0  2  0  0  0  0  0  0  0  0  0
   26.5058  -21.3997  -11.0816 C   0  0  0  0  0  0  0  0  0  0  0  0
   27.5678  -21.5082  -10.0090 C   0  0  0  0  0  0  0  0  0  0  0  0
   27.2407  -20.5620   -8.9143 C   0  0  0  0  0  0  0  0  0  0  0  0
   26.1131  -19.7630   -8.7848 N   0  0  0  0  0  0  0  0  0  0  0  0
   26.1883  -19.0461   -7.6613 C   0  0  0  0  0  0  0  0  0  0  0  0
   27.3394  -19.3544   -7.0472 C   0  0  0  0  0  0  0  0  0  0  0  0
   27.9414  -18.9333   -5.8695 C   0  0  0  0  0  0  0  0  0  0  0  0
   29.1590  -19.4340   -5.4768 C   0  0  0  0  0  0  0  0  0  0  0  0
   29.8355  -20.3716   -6.2287 C   0  0  0  0  0  0  0  0  0  0  0  0
   29.2586  -20.8049   -7.4009 C   0  0  0  0  0  0  0  0  0  0  0  0
   28.0400  -20.3042   -7.7944 C   0  0  0  0  0  0  0  0  0  0  0  0
   25.1881  -21.3366  -10.4199 O   0  0  0  0  0  0  0  0  0  0  0  0
   24.5263  -20.2926  -10.2840 O   0  0  0  0  0  0  0  0  0  0  0  0
  2  1  1  6
  2  4  1  0
  3  2  1  0
  5  4  1  0
  5  6  1  6
  7  8  2  0
  7  5  1  0
  9 10  1  0
 10 12  1  0
 11 10  2  0
 12 13  1  0
 13 14  1  0
 14 15  1  0
 16 15  1  6
 16 17  1  0
 17  7  1  0
 18 19  2  0
 18 16  1  0
 20 18  1  0
 21 20  1  0
 21 22  1  6
 22 23  1  0
 23 31  1  0
 23 24  2  0
 24 25  1  0
 26 25  1  0
 26 27  2  0
 28 27  1  0
 29 28  2  0
 30 31  2  0
 30 29  1  0
 31 26  1  0
 32 21  1  0
 33 32  2  0
 34 32  1  0
M  END
$$$$
