LRW.pdb
     RDKit          3D

 34 35  0  0  1  0  0  0  0  0999 V2000
   29.2963  -16.2735  -16.1454 C   0  0  0  0  0  0  0  0  0  0  0  0
   28.1254  -17.1365  -16.5313 C   0  0  1  0  0  0  0  0  0  0  0  0
   28.5576  -18.4917  -16.9926 C   0  0  0  0  0  0  0  0  0  0  0  0
   27.1351  -17.2687  -15.3750 C   0  0  0  0  0  0  0  0  0  0  0  0
   25.9991  -18.1886  -15.7471 C   0  0  2  0  0  0  0  0  0  0  0  0
   25.0854  -17.5648  -16.6820 N   0  0  0  0  0  0  0  0  0  0  0  0
   25.2252  -18.5659  -14.5407 C   0  0  0  0  0  0  0  0  0  0  0  0
   24.4547  -17.7127  -14.0229 O   0  0  0  0  0  0  0  0  0  0  0  0
   19.4921  -22.2846  -10.2556 N   0  0  0  0  0  0  0  0  0  0  0  0
   19.3737  -22.0439  -11.6471 C   0  0  0  0  0  0  0  0  0  0  0  0
   18.2503  -21.6109  -12.0921 N   0  0  0  0  0  0  0  0  0  0  0  0
   20.4455  -22.2652  -12.5462 N   0  0  0  0  0  0  0  0  0  0  0  0
   21.7270  -22.7249  -12.1140 C   0  0  0  0  0  0  0  0  0  0  0  0
   22.6908  -21.5915  -11.8307 C   0  0  0  0  0  0  0  0  0  0  0  0
   23.4567  -21.2040  -13.0769 C   0  0  0  0  0  0  0  0  0  0  0  0
   24.4874  -20.1397  -12.7970 C   0  0  2  0  0  0  0  0  0  0  0  0
   25.3023  -19.8346  -13.9344 N   0  0  0  0  0  0  0  0  0  0  0  0
   25.3929  -20.7032  -11.7469 C   0  0  0  0  0  0  0  0  0  0  0  0
   26.3144  -21.5159  -12.0120 O   0  0  0  0  0  0  0  0  0  0  0  0
   18.1219  -21.4469  -13.0967 N   0  0  0  0  0  0  0  0  0  0  0  0
   25.2232  -20.3166  -10.3775 C   0  0  2  0  0  0  0  0  0  0  0  0
   26.0834  -20.8167   -9.3172 C   0  0  0  0  0  0  0  0  0  0  0  0
   27.1578  -19.7990   -9.0008 C   0  0  0  0  0  0  0  0  0  0  0  0
   28.0910  -20.3821   -8.0059 C   0  0  0  0  0  0  0  0  0  0  0  0
   28.9698  -21.4425   -8.1785 N   0  0  0  0  0  0  0  0  0  0  0  0
   29.6374  -21.6712   -7.0454 C   0  0  0  0  0  0  0  0  0  0  0  0
   29.2189  -20.7857   -6.1300 C   0  0  0  0  0  0  0  0  0  0  0  0
   29.5494  -20.5488   -4.8028 C   0  0  0  0  0  0  0  0  0  0  0  0
   28.9419  -19.5443   -4.0889 C   0  0  0  0  0  0  0  0  0  0  0  0
   27.9822  -18.7303   -4.6531 C   0  0  0  0  0  0  0  0  0  0  0  0
   27.6376  -18.9456   -5.9681 C   0  0  0  0  0  0  0  0  0  0  0  0
   28.2452  -19.9506   -6.6832 C   0  0  0  0  0  0  0  0  0  0  0  0
   25.3147  -21.0732   -8.0836 O   0  0  0  0  0  0  0  0  0  0  0  0
   25.6381  -21.9104   -7.2229 O   0  0  0  0  0  0  0  0  0  0  0  0
  2  1  1  1
  2  4  1  0
  3  2  1  0
  5  4  1  0
  5  6  1  6
  7  8  2  0
  7  5  1  0
  9 10  1  0
 10 12  1  0
 11 10  2  0
 12 13  1  0
 13 14  1  0
 14 15  1  0
 16 15  1  6
 16 17  1  0
 17  7  1  0
 18 19  2  0
 18 16  1  0
 20 18  1  0
 21 20  1  0
 21 22  1  1
 22 23  1  0
 23 31  1  0
 23 24  2  0
 24 25  1  0
 26 25  1  0
 26 27  2  0
 28 27  1  0
 29 28  2  0
 30 31  2  0
 30 29  1  0
 31 26  1  0
 32 21  1  0
 33 32  2  0
 34 32  1  0
M  END
$$$$
