LRW.pdb
     RDKit          3D

 34 35  0  0  1  0  0  0  0  0999 V2000
   23.8272  -17.2250  -15.7781 C   0  0  0  0  0  0  0  0  0  0  0  0
   22.6520  -17.8880  -15.1119 C   0  0  1  0  0  0  0  0  0  0  0  0
   21.5288  -18.1286  -16.0695 C   0  0  0  0  0  0  0  0  0  0  0  0
   23.0647  -19.2016  -14.4490 C   0  0  0  0  0  0  0  0  0  0  0  0
   24.2275  -19.8262  -15.1790 C   0  0  2  0  0  0  0  0  0  0  0  0
   23.7860  -20.7285  -16.2226 N   0  0  0  0  0  0  0  0  0  0  0  0
   25.0711  -20.6002  -14.2378 C   0  0  0  0  0  0  0  0  0  0  0  0
   24.6425  -21.7049  -13.8069 O   0  0  0  0  0  0  0  0  0  0  0  0
   32.9486  -22.7668  -10.7367 N   0  0  0  0  0  0  0  0  0  0  0  0
   32.5790  -22.7924  -12.1045 C   0  0  0  0  0  0  0  0  0  0  0  0
   33.1936  -23.6088  -12.8814 N   0  0  0  0  0  0  0  0  0  0  0  0
   31.5652  -21.9540  -12.6294 N   0  0  0  0  0  0  0  0  0  0  0  0
   30.7692  -21.1033  -11.8030 C   0  0  0  0  0  0  0  0  0  0  0  0
   29.2999  -21.4703  -11.8283 C   0  0  0  0  0  0  0  0  0  0  0  0
   28.5410  -20.6096  -12.8149 C   0  0  0  0  0  0  0  0  0  0  0  0
   27.0729  -20.9513  -12.8480 C   0  0  2  0  0  0  0  0  0  0  0  0
   26.3355  -20.1680  -13.7934 N   0  0  0  0  0  0  0  0  0  0  0  0
   26.5375  -20.6190  -11.4904 C   0  0  0  0  0  0  0  0  0  0  0  0
   26.2928  -19.4404  -11.1284 O   0  0  0  0  0  0  0  0  0  0  0  0
   32.9605  -23.6453  -13.8798 N   0  0  0  0  0  0  0  0  0  0  0  0
   26.2854  -21.6682  -10.5474 C   0  0  1  0  0  0  0  0  0  0  0  0
   25.6915  -21.4151   -9.2446 C   0  0  0  0  0  0  0  0  0  0  0  0
   26.2039  -20.1038   -8.6896 C   0  0  0  0  0  0  0  0  0  0  0  0
   27.4786  -20.3531   -7.9728 C   0  0  0  0  0  0  0  0  0  0  0  0
   28.5817  -21.0693   -8.4165 N   0  0  0  0  0  0  0  0  0  0  0  0
   29.5323  -21.0704   -7.4793 C   0  0  0  0  0  0  0  0  0  0  0  0
   29.0811  -20.3712   -6.4283 C   0  0  0  0  0  0  0  0  0  0  0  0
   29.6198  -20.0421   -5.1920 C   0  0  0  0  0  0  0  0  0  0  0  0
   28.9103  -19.2915   -4.2861 C   0  0  0  0  0  0  0  0  0  0  0  0
   27.6388  -18.8332   -4.5602 C   0  0  0  0  0  0  0  0  0  0  0  0
   27.0831  -19.1465   -5.7799 C   0  0  0  0  0  0  0  0  0  0  0  0
   27.7927  -19.8976   -6.6870 C   0  0  0  0  0  0  0  0  0  0  0  0
   24.2207  -21.3327   -9.3361 O   0  0  0  0  0  0  0  0  0  0  0  0
   23.5901  -21.3041  -10.4075 O   0  0  0  0  0  0  0  0  0  0  0  0
  2  1  1  6
  2  4  1  0
  3  2  1  0
  5  4  1  0
  5  6  1  6
  7  8  2  0
  7  5  1  0
  9 10  1  0
 10 12  1  0
 11 10  2  0
 12 13  1  0
 13 14  1  0
 14 15  1  0
 16 15  1  1
 16 17  1  0
 17  7  1  0
 18 19  2  0
 18 16  1  0
 20 18  1  0
 21 20  1  0
 21 22  1  1
 22 23  1  0
 23 31  1  0
 23 24  2  0
 24 25  1  0
 26 25  1  0
 26 27  2  0
 28 27  1  0
 29 28  2  0
 30 31  2  0
 30 29  1  0
 31 26  1  0
 32 21  1  0
 33 32  2  0
 34 32  1  0
M  END
$$$$
