LRW.pdb
     RDKit          3D

 34 35  0  0  1  0  0  0  0  0999 V2000
   18.6826  -17.8590  -11.6265 C   0  0  0  0  0  0  0  0  0  0  0  0
   19.3326  -18.6870  -12.7020 C   0  0  1  0  0  0  0  0  0  0  0  0
   19.9834  -17.8366  -13.7458 C   0  0  0  0  0  0  0  0  0  0  0  0
   20.3522  -19.6579  -12.1079 C   0  0  0  0  0  0  0  0  0  0  0  0
   21.0974  -20.3844  -13.1996 C   0  0  2  0  0  0  0  0  0  0  0  0
   20.2691  -21.3823  -13.8446 N   0  0  0  0  0  0  0  0  0  0  0  0
   22.2855  -21.0731  -12.6423 C   0  0  0  0  0  0  0  0  0  0  0  0
   22.1986  -21.6068  -11.5033 O   0  0  0  0  0  0  0  0  0  0  0  0
   27.1704  -23.6958  -17.6864 N   0  0  0  0  0  0  0  0  0  0  0  0
   27.4287  -24.5627  -16.5956 C   0  0  0  0  0  0  0  0  0  0  0  0
   28.3160  -25.4777  -16.7477 N   0  0  0  0  0  0  0  0  0  0  0  0
   26.7442  -24.4484  -15.3608 N   0  0  0  0  0  0  0  0  0  0  0  0
   25.3533  -24.1333  -15.2810 C   0  0  0  0  0  0  0  0  0  0  0  0
   25.1001  -22.6633  -15.0181 C   0  0  0  0  0  0  0  0  0  0  0  0
   25.6917  -22.2379  -13.6918 C   0  0  0  0  0  0  0  0  0  0  0  0
   24.6274  -21.8305  -12.7047 C   0  0  2  0  0  0  0  0  0  0  0  0
   23.5171  -21.1662  -13.3187 N   0  0  0  0  0  0  0  0  0  0  0  0
   25.2720  -20.8452  -11.7806 C   0  0  0  0  0  0  0  0  0  0  0  0
   25.4508  -19.6407  -12.0924 O   0  0  0  0  0  0  0  0  0  0  0  0
   28.5511  -26.1029  -15.9691 N   0  0  0  0  0  0  0  0  0  0  0  0
   25.7114  -21.2667  -10.4834 C   0  0  2  0  0  0  0  0  0  0  0  0
   26.5904  -20.4531   -9.6591 C   0  0  0  0  0  0  0  0  0  0  0  0
   26.2879  -20.6872   -8.1949 C   0  0  0  0  0  0  0  0  0  0  0  0
   27.0915  -19.7409   -7.3830 C   0  0  0  0  0  0  0  0  0  0  0  0
   27.1933  -18.3643   -7.5283 N   0  0  0  0  0  0  0  0  0  0  0  0
   28.0198  -17.8677   -6.6051 C   0  0  0  0  0  0  0  0  0  0  0  0
   28.4649  -18.8854   -5.8546 C   0  0  0  0  0  0  0  0  0  0  0  0
   29.3279  -18.9728   -4.7709 C   0  0  0  0  0  0  0  0  0  0  0  0
   29.6098  -20.1827   -4.1843 C   0  0  0  0  0  0  0  0  0  0  0  0
   29.0528  -21.3587   -4.6412 C   0  0  0  0  0  0  0  0  0  0  0  0
   28.1937  -21.2977   -5.7148 C   0  0  0  0  0  0  0  0  0  0  0  0
   27.9111  -20.0872   -6.3023 C   0  0  0  0  0  0  0  0  0  0  0  0
   28.0073  -20.7911   -9.8961 O   0  0  0  0  0  0  0  0  0  0  0  0
   28.4059  -21.9156  -10.2467 O   0  0  0  0  0  0  0  0  0  0  0  0
  2  1  1  1
  2  4  1  0
  3  2  1  0
  5  4  1  0
  5  6  1  1
  7  8  2  0
  7  5  1  0
  9 10  1  0
 10 12  1  0
 11 10  2  0
 12 13  1  0
 13 14  1  0
 14 15  1  0
 16 15  1  6
 16 17  1  0
 17  7  1  0
 18 19  2  0
 18 16  1  0
 20 18  1  0
 21 20  1  0
 21 22  1  1
 22 23  1  0
 23 31  1  0
 23 24  2  0
 24 25  1  0
 26 25  1  0
 26 27  2  0
 28 27  1  0
 29 28  2  0
 30 31  2  0
 30 29  1  0
 31 26  1  0
 32 21  1  0
 33 32  2  0
 34 32  1  0
M  END
$$$$
