LRW.pdb
     RDKit          3D

 34 35  0  0  1  0  0  0  0  0999 V2000
   29.2145  -21.1722  -19.1411 C   0  0  0  0  0  0  0  0  0  0  0  0
   28.8198  -21.9380  -17.9073 C   0  0  1  0  0  0  0  0  0  0  0  0
   29.9289  -22.8099  -17.4116 C   0  0  0  0  0  0  0  0  0  0  0  0
   28.3610  -20.9933  -16.7971 C   0  0  0  0  0  0  0  0  0  0  0  0
   28.1387  -21.7487  -15.5107 C   0  0  2  0  0  0  0  0  0  0  0  0
   27.2162  -22.8515  -15.6864 N   0  0  0  0  0  0  0  0  0  0  0  0
   27.5775  -20.8492  -14.4751 C   0  0  0  0  0  0  0  0  0  0  0  0
   28.1864  -19.7780  -14.2074 O   0  0  0  0  0  0  0  0  0  0  0  0
   21.6423  -22.7069  -14.8995 N   0  0  0  0  0  0  0  0  0  0  0  0
   20.9680  -21.7578  -14.0915 C   0  0  0  0  0  0  0  0  0  0  0  0
   19.9235  -22.1421  -13.4519 N   0  0  0  0  0  0  0  0  0  0  0  0
   21.4089  -20.4171  -13.9727 N   0  0  0  0  0  0  0  0  0  0  0  0
   22.5224  -19.9077  -14.7082 C   0  0  0  0  0  0  0  0  0  0  0  0
   23.8407  -20.5072  -14.2647 C   0  0  0  0  0  0  0  0  0  0  0  0
   24.5245  -19.6235  -13.2442 C   0  0  0  0  0  0  0  0  0  0  0  0
   25.8697  -20.1693  -12.8371 C   0  0  2  0  0  0  0  0  0  0  0  0
   26.3922  -21.1253  -13.7667 N   0  0  0  0  0  0  0  0  0  0  0  0
   25.6523  -20.8892  -11.5429 C   0  0  0  0  0  0  0  0  0  0  0  0
   25.1717  -22.0492  -11.4854 O   0  0  0  0  0  0  0  0  0  0  0  0
   19.4149  -21.4838  -12.8515 N   0  0  0  0  0  0  0  0  0  0  0  0
   25.9978  -20.2524  -10.3065 C   0  0  2  0  0  0  0  0  0  0  0  0
   25.4767  -20.7062   -9.0272 C   0  0  0  0  0  0  0  0  0  0  0  0
   26.0892  -19.8978   -7.9042 C   0  0  0  0  0  0  0  0  0  0  0  0
   27.4800  -20.3639   -7.6823 C   0  0  0  0  0  0  0  0  0  0  0  0
   28.2545  -21.1644   -8.5105 N   0  0  0  0  0  0  0  0  0  0  0  0
   29.4533  -21.3662   -7.9593 C   0  0  0  0  0  0  0  0  0  0  0  0
   29.4867  -20.7170   -6.7869 C   0  0  0  0  0  0  0  0  0  0  0  0
   30.4502  -20.5703   -5.7984 C   0  0  0  0  0  0  0  0  0  0  0  0
   30.2019  -19.8258   -4.6708 C   0  0  0  0  0  0  0  0  0  0  0  0
   28.9927  -19.1940   -4.4692 C   0  0  0  0  0  0  0  0  0  0  0  0
   28.0213  -19.3247   -5.4355 C   0  0  0  0  0  0  0  0  0  0  0  0
   28.2691  -20.0695   -6.5643 C   0  0  0  0  0  0  0  0  0  0  0  0
   24.0108  -20.5475   -8.9622 O   0  0  0  0  0  0  0  0  0  0  0  0
   23.3484  -19.8621   -9.7609 O   0  0  0  0  0  0  0  0  0  0  0  0
  2  1  1  6
  2  4  1  0
  3  2  1  0
  5  4  1  0
  5  6  1  6
  7  8  2  0
  7  5  1  0
  9 10  1  0
 10 12  1  0
 11 10  2  0
 12 13  1  0
 13 14  1  0
 14 15  1  0
 16 15  1  6
 16 17  1  0
 17  7  1  0
 18 19  2  0
 18 16  1  0
 20 18  1  0
 21 20  1  0
 21 22  1  1
 22 23  1  0
 23 31  1  0
 23 24  2  0
 24 25  1  0
 26 25  1  0
 26 27  2  0
 28 27  1  0
 29 28  2  0
 30 31  2  0
 30 29  1  0
 31 26  1  0
 32 21  1  0
 33 32  2  0
 34 32  1  0
M  END
$$$$
