LRW.pdb
     RDKit          3D

 34 35  0  0  1  0  0  0  0  0999 V2000
   27.6032  -16.9321  -17.8000 C   0  0  0  0  0  0  0  0  0  0  0  0
   27.8739  -18.1497  -16.9581 C   0  0  1  0  0  0  0  0  0  0  0  0
   29.3287  -18.3028  -16.6478 C   0  0  0  0  0  0  0  0  0  0  0  0
   27.0637  -18.1138  -15.6629 C   0  0  0  0  0  0  0  0  0  0  0  0
   27.4997  -19.2153  -14.7292 C   0  0  2  0  0  0  0  0  0  0  0  0
   27.4993  -20.5075  -15.3838 N   0  0  0  0  0  0  0  0  0  0  0  0
   26.5856  -19.2965  -13.5656 C   0  0  0  0  0  0  0  0  0  0  0  0
   26.3836  -18.2584  -12.8792 O   0  0  0  0  0  0  0  0  0  0  0  0
   22.9436  -23.9937  -15.8998 N   0  0  0  0  0  0  0  0  0  0  0  0
   22.9186  -24.5138  -14.5818 C   0  0  0  0  0  0  0  0  0  0  0  0
   23.3164  -25.7207  -14.4007 N   0  0  0  0  0  0  0  0  0  0  0  0
   22.4732  -23.7491  -13.4759 N   0  0  0  0  0  0  0  0  0  0  0  0
   22.1235  -22.3688  -13.5886 C   0  0  0  0  0  0  0  0  0  0  0  0
   23.3272  -21.4522  -13.5189 C   0  0  0  0  0  0  0  0  0  0  0  0
   23.9311  -21.4515  -12.1313 C   0  0  0  0  0  0  0  0  0  0  0  0
   25.0843  -20.4867  -12.0191 C   0  0  2  0  0  0  0  0  0  0  0  0
   25.9238  -20.4780  -13.1794 N   0  0  0  0  0  0  0  0  0  0  0  0
   25.9210  -20.9694  -10.8757 C   0  0  0  0  0  0  0  0  0  0  0  0
   26.3187  -22.1581  -10.7817 O   0  0  0  0  0  0  0  0  0  0  0  0
   23.2954  -26.1356  -13.4627 N   0  0  0  0  0  0  0  0  0  0  0  0
   26.2969  -20.0599   -9.8340 C   0  0  2  0  0  0  0  0  0  0  0  0
   26.8240  -20.5159   -8.5580 C   0  0  0  0  0  0  0  0  0  0  0  0
   27.6294  -19.4119   -7.9079 C   0  0  0  0  0  0  0  0  0  0  0  0
   28.3059  -19.9575   -6.7056 C   0  0  0  0  0  0  0  0  0  0  0  0
   29.0802  -21.1053   -6.6087 N   0  0  0  0  0  0  0  0  0  0  0  0
   29.5114  -21.2605   -5.3549 C   0  0  0  0  0  0  0  0  0  0  0  0
   29.0392  -20.2412   -4.6234 C   0  0  0  0  0  0  0  0  0  0  0  0
   29.1576  -19.8830   -3.2875 C   0  0  0  0  0  0  0  0  0  0  0  0
   28.5486  -18.7523   -2.7996 C   0  0  0  0  0  0  0  0  0  0  0  0
   27.7965  -17.9260   -3.6080 C   0  0  0  0  0  0  0  0  0  0  0  0
   27.6645  -18.2602   -4.9367 C   0  0  0  0  0  0  0  0  0  0  0  0
   28.2737  -19.3916   -5.4257 C   0  0  0  0  0  0  0  0  0  0  0  0
   25.7354  -20.8953   -7.6365 O   0  0  0  0  0  0  0  0  0  0  0  0
   24.6055  -20.3759   -7.6420 O   0  0  0  0  0  0  0  0  0  0  0  0
  2  1  1  1
  2  4  1  0
  3  2  1  0
  5  4  1  0
  5  6  1  6
  7  8  2  0
  7  5  1  0
  9 10  1  0
 10 12  1  0
 11 10  2  0
 12 13  1  0
 13 14  1  0
 14 15  1  0
 16 15  1  6
 16 17  1  0
 17  7  1  0
 18 19  2  0
 18 16  1  0
 20 18  1  0
 21 20  1  0
 21 22  1  1
 22 23  1  0
 23 31  1  0
 23 24  2  0
 24 25  1  0
 26 25  1  0
 26 27  2  0
 28 27  1  0
 29 28  2  0
 30 31  2  0
 30 29  1  0
 31 26  1  0
 32 21  1  0
 33 32  2  0
 34 32  1  0
M  END
$$$$
