LRW.pdb
     RDKit          3D

 34 35  0  0  1  0  0  0  0  0999 V2000
   17.9636  -21.4695  -12.2804 C   0  0  0  0  0  0  0  0  0  0  0  0
   19.1126  -20.5388  -12.5601 C   0  0  1  0  0  0  0  0  0  0  0  0
   18.9264  -19.2076  -11.9047 C   0  0  0  0  0  0  0  0  0  0  0  0
   20.4399  -21.1565  -12.1219 C   0  0  0  0  0  0  0  0  0  0  0  0
   21.5636  -20.1594  -12.2565 C   0  0  2  0  0  0  0  0  0  0  0  0
   21.4724  -19.4090  -13.4922 N   0  0  0  0  0  0  0  0  0  0  0  0
   22.8729  -20.8536  -12.2437 C   0  0  0  0  0  0  0  0  0  0  0  0
   23.1791  -21.5526  -11.2400 O   0  0  0  0  0  0  0  0  0  0  0  0
   28.0104  -25.3228  -16.2320 N   0  0  0  0  0  0  0  0  0  0  0  0
   27.0945  -24.5581  -16.9966 C   0  0  0  0  0  0  0  0  0  0  0  0
   26.3739  -25.1696  -17.8651 N   0  0  0  0  0  0  0  0  0  0  0  0
   26.9553  -23.1583  -16.8306 N   0  0  0  0  0  0  0  0  0  0  0  0
   27.6983  -22.4237  -15.8567 C   0  0  0  0  0  0  0  0  0  0  0  0
   27.0111  -22.3783  -14.5078 C   0  0  0  0  0  0  0  0  0  0  0  0
   25.6661  -21.6916  -14.6050 C   0  0  0  0  0  0  0  0  0  0  0  0
   25.0046  -21.5544  -13.2571 C   0  0  2  0  0  0  0  0  0  0  0  0
   23.8030  -20.7762  -13.2982 N   0  0  0  0  0  0  0  0  0  0  0  0
   25.9759  -20.8163  -12.3900 C   0  0  0  0  0  0  0  0  0  0  0  0
   26.2806  -19.6128  -12.5863 O   0  0  0  0  0  0  0  0  0  0  0  0
   25.6703  -24.6550  -18.4062 N   0  0  0  0  0  0  0  0  0  0  0  0
   26.5970  -21.4860  -11.2857 C   0  0  2  0  0  0  0  0  0  0  0  0
   27.6613  -20.8749  -10.5061 C   0  0  0  0  0  0  0  0  0  0  0  0
   27.8109  -21.5946   -9.1833 C   0  0  0  0  0  0  0  0  0  0  0  0
   27.5048  -20.6457   -8.0849 C   0  0  0  0  0  0  0  0  0  0  0  0
   26.5474  -19.6408   -8.0667 N   0  0  0  0  0  0  0  0  0  0  0  0
   26.5818  -18.9987   -6.8969 C   0  0  0  0  0  0  0  0  0  0  0  0
   27.5397  -19.5575   -6.1437 C   0  0  0  0  0  0  0  0  0  0  0  0
   28.0185  -19.3135   -4.8637 C   0  0  0  0  0  0  0  0  0  0  0  0
   29.0384  -20.0653   -4.3326 C   0  0  0  0  0  0  0  0  0  0  0  0
   29.6304  -21.0899   -5.0409 C   0  0  0  0  0  0  0  0  0  0  0  0
   29.1727  -21.3511   -6.3124 C   0  0  0  0  0  0  0  0  0  0  0  0
   28.1520  -20.5992   -6.8446 C   0  0  0  0  0  0  0  0  0  0  0  0
   28.9522  -20.9469  -11.2178 O   0  0  0  0  0  0  0  0  0  0  0  0
   29.8793  -20.1327  -11.0630 O   0  0  0  0  0  0  0  0  0  0  0  0
  2  1  1  1
  2  4  1  0
  3  2  1  0
  5  4  1  0
  5  6  1  6
  7  8  2  0
  7  5  1  0
  9 10  1  0
 10 12  1  0
 11 10  2  0
 12 13  1  0
 13 14  1  0
 14 15  1  0
 16 15  1  6
 16 17  1  0
 17  7  1  0
 18 19  2  0
 18 16  1  0
 20 18  1  0
 21 20  1  0
 21 22  1  1
 22 23  1  0
 23 31  1  0
 23 24  2  0
 24 25  1  0
 26 25  1  0
 26 27  2  0
 28 27  1  0
 29 28  2  0
 30 31  2  0
 30 29  1  0
 31 26  1  0
 32 21  1  0
 33 32  2  0
 34 32  1  0
M  END
$$$$
