SED.pdb
     RDKit          3D

 24 23  0  0  1  0  0  0  0  0999 V2000
    7.3539  -13.6599   20.2616 O   0  0  0  0  0  0  0  0  0  0  0  0
    8.0798  -12.7190   19.5765 C   0  0  0  0  0  0  0  0  0  0  0  0
    8.6576  -13.2536   18.2811 C   0  0  2  0  0  0  0  0  0  0  0  0
    7.6197  -13.5615   17.3477 N   0  0  0  0  0  0  0  0  0  0  0  0
    9.5223  -14.4262   18.5859 C   0  0  0  0  0  0  0  0  0  0  0  0
    9.1363  -15.5671   18.2247 O   0  0  0  0  0  0  0  0  0  0  0  0
   10.7568  -14.3230   19.2615 N   0  0  0  0  0  0  0  0  0  0  0  0
   11.5593  -15.4758   19.5168 C   0  0  1  0  0  0  0  0  0  0  0  0
   12.8604  -15.4850   18.7593 C   0  0  0  0  0  0  0  0  0  0  0  0
   13.5951  -14.1940   18.7547 C   0  0  0  0  0  0  0  0  0  0  0  0
   14.8876  -14.2114   18.0566 C   0  0  0  0  0  0  0  0  0  0  0  0
   15.1820  -13.4879   17.0734 O   0  0  0  0  0  0  0  0  0  0  0  0
   11.9206  -15.4877   20.9664 C   0  0  0  0  0  0  0  0  0  0  0  0
   12.1052  -14.4090   21.5681 O   0  0  0  0  0  0  0  0  0  0  0  0
   15.8490  -15.1091   18.5400 O   0  0  0  0  0  0  0  0  0  0  0  0
   12.0688  -16.6716   21.7114 N   0  0  0  0  0  0  0  0  0  0  0  0
   12.3052  -16.6992   23.1477 C   0  0  1  0  0  0  0  0  0  0  0  0
   11.3628  -17.6150   23.8544 C   0  0  0  0  0  0  0  0  0  0  0  0
   11.6326  -17.5887   25.3025 C   0  0  0  0  0  0  0  0  0  0  0  0
   12.4686  -16.8095   25.7778 O   0  0  0  0  0  0  0  0  0  0  0  0
   13.7346  -16.9731   23.3608 C   0  0  0  0  0  0  0  0  0  0  0  0
   14.4059  -17.5335   22.4715 O   0  0  0  0  0  0  0  0  0  0  0  0
   10.9418  -18.4452   26.1343 O   0  0  0  0  0  0  0  0  0  0  0  0
   14.3595  -16.6193   24.5389 O   0  0  0  0  0  0  0  0  0  0  0  0
  2  1  1  0
  2  3  1  0
  3  4  1  6
  5  3  1  0
  5  6  2  0
  7  5  1  0
  8  7  1  0
  8 13  1  0
  8  9  1  6
 10 11  1  0
 10  9  1  0
 11 12  2  0
 13 16  1  0
 14 13  2  0
 15 11  1  0
 16 17  1  0
 17 21  1  0
 17 18  1  1
 19 18  1  0
 20 19  2  0
 21 22  2  0
 21 24  1  0
 23 19  1  0
M  END
$$$$
