SED.pdb
     RDKit          3D

 24 23  0  0  1  0  0  0  0  0999 V2000
    9.8743  -13.8693   17.2878 O   0  0  0  0  0  0  0  0  0  0  0  0
    8.5101  -13.8233   17.1519 C   0  0  0  0  0  0  0  0  0  0  0  0
    7.8043  -13.4630   18.4441 C   0  0  2  0  0  0  0  0  0  0  0  0
    7.9863  -12.0801   18.7569 N   0  0  0  0  0  0  0  0  0  0  0  0
    8.2869  -14.3648   19.5255 C   0  0  0  0  0  0  0  0  0  0  0  0
    8.9666  -13.8707   20.4609 O   0  0  0  0  0  0  0  0  0  0  0  0
    8.0202  -15.7501   19.5550 N   0  0  0  0  0  0  0  0  0  0  0  0
    8.5162  -16.5770   20.6077 C   0  0  1  0  0  0  0  0  0  0  0  0
    7.9269  -17.9624   20.6153 C   0  0  0  0  0  0  0  0  0  0  0  0
    6.4429  -18.0153   20.5798 C   0  0  0  0  0  0  0  0  0  0  0  0
    5.8664  -19.3628   20.4787 C   0  0  0  0  0  0  0  0  0  0  0  0
    6.5302  -20.4287   20.4706 O   0  0  0  0  0  0  0  0  0  0  0  0
    9.9878  -16.7508   20.4178 C   0  0  0  0  0  0  0  0  0  0  0  0
   10.4400  -17.0107   19.2830 O   0  0  0  0  0  0  0  0  0  0  0  0
    4.4704  -19.4418   20.3854 O   0  0  0  0  0  0  0  0  0  0  0  0
   10.9167  -16.6361   21.4679 N   0  0  0  0  0  0  0  0  0  0  0  0
   12.3325  -16.3614   21.2690 C   0  0  1  0  0  0  0  0  0  0  0  0
   12.5568  -15.1373   20.4459 C   0  0  0  0  0  0  0  0  0  0  0  0
   14.0018  -14.8834   20.3121 C   0  0  0  0  0  0  0  0  0  0  0  0
   14.8309  -15.6925   20.7478 O   0  0  0  0  0  0  0  0  0  0  0  0
   12.9789  -16.3638   22.5904 C   0  0  0  0  0  0  0  0  0  0  0  0
   12.2999  -16.1879   23.6217 O   0  0  0  0  0  0  0  0  0  0  0  0
   14.4303  -13.7280   19.6923 O   0  0  0  0  0  0  0  0  0  0  0  0
   14.3388  -16.5589   22.7175 O   0  0  0  0  0  0  0  0  0  0  0  0
  2  1  1  0
  2  3  1  0
  3  4  1  1
  5  3  1  0
  5  6  2  0
  7  5  1  0
  8  7  1  0
  8 13  1  0
  8  9  1  6
 10 11  1  0
 10  9  1  0
 11 12  2  0
 13 16  1  0
 14 13  2  0
 15 11  1  0
 16 17  1  0
 17 21  1  0
 17 18  1  1
 19 18  1  0
 20 19  2  0
 21 22  2  0
 21 24  1  0
 23 19  1  0
M  END
$$$$
