SED.pdb
     RDKit          3D

 24 23  0  0  1  0  0  0  0  0999 V2000
    7.3486  -11.5231   19.8713 O   0  0  0  0  0  0  0  0  0  0  0  0
    8.1386  -12.6352   20.0155 C   0  0  0  0  0  0  0  0  0  0  0  0
    8.5013  -13.2724   18.6887 C   0  0  2  0  0  0  0  0  0  0  0  0
    7.3455  -13.8252   18.0549 N   0  0  0  0  0  0  0  0  0  0  0  0
    9.5708  -14.2826   18.9148 C   0  0  0  0  0  0  0  0  0  0  0  0
    9.2403  -15.4893   19.0403 O   0  0  0  0  0  0  0  0  0  0  0  0
   10.9409  -13.9548   18.9959 N   0  0  0  0  0  0  0  0  0  0  0  0
   11.9382  -14.9685   19.1207 C   0  0  1  0  0  0  0  0  0  0  0  0
   13.1497  -14.7324   18.2584 C   0  0  0  0  0  0  0  0  0  0  0  0
   14.1390  -15.8403   18.2462 C   0  0  0  0  0  0  0  0  0  0  0  0
   15.3554  -15.5853   17.4628 C   0  0  0  0  0  0  0  0  0  0  0  0
   15.6525  -16.1651   16.3893 O   0  0  0  0  0  0  0  0  0  0  0  0
   12.4268  -14.9787   20.5325 C   0  0  0  0  0  0  0  0  0  0  0  0
   12.6480  -13.8989   21.1196 O   0  0  0  0  0  0  0  0  0  0  0  0
   16.2358  -14.6196   17.9690 O   0  0  0  0  0  0  0  0  0  0  0  0
   12.6579  -16.1622   21.2569 N   0  0  0  0  0  0  0  0  0  0  0  0
   13.0336  -16.1894   22.6631 C   0  0  1  0  0  0  0  0  0  0  0  0
   12.3167  -17.2601   23.4153 C   0  0  0  0  0  0  0  0  0  0  0  0
   12.7906  -17.2937   24.8098 C   0  0  0  0  0  0  0  0  0  0  0  0
   13.8589  -17.8456   25.1034 O   0  0  0  0  0  0  0  0  0  0  0  0
   14.5020  -16.2404   22.7331 C   0  0  0  0  0  0  0  0  0  0  0  0
   15.1549  -16.7950   21.8266 O   0  0  0  0  0  0  0  0  0  0  0  0
   12.0303  -16.7009   25.7963 O   0  0  0  0  0  0  0  0  0  0  0  0
   15.1842  -15.6806   23.7938 O   0  0  0  0  0  0  0  0  0  0  0  0
  2  1  1  0
  2  3  1  0
  3  4  1  1
  5  3  1  0
  5  6  2  0
  7  5  1  0
  8  7  1  0
  8 13  1  0
  8  9  1  6
 10 11  1  0
 10  9  1  0
 11 12  2  0
 13 16  1  0
 14 13  2  0
 15 11  1  0
 16 17  1  0
 17 21  1  0
 17 18  1  6
 19 18  1  0
 20 19  2  0
 21 22  2  0
 21 24  1  0
 23 19  1  0
M  END
$$$$
