SED.pdb
     RDKit          3D

 24 23  0  0  1  0  0  0  0  0999 V2000
    6.9993  -16.1237   21.9770 O   0  0  0  0  0  0  0  0  0  0  0  0
    6.9494  -15.3363   20.8549 C   0  0  0  0  0  0  0  0  0  0  0  0
    7.5278  -16.0210   19.6324 C   0  0  2  0  0  0  0  0  0  0  0  0
    6.7890  -17.2017   19.3109 N   0  0  0  0  0  0  0  0  0  0  0  0
    8.9717  -16.2937   19.8697 C   0  0  0  0  0  0  0  0  0  0  0  0
    9.3425  -17.4871   20.0088 O   0  0  0  0  0  0  0  0  0  0  0  0
    9.9489  -15.2786   19.9470 N   0  0  0  0  0  0  0  0  0  0  0  0
   11.3319  -15.5936   20.1088 C   0  0  1  0  0  0  0  0  0  0  0  0
   12.2461  -14.7497   19.2609 C   0  0  0  0  0  0  0  0  0  0  0  0
   13.6945  -15.0400   19.4162 C   0  0  0  0  0  0  0  0  0  0  0  0
   14.5779  -14.3426   18.4720 C   0  0  0  0  0  0  0  0  0  0  0  0
   15.2881  -13.3466   18.7554 O   0  0  0  0  0  0  0  0  0  0  0  0
   11.7140  -15.3256   21.5280 C   0  0  0  0  0  0  0  0  0  0  0  0
   11.0494  -14.5145   22.2063 O   0  0  0  0  0  0  0  0  0  0  0  0
   14.6157  -14.8423   17.1633 O   0  0  0  0  0  0  0  0  0  0  0  0
   12.8051  -15.9488   22.1605 N   0  0  0  0  0  0  0  0  0  0  0  0
   12.8314  -16.2930   23.5748 C   0  0  1  0  0  0  0  0  0  0  0  0
   11.5721  -16.9623   24.0134 C   0  0  0  0  0  0  0  0  0  0  0  0
   11.7064  -17.4132   25.4095 C   0  0  0  0  0  0  0  0  0  0  0  0
   12.5745  -16.9338   26.1501 O   0  0  0  0  0  0  0  0  0  0  0  0
   14.0702  -17.0440   23.8296 C   0  0  0  0  0  0  0  0  0  0  0  0
   14.7333  -16.8290   24.8639 O   0  0  0  0  0  0  0  0  0  0  0  0
   10.8511  -18.3819   25.8919 O   0  0  0  0  0  0  0  0  0  0  0  0
   14.5227  -17.9949   22.9381 O   0  0  0  0  0  0  0  0  0  0  0  0
  2  1  1  0
  2  3  1  0
  3  4  1  1
  5  3  1  0
  5  6  2  0
  7  5  1  0
  8  7  1  0
  8 13  1  0
  8  9  1  6
 10 11  1  0
 10  9  1  0
 11 12  2  0
 13 16  1  0
 14 13  2  0
 15 11  1  0
 16 17  1  0
 17 21  1  0
 17 18  1  6
 19 18  1  0
 20 19  2  0
 21 22  2  0
 21 24  1  0
 23 19  1  0
M  END
$$$$
