SED.pdb
     RDKit          3D

 24 23  0  0  1  0  0  0  0  0999 V2000
   14.6496  -23.9889   25.5603 O   0  0  0  0  0  0  0  0  0  0  0  0
   13.4414  -24.5793   25.2898 C   0  0  0  0  0  0  0  0  0  0  0  0
   12.3114  -23.5754   25.1742 C   0  0  2  0  0  0  0  0  0  0  0  0
   12.6908  -22.4725   24.3479 N   0  0  0  0  0  0  0  0  0  0  0  0
   11.8985  -23.1540   26.5407 C   0  0  0  0  0  0  0  0  0  0  0  0
   11.5086  -21.9709   26.7122 O   0  0  0  0  0  0  0  0  0  0  0  0
   11.9221  -24.0166   27.6572 N   0  0  0  0  0  0  0  0  0  0  0  0
   11.4792  -23.5772   28.9413 C   0  0  1  0  0  0  0  0  0  0  0  0
   10.4640  -24.4912   29.5745 C   0  0  0  0  0  0  0  0  0  0  0  0
    9.9940  -24.0734   30.9202 C   0  0  0  0  0  0  0  0  0  0  0  0
    9.1062  -25.0279   31.5978 C   0  0  0  0  0  0  0  0  0  0  0  0
    8.4969  -25.9683   31.0310 O   0  0  0  0  0  0  0  0  0  0  0  0
   12.6540  -23.5560   29.8640 C   0  0  0  0  0  0  0  0  0  0  0  0
   13.6487  -24.2698   29.6176 O   0  0  0  0  0  0  0  0  0  0  0  0
    8.9410  -24.8583   32.9791 O   0  0  0  0  0  0  0  0  0  0  0  0
   12.7066  -22.7595   31.0223 N   0  0  0  0  0  0  0  0  0  0  0  0
   13.8923  -22.6214   31.8557 C   0  0  1  0  0  0  0  0  0  0  0  0
   15.1246  -22.3943   31.0458 C   0  0  0  0  0  0  0  0  0  0  0  0
   16.2808  -23.0215   31.7093 C   0  0  0  0  0  0  0  0  0  0  0  0
   16.6963  -24.1294   31.3460 O   0  0  0  0  0  0  0  0  0  0  0  0
   13.6065  -21.5999   32.8748 C   0  0  0  0  0  0  0  0  0  0  0  0
   12.4934  -21.0381   32.9057 O   0  0  0  0  0  0  0  0  0  0  0  0
   16.9042  -22.3613   32.7476 O   0  0  0  0  0  0  0  0  0  0  0  0
   14.5550  -21.2435   33.8113 O   0  0  0  0  0  0  0  0  0  0  0  0
  2  1  1  0
  2  3  1  0
  3  4  1  6
  5  3  1  0
  5  6  2  0
  7  5  1  0
  8  7  1  0
  8 13  1  0
  8  9  1  1
 10 11  1  0
 10  9  1  0
 11 12  2  0
 13 16  1  0
 14 13  2  0
 15 11  1  0
 16 17  1  0
 17 21  1  0
 17 18  1  6
 19 18  1  0
 20 19  2  0
 21 22  2  0
 21 24  1  0
 23 19  1  0
M  END
$$$$
