SED.pdb
     RDKit          3D

 24 23  0  0  1  0  0  0  0  0999 V2000
   15.8822  -16.3926   16.2311 O   0  0  0  0  0  0  0  0  0  0  0  0
   14.8876  -15.7469   15.5415 C   0  0  0  0  0  0  0  0  0  0  0  0
   14.7107  -14.3066   15.9797 C   0  0  2  0  0  0  0  0  0  0  0  0
   15.8398  -13.5156   15.6019 N   0  0  0  0  0  0  0  0  0  0  0  0
   14.4526  -14.2761   17.4452 C   0  0  0  0  0  0  0  0  0  0  0  0
   15.3853  -13.9252   18.2122 O   0  0  0  0  0  0  0  0  0  0  0  0
   13.2112  -14.6218   18.0202 N   0  0  0  0  0  0  0  0  0  0  0  0
   13.0028  -14.5484   19.4306 C   0  0  1  0  0  0  0  0  0  0  0  0
   11.6068  -14.9205   19.8544 C   0  0  0  0  0  0  0  0  0  0  0  0
   11.2910  -14.6568   21.2816 C   0  0  0  0  0  0  0  0  0  0  0  0
    9.9510  -15.0755   21.7144 C   0  0  0  0  0  0  0  0  0  0  0  0
    9.5219  -15.0028   22.8923 O   0  0  0  0  0  0  0  0  0  0  0  0
   13.9150  -15.5280   20.0941 C   0  0  0  0  0  0  0  0  0  0  0  0
   14.6408  -16.2688   19.3983 O   0  0  0  0  0  0  0  0  0  0  0  0
    9.1050  -15.5913   20.7234 O   0  0  0  0  0  0  0  0  0  0  0  0
   14.0067  -15.6681   21.4908 N   0  0  0  0  0  0  0  0  0  0  0  0
   15.2254  -16.0555   22.1866 C   0  0  1  0  0  0  0  0  0  0  0  0
   16.4063  -15.2641   21.7335 C   0  0  0  0  0  0  0  0  0  0  0  0
   17.6480  -15.9236   22.1737 C   0  0  0  0  0  0  0  0  0  0  0  0
   17.6558  -17.1237   22.4765 O   0  0  0  0  0  0  0  0  0  0  0  0
   14.9494  -16.0117   23.6308 C   0  0  0  0  0  0  0  0  0  0  0  0
   14.3299  -15.0474   24.1226 O   0  0  0  0  0  0  0  0  0  0  0  0
   18.8136  -15.1895   22.2473 O   0  0  0  0  0  0  0  0  0  0  0  0
   15.3660  -17.0274   24.4664 O   0  0  0  0  0  0  0  0  0  0  0  0
  2  1  1  0
  2  3  1  0
  3  4  1  1
  5  3  1  0
  5  6  2  0
  7  5  1  0
  8  7  1  0
  8 13  1  0
  8  9  1  6
 10 11  1  0
 10  9  1  0
 11 12  2  0
 13 16  1  0
 14 13  2  0
 15 11  1  0
 16 17  1  0
 17 21  1  0
 17 18  1  1
 19 18  1  0
 20 19  2  0
 21 22  2  0
 21 24  1  0
 23 19  1  0
M  END
$$$$
