SED.pdb
     RDKit          3D

 24 23  0  0  1  0  0  0  0  0999 V2000
    7.4663  -12.3045   17.2280 O   0  0  0  0  0  0  0  0  0  0  0  0
    7.5751  -12.5964   18.5639 C   0  0  0  0  0  0  0  0  0  0  0  0
    8.6454  -13.6304   18.8524 C   0  0  2  0  0  0  0  0  0  0  0  0
    8.7424  -14.5764   17.7853 N   0  0  0  0  0  0  0  0  0  0  0  0
    8.3557  -14.2718   20.1640 C   0  0  0  0  0  0  0  0  0  0  0  0
    8.2782  -13.5422   21.1852 O   0  0  0  0  0  0  0  0  0  0  0  0
    8.1630  -15.6608   20.3209 N   0  0  0  0  0  0  0  0  0  0  0  0
    7.9535  -16.2380   21.6097 C   0  0  1  0  0  0  0  0  0  0  0  0
    6.8737  -17.2870   21.6327 C   0  0  0  0  0  0  0  0  0  0  0  0
    6.7683  -18.0540   22.9003 C   0  0  0  0  0  0  0  0  0  0  0  0
    5.7592  -19.1217   22.9044 C   0  0  0  0  0  0  0  0  0  0  0  0
    5.0890  -19.4795   21.9046 O   0  0  0  0  0  0  0  0  0  0  0  0
    9.2118  -16.9255   22.0291 C   0  0  0  0  0  0  0  0  0  0  0  0
    9.7713  -17.7244   21.2490 O   0  0  0  0  0  0  0  0  0  0  0  0
    5.5444  -19.7763   24.1247 O   0  0  0  0  0  0  0  0  0  0  0  0
    9.8181  -16.7208   23.2818 N   0  0  0  0  0  0  0  0  0  0  0  0
   11.2517  -16.8253   23.5132 C   0  0  1  0  0  0  0  0  0  0  0  0
   12.0358  -15.9713   22.5741 C   0  0  0  0  0  0  0  0  0  0  0  0
   13.4150  -16.4789   22.4708 C   0  0  0  0  0  0  0  0  0  0  0  0
   13.6393  -17.6933   22.3874 O   0  0  0  0  0  0  0  0  0  0  0  0
   11.4930  -16.5813   24.9436 C   0  0  0  0  0  0  0  0  0  0  0  0
   12.6525  -16.6254   25.4011 O   0  0  0  0  0  0  0  0  0  0  0  0
   14.4656  -15.5850   22.4674 O   0  0  0  0  0  0  0  0  0  0  0  0
   10.4514  -16.3006   25.8038 O   0  0  0  0  0  0  0  0  0  0  0  0
  2  1  1  0
  2  3  1  0
  3  4  1  6
  5  3  1  0
  5  6  2  0
  7  5  1  0
  8  7  1  0
  8 13  1  0
  8  9  1  6
 10 11  1  0
 10  9  1  0
 11 12  2  0
 13 16  1  0
 14 13  2  0
 15 11  1  0
 16 17  1  0
 17 21  1  0
 17 18  1  6
 19 18  1  0
 20 19  2  0
 21 22  2  0
 21 24  1  0
 23 19  1  0
M  END
$$$$
