SED.pdb
     RDKit          3D

 24 23  0  0  1  0  0  0  0  0999 V2000
    8.0302  -13.3536   20.2383 O   0  0  0  0  0  0  0  0  0  0  0  0
    8.5249  -12.4479   19.3346 C   0  0  0  0  0  0  0  0  0  0  0  0
    8.8884  -13.0834   18.0072 C   0  0  2  0  0  0  0  0  0  0  0  0
    7.7343  -13.6422   17.3756 N   0  0  0  0  0  0  0  0  0  0  0  0
    9.9636  -14.0879   18.2314 C   0  0  0  0  0  0  0  0  0  0  0  0
    9.6635  -15.3084   18.1895 O   0  0  0  0  0  0  0  0  0  0  0  0
   11.3066  -13.7402   18.4893 N   0  0  0  0  0  0  0  0  0  0  0  0
   12.3143  -14.7403   18.6391 C   0  0  1  0  0  0  0  0  0  0  0  0
   13.5174  -14.5208   17.7610 C   0  0  0  0  0  0  0  0  0  0  0  0
   13.7389  -15.5621   16.7252 C   0  0  0  0  0  0  0  0  0  0  0  0
   15.0471  -15.5141   16.0584 C   0  0  0  0  0  0  0  0  0  0  0  0
   15.4200  -14.6072   15.2739 O   0  0  0  0  0  0  0  0  0  0  0  0
   12.8128  -14.7008   20.0469 C   0  0  0  0  0  0  0  0  0  0  0  0
   13.2638  -13.6344   20.5151 O   0  0  0  0  0  0  0  0  0  0  0  0
   15.9291  -16.5682   16.3320 O   0  0  0  0  0  0  0  0  0  0  0  0
   12.8036  -15.8217   20.8968 N   0  0  0  0  0  0  0  0  0  0  0  0
   13.3018  -15.8037   22.2646 C   0  0  1  0  0  0  0  0  0  0  0  0
   12.6293  -16.8241   23.1206 C   0  0  0  0  0  0  0  0  0  0  0  0
   13.2538  -16.8465   24.4548 C   0  0  0  0  0  0  0  0  0  0  0  0
   14.2098  -16.1064   24.7201 O   0  0  0  0  0  0  0  0  0  0  0  0
   14.7690  -15.8918   22.2077 C   0  0  0  0  0  0  0  0  0  0  0  0
   15.4665  -15.3138   23.0651 O   0  0  0  0  0  0  0  0  0  0  0  0
   12.7626  -17.7048   25.4165 O   0  0  0  0  0  0  0  0  0  0  0  0
   15.4012  -16.6094   21.2132 O   0  0  0  0  0  0  0  0  0  0  0  0
  2  1  1  0
  2  3  1  0
  3  4  1  1
  5  3  1  0
  5  6  2  0
  7  5  1  0
  8  7  1  0
  8 13  1  0
  8  9  1  6
 10 11  1  0
 10  9  1  0
 11 12  2  0
 13 16  1  0
 14 13  2  0
 15 11  1  0
 16 17  1  0
 17 21  1  0
 17 18  1  1
 19 18  1  0
 20 19  2  0
 21 22  2  0
 21 24  1  0
 23 19  1  0
M  END
$$$$
