SED.pdb
     RDKit          3D

 24 23  0  0  1  0  0  0  0  0999 V2000
   10.7340  -14.5080   19.3425 O   0  0  0  0  0  0  0  0  0  0  0  0
   10.0996  -13.5344   18.6137 C   0  0  0  0  0  0  0  0  0  0  0  0
    8.6364  -13.8455   18.3687 C   0  0  2  0  0  0  0  0  0  0  0  0
    8.0364  -12.8531   17.5329 N   0  0  0  0  0  0  0  0  0  0  0  0
    7.9465  -13.9854   19.6802 C   0  0  0  0  0  0  0  0  0  0  0  0
    7.6075  -12.9421   20.2948 O   0  0  0  0  0  0  0  0  0  0  0  0
    7.6524  -15.2326   20.2711 N   0  0  0  0  0  0  0  0  0  0  0  0
    7.0024  -15.3155   21.5395 C   0  0  1  0  0  0  0  0  0  0  0  0
    5.8040  -16.2270   21.5447 C   0  0  0  0  0  0  0  0  0  0  0  0
    6.0087  -17.5396   20.8802 C   0  0  0  0  0  0  0  0  0  0  0  0
    4.8312  -18.4175   20.8513 C   0  0  0  0  0  0  0  0  0  0  0  0
    4.0618  -18.5543   19.8684 O   0  0  0  0  0  0  0  0  0  0  0  0
    7.9661  -15.8881   22.5271 C   0  0  0  0  0  0  0  0  0  0  0  0
    7.6319  -16.0017   23.7250 O   0  0  0  0  0  0  0  0  0  0  0  0
    4.5649  -19.1474   22.0176 O   0  0  0  0  0  0  0  0  0  0  0  0
    9.2595  -16.3173   22.1781 N   0  0  0  0  0  0  0  0  0  0  0  0
   10.2434  -16.7873   23.1427 C   0  0  1  0  0  0  0  0  0  0  0  0
   10.7336  -18.1595   22.8215 C   0  0  0  0  0  0  0  0  0  0  0  0
    9.6125  -19.1141   22.8694 C   0  0  0  0  0  0  0  0  0  0  0  0
    9.2788  -19.7515   21.8622 O   0  0  0  0  0  0  0  0  0  0  0  0
   11.2838  -15.7542   23.2604 C   0  0  0  0  0  0  0  0  0  0  0  0
   11.2617  -14.7533   22.5165 O   0  0  0  0  0  0  0  0  0  0  0  0
    8.9299  -19.2959   24.0542 O   0  0  0  0  0  0  0  0  0  0  0  0
   12.2985  -15.8679   24.1883 O   0  0  0  0  0  0  0  0  0  0  0  0
  2  1  1  0
  2  3  1  0
  3  4  1  6
  5  3  1  0
  5  6  2  0
  7  5  1  0
  8  7  1  0
  8 13  1  0
  8  9  1  6
 10 11  1  0
 10  9  1  0
 11 12  2  0
 13 16  1  0
 14 13  2  0
 15 11  1  0
 16 17  1  0
 17 21  1  0
 17 18  1  6
 19 18  1  0
 20 19  2  0
 21 22  2  0
 21 24  1  0
 23 19  1  0
M  END
$$$$
