SED.pdb
     RDKit          3D

 24 23  0  0  1  0  0  0  0  0999 V2000
   18.8018  -19.4761   18.7646 O   0  0  0  0  0  0  0  0  0  0  0  0
   19.1640  -18.4337   17.9498 C   0  0  0  0  0  0  0  0  0  0  0  0
   17.9816  -17.8112   17.2340 C   0  0  2  0  0  0  0  0  0  0  0  0
   18.3850  -16.6620   16.4857 N   0  0  0  0  0  0  0  0  0  0  0  0
   16.9207  -17.5036   18.2316 C   0  0  0  0  0  0  0  0  0  0  0  0
   16.8925  -16.3556   18.7438 O   0  0  0  0  0  0  0  0  0  0  0  0
   15.9417  -18.4370   18.6335 N   0  0  0  0  0  0  0  0  0  0  0  0
   14.9548  -18.1008   19.6087 C   0  0  1  0  0  0  0  0  0  0  0  0
   13.7467  -18.9989   19.5789 C   0  0  0  0  0  0  0  0  0  0  0  0
   12.7171  -18.7031   20.6079 C   0  0  0  0  0  0  0  0  0  0  0  0
   11.5544  -19.6011   20.6068 C   0  0  0  0  0  0  0  0  0  0  0  0
   11.3824  -20.5516   19.8045 O   0  0  0  0  0  0  0  0  0  0  0  0
   15.5589  -18.2594   20.9657 C   0  0  0  0  0  0  0  0  0  0  0  0
   16.2093  -19.2902   21.2381 O   0  0  0  0  0  0  0  0  0  0  0  0
   10.5766  -19.3615   21.5817 O   0  0  0  0  0  0  0  0  0  0  0  0
   15.4352  -17.2921   21.9795 N   0  0  0  0  0  0  0  0  0  0  0  0
   15.8055  -17.5239   23.3683 C   0  0  1  0  0  0  0  0  0  0  0  0
   15.2120  -18.7833   23.9049 C   0  0  0  0  0  0  0  0  0  0  0  0
   15.6167  -18.9671   25.3095 C   0  0  0  0  0  0  0  0  0  0  0  0
   16.3183  -18.1239   25.8829 O   0  0  0  0  0  0  0  0  0  0  0  0
   17.2697  -17.4222   23.4640 C   0  0  0  0  0  0  0  0  0  0  0  0
   17.7960  -16.4311   24.0083 O   0  0  0  0  0  0  0  0  0  0  0  0
   15.2055  -20.0948   25.9891 O   0  0  0  0  0  0  0  0  0  0  0  0
   18.0869  -18.4124   22.9584 O   0  0  0  0  0  0  0  0  0  0  0  0
  2  1  1  0
  2  3  1  0
  3  4  1  1
  5  3  1  0
  5  6  2  0
  7  5  1  0
  8  7  1  0
  8 13  1  0
  8  9  1  1
 10 11  1  0
 10  9  1  0
 11 12  2  0
 13 16  1  0
 14 13  2  0
 15 11  1  0
 16 17  1  0
 17 21  1  0
 17 18  1  6
 19 18  1  0
 20 19  2  0
 21 22  2  0
 21 24  1  0
 23 19  1  0
M  END
$$$$
