SED.pdb
     RDKit          3D

 24 23  0  0  1  0  0  0  0  0999 V2000
   17.9398  -14.2800   16.5148 O   0  0  0  0  0  0  0  0  0  0  0  0
   17.1654  -14.3362   17.6456 C   0  0  0  0  0  0  0  0  0  0  0  0
   15.7296  -13.9202   17.3939 C   0  0  2  0  0  0  0  0  0  0  0  0
   15.6408  -12.5149   17.1481 N   0  0  0  0  0  0  0  0  0  0  0  0
   14.8920  -14.3562   18.5444 C   0  0  0  0  0  0  0  0  0  0  0  0
   14.6282  -13.5203   19.4460 O   0  0  0  0  0  0  0  0  0  0  0  0
   14.3770  -15.6633   18.6758 N   0  0  0  0  0  0  0  0  0  0  0  0
   13.5183  -16.0148   19.7607 C   0  0  1  0  0  0  0  0  0  0  0  0
   12.6349  -17.1992   19.4716 C   0  0  0  0  0  0  0  0  0  0  0  0
   11.6353  -17.5108   20.5252 C   0  0  0  0  0  0  0  0  0  0  0  0
   10.8533  -18.7348   20.3045 C   0  0  0  0  0  0  0  0  0  0  0  0
   10.4389  -19.4955   21.2136 O   0  0  0  0  0  0  0  0  0  0  0  0
   14.3667  -16.4024   20.9277 C   0  0  0  0  0  0  0  0  0  0  0  0
   15.3446  -17.1605   20.7585 O   0  0  0  0  0  0  0  0  0  0  0  0
   10.5592  -19.0590   18.9733 O   0  0  0  0  0  0  0  0  0  0  0  0
   14.1227  -15.9523   22.2380 N   0  0  0  0  0  0  0  0  0  0  0  0
   14.8794  -16.3963   23.3998 C   0  0  1  0  0  0  0  0  0  0  0  0
   14.4998  -17.7756   23.8235 C   0  0  0  0  0  0  0  0  0  0  0  0
   14.1125  -17.7725   25.2450 C   0  0  0  0  0  0  0  0  0  0  0  0
   14.2815  -16.7665   25.9461 O   0  0  0  0  0  0  0  0  0  0  0  0
   16.3068  -16.1930   23.1086 C   0  0  0  0  0  0  0  0  0  0  0  0
   16.9195  -15.2306   23.6125 O   0  0  0  0  0  0  0  0  0  0  0  0
   13.5550  -18.9075   25.7959 O   0  0  0  0  0  0  0  0  0  0  0  0
   16.9940  -17.0548   22.2788 O   0  0  0  0  0  0  0  0  0  0  0  0
  2  1  1  0
  2  3  1  0
  3  4  1  1
  5  3  1  0
  5  6  2  0
  7  5  1  0
  8  7  1  0
  8 13  1  0
  8  9  1  6
 10 11  1  0
 10  9  1  0
 11 12  2  0
 13 16  1  0
 14 13  2  0
 15 11  1  0
 16 17  1  0
 17 21  1  0
 17 18  1  6
 19 18  1  0
 20 19  2  0
 21 22  2  0
 21 24  1  0
 23 19  1  0
M  END
$$$$
