NTK.pdb
     RDKit          3D

 25 24  0  0  1  0  0  0  0  0999 V2000
   24.5683  -20.0553   -9.7075 N   0  0  0  0  0  0  0  0  0  0  0  0
   23.8028  -21.0600  -10.3527 C   0  0  0  0  0  0  0  0  0  0  0  0
   22.6397  -21.2997   -9.8825 O   0  0  0  0  0  0  0  0  0  0  0  0
   24.2446  -21.8380  -11.5125 C   0  0  0  0  0  0  0  0  0  0  0  0
   25.6990  -21.4790  -11.8758 C   0  0  2  0  0  0  0  0  0  0  0  0
   25.8757  -20.1008  -11.4923 N   0  0  0  0  0  0  0  0  0  0  0  0
   25.7622  -21.6552  -13.3516 C   0  0  0  0  0  0  0  0  0  0  0  0
   25.9268  -22.8188  -13.7899 O   0  0  0  0  0  0  0  0  0  0  0  0
   23.6563  -21.7841  -16.1336 C   0  0  0  0  0  0  0  0  0  0  0  0
   24.5283  -20.5646  -16.4107 C   0  0  1  0  0  0  0  0  0  0  0  0
   23.9255  -19.4086  -15.9413 O   0  0  0  0  0  0  0  0  0  0  0  0
   25.8764  -20.8039  -15.7134 C   0  0  2  0  0  0  0  0  0  0  0  0
   25.6502  -20.6135  -14.2941 N   0  0  0  0  0  0  0  0  0  0  0  0
   26.8491  -19.8363  -16.2634 C   0  0  0  0  0  0  0  0  0  0  0  0
   27.1696  -18.7762  -15.6618 O   0  0  0  0  0  0  0  0  0  0  0  0
   27.4347  -20.1283  -17.5191 N   0  0  0  0  0  0  0  0  0  0  0  0
   28.4418  -19.2613  -18.1519 C   0  0  1  0  0  0  0  0  0  0  0  0
   29.2204  -20.1784  -19.0623 C   0  0  0  0  0  0  0  0  0  0  0  0
   30.2888  -19.5194  -19.8624 C   0  0  0  0  0  0  0  0  0  0  0  0
   31.0511  -20.5091  -20.7265 C   0  0  0  0  0  0  0  0  0  0  0  0
   32.1954  -19.8326  -21.4491 C   0  0  0  0  0  0  0  0  0  0  0  0
   33.0459  -20.7773  -22.1262 N   0  0  0  0  0  0  0  0  0  0  0  0
   27.7099  -18.2645  -18.9537 C   0  0  0  0  0  0  0  0  0  0  0  0
   28.3280  -17.2978  -19.4547 O   0  0  0  0  0  0  0  0  0  0  0  0
   26.3521  -18.3591  -19.1773 O   0  0  0  0  0  0  0  0  0  0  0  0
  1  2  1  0
  2  3  2  0
  2  4  1  0
  4  5  1  0
  5  6  1  6
  7 13  1  0
  7  5  1  0
  8  7  2  0
 10  9  1  1
 10 12  1  0
 11 10  1  0
 12 13  1  1
 12 14  1  0
 14 15  2  0
 16 14  1  0
 16 17  1  0
 17 23  1  0
 17 18  1  6
 18 19  1  0
 19 20  1  0
 21 22  1  0
 21 20  1  0
 23 25  1  0
 24 23  2  0
M  END
$$$$
