NTK.pdb
     RDKit          3D

 25 24  0  0  1  0  0  0  0  0999 V2000
   15.1937  -13.9437  -16.7201 N   0  0  0  0  0  0  0  0  0  0  0  0
   15.3315  -12.6025  -16.2793 C   0  0  0  0  0  0  0  0  0  0  0  0
   14.7383  -11.7001  -16.9613 O   0  0  0  0  0  0  0  0  0  0  0  0
   16.0987  -12.1785  -15.1057 C   0  0  0  0  0  0  0  0  0  0  0  0
   17.1665  -11.1427  -15.5094 C   0  0  2  0  0  0  0  0  0  0  0  0
   18.2555  -11.8961  -16.0787 N   0  0  0  0  0  0  0  0  0  0  0  0
   17.5523  -10.4953  -14.2268 C   0  0  0  0  0  0  0  0  0  0  0  0
   17.9563  -11.2386  -13.3009 O   0  0  0  0  0  0  0  0  0  0  0  0
   20.1658   -8.1976  -13.4518 C   0  0  0  0  0  0  0  0  0  0  0  0
   18.9200   -7.4628  -12.9695 C   0  0  1  0  0  0  0  0  0  0  0  0
   18.4842   -6.5523  -13.9189 O   0  0  0  0  0  0  0  0  0  0  0  0
   17.8456   -8.5260  -12.6933 C   0  0  2  0  0  0  0  0  0  0  0  0
   17.4991   -9.1098  -13.9743 N   0  0  0  0  0  0  0  0  0  0  0  0
   16.6965   -7.8529  -12.0520 C   0  0  0  0  0  0  0  0  0  0  0  0
   15.6163   -7.6228  -12.6593 O   0  0  0  0  0  0  0  0  0  0  0  0
   16.8325   -7.4568  -10.6994 N   0  0  0  0  0  0  0  0  0  0  0  0
   15.8077   -6.6749   -9.9889 C   0  0  1  0  0  0  0  0  0  0  0  0
   14.8282   -7.7017   -9.4764 C   0  0  0  0  0  0  0  0  0  0  0  0
   13.6927   -7.1543   -8.6845 C   0  0  0  0  0  0  0  0  0  0  0  0
   12.6985   -8.2318   -8.2874 C   0  0  0  0  0  0  0  0  0  0  0  0
   11.5903   -7.6608   -7.4300 C   0  0  0  0  0  0  0  0  0  0  0  0
   10.6633   -8.6730   -6.9938 N   0  0  0  0  0  0  0  0  0  0  0  0
   16.4784   -6.0144   -8.8550 C   0  0  0  0  0  0  0  0  0  0  0  0
   17.5785   -6.4508   -8.4465 O   0  0  0  0  0  0  0  0  0  0  0  0
   15.9333   -4.9181   -8.2199 O   0  0  0  0  0  0  0  0  0  0  0  0
  1  2  1  0
  2  3  2  0
  2  4  1  0
  4  5  1  0
  5  6  1  1
  7 13  1  0
  7  5  1  0
  8  7  2  0
 10  9  1  6
 10 12  1  0
 11 10  1  0
 12 13  1  6
 12 14  1  0
 14 15  2  0
 16 14  1  0
 16 17  1  0
 17 23  1  0
 17 18  1  1
 18 19  1  0
 19 20  1  0
 21 22  1  0
 21 20  1  0
 23 25  1  0
 24 23  2  0
M  END
$$$$
