NTK.pdb
     RDKit          3D

 25 24  0  0  1  0  0  0  0  0999 V2000
   17.4932  -13.0109  -18.7028 N   0  0  0  0  0  0  0  0  0  0  0  0
   16.9446  -11.9506  -17.9369 C   0  0  0  0  0  0  0  0  0  0  0  0
   15.7825  -11.5341  -18.2648 O   0  0  0  0  0  0  0  0  0  0  0  0
   17.6082  -11.3022  -16.8033 C   0  0  0  0  0  0  0  0  0  0  0  0
   19.0007  -11.9214  -16.5721 C   0  0  2  0  0  0  0  0  0  0  0  0
   18.7720  -13.1694  -15.8881 N   0  0  0  0  0  0  0  0  0  0  0  0
   19.7007  -10.9355  -15.7054 C   0  0  0  0  0  0  0  0  0  0  0  0
   19.2564  -10.7655  -14.5450 O   0  0  0  0  0  0  0  0  0  0  0  0
   23.0686  -10.9815  -14.5537 C   0  0  0  0  0  0  0  0  0  0  0  0
   22.9643   -9.5953  -15.1797 C   0  0  1  0  0  0  0  0  0  0  0  0
   23.5055   -9.5868  -16.4555 O   0  0  0  0  0  0  0  0  0  0  0  0
   21.4737   -9.2240  -15.2123 C   0  0  2  0  0  0  0  0  0  0  0  0
   20.8261  -10.1792  -16.0898 N   0  0  0  0  0  0  0  0  0  0  0  0
   21.3631   -7.8367  -15.7105 C   0  0  0  0  0  0  0  0  0  0  0  0
   20.8941   -7.5564  -16.8462 O   0  0  0  0  0  0  0  0  0  0  0  0
   21.8075   -6.7924  -14.8637 N   0  0  0  0  0  0  0  0  0  0  0  0
   21.7289   -5.3714  -15.2391 C   0  0  1  0  0  0  0  0  0  0  0  0
   20.2516   -5.0825  -15.3413 C   0  0  0  0  0  0  0  0  0  0  0  0
   19.9016   -3.6635  -15.6242 C   0  0  0  0  0  0  0  0  0  0  0  0
   18.4005   -3.4509  -15.7176 C   0  0  0  0  0  0  0  0  0  0  0  0
   18.0734   -2.0064  -16.0273 C   0  0  0  0  0  0  0  0  0  0  0  0
   16.6544   -1.7768  -16.1159 N   0  0  0  0  0  0  0  0  0  0  0  0
   22.3135   -4.5991  -14.1283 C   0  0  0  0  0  0  0  0  0  0  0  0
   22.3419   -5.0928  -12.9781 O   0  0  0  0  0  0  0  0  0  0  0  0
   22.8390   -3.3370  -14.3114 O   0  0  0  0  0  0  0  0  0  0  0  0
  1  2  1  0
  2  3  2  0
  2  4  1  0
  4  5  1  0
  5  6  1  1
  7 13  1  0
  7  5  1  0
  8  7  2  0
 10  9  1  6
 10 12  1  0
 11 10  1  0
 12 13  1  6
 12 14  1  0
 14 15  2  0
 16 14  1  0
 16 17  1  0
 17 23  1  0
 17 18  1  1
 18 19  1  0
 19 20  1  0
 21 22  1  0
 21 20  1  0
 23 25  1  0
 24 23  2  0
M  END
$$$$
