NTK.pdb
     RDKit          3D

 25 24  0  0  1  0  0  0  0  0999 V2000
   23.0254  -14.8504  -18.1097 N   0  0  0  0  0  0  0  0  0  0  0  0
   23.4871  -13.6861  -18.7754 C   0  0  0  0  0  0  0  0  0  0  0  0
   24.4914  -13.8181  -19.5534 O   0  0  0  0  0  0  0  0  0  0  0  0
   22.8999  -12.3511  -18.6381 C   0  0  0  0  0  0  0  0  0  0  0  0
   21.7513  -12.3743  -17.6103 C   0  0  2  0  0  0  0  0  0  0  0  0
   20.7289  -13.2183  -18.1761 N   0  0  0  0  0  0  0  0  0  0  0  0
   21.3112  -10.9561  -17.5208 C   0  0  0  0  0  0  0  0  0  0  0  0
   21.0275  -10.3684  -18.5918 O   0  0  0  0  0  0  0  0  0  0  0  0
   18.3688   -9.7223  -16.0279 C   0  0  0  0  0  0  0  0  0  0  0  0
   19.4509   -8.9018  -15.3349 C   0  0  1  0  0  0  0  0  0  0  0  0
   19.7838   -9.4567  -14.1095 O   0  0  0  0  0  0  0  0  0  0  0  0
   20.6672   -8.8715  -16.2733 C   0  0  2  0  0  0  0  0  0  0  0  0
   21.1880  -10.2237  -16.3230 N   0  0  0  0  0  0  0  0  0  0  0  0
   21.6444   -7.9117  -15.7178 C   0  0  0  0  0  0  0  0  0  0  0  0
   22.6532   -8.2739  -15.0547 O   0  0  0  0  0  0  0  0  0  0  0  0
   21.4220   -6.5326  -15.9494 N   0  0  0  0  0  0  0  0  0  0  0  0
   22.3744   -5.4894  -15.5358 C   0  0  1  0  0  0  0  0  0  0  0  0
   21.9220   -4.2468  -16.2622 C   0  0  0  0  0  0  0  0  0  0  0  0
   22.5726   -2.9827  -15.8209 C   0  0  0  0  0  0  0  0  0  0  0  0
   22.0029   -1.7666  -16.5307 C   0  0  0  0  0  0  0  0  0  0  0  0
   22.6012   -0.4881  -15.9857 C   0  0  0  0  0  0  0  0  0  0  0  0
   21.9610    0.6847  -16.5232 N   0  0  0  0  0  0  0  0  0  0  0  0
   22.2095   -5.3067  -14.0827 C   0  0  0  0  0  0  0  0  0  0  0  0
   21.0937   -5.5158  -13.5548 O   0  0  0  0  0  0  0  0  0  0  0  0
   23.2526   -4.9105  -13.2719 O   0  0  0  0  0  0  0  0  0  0  0  0
  1  2  1  0
  2  3  2  0
  2  4  1  0
  4  5  1  0
  5  6  1  6
  7 13  1  0
  7  5  1  0
  8  7  2  0
 10  9  1  6
 10 12  1  0
 11 10  1  0
 12 13  1  1
 12 14  1  0
 14 15  2  0
 16 14  1  0
 16 17  1  0
 17 23  1  0
 17 18  1  6
 18 19  1  0
 19 20  1  0
 21 22  1  0
 21 20  1  0
 23 25  1  0
 24 23  2  0
M  END
$$$$
