NTK.pdb
     RDKit          3D

 25 24  0  0  1  0  0  0  0  0999 V2000
   14.3929  -12.5106  -16.8305 N   0  0  0  0  0  0  0  0  0  0  0  0
   13.8808  -11.1962  -16.9787 C   0  0  0  0  0  0  0  0  0  0  0  0
   12.6582  -11.0823  -17.3300 O   0  0  0  0  0  0  0  0  0  0  0  0
   14.6460   -9.9666  -16.7588 C   0  0  0  0  0  0  0  0  0  0  0  0
   16.1005  -10.3023  -16.3746 C   0  0  2  0  0  0  0  0  0  0  0  0
   16.0465  -10.8242  -15.0321 N   0  0  0  0  0  0  0  0  0  0  0  0
   16.8059   -8.9938  -16.4316 C   0  0  0  0  0  0  0  0  0  0  0  0
   16.8774   -8.4219  -17.5456 O   0  0  0  0  0  0  0  0  0  0  0  0
   16.0975   -5.7601  -15.4722 C   0  0  0  0  0  0  0  0  0  0  0  0
   17.3672   -6.0424  -14.6770 C   0  0  1  0  0  0  0  0  0  0  0  0
   17.0627   -6.4730  -13.3955 O   0  0  0  0  0  0  0  0  0  0  0  0
   18.1536   -7.1158  -15.4454 C   0  0  2  0  0  0  0  0  0  0  0  0
   17.3989   -8.3481  -15.3282 N   0  0  0  0  0  0  0  0  0  0  0  0
   19.4961   -7.2174  -14.8354 C   0  0  0  0  0  0  0  0  0  0  0  0
   19.9314   -8.2824  -14.3206 O   0  0  0  0  0  0  0  0  0  0  0  0
   20.3132   -6.0610  -14.8379 N   0  0  0  0  0  0  0  0  0  0  0  0
   21.7493   -6.0968  -14.5177 C   0  0  1  0  0  0  0  0  0  0  0  0
   22.4072   -6.6364  -15.7635 C   0  0  0  0  0  0  0  0  0  0  0  0
   23.0770   -7.9563  -15.6055 C   0  0  0  0  0  0  0  0  0  0  0  0
   23.6545   -8.4667  -16.9144 C   0  0  0  0  0  0  0  0  0  0  0  0
   24.2804   -9.8329  -16.7374 C   0  0  0  0  0  0  0  0  0  0  0  0
   25.2837   -9.8421  -15.7043 N   0  0  0  0  0  0  0  0  0  0  0  0
   22.1752   -4.7042  -14.2908 C   0  0  0  0  0  0  0  0  0  0  0  0
   21.5803   -3.7712  -14.8765 O   0  0  0  0  0  0  0  0  0  0  0  0
   23.2172   -4.3862  -13.4448 O   0  0  0  0  0  0  0  0  0  0  0  0
  1  2  1  0
  2  3  2  0
  2  4  1  0
  4  5  1  0
  5  6  1  1
  7 13  1  0
  7  5  1  0
  8  7  2  0
 10  9  1  6
 10 12  1  0
 11 10  1  0
 12 13  1  1
 12 14  1  0
 14 15  2  0
 16 14  1  0
 16 17  1  0
 17 23  1  0
 17 18  1  6
 18 19  1  0
 19 20  1  0
 21 22  1  0
 21 20  1  0
 23 25  1  0
 24 23  2  0
M  END
$$$$
