NTK.pdb
     RDKit          3D

 25 24  0  0  1  0  0  0  0  0999 V2000
   27.2814  -10.9309  -15.2849 N   0  0  0  0  0  0  0  0  0  0  0  0
   27.4801   -9.6929  -15.9480 C   0  0  0  0  0  0  0  0  0  0  0  0
   28.6374   -9.1605  -15.8559 O   0  0  0  0  0  0  0  0  0  0  0  0
   26.4620   -8.9843  -16.7273 C   0  0  0  0  0  0  0  0  0  0  0  0
   25.0891   -9.6647  -16.5593 C   0  0  2  0  0  0  0  0  0  0  0  0
   25.1702  -10.9076  -17.2848 N   0  0  0  0  0  0  0  0  0  0  0  0
   24.1310   -8.7173  -17.1899 C   0  0  0  0  0  0  0  0  0  0  0  0
   24.1540   -8.6158  -18.4397 O   0  0  0  0  0  0  0  0  0  0  0  0
   20.9001   -8.9956  -17.8933 C   0  0  0  0  0  0  0  0  0  0  0  0
   20.8681   -7.7499  -17.0149 C   0  0  1  0  0  0  0  0  0  0  0  0
   20.6072   -8.0820  -15.6950 O   0  0  0  0  0  0  0  0  0  0  0  0
   22.2373   -7.0656  -17.1493 C   0  0  2  0  0  0  0  0  0  0  0  0
   23.1991   -7.9262  -16.4887 N   0  0  0  0  0  0  0  0  0  0  0  0
   22.1429   -5.7345  -16.5137 C   0  0  0  0  0  0  0  0  0  0  0  0
   22.5092   -5.5189  -15.3271 O   0  0  0  0  0  0  0  0  0  0  0  0
   21.6165   -4.6695  -17.2842 N   0  0  0  0  0  0  0  0  0  0  0  0
   21.5386   -3.2863  -16.7871 C   0  0  1  0  0  0  0  0  0  0  0  0
   21.4942   -2.4333  -18.0307 C   0  0  0  0  0  0  0  0  0  0  0  0
   22.7928   -2.2833  -18.7430 C   0  0  0  0  0  0  0  0  0  0  0  0
   22.6665   -1.4273  -19.9914 C   0  0  0  0  0  0  0  0  0  0  0  0
   23.9759   -1.3707  -20.7475 C   0  0  0  0  0  0  0  0  0  0  0  0
   23.9150   -0.4767  -21.8749 N   0  0  0  0  0  0  0  0  0  0  0  0
   20.2676   -3.1635  -16.0513 C   0  0  0  0  0  0  0  0  0  0  0  0
   20.0043   -2.1016  -15.4425 O   0  0  0  0  0  0  0  0  0  0  0  0
   19.3444   -4.1875  -16.0092 O   0  0  0  0  0  0  0  0  0  0  0  0
  1  2  1  0
  2  3  2  0
  2  4  1  0
  4  5  1  0
  5  6  1  6
  7 13  1  0
  7  5  1  0
  8  7  2  0
 10  9  1  6
 10 12  1  0
 11 10  1  0
 12 13  1  1
 12 14  1  0
 14 15  2  0
 16 14  1  0
 16 17  1  0
 17 23  1  0
 17 18  1  6
 18 19  1  0
 19 20  1  0
 21 22  1  0
 21 20  1  0
 23 25  1  0
 24 23  2  0
M  END
$$$$
