DNR.pdb
     RDKit          3D

 28 27  0  0  1  0  0  0  0  0999 V2000
    9.5836  -17.3561   16.6924 N   0  0  0  0  0  0  0  0  0  0  0  0
   10.7630  -16.5326   16.8372 C   0  0  1  0  0  0  0  0  0  0  0  0
   10.8973  -15.6105   15.6166 C   0  0  0  0  0  0  0  0  0  0  0  0
   10.9994  -16.3758   14.3721 C   0  0  0  0  0  0  0  0  0  0  0  0
   12.0442  -16.9857   14.0319 O   0  0  0  0  0  0  0  0  0  0  0  0
   10.6014  -15.6086   17.9953 C   0  0  0  0  0  0  0  0  0  0  0  0
   11.4937  -14.7953   18.3048 O   0  0  0  0  0  0  0  0  0  0  0  0
    9.9052  -16.4505   13.5035 O   0  0  0  0  0  0  0  0  0  0  0  0
    8.5638  -12.8099   18.0454 N   0  0  0  0  0  0  0  0  0  0  0  0
    7.6502  -13.1597   19.0526 C   0  0  0  0  0  0  0  0  0  0  0  0
    6.5105  -12.6206   19.0165 O   0  0  0  0  0  0  0  0  0  0  0  0
    7.9686  -14.0998   20.1085 C   0  0  0  0  0  0  0  0  0  0  0  0
    9.2492  -14.8489   19.9776 C   0  0  2  0  0  0  0  0  0  0  0  0
    9.4040  -15.6291   18.7925 N   0  0  0  0  0  0  0  0  0  0  0  0
    9.4182  -15.7242   21.1790 C   0  0  0  0  0  0  0  0  0  0  0  0
    8.4440  -15.8429   21.9642 O   0  0  0  0  0  0  0  0  0  0  0  0
   10.4234  -22.0682   24.7649 N   0  0  0  0  0  0  0  0  0  0  0  0
   11.8238  -22.3281   24.6382 C   0  0  0  0  0  0  0  0  0  0  0  0
   12.2564  -23.4947   25.0267 N   0  0  0  0  0  0  0  0  0  0  0  0
   12.6647  -21.3417   24.1105 N   0  0  0  0  0  0  0  0  0  0  0  0
   12.1965  -20.5479   22.9471 C   0  0  0  0  0  0  0  0  0  0  0  0
   12.3203  -19.1347   23.3499 C   0  0  0  0  0  0  0  0  0  0  0  0
   11.8923  -18.0381   22.5040 C   0  0  0  0  0  0  0  0  0  0  0  0
   10.6849  -17.2132   22.7113 C   0  0  2  0  0  0  0  0  0  0  0  0
   10.6091  -16.4078   21.4567 N   0  0  0  0  0  0  0  0  0  0  0  0
   10.6907  -16.2194   23.7885 C   0  0  0  0  0  0  0  0  0  0  0  0
   10.1449  -16.5141   25.0633 O   0  0  0  0  0  0  0  0  0  0  0  0
   11.1632  -15.0873   23.6489 O   0  0  0  0  0  0  0  0  0  0  0  0
  2  1  1  6
  2  3  1  0
  3  4  1  0
  4  8  1  0
  4  5  2  0
  6 14  1  0
  6  2  1  0
  7  6  2  0
  9 10  1  0
 10 11  2  0
 12 10  1  0
 13 12  1  6
 13 14  1  0
 15 16  2  0
 15 13  1  0
 18 17  1  0
 19 18  2  0
 20 18  1  0
 21 20  1  0
 22 21  1  0
 22 23  1  0
 24 23  1  6
 24 26  1  0
 24 25  1  0
 25 15  1  0
 26 27  1  0
 28 26  2  0
M  END
$$$$
