DNR.pdb
     RDKit          3D

 28 27  0  0  1  0  0  0  0  0999 V2000
   10.2791  -17.7682   17.8450 N   0  0  0  0  0  0  0  0  0  0  0  0
    9.0438  -17.4849   18.5405 C   0  0  1  0  0  0  0  0  0  0  0  0
    7.8867  -18.2231   17.8515 C   0  0  0  0  0  0  0  0  0  0  0  0
    8.1657  -18.4567   16.4329 C   0  0  0  0  0  0  0  0  0  0  0  0
    9.2877  -18.8371   16.0135 O   0  0  0  0  0  0  0  0  0  0  0  0
    9.0909  -18.0537   19.9172 C   0  0  0  0  0  0  0  0  0  0  0  0
    8.0865  -18.0489   20.6551 O   0  0  0  0  0  0  0  0  0  0  0  0
    7.1619  -18.2569   15.4790 O   0  0  0  0  0  0  0  0  0  0  0  0
   12.9885  -20.6699   24.0502 N   0  0  0  0  0  0  0  0  0  0  0  0
   11.7458  -20.3517   23.4793 C   0  0  0  0  0  0  0  0  0  0  0  0
   10.7250  -20.4568   24.2126 O   0  0  0  0  0  0  0  0  0  0  0  0
   11.6027  -19.9159   22.1046 C   0  0  0  0  0  0  0  0  0  0  0  0
   10.4544  -19.0175   21.8005 C   0  0  2  0  0  0  0  0  0  0  0  0
   10.3037  -18.6282   20.4357 N   0  0  0  0  0  0  0  0  0  0  0  0
   10.5584  -17.7979   22.6606 C   0  0  0  0  0  0  0  0  0  0  0  0
   11.5580  -17.0515   22.5076 O   0  0  0  0  0  0  0  0  0  0  0  0
    6.6980  -13.8267   19.3132 N   0  0  0  0  0  0  0  0  0  0  0  0
    7.7714  -12.9504   19.6665 C   0  0  0  0  0  0  0  0  0  0  0  0
    8.3091  -12.2433   18.7127 N   0  0  0  0  0  0  0  0  0  0  0  0
    8.1979  -12.8820   20.9977 N   0  0  0  0  0  0  0  0  0  0  0  0
    7.6267  -13.8333   21.9832 C   0  0  0  0  0  0  0  0  0  0  0  0
    8.7793  -14.5352   22.5778 C   0  0  0  0  0  0  0  0  0  0  0  0
    8.6743  -15.3337   23.7831 C   0  0  0  0  0  0  0  0  0  0  0  0
    9.7472  -16.1723   24.3546 C   0  0  2  0  0  0  0  0  0  0  0  0
    9.5931  -17.4620   23.6188 N   0  0  0  0  0  0  0  0  0  0  0  0
    9.6690  -16.5431   25.7703 C   0  0  0  0  0  0  0  0  0  0  0  0
   10.3077  -15.7666   26.7698 O   0  0  0  0  0  0  0  0  0  0  0  0
    9.0528  -17.5369   26.1665 O   0  0  0  0  0  0  0  0  0  0  0  0
  2  1  1  6
  2  3  1  0
  3  4  1  0
  4  8  1  0
  4  5  2  0
  6 14  1  0
  6  2  1  0
  7  6  2  0
  9 10  1  0
 10 11  2  0
 12 10  1  0
 13 12  1  6
 13 14  1  0
 15 16  2  0
 15 13  1  0
 18 17  1  0
 19 18  2  0
 20 18  1  0
 21 20  1  0
 22 21  1  0
 22 23  1  0
 24 23  1  6
 24 26  1  0
 24 25  1  0
 25 15  1  0
 26 27  1  0
 28 26  2  0
M  END
$$$$
