DNR.pdb
     RDKit          3D

 28 27  0  0  1  0  0  0  0  0999 V2000
   11.6730  -17.5976   19.3471 N   0  0  0  0  0  0  0  0  0  0  0  0
   10.4256  -17.7978   20.0499 C   0  0  1  0  0  0  0  0  0  0  0  0
   10.6399  -18.7911   21.2014 C   0  0  0  0  0  0  0  0  0  0  0  0
   10.5631  -20.1781   20.7376 C   0  0  0  0  0  0  0  0  0  0  0  0
   10.4161  -20.4840   19.5275 O   0  0  0  0  0  0  0  0  0  0  0  0
   10.0047  -16.5317   20.7139 C   0  0  0  0  0  0  0  0  0  0  0  0
   10.7441  -15.9530   21.5335 O   0  0  0  0  0  0  0  0  0  0  0  0
   10.6538  -21.2301   21.6555 O   0  0  0  0  0  0  0  0  0  0  0  0
    7.7243  -12.2113   18.7236 N   0  0  0  0  0  0  0  0  0  0  0  0
    7.4009  -13.5477   19.0080 C   0  0  0  0  0  0  0  0  0  0  0  0
    7.3268  -14.3476   18.0357 O   0  0  0  0  0  0  0  0  0  0  0  0
    7.1552  -14.0259   20.3538 C   0  0  0  0  0  0  0  0  0  0  0  0
    8.2798  -14.7269   21.0336 C   0  0  2  0  0  0  0  0  0  0  0  0
    8.7263  -15.9383   20.4252 N   0  0  0  0  0  0  0  0  0  0  0  0
    7.8911  -14.9934   22.4534 C   0  0  0  0  0  0  0  0  0  0  0  0
    7.1218  -15.9604   22.6830 O   0  0  0  0  0  0  0  0  0  0  0  0
   12.5112  -17.1775   29.1091 N   0  0  0  0  0  0  0  0  0  0  0  0
   11.2964  -16.7280   29.7150 C   0  0  0  0  0  0  0  0  0  0  0  0
   11.1428  -16.9492   30.9903 N   0  0  0  0  0  0  0  0  0  0  0  0
   10.3344  -16.0773   28.9341 N   0  0  0  0  0  0  0  0  0  0  0  0
   10.5314  -16.0075   27.4648 C   0  0  0  0  0  0  0  0  0  0  0  0
    9.3203  -15.3594   26.9281 C   0  0  0  0  0  0  0  0  0  0  0  0
    9.1052  -15.1524   25.5096 C   0  0  0  0  0  0  0  0  0  0  0  0
    7.8939  -14.5668   24.9005 C   0  0  2  0  0  0  0  0  0  0  0  0
    8.3483  -14.2129   23.5233 N   0  0  0  0  0  0  0  0  0  0  0  0
    7.3682  -13.3138   25.4495 C   0  0  0  0  0  0  0  0  0  0  0  0
    7.5686  -12.0784   24.7835 O   0  0  0  0  0  0  0  0  0  0  0  0
    6.7318  -13.2637   26.5062 O   0  0  0  0  0  0  0  0  0  0  0  0
  2  1  1  1
  2  3  1  0
  3  4  1  0
  4  8  1  0
  4  5  2  0
  6 14  1  0
  6  2  1  0
  7  6  2  0
  9 10  1  0
 10 11  2  0
 12 10  1  0
 13 12  1  6
 13 14  1  0
 15 16  2  0
 15 13  1  0
 18 17  1  0
 19 18  2  0
 20 18  1  0
 21 20  1  0
 22 21  1  0
 22 23  1  0
 24 23  1  1
 24 26  1  0
 24 25  1  0
 25 15  1  0
 26 27  1  0
 28 26  2  0
M  END
$$$$
