DNR.pdb
     RDKit          3D

 28 27  0  0  1  0  0  0  0  0999 V2000
    8.9381  -17.4890   14.2629 N   0  0  0  0  0  0  0  0  0  0  0  0
   10.2758  -16.9521   14.3735 C   0  0  1  0  0  0  0  0  0  0  0  0
   10.6190  -16.1651   13.1001 C   0  0  0  0  0  0  0  0  0  0  0  0
   12.0477  -15.8507   13.0299 C   0  0  0  0  0  0  0  0  0  0  0  0
   12.5062  -14.7078   13.2810 O   0  0  0  0  0  0  0  0  0  0  0  0
   10.3324  -15.9441   15.4697 C   0  0  0  0  0  0  0  0  0  0  0  0
   11.4004  -15.3798   15.7766 O   0  0  0  0  0  0  0  0  0  0  0  0
   12.9668  -16.8425   12.6711 O   0  0  0  0  0  0  0  0  0  0  0  0
    7.8552  -12.0405   18.9771 N   0  0  0  0  0  0  0  0  0  0  0  0
    7.8285  -13.4435   19.0252 C   0  0  0  0  0  0  0  0  0  0  0  0
    7.8014  -13.9858   20.1636 O   0  0  0  0  0  0  0  0  0  0  0  0
    7.8309  -14.2694   17.8344 C   0  0  0  0  0  0  0  0  0  0  0  0
    9.1610  -14.6659   17.2943 C   0  0  2  0  0  0  0  0  0  0  0  0
    9.1490  -15.5917   16.2081 N   0  0  0  0  0  0  0  0  0  0  0  0
    9.9884  -15.2166   18.4124 C   0  0  0  0  0  0  0  0  0  0  0  0
   10.0604  -16.4655   18.5334 O   0  0  0  0  0  0  0  0  0  0  0  0
   16.9183  -13.6692   22.1292 N   0  0  0  0  0  0  0  0  0  0  0  0
   17.2287  -14.3743   20.9245 C   0  0  0  0  0  0  0  0  0  0  0  0
   18.3150  -14.0325   20.2905 N   0  0  0  0  0  0  0  0  0  0  0  0
   16.3737  -15.3882   20.4775 N   0  0  0  0  0  0  0  0  0  0  0  0
   15.1890  -15.0195   19.6632 C   0  0  0  0  0  0  0  0  0  0  0  0
   14.1388  -14.6465   20.6290 C   0  0  0  0  0  0  0  0  0  0  0  0
   12.8118  -14.2288   20.2216 C   0  0  0  0  0  0  0  0  0  0  0  0
   11.5882  -15.0516   20.3054 C   0  0  2  0  0  0  0  0  0  0  0  0
   10.6772  -14.3998   19.3186 N   0  0  0  0  0  0  0  0  0  0  0  0
   10.8308  -15.0568   21.5600 C   0  0  0  0  0  0  0  0  0  0  0  0
   11.1951  -15.9064   22.6349 O   0  0  0  0  0  0  0  0  0  0  0  0
    9.8481  -14.3337   21.7489 O   0  0  0  0  0  0  0  0  0  0  0  0
  2  1  1  6
  2  3  1  0
  3  4  1  0
  4  8  1  0
  4  5  2  0
  6 14  1  0
  6  2  1  0
  7  6  2  0
  9 10  1  0
 10 11  2  0
 12 10  1  0
 13 12  1  1
 13 14  1  0
 15 16  2  0
 15 13  1  0
 18 17  1  0
 19 18  2  0
 20 18  1  0
 21 20  1  0
 22 21  1  0
 22 23  1  0
 24 23  1  1
 24 26  1  0
 24 25  1  0
 25 15  1  0
 26 27  1  0
 28 26  2  0
M  END
$$$$
