WNF.pdb
     RDKit          3D

 34 36  0  0  1  0  0  0  0  0999 V2000
    8.0767  -18.1397   21.5236 N   0  0  0  0  0  0  0  0  0  0  0  0
    8.6337  -17.2594   22.5005 C   0  0  1  0  0  0  0  0  0  0  0  0
    7.6238  -16.2239   22.9924 C   0  0  0  0  0  0  0  0  0  0  0  0
    7.0491  -15.4246   21.8882 C   0  0  0  0  0  0  0  0  0  0  0  0
    5.8007  -15.6133   21.3119 C   0  0  0  0  0  0  0  0  0  0  0  0
    5.6217  -14.6967   20.3443 N   0  0  0  0  0  0  0  0  0  0  0  0
    6.7069  -13.9034   20.2544 C   0  0  0  0  0  0  0  0  0  0  0  0
    6.9950  -12.8290   19.4219 C   0  0  0  0  0  0  0  0  0  0  0  0
    8.2102  -12.1935   19.5596 C   0  0  0  0  0  0  0  0  0  0  0  0
    9.1011  -12.6336   20.5100 C   0  0  0  0  0  0  0  0  0  0  0  0
    8.8135  -13.7099   21.3452 C   0  0  0  0  0  0  0  0  0  0  0  0
    7.5975  -14.3484   21.2090 C   0  0  0  0  0  0  0  0  0  0  0  0
    9.1775  -17.9766   23.6809 C   0  0  0  0  0  0  0  0  0  0  0  0
    9.0328  -19.2456   23.6683 O   0  0  0  0  0  0  0  0  0  0  0  0
   14.0546  -18.5384   24.0979 N   0  0  0  0  0  0  0  0  0  0  0  0
   13.4343  -17.2810   23.9369 C   0  0  0  0  0  0  0  0  0  0  0  0
   14.0826  -16.1929   24.0191 O   0  0  0  0  0  0  0  0  0  0  0  0
   11.9692  -17.1729   23.6573 C   0  0  0  0  0  0  0  0  0  0  0  0
   11.2606  -17.5179   24.9614 C   0  0  2  0  0  0  0  0  0  0  0  0
    9.8216  -17.3744   24.7782 N   0  0  0  0  0  0  0  0  0  0  0  0
   11.7605  -16.6061   26.0176 C   0  0  0  0  0  0  0  0  0  0  0  0
   12.9488  -16.7318   26.4160 O   0  0  0  0  0  0  0  0  0  0  0  0
   10.9527  -15.5955   26.5977 N   0  0  0  0  0  0  0  0  0  0  0  0
   10.4094  -15.6868   27.9588 C   0  0  1  0  0  0  0  0  0  0  0  0
    8.9227  -15.6772   27.9427 C   0  0  0  0  0  0  0  0  0  0  0  0
    8.4138  -14.4640   27.2755 C   0  0  0  0  0  0  0  0  0  0  0  0
    7.2258  -14.5125   26.5334 C   0  0  0  0  0  0  0  0  0  0  0  0
    6.7118  -13.4041   25.9206 C   0  0  0  0  0  0  0  0  0  0  0  0
    7.3272  -12.1824   25.9955 C   0  0  0  0  0  0  0  0  0  0  0  0
    8.5006  -12.0979   26.7190 C   0  0  0  0  0  0  0  0  0  0  0  0
    9.0171  -13.2189   27.3373 C   0  0  0  0  0  0  0  0  0  0  0  0
   10.9182  -16.9221   28.5692 C   0  0  0  0  0  0  0  0  0  0  0  0
   11.7409  -16.9168   29.5047 O   0  0  0  0  0  0  0  0  0  0  0  0
   10.4792  -18.1841   28.1011 O   0  0  0  0  0  0  0  0  0  0  0  0
  2  1  1  6
  3  2  1  0
  4  5  2  0
  4  3  1  0
  6  5  1  0
  7 12  2  0
  7  6  1  0
  8  7  1  0
  9 10  1  0
  9  8  2  0
 10 11  2  0
 11 12  1  0
 12  4  1  0
 13  2  1  0
 14 13  2  0
 16 15  1  0
 17 16  2  0
 19 18  1  6
 18 16  1  0
 19 20  1  0
 20 13  1  0
 21 19  1  0
 22 21  2  0
 23 21  1  0
 24 23  1  0
 24 25  1  6
 25 26  1  0
 26 31  1  0
 27 26  2  0
 27 28  1  0
 28 29  2  0
 29 30  1  0
 31 30  2  0
 32 34  1  0
 32 24  1  0
 33 32  2  0
M  END
$$$$
