WNF.pdb
     RDKit          3D

 34 36  0  0  1  0  0  0  0  0999 V2000
    5.9543  -17.4616   23.5231 N   0  0  0  0  0  0  0  0  0  0  0  0
    6.9103  -16.4007   23.5372 C   0  0  1  0  0  0  0  0  0  0  0  0
    7.5570  -16.2197   24.9094 C   0  0  0  0  0  0  0  0  0  0  0  0
    6.7947  -15.2950   25.7769 C   0  0  0  0  0  0  0  0  0  0  0  0
    5.8348  -15.6609   26.7101 C   0  0  0  0  0  0  0  0  0  0  0  0
    5.3631  -14.5539   27.3105 N   0  0  0  0  0  0  0  0  0  0  0  0
    5.9742  -13.4623   26.8105 C   0  0  0  0  0  0  0  0  0  0  0  0
    5.8318  -12.1119   27.1049 C   0  0  0  0  0  0  0  0  0  0  0  0
    6.6067  -11.2010   26.4200 C   0  0  0  0  0  0  0  0  0  0  0  0
    7.4953  -11.6461   25.4698 C   0  0  0  0  0  0  0  0  0  0  0  0
    7.6392  -12.9991   25.1740 C   0  0  0  0  0  0  0  0  0  0  0  0
    6.8641  -13.9134   25.8582 C   0  0  0  0  0  0  0  0  0  0  0  0
    7.9895  -16.5825   22.5342 C   0  0  0  0  0  0  0  0  0  0  0  0
    8.3085  -17.7934   22.2827 O   0  0  0  0  0  0  0  0  0  0  0  0
    8.2444  -13.0823   19.4947 N   0  0  0  0  0  0  0  0  0  0  0  0
    8.8605  -14.3494   19.4144 C   0  0  0  0  0  0  0  0  0  0  0  0
    8.3731  -15.2945   18.7214 O   0  0  0  0  0  0  0  0  0  0  0  0
   10.1306  -14.6383   20.1490 C   0  0  0  0  0  0  0  0  0  0  0  0
    9.8392  -15.8329   21.0489 C   0  0  2  0  0  0  0  0  0  0  0  0
    8.6640  -15.5457   21.8622 N   0  0  0  0  0  0  0  0  0  0  0  0
   11.0305  -16.0787   21.8958 C   0  0  0  0  0  0  0  0  0  0  0  0
   12.1683  -16.0885   21.3554 O   0  0  0  0  0  0  0  0  0  0  0  0
   10.9400  -16.3026   23.2930 N   0  0  0  0  0  0  0  0  0  0  0  0
   12.1115  -16.5560   24.1413 C   0  0  1  0  0  0  0  0  0  0  0  0
   12.4003  -15.3889   25.0162 C   0  0  0  0  0  0  0  0  0  0  0  0
   11.2967  -15.1619   25.9682 C   0  0  0  0  0  0  0  0  0  0  0  0
   11.4691  -15.4475   27.3295 C   0  0  0  0  0  0  0  0  0  0  0  0
   10.4772  -15.2286   28.2441 C   0  0  0  0  0  0  0  0  0  0  0  0
    9.2578  -14.7183   27.8843 C   0  0  0  0  0  0  0  0  0  0  0  0
    9.0530  -14.4253   26.5502 C   0  0  0  0  0  0  0  0  0  0  0  0
   10.0567  -14.6468   25.6287 C   0  0  0  0  0  0  0  0  0  0  0  0
   11.8409  -17.7568   24.9428 C   0  0  0  0  0  0  0  0  0  0  0  0
   10.7172  -18.2928   24.9870 O   0  0  0  0  0  0  0  0  0  0  0  0
   12.8727  -18.3536   25.7068 O   0  0  0  0  0  0  0  0  0  0  0  0
  2  1  1  1
  3  2  1  0
  4  5  2  0
  4  3  1  0
  6  5  1  0
  7 12  2  0
  7  6  1  0
  8  7  1  0
  9 10  1  0
  9  8  2  0
 10 11  2  0
 11 12  1  0
 12  4  1  0
 13  2  1  0
 14 13  2  0
 16 15  1  0
 17 16  2  0
 19 18  1  6
 18 16  1  0
 19 20  1  0
 20 13  1  0
 21 19  1  0
 22 21  2  0
 23 21  1  0
 24 23  1  0
 24 25  1  1
 25 26  1  0
 26 31  1  0
 27 26  2  0
 27 28  1  0
 28 29  2  0
 29 30  1  0
 31 30  2  0
 32 34  1  0
 32 24  1  0
 33 32  2  0
M  END
$$$$
