WNF.pdb
     RDKit          3D

 34 36  0  0  1  0  0  0  0  0999 V2000
    8.2142  -18.6673   22.1844 N   0  0  0  0  0  0  0  0  0  0  0  0
    8.8562  -17.4084   22.3909 C   0  0  1  0  0  0  0  0  0  0  0  0
    7.9415  -16.3956   23.0775 C   0  0  0  0  0  0  0  0  0  0  0  0
    7.1924  -15.5631   22.1109 C   0  0  0  0  0  0  0  0  0  0  0  0
    5.9432  -15.8563   21.5819 C   0  0  0  0  0  0  0  0  0  0  0  0
    5.5793  -14.8690   20.7444 N   0  0  0  0  0  0  0  0  0  0  0  0
    6.5419  -13.9277   20.6956 C   0  0  0  0  0  0  0  0  0  0  0  0
    6.6284  -12.7358   19.9869 C   0  0  0  0  0  0  0  0  0  0  0  0
    7.7558  -11.9576   20.1377 C   0  0  0  0  0  0  0  0  0  0  0  0
    8.7598  -12.3753   20.9793 C   0  0  0  0  0  0  0  0  0  0  0  0
    8.6743  -13.5693   21.6903 C   0  0  0  0  0  0  0  0  0  0  0  0
    7.5465  -14.3507   21.5408 C   0  0  0  0  0  0  0  0  0  0  0  0
   10.1054  -17.5207   23.1850 C   0  0  0  0  0  0  0  0  0  0  0  0
   10.1339  -18.4750   24.0335 O   0  0  0  0  0  0  0  0  0  0  0  0
   15.2088  -17.8604   24.0953 N   0  0  0  0  0  0  0  0  0  0  0  0
   14.7784  -16.5165   24.1082 C   0  0  0  0  0  0  0  0  0  0  0  0
   15.3918  -15.6173   24.7612 O   0  0  0  0  0  0  0  0  0  0  0  0
   13.5678  -16.0860   23.3431 C   0  0  0  0  0  0  0  0  0  0  0  0
   12.4013  -16.8891   23.9054 C   0  0  2  0  0  0  0  0  0  0  0  0
   11.2252  -16.6755   23.0710 N   0  0  0  0  0  0  0  0  0  0  0  0
   12.1589  -16.4441   25.2982 C   0  0  0  0  0  0  0  0  0  0  0  0
   12.6449  -15.3459   25.6782 O   0  0  0  0  0  0  0  0  0  0  0  0
   11.3993  -17.2066   26.2212 N   0  0  0  0  0  0  0  0  0  0  0  0
   11.2679  -16.8490   27.6393 C   0  0  1  0  0  0  0  0  0  0  0  0
    9.8412  -16.6597   28.0128 C   0  0  0  0  0  0  0  0  0  0  0  0
    9.3087  -15.4125   27.4325 C   0  0  0  0  0  0  0  0  0  0  0  0
    9.7417  -14.1693   27.9134 C   0  0  0  0  0  0  0  0  0  0  0  0
    9.2880  -12.9932   27.3852 C   0  0  0  0  0  0  0  0  0  0  0  0
    8.3841  -12.9606   26.3562 C   0  0  0  0  0  0  0  0  0  0  0  0
    7.9355  -14.1679   25.8574 C   0  0  0  0  0  0  0  0  0  0  0  0
    8.3959  -15.3542   26.3925 C   0  0  0  0  0  0  0  0  0  0  0  0
   11.8800  -17.9200   28.4367 C   0  0  0  0  0  0  0  0  0  0  0  0
   12.0243  -17.8363   29.6712 O   0  0  0  0  0  0  0  0  0  0  0  0
   12.3351  -19.1058   27.8112 O   0  0  0  0  0  0  0  0  0  0  0  0
  2  1  1  1
  3  2  1  0
  4  5  2  0
  4  3  1  0
  6  5  1  0
  7 12  2  0
  7  6  1  0
  8  7  1  0
  9 10  1  0
  9  8  2  0
 10 11  2  0
 11 12  1  0
 12  4  1  0
 13  2  1  0
 14 13  2  0
 16 15  1  0
 17 16  2  0
 19 18  1  6
 18 16  1  0
 19 20  1  0
 20 13  1  0
 21 19  1  0
 22 21  2  0
 23 21  1  0
 24 23  1  0
 24 25  1  1
 25 26  1  0
 26 31  1  0
 27 26  2  0
 27 28  1  0
 28 29  2  0
 29 30  1  0
 31 30  2  0
 32 34  1  0
 32 24  1  0
 33 32  2  0
M  END
$$$$
