WNF.pdb
     RDKit          3D

 34 36  0  0  1  0  0  0  0  0999 V2000
    9.1287  -16.0669   24.8433 N   0  0  0  0  0  0  0  0  0  0  0  0
    8.2509  -17.1787   24.6617 C   0  0  1  0  0  0  0  0  0  0  0  0
    7.0539  -16.8352   23.7767 C   0  0  0  0  0  0  0  0  0  0  0  0
    6.8095  -15.3784   23.6955 C   0  0  0  0  0  0  0  0  0  0  0  0
    6.0152  -14.6376   24.5595 C   0  0  0  0  0  0  0  0  0  0  0  0
    6.0359  -13.3485   24.1771 N   0  0  0  0  0  0  0  0  0  0  0  0
    6.8156  -13.2032   23.0881 C   0  0  0  0  0  0  0  0  0  0  0  0
    7.1467  -12.0827   22.3363 C   0  0  0  0  0  0  0  0  0  0  0  0
    7.9846  -12.2377   21.2531 C   0  0  0  0  0  0  0  0  0  0  0  0
    8.4696  -13.4869   20.9449 C   0  0  0  0  0  0  0  0  0  0  0  0
    8.1389  -14.6105   21.6977 C   0  0  0  0  0  0  0  0  0  0  0  0
    7.2996  -14.4581   22.7827 C   0  0  0  0  0  0  0  0  0  0  0  0
    8.9323  -18.3640   24.0836 C   0  0  0  0  0  0  0  0  0  0  0  0
    8.3948  -18.8486   23.0310 O   0  0  0  0  0  0  0  0  0  0  0  0
   13.7884  -17.4026   23.7052 N   0  0  0  0  0  0  0  0  0  0  0  0
   12.6880  -16.8709   22.9995 C   0  0  0  0  0  0  0  0  0  0  0  0
   12.8320  -16.0392   22.0515 O   0  0  0  0  0  0  0  0  0  0  0  0
   11.2872  -17.2692   23.3392 C   0  0  0  0  0  0  0  0  0  0  0  0
   11.3997  -18.3560   24.4014 C   0  0  2  0  0  0  0  0  0  0  0  0
   10.0931  -18.9715   24.5984 N   0  0  0  0  0  0  0  0  0  0  0  0
   11.8938  -17.7339   25.6526 C   0  0  0  0  0  0  0  0  0  0  0  0
   12.8974  -18.2355   26.2251 O   0  0  0  0  0  0  0  0  0  0  0  0
   11.2808  -16.5938   26.2313 N   0  0  0  0  0  0  0  0  0  0  0  0
   10.8341  -16.5471   27.6293 C   0  0  1  0  0  0  0  0  0  0  0  0
    9.4033  -16.1532   27.7204 C   0  0  0  0  0  0  0  0  0  0  0  0
    9.2265  -14.7340   27.3593 C   0  0  0  0  0  0  0  0  0  0  0  0
   10.2888  -13.8314   27.5043 C   0  0  0  0  0  0  0  0  0  0  0  0
   10.1693  -12.5144   27.1587 C   0  0  0  0  0  0  0  0  0  0  0  0
    9.0053  -12.0000   26.6514 C   0  0  0  0  0  0  0  0  0  0  0  0
    7.9372  -12.8614   26.4951 C   0  0  0  0  0  0  0  0  0  0  0  0
    8.0610  -14.1913   26.8444 C   0  0  0  0  0  0  0  0  0  0  0  0
   11.0503  -17.8744   28.2201 C   0  0  0  0  0  0  0  0  0  0  0  0
   10.9837  -18.0798   29.4470 O   0  0  0  0  0  0  0  0  0  0  0  0
   11.3482  -18.9847   27.3936 O   0  0  0  0  0  0  0  0  0  0  0  0
  2  1  1  6
  3  2  1  0
  4  5  2  0
  4  3  1  0
  6  5  1  0
  7 12  2  0
  7  6  1  0
  8  7  1  0
  9 10  1  0
  9  8  2  0
 10 11  2  0
 11 12  1  0
 12  4  1  0
 13  2  1  0
 14 13  2  0
 16 15  1  0
 17 16  2  0
 19 18  1  6
 18 16  1  0
 19 20  1  0
 20 13  1  0
 21 19  1  0
 22 21  2  0
 23 21  1  0
 24 23  1  0
 24 25  1  6
 25 26  1  0
 26 31  1  0
 27 26  2  0
 27 28  1  0
 28 29  2  0
 29 30  1  0
 31 30  2  0
 32 34  1  0
 32 24  1  0
 33 32  2  0
M  END
$$$$
