WNF.pdb
     RDKit          3D

 34 36  0  0  1  0  0  0  0  0999 V2000
    6.2276  -19.6350   25.7545 N   0  0  0  0  0  0  0  0  0  0  0  0
    6.5718  -18.4088   25.1084 C   0  0  1  0  0  0  0  0  0  0  0  0
    7.6330  -17.6245   25.8783 C   0  0  0  0  0  0  0  0  0  0  0  0
    7.1353  -16.3150   26.3538 C   0  0  0  0  0  0  0  0  0  0  0  0
    5.8687  -16.0621   26.8616 C   0  0  0  0  0  0  0  0  0  0  0  0
    5.7818  -14.7622   27.1950 N   0  0  0  0  0  0  0  0  0  0  0  0
    6.9457  -14.1388   26.9269 C   0  0  0  0  0  0  0  0  0  0  0  0
    7.3419  -12.8177   27.0948 C   0  0  0  0  0  0  0  0  0  0  0  0
    8.6203  -12.4593   26.7253 C   0  0  0  0  0  0  0  0  0  0  0  0
    9.4667  -13.4095   26.2043 C   0  0  0  0  0  0  0  0  0  0  0  0
    9.0709  -14.7338   26.0359 C   0  0  0  0  0  0  0  0  0  0  0  0
    7.7910  -15.0953   26.4046 C   0  0  0  0  0  0  0  0  0  0  0  0
    7.0545  -18.6042   23.7183 C   0  0  0  0  0  0  0  0  0  0  0  0
    7.8729  -19.5705   23.5509 O   0  0  0  0  0  0  0  0  0  0  0  0
    3.8354  -17.7002   20.9574 N   0  0  0  0  0  0  0  0  0  0  0  0
    4.9892  -18.4307   20.6017 C   0  0  0  0  0  0  0  0  0  0  0  0
    5.0080  -19.6999   20.5904 O   0  0  0  0  0  0  0  0  0  0  0  0
    6.2554  -17.7349   20.2160 C   0  0  0  0  0  0  0  0  0  0  0  0
    7.2737  -18.0740   21.2975 C   0  0  2  0  0  0  0  0  0  0  0  0
    6.6843  -17.8235   22.6071 N   0  0  0  0  0  0  0  0  0  0  0  0
    8.4774  -17.2364   21.0820 C   0  0  0  0  0  0  0  0  0  0  0  0
    9.2153  -17.4773   20.0900 O   0  0  0  0  0  0  0  0  0  0  0  0
    8.8312  -16.1720   21.9494 N   0  0  0  0  0  0  0  0  0  0  0  0
   10.0881  -15.4228   21.8270 C   0  0  1  0  0  0  0  0  0  0  0  0
    9.8432  -13.9569   21.8728 C   0  0  0  0  0  0  0  0  0  0  0  0
    8.9728  -13.5361   20.7588 C   0  0  0  0  0  0  0  0  0  0  0  0
    7.7608  -12.8818   21.0185 C   0  0  0  0  0  0  0  0  0  0  0  0
    6.9397  -12.4571   20.0118 C   0  0  0  0  0  0  0  0  0  0  0  0
    7.2525  -12.6461   18.6915 C   0  0  0  0  0  0  0  0  0  0  0  0
    8.4398  -13.2879   18.3986 C   0  0  0  0  0  0  0  0  0  0  0  0
    9.2676  -13.7153   19.4174 C   0  0  0  0  0  0  0  0  0  0  0  0
   10.9742  -15.8398   22.9217 C   0  0  0  0  0  0  0  0  0  0  0  0
   10.5982  -16.5995   23.8346 O   0  0  0  0  0  0  0  0  0  0  0  0
   12.3121  -15.3795   22.9731 O   0  0  0  0  0  0  0  0  0  0  0  0
  2  1  1  1
  3  2  1  0
  4  5  2  0
  4  3  1  0
  6  5  1  0
  7 12  2  0
  7  6  1  0
  8  7  1  0
  9 10  1  0
  9  8  2  0
 10 11  2  0
 11 12  1  0
 12  4  1  0
 13  2  1  0
 14 13  2  0
 16 15  1  0
 17 16  2  0
 19 18  1  6
 18 16  1  0
 19 20  1  0
 20 13  1  0
 21 19  1  0
 22 21  2  0
 23 21  1  0
 24 23  1  0
 24 25  1  1
 25 26  1  0
 26 31  1  0
 27 26  2  0
 27 28  1  0
 28 29  2  0
 29 30  1  0
 31 30  2  0
 32 34  1  0
 32 24  1  0
 33 32  2  0
M  END
$$$$
