WNF.pdb
     RDKit          3D

 34 36  0  0  1  0  0  0  0  0999 V2000
    6.9568  -17.9710   22.8905 N   0  0  0  0  0  0  0  0  0  0  0  0
    7.9080  -17.0362   23.4016 C   0  0  1  0  0  0  0  0  0  0  0  0
    7.8038  -16.8712   24.9168 C   0  0  0  0  0  0  0  0  0  0  0  0
    6.7949  -15.8625   25.3084 C   0  0  0  0  0  0  0  0  0  0  0  0
    5.5396  -16.1303   25.8363 C   0  0  0  0  0  0  0  0  0  0  0  0
    4.9070  -14.9676   26.0737 N   0  0  0  0  0  0  0  0  0  0  0  0
    5.6958  -13.9335   25.7223 C   0  0  0  0  0  0  0  0  0  0  0  0
    5.4919  -12.5603   25.7776 C   0  0  0  0  0  0  0  0  0  0  0  0
    6.4974  -11.7248   25.3414 C   0  0  0  0  0  0  0  0  0  0  0  0
    7.6691  -12.2654   24.8662 C   0  0  0  0  0  0  0  0  0  0  0  0
    7.8748  -13.6413   24.8105 C   0  0  0  0  0  0  0  0  0  0  0  0
    6.8692  -14.4802   25.2464 C   0  0  0  0  0  0  0  0  0  0  0  0
    9.3087  -17.3968   23.0678 C   0  0  0  0  0  0  0  0  0  0  0  0
    9.5515  -18.6486   22.9925 O   0  0  0  0  0  0  0  0  0  0  0  0
   11.4288  -17.3063   19.9979 N   0  0  0  0  0  0  0  0  0  0  0  0
   12.0810  -16.1250   20.4110 C   0  0  0  0  0  0  0  0  0  0  0  0
   12.3401  -15.1795   19.6048 O   0  0  0  0  0  0  0  0  0  0  0  0
   12.4993  -15.9310   21.8336 C   0  0  0  0  0  0  0  0  0  0  0  0
   11.7212  -16.9560   22.6494 C   0  0  2  0  0  0  0  0  0  0  0  0
   10.3546  -16.4838   22.8355 N   0  0  0  0  0  0  0  0  0  0  0  0
   12.4090  -17.1341   23.9502 C   0  0  0  0  0  0  0  0  0  0  0  0
   13.5464  -17.6752   23.9668 O   0  0  0  0  0  0  0  0  0  0  0  0
   11.8368  -16.7177   25.1788 N   0  0  0  0  0  0  0  0  0  0  0  0
   12.3468  -17.1480   26.4868 C   0  0  1  0  0  0  0  0  0  0  0  0
   11.3498  -16.8921   27.5599 C   0  0  0  0  0  0  0  0  0  0  0  0
   11.1356  -15.4441   27.7417 C   0  0  0  0  0  0  0  0  0  0  0  0
   12.0636  -14.5244   27.2344 C   0  0  0  0  0  0  0  0  0  0  0  0
   11.8872  -13.1752   27.3636 C   0  0  0  0  0  0  0  0  0  0  0  0
   10.7945  -12.6434   27.9961 C   0  0  0  0  0  0  0  0  0  0  0  0
    9.8593  -13.5210   28.5085 C   0  0  0  0  0  0  0  0  0  0  0  0
   10.0398  -14.8832   28.3761 C   0  0  0  0  0  0  0  0  0  0  0  0
   12.6680  -18.5787   26.4011 C   0  0  0  0  0  0  0  0  0  0  0  0
   13.2202  -19.1975   27.3307 O   0  0  0  0  0  0  0  0  0  0  0  0
   12.3529  -19.3132   25.2325 O   0  0  0  0  0  0  0  0  0  0  0  0
  2  1  1  1
  3  2  1  0
  4  5  2  0
  4  3  1  0
  6  5  1  0
  7 12  2  0
  7  6  1  0
  8  7  1  0
  9 10  1  0
  9  8  2  0
 10 11  2  0
 11 12  1  0
 12  4  1  0
 13  2  1  0
 14 13  2  0
 16 15  1  0
 17 16  2  0
 19 18  1  6
 18 16  1  0
 19 20  1  0
 20 13  1  0
 21 19  1  0
 22 21  2  0
 23 21  1  0
 24 23  1  0
 24 25  1  1
 25 26  1  0
 26 31  1  0
 27 26  2  0
 27 28  1  0
 28 29  2  0
 29 30  1  0
 31 30  2  0
 32 34  1  0
 32 24  1  0
 33 32  2  0
M  END
$$$$
