WNF.pdb
     RDKit          3D

 34 36  0  0  1  0  0  0  0  0999 V2000
    7.0542  -18.7968   23.5497 N   0  0  0  0  0  0  0  0  0  0  0  0
    7.9156  -17.6654   23.6821 C   0  0  1  0  0  0  0  0  0  0  0  0
    7.6500  -16.8802   24.9655 C   0  0  0  0  0  0  0  0  0  0  0  0
    6.8545  -15.6561   24.7258 C   0  0  0  0  0  0  0  0  0  0  0  0
    5.6042  -15.6032   24.1257 C   0  0  0  0  0  0  0  0  0  0  0  0
    5.1917  -14.3240   24.0846 N   0  0  0  0  0  0  0  0  0  0  0  0
    6.1229  -13.5214   24.6357 C   0  0  0  0  0  0  0  0  0  0  0  0
    6.1567  -12.1452   24.8240 C   0  0  0  0  0  0  0  0  0  0  0  0
    7.2621  -11.5881   25.4300 C   0  0  0  0  0  0  0  0  0  0  0  0
    8.2965  -12.4005   25.8310 C   0  0  0  0  0  0  0  0  0  0  0  0
    8.2637  -13.7797   25.6431 C   0  0  0  0  0  0  0  0  0  0  0  0
    7.1581  -14.3401   25.0361 C   0  0  0  0  0  0  0  0  0  0  0  0
    9.3546  -18.0280   23.6477 C   0  0  0  0  0  0  0  0  0  0  0  0
    9.6974  -18.9922   24.4121 O   0  0  0  0  0  0  0  0  0  0  0  0
   12.1804  -19.0444   20.2726 N   0  0  0  0  0  0  0  0  0  0  0  0
   11.9580  -17.6993   20.6370 C   0  0  0  0  0  0  0  0  0  0  0  0
   11.2520  -16.9162   19.9302 O   0  0  0  0  0  0  0  0  0  0  0  0
   12.5491  -17.1300   21.8871 C   0  0  0  0  0  0  0  0  0  0  0  0
   11.7476  -17.7171   23.0424 C   0  0  2  0  0  0  0  0  0  0  0  0
   10.3363  -17.4031   22.8557 N   0  0  0  0  0  0  0  0  0  0  0  0
   12.2629  -17.1399   24.3065 C   0  0  0  0  0  0  0  0  0  0  0  0
   12.9702  -16.0989   24.2550 O   0  0  0  0  0  0  0  0  0  0  0  0
   11.9899  -17.7137   25.5740 N   0  0  0  0  0  0  0  0  0  0  0  0
   12.7840  -17.4208   26.7739 C   0  0  1  0  0  0  0  0  0  0  0  0
   12.8936  -15.9549   26.9977 C   0  0  0  0  0  0  0  0  0  0  0  0
   11.5937  -15.3882   27.4036 C   0  0  0  0  0  0  0  0  0  0  0  0
   10.6101  -15.1190   26.4421 C   0  0  0  0  0  0  0  0  0  0  0  0
    9.3861  -14.6154   26.7830 C   0  0  0  0  0  0  0  0  0  0  0  0
    9.0494  -14.3442   28.0830 C   0  0  0  0  0  0  0  0  0  0  0  0
    9.9950  -14.5974   29.0572 C   0  0  0  0  0  0  0  0  0  0  0  0
   11.2303  -15.1066   28.7100 C   0  0  0  0  0  0  0  0  0  0  0  0
   12.1382  -18.0780   27.9178 C   0  0  0  0  0  0  0  0  0  0  0  0
   12.5969  -18.0119   29.0742 O   0  0  0  0  0  0  0  0  0  0  0  0
   10.9485  -18.8236   27.7356 O   0  0  0  0  0  0  0  0  0  0  0  0
  2  1  1  1
  3  2  1  0
  4  5  2  0
  4  3  1  0
  6  5  1  0
  7 12  2  0
  7  6  1  0
  8  7  1  0
  9 10  1  0
  9  8  2  0
 10 11  2  0
 11 12  1  0
 12  4  1  0
 13  2  1  0
 14 13  2  0
 16 15  1  0
 17 16  2  0
 19 18  1  6
 18 16  1  0
 19 20  1  0
 20 13  1  0
 21 19  1  0
 22 21  2  0
 23 21  1  0
 24 23  1  0
 24 25  1  1
 25 26  1  0
 26 31  1  0
 27 26  2  0
 27 28  1  0
 28 29  2  0
 29 30  1  0
 31 30  2  0
 32 34  1  0
 32 24  1  0
 33 32  2  0
M  END
$$$$
