AII.pdb
     RDKit          3D

 22 21  0  0  1  0  0  0  0  0999 V2000
   12.5650  -16.4262   19.3572 C   0  0  0  0  0  0  0  0  0  0  0  0
   12.1346  -17.2693   20.5337 C   0  0  2  0  0  0  0  0  0  0  0  0
   11.3213  -18.3405   20.0375 N   0  0  0  0  0  0  0  0  0  0  0  0
   11.4594  -16.4554   21.5786 C   0  0  0  0  0  0  0  0  0  0  0  0
   12.1537  -15.5439   22.0971 O   0  0  0  0  0  0  0  0  0  0  0  0
    6.4386  -14.8694   20.8684 C   0  0  0  0  0  0  0  0  0  0  0  0
    7.9238  -14.8557   21.2193 C   0  0  0  0  0  0  0  0  0  0  0  0
    8.1230  -15.4923   22.5620 C   0  0  2  0  0  0  0  0  0  0  0  0
    7.3065  -14.8219   23.6448 C   0  0  0  0  0  0  0  0  0  0  0  0
    9.5482  -15.7017   22.9582 C   0  0  2  0  0  0  0  0  0  0  0  0
   10.1379  -16.6521   21.9931 N   0  0  0  0  0  0  0  0  0  0  0  0
    9.7582  -16.2827   24.3067 C   0  0  0  0  0  0  0  0  0  0  0  0
    9.8916  -17.5521   24.4309 O   0  0  0  0  0  0  0  0  0  0  0  0
    9.9446  -12.6542   28.7211 C   0  0  0  0  0  0  0  0  0  0  0  0
   10.3147  -13.6455   27.6302 C   0  0  0  0  0  0  0  0  0  0  0  0
    9.8233  -15.0141   27.9314 C   0  0  2  0  0  0  0  0  0  0  0  0
   10.6754  -15.5153   29.1155 C   0  0  0  0  0  0  0  0  0  0  0  0
   10.0765  -16.0290   26.8291 C   0  0  2  0  0  0  0  0  0  0  0  0
    9.8295  -15.5319   25.5034 N   0  0  0  0  0  0  0  0  0  0  0  0
    9.3386  -17.2536   27.0852 C   0  0  0  0  0  0  0  0  0  0  0  0
    8.0915  -17.3010   26.8089 O   0  0  0  0  0  0  0  0  0  0  0  0
    9.8994  -18.3931   27.6164 O   0  0  0  0  0  0  0  0  0  0  0  0
  2  1  1  6
  3  2  1  0
  4  2  1  0
  4  5  2  0
  7  6  1  0
  7  8  1  0
  8 10  1  0
  8  9  1  1
 10 11  1  6
 10 12  1  0
 11  4  1  0
 12 19  1  0
 13 12  2  0
 14 15  1  0
 16 17  1  1
 16 18  1  0
 16 15  1  0
 18 20  1  0
 18 19  1  6
 20 21  2  0
 20 22  1  0
M  END
$$$$
