AII.pdb
     RDKit          3D

 22 21  0  0  1  0  0  0  0  0999 V2000
    9.8931  -19.2156   21.5537 C   0  0  0  0  0  0  0  0  0  0  0  0
    9.9849  -18.1399   20.4979 C   0  0  2  0  0  0  0  0  0  0  0  0
   11.2048  -18.3353   19.7707 N   0  0  0  0  0  0  0  0  0  0  0  0
    9.8627  -16.7792   21.0841 C   0  0  0  0  0  0  0  0  0  0  0  0
   10.9415  -16.2316   21.4279 O   0  0  0  0  0  0  0  0  0  0  0  0
    7.1228  -12.7268   19.0956 C   0  0  0  0  0  0  0  0  0  0  0  0
    8.1839  -13.5827   19.7814 C   0  0  0  0  0  0  0  0  0  0  0  0
    7.7430  -13.8945   21.1801 C   0  0  2  0  0  0  0  0  0  0  0  0
    7.3644  -12.6521   21.9558 C   0  0  0  0  0  0  0  0  0  0  0  0
    8.6545  -14.7983   21.9446 C   0  0  2  0  0  0  0  0  0  0  0  0
    8.6480  -16.1087   21.2626 N   0  0  0  0  0  0  0  0  0  0  0  0
    8.2682  -15.0526   23.3539 C   0  0  0  0  0  0  0  0  0  0  0  0
    7.1917  -15.7034   23.6035 O   0  0  0  0  0  0  0  0  0  0  0  0
    6.2660  -11.9506   26.3145 C   0  0  0  0  0  0  0  0  0  0  0  0
    7.3120  -12.8251   25.6429 C   0  0  0  0  0  0  0  0  0  0  0  0
    7.6684  -14.0038   26.4728 C   0  0  2  0  0  0  0  0  0  0  0  0
    8.3327  -13.4371   27.7444 C   0  0  0  0  0  0  0  0  0  0  0  0
    8.7299  -14.9037   25.8625 C   0  0  2  0  0  0  0  0  0  0  0  0
    9.0112  -14.6283   24.4803 N   0  0  0  0  0  0  0  0  0  0  0  0
    8.3930  -16.3014   26.0696 C   0  0  0  0  0  0  0  0  0  0  0  0
    7.5318  -16.6108   26.9620 O   0  0  0  0  0  0  0  0  0  0  0  0
    8.9477  -17.3404   25.3569 O   0  0  0  0  0  0  0  0  0  0  0  0
  2  1  1  1
  3  2  1  0
  4  2  1  0
  4  5  2  0
  7  6  1  0
  7  8  1  0
  8 10  1  0
  8  9  1  1
 10 11  1  6
 10 12  1  0
 11  4  1  0
 12 19  1  0
 13 12  2  0
 14 15  1  0
 16 17  1  1
 16 18  1  0
 16 15  1  0
 18 20  1  0
 18 19  1  6
 20 21  2  0
 20 22  1  0
M  END
$$$$
