AII.pdb
     RDKit          3D

 22 21  0  0  1  0  0  0  0  0999 V2000
    5.8501  -18.7532   23.2799 C   0  0  0  0  0  0  0  0  0  0  0  0
    6.0886  -18.4326   21.8237 C   0  0  2  0  0  0  0  0  0  0  0  0
    6.3054  -19.6670   21.1277 N   0  0  0  0  0  0  0  0  0  0  0  0
    7.1965  -17.4571   21.6474 C   0  0  0  0  0  0  0  0  0  0  0  0
    8.3469  -17.9504   21.5246 O   0  0  0  0  0  0  0  0  0  0  0  0
    6.5783  -12.6927   19.1189 C   0  0  0  0  0  0  0  0  0  0  0  0
    7.2305  -14.0168   19.5066 C   0  0  0  0  0  0  0  0  0  0  0  0
    7.7753  -13.9132   20.8995 C   0  0  2  0  0  0  0  0  0  0  0  0
    8.8135  -12.8210   21.0328 C   0  0  0  0  0  0  0  0  0  0  0  0
    8.2151  -15.2062   21.5052 C   0  0  2  0  0  0  0  0  0  0  0  0
    7.0213  -16.0696   21.6137 N   0  0  0  0  0  0  0  0  0  0  0  0
    8.7935  -15.1101   22.8676 C   0  0  0  0  0  0  0  0  0  0  0  0
   10.0596  -14.9581   23.0043 O   0  0  0  0  0  0  0  0  0  0  0  0
    6.7398  -11.9273   27.6030 C   0  0  0  0  0  0  0  0  0  0  0  0
    7.7306  -12.9978   27.1760 C   0  0  0  0  0  0  0  0  0  0  0  0
    7.4351  -13.5199   25.8175 C   0  0  2  0  0  0  0  0  0  0  0  0
    6.0732  -14.2355   25.9295 C   0  0  0  0  0  0  0  0  0  0  0  0
    8.3901  -14.6003   25.3385 C   0  0  2  0  0  0  0  0  0  0  0  0
    8.0436  -15.1701   24.0654 N   0  0  0  0  0  0  0  0  0  0  0  0
    8.5507  -15.6252   26.3552 C   0  0  0  0  0  0  0  0  0  0  0  0
    8.0504  -16.7848   26.1577 O   0  0  0  0  0  0  0  0  0  0  0  0
    9.2185  -15.4325   27.5435 O   0  0  0  0  0  0  0  0  0  0  0  0
  2  1  1  1
  3  2  1  0
  4  2  1  0
  4  5  2  0
  7  6  1  0
  7  8  1  0
  8 10  1  0
  8  9  1  6
 10 11  1  1
 10 12  1  0
 11  4  1  0
 12 19  1  0
 13 12  2  0
 14 15  1  0
 16 17  1  1
 16 18  1  0
 16 15  1  0
 18 20  1  0
 18 19  1  6
 20 21  2  0
 20 22  1  0
M  END
$$$$
