AII.pdb
     RDKit          3D

 22 21  0  0  1  0  0  0  0  0999 V2000
    5.9631  -19.4287   25.3659 C   0  0  0  0  0  0  0  0  0  0  0  0
    5.2244  -18.2767   24.7276 C   0  0  2  0  0  0  0  0  0  0  0  0
    4.5945  -18.7607   23.5343 N   0  0  0  0  0  0  0  0  0  0  0  0
    6.1175  -17.1125   24.4891 C   0  0  0  0  0  0  0  0  0  0  0  0
    6.6428  -17.0494   23.3480 O   0  0  0  0  0  0  0  0  0  0  0  0
    5.7553  -12.2273   27.0574 C   0  0  0  0  0  0  0  0  0  0  0  0
    5.8922  -13.2609   25.9430 C   0  0  0  0  0  0  0  0  0  0  0  0
    7.2074  -13.9676   26.0798 C   0  0  2  0  0  0  0  0  0  0  0  0
    8.3772  -13.0087   26.1067 C   0  0  0  0  0  0  0  0  0  0  0  0
    7.4151  -15.1070   25.1359 C   0  0  2  0  0  0  0  0  0  0  0  0
    6.3879  -16.1238   25.4411 N   0  0  0  0  0  0  0  0  0  0  0  0
    8.7286  -15.7887   25.2358 C   0  0  0  0  0  0  0  0  0  0  0  0
    8.9669  -16.5512   26.2391 O   0  0  0  0  0  0  0  0  0  0  0  0
   11.3010  -16.7897   20.2842 C   0  0  0  0  0  0  0  0  0  0  0  0
   10.6294  -16.8949   21.6435 C   0  0  0  0  0  0  0  0  0  0  0  0
   11.5368  -16.4868   22.7460 C   0  0  2  0  0  0  0  0  0  0  0  0
   12.6467  -17.5569   22.7945 C   0  0  0  0  0  0  0  0  0  0  0  0
   10.9068  -16.5346   24.1280 C   0  0  2  0  0  0  0  0  0  0  0  0
    9.7711  -15.6684   24.2874 N   0  0  0  0  0  0  0  0  0  0  0  0
   11.9080  -16.2947   25.1525 C   0  0  0  0  0  0  0  0  0  0  0  0
   12.6055  -17.2743   25.5859 O   0  0  0  0  0  0  0  0  0  0  0  0
   12.1654  -15.0593   25.7028 O   0  0  0  0  0  0  0  0  0  0  0  0
  2  1  1  6
  3  2  1  0
  4  2  1  0
  4  5  2  0
  7  6  1  0
  7  8  1  0
  8 10  1  0
  8  9  1  6
 10 11  1  1
 10 12  1  0
 11  4  1  0
 12 19  1  0
 13 12  2  0
 14 15  1  0
 16 17  1  1
 16 18  1  0
 16 15  1  0
 18 20  1  0
 18 19  1  6
 20 21  2  0
 20 22  1  0
M  END
$$$$
