AII.pdb
     RDKit          3D

 22 21  0  0  1  0  0  0  0  0999 V2000
    8.2542  -17.5736   21.2440 C   0  0  0  0  0  0  0  0  0  0  0  0
    8.0683  -16.0757   21.2020 C   0  0  2  0  0  0  0  0  0  0  0  0
    8.7419  -15.5777   20.0387 N   0  0  0  0  0  0  0  0  0  0  0  0
    8.5175  -15.4280   22.4625 C   0  0  0  0  0  0  0  0  0  0  0  0
    9.7053  -15.0149   22.4734 O   0  0  0  0  0  0  0  0  0  0  0  0
    5.2633  -12.2621   25.4228 C   0  0  0  0  0  0  0  0  0  0  0  0
    6.4124  -12.8595   24.6156 C   0  0  0  0  0  0  0  0  0  0  0  0
    7.1326  -13.8738   25.4524 C   0  0  2  0  0  0  0  0  0  0  0  0
    7.5122  -13.3337   26.8136 C   0  0  0  0  0  0  0  0  0  0  0  0
    8.2652  -14.5689   24.7695 C   0  0  2  0  0  0  0  0  0  0  0  0
    7.7080  -15.2651   23.5918 N   0  0  0  0  0  0  0  0  0  0  0  0
    8.9647  -15.5973   25.5776 C   0  0  0  0  0  0  0  0  0  0  0  0
    8.5836  -16.8198   25.5064 O   0  0  0  0  0  0  0  0  0  0  0  0
   11.2131  -14.7393   30.7418 C   0  0  0  0  0  0  0  0  0  0  0  0
   10.6826  -14.7687   29.3179 C   0  0  0  0  0  0  0  0  0  0  0  0
   11.5033  -15.6368   28.4357 C   0  0  2  0  0  0  0  0  0  0  0  0
   12.5108  -14.6975   27.7415 C   0  0  0  0  0  0  0  0  0  0  0  0
   10.7339  -16.2757   27.2917 C   0  0  2  0  0  0  0  0  0  0  0  0
   10.0522  -15.3366   26.4438 N   0  0  0  0  0  0  0  0  0  0  0  0
    9.8292  -17.2953   27.7932 C   0  0  0  0  0  0  0  0  0  0  0  0
    8.5722  -17.0633   27.8066 O   0  0  0  0  0  0  0  0  0  0  0  0
   10.2381  -18.5219   28.2660 O   0  0  0  0  0  0  0  0  0  0  0  0
  2  1  1  1
  3  2  1  0
  4  2  1  0
  4  5  2  0
  7  6  1  0
  7  8  1  0
  8 10  1  0
  8  9  1  1
 10 11  1  6
 10 12  1  0
 11  4  1  0
 12 19  1  0
 13 12  2  0
 14 15  1  0
 16 17  1  6
 16 18  1  0
 16 15  1  0
 18 20  1  0
 18 19  1  1
 20 21  2  0
 20 22  1  0
M  END
$$$$
