HPF.pdb
     RDKit          3D

 29 31  0  0  1  0  0  0  0  0999 V2000
   23.5177  -18.8919  -17.8518 N   0  0  0  0  0  0  0  0  0  0  0  0
   24.4044  -18.2888  -16.8848 C   0  0  1  0  0  0  0  0  0  0  0  0
   23.6146  -17.1546  -16.2044 C   0  0  0  0  0  0  0  0  0  0  0  0
   23.2061  -16.1184  -17.2172 C   0  0  0  0  0  0  0  0  0  0  0  0
   24.0309  -15.1227  -17.7126 C   0  0  0  0  0  0  0  0  0  0  0  0
   23.2990  -14.4181  -18.5739 N   0  0  0  0  0  0  0  0  0  0  0  0
   22.0489  -14.9165  -18.6515 C   0  0  0  0  0  0  0  0  0  0  0  0
   22.0123  -15.9710  -17.8024 N   0  0  0  0  0  0  0  0  0  0  0  0
   25.0092  -19.1789  -15.9102 C   0  0  0  0  0  0  0  0  0  0  0  0
   24.2159  -19.6575  -15.0259 O   0  0  0  0  0  0  0  0  0  0  0  0
   26.4113  -19.5663  -15.8523 N   0  0  0  0  0  0  0  0  0  0  0  0
   27.2716  -19.5716  -17.0114 C   0  0  0  0  0  0  0  0  0  0  0  0
   28.6714  -19.6502  -16.4670 C   0  0  0  0  0  0  0  0  0  0  0  0
   28.5635  -19.4927  -14.9850 C   0  0  0  0  0  0  0  0  0  0  0  0
   27.1378  -20.0174  -14.7257 C   0  0  1  0  0  0  0  0  0  0  0  0
   26.7610  -19.4960  -13.4074 C   0  0  0  0  0  0  0  0  0  0  0  0
   26.6209  -18.3109  -13.0560 O   0  0  0  0  0  0  0  0  0  0  0  0
   26.5156  -20.4683  -12.3680 N   0  0  0  0  0  0  0  0  0  0  0  0
   26.2783  -20.0779  -10.9795 C   0  0  1  0  0  0  0  0  0  0  0  0
   25.0008  -19.2714  -11.0103 C   0  0  0  0  0  0  0  0  0  0  0  0
   23.8121  -20.0191  -11.4279 C   0  0  0  0  0  0  0  0  0  0  0  0
   22.8722  -20.4097  -10.5031 C   0  0  0  0  0  0  0  0  0  0  0  0
   21.7380  -21.1109  -10.8598 C   0  0  0  0  0  0  0  0  0  0  0  0
   21.5439  -21.4292  -12.1863 C   0  0  0  0  0  0  0  0  0  0  0  0
   22.4940  -21.0334  -13.1112 C   0  0  0  0  0  0  0  0  0  0  0  0
   23.6221  -20.3345  -12.7498 C   0  0  0  0  0  0  0  0  0  0  0  0
   26.0915  -21.3066  -10.1982 C   0  0  0  0  0  0  0  0  0  0  0  0
   25.9031  -21.3066   -8.8235 O   0  0  0  0  0  0  0  0  0  0  0  0
   26.1002  -22.4199  -10.7916 O   0  0  0  0  0  0  0  0  0  0  0  0
  2  1  1  6
  2  3  1  0
  3  4  1  0
  4  5  2  0
  5  6  1  0
  7  6  1  0
  8  4  1  0
  8  7  2  0
  9 10  2  0
  9  2  1  0
 11  9  1  0
 12 11  1  0
 13 14  1  0
 13 12  1  0
 14 15  1  0
 15 11  1  0
 15 16  1  1
 17 16  2  0
 18 16  1  0
 19 18  1  0
 19 20  1  6
 21 20  1  0
 21 22  2  0
 23 22  1  0
 24 23  2  0
 25 26  2  0
 25 24  1  0
 26 21  1  0
 27 19  1  0
 28 27  1  0
 29 27  2  0
M  END
$$$$
