HPF.pdb
     RDKit          3D

 29 31  0  0  1  0  0  0  0  0999 V2000
   17.7422  -11.0221  -18.2199 N   0  0  0  0  0  0  0  0  0  0  0  0
   17.6324   -9.5835  -18.2785 C   0  0  1  0  0  0  0  0  0  0  0  0
   16.3772   -9.2005  -17.4716 C   0  0  0  0  0  0  0  0  0  0  0  0
   15.1338   -9.6586  -18.1860 C   0  0  0  0  0  0  0  0  0  0  0  0
   14.2864  -10.6604  -17.7436 C   0  0  0  0  0  0  0  0  0  0  0  0
   13.3167  -10.7644  -18.6507 N   0  0  0  0  0  0  0  0  0  0  0  0
   13.5047   -9.8778  -19.6485 C   0  0  0  0  0  0  0  0  0  0  0  0
   14.6372   -9.2016  -19.3409 N   0  0  0  0  0  0  0  0  0  0  0  0
   18.7938   -8.8228  -17.8542 C   0  0  0  0  0  0  0  0  0  0  0  0
   19.2307   -9.0831  -16.6787 O   0  0  0  0  0  0  0  0  0  0  0  0
   19.4906   -7.8098  -18.6337 N   0  0  0  0  0  0  0  0  0  0  0  0
   19.4320   -7.7519  -20.0749 C   0  0  0  0  0  0  0  0  0  0  0  0
   19.9436   -6.3852  -20.4389 C   0  0  0  0  0  0  0  0  0  0  0  0
   20.0994   -5.6317  -19.1580 C   0  0  0  0  0  0  0  0  0  0  0  0
   20.3329   -6.7790  -18.1558 C   0  0  1  0  0  0  0  0  0  0  0  0
   20.0465   -6.2105  -16.8343 C   0  0  0  0  0  0  0  0  0  0  0  0
   18.9547   -5.8266  -16.3779 O   0  0  0  0  0  0  0  0  0  0  0  0
   21.1633   -6.0703  -15.9293 N   0  0  0  0  0  0  0  0  0  0  0  0
   21.0156   -5.4851  -14.5980 C   0  0  1  0  0  0  0  0  0  0  0  0
   20.4457   -6.5925  -13.7424 C   0  0  0  0  0  0  0  0  0  0  0  0
   21.2893   -7.7859  -13.6399 C   0  0  0  0  0  0  0  0  0  0  0  0
   22.2432   -7.8843  -12.6541 C   0  0  0  0  0  0  0  0  0  0  0  0
   23.0528   -8.9946  -12.5237 C   0  0  0  0  0  0  0  0  0  0  0  0
   22.8988  -10.0368  -13.4118 C   0  0  0  0  0  0  0  0  0  0  0  0
   21.9374   -9.9306  -14.4014 C   0  0  0  0  0  0  0  0  0  0  0  0
   21.1332   -8.8218  -14.5262 C   0  0  0  0  0  0  0  0  0  0  0  0
   22.3542   -5.1089  -14.1269 C   0  0  0  0  0  0  0  0  0  0  0  0
   23.5086   -5.3538  -14.8568 O   0  0  0  0  0  0  0  0  0  0  0  0
   22.4742   -4.5359  -13.0095 O   0  0  0  0  0  0  0  0  0  0  0  0
  2  1  1  1
  2  3  1  0
  3  4  1  0
  4  5  2  0
  5  6  1  0
  7  6  1  0
  8  4  1  0
  8  7  2  0
  9 10  2  0
  9  2  1  0
 11  9  1  0
 12 11  1  0
 13 14  1  0
 13 12  1  0
 14 15  1  0
 15 11  1  0
 15 16  1  1
 17 16  2  0
 18 16  1  0
 19 18  1  0
 19 20  1  1
 21 20  1  0
 21 22  2  0
 23 22  1  0
 24 23  2  0
 25 26  2  0
 25 24  1  0
 26 21  1  0
 27 19  1  0
 28 27  1  0
 29 27  2  0
M  END
$$$$
