HPF.pdb
     RDKit          3D

 29 31  0  0  1  0  0  0  0  0999 V2000
   27.5084  -21.1433  -16.5628 N   0  0  0  0  0  0  0  0  0  0  0  0
   27.7888  -20.3277  -15.4047 C   0  0  1  0  0  0  0  0  0  0  0  0
   26.9556  -19.0406  -15.5553 C   0  0  0  0  0  0  0  0  0  0  0  0
   27.4630  -18.2189  -16.7101 C   0  0  0  0  0  0  0  0  0  0  0  0
   28.5504  -18.5471  -17.5020 C   0  0  0  0  0  0  0  0  0  0  0  0
   28.6732  -17.5715  -18.4003 N   0  0  0  0  0  0  0  0  0  0  0  0
   27.7171  -16.6385  -18.2197 C   0  0  0  0  0  0  0  0  0  0  0  0
   26.9768  -17.0594  -17.1664 N   0  0  0  0  0  0  0  0  0  0  0  0
   27.5875  -20.9464  -14.1069 C   0  0  0  0  0  0  0  0  0  0  0  0
   26.3953  -21.3427  -13.8581 O   0  0  0  0  0  0  0  0  0  0  0  0
   28.6033  -21.1509  -13.0843 N   0  0  0  0  0  0  0  0  0  0  0  0
   29.9950  -21.3746  -13.3956 C   0  0  0  0  0  0  0  0  0  0  0  0
   30.7318  -21.1532  -12.1033 C   0  0  0  0  0  0  0  0  0  0  0  0
   29.7345  -20.6161  -11.1288 C   0  0  0  0  0  0  0  0  0  0  0  0
   28.4211  -21.2021  -11.6827 C   0  0  1  0  0  0  0  0  0  0  0  0
   27.3501  -20.3896  -11.0957 C   0  0  0  0  0  0  0  0  0  0  0  0
   27.0557  -19.2058  -11.3396 O   0  0  0  0  0  0  0  0  0  0  0  0
   26.5168  -21.0282  -10.1039 N   0  0  0  0  0  0  0  0  0  0  0  0
   25.4951  -20.2948   -9.3590 C   0  0  1  0  0  0  0  0  0  0  0  0
   24.1994  -21.0129   -9.6569 C   0  0  0  0  0  0  0  0  0  0  0  0
   23.6633  -20.7811  -11.0004 C   0  0  0  0  0  0  0  0  0  0  0  0
   23.8799  -21.6939  -12.0059 C   0  0  0  0  0  0  0  0  0  0  0  0
   23.3867  -21.5118  -13.2822 C   0  0  0  0  0  0  0  0  0  0  0  0
   22.6542  -20.3771  -13.5553 C   0  0  0  0  0  0  0  0  0  0  0  0
   22.4406  -19.4627  -12.5389 C   0  0  0  0  0  0  0  0  0  0  0  0
   22.9343  -19.6499  -11.2689 C   0  0  0  0  0  0  0  0  0  0  0  0
   25.8243  -20.3996   -7.9322 C   0  0  0  0  0  0  0  0  0  0  0  0
   25.1897  -19.6487   -6.9531 O   0  0  0  0  0  0  0  0  0  0  0  0
   26.7231  -21.2057   -7.5662 O   0  0  0  0  0  0  0  0  0  0  0  0
  2  1  1  6
  2  3  1  0
  3  4  1  0
  4  5  2  0
  5  6  1  0
  7  6  1  0
  8  4  1  0
  8  7  2  0
  9 10  2  0
  9  2  1  0
 11  9  1  0
 12 11  1  0
 13 14  1  0
 13 12  1  0
 14 15  1  0
 15 11  1  0
 15 16  1  6
 17 16  2  0
 18 16  1  0
 19 18  1  0
 19 20  1  1
 21 20  1  0
 21 22  2  0
 23 22  1  0
 24 23  2  0
 25 26  2  0
 25 24  1  0
 26 21  1  0
 27 19  1  0
 28 27  1  0
 29 27  2  0
M  END
$$$$
