HPF.pdb
     RDKit          3D

 29 31  0  0  1  0  0  0  0  0999 V2000
   22.2624  -13.6778  -16.8216 N   0  0  0  0  0  0  0  0  0  0  0  0
   23.0973  -12.6492  -17.3959 C   0  0  1  0  0  0  0  0  0  0  0  0
   22.4858  -12.2931  -18.7643 C   0  0  0  0  0  0  0  0  0  0  0  0
   22.3971  -13.5184  -19.6345 C   0  0  0  0  0  0  0  0  0  0  0  0
   23.4762  -14.1527  -20.2264 C   0  0  0  0  0  0  0  0  0  0  0  0
   22.9816  -15.1829  -20.9105 N   0  0  0  0  0  0  0  0  0  0  0  0
   21.6407  -15.2360  -20.7828 C   0  0  0  0  0  0  0  0  0  0  0  0
   21.2983  -14.1948  -19.9871 N   0  0  0  0  0  0  0  0  0  0  0  0
   23.3233  -11.4652  -16.5866 C   0  0  0  0  0  0  0  0  0  0  0  0
   22.2924  -10.7388  -16.3629 O   0  0  0  0  0  0  0  0  0  0  0  0
   24.5949  -11.0406  -16.0192 N   0  0  0  0  0  0  0  0  0  0  0  0
   25.6860  -11.9526  -15.7711 C   0  0  0  0  0  0  0  0  0  0  0  0
   26.8930  -11.0804  -15.5605 C   0  0  0  0  0  0  0  0  0  0  0  0
   26.4746   -9.6843  -15.8902 C   0  0  0  0  0  0  0  0  0  0  0  0
   24.9627   -9.7419  -15.5970 C   0  0  1  0  0  0  0  0  0  0  0  0
   24.3815   -8.5957  -16.3042 C   0  0  0  0  0  0  0  0  0  0  0  0
   24.2328   -8.4376  -17.5291 O   0  0  0  0  0  0  0  0  0  0  0  0
   23.9141   -7.4972  -15.4913 N   0  0  0  0  0  0  0  0  0  0  0  0
   23.3036   -6.3040  -16.0746 C   0  0  1  0  0  0  0  0  0  0  0  0
   22.0223   -6.7890  -16.7119 C   0  0  0  0  0  0  0  0  0  0  0  0
   21.0369   -7.3325  -15.7739 C   0  0  0  0  0  0  0  0  0  0  0  0
   21.0069   -8.6788  -15.4947 C   0  0  0  0  0  0  0  0  0  0  0  0
   20.0964   -9.2261  -14.6133 C   0  0  0  0  0  0  0  0  0  0  0  0
   19.1886   -8.3943  -13.9947 C   0  0  0  0  0  0  0  0  0  0  0  0
   19.2244   -7.0408  -14.2807 C   0  0  0  0  0  0  0  0  0  0  0  0
   20.1342   -6.5012  -15.1597 C   0  0  0  0  0  0  0  0  0  0  0  0
   23.0117   -5.3729  -14.9778 C   0  0  0  0  0  0  0  0  0  0  0  0
   22.5444   -4.0831  -15.1858 O   0  0  0  0  0  0  0  0  0  0  0  0
   23.1890   -5.7504  -13.7871 O   0  0  0  0  0  0  0  0  0  0  0  0
  2  1  1  1
  2  3  1  0
  3  4  1  0
  4  5  2  0
  5  6  1  0
  7  6  1  0
  8  4  1  0
  8  7  2  0
  9 10  2  0
  9  2  1  0
 11  9  1  0
 12 11  1  0
 13 14  1  0
 13 12  1  0
 14 15  1  0
 15 11  1  0
 15 16  1  6
 17 16  2  0
 18 16  1  0
 19 18  1  0
 19 20  1  1
 21 20  1  0
 21 22  2  0
 23 22  1  0
 24 23  2  0
 25 26  2  0
 25 24  1  0
 26 21  1  0
 27 19  1  0
 28 27  1  0
 29 27  2  0
M  END
$$$$
