HPF.pdb
     RDKit          3D

 29 31  0  0  1  0  0  0  0  0999 V2000
   25.7843  -18.4559  -15.7354 N   0  0  0  0  0  0  0  0  0  0  0  0
   26.1652  -18.1315  -14.3809 C   0  0  1  0  0  0  0  0  0  0  0  0
   25.4151  -16.8393  -14.0056 C   0  0  0  0  0  0  0  0  0  0  0  0
   25.6995  -15.7562  -15.0118 C   0  0  0  0  0  0  0  0  0  0  0  0
   26.9617  -15.3796  -15.4388 C   0  0  0  0  0  0  0  0  0  0  0  0
   26.7860  -14.3952  -16.3186 N   0  0  0  0  0  0  0  0  0  0  0  0
   25.4740  -14.1269  -16.4731 C   0  0  0  0  0  0  0  0  0  0  0  0
   24.8173  -14.9824  -15.6538 N   0  0  0  0  0  0  0  0  0  0  0  0
   25.9750  -19.1693  -13.3836 C   0  0  0  0  0  0  0  0  0  0  0  0
   24.9641  -19.0205  -12.6113 O   0  0  0  0  0  0  0  0  0  0  0  0
   26.8173  -20.3406  -13.1891 N   0  0  0  0  0  0  0  0  0  0  0  0
   27.5627  -20.9567  -14.2609 C   0  0  0  0  0  0  0  0  0  0  0  0
   28.5628  -21.8539  -13.5850 C   0  0  0  0  0  0  0  0  0  0  0  0
   28.4747  -21.5663  -12.1213 C   0  0  0  0  0  0  0  0  0  0  0  0
   27.0210  -21.0705  -11.9950 C   0  0  1  0  0  0  0  0  0  0  0  0
   26.9633  -20.3426  -10.7227 C   0  0  0  0  0  0  0  0  0  0  0  0
   27.6658  -19.3876  -10.3460 O   0  0  0  0  0  0  0  0  0  0  0  0
   25.9680  -20.7744   -9.7695 N   0  0  0  0  0  0  0  0  0  0  0  0
   26.2930  -21.0247   -8.3665 C   0  0  1  0  0  0  0  0  0  0  0  0
   27.0717  -19.8092   -7.9200 C   0  0  0  0  0  0  0  0  0  0  0  0
   27.5801  -19.8752   -6.5477 C   0  0  0  0  0  0  0  0  0  0  0  0
   27.6024  -18.7507   -5.7563 C   0  0  0  0  0  0  0  0  0  0  0  0
   28.0696  -18.7756   -4.4576 C   0  0  0  0  0  0  0  0  0  0  0  0
   28.5288  -19.9671   -3.9399 C   0  0  0  0  0  0  0  0  0  0  0  0
   28.5039  -21.0944   -4.7421 C   0  0  0  0  0  0  0  0  0  0  0  0
   28.0368  -21.0635   -6.0353 C   0  0  0  0  0  0  0  0  0  0  0  0
   25.0281  -21.1244   -7.6282 C   0  0  0  0  0  0  0  0  0  0  0  0
   24.9420  -21.6393   -6.3426 O   0  0  0  0  0  0  0  0  0  0  0  0
   23.9635  -20.7267   -8.1760 O   0  0  0  0  0  0  0  0  0  0  0  0
  2  1  1  6
  2  3  1  0
  3  4  1  0
  4  5  2  0
  5  6  1  0
  7  6  1  0
  8  4  1  0
  8  7  2  0
  9 10  2  0
  9  2  1  0
 11  9  1  0
 12 11  1  0
 13 14  1  0
 13 12  1  0
 14 15  1  0
 15 11  1  0
 15 16  1  1
 17 16  2  0
 18 16  1  0
 19 18  1  0
 19 20  1  1
 21 20  1  0
 21 22  2  0
 23 22  1  0
 24 23  2  0
 25 26  2  0
 25 24  1  0
 26 21  1  0
 27 19  1  0
 28 27  1  0
 29 27  2  0
M  END
$$$$
