HPF.pdb
     RDKit          3D

 29 31  0  0  1  0  0  0  0  0999 V2000
   21.1787  -20.8708  -15.3121 N   0  0  0  0  0  0  0  0  0  0  0  0
   20.3478  -19.7107  -15.5331 C   0  0  1  0  0  0  0  0  0  0  0  0
   19.4157  -19.5926  -14.3122 C   0  0  0  0  0  0  0  0  0  0  0  0
   18.6017  -20.8486  -14.1498 C   0  0  0  0  0  0  0  0  0  0  0  0
   17.2721  -20.9862  -14.5108 C   0  0  0  0  0  0  0  0  0  0  0  0
   16.9235  -22.2345  -14.2041 N   0  0  0  0  0  0  0  0  0  0  0  0
   17.9659  -22.8986  -13.6660 C   0  0  0  0  0  0  0  0  0  0  0  0
   18.9972  -22.0209  -13.6415 N   0  0  0  0  0  0  0  0  0  0  0  0
   21.0329  -18.4601  -15.8060 C   0  0  0  0  0  0  0  0  0  0  0  0
   21.8293  -18.0504  -14.8905 O   0  0  0  0  0  0  0  0  0  0  0  0
   20.8952  -17.6477  -17.0061 N   0  0  0  0  0  0  0  0  0  0  0  0
   20.3537  -18.1606  -18.2420 C   0  0  0  0  0  0  0  0  0  0  0  0
   20.0355  -16.9465  -19.0707 C   0  0  0  0  0  0  0  0  0  0  0  0
   20.2350  -15.7597  -18.1849 C   0  0  0  0  0  0  0  0  0  0  0  0
   21.2770  -16.2976  -17.1848 C   0  0  1  0  0  0  0  0  0  0  0  0
   21.2079  -15.4015  -16.0255 C   0  0  0  0  0  0  0  0  0  0  0  0
   20.3736  -15.3943  -15.1027 O   0  0  0  0  0  0  0  0  0  0  0  0
   22.2326  -14.3891  -15.9225 N   0  0  0  0  0  0  0  0  0  0  0  0
   22.2373  -13.3947  -14.8511 C   0  0  1  0  0  0  0  0  0  0  0  0
   23.3381  -13.8322  -13.9129 C   0  0  0  0  0  0  0  0  0  0  0  0
   24.6296  -14.0850  -14.5566 C   0  0  0  0  0  0  0  0  0  0  0  0
   24.9943  -15.3624  -14.9126 C   0  0  0  0  0  0  0  0  0  0  0  0
   26.2004  -15.6383  -15.5247 C   0  0  0  0  0  0  0  0  0  0  0  0
   27.0657  -14.5982  -15.7859 C   0  0  0  0  0  0  0  0  0  0  0  0
   26.6923  -13.3157  -15.4245 C   0  0  0  0  0  0  0  0  0  0  0  0
   25.4890  -13.0469  -14.8151 C   0  0  0  0  0  0  0  0  0  0  0  0
   22.5609  -12.0951  -15.4524 C   0  0  0  0  0  0  0  0  0  0  0  0
   23.0576  -11.9615  -16.7411 O   0  0  0  0  0  0  0  0  0  0  0  0
   22.3835  -11.0441  -14.7775 O   0  0  0  0  0  0  0  0  0  0  0  0
  2  1  1  1
  2  3  1  0
  3  4  1  0
  4  5  2  0
  5  6  1  0
  7  6  1  0
  8  4  1  0
  8  7  2  0
  9 10  2  0
  9  2  1  0
 11  9  1  0
 12 11  1  0
 13 14  1  0
 13 12  1  0
 14 15  1  0
 15 11  1  0
 15 16  1  1
 17 16  2  0
 18 16  1  0
 19 18  1  0
 19 20  1  1
 21 20  1  0
 21 22  2  0
 23 22  1  0
 24 23  2  0
 25 26  2  0
 25 24  1  0
 26 21  1  0
 27 19  1  0
 28 27  1  0
 29 27  2  0
M  END
$$$$
