HPF.pdb
     RDKit          3D

 29 31  0  0  1  0  0  0  0  0999 V2000
   22.2213  -20.8261  -14.4267 N   0  0  0  0  0  0  0  0  0  0  0  0
   22.2709  -20.2196  -13.1172 C   0  0  1  0  0  0  0  0  0  0  0  0
   20.8161  -20.1135  -12.6213 C   0  0  0  0  0  0  0  0  0  0  0  0
   19.9863  -19.3198  -13.5949 C   0  0  0  0  0  0  0  0  0  0  0  0
   18.9866  -19.8425  -14.3978 C   0  0  0  0  0  0  0  0  0  0  0  0
   18.5025  -18.8263  -15.1100 N   0  0  0  0  0  0  0  0  0  0  0  0
   19.1446  -17.6824  -14.7996 C   0  0  0  0  0  0  0  0  0  0  0  0
   20.0609  -18.0104  -13.8576 N   0  0  0  0  0  0  0  0  0  0  0  0
   23.1258  -20.8597  -12.1338 C   0  0  0  0  0  0  0  0  0  0  0  0
   22.7088  -20.8197  -10.9235 O   0  0  0  0  0  0  0  0  0  0  0  0
   24.3910  -21.5292  -12.3992 N   0  0  0  0  0  0  0  0  0  0  0  0
   24.7232  -22.0963  -13.6844 C   0  0  0  0  0  0  0  0  0  0  0  0
   26.2084  -22.3301  -13.6437 C   0  0  0  0  0  0  0  0  0  0  0  0
   26.7062  -21.7000  -12.3835 C   0  0  0  0  0  0  0  0  0  0  0  0
   25.4504  -21.7667  -11.4927 C   0  0  1  0  0  0  0  0  0  0  0  0
   25.6755  -20.7889  -10.4226 C   0  0  0  0  0  0  0  0  0  0  0  0
   25.0396  -19.7473  -10.1809 O   0  0  0  0  0  0  0  0  0  0  0  0
   26.7726  -21.0509   -9.5208 N   0  0  0  0  0  0  0  0  0  0  0  0
   27.6640  -19.9910   -9.0532 C   0  0  1  0  0  0  0  0  0  0  0  0
   26.9417  -19.3546   -7.8884 C   0  0  0  0  0  0  0  0  0  0  0  0
   27.4831  -19.6940   -6.5702 C   0  0  0  0  0  0  0  0  0  0  0  0
   28.6439  -19.1096   -6.1204 C   0  0  0  0  0  0  0  0  0  0  0  0
   29.1813  -19.4010   -4.8828 C   0  0  0  0  0  0  0  0  0  0  0  0
   28.5319  -20.3078   -4.0737 C   0  0  0  0  0  0  0  0  0  0  0  0
   27.3647  -20.8923   -4.5330 C   0  0  0  0  0  0  0  0  0  0  0  0
   26.8339  -20.5977   -5.7671 C   0  0  0  0  0  0  0  0  0  0  0  0
   28.9091  -20.6243   -8.6017 C   0  0  0  0  0  0  0  0  0  0  0  0
   29.0800  -22.0002   -8.5462 O   0  0  0  0  0  0  0  0  0  0  0  0
   29.8755  -19.8957   -8.2456 O   0  0  0  0  0  0  0  0  0  0  0  0
  2  1  1  6
  2  3  1  0
  3  4  1  0
  4  5  2  0
  5  6  1  0
  7  6  1  0
  8  4  1  0
  8  7  2  0
  9 10  2  0
  9  2  1  0
 11  9  1  0
 12 11  1  0
 13 14  1  0
 13 12  1  0
 14 15  1  0
 15 11  1  0
 15 16  1  1
 17 16  2  0
 18 16  1  0
 19 18  1  0
 19 20  1  1
 21 20  1  0
 21 22  2  0
 23 22  1  0
 24 23  2  0
 25 26  2  0
 25 24  1  0
 26 21  1  0
 27 19  1  0
 28 27  1  0
 29 27  2  0
M  END
$$$$
