HPF.pdb
     RDKit          3D

 29 31  0  0  1  0  0  0  0  0999 V2000
   20.6455  -12.3496  -20.1042 N   0  0  0  0  0  0  0  0  0  0  0  0
   19.5289  -11.4619  -19.8798 C   0  0  1  0  0  0  0  0  0  0  0  0
   18.4648  -11.8102  -20.9379 C   0  0  0  0  0  0  0  0  0  0  0  0
   19.0268  -11.6385  -22.3239 C   0  0  0  0  0  0  0  0  0  0  0  0
   19.0796  -10.4413  -23.0175 C   0  0  0  0  0  0  0  0  0  0  0  0
   19.6382  -10.7105  -24.1962 N   0  0  0  0  0  0  0  0  0  0  0  0
   19.9441  -12.0202  -24.2870 C   0  0  0  0  0  0  0  0  0  0  0  0
   19.5569  -12.5778  -23.1150 N   0  0  0  0  0  0  0  0  0  0  0  0
   18.9671  -11.4460  -18.5412 C   0  0  0  0  0  0  0  0  0  0  0  0
   18.5534  -12.5741  -18.0977 O   0  0  0  0  0  0  0  0  0  0  0  0
   18.8355  -10.2819  -17.6770 N   0  0  0  0  0  0  0  0  0  0  0  0
   19.6624   -9.1066  -17.8139 C   0  0  0  0  0  0  0  0  0  0  0  0
   18.9666   -8.0363  -17.0187 C   0  0  0  0  0  0  0  0  0  0  0  0
   17.6458   -8.6004  -16.6062 C   0  0  0  0  0  0  0  0  0  0  0  0
   17.9523  -10.1106  -16.5857 C   0  0  1  0  0  0  0  0  0  0  0  0
   16.6469  -10.7771  -16.6430 C   0  0  0  0  0  0  0  0  0  0  0  0
   15.8721  -10.8777  -17.6111 O   0  0  0  0  0  0  0  0  0  0  0  0
   16.1822  -11.4056  -15.4286 N   0  0  0  0  0  0  0  0  0  0  0  0
   14.8766  -12.0571  -15.3414 C   0  0  1  0  0  0  0  0  0  0  0  0
   15.0938  -13.4486  -15.8890 C   0  0  0  0  0  0  0  0  0  0  0  0
   15.7584  -14.3744  -14.9684 C   0  0  0  0  0  0  0  0  0  0  0  0
   17.1201  -14.5582  -15.0250 C   0  0  0  0  0  0  0  0  0  0  0  0
   17.7812  -15.4181  -14.1713 C   0  0  0  0  0  0  0  0  0  0  0  0
   17.0506  -16.1144  -13.2331 C   0  0  0  0  0  0  0  0  0  0  0  0
   15.6808  -15.9247  -13.1823 C   0  0  0  0  0  0  0  0  0  0  0  0
   15.0276  -15.0662  -14.0354 C   0  0  0  0  0  0  0  0  0  0  0  0
   14.5031  -12.1157  -13.9229 C   0  0  0  0  0  0  0  0  0  0  0  0
   13.2191  -12.4166  -13.4914 O   0  0  0  0  0  0  0  0  0  0  0  0
   15.3801  -11.8843  -13.0461 O   0  0  0  0  0  0  0  0  0  0  0  0
  2  1  1  1
  2  3  1  0
  3  4  1  0
  4  5  2  0
  5  6  1  0
  7  6  1  0
  8  4  1  0
  8  7  2  0
  9 10  2  0
  9  2  1  0
 11  9  1  0
 12 11  1  0
 13 14  1  0
 13 12  1  0
 14 15  1  0
 15 11  1  0
 15 16  1  6
 17 16  2  0
 18 16  1  0
 19 18  1  0
 19 20  1  1
 21 20  1  0
 21 22  2  0
 23 22  1  0
 24 23  2  0
 25 26  2  0
 25 24  1  0
 26 21  1  0
 27 19  1  0
 28 27  1  0
 29 27  2  0
M  END
$$$$
