TVV.pdb
     RDKit          3D

 22 21  0  0  1  0  0  0  0  0999 V2000
    6.3354  -17.0051   22.2613 C   0  0  0  0  0  0  0  0  0  0  0  0
    7.4602  -16.3888   21.4553 C   0  0  1  0  0  0  0  0  0  0  0  0
    7.1277  -16.6077   20.1005 O   0  0  0  0  0  0  0  0  0  0  0  0
    7.4603  -14.8879   21.6456 C   0  0  2  0  0  0  0  0  0  0  0  0
    8.0908  -14.2323   20.5286 N   0  0  0  0  0  0  0  0  0  0  0  0
    8.1282  -14.4779   22.8901 C   0  0  0  0  0  0  0  0  0  0  0  0
    9.3827  -14.3471   22.9850 O   0  0  0  0  0  0  0  0  0  0  0  0
    6.4551  -11.8003   25.4268 C   0  0  0  0  0  0  0  0  0  0  0  0
    6.8796  -13.0585   26.0918 C   0  0  2  0  0  0  0  0  0  0  0  0
    7.4202  -12.7461   27.4704 C   0  0  0  0  0  0  0  0  0  0  0  0
    7.8944  -13.8572   25.3132 C   0  0  2  0  0  0  0  0  0  0  0  0
    7.3395  -14.2151   24.0409 N   0  0  0  0  0  0  0  0  0  0  0  0
    8.3757  -15.0411   26.0457 C   0  0  0  0  0  0  0  0  0  0  0  0
    7.5644  -15.9829   26.2657 O   0  0  0  0  0  0  0  0  0  0  0  0
   11.2498  -17.3584   25.1300 C   0  0  0  0  0  0  0  0  0  0  0  0
   11.3830  -16.9800   26.5899 C   0  0  1  0  0  0  0  0  0  0  0  0
   12.5970  -16.1566   26.8411 C   0  0  0  0  0  0  0  0  0  0  0  0
   10.1119  -16.3885   27.1352 C   0  0  2  0  0  0  0  0  0  0  0  0
    9.7100  -15.1756   26.5175 N   0  0  0  0  0  0  0  0  0  0  0  0
   10.2504  -16.2096   28.6171 C   0  0  0  0  0  0  0  0  0  0  0  0
   10.4164  -17.3098   29.4275 O   0  0  0  0  0  0  0  0  0  0  0  0
   10.2126  -15.0619   29.0911 O   0  0  0  0  0  0  0  0  0  0  0  0
  2  1  1  1
  2  4  1  0
  3  2  1  0
  4  5  1  6
  4  6  1  0
  6  7  2  0
  6 12  1  0
  9  8  1  6
  9 11  1  0
 10  9  1  0
 11 13  1  0
 11 12  1  6
 13 14  2  0
 13 19  1  0
 16 15  1  6
 17 16  1  0
 18 16  1  0
 18 20  1  0
 18 19  1  6
 20 21  1  0
 22 20  2  0
M  END
$$$$
