TVV.pdb
     RDKit          3D

 22 21  0  0  1  0  0  0  0  0999 V2000
   11.3831  -19.5437   22.4595 C   0  0  0  0  0  0  0  0  0  0  0  0
   12.3119  -18.6173   21.7020 C   0  0  1  0  0  0  0  0  0  0  0  0
   12.8164  -19.3759   20.6231 O   0  0  0  0  0  0  0  0  0  0  0  0
   11.5137  -17.4920   21.0810 C   0  0  2  0  0  0  0  0  0  0  0  0
   12.2961  -16.7984   20.0900 N   0  0  0  0  0  0  0  0  0  0  0  0
   11.0288  -16.5274   22.0797 C   0  0  0  0  0  0  0  0  0  0  0  0
   11.7969  -15.7367   22.6998 O   0  0  0  0  0  0  0  0  0  0  0  0
    7.3410  -14.7873   21.5942 C   0  0  0  0  0  0  0  0  0  0  0  0
    7.5965  -15.3553   22.9424 C   0  0  2  0  0  0  0  0  0  0  0  0
    6.9305  -14.4911   23.9913 C   0  0  0  0  0  0  0  0  0  0  0  0
    9.0575  -15.5277   23.2738 C   0  0  2  0  0  0  0  0  0  0  0  0
    9.6397  -16.4735   22.3676 N   0  0  0  0  0  0  0  0  0  0  0  0
    9.2849  -15.9127   24.6773 C   0  0  0  0  0  0  0  0  0  0  0  0
    9.3165  -17.1411   24.9662 O   0  0  0  0  0  0  0  0  0  0  0  0
   10.3177  -14.8780   29.4106 C   0  0  0  0  0  0  0  0  0  0  0  0
    9.7969  -14.3605   28.0866 C   0  0  1  0  0  0  0  0  0  0  0  0
   10.4655  -13.0932   27.6844 C   0  0  0  0  0  0  0  0  0  0  0  0
    9.8036  -15.4262   27.0249 C   0  0  2  0  0  0  0  0  0  0  0  0
    9.4707  -14.9683   25.7235 N   0  0  0  0  0  0  0  0  0  0  0  0
    8.8947  -16.5421   27.4442 C   0  0  0  0  0  0  0  0  0  0  0  0
    9.3960  -17.5971   28.1726 O   0  0  0  0  0  0  0  0  0  0  0  0
    7.6953  -16.4942   27.1241 O   0  0  0  0  0  0  0  0  0  0  0  0
  2  1  1  1
  2  4  1  0
  3  2  1  0
  4  5  1  6
  4  6  1  0
  6  7  2  0
  6 12  1  0
  9  8  1  6
  9 11  1  0
 10  9  1  0
 11 13  1  0
 11 12  1  6
 13 14  2  0
 13 19  1  0
 16 15  1  1
 17 16  1  0
 18 16  1  0
 18 20  1  0
 18 19  1  6
 20 21  1  0
 22 20  2  0
M  END
$$$$
