TVV.pdb
     RDKit          3D

 22 21  0  0  1  0  0  0  0  0999 V2000
    6.7162  -17.1181   20.5752 C   0  0  0  0  0  0  0  0  0  0  0  0
    7.3059  -16.6525   21.8906 C   0  0  1  0  0  0  0  0  0  0  0  0
    8.5232  -17.3531   22.0361 O   0  0  0  0  0  0  0  0  0  0  0  0
    7.6780  -15.1893   21.7925 C   0  0  2  0  0  0  0  0  0  0  0  0
    8.5609  -14.9614   20.6773 N   0  0  0  0  0  0  0  0  0  0  0  0
    8.3077  -14.6846   23.0220 C   0  0  0  0  0  0  0  0  0  0  0  0
    9.5582  -14.5379   23.1425 O   0  0  0  0  0  0  0  0  0  0  0  0
    6.5159  -11.8542   25.2899 C   0  0  0  0  0  0  0  0  0  0  0  0
    6.9540  -13.0397   26.0697 C   0  0  2  0  0  0  0  0  0  0  0  0
    7.4609  -12.5961   27.4250 C   0  0  0  0  0  0  0  0  0  0  0  0
    8.0005  -13.8797   25.3819 C   0  0  2  0  0  0  0  0  0  0  0  0
    7.4849  -14.3443   24.1277 N   0  0  0  0  0  0  0  0  0  0  0  0
    8.4792  -14.9950   26.2166 C   0  0  0  0  0  0  0  0  0  0  0  0
    7.6928  -15.9558   26.4447 O   0  0  0  0  0  0  0  0  0  0  0  0
   11.4355  -17.2503   25.5625 C   0  0  0  0  0  0  0  0  0  0  0  0
   11.5087  -16.7855   27.0015 C   0  0  1  0  0  0  0  0  0  0  0  0
   12.6863  -15.9078   27.2419 C   0  0  0  0  0  0  0  0  0  0  0  0
   10.2018  -16.2082   27.4726 C   0  0  2  0  0  0  0  0  0  0  0  0
    9.7841  -15.0430   26.7784 N   0  0  0  0  0  0  0  0  0  0  0  0
   10.2834  -15.9480   28.9466 C   0  0  0  0  0  0  0  0  0  0  0  0
   10.4135  -17.0021   29.8222 O   0  0  0  0  0  0  0  0  0  0  0  0
   10.2318  -14.7759   29.3548 O   0  0  0  0  0  0  0  0  0  0  0  0
  2  1  1  6
  2  4  1  0
  3  2  1  0
  4  5  1  6
  4  6  1  0
  6  7  2  0
  6 12  1  0
  9  8  1  6
  9 11  1  0
 10  9  1  0
 11 13  1  0
 11 12  1  6
 13 14  2  0
 13 19  1  0
 16 15  1  6
 17 16  1  0
 18 16  1  0
 18 20  1  0
 18 19  1  6
 20 21  1  0
 22 20  2  0
M  END
$$$$
