TVV.pdb
     RDKit          3D

 22 21  0  0  1  0  0  0  0  0999 V2000
   10.2842  -18.8347   20.1568 C   0  0  0  0  0  0  0  0  0  0  0  0
   10.1425  -18.0140   21.4221 C   0  0  1  0  0  0  0  0  0  0  0  0
   11.3631  -18.1630   22.1163 O   0  0  0  0  0  0  0  0  0  0  0  0
   10.0422  -16.5463   21.0687 C   0  0  2  0  0  0  0  0  0  0  0  0
   11.1504  -16.1443   20.2407 N   0  0  0  0  0  0  0  0  0  0  0  0
    9.9860  -15.6830   22.2581 C   0  0  0  0  0  0  0  0  0  0  0  0
   10.9812  -15.0231   22.6750 O   0  0  0  0  0  0  0  0  0  0  0  0
    6.6520  -13.5542   23.2062 C   0  0  0  0  0  0  0  0  0  0  0  0
    7.1700  -14.3918   24.3178 C   0  0  2  0  0  0  0  0  0  0  0  0
    6.9732  -13.6681   25.6323 C   0  0  0  0  0  0  0  0  0  0  0  0
    8.6154  -14.7943   24.1667 C   0  0  2  0  0  0  0  0  0  0  0  0
    8.7661  -15.5789   22.9767 N   0  0  0  0  0  0  0  0  0  0  0  0
    9.1404  -15.4986   25.3491 C   0  0  0  0  0  0  0  0  0  0  0  0
    9.5412  -16.6877   25.2118 O   0  0  0  0  0  0  0  0  0  0  0  0
   11.2499  -15.2923   29.8110 C   0  0  0  0  0  0  0  0  0  0  0  0
   10.3239  -14.6204   28.8194 C   0  0  1  0  0  0  0  0  0  0  0  0
   10.7849  -13.2490   28.4709 C   0  0  0  0  0  0  0  0  0  0  0  0
   10.0417  -15.4979   27.6305 C   0  0  2  0  0  0  0  0  0  0  0  0
    9.2182  -14.9047   26.6384 N   0  0  0  0  0  0  0  0  0  0  0  0
    9.4534  -16.7924   28.1049 C   0  0  0  0  0  0  0  0  0  0  0  0
   10.2825  -17.8260   28.4777 O   0  0  0  0  0  0  0  0  0  0  0  0
    8.2176  -16.9102   28.1535 O   0  0  0  0  0  0  0  0  0  0  0  0
  2  1  1  6
  2  4  1  0
  3  2  1  0
  4  5  1  6
  4  6  1  0
  6  7  2  0
  6 12  1  0
  9  8  1  6
  9 11  1  0
 10  9  1  0
 11 13  1  0
 11 12  1  6
 13 14  2  0
 13 19  1  0
 16 15  1  1
 17 16  1  0
 18 16  1  0
 18 20  1  0
 18 19  1  6
 20 21  1  0
 22 20  2  0
M  END
$$$$
