TVV.pdb
     RDKit          3D

 22 21  0  0  1  0  0  0  0  0999 V2000
    6.5388  -17.0204   22.6327 C   0  0  0  0  0  0  0  0  0  0  0  0
    7.4251  -16.3505   21.6030 C   0  0  1  0  0  0  0  0  0  0  0  0
    6.8274  -16.6137   20.3511 O   0  0  0  0  0  0  0  0  0  0  0  0
    7.3695  -14.8493   21.7824 C   0  0  2  0  0  0  0  0  0  0  0  0
    7.9480  -14.1782   20.6466 N   0  0  0  0  0  0  0  0  0  0  0  0
    8.0483  -14.4029   23.0083 C   0  0  0  0  0  0  0  0  0  0  0  0
    9.3003  -14.2378   23.0785 O   0  0  0  0  0  0  0  0  0  0  0  0
    6.3275  -11.7019   25.4995 C   0  0  0  0  0  0  0  0  0  0  0  0
    6.8007  -12.9314   26.1850 C   0  0  2  0  0  0  0  0  0  0  0  0
    7.3402  -12.5736   27.5530 C   0  0  0  0  0  0  0  0  0  0  0  0
    7.8371  -13.7091   25.4136 C   0  0  2  0  0  0  0  0  0  0  0  0
    7.2735  -14.1433   24.1692 N   0  0  0  0  0  0  0  0  0  0  0  0
    8.3928  -14.8383   26.1790 C   0  0  0  0  0  0  0  0  0  0  0  0
    7.6347  -15.8095   26.4536 O   0  0  0  0  0  0  0  0  0  0  0  0
   11.4412  -16.9883   25.2767 C   0  0  0  0  0  0  0  0  0  0  0  0
   11.5391  -16.5676   26.7278 C   0  0  1  0  0  0  0  0  0  0  0  0
   12.6849  -15.6473   26.9625 C   0  0  0  0  0  0  0  0  0  0  0  0
   10.2241  -16.0639   27.2568 C   0  0  2  0  0  0  0  0  0  0  0  0
    9.7420  -14.8884   26.6242 N   0  0  0  0  0  0  0  0  0  0  0  0
   10.3359  -15.8625   28.7380 C   0  0  0  0  0  0  0  0  0  0  0  0
   10.5323  -16.9460   29.5639 O   0  0  0  0  0  0  0  0  0  0  0  0
   10.2486  -14.7116   29.1973 O   0  0  0  0  0  0  0  0  0  0  0  0
  2  1  1  1
  2  4  1  0
  3  2  1  0
  4  5  1  6
  4  6  1  0
  6  7  2  0
  6 12  1  0
  9  8  1  6
  9 11  1  0
 10  9  1  0
 11 13  1  0
 11 12  1  6
 13 14  2  0
 13 19  1  0
 16 15  1  6
 17 16  1  0
 18 16  1  0
 18 20  1  0
 18 19  1  6
 20 21  1  0
 22 20  2  0
M  END
$$$$
