TVV.pdb
     RDKit          3D

 22 21  0  0  1  0  0  0  0  0999 V2000
   12.7246  -19.0250   22.8080 C   0  0  0  0  0  0  0  0  0  0  0  0
   13.3864  -18.0446   21.8617 C   0  0  1  0  0  0  0  0  0  0  0  0
   13.9723  -18.8281   20.8435 O   0  0  0  0  0  0  0  0  0  0  0  0
   12.3305  -17.2015   21.1812 C   0  0  2  0  0  0  0  0  0  0  0  0
   12.9068  -16.4289   20.1106 N   0  0  0  0  0  0  0  0  0  0  0  0
   11.6418  -16.2988   22.1159 C   0  0  0  0  0  0  0  0  0  0  0  0
   12.1426  -15.2063   22.5100 O   0  0  0  0  0  0  0  0  0  0  0  0
    7.7884  -15.3368   21.9033 C   0  0  0  0  0  0  0  0  0  0  0  0
    8.1496  -15.9456   23.2088 C   0  0  2  0  0  0  0  0  0  0  0  0
    7.3388  -15.2994   24.3113 C   0  0  0  0  0  0  0  0  0  0  0  0
    9.6184  -15.8685   23.5415 C   0  0  2  0  0  0  0  0  0  0  0  0
   10.3582  -16.6601   22.6030 N   0  0  0  0  0  0  0  0  0  0  0  0
    9.9124  -16.2610   24.9305 C   0  0  0  0  0  0  0  0  0  0  0  0
   10.2006  -17.4672   25.1662 O   0  0  0  0  0  0  0  0  0  0  0  0
   11.3167  -13.5605   27.9389 C   0  0  0  0  0  0  0  0  0  0  0  0
   10.3887  -14.6883   28.3378 C   0  0  1  0  0  0  0  0  0  0  0  0
    9.0525  -14.1852   28.7575 C   0  0  0  0  0  0  0  0  0  0  0  0
   10.3412  -15.7721   27.2957 C   0  0  2  0  0  0  0  0  0  0  0  0
    9.8876  -15.3477   26.0196 N   0  0  0  0  0  0  0  0  0  0  0  0
    9.5057  -16.9071   27.8061 C   0  0  0  0  0  0  0  0  0  0  0  0
   10.0196  -17.7648   28.7522 O   0  0  0  0  0  0  0  0  0  0  0  0
    8.3547  -17.0546   27.3624 O   0  0  0  0  0  0  0  0  0  0  0  0
  2  1  1  1
  2  4  1  0
  3  2  1  0
  4  5  1  6
  4  6  1  0
  6  7  2  0
  6 12  1  0
  9  8  1  6
  9 11  1  0
 10  9  1  0
 11 13  1  0
 11 12  1  6
 13 14  2  0
 13 19  1  0
 16 15  1  6
 17 16  1  0
 18 16  1  0
 18 20  1  0
 18 19  1  6
 20 21  1  0
 22 20  2  0
M  END
$$$$
