VKA.pdb
     RDKit          3D

 22 21  0  0  1  0  0  0  0  0999 V2000
   23.1212  -18.9235  -16.1203 C   0  0  0  0  0  0  0  0  0  0  0  0
   22.0008  -19.7684  -15.6085 C   0  0  2  0  0  0  0  0  0  0  0  0
   20.8057  -18.9627  -15.1473 C   0  0  0  0  0  0  0  0  0  0  0  0
   22.4529  -20.7401  -14.5386 C   0  0  2  0  0  0  0  0  0  0  0  0
   23.5278  -21.5283  -15.1166 N   0  0  0  0  0  0  0  0  0  0  0  0
   21.3204  -21.6255  -14.1713 C   0  0  0  0  0  0  0  0  0  0  0  0
   20.7997  -22.3600  -15.0332 O   0  0  0  0  0  0  0  0  0  0  0  0
   20.8034  -21.6594  -12.8390 N   0  0  0  0  0  0  0  0  0  0  0  0
   19.7655  -22.5500  -12.4234 C   0  0  1  0  0  0  0  0  0  0  0  0
   19.9385  -22.8783  -10.9481 C   0  0  0  0  0  0  0  0  0  0  0  0
   18.9106  -23.8337  -10.4577 C   0  0  0  0  0  0  0  0  0  0  0  0
   19.1384  -24.1574   -9.0105 C   0  0  0  0  0  0  0  0  0  0  0  0
   18.1728  -25.1757   -8.4871 C   0  0  0  0  0  0  0  0  0  0  0  0
   18.4311  -25.4362   -7.0701 N   0  0  0  0  0  0  0  0  0  0  0  0
   18.4524  -21.9210  -12.6815 C   0  0  0  0  0  0  0  0  0  0  0  0
   18.1948  -20.7856  -12.2274 O   0  0  0  0  0  0  0  0  0  0  0  0
   15.8156  -22.4683  -15.1877 C   0  0  0  0  0  0  0  0  0  0  0  0
   16.1967  -21.9563  -13.8136 C   0  0  2  0  0  0  0  0  0  0  0  0
   17.4387  -22.5753  -13.4493 N   0  0  0  0  0  0  0  0  0  0  0  0
   15.1710  -22.2349  -12.8033 C   0  0  0  0  0  0  0  0  0  0  0  0
   14.0402  -21.4410  -12.6213 O   0  0  0  0  0  0  0  0  0  0  0  0
   15.2868  -23.2330  -12.0461 O   0  0  0  0  0  0  0  0  0  0  0  0
  2  3  1  1
  2  1  1  0
  4  2  1  0
  4  6  1  0
  4  5  1  6
  6  7  2  0
  8  6  1  0
  8  9  1  0
  9 10  1  1
 10 11  1  0
 12 11  1  0
 13 12  1  0
 14 13  1  0
 15 19  1  0
 15  9  1  0
 16 15  2  0
 18 17  1  6
 18 20  1  0
 18 19  1  0
 20 21  1  0
 22 20  2  0
M  END
$$$$
