VKA.pdb
     RDKit          3D

 22 21  0  0  1  0  0  0  0  0999 V2000
   16.9900  -18.4333  -13.3660 C   0  0  0  0  0  0  0  0  0  0  0  0
   18.4216  -18.1174  -13.6523 C   0  0  2  0  0  0  0  0  0  0  0  0
   18.6124  -17.2806  -14.8987 C   0  0  0  0  0  0  0  0  0  0  0  0
   19.2904  -19.3573  -13.6861 C   0  0  2  0  0  0  0  0  0  0  0  0
   19.1388  -20.0096  -12.3967 N   0  0  0  0  0  0  0  0  0  0  0  0
   20.7055  -18.9580  -13.8851 C   0  0  0  0  0  0  0  0  0  0  0  0
   21.3428  -18.4371  -12.9492 O   0  0  0  0  0  0  0  0  0  0  0  0
   21.3663  -19.1570  -15.1370 N   0  0  0  0  0  0  0  0  0  0  0  0
   22.7282  -18.7917  -15.3713 C   0  0  1  0  0  0  0  0  0  0  0  0
   23.4604  -19.9536  -16.0256 C   0  0  0  0  0  0  0  0  0  0  0  0
   23.6698  -21.0888  -15.0888 C   0  0  0  0  0  0  0  0  0  0  0  0
   24.3456  -22.2318  -15.7872 C   0  0  0  0  0  0  0  0  0  0  0  0
   24.6258  -23.3838  -14.8722 C   0  0  0  0  0  0  0  0  0  0  0  0
   25.1891  -24.5041  -15.6271 N   0  0  0  0  0  0  0  0  0  0  0  0
   22.7683  -17.5848  -16.2249 C   0  0  0  0  0  0  0  0  0  0  0  0
   22.0038  -17.4797  -17.2078 O   0  0  0  0  0  0  0  0  0  0  0  0
   24.6542  -14.3393  -16.0500 C   0  0  0  0  0  0  0  0  0  0  0  0
   23.6997  -15.2953  -16.7360 C   0  0  2  0  0  0  0  0  0  0  0  0
   23.6693  -16.5050  -15.9653 N   0  0  0  0  0  0  0  0  0  0  0  0
   24.0863  -15.5813  -18.1213 C   0  0  0  0  0  0  0  0  0  0  0  0
   23.6864  -14.8010  -19.2044 O   0  0  0  0  0  0  0  0  0  0  0  0
   24.8152  -16.5736  -18.3802 O   0  0  0  0  0  0  0  0  0  0  0  0
  2  3  1  6
  2  1  1  0
  4  2  1  0
  4  6  1  0
  4  5  1  1
  6  7  2  0
  8  6  1  0
  8  9  1  0
  9 10  1  6
 10 11  1  0
 12 11  1  0
 13 12  1  0
 14 13  1  0
 15 19  1  0
 15  9  1  0
 16 15  2  0
 18 17  1  1
 18 20  1  0
 18 19  1  0
 20 21  1  0
 22 20  2  0
M  END
$$$$
