VKA.pdb
     RDKit          3D

 22 21  0  0  1  0  0  0  0  0999 V2000
   26.8165   -9.8403  -16.5988 C   0  0  0  0  0  0  0  0  0  0  0  0
   26.3261  -10.9315  -15.7044 C   0  0  2  0  0  0  0  0  0  0  0  0
   27.3943  -11.9447  -15.3549 C   0  0  0  0  0  0  0  0  0  0  0  0
   25.0849  -11.6084  -16.2472 C   0  0  2  0  0  0  0  0  0  0  0  0
   25.4622  -12.2259  -17.5070 N   0  0  0  0  0  0  0  0  0  0  0  0
   24.0337  -10.5879  -16.4814 C   0  0  0  0  0  0  0  0  0  0  0  0
   24.0121   -9.9510  -17.5526 O   0  0  0  0  0  0  0  0  0  0  0  0
   23.0322  -10.3115  -15.4995 N   0  0  0  0  0  0  0  0  0  0  0  0
   21.9548   -9.3972  -15.7146 C   0  0  1  0  0  0  0  0  0  0  0  0
   20.6855   -9.9507  -15.0845 C   0  0  0  0  0  0  0  0  0  0  0  0
   19.5150   -9.0588  -15.2951 C   0  0  0  0  0  0  0  0  0  0  0  0
   18.6278   -9.5988  -16.3778 C   0  0  0  0  0  0  0  0  0  0  0  0
   17.4419   -8.7236  -16.6436 C   0  0  0  0  0  0  0  0  0  0  0  0
   16.5554   -9.3560  -17.6216 N   0  0  0  0  0  0  0  0  0  0  0  0
   22.3096   -8.0827  -15.1375 C   0  0  0  0  0  0  0  0  0  0  0  0
   22.7729   -8.0047  -13.9796 O   0  0  0  0  0  0  0  0  0  0  0  0
   22.4563   -4.6085  -16.5569 C   0  0  0  0  0  0  0  0  0  0  0  0
   22.6393   -5.5966  -15.4230 C   0  0  2  0  0  0  0  0  0  0  0  0
   22.1400   -6.8656  -15.8690 N   0  0  0  0  0  0  0  0  0  0  0  0
   21.9535   -5.1802  -14.1955 C   0  0  0  0  0  0  0  0  0  0  0  0
   22.5421   -4.3693  -13.2271 O   0  0  0  0  0  0  0  0  0  0  0  0
   20.7734   -5.5563  -13.9744 O   0  0  0  0  0  0  0  0  0  0  0  0
  2  3  1  6
  2  1  1  0
  4  2  1  0
  4  6  1  0
  4  5  1  6
  6  7  2  0
  8  6  1  0
  8  9  1  0
  9 10  1  1
 10 11  1  0
 12 11  1  0
 13 12  1  0
 14 13  1  0
 15 19  1  0
 15  9  1  0
 16 15  2  0
 18 17  1  6
 18 20  1  0
 18 19  1  0
 20 21  1  0
 22 20  2  0
M  END
$$$$
