VKA.pdb
     RDKit          3D

 22 21  0  0  1  0  0  0  0  0999 V2000
   27.0550  -20.3175   -8.3527 C   0  0  0  0  0  0  0  0  0  0  0  0
   26.1514  -20.2587   -9.5406 C   0  0  2  0  0  0  0  0  0  0  0  0
   24.6900  -20.4370   -9.1906 C   0  0  0  0  0  0  0  0  0  0  0  0
   26.5739  -21.2164  -10.6349 C   0  0  2  0  0  0  0  0  0  0  0  0
   27.9923  -20.9959  -10.8592 N   0  0  0  0  0  0  0  0  0  0  0  0
   25.8148  -20.9109  -11.8727 C   0  0  0  0  0  0  0  0  0  0  0  0
   26.0671  -19.8747  -12.5178 O   0  0  0  0  0  0  0  0  0  0  0  0
   24.7890  -21.7836  -12.3516 N   0  0  0  0  0  0  0  0  0  0  0  0
   24.1053  -21.5838  -13.5909 C   0  0  1  0  0  0  0  0  0  0  0  0
   24.1668  -22.8602  -14.4163 C   0  0  0  0  0  0  0  0  0  0  0  0
   25.5482  -23.1768  -14.8652 C   0  0  0  0  0  0  0  0  0  0  0  0
   25.9522  -22.2832  -16.0006 C   0  0  0  0  0  0  0  0  0  0  0  0
   27.3576  -22.5278  -16.4567 C   0  0  0  0  0  0  0  0  0  0  0  0
   27.7425  -21.5371  -17.4630 N   0  0  0  0  0  0  0  0  0  0  0  0
   22.7064  -21.1903  -13.3169 C   0  0  0  0  0  0  0  0  0  0  0  0
   22.0632  -21.7403  -12.3975 O   0  0  0  0  0  0  0  0  0  0  0  0
   20.4633  -18.4864  -14.6343 C   0  0  0  0  0  0  0  0  0  0  0  0
   20.7025  -19.7393  -13.8167 C   0  0  2  0  0  0  0  0  0  0  0  0
   22.0421  -20.1801  -14.0807 N   0  0  0  0  0  0  0  0  0  0  0  0
   19.7436  -20.8053  -14.1242 C   0  0  0  0  0  0  0  0  0  0  0  0
   18.4671  -20.8704  -13.5690 O   0  0  0  0  0  0  0  0  0  0  0  0
   20.0571  -21.7230  -14.9258 O   0  0  0  0  0  0  0  0  0  0  0  0
  2  3  1  1
  2  1  1  0
  4  2  1  0
  4  6  1  0
  4  5  1  6
  6  7  2  0
  8  6  1  0
  8  9  1  0
  9 10  1  6
 10 11  1  0
 12 11  1  0
 13 12  1  0
 14 13  1  0
 15 19  1  0
 15  9  1  0
 16 15  2  0
 18 17  1  6
 18 20  1  0
 18 19  1  0
 20 21  1  0
 22 20  2  0
M  END
$$$$
