VKA.pdb
     RDKit          3D

 22 21  0  0  1  0  0  0  0  0999 V2000
   17.6971  -15.1633  -20.3409 C   0  0  0  0  0  0  0  0  0  0  0  0
   18.5192  -14.3206  -21.2603 C   0  0  2  0  0  0  0  0  0  0  0  0
   19.2827  -15.1263  -22.2889 C   0  0  0  0  0  0  0  0  0  0  0  0
   19.4368  -13.3765  -20.5120 C   0  0  2  0  0  0  0  0  0  0  0  0
   20.4386  -14.1992  -19.8559 N   0  0  0  0  0  0  0  0  0  0  0  0
   18.6513  -12.6334  -19.4960 C   0  0  0  0  0  0  0  0  0  0  0  0
   17.7172  -11.8895  -19.8533 O   0  0  0  0  0  0  0  0  0  0  0  0
   18.9402  -12.7487  -18.1008 N   0  0  0  0  0  0  0  0  0  0  0  0
   18.1589  -12.1176  -17.0837 C   0  0  1  0  0  0  0  0  0  0  0  0
   18.1765  -12.9728  -15.8257 C   0  0  0  0  0  0  0  0  0  0  0  0
   17.2103  -14.1004  -15.8957 C   0  0  0  0  0  0  0  0  0  0  0  0
   17.2079  -14.8741  -14.6103 C   0  0  0  0  0  0  0  0  0  0  0  0
   16.2992  -16.0639  -14.6535 C   0  0  0  0  0  0  0  0  0  0  0  0
   16.3542  -16.7889  -13.3831 N   0  0  0  0  0  0  0  0  0  0  0  0
   18.7017  -10.7674  -16.8207 C   0  0  0  0  0  0  0  0  0  0  0  0
   19.9116  -10.6143  -16.5480 O   0  0  0  0  0  0  0  0  0  0  0  0
   17.4374   -7.2831  -17.1962 C   0  0  0  0  0  0  0  0  0  0  0  0
   18.3402   -8.2887  -16.5112 C   0  0  2  0  0  0  0  0  0  0  0  0
   17.8778   -9.5994  -16.8669 N   0  0  0  0  0  0  0  0  0  0  0  0
   18.3569   -8.1306  -15.0534 C   0  0  0  0  0  0  0  0  0  0  0  0
   19.1010   -7.1515  -14.3979 O   0  0  0  0  0  0  0  0  0  0  0  0
   17.6762   -8.9011  -14.3281 O   0  0  0  0  0  0  0  0  0  0  0  0
  2  3  1  1
  2  1  1  0
  4  2  1  0
  4  6  1  0
  4  5  1  1
  6  7  2  0
  8  6  1  0
  8  9  1  0
  9 10  1  1
 10 11  1  0
 12 11  1  0
 13 12  1  0
 14 13  1  0
 15 19  1  0
 15  9  1  0
 16 15  2  0
 18 17  1  6
 18 20  1  0
 18 19  1  0
 20 21  1  0
 22 20  2  0
M  END
$$$$
