VKA.pdb
     RDKit          3D

 22 21  0  0  1  0  0  0  0  0999 V2000
   13.5855   -7.2398  -15.6409 C   0  0  0  0  0  0  0  0  0  0  0  0
   15.0019   -7.3030  -15.1706 C   0  0  2  0  0  0  0  0  0  0  0  0
   15.8622   -6.1806  -15.7092 C   0  0  0  0  0  0  0  0  0  0  0  0
   15.6364   -8.6533  -15.4303 C   0  0  2  0  0  0  0  0  0  0  0  0
   14.8578   -9.6308  -14.6893 N   0  0  0  0  0  0  0  0  0  0  0  0
   17.0342   -8.6410  -14.9330 C   0  0  0  0  0  0  0  0  0  0  0  0
   17.2622   -8.7636  -13.7138 O   0  0  0  0  0  0  0  0  0  0  0  0
   18.1408   -8.4904  -15.8254 N   0  0  0  0  0  0  0  0  0  0  0  0
   19.5040   -8.5310  -15.3975 C   0  0  1  0  0  0  0  0  0  0  0  0
   20.2991   -9.4421  -16.3206 C   0  0  0  0  0  0  0  0  0  0  0  0
   21.7179   -9.5760  -15.8974 C   0  0  0  0  0  0  0  0  0  0  0  0
   22.4396  -10.5576  -16.7728 C   0  0  0  0  0  0  0  0  0  0  0  0
   23.8728  -10.7395  -16.3780 C   0  0  0  0  0  0  0  0  0  0  0  0
   24.4905  -11.7920  -17.1862 N   0  0  0  0  0  0  0  0  0  0  0  0
   20.0545   -7.1586  -15.3956 C   0  0  0  0  0  0  0  0  0  0  0  0
   19.8742   -6.4035  -16.3749 O   0  0  0  0  0  0  0  0  0  0  0  0
   21.8457   -5.0819  -12.8294 C   0  0  0  0  0  0  0  0  0  0  0  0
   21.3068   -5.3041  -14.2279 C   0  0  2  0  0  0  0  0  0  0  0  0
   20.8042   -6.6464  -14.2906 N   0  0  0  0  0  0  0  0  0  0  0  0
   22.3217   -5.0892  -15.2643 C   0  0  0  0  0  0  0  0  0  0  0  0
   22.6407   -3.8323  -15.7746 O   0  0  0  0  0  0  0  0  0  0  0  0
   22.9551   -6.0674  -15.7386 O   0  0  0  0  0  0  0  0  0  0  0  0
  2  3  1  6
  2  1  1  0
  4  2  1  0
  4  6  1  0
  4  5  1  1
  6  7  2  0
  8  6  1  0
  8  9  1  0
  9 10  1  6
 10 11  1  0
 12 11  1  0
 13 12  1  0
 14 13  1  0
 15 19  1  0
 15  9  1  0
 16 15  2  0
 18 17  1  1
 18 20  1  0
 18 19  1  0
 20 21  1  0
 22 20  2  0
M  END
$$$$
