VKA.pdb
     RDKit          3D

 22 21  0  0  1  0  0  0  0  0999 V2000
   14.6245  -22.2514    2.2422 C   0  0  0  0  0  0  0  0  0  0  0  0
   15.6940  -21.5608    3.0235 C   0  0  2  0  0  0  0  0  0  0  0  0
   15.5084  -21.6724    4.5212 C   0  0  0  0  0  0  0  0  0  0  0  0
   15.8780  -20.1185    2.5998 C   0  0  2  0  0  0  0  0  0  0  0  0
   16.1311  -20.1318    1.1692 N   0  0  0  0  0  0  0  0  0  0  0  0
   17.0458  -19.5442    3.3126 C   0  0  0  0  0  0  0  0  0  0  0  0
   18.1975  -19.9286    3.0310 O   0  0  0  0  0  0  0  0  0  0  0  0
   16.8839  -18.5495    4.3263 N   0  0  0  0  0  0  0  0  0  0  0  0
   17.9823  -17.8865    4.9565 C   0  0  1  0  0  0  0  0  0  0  0  0
   17.5318  -16.5234    5.4597 C   0  0  0  0  0  0  0  0  0  0  0  0
   17.5875  -15.4830    4.3993 C   0  0  0  0  0  0  0  0  0  0  0  0
   17.2419  -14.1361    4.9625 C   0  0  0  0  0  0  0  0  0  0  0  0
   17.2354  -13.0589    3.9220 C   0  0  0  0  0  0  0  0  0  0  0  0
   16.9069  -11.7691    4.5311 N   0  0  0  0  0  0  0  0  0  0  0  0
   18.4868  -18.7262    6.0643 C   0  0  0  0  0  0  0  0  0  0  0  0
   17.6897  -19.2852    6.8478 O   0  0  0  0  0  0  0  0  0  0  0  0
   21.7818  -20.2305    6.8988 C   0  0  0  0  0  0  0  0  0  0  0  0
   20.4127  -19.7497    7.3347 C   0  0  2  0  0  0  0  0  0  0  0  0
   19.8855  -18.9303    6.2816 N   0  0  0  0  0  0  0  0  0  0  0  0
   20.4527  -19.0001    8.5944 C   0  0  0  0  0  0  0  0  0  0  0  0
   20.1758  -17.6373    8.6835 O   0  0  0  0  0  0  0  0  0  0  0  0
   20.7483  -19.5865    9.6676 O   0  0  0  0  0  0  0  0  0  0  0  0
  2  3  1  1
  2  1  1  0
  4  2  1  0
  4  6  1  0
  4  5  1  6
  6  7  2  0
  8  6  1  0
  8  9  1  0
  9 10  1  1
 10 11  1  0
 12 11  1  0
 13 12  1  0
 14 13  1  0
 15 19  1  0
 15  9  1  0
 16 15  2  0
 18 17  1  6
 18 20  1  0
 18 19  1  0
 20 21  1  0
 22 20  2  0
M  END
$$$$
