VKA.pdb
     RDKit          3D

 22 21  0  0  1  0  0  0  0  0999 V2000
   23.6470  -11.6845  -16.3271 C   0  0  0  0  0  0  0  0  0  0  0  0
   23.7872  -13.1708  -16.3758 C   0  0  2  0  0  0  0  0  0  0  0  0
   22.6441  -13.9024  -15.7065 C   0  0  0  0  0  0  0  0  0  0  0  0
   25.1251  -13.6418  -15.8452 C   0  0  2  0  0  0  0  0  0  0  0  0
   26.1456  -13.0122  -16.6655 N   0  0  0  0  0  0  0  0  0  0  0  0
   25.2121  -15.1171  -15.9773 C   0  0  0  0  0  0  0  0  0  0  0  0
   25.1268  -15.6474  -17.1020 O   0  0  0  0  0  0  0  0  0  0  0  0
   25.3933  -15.9576  -14.8353 N   0  0  0  0  0  0  0  0  0  0  0  0
   25.4455  -17.3839  -14.9122 C   0  0  1  0  0  0  0  0  0  0  0  0
   26.5375  -17.9027  -13.9887 C   0  0  0  0  0  0  0  0  0  0  0  0
   26.5911  -19.3879  -13.9558 C   0  0  0  0  0  0  0  0  0  0  0  0
   27.3727  -19.9141  -15.1233 C   0  0  0  0  0  0  0  0  0  0  0  0
   27.4131  -21.4106  -15.1647 C   0  0  0  0  0  0  0  0  0  0  0  0
   28.1647  -21.8642  -16.3359 N   0  0  0  0  0  0  0  0  0  0  0  0
   24.1252  -17.9396  -14.5450 C   0  0  0  0  0  0  0  0  0  0  0  0
   23.6546  -17.7497  -13.4030 O   0  0  0  0  0  0  0  0  0  0  0  0
   21.3629  -19.6071  -16.4297 C   0  0  0  0  0  0  0  0  0  0  0  0
   22.0840  -19.3031  -15.1323 C   0  0  2  0  0  0  0  0  0  0  0  0
   23.3446  -18.7052  -15.4668 N   0  0  0  0  0  0  0  0  0  0  0  0
   22.2878  -20.4979  -14.3069 C   0  0  0  0  0  0  0  0  0  0  0  0
   21.3415  -20.9732  -13.4011 O   0  0  0  0  0  0  0  0  0  0  0  0
   23.3600  -21.1502  -14.3962 O   0  0  0  0  0  0  0  0  0  0  0  0
  2  3  1  1
  2  1  1  0
  4  2  1  0
  4  6  1  0
  4  5  1  6
  6  7  2  0
  8  6  1  0
  8  9  1  0
  9 10  1  1
 10 11  1  0
 12 11  1  0
 13 12  1  0
 14 13  1  0
 15 19  1  0
 15  9  1  0
 16 15  2  0
 18 17  1  6
 18 20  1  0
 18 19  1  0
 20 21  1  0
 22 20  2  0
M  END
$$$$
