VKA.pdb
     RDKit          3D

 22 21  0  0  1  0  0  0  0  0999 V2000
   28.0071  -12.8122  -15.8054 C   0  0  0  0  0  0  0  0  0  0  0  0
   27.0857  -11.7224  -16.2465 C   0  0  2  0  0  0  0  0  0  0  0  0
   27.2693  -10.4340  -15.4743 C   0  0  0  0  0  0  0  0  0  0  0  0
   25.6355  -12.1586  -16.2485 C   0  0  2  0  0  0  0  0  0  0  0  0
   25.5530  -13.3326  -17.1004 N   0  0  0  0  0  0  0  0  0  0  0  0
   24.7978  -11.0697  -16.8090 C   0  0  0  0  0  0  0  0  0  0  0  0
   24.9789  -10.6854  -17.9808 O   0  0  0  0  0  0  0  0  0  0  0  0
   23.7756  -10.4415  -16.0320 N   0  0  0  0  0  0  0  0  0  0  0  0
   22.9332   -9.4032  -16.5375 C   0  0  1  0  0  0  0  0  0  0  0  0
   21.4909   -9.8862  -16.5622 C   0  0  0  0  0  0  0  0  0  0  0  0
   21.2508  -10.8941  -17.6283 C   0  0  0  0  0  0  0  0  0  0  0  0
   20.2122  -11.8856  -17.1933 C   0  0  0  0  0  0  0  0  0  0  0  0
   19.9429  -12.9328  -18.2296 C   0  0  0  0  0  0  0  0  0  0  0  0
   18.9171  -13.8626  -17.7545 N   0  0  0  0  0  0  0  0  0  0  0  0
   23.0807   -8.2008  -15.6894 C   0  0  0  0  0  0  0  0  0  0  0  0
   23.1953   -8.3113  -14.4500 O   0  0  0  0  0  0  0  0  0  0  0  0
   23.4999   -4.5424  -16.4169 C   0  0  0  0  0  0  0  0  0  0  0  0
   23.2783   -5.6951  -15.4588 C   0  0  2  0  0  0  0  0  0  0  0  0
   23.0979   -6.8825  -16.2436 N   0  0  0  0  0  0  0  0  0  0  0  0
   22.1243   -5.4836  -14.5791 C   0  0  0  0  0  0  0  0  0  0  0  0
   22.1808   -4.7256  -13.4111 O   0  0  0  0  0  0  0  0  0  0  0  0
   21.0121   -5.9983  -14.8637 O   0  0  0  0  0  0  0  0  0  0  0  0
  2  3  1  1
  2  1  1  0
  4  2  1  0
  4  6  1  0
  4  5  1  6
  6  7  2  0
  8  6  1  0
  8  9  1  0
  9 10  1  1
 10 11  1  0
 12 11  1  0
 13 12  1  0
 14 13  1  0
 15 19  1  0
 15  9  1  0
 16 15  2  0
 18 17  1  6
 18 20  1  0
 18 19  1  0
 20 21  1  0
 22 20  2  0
M  END
$$$$
