VKA.pdb
     RDKit          3D

 22 21  0  0  1  0  0  0  0  0999 V2000
   22.0812  -13.5508  -19.4670 C   0  0  0  0  0  0  0  0  0  0  0  0
   21.1069  -12.4358  -19.2701 C   0  0  2  0  0  0  0  0  0  0  0  0
   21.0468  -11.4794  -20.4412 C   0  0  0  0  0  0  0  0  0  0  0  0
   21.3326  -11.6954  -17.9685 C   0  0  2  0  0  0  0  0  0  0  0  0
   21.4676  -12.7040  -16.9315 N   0  0  0  0  0  0  0  0  0  0  0  0
   20.1574  -10.8353  -17.6846 C   0  0  0  0  0  0  0  0  0  0  0  0
   19.8654   -9.9045  -18.4604 O   0  0  0  0  0  0  0  0  0  0  0  0
   19.3405  -11.0477  -16.5309 N   0  0  0  0  0  0  0  0  0  0  0  0
   18.1751  -10.2721  -16.2421 C   0  0  1  0  0  0  0  0  0  0  0  0
   17.3184  -11.0041  -15.2200 C   0  0  0  0  0  0  0  0  0  0  0  0
   15.8684  -10.9252  -15.5381 C   0  0  0  0  0  0  0  0  0  0  0  0
   15.0535  -11.5557  -14.4475 C   0  0  0  0  0  0  0  0  0  0  0  0
   13.5806  -11.4761  -14.7067 C   0  0  0  0  0  0  0  0  0  0  0  0
   12.8395  -12.1015  -13.6104 N   0  0  0  0  0  0  0  0  0  0  0  0
   18.5869   -8.9429  -15.7418 C   0  0  0  0  0  0  0  0  0  0  0  0
   19.4518   -8.8448  -14.8452 O   0  0  0  0  0  0  0  0  0  0  0  0
   18.6006   -5.5656  -17.0498 C   0  0  0  0  0  0  0  0  0  0  0  0
   18.4155   -6.4258  -15.8163 C   0  0  2  0  0  0  0  0  0  0  0  0
   18.0215   -7.7337  -16.2551 N   0  0  0  0  0  0  0  0  0  0  0  0
   17.4208   -5.8763  -14.8894 C   0  0  0  0  0  0  0  0  0  0  0  0
   17.6230   -4.7113  -14.1520 O   0  0  0  0  0  0  0  0  0  0  0  0
   16.3187   -6.4614  -14.7281 O   0  0  0  0  0  0  0  0  0  0  0  0
  2  3  1  6
  2  1  1  0
  4  2  1  0
  4  6  1  0
  4  5  1  1
  6  7  2  0
  8  6  1  0
  8  9  1  0
  9 10  1  1
 10 11  1  0
 12 11  1  0
 13 12  1  0
 14 13  1  0
 15 19  1  0
 15  9  1  0
 16 15  2  0
 18 17  1  6
 18 20  1  0
 18 19  1  0
 20 21  1  0
 22 20  2  0
M  END
$$$$
