GAP.pdb
     RDKit          3D

 17 17  0  0  1  0  0  0  0  0999 V2000
   17.1382  -14.3385  -17.4781 N   0  0  0  0  0  0  0  0  0  0  0  0
   17.5220  -13.0647  -18.0192 C   0  0  0  0  0  0  0  0  0  0  0  0
   18.7146  -12.5024  -17.2836 C   0  0  0  0  0  0  0  0  0  0  0  0
   18.7610  -12.6080  -16.0358 O   0  0  0  0  0  0  0  0  0  0  0  0
   21.9896  -10.9977  -18.3612 C   0  0  0  0  0  0  0  0  0  0  0  0
   20.9229  -11.2833  -17.3536 C   0  0  2  0  0  0  0  0  0  0  0  0
   19.7678  -11.8660  -17.9726 N   0  0  0  0  0  0  0  0  0  0  0  0
   20.6049  -10.1149  -16.4964 C   0  0  0  0  0  0  0  0  0  0  0  0
   19.5699   -9.4630  -16.8009 O   0  0  0  0  0  0  0  0  0  0  0  0
   21.3776   -9.7041  -15.3892 N   0  0  0  0  0  0  0  0  0  0  0  0
   22.6135  -10.4134  -14.9947 C   0  0  0  0  0  0  0  0  0  0  0  0
   22.5316  -10.3014  -13.4574 C   0  0  0  0  0  0  0  0  0  0  0  0
   22.1488   -8.8561  -13.3415 C   0  0  0  0  0  0  0  0  0  0  0  0
   21.1874   -8.6187  -14.4652 C   0  0  1  0  0  0  0  0  0  0  0  0
   21.4214   -7.2926  -15.1087 C   0  0  0  0  0  0  0  0  0  0  0  0
   20.9782   -6.0905  -14.6424 O   0  0  0  0  0  0  0  0  0  0  0  0
   22.0935   -7.3100  -16.1840 O   0  0  0  0  0  0  0  0  0  0  0  0
  1  2  1  0
  2  3  1  0
  3  4  2  0
  6  5  1  6
  7  3  1  0
  7  6  1  0
  8  6  1  0
  8  9  2  0
 10  8  1  0
 11 10  1  0
 12 11  1  0
 13 14  1  0
 13 12  1  0
 14 10  1  0
 15 16  1  0
 14 15  1  6
 17 15  2  0
M  END
$$$$
