GAP.pdb
     RDKit          3D

 17 17  0  0  1  0  0  0  0  0999 V2000
   24.0962  -21.2377  -10.9020 N   0  0  0  0  0  0  0  0  0  0  0  0
   24.6969  -20.0845  -10.2921 C   0  0  0  0  0  0  0  0  0  0  0  0
   25.6664  -20.4901   -9.2081 C   0  0  0  0  0  0  0  0  0  0  0  0
   25.2394  -21.1431   -8.2275 O   0  0  0  0  0  0  0  0  0  0  0  0
   29.3960  -20.2383   -8.7823 C   0  0  0  0  0  0  0  0  0  0  0  0
   28.0060  -20.4256   -8.2649 C   0  0  2  0  0  0  0  0  0  0  0  0
   27.0329  -20.1486   -9.2813 N   0  0  0  0  0  0  0  0  0  0  0  0
   27.7551  -19.6988   -6.9961 C   0  0  0  0  0  0  0  0  0  0  0  0
   26.9539  -18.7276   -7.0568 O   0  0  0  0  0  0  0  0  0  0  0  0
   28.3491  -20.0260   -5.7585 N   0  0  0  0  0  0  0  0  0  0  0  0
   29.2721  -21.1722   -5.6154 C   0  0  0  0  0  0  0  0  0  0  0  0
   28.8940  -21.6721   -4.2048 C   0  0  0  0  0  0  0  0  0  0  0  0
   28.8442  -20.3556   -3.4884 C   0  0  0  0  0  0  0  0  0  0  0  0
   28.2262  -19.4052   -4.4671 C   0  0  1  0  0  0  0  0  0  0  0  0
   28.8950  -18.0716   -4.4249 C   0  0  0  0  0  0  0  0  0  0  0  0
   29.9896  -17.7050   -5.1504 O   0  0  0  0  0  0  0  0  0  0  0  0
   28.3833  -17.2204   -3.6363 O   0  0  0  0  0  0  0  0  0  0  0  0
  1  2  1  0
  2  3  1  0
  3  4  2  0
  6  5  1  6
  7  3  1  0
  7  6  1  0
  8  6  1  0
  8  9  2  0
 10  8  1  0
 11 10  1  0
 12 11  1  0
 13 14  1  0
 13 12  1  0
 14 10  1  0
 15 16  1  0
 14 15  1  6
 17 15  2  0
M  END
$$$$
