GAP.pdb
     RDKit          3D

 17 17  0  0  1  0  0  0  0  0999 V2000
   40.4118  -27.5538    1.8225 N   0  0  0  0  0  0  0  0  0  0  0  0
   39.9125  -28.1117    3.0481 C   0  0  0  0  0  0  0  0  0  0  0  0
   38.7186  -27.3346    3.5485 C   0  0  0  0  0  0  0  0  0  0  0  0
   38.6238  -26.1188    3.2601 O   0  0  0  0  0  0  0  0  0  0  0  0
   35.4965  -28.2644    5.2278 C   0  0  0  0  0  0  0  0  0  0  0  0
   36.5649  -27.2848    4.8624 C   0  0  2  0  0  0  0  0  0  0  0  0
   37.7176  -27.9502    4.3283 N   0  0  0  0  0  0  0  0  0  0  0  0
   36.8868  -26.3393    5.9595 C   0  0  0  0  0  0  0  0  0  0  0  0
   37.8669  -26.6443    6.6911 O   0  0  0  0  0  0  0  0  0  0  0  0
   36.1743  -25.1498    6.2221 N   0  0  0  0  0  0  0  0  0  0  0  0
   34.9767  -24.7700    5.4426 C   0  0  0  0  0  0  0  0  0  0  0  0
   35.1479  -23.2372    5.3801 C   0  0  0  0  0  0  0  0  0  0  0  0
   35.5114  -22.9772    6.8116 C   0  0  0  0  0  0  0  0  0  0  0  0
   36.3999  -24.1190    7.1991 C   0  0  1  0  0  0  0  0  0  0  0  0
   36.1047  -24.5906    8.5840 C   0  0  0  0  0  0  0  0  0  0  0  0
   35.3954  -25.7078    8.9119 O   0  0  0  0  0  0  0  0  0  0  0  0
   36.5632  -23.8719    9.5230 O   0  0  0  0  0  0  0  0  0  0  0  0
  1  2  1  0
  2  3  1  0
  3  4  2  0
  6  5  1  1
  7  3  1  0
  7  6  1  0
  8  6  1  0
  8  9  2  0
 10  8  1  0
 11 10  1  0
 12 11  1  0
 13 14  1  0
 13 12  1  0
 14 10  1  0
 15 16  1  0
 14 15  1  1
 17 15  2  0
M  END
$$$$
