GAP.pdb
     RDKit          3D

 17 17  0  0  1  0  0  0  0  0999 V2000
   17.4985  -14.3888  -16.2609 N   0  0  0  0  0  0  0  0  0  0  0  0
   16.9984  -13.0456  -16.3515 C   0  0  0  0  0  0  0  0  0  0  0  0
   18.1321  -12.0504  -16.4168 C   0  0  0  0  0  0  0  0  0  0  0  0
   19.2011  -12.3105  -15.8170 O   0  0  0  0  0  0  0  0  0  0  0  0
   18.8333   -9.1052  -18.5980 C   0  0  0  0  0  0  0  0  0  0  0  0
   19.0683   -9.9037  -17.3563 C   0  0  2  0  0  0  0  0  0  0  0  0
   18.0076  -10.8435  -17.1359 N   0  0  0  0  0  0  0  0  0  0  0  0
   19.3645   -9.0619  -16.1711 C   0  0  0  0  0  0  0  0  0  0  0  0
   18.4156   -8.8827  -15.3611 O   0  0  0  0  0  0  0  0  0  0  0  0
   20.6167   -8.4663  -15.9086 N   0  0  0  0  0  0  0  0  0  0  0  0
   21.7506   -8.5879  -16.8498 C   0  0  0  0  0  0  0  0  0  0  0  0
   22.9344   -8.6825  -15.8638 C   0  0  0  0  0  0  0  0  0  0  0  0
   22.5527   -7.5788  -14.9230 C   0  0  0  0  0  0  0  0  0  0  0  0
   21.0642   -7.6801  -14.7907 C   0  0  1  0  0  0  0  0  0  0  0  0
   20.4282   -6.3301  -14.7697 C   0  0  0  0  0  0  0  0  0  0  0  0
   20.3348   -5.5093  -13.6850 O   0  0  0  0  0  0  0  0  0  0  0  0
   19.9368   -5.9325  -15.8691 O   0  0  0  0  0  0  0  0  0  0  0  0
  1  2  1  0
  2  3  1  0
  3  4  2  0
  6  5  1  6
  7  3  1  0
  7  6  1  0
  8  6  1  0
  8  9  2  0
 10  8  1  0
 11 10  1  0
 12 11  1  0
 13 14  1  0
 13 12  1  0
 14 10  1  0
 15 16  1  0
 14 15  1  6
 17 15  2  0
M  END
$$$$
