GAP.pdb
     RDKit          3D

 17 17  0  0  1  0  0  0  0  0999 V2000
   25.0671  -12.9917  -18.6605 N   0  0  0  0  0  0  0  0  0  0  0  0
   25.3514  -11.7497  -17.9977 C   0  0  0  0  0  0  0  0  0  0  0  0
   24.1072  -11.1813  -17.3584 C   0  0  0  0  0  0  0  0  0  0  0  0
   23.0220  -11.2485  -17.9814 O   0  0  0  0  0  0  0  0  0  0  0  0
   22.8686  -10.5216  -14.0325 C   0  0  0  0  0  0  0  0  0  0  0  0
   23.0248   -9.9842  -15.4186 C   0  0  2  0  0  0  0  0  0  0  0  0
   24.1470  -10.5814  -16.0826 N   0  0  0  0  0  0  0  0  0  0  0  0
   23.0312   -8.5016  -15.4702 C   0  0  0  0  0  0  0  0  0  0  0  0
   24.1631   -7.9469  -15.4739 O   0  0  0  0  0  0  0  0  0  0  0  0
   21.8706   -7.6999  -15.5132 N   0  0  0  0  0  0  0  0  0  0  0  0
   20.5214   -8.2882  -15.6550 C   0  0  0  0  0  0  0  0  0  0  0  0
   19.8361   -7.2264  -16.5413 C   0  0  0  0  0  0  0  0  0  0  0  0
   20.2981   -5.9876  -15.8336 C   0  0  0  0  0  0  0  0  0  0  0  0
   21.7150   -6.2722  -15.4399 C   0  0  1  0  0  0  0  0  0  0  0  0
   22.0143   -5.7491  -14.0745 C   0  0  0  0  0  0  0  0  0  0  0  0
   22.0676   -6.4893  -12.9308 O   0  0  0  0  0  0  0  0  0  0  0  0
   22.2340   -4.5026  -13.9951 O   0  0  0  0  0  0  0  0  0  0  0  0
  1  2  1  0
  2  3  1  0
  3  4  2  0
  6  5  1  1
  7  3  1  0
  7  6  1  0
  8  6  1  0
  8  9  2  0
 10  8  1  0
 11 10  1  0
 12 11  1  0
 13 14  1  0
 13 12  1  0
 14 10  1  0
 15 16  1  0
 14 15  1  1
 17 15  2  0
M  END
$$$$
