GAP.pdb
     RDKit          3D

 17 17  0  0  1  0  0  0  0  0999 V2000
   21.0776  -21.1638  -12.6337 N   0  0  0  0  0  0  0  0  0  0  0  0
   22.0948  -21.5923  -13.5526 C   0  0  0  0  0  0  0  0  0  0  0  0
   23.2011  -20.5693  -13.6492 C   0  0  0  0  0  0  0  0  0  0  0  0
   22.9227  -19.3591  -13.4814 O   0  0  0  0  0  0  0  0  0  0  0  0
   26.9345  -20.7300  -13.8002 C   0  0  0  0  0  0  0  0  0  0  0  0
   25.6333  -20.0458  -14.0711 C   0  0  2  0  0  0  0  0  0  0  0  0
   24.5309  -20.9511  -13.9229 N   0  0  0  0  0  0  0  0  0  0  0  0
   25.6207  -19.3090  -15.3587 C   0  0  0  0  0  0  0  0  0  0  0  0
   25.0541  -19.8840  -16.3267 O   0  0  0  0  0  0  0  0  0  0  0  0
   26.1940  -18.0342  -15.5538 N   0  0  0  0  0  0  0  0  0  0  0  0
   26.8375  -17.2913  -14.4493 C   0  0  0  0  0  0  0  0  0  0  0  0
   26.4364  -15.8436  -14.8038 C   0  0  0  0  0  0  0  0  0  0  0  0
   26.7294  -15.8660  -16.2744 C   0  0  0  0  0  0  0  0  0  0  0  0
   26.2899  -17.2213  -16.7363 C   0  0  1  0  0  0  0  0  0  0  0  0
   27.2469  -17.7932  -17.7286 C   0  0  0  0  0  0  0  0  0  0  0  0
   27.3311  -17.4491  -19.0452 O   0  0  0  0  0  0  0  0  0  0  0  0
   28.0417  -18.6766  -17.2857 O   0  0  0  0  0  0  0  0  0  0  0  0
  1  2  1  0
  2  3  1  0
  3  4  2  0
  6  5  1  6
  7  3  1  0
  7  6  1  0
  8  6  1  0
  8  9  2  0
 10  8  1  0
 11 10  1  0
 12 11  1  0
 13 14  1  0
 13 12  1  0
 14 10  1  0
 15 16  1  0
 14 15  1  6
 17 15  2  0
M  END
$$$$
