DVD.pdb
     RDKit          3D

 24 23  0  0  1  0  0  0  0  0999 V2000
   18.7239  -13.4132  -16.7754 N   0  0  0  0  0  0  0  0  0  0  0  0
   19.0509  -12.0797  -17.1687 C   0  0  1  0  0  0  0  0  0  0  0  0
   17.8202  -11.2659  -17.5230 C   0  0  0  0  0  0  0  0  0  0  0  0
   17.0844  -11.8461  -18.6594 C   0  0  0  0  0  0  0  0  0  0  0  0
   15.9428  -12.3689  -18.5530 O   0  0  0  0  0  0  0  0  0  0  0  0
   19.8458  -11.3467  -16.1427 C   0  0  0  0  0  0  0  0  0  0  0  0
   19.3983  -11.3182  -14.9783 O   0  0  0  0  0  0  0  0  0  0  0  0
   17.6619  -11.8225  -19.9063 O   0  0  0  0  0  0  0  0  0  0  0  0
   23.9864  -10.5112  -16.7060 C   0  0  0  0  0  0  0  0  0  0  0  0
   23.2446  -10.5396  -15.4050 C   0  0  1  0  0  0  0  0  0  0  0  0
   24.1366   -9.8514  -14.3852 C   0  0  0  0  0  0  0  0  0  0  0  0
   21.8564  -10.0143  -15.3992 C   0  0  2  0  0  0  0  0  0  0  0  0
   21.0642  -10.6969  -16.4416 N   0  0  0  0  0  0  0  0  0  0  0  0
   21.7639   -8.5636  -15.5839 C   0  0  0  0  0  0  0  0  0  0  0  0
   22.0050   -7.9964  -16.6955 O   0  0  0  0  0  0  0  0  0  0  0  0
   21.3913   -7.6908  -14.5377 N   0  0  0  0  0  0  0  0  0  0  0  0
   21.4176   -6.2270  -14.7701 C   0  0  1  0  0  0  0  0  0  0  0  0
   19.9640   -5.7414  -14.8433 C   0  0  0  0  0  0  0  0  0  0  0  0
   19.8425   -4.2922  -15.0386 C   0  0  0  0  0  0  0  0  0  0  0  0
   20.7665   -3.5076  -15.3590 O   0  0  0  0  0  0  0  0  0  0  0  0
   22.1190   -5.6305  -13.6167 C   0  0  0  0  0  0  0  0  0  0  0  0
   22.4193   -6.3087  -12.4328 O   0  0  0  0  0  0  0  0  0  0  0  0
   18.5679   -3.7382  -14.8469 O   0  0  0  0  0  0  0  0  0  0  0  0
   22.5023   -4.4263  -13.6335 O   0  0  0  0  0  0  0  0  0  0  0  0
  2  1  1  1
  2  3  1  0
  4  3  1  0
  4  8  1  0
  5  4  2  0
  6  2  1  0
  6  7  2  0
 10  9  1  6
 10 12  1  0
 10 11  1  0
 12 13  1  6
 13  6  1  0
 14 12  1  0
 15 14  2  0
 16 14  1  0
 17 21  1  0
 17 16  1  0
 17 18  1  1
 19 20  2  0
 19 18  1  0
 21 22  1  0
 23 19  1  0
 24 21  2  0
M  END
$$$$
