DVD.pdb
     RDKit          3D

 24 23  0  0  1  0  0  0  0  0999 V2000
   21.0371  -21.6191  -16.9183 N   0  0  0  0  0  0  0  0  0  0  0  0
   21.4438  -20.3191  -16.4889 C   0  0  1  0  0  0  0  0  0  0  0  0
   22.2731  -19.6001  -17.5366 C   0  0  0  0  0  0  0  0  0  0  0  0
   23.4946  -20.3478  -17.8808 C   0  0  0  0  0  0  0  0  0  0  0  0
   23.7642  -21.4881  -17.4173 O   0  0  0  0  0  0  0  0  0  0  0  0
   20.2996  -19.4519  -16.0882 C   0  0  0  0  0  0  0  0  0  0  0  0
   19.2610  -19.5125  -16.7770 O   0  0  0  0  0  0  0  0  0  0  0  0
   24.3956  -19.7834  -18.7518 O   0  0  0  0  0  0  0  0  0  0  0  0
   18.4454  -19.3406  -12.7678 C   0  0  0  0  0  0  0  0  0  0  0  0
   18.8729  -17.9614  -13.1664 C   0  0  1  0  0  0  0  0  0  0  0  0
   20.0078  -17.5752  -12.2325 C   0  0  0  0  0  0  0  0  0  0  0  0
   19.2048  -17.7362  -14.5955 C   0  0  2  0  0  0  0  0  0  0  0  0
   20.3536  -18.5818  -14.9764 N   0  0  0  0  0  0  0  0  0  0  0  0
   19.4916  -16.3389  -14.9310 C   0  0  0  0  0  0  0  0  0  0  0  0
   20.6055  -15.7850  -14.6706 O   0  0  0  0  0  0  0  0  0  0  0  0
   18.5494  -15.5082  -15.5771 N   0  0  0  0  0  0  0  0  0  0  0  0
   18.8728  -14.0782  -15.7962 C   0  0  1  0  0  0  0  0  0  0  0  0
   18.8056  -13.8121  -17.3057 C   0  0  0  0  0  0  0  0  0  0  0  0
   19.0316  -12.4064  -17.6606 C   0  0  0  0  0  0  0  0  0  0  0  0
   19.5125  -11.5216  -16.9137 O   0  0  0  0  0  0  0  0  0  0  0  0
   17.8482  -13.2996  -15.0738 C   0  0  0  0  0  0  0  0  0  0  0  0
   18.0457  -12.0184  -14.5528 O   0  0  0  0  0  0  0  0  0  0  0  0
   18.6729  -12.0224  -18.9615 O   0  0  0  0  0  0  0  0  0  0  0  0
   16.6896  -13.7642  -14.8767 O   0  0  0  0  0  0  0  0  0  0  0  0
  2  1  1  6
  2  3  1  0
  4  3  1  0
  4  8  1  0
  5  4  2  0
  6  2  1  0
  6  7  2  0
 10  9  1  6
 10 12  1  0
 10 11  1  0
 12 13  1  1
 13  6  1  0
 14 12  1  0
 15 14  2  0
 16 14  1  0
 17 21  1  0
 17 16  1  0
 17 18  1  6
 19 20  2  0
 19 18  1  0
 21 22  1  0
 23 19  1  0
 24 21  2  0
M  END
$$$$
