DVD.pdb
     RDKit          3D

 24 23  0  0  1  0  0  0  0  0999 V2000
   19.1376  -13.1915  -16.2578 N   0  0  0  0  0  0  0  0  0  0  0  0
   19.1292  -11.8146  -16.6373 C   0  0  1  0  0  0  0  0  0  0  0  0
   17.7238  -11.2867  -16.8575 C   0  0  0  0  0  0  0  0  0  0  0  0
   17.0311  -12.0005  -17.9440 C   0  0  0  0  0  0  0  0  0  0  0  0
   17.5725  -12.2790  -19.0472 O   0  0  0  0  0  0  0  0  0  0  0  0
   19.8367  -10.9360  -15.6630 C   0  0  0  0  0  0  0  0  0  0  0  0
   19.3501  -10.8349  -14.5184 O   0  0  0  0  0  0  0  0  0  0  0  0
   15.7259  -12.3886  -17.7575 O   0  0  0  0  0  0  0  0  0  0  0  0
   23.4657  -11.1539  -14.4714 C   0  0  0  0  0  0  0  0  0  0  0  0
   23.1444   -9.7663  -14.9352 C   0  0  1  0  0  0  0  0  0  0  0  0
   23.8619   -9.5782  -16.2615 C   0  0  0  0  0  0  0  0  0  0  0  0
   21.7120   -9.3826  -14.9990 C   0  0  2  0  0  0  0  0  0  0  0  0
   21.0160  -10.2293  -15.9883 N   0  0  0  0  0  0  0  0  0  0  0  0
   21.4834   -7.9701  -15.3149 C   0  0  0  0  0  0  0  0  0  0  0  0
   21.4986   -7.5215  -16.5040 O   0  0  0  0  0  0  0  0  0  0  0  0
   21.2215   -7.0053  -14.3170 N   0  0  0  0  0  0  0  0  0  0  0  0
   20.9935   -5.5952  -14.7133 C   0  0  1  0  0  0  0  0  0  0  0  0
   19.5329   -5.2522  -14.3925 C   0  0  0  0  0  0  0  0  0  0  0  0
   19.1927   -3.8488  -14.6533 C   0  0  0  0  0  0  0  0  0  0  0  0
   19.5310   -3.1786  -15.6574 O   0  0  0  0  0  0  0  0  0  0  0  0
   21.9203   -4.7767  -13.9077 C   0  0  0  0  0  0  0  0  0  0  0  0
   22.7570   -5.2775  -12.9072 O   0  0  0  0  0  0  0  0  0  0  0  0
   18.4144   -3.2012  -13.6821 O   0  0  0  0  0  0  0  0  0  0  0  0
   22.0137   -3.5285  -14.0820 O   0  0  0  0  0  0  0  0  0  0  0  0
  2  1  1  1
  2  3  1  0
  4  3  1  0
  4  8  1  0
  5  4  2  0
  6  2  1  0
  6  7  2  0
 10  9  1  6
 10 12  1  0
 10 11  1  0
 12 13  1  6
 13  6  1  0
 14 12  1  0
 15 14  2  0
 16 14  1  0
 17 21  1  0
 17 16  1  0
 17 18  1  1
 19 20  2  0
 19 18  1  0
 21 22  1  0
 23 19  1  0
 24 21  2  0
M  END
$$$$
