DVD.pdb
     RDKit          3D

 24 23  0  0  1  0  0  0  0  0999 V2000
   18.4821  -12.6060  -16.6133 N   0  0  0  0  0  0  0  0  0  0  0  0
   18.8719  -11.2896  -17.0070 C   0  0  1  0  0  0  0  0  0  0  0  0
   17.7097  -10.4864  -17.5605 C   0  0  0  0  0  0  0  0  0  0  0  0
   17.1269  -11.1145  -18.7587 C   0  0  0  0  0  0  0  0  0  0  0  0
   15.9299  -11.5022  -18.8265 O   0  0  0  0  0  0  0  0  0  0  0  0
   19.5216  -10.5199  -15.9082 C   0  0  0  0  0  0  0  0  0  0  0  0
   18.9223  -10.4566  -14.8156 O   0  0  0  0  0  0  0  0  0  0  0  0
   17.9195  -11.2930  -19.8672 O   0  0  0  0  0  0  0  0  0  0  0  0
   22.8481  -11.0474  -14.2414 C   0  0  0  0  0  0  0  0  0  0  0  0
   22.7393   -9.6199  -14.6822 C   0  0  1  0  0  0  0  0  0  0  0  0
   23.6888   -9.4582  -15.8576 C   0  0  0  0  0  0  0  0  0  0  0  0
   21.3803   -9.0952  -14.9668 C   0  0  2  0  0  0  0  0  0  0  0  0
   20.7683   -9.8734  -16.0622 N   0  0  0  0  0  0  0  0  0  0  0  0
   21.3463   -7.6687  -15.3000 C   0  0  0  0  0  0  0  0  0  0  0  0
   21.5802   -7.2313  -16.4703 O   0  0  0  0  0  0  0  0  0  0  0  0
   21.0424   -6.6760  -14.3422 N   0  0  0  0  0  0  0  0  0  0  0  0
   21.1394   -5.2466  -14.7230 C   0  0  1  0  0  0  0  0  0  0  0  0
   19.7218   -4.6604  -14.6943 C   0  0  0  0  0  0  0  0  0  0  0  0
   19.6793   -3.2231  -14.9865 C   0  0  0  0  0  0  0  0  0  0  0  0
   20.0269   -2.6742  -16.0588 O   0  0  0  0  0  0  0  0  0  0  0  0
   22.0016   -4.6002  -13.7147 C   0  0  0  0  0  0  0  0  0  0  0  0
   22.4747   -5.2238  -12.5575 O   0  0  0  0  0  0  0  0  0  0  0  0
   19.2031   -2.3890  -13.9638 O   0  0  0  0  0  0  0  0  0  0  0  0
   22.3754   -3.3999  -13.8441 O   0  0  0  0  0  0  0  0  0  0  0  0
  2  1  1  1
  2  3  1  0
  4  3  1  0
  4  8  1  0
  5  4  2  0
  6  2  1  0
  6  7  2  0
 10  9  1  6
 10 12  1  0
 10 11  1  0
 12 13  1  6
 13  6  1  0
 14 12  1  0
 15 14  2  0
 16 14  1  0
 17 21  1  0
 17 16  1  0
 17 18  1  1
 19 20  2  0
 19 18  1  0
 21 22  1  0
 23 19  1  0
 24 21  2  0
M  END
$$$$
