DVD.pdb
     RDKit          3D

 24 23  0  0  1  0  0  0  0  0999 V2000
   16.2855  -14.0627  -15.7937 N   0  0  0  0  0  0  0  0  0  0  0  0
   16.3419  -12.6358  -15.8194 C   0  0  1  0  0  0  0  0  0  0  0  0
   15.3005  -12.0022  -14.9158 C   0  0  0  0  0  0  0  0  0  0  0  0
   13.9300  -12.3646  -15.3159 C   0  0  0  0  0  0  0  0  0  0  0  0
   13.4988  -12.2536  -16.4947 O   0  0  0  0  0  0  0  0  0  0  0  0
   17.6875  -12.0982  -15.4702 C   0  0  0  0  0  0  0  0  0  0  0  0
   18.1896  -12.4595  -14.3865 O   0  0  0  0  0  0  0  0  0  0  0  0
   13.0665  -12.8504  -14.3635 O   0  0  0  0  0  0  0  0  0  0  0  0
   20.7727  -12.8264  -17.2836 C   0  0  0  0  0  0  0  0  0  0  0  0
   20.6739  -11.3409  -17.1179 C   0  0  1  0  0  0  0  0  0  0  0  0
   20.3078  -10.7786  -18.4814 C   0  0  0  0  0  0  0  0  0  0  0  0
   19.7969  -10.8320  -16.0339 C   0  0  2  0  0  0  0  0  0  0  0  0
   18.3970  -11.2110  -16.3103 N   0  0  0  0  0  0  0  0  0  0  0  0
   19.8811   -9.3841  -15.8250 C   0  0  0  0  0  0  0  0  0  0  0  0
   19.0155   -8.5731  -16.2819 O   0  0  0  0  0  0  0  0  0  0  0  0
   20.9298   -8.7860  -15.0919 N   0  0  0  0  0  0  0  0  0  0  0  0
   21.0080   -7.3078  -15.0119 C   0  0  1  0  0  0  0  0  0  0  0  0
   21.7673   -6.9510  -13.7273 C   0  0  0  0  0  0  0  0  0  0  0  0
   21.9833   -5.5095  -13.5589 C   0  0  0  0  0  0  0  0  0  0  0  0
   21.3531   -4.5932  -14.1379 O   0  0  0  0  0  0  0  0  0  0  0  0
   21.7482   -6.8603  -16.2076 C   0  0  0  0  0  0  0  0  0  0  0  0
   21.4778   -5.6865  -16.9155 O   0  0  0  0  0  0  0  0  0  0  0  0
   22.9930   -5.1270  -12.6631 O   0  0  0  0  0  0  0  0  0  0  0  0
   22.7049   -7.5385  -16.6786 O   0  0  0  0  0  0  0  0  0  0  0  0
  2  1  1  1
  2  3  1  0
  4  3  1  0
  4  8  1  0
  5  4  2  0
  6  2  1  0
  6  7  2  0
 10  9  1  6
 10 12  1  0
 10 11  1  0
 12 13  1  6
 13  6  1  0
 14 12  1  0
 15 14  2  0
 16 14  1  0
 17 21  1  0
 17 16  1  0
 17 18  1  1
 19 20  2  0
 19 18  1  0
 21 22  1  0
 23 19  1  0
 24 21  2  0
M  END
$$$$
