DVD.pdb
     RDKit          3D

 24 23  0  0  1  0  0  0  0  0999 V2000
   25.3565   -8.5517  -19.5519 N   0  0  0  0  0  0  0  0  0  0  0  0
   24.9749   -7.7723  -18.4176 C   0  0  1  0  0  0  0  0  0  0  0  0
   24.8508   -6.2966  -18.7485 C   0  0  0  0  0  0  0  0  0  0  0  0
   26.1620   -5.6783  -19.0093 C   0  0  0  0  0  0  0  0  0  0  0  0
   26.3213   -4.4429  -19.1995 O   0  0  0  0  0  0  0  0  0  0  0  0
   23.7094   -8.2419  -17.7854 C   0  0  0  0  0  0  0  0  0  0  0  0
   22.7743   -8.5725  -18.5426 O   0  0  0  0  0  0  0  0  0  0  0  0
   27.2779   -6.4795  -19.0501 O   0  0  0  0  0  0  0  0  0  0  0  0
   23.3848  -11.0386  -15.1627 C   0  0  0  0  0  0  0  0  0  0  0  0
   22.6066   -9.8307  -14.7392 C   0  0  1  0  0  0  0  0  0  0  0  0
   23.3480   -9.2340  -13.5545 C   0  0  0  0  0  0  0  0  0  0  0  0
   22.2883   -8.8238  -15.7822 C   0  0  2  0  0  0  0  0  0  0  0  0
   23.5394   -8.3226  -16.3851 N   0  0  0  0  0  0  0  0  0  0  0  0
   21.4890   -7.6941  -15.3005 C   0  0  0  0  0  0  0  0  0  0  0  0
   21.9712   -6.7756  -14.5662 O   0  0  0  0  0  0  0  0  0  0  0  0
   20.1229   -7.5417  -15.6259 N   0  0  0  0  0  0  0  0  0  0  0  0
   19.3807   -6.3672  -15.1090 C   0  0  1  0  0  0  0  0  0  0  0  0
   19.4611   -5.2622  -16.1704 C   0  0  0  0  0  0  0  0  0  0  0  0
   18.6604   -4.0776  -15.8407 C   0  0  0  0  0  0  0  0  0  0  0  0
   18.0840   -3.8529  -14.7502 O   0  0  0  0  0  0  0  0  0  0  0  0
   17.9867   -6.8068  -14.9051 C   0  0  0  0  0  0  0  0  0  0  0  0
   17.1155   -6.2682  -13.9550 O   0  0  0  0  0  0  0  0  0  0  0  0
   18.5317   -3.1079  -16.8463 O   0  0  0  0  0  0  0  0  0  0  0  0
   17.4817   -7.7310  -15.6036 O   0  0  0  0  0  0  0  0  0  0  0  0
  2  1  1  6
  2  3  1  0
  4  3  1  0
  4  8  1  0
  5  4  2  0
  6  2  1  0
  6  7  2  0
 10  9  1  6
 10 12  1  0
 10 11  1  0
 12 13  1  1
 13  6  1  0
 14 12  1  0
 15 14  2  0
 16 14  1  0
 17 21  1  0
 17 16  1  0
 17 18  1  6
 19 20  2  0
 19 18  1  0
 21 22  1  0
 23 19  1  0
 24 21  2  0
M  END
$$$$
