DVD.pdb
     RDKit          3D

 24 23  0  0  1  0  0  0  0  0999 V2000
   17.6888   -8.7773  -12.3640 N   0  0  0  0  0  0  0  0  0  0  0  0
   18.0503   -9.0939  -13.7090 C   0  0  1  0  0  0  0  0  0  0  0  0
   16.9598   -8.7295  -14.6992 C   0  0  0  0  0  0  0  0  0  0  0  0
   15.7209   -9.4890  -14.4586 C   0  0  0  0  0  0  0  0  0  0  0  0
   14.6332   -8.9525  -14.1168 O   0  0  0  0  0  0  0  0  0  0  0  0
   19.3310   -8.4607  -14.1340 C   0  0  0  0  0  0  0  0  0  0  0  0
   19.5717   -7.3095  -13.7170 O   0  0  0  0  0  0  0  0  0  0  0  0
   15.7388  -10.8547  -14.6112 O   0  0  0  0  0  0  0  0  0  0  0  0
   22.8636   -9.8086  -13.5883 C   0  0  0  0  0  0  0  0  0  0  0  0
   22.6586   -9.4313  -15.0234 C   0  0  1  0  0  0  0  0  0  0  0  0
   22.5529  -10.7330  -15.8004 C   0  0  0  0  0  0  0  0  0  0  0  0
   21.5534   -8.4893  -15.3303 C   0  0  2  0  0  0  0  0  0  0  0  0
   20.2612   -9.1097  -14.9764 N   0  0  0  0  0  0  0  0  0  0  0  0
   21.5171   -8.0419  -16.7251 C   0  0  0  0  0  0  0  0  0  0  0  0
   21.0985   -8.7793  -17.6719 O   0  0  0  0  0  0  0  0  0  0  0  0
   21.9392   -6.7519  -17.1162 N   0  0  0  0  0  0  0  0  0  0  0  0
   21.8941   -6.3774  -18.5498 C   0  0  1  0  0  0  0  0  0  0  0  0
   21.1321   -5.0503  -18.6601 C   0  0  0  0  0  0  0  0  0  0  0  0
   21.0820   -4.5186  -20.0268 C   0  0  0  0  0  0  0  0  0  0  0  0
   21.9207   -3.7503  -20.5543 O   0  0  0  0  0  0  0  0  0  0  0  0
   23.2947   -6.2233  -18.9886 C   0  0  0  0  0  0  0  0  0  0  0  0
   23.7291   -6.3364  -20.3117 O   0  0  0  0  0  0  0  0  0  0  0  0
   19.9884   -4.9116  -20.8130 O   0  0  0  0  0  0  0  0  0  0  0  0
   24.2170   -5.9715  -18.1622 O   0  0  0  0  0  0  0  0  0  0  0  0
  2  1  1  1
  2  3  1  0
  4  3  1  0
  4  8  1  0
  5  4  2  0
  6  2  1  0
  6  7  2  0
 10  9  1  1
 10 12  1  0
 10 11  1  0
 12 13  1  6
 13  6  1  0
 14 12  1  0
 15 14  2  0
 16 14  1  0
 17 21  1  0
 17 16  1  0
 17 18  1  1
 19 20  2  0
 19 18  1  0
 21 22  1  0
 23 19  1  0
 24 21  2  0
M  END
$$$$
