AMY.pdb
     RDKit          3D

 26 26  0  0  1  0  0  0  0  0999 V2000
   27.1852  -17.5643  -20.2876 C   0  0  0  0  0  0  0  0  0  0  0  0
   26.2780  -18.6062  -19.6536 C   0  0  2  0  0  0  0  0  0  0  0  0
   25.2271  -18.9635  -20.5817 N   0  0  0  0  0  0  0  0  0  0  0  0
   25.6519  -18.1014  -18.4058 C   0  0  0  0  0  0  0  0  0  0  0  0
   26.3886  -17.7826  -17.4455 O   0  0  0  0  0  0  0  0  0  0  0  0
   21.0214  -13.6724  -18.1669 C   0  0  0  0  0  0  0  0  0  0  0  0
   22.3140  -14.1912  -19.2943 S   0  0  0  0  0  0  0  0  0  0  0  0
   22.9854  -15.8224  -18.9002 C   0  0  0  0  0  0  0  0  0  0  0  0
   22.9933  -16.1127  -17.4183 C   0  0  0  0  0  0  0  0  0  0  0  0
   23.5797  -17.4510  -17.1334 C   0  0  2  0  0  0  0  0  0  0  0  0
   24.2301  -17.9844  -18.3066 N   0  0  0  0  0  0  0  0  0  0  0  0
   22.5308  -18.4461  -16.7217 C   0  0  0  0  0  0  0  0  0  0  0  0
   22.0476  -19.2730  -17.5384 O   0  0  0  0  0  0  0  0  0  0  0  0
   18.1862  -25.2285  -14.1363 O   0  0  0  0  0  0  0  0  0  0  0  0
   19.0627  -24.1535  -14.3858 C   0  0  0  0  0  0  0  0  0  0  0  0
   18.9558  -23.4478  -15.5674 C   0  0  0  0  0  0  0  0  0  0  0  0
   19.8136  -22.3847  -15.8281 C   0  0  0  0  0  0  0  0  0  0  0  0
   20.7889  -22.0040  -14.9248 C   0  0  0  0  0  0  0  0  0  0  0  0
   21.6842  -20.8813  -15.2103 C   0  0  0  0  0  0  0  0  0  0  0  0
   21.0526  -19.5289  -14.9985 C   0  0  2  0  0  0  0  0  0  0  0  0
   22.0238  -18.5114  -15.3858 N   0  0  0  0  0  0  0  0  0  0  0  0
   20.4838  -19.3226  -13.6713 C   0  0  0  0  0  0  0  0  0  0  0  0
   19.1865  -19.6656  -13.2949 O   0  0  0  0  0  0  0  0  0  0  0  0
   20.8702  -22.7273  -13.7553 C   0  0  0  0  0  0  0  0  0  0  0  0
   20.0218  -23.7842  -13.4894 C   0  0  0  0  0  0  0  0  0  0  0  0
   21.1894  -18.7992  -12.7817 O   0  0  0  0  0  0  0  0  0  0  0  0
  2  1  1  6
  2  3  1  0
  4  2  1  0
  5  4  2  0
  7  6  1  0
  7  8  1  0
  9  8  1  0
 10  9  1  6
 10 11  1  0
 11  4  1  0
 12 10  1  0
 12 21  1  0
 13 12  2  0
 15 14  1  0
 16 15  2  0
 17 16  1  0
 18 17  2  0
 18 24  1  0
 19 18  1  0
 20 22  1  0
 20 21  1  0
 20 19  1  1
 22 23  1  0
 24 25  2  0
 25 15  1  0
 26 22  2  0
M  END
$$$$
