AMY.pdb
     RDKit          3D

 26 26  0  0  1  0  0  0  0  0999 V2000
   25.9762  -30.9173  -24.2021 C   0  0  0  0  0  0  0  0  0  0  0  0
   27.0604  -31.8716  -23.7287 C   0  0  2  0  0  0  0  0  0  0  0  0
   27.0333  -33.0740  -24.5330 N   0  0  0  0  0  0  0  0  0  0  0  0
   26.8720  -32.2529  -22.3063 C   0  0  0  0  0  0  0  0  0  0  0  0
   26.0661  -33.1689  -22.0272 O   0  0  0  0  0  0  0  0  0  0  0  0
   31.6585  -31.3559  -17.7758 C   0  0  0  0  0  0  0  0  0  0  0  0
   30.4913  -32.5245  -17.0805 S   0  0  0  0  0  0  0  0  0  0  0  0
   28.8539  -32.4271  -17.8394 C   0  0  0  0  0  0  0  0  0  0  0  0
   28.9002  -31.9894  -19.2839 C   0  0  0  0  0  0  0  0  0  0  0  0
   27.5422  -31.9954  -19.8937 C   0  0  2  0  0  0  0  0  0  0  0  0
   27.6004  -31.5809  -21.2753 N   0  0  0  0  0  0  0  0  0  0  0  0
   26.6080  -31.0506  -19.1904 C   0  0  0  0  0  0  0  0  0  0  0  0
   26.8077  -29.8080  -19.1817 O   0  0  0  0  0  0  0  0  0  0  0  0
   19.4527  -26.9019  -16.4106 O   0  0  0  0  0  0  0  0  0  0  0  0
   20.4152  -27.7636  -16.9737 C   0  0  0  0  0  0  0  0  0  0  0  0
   21.4556  -27.2339  -17.7103 C   0  0  0  0  0  0  0  0  0  0  0  0
   22.4131  -28.0713  -18.2726 C   0  0  0  0  0  0  0  0  0  0  0  0
   22.3557  -29.4438  -18.1148 C   0  0  0  0  0  0  0  0  0  0  0  0
   23.3714  -30.3143  -18.7100 C   0  0  0  0  0  0  0  0  0  0  0  0
   24.5582  -30.5664  -17.8152 C   0  0  2  0  0  0  0  0  0  0  0  0
   25.4442  -31.5058  -18.4944 N   0  0  0  0  0  0  0  0  0  0  0  0
   24.2213  -30.9585  -16.4513 C   0  0  0  0  0  0  0  0  0  0  0  0
   23.9993  -30.0749  -15.3967 O   0  0  0  0  0  0  0  0  0  0  0  0
   21.3061  -29.9417  -17.3747 C   0  0  0  0  0  0  0  0  0  0  0  0
   20.3516  -29.1163  -16.8132 C   0  0  0  0  0  0  0  0  0  0  0  0
   24.1174  -32.1736  -16.1757 O   0  0  0  0  0  0  0  0  0  0  0  0
  2  1  1  6
  2  3  1  0
  4  2  1  0
  5  4  2  0
  7  6  1  0
  7  8  1  0
  9  8  1  0
 10  9  1  1
 10 11  1  0
 11  4  1  0
 12 10  1  0
 12 21  1  0
 13 12  2  0
 15 14  1  0
 16 15  2  0
 17 16  1  0
 18 17  2  0
 18 24  1  0
 19 18  1  0
 20 22  1  0
 20 21  1  0
 20 19  1  6
 22 23  1  0
 24 25  2  0
 25 15  1  0
 26 22  2  0
M  END
$$$$
