AMY.pdb
     RDKit          3D

 26 26  0  0  1  0  0  0  0  0999 V2000
   26.3689  -19.1346  -17.8158 C   0  0  0  0  0  0  0  0  0  0  0  0
   25.3237  -20.2146  -18.0437 C   0  0  2  0  0  0  0  0  0  0  0  0
   24.4040  -19.7892  -19.0765 N   0  0  0  0  0  0  0  0  0  0  0  0
   24.5479  -20.4955  -16.8096 C   0  0  0  0  0  0  0  0  0  0  0  0
   23.7046  -19.6562  -16.4210 O   0  0  0  0  0  0  0  0  0  0  0  0
   22.5627  -26.4260  -14.0197 C   0  0  0  0  0  0  0  0  0  0  0  0
   24.0063  -26.1438  -15.0431 S   0  0  0  0  0  0  0  0  0  0  0  0
   24.6018  -24.4387  -14.9738 C   0  0  0  0  0  0  0  0  0  0  0  0
   23.4829  -23.4246  -14.9731 C   0  0  0  0  0  0  0  0  0  0  0  0
   24.0129  -22.0359  -14.8920 C   0  0  2  0  0  0  0  0  0  0  0  0
   24.7650  -21.7056  -16.0791 N   0  0  0  0  0  0  0  0  0  0  0  0
   24.9387  -21.8570  -13.7212 C   0  0  0  0  0  0  0  0  0  0  0  0
   26.0061  -22.5156  -13.6161 O   0  0  0  0  0  0  0  0  0  0  0  0
   29.0655  -18.4758  -16.1531 O   0  0  0  0  0  0  0  0  0  0  0  0
   28.3495  -18.7571  -14.9723 C   0  0  0  0  0  0  0  0  0  0  0  0
   28.8444  -19.6882  -14.0813 C   0  0  0  0  0  0  0  0  0  0  0  0
   28.1492  -19.9768  -12.9119 C   0  0  0  0  0  0  0  0  0  0  0  0
   26.9554  -19.3494  -12.6067 C   0  0  0  0  0  0  0  0  0  0  0  0
   26.2343  -19.6607  -11.3710 C   0  0  0  0  0  0  0  0  0  0  0  0
   25.4446  -20.9434  -11.4329 C   0  0  2  0  0  0  0  0  0  0  0  0
   24.6628  -20.9332  -12.6646 N   0  0  0  0  0  0  0  0  0  0  0  0
   24.6569  -21.2327  -10.2399 C   0  0  0  0  0  0  0  0  0  0  0  0
   25.1839  -21.4755   -8.9728 O   0  0  0  0  0  0  0  0  0  0  0  0
   26.4879  -18.4256  -13.5152 C   0  0  0  0  0  0  0  0  0  0  0  0
   27.1728  -18.1337  -14.6786 C   0  0  0  0  0  0  0  0  0  0  0  0
   23.4104  -21.2738  -10.3291 O   0  0  0  0  0  0  0  0  0  0  0  0
  2  1  1  1
  2  3  1  0
  4  2  1  0
  5  4  2  0
  7  6  1  0
  7  8  1  0
  9  8  1  0
 10  9  1  6
 10 11  1  0
 11  4  1  0
 12 10  1  0
 12 21  1  0
 13 12  2  0
 15 14  1  0
 16 15  2  0
 17 16  1  0
 18 17  2  0
 18 24  1  0
 19 18  1  0
 20 22  1  0
 20 21  1  0
 20 19  1  1
 22 23  1  0
 24 25  2  0
 25 15  1  0
 26 22  2  0
M  END
$$$$
