AMY.pdb
     RDKit          3D

 26 26  0  0  1  0  0  0  0  0999 V2000
   25.3945  -13.6390  -19.2977 C   0  0  0  0  0  0  0  0  0  0  0  0
   26.3679  -13.8169  -18.1438 C   0  0  2  0  0  0  0  0  0  0  0  0
   26.0601  -15.0392  -17.4335 N   0  0  0  0  0  0  0  0  0  0  0  0
   26.2950  -12.6851  -17.1858 C   0  0  0  0  0  0  0  0  0  0  0  0
   25.4652  -12.7370  -16.2503 O   0  0  0  0  0  0  0  0  0  0  0  0
   29.8905   -7.0007  -19.7416 C   0  0  0  0  0  0  0  0  0  0  0  0
   29.8412   -7.8742  -18.1778 S   0  0  0  0  0  0  0  0  0  0  0  0
   28.4028   -8.9564  -18.0157 C   0  0  0  0  0  0  0  0  0  0  0  0
   28.2459   -9.5215  -16.6241 C   0  0  0  0  0  0  0  0  0  0  0  0
   27.0276  -10.3707  -16.5204 C   0  0  2  0  0  0  0  0  0  0  0  0
   27.1595  -11.5556  -17.3344 N   0  0  0  0  0  0  0  0  0  0  0  0
   25.7981   -9.6468  -16.9941 C   0  0  0  0  0  0  0  0  0  0  0  0
   25.4709   -9.6252  -18.2092 O   0  0  0  0  0  0  0  0  0  0  0  0
   17.9862   -7.0898  -19.2277 O   0  0  0  0  0  0  0  0  0  0  0  0
   19.2054   -7.6180  -18.7578 C   0  0  0  0  0  0  0  0  0  0  0  0
   19.2190   -8.3790  -17.6062 C   0  0  0  0  0  0  0  0  0  0  0  0
   20.4142   -8.9068  -17.1297 C   0  0  0  0  0  0  0  0  0  0  0  0
   21.6125   -8.6898  -17.7846 C   0  0  0  0  0  0  0  0  0  0  0  0
   22.8637   -9.2531  -17.2737 C   0  0  0  0  0  0  0  0  0  0  0  0
   23.7494   -8.2457  -16.5855 C   0  0  2  0  0  0  0  0  0  0  0  0
   24.9331   -8.9446  -16.0969 N   0  0  0  0  0  0  0  0  0  0  0  0
   23.0817   -7.4404  -15.5691 C   0  0  0  0  0  0  0  0  0  0  0  0
   22.4006   -6.2491  -15.8124 O   0  0  0  0  0  0  0  0  0  0  0  0
   21.5662   -7.9269  -18.9305 C   0  0  0  0  0  0  0  0  0  0  0  0
   20.3830   -7.3995  -19.4097 C   0  0  0  0  0  0  0  0  0  0  0  0
   23.1054   -7.8216  -14.3785 O   0  0  0  0  0  0  0  0  0  0  0  0
  2  1  1  6
  2  3  1  0
  4  2  1  0
  5  4  2  0
  7  6  1  0
  7  8  1  0
  9  8  1  0
 10  9  1  6
 10 11  1  0
 11  4  1  0
 12 10  1  0
 12 21  1  0
 13 12  2  0
 15 14  1  0
 16 15  2  0
 17 16  1  0
 18 17  2  0
 18 24  1  0
 19 18  1  0
 20 22  1  0
 20 21  1  0
 20 19  1  1
 22 23  1  0
 24 25  2  0
 25 15  1  0
 26 22  2  0
M  END
$$$$
