AMY.pdb
     RDKit          3D

 26 26  0  0  1  0  0  0  0  0999 V2000
   26.7177  -18.5625  -19.4447 C   0  0  0  0  0  0  0  0  0  0  0  0
   25.7388  -17.5499  -20.0164 C   0  0  2  0  0  0  0  0  0  0  0  0
   26.4403  -16.6402  -20.8960 N   0  0  0  0  0  0  0  0  0  0  0  0
   25.0827  -16.7573  -18.9462 C   0  0  0  0  0  0  0  0  0  0  0  0
   24.2982  -17.3347  -18.1603 O   0  0  0  0  0  0  0  0  0  0  0  0
   29.4430  -13.0130  -17.0674 C   0  0  0  0  0  0  0  0  0  0  0  0
   28.0866  -12.9800  -15.8968 S   0  0  0  0  0  0  0  0  0  0  0  0
   26.7550  -14.1253  -16.3227 C   0  0  0  0  0  0  0  0  0  0  0  0
   25.7599  -13.5354  -17.2934 C   0  0  0  0  0  0  0  0  0  0  0  0
   24.7837  -14.5600  -17.7552 C   0  0  2  0  0  0  0  0  0  0  0  0
   25.3444  -15.3570  -18.8202 N   0  0  0  0  0  0  0  0  0  0  0  0
   23.5258  -13.9343  -18.2901 C   0  0  0  0  0  0  0  0  0  0  0  0
   23.4940  -13.3731  -19.4163 O   0  0  0  0  0  0  0  0  0  0  0  0
   18.4042  -18.8957  -16.1762 O   0  0  0  0  0  0  0  0  0  0  0  0
   18.8931  -17.7720  -16.8724 C   0  0  0  0  0  0  0  0  0  0  0  0
   20.1333  -17.8314  -17.4759 C   0  0  0  0  0  0  0  0  0  0  0  0
   20.6295  -16.7308  -18.1662 C   0  0  0  0  0  0  0  0  0  0  0  0
   19.9070  -15.5563  -18.2699 C   0  0  0  0  0  0  0  0  0  0  0  0
   20.4399  -14.4055  -19.0015 C   0  0  0  0  0  0  0  0  0  0  0  0
   21.0815  -13.3657  -18.1183 C   0  0  2  0  0  0  0  0  0  0  0  0
   22.2985  -13.9405  -17.5553 N   0  0  0  0  0  0  0  0  0  0  0  0
   20.1928  -12.7802  -17.1209 C   0  0  0  0  0  0  0  0  0  0  0  0
   19.0808  -11.9901  -17.4059 O   0  0  0  0  0  0  0  0  0  0  0  0
   18.6736  -15.5284  -17.6575 C   0  0  0  0  0  0  0  0  0  0  0  0
   18.1742  -16.6174  -16.9702 C   0  0  0  0  0  0  0  0  0  0  0  0
   20.4205  -12.9843  -15.9086 O   0  0  0  0  0  0  0  0  0  0  0  0
  2  1  1  1
  2  3  1  0
  4  2  1  0
  5  4  2  0
  7  6  1  0
  7  8  1  0
  9  8  1  0
 10  9  1  6
 10 11  1  0
 11  4  1  0
 12 10  1  0
 12 21  1  0
 13 12  2  0
 15 14  1  0
 16 15  2  0
 17 16  1  0
 18 17  2  0
 18 24  1  0
 19 18  1  0
 20 22  1  0
 20 21  1  0
 20 19  1  1
 22 23  1  0
 24 25  2  0
 25 15  1  0
 26 22  2  0
M  END
$$$$
