DND.pdb
     RDKit          3D

 25 24  0  0  1  0  0  0  0  0999 V2000
   26.8887  -20.0014  -15.3492 N   0  0  0  0  0  0  0  0  0  0  0  0
   26.5643  -21.4058  -15.4307 C   0  0  1  0  0  0  0  0  0  0  0  0
   27.7886  -22.2422  -15.2276 C   0  0  0  0  0  0  0  0  0  0  0  0
   28.7040  -22.0422  -16.3588 C   0  0  0  0  0  0  0  0  0  0  0  0
   28.6282  -21.0143  -17.0790 O   0  0  0  0  0  0  0  0  0  0  0  0
   25.4682  -21.7764  -14.4888 C   0  0  0  0  0  0  0  0  0  0  0  0
   25.0445  -22.9454  -14.3922 O   0  0  0  0  0  0  0  0  0  0  0  0
   29.6965  -22.9576  -16.7028 O   0  0  0  0  0  0  0  0  0  0  0  0
   25.9189  -21.4082  -10.0303 N   0  0  0  0  0  0  0  0  0  0  0  0
   24.5604  -21.0855  -10.3081 C   0  0  0  0  0  0  0  0  0  0  0  0
   23.7098  -21.5350   -9.5195 O   0  0  0  0  0  0  0  0  0  0  0  0
   24.1717  -20.2663  -11.4615 C   0  0  0  0  0  0  0  0  0  0  0  0
   23.8446  -21.0027  -12.7043 C   0  0  2  0  0  0  0  0  0  0  0  0
   24.8918  -20.7687  -13.6799 N   0  0  0  0  0  0  0  0  0  0  0  0
   22.5073  -20.7162  -13.2256 C   0  0  0  0  0  0  0  0  0  0  0  0
   22.1583  -19.5995  -13.6607 O   0  0  0  0  0  0  0  0  0  0  0  0
   21.4713  -21.7197  -13.2776 N   0  0  0  0  0  0  0  0  0  0  0  0
   20.1712  -21.4725  -13.8246 C   0  0  1  0  0  0  0  0  0  0  0  0
   19.5920  -22.6581  -14.5535 C   0  0  0  0  0  0  0  0  0  0  0  0
   18.2713  -22.4257  -15.1189 C   0  0  0  0  0  0  0  0  0  0  0  0
   17.7622  -21.2860  -15.1116 O   0  0  0  0  0  0  0  0  0  0  0  0
   19.2699  -20.9719  -12.7616 C   0  0  0  0  0  0  0  0  0  0  0  0
   19.3243  -21.4977  -11.6248 O   0  0  0  0  0  0  0  0  0  0  0  0
   17.5543  -23.4649  -15.6759 O   0  0  0  0  0  0  0  0  0  0  0  0
   18.3552  -19.9449  -12.9401 O   0  0  0  0  0  0  0  0  0  0  0  0
  2  3  1  0
  2  1  1  1
  3  4  1  0
  4  8  1  0
  4  5  2  0
  6  7  2  0
  6  2  1  0
  9 10  1  0
 10 11  2  0
 10 12  1  0
 13 12  1  1
 13 15  1  0
 13 14  1  0
 14  6  1  0
 15 17  1  0
 16 15  2  0
 17 18  1  0
 18 22  1  0
 18 19  1  1
 20 19  1  0
 21 20  2  0
 22 23  2  0
 22 25  1  0
 24 20  1  0
M  END
$$$$
