DND.pdb
     RDKit          3D

 25 24  0  0  1  0  0  0  0  0999 V2000
   16.3150  -16.2173  -13.7129 N   0  0  0  0  0  0  0  0  0  0  0  0
   17.3310  -15.9188  -14.6940 C   0  0  1  0  0  0  0  0  0  0  0  0
   17.4065  -17.0041  -15.7216 C   0  0  0  0  0  0  0  0  0  0  0  0
   17.8346  -18.2523  -15.0762 C   0  0  0  0  0  0  0  0  0  0  0  0
   18.4086  -18.2388  -13.9575 O   0  0  0  0  0  0  0  0  0  0  0  0
   17.1281  -14.5751  -15.3098 C   0  0  0  0  0  0  0  0  0  0  0  0
   17.9608  -14.0708  -16.0893 O   0  0  0  0  0  0  0  0  0  0  0  0
   17.6381  -19.5079  -15.6472 O   0  0  0  0  0  0  0  0  0  0  0  0
   13.8640  -14.1856  -17.3474 N   0  0  0  0  0  0  0  0  0  0  0  0
   13.2829  -13.2892  -16.4063 C   0  0  0  0  0  0  0  0  0  0  0  0
   12.0401  -13.2536  -16.3667 O   0  0  0  0  0  0  0  0  0  0  0  0
   14.0972  -12.4462  -15.5239 C   0  0  0  0  0  0  0  0  0  0  0  0
   15.5651  -12.6085  -15.6387 C   0  0  2  0  0  0  0  0  0  0  0  0
   15.9530  -13.8508  -14.9990 N   0  0  0  0  0  0  0  0  0  0  0  0
   16.3260  -11.4566  -15.1526 C   0  0  0  0  0  0  0  0  0  0  0  0
   16.8006  -11.3763  -14.0008 O   0  0  0  0  0  0  0  0  0  0  0  0
   16.5908  -10.3050  -15.9813 N   0  0  0  0  0  0  0  0  0  0  0  0
   17.3158   -9.1600  -15.5189 C   0  0  1  0  0  0  0  0  0  0  0  0
   18.4922   -8.8027  -16.3911 C   0  0  0  0  0  0  0  0  0  0  0  0
   19.1717   -7.5749  -16.0053 C   0  0  0  0  0  0  0  0  0  0  0  0
   19.5419   -7.3899  -14.8277 O   0  0  0  0  0  0  0  0  0  0  0  0
   16.3863   -8.0217  -15.3361 C   0  0  0  0  0  0  0  0  0  0  0  0
   16.4560   -7.3466  -14.2820 O   0  0  0  0  0  0  0  0  0  0  0  0
   19.4204   -6.5885  -16.9378 O   0  0  0  0  0  0  0  0  0  0  0  0
   15.4286   -7.6453  -16.2658 O   0  0  0  0  0  0  0  0  0  0  0  0
  2  3  1  0
  2  1  1  1
  3  4  1  0
  4  8  1  0
  4  5  2  0
  6  7  2  0
  6  2  1  0
  9 10  1  0
 10 11  2  0
 10 12  1  0
 13 12  1  1
 13 15  1  0
 13 14  1  0
 14  6  1  0
 15 17  1  0
 16 15  2  0
 17 18  1  0
 18 22  1  0
 18 19  1  6
 20 19  1  0
 21 20  2  0
 22 23  2  0
 22 25  1  0
 24 20  1  0
M  END
$$$$
