DND.pdb
     RDKit          3D

 25 24  0  0  1  0  0  0  0  0999 V2000
   17.8035  -11.0346  -14.1738 N   0  0  0  0  0  0  0  0  0  0  0  0
   18.0184  -10.1672  -15.3076 C   0  0  1  0  0  0  0  0  0  0  0  0
   16.7125   -9.6896  -15.8609 C   0  0  0  0  0  0  0  0  0  0  0  0
   15.9551  -10.8391  -16.3735 C   0  0  0  0  0  0  0  0  0  0  0  0
   15.9228  -11.9263  -15.7427 O   0  0  0  0  0  0  0  0  0  0  0  0
   18.9342   -9.0374  -14.9746 C   0  0  0  0  0  0  0  0  0  0  0  0
   18.7422   -8.2971  -13.9895 O   0  0  0  0  0  0  0  0  0  0  0  0
   15.2369  -10.8035  -17.5669 O   0  0  0  0  0  0  0  0  0  0  0  0
   22.3917   -9.7643  -14.0269 N   0  0  0  0  0  0  0  0  0  0  0  0
   22.9792   -9.2827  -15.2310 C   0  0  0  0  0  0  0  0  0  0  0  0
   24.0531   -9.8083  -15.5744 O   0  0  0  0  0  0  0  0  0  0  0  0
   22.3595   -8.2223  -16.0335 C   0  0  0  0  0  0  0  0  0  0  0  0
   21.0316   -7.7504  -15.5774 C   0  0  2  0  0  0  0  0  0  0  0  0
   20.0560   -8.7994  -15.8034 N   0  0  0  0  0  0  0  0  0  0  0  0
   20.6309   -6.4668  -16.1554 C   0  0  0  0  0  0  0  0  0  0  0  0
   20.3459   -6.3088  -17.3604 O   0  0  0  0  0  0  0  0  0  0  0  0
   20.5327   -5.2643  -15.3633 N   0  0  0  0  0  0  0  0  0  0  0  0
   20.0877   -4.0120  -15.8964 C   0  0  1  0  0  0  0  0  0  0  0  0
   18.6889   -3.6430  -15.4726 C   0  0  0  0  0  0  0  0  0  0  0  0
   18.2443   -2.3410  -15.9468 C   0  0  0  0  0  0  0  0  0  0  0  0
   18.5083   -1.9558  -17.1044 O   0  0  0  0  0  0  0  0  0  0  0  0
   21.0708   -2.9537  -15.5702 C   0  0  0  0  0  0  0  0  0  0  0  0
   22.0206   -3.2268  -14.7989 O   0  0  0  0  0  0  0  0  0  0  0  0
   17.5195   -1.5045  -15.1225 O   0  0  0  0  0  0  0  0  0  0  0  0
   21.0119   -1.6603  -16.0674 O   0  0  0  0  0  0  0  0  0  0  0  0
  2  3  1  0
  2  1  1  1
  3  4  1  0
  4  8  1  0
  4  5  2  0
  6  7  2  0
  6  2  1  0
  9 10  1  0
 10 11  2  0
 10 12  1  0
 13 12  1  6
 13 15  1  0
 13 14  1  0
 14  6  1  0
 15 17  1  0
 16 15  2  0
 17 18  1  0
 18 22  1  0
 18 19  1  1
 20 19  1  0
 21 20  2  0
 22 23  2  0
 22 25  1  0
 24 20  1  0
M  END
$$$$
