DND.pdb
     RDKit          3D

 25 24  0  0  1  0  0  0  0  0999 V2000
   20.4873  -11.2401  -18.3123 N   0  0  0  0  0  0  0  0  0  0  0  0
   19.2375  -10.8085  -17.7330 C   0  0  1  0  0  0  0  0  0  0  0  0
   18.4282  -11.9860  -17.2880 C   0  0  0  0  0  0  0  0  0  0  0  0
   18.0062  -12.7557  -18.4659 C   0  0  0  0  0  0  0  0  0  0  0  0
   18.3666  -12.4189  -19.6224 O   0  0  0  0  0  0  0  0  0  0  0  0
   19.4484   -9.8235  -16.6324 C   0  0  0  0  0  0  0  0  0  0  0  0
   18.4961   -9.2841  -16.0344 O   0  0  0  0  0  0  0  0  0  0  0  0
   17.1957  -13.8860  -18.3832 O   0  0  0  0  0  0  0  0  0  0  0  0
   21.2253   -8.5093  -12.2765 N   0  0  0  0  0  0  0  0  0  0  0  0
   22.3354   -9.0154  -13.0102 C   0  0  0  0  0  0  0  0  0  0  0  0
   23.3327   -9.3522  -12.3474 O   0  0  0  0  0  0  0  0  0  0  0  0
   22.3158   -9.1380  -14.4721 C   0  0  0  0  0  0  0  0  0  0  0  0
   21.1116   -8.6112  -15.1550 C   0  0  2  0  0  0  0  0  0  0  0  0
   20.7713   -9.4918  -16.2558 N   0  0  0  0  0  0  0  0  0  0  0  0
   21.2296   -7.2104  -15.5626 C   0  0  0  0  0  0  0  0  0  0  0  0
   21.8005   -6.8395  -16.6089 O   0  0  0  0  0  0  0  0  0  0  0  0
   20.6859   -6.1316  -14.7729 N   0  0  0  0  0  0  0  0  0  0  0  0
   20.8586   -4.7512  -15.1123 C   0  0  1  0  0  0  0  0  0  0  0  0
   19.5781   -3.9571  -15.0643 C   0  0  0  0  0  0  0  0  0  0  0  0
   19.7318   -2.5529  -15.4141 C   0  0  0  0  0  0  0  0  0  0  0  0
   20.7804   -1.9345  -15.1384 O   0  0  0  0  0  0  0  0  0  0  0  0
   21.9189   -4.1584  -14.2654 C   0  0  0  0  0  0  0  0  0  0  0  0
   22.5546   -3.1675  -14.6965 O   0  0  0  0  0  0  0  0  0  0  0  0
   18.7171   -1.8761  -16.0597 O   0  0  0  0  0  0  0  0  0  0  0  0
   22.2624   -4.6316  -13.0079 O   0  0  0  0  0  0  0  0  0  0  0  0
  2  3  1  0
  2  1  1  1
  3  4  1  0
  4  8  1  0
  4  5  2  0
  6  7  2  0
  6  2  1  0
  9 10  1  0
 10 11  2  0
 10 12  1  0
 13 12  1  6
 13 15  1  0
 13 14  1  0
 14  6  1  0
 15 17  1  0
 16 15  2  0
 17 18  1  0
 18 22  1  0
 18 19  1  1
 20 19  1  0
 21 20  2  0
 22 23  2  0
 22 25  1  0
 24 20  1  0
M  END
$$$$
