DND.pdb
     RDKit          3D

 25 24  0  0  1  0  0  0  0  0999 V2000
   16.9447  -12.4815  -14.7581 N   0  0  0  0  0  0  0  0  0  0  0  0
   18.1252  -12.0977  -15.4951 C   0  0  1  0  0  0  0  0  0  0  0  0
   18.2932  -12.9590  -16.7073 C   0  0  0  0  0  0  0  0  0  0  0  0
   18.2952  -14.3706  -16.3010 C   0  0  0  0  0  0  0  0  0  0  0  0
   18.2455  -14.6950  -15.0872 O   0  0  0  0  0  0  0  0  0  0  0  0
   18.1177  -10.6449  -15.8348 C   0  0  0  0  0  0  0  0  0  0  0  0
   18.9879  -10.1308  -16.5654 O   0  0  0  0  0  0  0  0  0  0  0  0
   18.3513  -15.4226  -17.2129 O   0  0  0  0  0  0  0  0  0  0  0  0
   16.3856   -5.5908  -15.7635 N   0  0  0  0  0  0  0  0  0  0  0  0
   15.4450   -6.4715  -15.1582 C   0  0  0  0  0  0  0  0  0  0  0  0
   14.3824   -5.9616  -14.7602 O   0  0  0  0  0  0  0  0  0  0  0  0
   15.7042   -7.9075  -15.0060 C   0  0  0  0  0  0  0  0  0  0  0  0
   17.0184   -8.3883  -15.4915 C   0  0  2  0  0  0  0  0  0  0  0  0
   17.0902   -9.8254  -15.3108 N   0  0  0  0  0  0  0  0  0  0  0  0
   18.1586   -7.6834  -14.9037 C   0  0  0  0  0  0  0  0  0  0  0  0
   18.5137   -7.8121  -13.7139 O   0  0  0  0  0  0  0  0  0  0  0  0
   18.9741   -6.7697  -15.6673 N   0  0  0  0  0  0  0  0  0  0  0  0
   20.1304   -6.1184  -15.1293 C   0  0  1  0  0  0  0  0  0  0  0  0
   21.3911   -6.3948  -15.9081 C   0  0  0  0  0  0  0  0  0  0  0  0
   22.5618   -5.6778  -15.4251 C   0  0  0  0  0  0  0  0  0  0  0  0
   22.4940   -4.9448  -14.4171 O   0  0  0  0  0  0  0  0  0  0  0  0
   19.8650   -4.6685  -14.9869 C   0  0  0  0  0  0  0  0  0  0  0  0
   20.1862   -4.0964  -13.9186 O   0  0  0  0  0  0  0  0  0  0  0  0
   23.7735   -5.7954  -16.0750 O   0  0  0  0  0  0  0  0  0  0  0  0
   19.2761   -3.8875  -15.9701 O   0  0  0  0  0  0  0  0  0  0  0  0
  2  3  1  0
  2  1  1  6
  3  4  1  0
  4  8  1  0
  4  5  2  0
  6  7  2  0
  6  2  1  0
  9 10  1  0
 10 11  2  0
 10 12  1  0
 13 12  1  1
 13 15  1  0
 13 14  1  0
 14  6  1  0
 15 17  1  0
 16 15  2  0
 17 18  1  0
 18 22  1  0
 18 19  1  6
 20 19  1  0
 21 20  2  0
 22 23  2  0
 22 25  1  0
 24 20  1  0
M  END
$$$$
