DND.pdb
     RDKit          3D

 25 24  0  0  1  0  0  0  0  0999 V2000
   26.2237  -20.7194  -17.0935 N   0  0  0  0  0  0  0  0  0  0  0  0
   25.4183  -19.5838  -16.7116 C   0  0  1  0  0  0  0  0  0  0  0  0
   25.5072  -18.5036  -17.7435 C   0  0  0  0  0  0  0  0  0  0  0  0
   26.9056  -18.0730  -17.8734 C   0  0  0  0  0  0  0  0  0  0  0  0
   27.8234  -18.6536  -17.2397 O   0  0  0  0  0  0  0  0  0  0  0  0
   24.0068  -19.9762  -16.4292 C   0  0  0  0  0  0  0  0  0  0  0  0
   23.2211  -20.3209  -17.3344 O   0  0  0  0  0  0  0  0  0  0  0  0
   27.3011  -17.0153  -18.6897 O   0  0  0  0  0  0  0  0  0  0  0  0
   20.1653  -22.1181  -12.9675 N   0  0  0  0  0  0  0  0  0  0  0  0
   20.8131  -20.8763  -12.7120 C   0  0  0  0  0  0  0  0  0  0  0  0
   20.2008  -20.0680  -11.9915 O   0  0  0  0  0  0  0  0  0  0  0  0
   22.1339  -20.5554  -13.2643 C   0  0  0  0  0  0  0  0  0  0  0  0
   22.1690  -20.1839  -14.6977 C   0  0  2  0  0  0  0  0  0  0  0  0
   23.5460  -19.9562  -15.0916 N   0  0  0  0  0  0  0  0  0  0  0  0
   21.2873  -19.0668  -15.0396 C   0  0  0  0  0  0  0  0  0  0  0  0
   21.5254  -17.8792  -14.7375 O   0  0  0  0  0  0  0  0  0  0  0  0
   20.0537  -19.2551  -15.7647 N   0  0  0  0  0  0  0  0  0  0  0  0
   19.1952  -18.1722  -16.1401 C   0  0  1  0  0  0  0  0  0  0  0  0
   18.9490  -18.0891  -17.6250 C   0  0  0  0  0  0  0  0  0  0  0  0
   20.0482  -17.5088  -18.3818 C   0  0  0  0  0  0  0  0  0  0  0  0
   20.5834  -16.4411  -18.0188 O   0  0  0  0  0  0  0  0  0  0  0  0
   17.9352  -18.2433  -15.3653 C   0  0  0  0  0  0  0  0  0  0  0  0
   17.5191  -19.3641  -14.9880 O   0  0  0  0  0  0  0  0  0  0  0  0
   20.5214  -18.1304  -19.5194 O   0  0  0  0  0  0  0  0  0  0  0  0
   17.1717  -17.1373  -15.0228 O   0  0  0  0  0  0  0  0  0  0  0  0
  2  3  1  0
  2  1  1  6
  3  4  1  0
  4  8  1  0
  4  5  2  0
  6  7  2  0
  6  2  1  0
  9 10  1  0
 10 11  2  0
 10 12  1  0
 13 12  1  1
 13 15  1  0
 13 14  1  0
 14  6  1  0
 15 17  1  0
 16 15  2  0
 17 18  1  0
 18 22  1  0
 18 19  1  6
 20 19  1  0
 21 20  2  0
 22 23  2  0
 22 25  1  0
 24 20  1  0
M  END
$$$$
