DND.pdb
     RDKit          3D

 25 24  0  0  1  0  0  0  0  0999 V2000
   17.6941  -11.5245  -13.6380 N   0  0  0  0  0  0  0  0  0  0  0  0
   16.5191  -10.9835  -14.2790 C   0  0  1  0  0  0  0  0  0  0  0  0
   15.3393  -11.8772  -14.0577 C   0  0  0  0  0  0  0  0  0  0  0  0
   15.6340  -13.2102  -14.5999 C   0  0  0  0  0  0  0  0  0  0  0  0
   16.6606  -13.4131  -15.2971 O   0  0  0  0  0  0  0  0  0  0  0  0
   16.2498   -9.5807  -13.8481 C   0  0  0  0  0  0  0  0  0  0  0  0
   15.3315   -8.8993  -14.3459 O   0  0  0  0  0  0  0  0  0  0  0  0
   14.8142  -14.3158  -14.3832 O   0  0  0  0  0  0  0  0  0  0  0  0
   14.8920   -8.1810  -10.3572 N   0  0  0  0  0  0  0  0  0  0  0  0
   16.2284   -7.9080   -9.9492 C   0  0  0  0  0  0  0  0  0  0  0  0
   16.4499   -7.9227   -8.7252 O   0  0  0  0  0  0  0  0  0  0  0  0
   17.2971   -7.6227  -10.9130 C   0  0  0  0  0  0  0  0  0  0  0  0
   16.9115   -7.6532  -12.3429 C   0  0  2  0  0  0  0  0  0  0  0  0
   17.0628   -9.0061  -12.8427 N   0  0  0  0  0  0  0  0  0  0  0  0
   17.6091   -6.6623  -13.1636 C   0  0  0  0  0  0  0  0  0  0  0  0
   18.8358   -6.6929  -13.3927 O   0  0  0  0  0  0  0  0  0  0  0  0
   16.9210   -5.5544  -13.7818 N   0  0  0  0  0  0  0  0  0  0  0  0
   17.5721   -4.6119  -14.6410 C   0  0  1  0  0  0  0  0  0  0  0  0
   17.1976   -4.7659  -16.0931 C   0  0  0  0  0  0  0  0  0  0  0  0
   17.8461   -3.8136  -16.9821 C   0  0  0  0  0  0  0  0  0  0  0  0
   17.6643   -3.8620  -18.2161 O   0  0  0  0  0  0  0  0  0  0  0  0
   17.3360   -3.2374  -14.1431 C   0  0  0  0  0  0  0  0  0  0  0  0
   16.2036   -2.9429  -13.6930 O   0  0  0  0  0  0  0  0  0  0  0  0
   18.6774   -2.8354  -16.4757 O   0  0  0  0  0  0  0  0  0  0  0  0
   18.2971   -2.2375  -14.1405 O   0  0  0  0  0  0  0  0  0  0  0  0
  2  3  1  0
  2  1  1  1
  3  4  1  0
  4  8  1  0
  4  5  2  0
  6  7  2  0
  6  2  1  0
  9 10  1  0
 10 11  2  0
 10 12  1  0
 13 12  1  1
 13 15  1  0
 13 14  1  0
 14  6  1  0
 15 17  1  0
 16 15  2  0
 17 18  1  0
 18 22  1  0
 18 19  1  6
 20 19  1  0
 21 20  2  0
 22 23  2  0
 22 25  1  0
 24 20  1  0
M  END
$$$$
