DND.pdb
     RDKit          3D

 25 24  0  0  1  0  0  0  0  0999 V2000
   14.3039  -11.5298  -12.5877 N   0  0  0  0  0  0  0  0  0  0  0  0
   15.5210  -10.8466  -12.2186 C   0  0  1  0  0  0  0  0  0  0  0  0
   16.5568  -11.0006  -13.2876 C   0  0  0  0  0  0  0  0  0  0  0  0
   16.8222  -12.4295  -13.5016 C   0  0  0  0  0  0  0  0  0  0  0  0
   17.3248  -13.1378  -12.5923 O   0  0  0  0  0  0  0  0  0  0  0  0
   15.2714   -9.4151  -11.8803 C   0  0  0  0  0  0  0  0  0  0  0  0
   14.2532   -8.8098  -12.2704 O   0  0  0  0  0  0  0  0  0  0  0  0
   16.5413  -13.0823  -14.7000 O   0  0  0  0  0  0  0  0  0  0  0  0
   14.2539   -7.8257   -8.6642 N   0  0  0  0  0  0  0  0  0  0  0  0
   15.5748   -7.4045   -8.3405 C   0  0  0  0  0  0  0  0  0  0  0  0
   15.8434   -7.2981   -7.1305 O   0  0  0  0  0  0  0  0  0  0  0  0
   16.5756   -7.1084   -9.3715 C   0  0  0  0  0  0  0  0  0  0  0  0
   16.1462   -7.3101  -10.7747 C   0  0  2  0  0  0  0  0  0  0  0  0
   16.2207   -8.7233  -11.0916 N   0  0  0  0  0  0  0  0  0  0  0  0
   16.8631   -6.4727  -11.7375 C   0  0  0  0  0  0  0  0  0  0  0  0
   17.8195   -6.8775  -12.4301 O   0  0  0  0  0  0  0  0  0  0  0  0
   16.5139   -5.0908  -11.9642 N   0  0  0  0  0  0  0  0  0  0  0  0
   17.0809   -4.3046  -13.0183 C   0  0  1  0  0  0  0  0  0  0  0  0
   17.0493   -4.9897  -14.3608 C   0  0  0  0  0  0  0  0  0  0  0  0
   17.4511   -4.1428  -15.4739 C   0  0  0  0  0  0  0  0  0  0  0  0
   16.6148   -3.7432  -16.3100 O   0  0  0  0  0  0  0  0  0  0  0  0
   16.4324   -2.9737  -13.0518 C   0  0  0  0  0  0  0  0  0  0  0  0
   17.0134   -2.0321  -13.6414 O   0  0  0  0  0  0  0  0  0  0  0  0
   18.7693   -3.7641  -15.6266 O   0  0  0  0  0  0  0  0  0  0  0  0
   15.2070   -2.6929  -12.4664 O   0  0  0  0  0  0  0  0  0  0  0  0
  2  3  1  0
  2  1  1  6
  3  4  1  0
  4  8  1  0
  4  5  2  0
  6  7  2  0
  6  2  1  0
  9 10  1  0
 10 11  2  0
 10 12  1  0
 13 12  1  1
 13 15  1  0
 13 14  1  0
 14  6  1  0
 15 17  1  0
 16 15  2  0
 17 18  1  0
 18 22  1  0
 18 19  1  6
 20 19  1  0
 21 20  2  0
 22 23  2  0
 22 25  1  0
 24 20  1  0
M  END
$$$$
