DND.pdb
     RDKit          3D

 25 24  0  0  1  0  0  0  0  0999 V2000
   20.2333  -21.0648  -11.4699 N   0  0  0  0  0  0  0  0  0  0  0  0
   19.8366  -21.0114  -12.8569 C   0  0  1  0  0  0  0  0  0  0  0  0
   18.3460  -21.0595  -12.9811 C   0  0  0  0  0  0  0  0  0  0  0  0
   17.8673  -22.3801  -12.5511 C   0  0  0  0  0  0  0  0  0  0  0  0
   18.5201  -23.4222  -12.8134 O   0  0  0  0  0  0  0  0  0  0  0  0
   20.4206  -19.8290  -13.5546 C   0  0  0  0  0  0  0  0  0  0  0  0
   19.9526  -18.6811  -13.4178 O   0  0  0  0  0  0  0  0  0  0  0  0
   16.6837  -22.5633  -11.8392 O   0  0  0  0  0  0  0  0  0  0  0  0
   23.8476  -17.0482  -16.5208 N   0  0  0  0  0  0  0  0  0  0  0  0
   24.4200  -18.2373  -15.9866 C   0  0  0  0  0  0  0  0  0  0  0  0
   25.6390  -18.4002  -16.1740 O   0  0  0  0  0  0  0  0  0  0  0  0
   23.6238  -19.2263  -15.2517 C   0  0  0  0  0  0  0  0  0  0  0  0
   22.1684  -18.9628  -15.1712 C   0  0  2  0  0  0  0  0  0  0  0  0
   21.5409  -20.0171  -14.3981 N   0  0  0  0  0  0  0  0  0  0  0  0
   21.5330  -18.7572  -16.4736 C   0  0  0  0  0  0  0  0  0  0  0  0
   21.3832  -19.6612  -17.3214 O   0  0  0  0  0  0  0  0  0  0  0  0
   21.0218  -17.4718  -16.8852 N   0  0  0  0  0  0  0  0  0  0  0  0
   20.2450  -17.2842  -18.0735 C   0  0  1  0  0  0  0  0  0  0  0  0
   19.1111  -16.3061  -17.9004 C   0  0  0  0  0  0  0  0  0  0  0  0
   18.3235  -16.0844  -19.1039 C   0  0  0  0  0  0  0  0  0  0  0  0
   17.9513  -17.0426  -19.8121 O   0  0  0  0  0  0  0  0  0  0  0  0
   21.1354  -16.9180  -19.1987 C   0  0  0  0  0  0  0  0  0  0  0  0
   22.1711  -16.2534  -18.9593 O   0  0  0  0  0  0  0  0  0  0  0  0
   17.9721  -14.8059  -19.4862 O   0  0  0  0  0  0  0  0  0  0  0  0
   20.8984  -17.2654  -20.5202 O   0  0  0  0  0  0  0  0  0  0  0  0
  2  3  1  0
  2  1  1  1
  3  4  1  0
  4  8  1  0
  4  5  2  0
  6  7  2  0
  6  2  1  0
  9 10  1  0
 10 11  2  0
 10 12  1  0
 13 12  1  6
 13 15  1  0
 13 14  1  0
 14  6  1  0
 15 17  1  0
 16 15  2  0
 17 18  1  0
 18 22  1  0
 18 19  1  1
 20 19  1  0
 21 20  2  0
 22 23  2  0
 22 25  1  0
 24 20  1  0
M  END
$$$$
