DND.pdb
     RDKit          3D

 25 24  0  0  1  0  0  0  0  0999 V2000
   17.5288   -9.6880  -16.5603 N   0  0  0  0  0  0  0  0  0  0  0  0
   16.9601  -10.1786  -15.3274 C   0  0  1  0  0  0  0  0  0  0  0  0
   17.0359  -11.6721  -15.2695 C   0  0  0  0  0  0  0  0  0  0  0  0
   16.2876  -12.2384  -16.3996 C   0  0  0  0  0  0  0  0  0  0  0  0
   15.1797  -11.7571  -16.7487 O   0  0  0  0  0  0  0  0  0  0  0  0
   17.5872   -9.5377  -14.1349 C   0  0  0  0  0  0  0  0  0  0  0  0
   17.3398   -9.9157  -12.9725 O   0  0  0  0  0  0  0  0  0  0  0  0
   16.7447  -13.3232  -17.1449 O   0  0  0  0  0  0  0  0  0  0  0  0
   21.2512   -9.6631  -13.6701 N   0  0  0  0  0  0  0  0  0  0  0  0
   21.4822   -8.2885  -13.9597 C   0  0  0  0  0  0  0  0  0  0  0  0
   22.6014   -7.9973  -14.4179 O   0  0  0  0  0  0  0  0  0  0  0  0
   20.4608   -7.2597  -13.7337 C   0  0  0  0  0  0  0  0  0  0  0  0
   19.1437   -7.7415  -13.2573 C   0  0  2  0  0  0  0  0  0  0  0  0
   18.4913   -8.4670  -14.3303 N   0  0  0  0  0  0  0  0  0  0  0  0
   18.3010   -6.6891  -12.6878 C   0  0  0  0  0  0  0  0  0  0  0  0
   17.6236   -5.8968  -13.3746 O   0  0  0  0  0  0  0  0  0  0  0  0
   18.1862   -6.4824  -11.2640 N   0  0  0  0  0  0  0  0  0  0  0  0
   17.2619   -5.5570  -10.6810 C   0  0  1  0  0  0  0  0  0  0  0  0
   15.8354   -5.7814  -11.1137 C   0  0  0  0  0  0  0  0  0  0  0  0
   14.8733   -4.8852  -10.4899 C   0  0  0  0  0  0  0  0  0  0  0  0
   14.0892   -5.2978   -9.6107 O   0  0  0  0  0  0  0  0  0  0  0  0
   17.4097   -5.5661   -9.2076 C   0  0  0  0  0  0  0  0  0  0  0  0
   18.1195   -6.4522   -8.6759 O   0  0  0  0  0  0  0  0  0  0  0  0
   14.8096   -3.5573  -10.8600 O   0  0  0  0  0  0  0  0  0  0  0  0
   16.8072   -4.6468   -8.3619 O   0  0  0  0  0  0  0  0  0  0  0  0
  2  3  1  0
  2  1  1  6
  3  4  1  0
  4  8  1  0
  4  5  2  0
  6  7  2  0
  6  2  1  0
  9 10  1  0
 10 11  2  0
 10 12  1  0
 13 12  1  6
 13 15  1  0
 13 14  1  0
 14  6  1  0
 15 17  1  0
 16 15  2  0
 17 18  1  0
 18 22  1  0
 18 19  1  1
 20 19  1  0
 21 20  2  0
 22 23  2  0
 22 25  1  0
 24 20  1  0
M  END
$$$$
