VHG.pdb
     RDKit          3D

 22 22  0  0  1  0  0  0  0  0999 V2000
    7.6720  -12.3438   25.5858 C   0  0  0  0  0  0  0  0  0  0  0  0
    6.9947  -13.5810   26.0664 C   0  0  2  0  0  0  0  0  0  0  0  0
    7.9122  -14.3820   26.9405 C   0  0  0  0  0  0  0  0  0  0  0  0
    6.4518  -14.4765   24.9706 C   0  0  2  0  0  0  0  0  0  0  0  0
    5.6841  -15.5704   25.5730 N   0  0  0  0  0  0  0  0  0  0  0  0
    7.5709  -15.0907   24.2559 C   0  0  0  0  0  0  0  0  0  0  0  0
    7.7914  -16.3471   24.3926 O   0  0  0  0  0  0  0  0  0  0  0  0
    8.4731  -14.4130   23.3902 N   0  0  0  0  0  0  0  0  0  0  0  0
    9.4021  -15.1480   22.5338 C   0  0  1  0  0  0  0  0  0  0  0  0
    9.7193  -14.2977   21.3189 C   0  0  0  0  0  0  0  0  0  0  0  0
    8.5415  -14.0073   20.4971 C   0  0  0  0  0  0  0  0  0  0  0  0
    8.0965  -12.7508   20.1416 C   0  0  0  0  0  0  0  0  0  0  0  0
    6.9758  -12.8727   19.3752 N   0  0  0  0  0  0  0  0  0  0  0  0
    6.7278  -14.1975   19.2565 C   0  0  0  0  0  0  0  0  0  0  0  0
    7.6754  -14.8691   19.9348 N   0  0  0  0  0  0  0  0  0  0  0  0
   10.6042  -15.5594   23.2629 C   0  0  0  0  0  0  0  0  0  0  0  0
   11.5686  -16.0621   22.6341 O   0  0  0  0  0  0  0  0  0  0  0  0
   10.7210  -15.4110   24.6581 N   0  0  0  0  0  0  0  0  0  0  0  0
   11.8700  -15.8481   25.4239 C   0  0  0  0  0  0  0  0  0  0  0  0
   11.6997  -17.2888   25.7269 C   0  0  0  0  0  0  0  0  0  0  0  0
   11.2565  -18.1066   24.8643 O   0  0  0  0  0  0  0  0  0  0  0  0
   12.0233  -17.7893   26.9753 O   0  0  0  0  0  0  0  0  0  0  0  0
  2  1  1  6
  2  3  1  0
  4  2  1  0
  4  5  1  1
  6  8  1  0
  6  4  1  0
  7  6  2  0
  9  8  1  0
  9 10  1  6
 10 11  1  0
 11 12  2  0
 11 15  1  0
 12 13  1  0
 13 14  1  0
 15 14  2  0
 16  9  1  0
 17 16  2  0
 18 16  1  0
 19 20  1  0
 19 18  1  0
 20 22  1  0
 21 20  2  0
M  END
$$$$
