VHG.pdb
     RDKit          3D

 22 22  0  0  1  0  0  0  0  0999 V2000
    7.4782  -13.2815   21.7654 C   0  0  0  0  0  0  0  0  0  0  0  0
    8.2848  -13.2294   20.5135 C   0  0  2  0  0  0  0  0  0  0  0  0
    7.9540  -12.0009   19.7207 C   0  0  0  0  0  0  0  0  0  0  0  0
    8.1500  -14.4449   19.6181 C   0  0  2  0  0  0  0  0  0  0  0  0
    6.7408  -14.6304   19.2598 N   0  0  0  0  0  0  0  0  0  0  0  0
    8.5555  -15.6364   20.3641 C   0  0  0  0  0  0  0  0  0  0  0  0
    7.7090  -16.2141   21.1357 O   0  0  0  0  0  0  0  0  0  0  0  0
    9.8402  -16.2448   20.3188 N   0  0  0  0  0  0  0  0  0  0  0  0
   10.1148  -17.4947   21.0252 C   0  0  1  0  0  0  0  0  0  0  0  0
   10.7563  -18.4694   20.0566 C   0  0  0  0  0  0  0  0  0  0  0  0
    9.8786  -18.8327   18.9410 C   0  0  0  0  0  0  0  0  0  0  0  0
    8.5027  -18.9170   18.9921 C   0  0  0  0  0  0  0  0  0  0  0  0
    8.0303  -19.2811   17.7663 N   0  0  0  0  0  0  0  0  0  0  0  0
    9.1077  -19.4217   16.9601 C   0  0  0  0  0  0  0  0  0  0  0  0
   10.2126  -19.1496   17.6772 N   0  0  0  0  0  0  0  0  0  0  0  0
   10.9277  -17.2746   22.2238 C   0  0  0  0  0  0  0  0  0  0  0  0
   11.1434  -18.2301   23.0103 O   0  0  0  0  0  0  0  0  0  0  0  0
   11.4829  -16.0178   22.5314 N   0  0  0  0  0  0  0  0  0  0  0  0
   12.3490  -15.7728   23.6661 C   0  0  0  0  0  0  0  0  0  0  0  0
   13.6944  -16.3018   23.3403 C   0  0  0  0  0  0  0  0  0  0  0  0
   13.8563  -17.4532   22.8329 O   0  0  0  0  0  0  0  0  0  0  0  0
   14.8269  -15.5454   23.5834 O   0  0  0  0  0  0  0  0  0  0  0  0
  2  1  1  1
  2  3  1  0
  4  2  1  0
  4  5  1  1
  6  8  1  0
  6  4  1  0
  7  6  2  0
  9  8  1  0
  9 10  1  6
 10 11  1  0
 11 12  2  0
 11 15  1  0
 12 13  1  0
 13 14  1  0
 15 14  2  0
 16  9  1  0
 17 16  2  0
 18 16  1  0
 19 20  1  0
 19 18  1  0
 20 22  1  0
 21 20  2  0
M  END
$$$$
