VHG.pdb
     RDKit          3D

 22 22  0  0  1  0  0  0  0  0999 V2000
   15.3059  -15.5568   19.5339 C   0  0  0  0  0  0  0  0  0  0  0  0
   14.2789  -16.1789   18.6515 C   0  0  2  0  0  0  0  0  0  0  0  0
   14.8981  -16.6571   17.3728 C   0  0  0  0  0  0  0  0  0  0  0  0
   13.0969  -15.2883   18.3239 C   0  0  2  0  0  0  0  0  0  0  0  0
   13.5837  -14.0028   17.8148 N   0  0  0  0  0  0  0  0  0  0  0  0
   12.3579  -15.0020   19.5536 C   0  0  0  0  0  0  0  0  0  0  0  0
   12.7195  -14.0157   20.2900 O   0  0  0  0  0  0  0  0  0  0  0  0
   11.2354  -15.7310   20.0345 N   0  0  0  0  0  0  0  0  0  0  0  0
   10.6055  -15.4020   21.3118 C   0  0  1  0  0  0  0  0  0  0  0  0
    9.1001  -15.4231   21.1309 C   0  0  0  0  0  0  0  0  0  0  0  0
    8.6288  -14.4699   20.1229 C   0  0  0  0  0  0  0  0  0  0  0  0
    8.4065  -13.1240   20.3277 C   0  0  0  0  0  0  0  0  0  0  0  0
    7.9734  -12.5594   19.1650 N   0  0  0  0  0  0  0  0  0  0  0  0
    7.9277  -13.5501   18.2447 C   0  0  0  0  0  0  0  0  0  0  0  0
    8.3237  -14.6935   18.8321 N   0  0  0  0  0  0  0  0  0  0  0  0
   11.0564  -16.2910   22.3853 C   0  0  0  0  0  0  0  0  0  0  0  0
   11.3512  -17.4830   22.1199 O   0  0  0  0  0  0  0  0  0  0  0  0
   11.1732  -15.8549   23.7189 N   0  0  0  0  0  0  0  0  0  0  0  0
   12.1694  -16.3496   24.6465 C   0  0  0  0  0  0  0  0  0  0  0  0
   11.6887  -17.6409   25.1922 C   0  0  0  0  0  0  0  0  0  0  0  0
   10.7188  -18.2694   24.6690 O   0  0  0  0  0  0  0  0  0  0  0  0
   12.2918  -18.2052   26.3020 O   0  0  0  0  0  0  0  0  0  0  0  0
  2  1  1  6
  2  3  1  0
  4  2  1  0
  4  5  1  1
  6  8  1  0
  6  4  1  0
  7  6  2  0
  9  8  1  0
  9 10  1  6
 10 11  1  0
 11 12  2  0
 11 15  1  0
 12 13  1  0
 13 14  1  0
 15 14  2  0
 16  9  1  0
 17 16  2  0
 18 16  1  0
 19 20  1  0
 19 18  1  0
 20 22  1  0
 21 20  2  0
M  END
$$$$
