VHG.pdb
     RDKit          3D

 22 22  0  0  1  0  0  0  0  0999 V2000
    9.5965  -21.4999   19.2284 C   0  0  0  0  0  0  0  0  0  0  0  0
    9.7572  -20.2816   20.0713 C   0  0  2  0  0  0  0  0  0  0  0  0
    9.0805  -20.4612   21.3968 C   0  0  0  0  0  0  0  0  0  0  0  0
    9.2627  -18.9975   19.4355 C   0  0  2  0  0  0  0  0  0  0  0  0
   10.0232  -18.7384   18.2094 N   0  0  0  0  0  0  0  0  0  0  0  0
    9.5308  -17.8806   20.3416 C   0  0  0  0  0  0  0  0  0  0  0  0
   10.7309  -17.4444   20.4651 O   0  0  0  0  0  0  0  0  0  0  0  0
    8.5605  -17.2008   21.1284 N   0  0  0  0  0  0  0  0  0  0  0  0
    8.9401  -16.1226   22.0394 C   0  0  1  0  0  0  0  0  0  0  0  0
    7.8960  -15.0259   21.9561 C   0  0  0  0  0  0  0  0  0  0  0  0
    7.9479  -14.2772   20.6977 C   0  0  0  0  0  0  0  0  0  0  0  0
    8.8797  -14.4491   19.6951 C   0  0  0  0  0  0  0  0  0  0  0  0
    8.6122  -13.5787   18.6807 N   0  0  0  0  0  0  0  0  0  0  0  0
    7.5205  -12.8713   19.0527 C   0  0  0  0  0  0  0  0  0  0  0  0
    7.1304  -13.3000   20.2665 N   0  0  0  0  0  0  0  0  0  0  0  0
    9.1372  -16.6100   23.4067 C   0  0  0  0  0  0  0  0  0  0  0  0
    8.1610  -16.6522   24.1962 O   0  0  0  0  0  0  0  0  0  0  0  0
   10.3941  -17.0379   23.8750 N   0  0  0  0  0  0  0  0  0  0  0  0
   10.6123  -17.6281   25.1795 C   0  0  0  0  0  0  0  0  0  0  0  0
   11.9325  -17.1725   25.6753 C   0  0  0  0  0  0  0  0  0  0  0  0
   12.6662  -16.3870   25.0014 O   0  0  0  0  0  0  0  0  0  0  0  0
   12.4087  -17.5962   26.9031 O   0  0  0  0  0  0  0  0  0  0  0  0
  2  1  1  6
  2  3  1  0
  4  2  1  0
  4  5  1  6
  6  8  1  0
  6  4  1  0
  7  6  2  0
  9  8  1  0
  9 10  1  1
 10 11  1  0
 11 12  2  0
 11 15  1  0
 12 13  1  0
 13 14  1  0
 15 14  2  0
 16  9  1  0
 17 16  2  0
 18 16  1  0
 19 20  1  0
 19 18  1  0
 20 22  1  0
 21 20  2  0
M  END
$$$$
