VHG.pdb
     RDKit          3D

 22 22  0  0  1  0  0  0  0  0999 V2000
    8.5876  -13.5944   20.7700 C   0  0  0  0  0  0  0  0  0  0  0  0
    8.9296  -12.7601   19.5837 C   0  0  2  0  0  0  0  0  0  0  0  0
    7.8328  -11.7812   19.2901 C   0  0  0  0  0  0  0  0  0  0  0  0
    9.2421  -13.5425   18.3236 C   0  0  2  0  0  0  0  0  0  0  0  0
    8.0984  -14.3944   17.9846 N   0  0  0  0  0  0  0  0  0  0  0  0
   10.3710  -14.4363   18.5828 C   0  0  0  0  0  0  0  0  0  0  0  0
   10.1513  -15.6820   18.7963 O   0  0  0  0  0  0  0  0  0  0  0  0
   11.7398  -14.0522   18.6218 N   0  0  0  0  0  0  0  0  0  0  0  0
   12.7889  -15.0103   18.9655 C   0  0  1  0  0  0  0  0  0  0  0  0
   13.8384  -14.9950   17.8711 C   0  0  0  0  0  0  0  0  0  0  0  0
   13.3707  -15.5925   16.6176 C   0  0  0  0  0  0  0  0  0  0  0  0
   13.0447  -16.9196   16.4295 C   0  0  0  0  0  0  0  0  0  0  0  0
   12.6514  -17.1056   15.1376 N   0  0  0  0  0  0  0  0  0  0  0  0
   12.7333  -15.9002   14.5286 C   0  0  0  0  0  0  0  0  0  0  0  0
   13.1666  -14.9989   15.4281 N   0  0  0  0  0  0  0  0  0  0  0  0
   13.3535  -14.7461   20.2912 C   0  0  0  0  0  0  0  0  0  0  0  0
   13.7585  -13.5908   20.5731 O   0  0  0  0  0  0  0  0  0  0  0  0
   13.4607  -15.7497   21.2728 N   0  0  0  0  0  0  0  0  0  0  0  0
   13.9327  -15.5137   22.6215 C   0  0  0  0  0  0  0  0  0  0  0  0
   15.4125  -15.5947   22.6117 C   0  0  0  0  0  0  0  0  0  0  0  0
   16.0628  -15.8339   21.5490 O   0  0  0  0  0  0  0  0  0  0  0  0
   16.1362  -15.4093   23.7760 O   0  0  0  0  0  0  0  0  0  0  0  0
  2  1  1  1
  2  3  1  0
  4  2  1  0
  4  5  1  1
  6  8  1  0
  6  4  1  0
  7  6  2  0
  9  8  1  0
  9 10  1  6
 10 11  1  0
 11 12  2  0
 11 15  1  0
 12 13  1  0
 13 14  1  0
 15 14  2  0
 16  9  1  0
 17 16  2  0
 18 16  1  0
 19 20  1  0
 19 18  1  0
 20 22  1  0
 21 20  2  0
M  END
$$$$
