VHG.pdb
     RDKit          3D

 22 22  0  0  1  0  0  0  0  0999 V2000
   10.4586  -20.6426   20.3544 C   0  0  0  0  0  0  0  0  0  0  0  0
    9.0172  -20.3608   20.1025 C   0  0  2  0  0  0  0  0  0  0  0  0
    8.3766  -21.4961   19.3624 C   0  0  0  0  0  0  0  0  0  0  0  0
    8.7413  -19.0694   19.3583 C   0  0  2  0  0  0  0  0  0  0  0  0
    9.4088  -19.1084   18.0538 N   0  0  0  0  0  0  0  0  0  0  0  0
    9.3305  -17.9543   20.0999 C   0  0  0  0  0  0  0  0  0  0  0  0
   10.5100  -17.5506   19.7974 O   0  0  0  0  0  0  0  0  0  0  0  0
    8.7056  -17.2429   21.1611 N   0  0  0  0  0  0  0  0  0  0  0  0
    9.3708  -16.1198   21.8189 C   0  0  1  0  0  0  0  0  0  0  0  0
    8.3500  -15.0250   22.0617 C   0  0  0  0  0  0  0  0  0  0  0  0
    7.9455  -14.3338   20.8347 C   0  0  0  0  0  0  0  0  0  0  0  0
    8.4805  -14.5394   19.5799 C   0  0  0  0  0  0  0  0  0  0  0  0
    7.8567  -13.7195   18.6871 N   0  0  0  0  0  0  0  0  0  0  0  0
    6.9403  -13.0098   19.3850 C   0  0  0  0  0  0  0  0  0  0  0  0
    7.0031  -13.3876   20.6743 N   0  0  0  0  0  0  0  0  0  0  0  0
   10.0536  -16.5356   23.0465 C   0  0  0  0  0  0  0  0  0  0  0  0
    9.4806  -17.3264   23.8367 O   0  0  0  0  0  0  0  0  0  0  0  0
   11.3428  -16.0769   23.3781 N   0  0  0  0  0  0  0  0  0  0  0  0
   11.9965  -16.3474   24.6419 C   0  0  0  0  0  0  0  0  0  0  0  0
   12.8740  -17.5281   24.4623 C   0  0  0  0  0  0  0  0  0  0  0  0
   13.6865  -17.9015   25.3622 O   0  0  0  0  0  0  0  0  0  0  0  0
   12.8317  -18.2662   23.2931 O   0  0  0  0  0  0  0  0  0  0  0  0
  2  1  1  6
  2  3  1  0
  4  2  1  0
  4  5  1  6
  6  8  1  0
  6  4  1  0
  7  6  2  0
  9  8  1  0
  9 10  1  1
 10 11  1  0
 11 12  2  0
 11 15  1  0
 12 13  1  0
 13 14  1  0
 15 14  2  0
 16  9  1  0
 17 16  2  0
 18 16  1  0
 19 20  1  0
 19 18  1  0
 20 22  1  0
 21 20  2  0
M  END
$$$$
