VHG.pdb
     RDKit          3D

 22 22  0  0  1  0  0  0  0  0999 V2000
    7.5206  -13.5560   21.5074 C   0  0  0  0  0  0  0  0  0  0  0  0
    8.3808  -13.4075   20.2997 C   0  0  2  0  0  0  0  0  0  0  0  0
    7.8426  -12.3417   19.3933 C   0  0  0  0  0  0  0  0  0  0  0  0
    8.5809  -14.6796   19.5001 C   0  0  2  0  0  0  0  0  0  0  0  0
    7.2762  -15.2009   19.0822 N   0  0  0  0  0  0  0  0  0  0  0  0
    9.1848  -15.6964   20.3614 C   0  0  0  0  0  0  0  0  0  0  0  0
    8.4265  -16.5022   21.0107 O   0  0  0  0  0  0  0  0  0  0  0  0
   10.5794  -15.8928   20.5592 N   0  0  0  0  0  0  0  0  0  0  0  0
   11.0857  -17.0251   21.3325 C   0  0  1  0  0  0  0  0  0  0  0  0
   12.3361  -17.5544   20.6572 C   0  0  0  0  0  0  0  0  0  0  0  0
   12.0768  -18.1237   19.3323 C   0  0  0  0  0  0  0  0  0  0  0  0
   11.2936  -19.2283   19.0687 C   0  0  0  0  0  0  0  0  0  0  0  0
   11.2848  -19.4611   17.7255 N   0  0  0  0  0  0  0  0  0  0  0  0
   12.0583  -18.5059   17.1600 C   0  0  0  0  0  0  0  0  0  0  0  0
   12.5286  -17.7082   18.1355 N   0  0  0  0  0  0  0  0  0  0  0  0
   11.3112  -16.6682   22.7352 C   0  0  0  0  0  0  0  0  0  0  0  0
   12.0210  -15.6700   23.0142 O   0  0  0  0  0  0  0  0  0  0  0  0
   10.7560  -17.4104   23.7951 N   0  0  0  0  0  0  0  0  0  0  0  0
   10.8031  -16.9973   25.1825 C   0  0  0  0  0  0  0  0  0  0  0  0
   11.6810  -17.9412   25.9137 C   0  0  0  0  0  0  0  0  0  0  0  0
   12.2945  -18.8806   25.3216 O   0  0  0  0  0  0  0  0  0  0  0  0
   11.8589  -17.8233   27.2806 O   0  0  0  0  0  0  0  0  0  0  0  0
  2  1  1  1
  2  3  1  0
  4  2  1  0
  4  5  1  1
  6  8  1  0
  6  4  1  0
  7  6  2  0
  9  8  1  0
  9 10  1  6
 10 11  1  0
 11 12  2  0
 11 15  1  0
 12 13  1  0
 13 14  1  0
 15 14  2  0
 16  9  1  0
 17 16  2  0
 18 16  1  0
 19 20  1  0
 19 18  1  0
 20 22  1  0
 21 20  2  0
M  END
$$$$
