VHG.pdb
     RDKit          3D

 22 22  0  0  1  0  0  0  0  0999 V2000
    8.2020  -13.8253   18.1995 C   0  0  0  0  0  0  0  0  0  0  0  0
    7.2731  -14.0162   19.3489 C   0  0  2  0  0  0  0  0  0  0  0  0
    6.7002  -12.7034   19.7911 C   0  0  0  0  0  0  0  0  0  0  0  0
    7.8793  -14.7182   20.5478 C   0  0  2  0  0  0  0  0  0  0  0  0
    8.9886  -13.9155   21.0711 N   0  0  0  0  0  0  0  0  0  0  0  0
    8.4494  -15.9949   20.1172 C   0  0  0  0  0  0  0  0  0  0  0  0
    7.6654  -16.9490   19.7697 O   0  0  0  0  0  0  0  0  0  0  0  0
    9.8367  -16.2984   20.0390 N   0  0  0  0  0  0  0  0  0  0  0  0
   10.3036  -17.6219   19.6305 C   0  0  1  0  0  0  0  0  0  0  0  0
   11.0813  -17.4846   18.3359 C   0  0  0  0  0  0  0  0  0  0  0  0
   10.2197  -17.3177   17.1626 C   0  0  0  0  0  0  0  0  0  0  0  0
    9.0069  -17.9423   16.9577 C   0  0  0  0  0  0  0  0  0  0  0  0
    8.4952  -17.5445   15.7584 N   0  0  0  0  0  0  0  0  0  0  0  0
    9.3861  -16.6783   15.2232 C   0  0  0  0  0  0  0  0  0  0  0  0
   10.4181  -16.5500   16.0762 N   0  0  0  0  0  0  0  0  0  0  0  0
   11.0799  -18.2748   20.6874 C   0  0  0  0  0  0  0  0  0  0  0  0
   11.9582  -17.6220   21.3044 O   0  0  0  0  0  0  0  0  0  0  0  0
   10.8765  -19.6221   21.0422 N   0  0  0  0  0  0  0  0  0  0  0  0
   11.5096  -20.2636   22.1758 C   0  0  0  0  0  0  0  0  0  0  0  0
   12.9279  -20.5166   21.8282 C   0  0  0  0  0  0  0  0  0  0  0  0
   13.3491  -20.4363   20.6342 O   0  0  0  0  0  0  0  0  0  0  0  0
   13.8448  -20.8517   22.8084 O   0  0  0  0  0  0  0  0  0  0  0  0
  2  1  1  6
  2  3  1  0
  4  2  1  0
  4  5  1  6
  6  8  1  0
  6  4  1  0
  7  6  2  0
  9  8  1  0
  9 10  1  6
 10 11  1  0
 11 12  2  0
 11 15  1  0
 12 13  1  0
 13 14  1  0
 15 14  2  0
 16  9  1  0
 17 16  2  0
 18 16  1  0
 19 20  1  0
 19 18  1  0
 20 22  1  0
 21 20  2  0
M  END
$$$$
