FAV.pdb
     RDKit          3D

 24 24  0  0  1  0  0  0  0  0999 V2000
    5.8088  -16.7825   24.5996 N   0  0  0  0  0  0  0  0  0  0  0  0
    7.0267  -16.0024   24.6558 C   0  0  1  0  0  0  0  0  0  0  0  0
    7.1350  -15.1906   25.9134 C   0  0  0  0  0  0  0  0  0  0  0  0
    6.6482  -13.8197   25.7949 C   0  0  0  0  0  0  0  0  0  0  0  0
    5.4448  -13.4990   26.4031 C   0  0  0  0  0  0  0  0  0  0  0  0
    4.9105  -12.2342   26.3435 C   0  0  0  0  0  0  0  0  0  0  0  0
    5.5632  -11.2268   25.6669 C   0  0  0  0  0  0  0  0  0  0  0  0
    6.7605  -11.5387   25.0597 C   0  0  0  0  0  0  0  0  0  0  0  0
    7.2881  -12.8096   25.1250 C   0  0  0  0  0  0  0  0  0  0  0  0
    8.2262  -16.8329   24.3916 C   0  0  0  0  0  0  0  0  0  0  0  0
    8.2381  -18.0361   24.7320 O   0  0  0  0  0  0  0  0  0  0  0  0
   11.5178  -16.3127   22.6389 C   0  0  0  0  0  0  0  0  0  0  0  0
   10.6019  -16.8925   23.7116 C   0  0  2  0  0  0  0  0  0  0  0  0
    9.3290  -16.2093   23.7506 N   0  0  0  0  0  0  0  0  0  0  0  0
   11.2638  -16.8730   25.0409 C   0  0  0  0  0  0  0  0  0  0  0  0
   12.3953  -17.3943   25.2097 O   0  0  0  0  0  0  0  0  0  0  0  0
   10.9399  -13.7039   27.4328 C   0  0  0  0  0  0  0  0  0  0  0  0
   10.9514  -14.9580   28.2519 C   0  0  1  0  0  0  0  0  0  0  0  0
    9.5822  -15.1931   28.8225 C   0  0  0  0  0  0  0  0  0  0  0  0
   11.3629  -16.1706   27.4573 C   0  0  2  0  0  0  0  0  0  0  0  0
   10.6668  -16.2708   26.1920 N   0  0  0  0  0  0  0  0  0  0  0  0
   11.2229  -17.4191   28.2369 C   0  0  0  0  0  0  0  0  0  0  0  0
   10.4632  -18.3509   27.9442 O   0  0  0  0  0  0  0  0  0  0  0  0
   11.9978  -17.5716   29.3893 O   0  0  0  0  0  0  0  0  0  0  0  0
  2  1  1  1
  3  2  1  0
  4  3  1  0
  4  9  2  0
  5  4  1  0
  6  5  2  0
  6  7  1  0
  7  8  2  0
  8  9  1  0
 10  2  1  0
 11 10  2  0
 13 12  1  6
 13 14  1  0
 13 15  1  0
 14 10  1  0
 15 21  1  0
 16 15  2  0
 18 20  1  0
 18 19  1  6
 18 17  1  0
 20 22  1  0
 20 21  1  6
 22 23  2  0
 22 24  1  0
M  END
$$$$
