FAV.pdb
     RDKit          3D

 24 24  0  0  1  0  0  0  0  0999 V2000
    5.9837  -16.2812   24.9004 N   0  0  0  0  0  0  0  0  0  0  0  0
    7.3051  -15.7039   24.7753 C   0  0  1  0  0  0  0  0  0  0  0  0
    7.6171  -14.7320   25.8754 C   0  0  0  0  0  0  0  0  0  0  0  0
    6.8596  -13.4858   25.8176 C   0  0  0  0  0  0  0  0  0  0  0  0
    7.4223  -12.4096   25.1498 C   0  0  0  0  0  0  0  0  0  0  0  0
    6.7812  -11.1985   25.0452 C   0  0  0  0  0  0  0  0  0  0  0  0
    5.5382  -11.0104   25.6095 C   0  0  0  0  0  0  0  0  0  0  0  0
    4.9727  -12.0765   26.2752 C   0  0  0  0  0  0  0  0  0  0  0  0
    5.6232  -13.2867   26.3747 C   0  0  0  0  0  0  0  0  0  0  0  0
    8.3472  -16.7442   24.6020 C   0  0  0  0  0  0  0  0  0  0  0  0
    8.2939  -17.7973   25.2742 O   0  0  0  0  0  0  0  0  0  0  0  0
   11.5001  -17.0210   22.5393 C   0  0  0  0  0  0  0  0  0  0  0  0
   10.6369  -17.1910   23.7850 C   0  0  2  0  0  0  0  0  0  0  0  0
    9.3792  -16.4901   23.6604 N   0  0  0  0  0  0  0  0  0  0  0  0
   11.3727  -16.7637   25.0021 C   0  0  0  0  0  0  0  0  0  0  0  0
   12.5592  -16.3542   24.9323 O   0  0  0  0  0  0  0  0  0  0  0  0
   11.2452  -14.0683   27.0422 C   0  0  0  0  0  0  0  0  0  0  0  0
   11.2555  -15.1500   28.0783 C   0  0  1  0  0  0  0  0  0  0  0  0
    9.9187  -15.1985   28.7613 C   0  0  0  0  0  0  0  0  0  0  0  0
   11.5571  -16.5089   27.5008 C   0  0  2  0  0  0  0  0  0  0  0  0
   10.7885  -16.7906   26.3068 N   0  0  0  0  0  0  0  0  0  0  0  0
   11.3929  -17.5860   28.5002 C   0  0  0  0  0  0  0  0  0  0  0  0
   10.6012  -18.5310   28.3940 O   0  0  0  0  0  0  0  0  0  0  0  0
   12.1817  -17.5470   29.6527 O   0  0  0  0  0  0  0  0  0  0  0  0
  2  1  1  1
  3  2  1  0
  4  3  1  0
  4  9  2  0
  5  4  1  0
  6  5  2  0
  6  7  1  0
  7  8  2  0
  8  9  1  0
 10  2  1  0
 11 10  2  0
 13 12  1  6
 13 14  1  0
 13 15  1  0
 14 10  1  0
 15 21  1  0
 16 15  2  0
 18 20  1  0
 18 19  1  6
 18 17  1  0
 20 22  1  0
 20 21  1  6
 22 23  2  0
 22 24  1  0
M  END
$$$$
