FAV.pdb
     RDKit          3D

 24 24  0  0  1  0  0  0  0  0999 V2000
    5.6663  -18.0750   23.8792 N   0  0  0  0  0  0  0  0  0  0  0  0
    6.3682  -16.8481   24.1908 C   0  0  1  0  0  0  0  0  0  0  0  0
    5.8296  -16.1700   25.4164 C   0  0  0  0  0  0  0  0  0  0  0  0
    6.3914  -14.8480   25.6753 C   0  0  0  0  0  0  0  0  0  0  0  0
    5.8506  -13.7648   25.0007 C   0  0  0  0  0  0  0  0  0  0  0  0
    6.3164  -12.4846   25.1822 C   0  0  0  0  0  0  0  0  0  0  0  0
    7.3526  -12.2309   26.0543 C   0  0  0  0  0  0  0  0  0  0  0  0
    7.8952  -13.3035   26.7286 C   0  0  0  0  0  0  0  0  0  0  0  0
    7.4214  -14.5833   26.5399 C   0  0  0  0  0  0  0  0  0  0  0  0
    7.8368  -17.0481   24.2317 C   0  0  0  0  0  0  0  0  0  0  0  0
    8.3338  -17.8486   25.0538 O   0  0  0  0  0  0  0  0  0  0  0  0
   10.6690  -16.0496   21.9730 C   0  0  0  0  0  0  0  0  0  0  0  0
   10.0583  -16.5033   23.2948 C   0  0  2  0  0  0  0  0  0  0  0  0
    8.6269  -16.3051   23.3153 N   0  0  0  0  0  0  0  0  0  0  0  0
   10.7121  -15.8234   24.4418 C   0  0  0  0  0  0  0  0  0  0  0  0
   11.2541  -14.6973   24.3051 O   0  0  0  0  0  0  0  0  0  0  0  0
    9.4072  -15.8804   28.4236 C   0  0  0  0  0  0  0  0  0  0  0  0
   10.3473  -14.9625   27.7043 C   0  0  1  0  0  0  0  0  0  0  0  0
   11.0702  -14.1061   28.7042 C   0  0  0  0  0  0  0  0  0  0  0  0
   11.3628  -15.7019   26.8717 C   0  0  2  0  0  0  0  0  0  0  0  0
   10.7655  -16.3963   25.7506 N   0  0  0  0  0  0  0  0  0  0  0  0
   12.1841  -16.6229   27.6860 C   0  0  0  0  0  0  0  0  0  0  0  0
   12.1399  -17.8574   27.6134 O   0  0  0  0  0  0  0  0  0  0  0  0
   13.0788  -16.0741   28.6080 O   0  0  0  0  0  0  0  0  0  0  0  0
  2  1  1  1
  3  2  1  0
  4  3  1  0
  4  9  2  0
  5  4  1  0
  6  5  2  0
  6  7  1  0
  7  8  2  0
  8  9  1  0
 10  2  1  0
 11 10  2  0
 13 12  1  6
 13 14  1  0
 13 15  1  0
 14 10  1  0
 15 21  1  0
 16 15  2  0
 18 20  1  0
 18 19  1  1
 18 17  1  0
 20 22  1  0
 20 21  1  6
 22 23  2  0
 22 24  1  0
M  END
$$$$
