FAV.pdb
     RDKit          3D

 24 24  0  0  1  0  0  0  0  0999 V2000
    5.8852  -17.3975   24.4105 N   0  0  0  0  0  0  0  0  0  0  0  0
    6.9050  -16.3805   24.5544 C   0  0  1  0  0  0  0  0  0  0  0  0
    6.7198  -15.5475   25.7889 C   0  0  0  0  0  0  0  0  0  0  0  0
    6.4591  -14.1342   25.5343 C   0  0  0  0  0  0  0  0  0  0  0  0
    5.3391  -13.5614   26.1161 C   0  0  0  0  0  0  0  0  0  0  0  0
    5.0158  -12.2385   25.9314 C   0  0  0  0  0  0  0  0  0  0  0  0
    5.8063  -11.4245   25.1496 C   0  0  0  0  0  0  0  0  0  0  0  0
    6.9217  -11.9876   24.5680 C   0  0  0  0  0  0  0  0  0  0  0  0
    7.2375  -13.3148   24.7591 C   0  0  0  0  0  0  0  0  0  0  0  0
    8.2698  -16.9467   24.4312 C   0  0  0  0  0  0  0  0  0  0  0  0
    8.5193  -18.0785   24.9006 O   0  0  0  0  0  0  0  0  0  0  0  0
   11.4210  -15.8701   22.6570 C   0  0  0  0  0  0  0  0  0  0  0  0
   10.6073  -16.6501   23.6842 C   0  0  2  0  0  0  0  0  0  0  0  0
    9.2505  -16.1600   23.7715 N   0  0  0  0  0  0  0  0  0  0  0  0
   11.2724  -16.6318   25.0119 C   0  0  0  0  0  0  0  0  0  0  0  0
   12.4324  -17.0923   25.1625 O   0  0  0  0  0  0  0  0  0  0  0  0
   10.9692  -13.6154   27.5662 C   0  0  0  0  0  0  0  0  0  0  0  0
   10.9118  -14.9097   28.3179 C   0  0  1  0  0  0  0  0  0  0  0  0
    9.5189  -15.1229   28.8375 C   0  0  0  0  0  0  0  0  0  0  0  0
   11.3028  -16.0942   27.4720 C   0  0  2  0  0  0  0  0  0  0  0  0
   10.6465  -16.0989   26.1817 N   0  0  0  0  0  0  0  0  0  0  0  0
   11.0884  -17.3756   28.1777 C   0  0  0  0  0  0  0  0  0  0  0  0
   10.2910  -18.2517   27.8205 O   0  0  0  0  0  0  0  0  0  0  0  0
   11.8327  -17.6291   29.3325 O   0  0  0  0  0  0  0  0  0  0  0  0
  2  1  1  1
  3  2  1  0
  4  3  1  0
  4  9  2  0
  5  4  1  0
  6  5  2  0
  6  7  1  0
  7  8  2  0
  8  9  1  0
 10  2  1  0
 11 10  2  0
 13 12  1  6
 13 14  1  0
 13 15  1  0
 14 10  1  0
 15 21  1  0
 16 15  2  0
 18 20  1  0
 18 19  1  6
 18 17  1  0
 20 22  1  0
 20 21  1  6
 22 23  2  0
 22 24  1  0
M  END
$$$$
