FAV.pdb
     RDKit          3D

 24 24  0  0  1  0  0  0  0  0999 V2000
    8.8475  -14.6345   25.6305 N   0  0  0  0  0  0  0  0  0  0  0  0
    7.9433  -15.5249   24.9342 C   0  0  1  0  0  0  0  0  0  0  0  0
    6.7791  -14.8026   24.3218 C   0  0  0  0  0  0  0  0  0  0  0  0
    6.3723  -13.5943   25.0323 C   0  0  0  0  0  0  0  0  0  0  0  0
    6.9084  -12.3837   24.6224 C   0  0  0  0  0  0  0  0  0  0  0  0
    6.5824  -11.1963   25.2328 C   0  0  0  0  0  0  0  0  0  0  0  0
    5.6980  -11.1689   26.2891 C   0  0  0  0  0  0  0  0  0  0  0  0
    5.1610  -12.3692   26.7020 C   0  0  0  0  0  0  0  0  0  0  0  0
    5.4940  -13.5543   26.0837 C   0  0  0  0  0  0  0  0  0  0  0  0
    8.6599  -16.3978   23.9737 C   0  0  0  0  0  0  0  0  0  0  0  0
    8.0981  -17.4193   23.5213 O   0  0  0  0  0  0  0  0  0  0  0  0
   12.2090  -16.6736   22.8017 C   0  0  0  0  0  0  0  0  0  0  0  0
   11.0495  -16.9862   23.7417 C   0  0  2  0  0  0  0  0  0  0  0  0
    9.9793  -16.0248   23.6046 N   0  0  0  0  0  0  0  0  0  0  0  0
   11.5166  -17.0743   25.1486 C   0  0  0  0  0  0  0  0  0  0  0  0
   12.4483  -17.8526   25.4751 O   0  0  0  0  0  0  0  0  0  0  0  0
   11.3061  -13.8629   27.5694 C   0  0  0  0  0  0  0  0  0  0  0  0
   11.1157  -15.1223   28.3576 C   0  0  1  0  0  0  0  0  0  0  0  0
    9.6932  -15.2025   28.8328 C   0  0  0  0  0  0  0  0  0  0  0  0
   11.4346  -16.3625   27.5629 C   0  0  2  0  0  0  0  0  0  0  0  0
   10.9464  -16.2934   26.2018 N   0  0  0  0  0  0  0  0  0  0  0  0
   10.9559  -17.5901   28.2335 C   0  0  0  0  0  0  0  0  0  0  0  0
   10.0454  -18.3140   27.8115 O   0  0  0  0  0  0  0  0  0  0  0  0
   11.5662  -17.9727   29.4306 O   0  0  0  0  0  0  0  0  0  0  0  0
  2  1  1  6
  3  2  1  0
  4  3  1  0
  4  9  2  0
  5  4  1  0
  6  5  2  0
  6  7  1  0
  7  8  2  0
  8  9  1  0
 10  2  1  0
 11 10  2  0
 13 12  1  6
 13 14  1  0
 13 15  1  0
 14 10  1  0
 15 21  1  0
 16 15  2  0
 18 20  1  0
 18 19  1  6
 18 17  1  0
 20 22  1  0
 20 21  1  6
 22 23  2  0
 22 24  1  0
M  END
$$$$
