FAV.pdb
     RDKit          3D

 24 24  0  0  1  0  0  0  0  0999 V2000
    7.3750  -15.7268   20.5996 N   0  0  0  0  0  0  0  0  0  0  0  0
    7.6572  -15.0708   21.8586 C   0  0  1  0  0  0  0  0  0  0  0  0
    6.4659  -14.3441   22.4109 C   0  0  0  0  0  0  0  0  0  0  0  0
    6.7317  -13.5758   23.6230 C   0  0  0  0  0  0  0  0  0  0  0  0
    6.1912  -14.0297   24.8158 C   0  0  0  0  0  0  0  0  0  0  0  0
    6.3893  -13.3703   26.0053 C   0  0  0  0  0  0  0  0  0  0  0  0
    7.1436  -12.2182   26.0529 C   0  0  0  0  0  0  0  0  0  0  0  0
    7.6842  -11.7611   24.8703 C   0  0  0  0  0  0  0  0  0  0  0  0
    7.4799  -12.4290   23.6829 C   0  0  0  0  0  0  0  0  0  0  0  0
    8.2812  -15.9960   22.8348 C   0  0  0  0  0  0  0  0  0  0  0  0
    7.5700  -16.8084   23.4655 O   0  0  0  0  0  0  0  0  0  0  0  0
   11.5156  -17.5506   23.1457 C   0  0  0  0  0  0  0  0  0  0  0  0
   10.3498  -16.8770   23.8618 C   0  0  2  0  0  0  0  0  0  0  0  0
    9.6877  -15.9142   23.0114 N   0  0  0  0  0  0  0  0  0  0  0  0
   10.7976  -16.2535   25.1331 C   0  0  0  0  0  0  0  0  0  0  0  0
   11.8585  -15.5812   25.1873 O   0  0  0  0  0  0  0  0  0  0  0  0
   10.1375  -14.3334   29.5449 C   0  0  0  0  0  0  0  0  0  0  0  0
    9.6903  -14.7801   28.1870 C   0  0  1  0  0  0  0  0  0  0  0  0
    9.6896  -13.6055   27.2511 C   0  0  0  0  0  0  0  0  0  0  0  0
   10.5665  -15.8621   27.6102 C   0  0  2  0  0  0  0  0  0  0  0  0
   10.0636  -16.3764   26.3539 N   0  0  0  0  0  0  0  0  0  0  0  0
   10.8013  -16.9590   28.5733 C   0  0  0  0  0  0  0  0  0  0  0  0
   10.2290  -18.0557   28.5451 O   0  0  0  0  0  0  0  0  0  0  0  0
   11.7336  -16.7570   29.5939 O   0  0  0  0  0  0  0  0  0  0  0  0
  2  1  1  6
  3  2  1  0
  4  3  1  0
  4  9  2  0
  5  4  1  0
  6  5  2  0
  6  7  1  0
  7  8  2  0
  8  9  1  0
 10  2  1  0
 11 10  2  0
 13 12  1  6
 13 14  1  0
 13 15  1  0
 14 10  1  0
 15 21  1  0
 16 15  2  0
 18 20  1  0
 18 19  1  6
 18 17  1  0
 20 22  1  0
 20 21  1  6
 22 23  2  0
 22 24  1  0
M  END
$$$$
