IFH.pdb
     RDKit          3D

 30 31  0  0  1  0  0  0  0  0999 V2000
    9.8140  -20.4511   18.8837 C   0  0  0  0  0  0  0  0  0  0  0  0
    9.3150  -19.0441   18.6326 C   0  0  0  0  0  0  0  0  0  0  0  0
    9.4126  -18.1995   19.8801 C   0  0  2  0  0  0  0  0  0  0  0  0
    8.8260  -18.9046   21.0832 C   0  0  0  0  0  0  0  0  0  0  0  0
    8.8561  -16.8285   19.7096 C   0  0  2  0  0  0  0  0  0  0  0  0
    9.3316  -16.1374   18.5534 N   0  0  0  0  0  0  0  0  0  0  0  0
    9.1350  -16.0563   20.9727 C   0  0  0  0  0  0  0  0  0  0  0  0
   10.2952  -15.6144   21.1738 O   0  0  0  0  0  0  0  0  0  0  0  0
    8.1447  -15.8108   21.9366 N   0  0  0  0  0  0  0  0  0  0  0  0
    8.4280  -15.0080   23.1594 C   0  0  1  0  0  0  0  0  0  0  0  0
    7.2865  -14.1068   23.4333 C   0  0  0  0  0  0  0  0  0  0  0  0
    7.2828  -13.4077   24.7252 C   0  0  0  0  0  0  0  0  0  0  0  0
    6.7854  -14.0083   25.8888 C   0  0  0  0  0  0  0  0  0  0  0  0
    6.8111  -13.3676   27.1068 C   0  0  0  0  0  0  0  0  0  0  0  0
    7.3324  -12.1010   27.2234 C   0  0  0  0  0  0  0  0  0  0  0  0
    7.8247  -11.4905   26.1059 C   0  0  0  0  0  0  0  0  0  0  0  0
    7.7927  -12.1437   24.8924 C   0  0  0  0  0  0  0  0  0  0  0  0
    8.8759  -15.9350   24.1689 C   0  0  0  0  0  0  0  0  0  0  0  0
    8.1461  -16.9568   24.4443 O   0  0  0  0  0  0  0  0  0  0  0  0
   10.0670  -15.8833   24.9363 N   0  0  0  0  0  0  0  0  0  0  0  0
   10.3997  -16.8851   25.9371 C   0  0  1  0  0  0  0  0  0  0  0  0
   11.8196  -17.3148   25.8424 C   0  0  0  0  0  0  0  0  0  0  0  0
   12.0738  -18.0232   24.5769 C   0  0  0  0  0  0  0  0  0  0  0  0
   11.3846  -19.0456   23.9538 C   0  0  0  0  0  0  0  0  0  0  0  0
   11.9771  -19.4251   22.8233 N   0  0  0  0  0  0  0  0  0  0  0  0
   13.0658  -18.6538   22.6910 C   0  0  0  0  0  0  0  0  0  0  0  0
   13.1357  -17.8060   23.7395 N   0  0  0  0  0  0  0  0  0  0  0  0
   10.1021  -16.3522   27.2646 C   0  0  0  0  0  0  0  0  0  0  0  0
    9.6902  -15.1784   27.4046 O   0  0  0  0  0  0  0  0  0  0  0  0
   10.2523  -17.0992   28.4167 O   0  0  0  0  0  0  0  0  0  0  0  0
  2  3  1  0
  2  1  1  0
  3  5  1  0
  3  4  1  1
  5  6  1  6
  7  8  2  0
  7  5  1  0
  9  7  1  0
 10  9  1  0
 10 11  1  1
 11 12  1  0
 12 13  2  0
 12 17  1  0
 13 14  1  0
 14 15  2  0
 16 15  1  0
 17 16  2  0
 18 10  1  0
 19 18  2  0
 20 18  1  0
 21 28  1  0
 21 20  1  0
 22 23  1  0
 21 22  1  1
 23 27  1  0
 24 23  2  0
 24 25  1  0
 25 26  1  0
 27 26  2  0
 28 30  1  0
 29 28  2  0
M  END
$$$$
