IFH.pdb
     RDKit          3D

 30 31  0  0  1  0  0  0  0  0999 V2000
   11.0580  -20.7688   20.7575 C   0  0  0  0  0  0  0  0  0  0  0  0
   10.4141  -19.5101   20.2165 C   0  0  0  0  0  0  0  0  0  0  0  0
   10.3297  -18.4405   21.2785 C   0  0  2  0  0  0  0  0  0  0  0  0
    9.7262  -18.9688   22.5612 C   0  0  0  0  0  0  0  0  0  0  0  0
    9.6524  -17.1984   20.8124 C   0  0  2  0  0  0  0  0  0  0  0  0
   10.1758  -16.6605   19.5971 N   0  0  0  0  0  0  0  0  0  0  0  0
    9.7069  -16.1939   21.9338 C   0  0  0  0  0  0  0  0  0  0  0  0
   10.7741  -15.5590   22.1327 O   0  0  0  0  0  0  0  0  0  0  0  0
    8.6070  -15.9395   22.7679 N   0  0  0  0  0  0  0  0  0  0  0  0
    8.6707  -14.9227   23.8550 C   0  0  1  0  0  0  0  0  0  0  0  0
    7.4132  -14.1428   23.8755 C   0  0  0  0  0  0  0  0  0  0  0  0
    7.2135  -13.2276   25.0071 C   0  0  0  0  0  0  0  0  0  0  0  0
    6.3860  -13.5585   26.0878 C   0  0  0  0  0  0  0  0  0  0  0  0
    6.2233  -12.7167   27.1646 C   0  0  0  0  0  0  0  0  0  0  0  0
    6.8757  -11.5078   27.2159 C   0  0  0  0  0  0  0  0  0  0  0  0
    7.6891  -11.1584   26.1766 C   0  0  0  0  0  0  0  0  0  0  0  0
    7.8430  -12.0111   25.1044 C   0  0  0  0  0  0  0  0  0  0  0  0
    9.1135  -15.6122   25.0415 C   0  0  0  0  0  0  0  0  0  0  0  0
    8.4640  -16.6477   25.4393 O   0  0  0  0  0  0  0  0  0  0  0  0
   10.2203  -15.3013   25.8714 N   0  0  0  0  0  0  0  0  0  0  0  0
   10.6049  -16.1244   27.0073 C   0  0  1  0  0  0  0  0  0  0  0  0
   12.0814  -16.2018   27.1625 C   0  0  0  0  0  0  0  0  0  0  0  0
   12.6945  -16.9184   26.0318 C   0  0  0  0  0  0  0  0  0  0  0  0
   12.1291  -17.5279   24.9285 C   0  0  0  0  0  0  0  0  0  0  0  0
   13.0488  -18.0970   24.1516 N   0  0  0  0  0  0  0  0  0  0  0  0
   14.2323  -17.8671   24.7382 C   0  0  0  0  0  0  0  0  0  0  0  0
   14.0332  -17.1590   25.8703 N   0  0  0  0  0  0  0  0  0  0  0  0
    9.9792  -15.5939   28.2162 C   0  0  0  0  0  0  0  0  0  0  0  0
    9.3578  -14.5074   28.1903 O   0  0  0  0  0  0  0  0  0  0  0  0
   10.0338  -16.2491   29.4310 O   0  0  0  0  0  0  0  0  0  0  0  0
  2  3  1  0
  2  1  1  0
  3  5  1  0
  3  4  1  1
  5  6  1  6
  7  8  2  0
  7  5  1  0
  9  7  1  0
 10  9  1  0
 10 11  1  1
 11 12  1  0
 12 13  2  0
 12 17  1  0
 13 14  1  0
 14 15  2  0
 16 15  1  0
 17 16  2  0
 18 10  1  0
 19 18  2  0
 20 18  1  0
 21 28  1  0
 21 20  1  0
 22 23  1  0
 21 22  1  1
 23 27  1  0
 24 23  2  0
 24 25  1  0
 25 26  1  0
 27 26  2  0
 28 30  1  0
 29 28  2  0
M  END
$$$$
