IFH.pdb
     RDKit          3D

 30 31  0  0  1  0  0  0  0  0999 V2000
    9.4385  -20.6980   18.7462 C   0  0  0  0  0  0  0  0  0  0  0  0
    8.7256  -19.3703   18.6028 C   0  0  0  0  0  0  0  0  0  0  0  0
    9.0060  -18.4701   19.7819 C   0  0  2  0  0  0  0  0  0  0  0  0
    8.7899  -19.1844   21.0979 C   0  0  0  0  0  0  0  0  0  0  0  0
    8.2736  -17.1745   19.7225 C   0  0  2  0  0  0  0  0  0  0  0  0
    8.4502  -16.4513   18.5034 N   0  0  0  0  0  0  0  0  0  0  0  0
    8.6844  -16.3563   20.9189 C   0  0  0  0  0  0  0  0  0  0  0  0
    9.8419  -15.8660   20.9540 O   0  0  0  0  0  0  0  0  0  0  0  0
    7.8202  -16.1201   21.9994 N   0  0  0  0  0  0  0  0  0  0  0  0
    8.2120  -15.2366   23.1332 C   0  0  1  0  0  0  0  0  0  0  0  0
    7.0422  -14.4395   23.5647 C   0  0  0  0  0  0  0  0  0  0  0  0
    7.1607  -13.7145   24.8368 C   0  0  0  0  0  0  0  0  0  0  0  0
    6.6742  -14.2458   26.0380 C   0  0  0  0  0  0  0  0  0  0  0  0
    6.8134  -13.5832   27.2364 C   0  0  0  0  0  0  0  0  0  0  0  0
    7.4425  -12.3623   27.2950 C   0  0  0  0  0  0  0  0  0  0  0  0
    7.9270  -11.8196   26.1398 C   0  0  0  0  0  0  0  0  0  0  0  0
    7.7807  -12.4942   24.9465 C   0  0  0  0  0  0  0  0  0  0  0  0
    8.9114  -16.0666   24.0826 C   0  0  0  0  0  0  0  0  0  0  0  0
    8.3616  -17.1588   24.4790 O   0  0  0  0  0  0  0  0  0  0  0  0
   10.1839  -15.8442   24.6671 N   0  0  0  0  0  0  0  0  0  0  0  0
   10.8089  -16.7965   25.5717 C   0  0  1  0  0  0  0  0  0  0  0  0
   12.2916  -16.6894   25.5532 C   0  0  0  0  0  0  0  0  0  0  0  0
   12.8985  -17.5885   26.5488 C   0  0  0  0  0  0  0  0  0  0  0  0
   12.3567  -18.2221   27.6504 C   0  0  0  0  0  0  0  0  0  0  0  0
   13.2694  -18.9302   28.3130 N   0  0  0  0  0  0  0  0  0  0  0  0
   14.4245  -18.7687   27.6518 C   0  0  0  0  0  0  0  0  0  0  0  0
   14.2152  -17.9636   26.5884 N   0  0  0  0  0  0  0  0  0  0  0  0
   10.2865  -16.5890   26.9202 C   0  0  0  0  0  0  0  0  0  0  0  0
   10.0057  -17.5636   27.6540 O   0  0  0  0  0  0  0  0  0  0  0  0
   10.0800  -15.3312   27.4525 O   0  0  0  0  0  0  0  0  0  0  0  0
  2  3  1  0
  2  1  1  0
  3  5  1  0
  3  4  1  1
  5  6  1  6
  7  8  2  0
  7  5  1  0
  9  7  1  0
 10  9  1  0
 10 11  1  1
 11 12  1  0
 12 13  2  0
 12 17  1  0
 13 14  1  0
 14 15  2  0
 16 15  1  0
 17 16  2  0
 18 10  1  0
 19 18  2  0
 20 18  1  0
 21 28  1  0
 21 20  1  0
 22 23  1  0
 21 22  1  1
 23 27  1  0
 24 23  2  0
 24 25  1  0
 25 26  1  0
 27 26  2  0
 28 30  1  0
 29 28  2  0
M  END
$$$$
