IFH.pdb
     RDKit          3D

 30 31  0  0  1  0  0  0  0  0999 V2000
    8.7264  -20.1644   18.5952 C   0  0  0  0  0  0  0  0  0  0  0  0
    8.4488  -18.6948   18.3607 C   0  0  0  0  0  0  0  0  0  0  0  0
    8.6975  -17.8861   19.6110 C   0  0  2  0  0  0  0  0  0  0  0  0
    8.0038  -18.4849   20.8147 C   0  0  0  0  0  0  0  0  0  0  0  0
    8.3859  -16.4386   19.4492 C   0  0  2  0  0  0  0  0  0  0  0  0
    9.0456  -15.8117   18.3483 N   0  0  0  0  0  0  0  0  0  0  0  0
    8.7010  -15.7498   20.7515 C   0  0  0  0  0  0  0  0  0  0  0  0
    9.9036  -15.5464   21.0585 O   0  0  0  0  0  0  0  0  0  0  0  0
    7.6990  -15.3252   21.6379 N   0  0  0  0  0  0  0  0  0  0  0  0
    8.0299  -14.6498   22.9240 C   0  0  1  0  0  0  0  0  0  0  0  0
    6.8858  -13.8136   23.3508 C   0  0  0  0  0  0  0  0  0  0  0  0
    6.9265  -13.2731   24.7161 C   0  0  0  0  0  0  0  0  0  0  0  0
    7.5998  -12.0829   25.0197 C   0  0  0  0  0  0  0  0  0  0  0  0
    7.6115  -11.5574   26.2919 C   0  0  0  0  0  0  0  0  0  0  0  0
    6.9545  -12.1910   27.3197 C   0  0  0  0  0  0  0  0  0  0  0  0
    6.2894  -13.3532   27.0534 C   0  0  0  0  0  0  0  0  0  0  0  0
    6.2858  -13.8684   25.7748 C   0  0  0  0  0  0  0  0  0  0  0  0
    8.5503  -15.6667   23.8040 C   0  0  0  0  0  0  0  0  0  0  0  0
    7.8920  -16.7611   23.9495 O   0  0  0  0  0  0  0  0  0  0  0  0
    9.7458  -15.6350   24.5657 N   0  0  0  0  0  0  0  0  0  0  0  0
   10.2935  -16.8155   25.2155 C   0  0  1  0  0  0  0  0  0  0  0  0
   11.6803  -17.1046   24.7647 C   0  0  0  0  0  0  0  0  0  0  0  0
   12.2191  -18.2948   25.4438 C   0  0  0  0  0  0  0  0  0  0  0  0
   11.6208  -19.2042   26.2944 C   0  0  0  0  0  0  0  0  0  0  0  0
   12.4821  -20.1274   26.7175 N   0  0  0  0  0  0  0  0  0  0  0  0
   13.6597  -19.8334   26.1479 C   0  0  0  0  0  0  0  0  0  0  0  0
   13.5152  -18.7329   25.3791 N   0  0  0  0  0  0  0  0  0  0  0  0
   10.2422  -16.6314   26.6639 C   0  0  0  0  0  0  0  0  0  0  0  0
   10.1778  -15.4841   27.1606 O   0  0  0  0  0  0  0  0  0  0  0  0
   10.2583  -17.6914   27.5495 O   0  0  0  0  0  0  0  0  0  0  0  0
  2  3  1  0
  2  1  1  0
  3  5  1  0
  3  4  1  1
  5  6  1  6
  7  8  2  0
  7  5  1  0
  9  7  1  0
 10  9  1  0
 10 11  1  1
 11 12  1  0
 12 13  2  0
 12 17  1  0
 13 14  1  0
 14 15  2  0
 16 15  1  0
 17 16  2  0
 18 10  1  0
 19 18  2  0
 20 18  1  0
 21 28  1  0
 21 20  1  0
 22 23  1  0
 21 22  1  6
 23 27  1  0
 24 23  2  0
 24 25  1  0
 25 26  1  0
 27 26  2  0
 28 30  1  0
 29 28  2  0
M  END
$$$$
