IFH.pdb
     RDKit          3D

 30 31  0  0  1  0  0  0  0  0999 V2000
    7.4194  -15.8229   17.8907 C   0  0  0  0  0  0  0  0  0  0  0  0
    7.4006  -14.6365   18.8306 C   0  0  0  0  0  0  0  0  0  0  0  0
    7.6559  -15.0649   20.2556 C   0  0  2  0  0  0  0  0  0  0  0  0
    6.7580  -16.2108   20.6670 C   0  0  0  0  0  0  0  0  0  0  0  0
    7.6053  -13.9382   21.2285 C   0  0  2  0  0  0  0  0  0  0  0  0
    8.1519  -12.7118   20.7413 N   0  0  0  0  0  0  0  0  0  0  0  0
    8.2898  -14.3885   22.4928 C   0  0  0  0  0  0  0  0  0  0  0  0
    9.4813  -14.0419   22.6979 O   0  0  0  0  0  0  0  0  0  0  0  0
    7.6450  -15.1831   23.4534 N   0  0  0  0  0  0  0  0  0  0  0  0
    8.2636  -15.4590   24.7805 C   0  0  1  0  0  0  0  0  0  0  0  0
    7.3012  -15.1221   25.8531 C   0  0  0  0  0  0  0  0  0  0  0  0
    7.0994  -13.6968   26.1456 C   0  0  0  0  0  0  0  0  0  0  0  0
    8.1766  -12.8214   26.3333 C   0  0  0  0  0  0  0  0  0  0  0  0
    7.9904  -11.4791   26.5749 C   0  0  0  0  0  0  0  0  0  0  0  0
    6.7249  -10.9463   26.6409 C   0  0  0  0  0  0  0  0  0  0  0  0
    5.6554  -11.7757   26.4618 C   0  0  0  0  0  0  0  0  0  0  0  0
    5.8563  -13.1180   26.2206 C   0  0  0  0  0  0  0  0  0  0  0  0
    8.8296  -16.7831   24.7065 C   0  0  0  0  0  0  0  0  0  0  0  0
    8.8492  -17.5122   25.7650 O   0  0  0  0  0  0  0  0  0  0  0  0
    9.3905  -17.4321   23.5775 N   0  0  0  0  0  0  0  0  0  0  0  0
   10.8192  -17.4370   23.3049 C   0  0  1  0  0  0  0  0  0  0  0  0
   11.2917  -16.1234   22.7938 C   0  0  0  0  0  0  0  0  0  0  0  0
   12.7428  -16.1443   22.5452 C   0  0  0  0  0  0  0  0  0  0  0  0
   13.7967  -16.5338   23.3490 C   0  0  0  0  0  0  0  0  0  0  0  0
   14.9706  -16.3619   22.7443 N   0  0  0  0  0  0  0  0  0  0  0  0
   14.6998  -15.8557   21.5326 C   0  0  0  0  0  0  0  0  0  0  0  0
   13.3631  -15.7198   21.4001 N   0  0  0  0  0  0  0  0  0  0  0  0
   11.5369  -17.8138   24.5205 C   0  0  0  0  0  0  0  0  0  0  0  0
   12.4299  -18.6905   24.4898 O   0  0  0  0  0  0  0  0  0  0  0  0
   11.2782  -17.2336   25.7471 O   0  0  0  0  0  0  0  0  0  0  0  0
  2  3  1  0
  2  1  1  0
  3  5  1  0
  3  4  1  1
  5  6  1  6
  7  8  2  0
  7  5  1  0
  9  7  1  0
 10  9  1  0
 10 11  1  1
 11 12  1  0
 12 13  2  0
 12 17  1  0
 13 14  1  0
 14 15  2  0
 16 15  1  0
 17 16  2  0
 18 10  1  0
 19 18  2  0
 20 18  1  0
 21 28  1  0
 21 20  1  0
 22 23  1  0
 21 22  1  1
 23 27  1  0
 24 23  2  0
 24 25  1  0
 25 26  1  0
 27 26  2  0
 28 30  1  0
 29 28  2  0
M  END
$$$$
