IFH.pdb
     RDKit          3D

 30 31  0  0  1  0  0  0  0  0999 V2000
    7.1759  -13.0859   17.1215 C   0  0  0  0  0  0  0  0  0  0  0  0
    7.4934  -14.3552   17.8827 C   0  0  0  0  0  0  0  0  0  0  0  0
    7.8749  -14.0536   19.3119 C   0  0  2  0  0  0  0  0  0  0  0  0
    9.0312  -13.0813   19.3915 C   0  0  0  0  0  0  0  0  0  0  0  0
    8.1151  -15.2756   20.1291 C   0  0  2  0  0  0  0  0  0  0  0  0
    7.0513  -16.2282   20.0941 N   0  0  0  0  0  0  0  0  0  0  0  0
    8.4224  -14.8368   21.5371 C   0  0  0  0  0  0  0  0  0  0  0  0
    9.4705  -14.1769   21.7552 O   0  0  0  0  0  0  0  0  0  0  0  0
    7.5795  -15.1381   22.6182 N   0  0  0  0  0  0  0  0  0  0  0  0
    7.9299  -14.7489   24.0130 C   0  0  1  0  0  0  0  0  0  0  0  0
    6.7217  -14.2445   24.7029 C   0  0  0  0  0  0  0  0  0  0  0  0
    6.8875  -13.7813   26.0870 C   0  0  0  0  0  0  0  0  0  0  0  0
    6.9193  -14.6738   27.1660 C   0  0  0  0  0  0  0  0  0  0  0  0
    7.1075  -14.2449   28.4604 C   0  0  0  0  0  0  0  0  0  0  0  0
    7.2727  -12.9093   28.7407 C   0  0  0  0  0  0  0  0  0  0  0  0
    7.2463  -12.0158   27.7087 C   0  0  0  0  0  0  0  0  0  0  0  0
    7.0570  -12.4592   26.4173 C   0  0  0  0  0  0  0  0  0  0  0  0
    8.6777  -15.8468   24.5740 C   0  0  0  0  0  0  0  0  0  0  0  0
    8.1506  -17.0191   24.5835 O   0  0  0  0  0  0  0  0  0  0  0  0
    9.9775  -15.8203   25.1398 N   0  0  0  0  0  0  0  0  0  0  0  0
   10.6014  -16.9956   25.7274 C   0  0  1  0  0  0  0  0  0  0  0  0
   12.0563  -17.0599   25.4290 C   0  0  0  0  0  0  0  0  0  0  0  0
   12.2942  -17.1627   23.9796 C   0  0  0  0  0  0  0  0  0  0  0  0
   11.4169  -17.3172   22.9237 C   0  0  0  0  0  0  0  0  0  0  0  0
   12.0549  -17.3992   21.7577 N   0  0  0  0  0  0  0  0  0  0  0  0
   13.3627  -17.2993   22.0359 C   0  0  0  0  0  0  0  0  0  0  0  0
   13.5204  -17.1567   23.3692 N   0  0  0  0  0  0  0  0  0  0  0  0
   10.3629  -16.9935   27.1688 C   0  0  0  0  0  0  0  0  0  0  0  0
   10.6408  -17.9967   27.8641 O   0  0  0  0  0  0  0  0  0  0  0  0
    9.8310  -15.9056   27.8332 O   0  0  0  0  0  0  0  0  0  0  0  0
  2  3  1  0
  2  1  1  0
  3  5  1  0
  3  4  1  6
  5  6  1  1
  7  8  2  0
  7  5  1  0
  9  7  1  0
 10  9  1  0
 10 11  1  1
 11 12  1  0
 12 13  2  0
 12 17  1  0
 13 14  1  0
 14 15  2  0
 16 15  1  0
 17 16  2  0
 18 10  1  0
 19 18  2  0
 20 18  1  0
 21 28  1  0
 21 20  1  0
 22 23  1  0
 21 22  1  1
 23 27  1  0
 24 23  2  0
 24 25  1  0
 25 26  1  0
 27 26  2  0
 28 30  1  0
 29 28  2  0
M  END
$$$$
