IFH.pdb
     RDKit          3D

 30 31  0  0  1  0  0  0  0  0999 V2000
    8.2626  -20.1705   19.0776 C   0  0  0  0  0  0  0  0  0  0  0  0
    8.4360  -18.6772   18.8994 C   0  0  0  0  0  0  0  0  0  0  0  0
    8.5724  -17.9807   20.2318 C   0  0  2  0  0  0  0  0  0  0  0  0
    7.4672  -18.3741   21.1870 C   0  0  0  0  0  0  0  0  0  0  0  0
    8.7089  -16.5022   20.1135 C   0  0  2  0  0  0  0  0  0  0  0  0
    9.7276  -16.0733   19.2089 N   0  0  0  0  0  0  0  0  0  0  0  0
    8.9237  -15.9460   21.4970 C   0  0  0  0  0  0  0  0  0  0  0  0
   10.0493  -16.0824   22.0411 O   0  0  0  0  0  0  0  0  0  0  0  0
    7.9109  -15.2788   22.2036 N   0  0  0  0  0  0  0  0  0  0  0  0
    8.1644  -14.6646   23.5370 C   0  0  1  0  0  0  0  0  0  0  0  0
    7.1400  -13.6313   23.8071 C   0  0  0  0  0  0  0  0  0  0  0  0
    7.1156  -13.0519   25.1568 C   0  0  0  0  0  0  0  0  0  0  0  0
    8.0023  -13.4711   26.1568 C   0  0  0  0  0  0  0  0  0  0  0  0
    8.0032  -12.9066   27.4123 C   0  0  0  0  0  0  0  0  0  0  0  0
    7.1228  -11.9000   27.7304 C   0  0  0  0  0  0  0  0  0  0  0  0
    6.2466  -11.4708   26.7755 C   0  0  0  0  0  0  0  0  0  0  0  0
    6.2566  -12.0449   25.5223 C   0  0  0  0  0  0  0  0  0  0  0  0
    8.3567  -15.7521   24.4643 C   0  0  0  0  0  0  0  0  0  0  0  0
    7.5281  -16.7347   24.4523 O   0  0  0  0  0  0  0  0  0  0  0  0
    9.3818  -15.9048   25.4318 N   0  0  0  0  0  0  0  0  0  0  0  0
    9.8974  -17.2054   25.8298 C   0  0  1  0  0  0  0  0  0  0  0  0
   10.5823  -17.8987   24.7073 C   0  0  0  0  0  0  0  0  0  0  0  0
   11.1467  -19.1856   25.1470 C   0  0  0  0  0  0  0  0  0  0  0  0
   10.7991  -20.0206   26.1913 C   0  0  0  0  0  0  0  0  0  0  0  0
   11.5956  -21.0856   26.2599 N   0  0  0  0  0  0  0  0  0  0  0  0
   12.4781  -20.9613   25.2582 C   0  0  0  0  0  0  0  0  0  0  0  0
   12.2191  -19.8224   24.5810 N   0  0  0  0  0  0  0  0  0  0  0  0
   10.7989  -17.0349   26.9669 C   0  0  0  0  0  0  0  0  0  0  0  0
   11.3768  -15.9425   27.1664 O   0  0  0  0  0  0  0  0  0  0  0  0
   11.0569  -18.0479   27.8699 O   0  0  0  0  0  0  0  0  0  0  0  0
  2  3  1  0
  2  1  1  0
  3  5  1  0
  3  4  1  1
  5  6  1  6
  7  8  2  0
  7  5  1  0
  9  7  1  0
 10  9  1  0
 10 11  1  1
 11 12  1  0
 12 13  2  0
 12 17  1  0
 13 14  1  0
 14 15  2  0
 16 15  1  0
 17 16  2  0
 18 10  1  0
 19 18  2  0
 20 18  1  0
 21 28  1  0
 21 20  1  0
 22 23  1  0
 21 22  1  6
 23 27  1  0
 24 23  2  0
 24 25  1  0
 25 26  1  0
 27 26  2  0
 28 30  1  0
 29 28  2  0
M  END
$$$$
