IFH.pdb
     RDKit          3D

 30 31  0  0  1  0  0  0  0  0999 V2000
   10.3737  -21.1755   19.5949 C   0  0  0  0  0  0  0  0  0  0  0  0
    9.7001  -19.8208   19.6447 C   0  0  0  0  0  0  0  0  0  0  0  0
   10.0616  -19.0776   20.9081 C   0  0  2  0  0  0  0  0  0  0  0  0
    9.7699  -19.8978   22.1454 C   0  0  0  0  0  0  0  0  0  0  0  0
    9.4603  -17.7170   20.9849 C   0  0  2  0  0  0  0  0  0  0  0  0
    9.6642  -16.9143   19.8212 N   0  0  0  0  0  0  0  0  0  0  0  0
    9.9933  -17.0456   22.2238 C   0  0  0  0  0  0  0  0  0  0  0  0
   11.1543  -16.5625   22.2041 O   0  0  0  0  0  0  0  0  0  0  0  0
    9.2399  -16.9390   23.4032 N   0  0  0  0  0  0  0  0  0  0  0  0
    9.8036  -16.3213   24.6362 C   0  0  1  0  0  0  0  0  0  0  0  0
    8.8491  -15.3238   25.1691 C   0  0  0  0  0  0  0  0  0  0  0  0
    9.1657  -14.7271   26.4735 C   0  0  0  0  0  0  0  0  0  0  0  0
    9.5319  -13.3812   26.6009 C   0  0  0  0  0  0  0  0  0  0  0  0
    9.7970  -12.8116   27.8257 C   0  0  0  0  0  0  0  0  0  0  0  0
    9.7100  -13.5542   28.9793 C   0  0  0  0  0  0  0  0  0  0  0  0
    9.3551  -14.8692   28.8859 C   0  0  0  0  0  0  0  0  0  0  0  0
    9.0924  -15.4268   27.6529 C   0  0  0  0  0  0  0  0  0  0  0  0
   10.2587  -17.4049   25.4715 C   0  0  0  0  0  0  0  0  0  0  0  0
    9.4440  -18.3582   25.7541 O   0  0  0  0  0  0  0  0  0  0  0  0
   11.5405  -17.5831   26.0508 N   0  0  0  0  0  0  0  0  0  0  0  0
   11.8675  -18.7193   26.8981 C   0  0  1  0  0  0  0  0  0  0  0  0
   13.2571  -19.1977   26.6740 C   0  0  0  0  0  0  0  0  0  0  0  0
   13.4339  -19.6784   25.2935 C   0  0  0  0  0  0  0  0  0  0  0  0
   12.6153  -20.4446   24.4865 C   0  0  0  0  0  0  0  0  0  0  0  0
   13.1725  -20.6839   23.3009 N   0  0  0  0  0  0  0  0  0  0  0  0
   14.3672  -20.0757   23.3163 C   0  0  0  0  0  0  0  0  0  0  0  0
   14.5369  -19.4671   24.5095 N   0  0  0  0  0  0  0  0  0  0  0  0
   11.6614  -18.3483   28.2962 C   0  0  0  0  0  0  0  0  0  0  0  0
   11.3269  -17.1823   28.6055 O   0  0  0  0  0  0  0  0  0  0  0  0
   11.8177  -19.2456   29.3346 O   0  0  0  0  0  0  0  0  0  0  0  0
  2  3  1  0
  2  1  1  0
  3  5  1  0
  3  4  1  1
  5  6  1  6
  7  8  2  0
  7  5  1  0
  9  7  1  0
 10  9  1  0
 10 11  1  1
 11 12  1  0
 12 13  2  0
 12 17  1  0
 13 14  1  0
 14 15  2  0
 16 15  1  0
 17 16  2  0
 18 10  1  0
 19 18  2  0
 20 18  1  0
 21 28  1  0
 21 20  1  0
 22 23  1  0
 21 22  1  1
 23 27  1  0
 24 23  2  0
 24 25  1  0
 25 26  1  0
 27 26  2  0
 28 30  1  0
 29 28  2  0
M  END
$$$$
