IFH.pdb
     RDKit          3D

 30 31  0  0  1  0  0  0  0  0999 V2000
   10.5934  -20.9566   20.0831 C   0  0  0  0  0  0  0  0  0  0  0  0
   10.0775  -19.5912   19.6817 C   0  0  0  0  0  0  0  0  0  0  0  0
   10.0093  -18.6625   20.8700 C   0  0  2  0  0  0  0  0  0  0  0  0
    9.3105  -19.3067   22.0470 C   0  0  0  0  0  0  0  0  0  0  0  0
    9.4370  -17.3268   20.5429 C   0  0  2  0  0  0  0  0  0  0  0  0
   10.0112  -16.7034   19.3932 N   0  0  0  0  0  0  0  0  0  0  0  0
    9.5625  -16.4581   21.7673 C   0  0  0  0  0  0  0  0  0  0  0  0
   10.6657  -15.9065   22.0133 O   0  0  0  0  0  0  0  0  0  0  0  0
    8.4904  -16.2406   22.6467 N   0  0  0  0  0  0  0  0  0  0  0  0
    8.5989  -15.2910   23.7895 C   0  0  1  0  0  0  0  0  0  0  0  0
    7.3950  -14.4314   23.8328 C   0  0  0  0  0  0  0  0  0  0  0  0
    7.2404  -13.5571   25.0031 C   0  0  0  0  0  0  0  0  0  0  0  0
    7.9636  -12.3648   25.1352 C   0  0  0  0  0  0  0  0  0  0  0  0
    7.7962  -11.5277   26.2150 C   0  0  0  0  0  0  0  0  0  0  0  0
    6.9025  -11.8379   27.2123 C   0  0  0  0  0  0  0  0  0  0  0  0
    6.1833  -12.9939   27.1104 C   0  0  0  0  0  0  0  0  0  0  0  0
    6.3609  -13.8231   26.0236 C   0  0  0  0  0  0  0  0  0  0  0  0
    8.9716  -16.0719   24.9430 C   0  0  0  0  0  0  0  0  0  0  0  0
    8.2433  -17.0772   25.2766 O   0  0  0  0  0  0  0  0  0  0  0  0
   10.0840  -15.8856   25.8023 N   0  0  0  0  0  0  0  0  0  0  0  0
   10.3336  -16.7334   26.9575 C   0  0  1  0  0  0  0  0  0  0  0  0
   11.6965  -17.3264   26.9272 C   0  0  0  0  0  0  0  0  0  0  0  0
   11.7955  -18.3700   25.8933 C   0  0  0  0  0  0  0  0  0  0  0  0
   10.8811  -19.3116   25.4624 C   0  0  0  0  0  0  0  0  0  0  0  0
   11.3889  -20.0978   24.5151 N   0  0  0  0  0  0  0  0  0  0  0  0
   12.6467  -19.6800   24.3129 C   0  0  0  0  0  0  0  0  0  0  0  0
   12.9041  -18.6411   25.1359 N   0  0  0  0  0  0  0  0  0  0  0  0
   10.1296  -15.9537   28.1762 C   0  0  0  0  0  0  0  0  0  0  0  0
    9.8091  -14.7451   28.1156 O   0  0  0  0  0  0  0  0  0  0  0  0
   10.2729  -16.4956   29.4386 O   0  0  0  0  0  0  0  0  0  0  0  0
  2  3  1  0
  2  1  1  0
  3  5  1  0
  3  4  1  1
  5  6  1  6
  7  8  2  0
  7  5  1  0
  9  7  1  0
 10  9  1  0
 10 11  1  1
 11 12  1  0
 12 13  2  0
 12 17  1  0
 13 14  1  0
 14 15  2  0
 16 15  1  0
 17 16  2  0
 18 10  1  0
 19 18  2  0
 20 18  1  0
 21 28  1  0
 21 20  1  0
 22 23  1  0
 21 22  1  6
 23 27  1  0
 24 23  2  0
 24 25  1  0
 25 26  1  0
 27 26  2  0
 28 30  1  0
 29 28  2  0
M  END
$$$$
