PWH.pdb
     RDKit          3D

 32 35  0  0  1  0  0  0  0  0999 V2000
   27.8361  -22.7123  -17.2487 N   0  0  0  0  0  0  0  0  0  0  0  0
   28.2145  -21.8483  -18.3128 C   0  0  0  0  0  0  0  0  0  0  0  0
   29.6710  -21.5428  -17.9411 C   0  0  0  0  0  0  0  0  0  0  0  0
   29.5398  -21.3577  -16.4337 C   0  0  0  0  0  0  0  0  0  0  0  0
   28.2369  -22.0237  -16.0578 C   0  0  1  0  0  0  0  0  0  0  0  0
   27.2248  -21.0467  -15.6031 C   0  0  0  0  0  0  0  0  0  0  0  0
   27.4866  -20.2248  -14.6502 O   0  0  0  0  0  0  0  0  0  0  0  0
   25.9405  -20.9270  -16.1415 N   0  0  0  0  0  0  0  0  0  0  0  0
   24.9575  -19.9543  -15.6287 C   0  0  1  0  0  0  0  0  0  0  0  0
   24.5241  -19.1078  -16.7700 C   0  0  0  0  0  0  0  0  0  0  0  0
   25.5301  -18.2218  -17.3467 C   0  0  0  0  0  0  0  0  0  0  0  0
   26.1410  -18.1330  -18.5642 C   0  0  0  0  0  0  0  0  0  0  0  0
   27.0297  -17.1127  -18.5920 N   0  0  0  0  0  0  0  0  0  0  0  0
   27.0013  -16.5278  -17.3816 C   0  0  0  0  0  0  0  0  0  0  0  0
   27.6918  -15.4433  -16.8290 C   0  0  0  0  0  0  0  0  0  0  0  0
   27.4902  -15.0209  -15.5399 C   0  0  0  0  0  0  0  0  0  0  0  0
   26.5761  -15.6856  -14.7580 C   0  0  0  0  0  0  0  0  0  0  0  0
   25.9001  -16.7429  -15.2906 C   0  0  0  0  0  0  0  0  0  0  0  0
   26.0889  -17.1850  -16.5893 C   0  0  0  0  0  0  0  0  0  0  0  0
   23.7496  -20.7106  -15.1341 C   0  0  0  0  0  0  0  0  0  0  0  0
   23.3016  -21.6194  -15.8355 O   0  0  0  0  0  0  0  0  0  0  0  0
   23.1546  -20.3790  -13.8993 N   0  0  0  0  0  0  0  0  0  0  0  0
   22.0494  -21.1944  -13.3342 C   0  0  1  0  0  0  0  0  0  0  0  0
   22.6257  -22.2248  -12.4073 C   0  0  0  0  0  0  0  0  0  0  0  0
   23.5835  -21.6871  -11.4202 C   0  0  0  0  0  0  0  0  0  0  0  0
   24.9720  -21.8285  -11.4705 C   0  0  0  0  0  0  0  0  0  0  0  0
   25.5315  -21.2216  -10.4227 N   0  0  0  0  0  0  0  0  0  0  0  0
   24.5514  -20.6925   -9.6961 C   0  0  0  0  0  0  0  0  0  0  0  0
   23.3715  -20.9747  -10.3008 N   0  0  0  0  0  0  0  0  0  0  0  0
   21.1052  -20.2698  -12.6510 C   0  0  0  0  0  0  0  0  0  0  0  0
   21.2923  -19.0517  -12.4557 O   0  0  0  0  0  0  0  0  0  0  0  0
   19.9057  -20.7927  -12.1835 O   0  0  0  0  0  0  0  0  0  0  0  0
  1  2  1  0
  1  5  1  0
  2  3  1  0
  3  4  1  0
  5  4  1  0
  5  6  1  6
  6  7  2  0
  8  9  1  0
  8  6  1  0
  9 10  1  6
 10 11  1  0
 11 12  2  0
 13 12  1  0
 14 13  1  0
 15 14  2  0
 16 15  1  0
 17 16  2  0
 17 18  1  0
 18 19  2  0
 19 14  1  0
 19 11  1  0
 20  9  1  0
 21 20  2  0
 22 20  1  0
 23 24  1  1
 23 22  1  0
 25 29  1  0
 25 24  1  0
 26 25  2  0
 27 26  1  0
 27 28  1  0
 28 29  2  0
 30 23  1  0
 30 32  1  0
 31 30  2  0
M  END
$$$$
