PWH.pdb
     RDKit          3D

 32 35  0  0  1  0  0  0  0  0999 V2000
   27.8413  -19.2628  -13.9812 N   0  0  0  0  0  0  0  0  0  0  0  0
   29.1863  -19.3423  -13.5267 C   0  0  0  0  0  0  0  0  0  0  0  0
   29.8216  -20.1944  -14.6328 C   0  0  0  0  0  0  0  0  0  0  0  0
   28.7237  -21.2290  -14.8512 C   0  0  0  0  0  0  0  0  0  0  0  0
   27.4713  -20.6168  -14.2688 C   0  0  1  0  0  0  0  0  0  0  0  0
   27.0057  -21.3419  -13.0676 C   0  0  0  0  0  0  0  0  0  0  0  0
   26.5353  -22.5344  -13.1612 O   0  0  0  0  0  0  0  0  0  0  0  0
   27.0303  -20.8239  -11.7696 N   0  0  0  0  0  0  0  0  0  0  0  0
   26.3496  -21.4877  -10.6421 C   0  0  1  0  0  0  0  0  0  0  0  0
   27.3049  -21.5376   -9.5056 C   0  0  0  0  0  0  0  0  0  0  0  0
   27.1825  -20.4861   -8.5011 C   0  0  0  0  0  0  0  0  0  0  0  0
   26.4597  -19.3318   -8.4084 C   0  0  0  0  0  0  0  0  0  0  0  0
   26.7137  -18.6881   -7.2454 N   0  0  0  0  0  0  0  0  0  0  0  0
   27.6113  -19.4270   -6.5698 C   0  0  0  0  0  0  0  0  0  0  0  0
   28.2387  -19.2678   -5.3292 C   0  0  0  0  0  0  0  0  0  0  0  0
   29.1419  -20.1756   -4.8383 C   0  0  0  0  0  0  0  0  0  0  0  0
   29.4448  -21.2851   -5.5906 C   0  0  0  0  0  0  0  0  0  0  0  0
   28.8367  -21.4460   -6.8001 C   0  0  0  0  0  0  0  0  0  0  0  0
   27.9224  -20.5416   -7.3136 C   0  0  0  0  0  0  0  0  0  0  0  0
   25.1795  -20.6340  -10.2204 C   0  0  0  0  0  0  0  0  0  0  0  0
   25.4111  -19.5522   -9.6774 O   0  0  0  0  0  0  0  0  0  0  0  0
   23.8577  -21.0707  -10.4456 N   0  0  0  0  0  0  0  0  0  0  0  0
   22.9267  -20.2948  -11.3041 C   0  0  1  0  0  0  0  0  0  0  0  0
   23.5110  -20.1812  -12.6820 C   0  0  0  0  0  0  0  0  0  0  0  0
   22.6792  -19.4181  -13.6343 C   0  0  0  0  0  0  0  0  0  0  0  0
   21.4595  -18.8041  -13.3415 C   0  0  0  0  0  0  0  0  0  0  0  0
   20.9779  -18.2019  -14.4299 N   0  0  0  0  0  0  0  0  0  0  0  0
   21.8453  -18.4060  -15.4171 C   0  0  0  0  0  0  0  0  0  0  0  0
   22.8758  -19.1427  -14.9346 N   0  0  0  0  0  0  0  0  0  0  0  0
   21.6112  -20.9895  -11.2924 C   0  0  0  0  0  0  0  0  0  0  0  0
   21.4103  -22.1736  -11.6308 O   0  0  0  0  0  0  0  0  0  0  0  0
   20.4993  -20.2710  -10.8706 O   0  0  0  0  0  0  0  0  0  0  0  0
  1  2  1  0
  1  5  1  0
  2  3  1  0
  3  4  1  0
  5  4  1  0
  5  6  1  1
  6  7  2  0
  8  9  1  0
  8  6  1  0
  9 10  1  1
 10 11  1  0
 11 12  2  0
 13 12  1  0
 14 13  1  0
 15 14  2  0
 16 15  1  0
 17 16  2  0
 17 18  1  0
 18 19  2  0
 19 14  1  0
 19 11  1  0
 20  9  1  0
 21 20  2  0
 22 20  1  0
 23 24  1  6
 23 22  1  0
 25 29  1  0
 25 24  1  0
 26 25  2  0
 27 26  1  0
 27 28  1  0
 28 29  2  0
 30 23  1  0
 30 32  1  0
 31 30  2  0
M  END
$$$$
