PWH.pdb
     RDKit          3D

 32 35  0  0  1  0  0  0  0  0999 V2000
   27.3606  -19.9721  -16.9892 N   0  0  0  0  0  0  0  0  0  0  0  0
   27.4005  -19.2042  -18.1854 C   0  0  0  0  0  0  0  0  0  0  0  0
   28.4805  -18.1719  -17.8374 C   0  0  0  0  0  0  0  0  0  0  0  0
   28.1039  -17.8516  -16.3955 C   0  0  0  0  0  0  0  0  0  0  0  0
   27.2436  -19.0061  -15.9376 C   0  0  1  0  0  0  0  0  0  0  0  0
   25.8431  -18.5955  -15.7017 C   0  0  0  0  0  0  0  0  0  0  0  0
   25.5732  -17.5581  -14.9924 O   0  0  0  0  0  0  0  0  0  0  0  0
   24.7249  -19.2663  -16.2049 N   0  0  0  0  0  0  0  0  0  0  0  0
   23.3464  -18.8719  -15.8589 C   0  0  1  0  0  0  0  0  0  0  0  0
   22.5551  -18.8504  -17.1160 C   0  0  0  0  0  0  0  0  0  0  0  0
   22.7499  -17.6998  -17.9922 C   0  0  0  0  0  0  0  0  0  0  0  0
   23.5245  -16.5771  -17.9382 C   0  0  0  0  0  0  0  0  0  0  0  0
   23.3299  -15.7961  -19.0261 N   0  0  0  0  0  0  0  0  0  0  0  0
   22.4192  -16.4123  -19.8000 C   0  0  0  0  0  0  0  0  0  0  0  0
   21.8324  -16.0861  -21.0278 C   0  0  0  0  0  0  0  0  0  0  0  0
   20.9039  -16.8904  -21.6376 C   0  0  0  0  0  0  0  0  0  0  0  0
   20.5330  -18.0620  -21.0223 C   0  0  0  0  0  0  0  0  0  0  0  0
   21.1012  -18.3855  -19.8260 C   0  0  0  0  0  0  0  0  0  0  0  0
   22.0401  -17.5875  -19.1940 C   0  0  0  0  0  0  0  0  0  0  0  0
   22.7560  -19.9328  -14.9635 C   0  0  0  0  0  0  0  0  0  0  0  0
   22.8911  -21.1137  -15.2891 O   0  0  0  0  0  0  0  0  0  0  0  0
   22.0685  -19.5732  -13.7860 N   0  0  0  0  0  0  0  0  0  0  0  0
   21.5200  -20.6053  -12.8696 C   0  0  1  0  0  0  0  0  0  0  0  0
   22.0631  -20.3731  -11.4897 C   0  0  0  0  0  0  0  0  0  0  0  0
   23.4689  -20.7889  -11.3115 C   0  0  0  0  0  0  0  0  0  0  0  0
   24.2893  -21.3352  -12.3008 C   0  0  0  0  0  0  0  0  0  0  0  0
   25.4976  -21.5963  -11.7998 N   0  0  0  0  0  0  0  0  0  0  0  0
   25.4862  -21.2372  -10.5194 C   0  0  0  0  0  0  0  0  0  0  0  0
   24.2570  -20.7481  -10.2240 N   0  0  0  0  0  0  0  0  0  0  0  0
   20.0358  -20.5208  -12.9255 C   0  0  0  0  0  0  0  0  0  0  0  0
   19.3783  -19.5991  -13.4501 O   0  0  0  0  0  0  0  0  0  0  0  0
   19.3029  -21.5502  -12.3477 O   0  0  0  0  0  0  0  0  0  0  0  0
  1  2  1  0
  1  5  1  0
  2  3  1  0
  3  4  1  0
  5  4  1  0
  5  6  1  6
  6  7  2  0
  8  9  1  0
  8  6  1  0
  9 10  1  6
 10 11  1  0
 11 12  2  0
 13 12  1  0
 14 13  1  0
 15 14  2  0
 16 15  1  0
 17 16  2  0
 17 18  1  0
 18 19  2  0
 19 14  1  0
 19 11  1  0
 20  9  1  0
 21 20  2  0
 22 20  1  0
 23 24  1  1
 23 22  1  0
 25 29  1  0
 25 24  1  0
 26 25  2  0
 27 26  1  0
 27 28  1  0
 28 29  2  0
 30 23  1  0
 30 32  1  0
 31 30  2  0
M  END
$$$$
