PWH.pdb
     RDKit          3D

 32 35  0  0  1  0  0  0  0  0999 V2000
   27.7690  -18.9353  -15.0508 N   0  0  0  0  0  0  0  0  0  0  0  0
   28.7815  -18.5237  -14.1411 C   0  0  0  0  0  0  0  0  0  0  0  0
   29.9867  -19.3165  -14.6626 C   0  0  0  0  0  0  0  0  0  0  0  0
   29.3274  -20.6574  -14.9641 C   0  0  0  0  0  0  0  0  0  0  0  0
   27.8483  -20.3658  -15.0641 C   0  0  1  0  0  0  0  0  0  0  0  0
   27.0847  -20.9838  -13.9594 C   0  0  0  0  0  0  0  0  0  0  0  0
   27.0151  -22.2619  -13.8432 O   0  0  0  0  0  0  0  0  0  0  0  0
   26.3937  -20.2694  -12.9765 N   0  0  0  0  0  0  0  0  0  0  0  0
   25.4897  -20.9252  -12.0132 C   0  0  1  0  0  0  0  0  0  0  0  0
   25.7806  -20.3642  -10.6688 C   0  0  0  0  0  0  0  0  0  0  0  0
   27.0966  -20.6547  -10.1091 C   0  0  0  0  0  0  0  0  0  0  0  0
   28.2262  -21.2560  -10.5843 C   0  0  0  0  0  0  0  0  0  0  0  0
   29.1980  -21.2841   -9.6429 N   0  0  0  0  0  0  0  0  0  0  0  0
   28.7008  -20.6961   -8.5406 C   0  0  0  0  0  0  0  0  0  0  0  0
   29.2337  -20.4401   -7.2723 C   0  0  0  0  0  0  0  0  0  0  0  0
   28.5181  -19.8118   -6.2854 C   0  0  0  0  0  0  0  0  0  0  0  0
   27.2282  -19.4172   -6.5483 C   0  0  0  0  0  0  0  0  0  0  0  0
   26.7033  -19.6637   -7.7822 C   0  0  0  0  0  0  0  0  0  0  0  0
   27.4088  -20.2964   -8.7920 C   0  0  0  0  0  0  0  0  0  0  0  0
   24.0691  -20.5596  -12.3652 C   0  0  0  0  0  0  0  0  0  0  0  0
   23.7826  -19.3659  -12.4731 O   0  0  0  0  0  0  0  0  0  0  0  0
   23.1003  -21.5648  -12.5637 N   0  0  0  0  0  0  0  0  0  0  0  0
   21.7126  -21.2264  -12.9706 C   0  0  1  0  0  0  0  0  0  0  0  0
   21.1147  -22.3983  -13.6933 C   0  0  0  0  0  0  0  0  0  0  0  0
   19.6952  -22.2257  -14.0620 C   0  0  0  0  0  0  0  0  0  0  0  0
   18.9741  -21.0317  -13.9930 C   0  0  0  0  0  0  0  0  0  0  0  0
   17.7197  -21.2310  -14.4002 N   0  0  0  0  0  0  0  0  0  0  0  0
   17.6050  -22.5142  -14.7300 C   0  0  0  0  0  0  0  0  0  0  0  0
   18.8020  -23.1164  -14.5251 N   0  0  0  0  0  0  0  0  0  0  0  0
   20.9553  -20.8598  -11.7437 C   0  0  0  0  0  0  0  0  0  0  0  0
   21.1016  -21.3751  -10.6167 O   0  0  0  0  0  0  0  0  0  0  0  0
   19.9978  -19.8579  -11.8447 O   0  0  0  0  0  0  0  0  0  0  0  0
  1  2  1  0
  1  5  1  0
  2  3  1  0
  3  4  1  0
  5  4  1  0
  5  6  1  1
  6  7  2  0
  8  9  1  0
  8  6  1  0
  9 10  1  1
 10 11  1  0
 11 12  2  0
 13 12  1  0
 14 13  1  0
 15 14  2  0
 16 15  1  0
 17 16  2  0
 17 18  1  0
 18 19  2  0
 19 14  1  0
 19 11  1  0
 20  9  1  0
 21 20  2  0
 22 20  1  0
 23 24  1  1
 23 22  1  0
 25 29  1  0
 25 24  1  0
 26 25  2  0
 27 26  1  0
 27 28  1  0
 28 29  2  0
 30 23  1  0
 30 32  1  0
 31 30  2  0
M  END
$$$$
