PWH.pdb
     RDKit          3D

 32 35  0  0  1  0  0  0  0  0999 V2000
   28.4778  -20.4927  -14.1847 N   0  0  0  0  0  0  0  0  0  0  0  0
   27.4757  -20.1537  -15.1350 C   0  0  0  0  0  0  0  0  0  0  0  0
   27.5215  -18.6214  -15.0781 C   0  0  0  0  0  0  0  0  0  0  0  0
   27.6613  -18.4035  -13.5759 C   0  0  0  0  0  0  0  0  0  0  0  0
   28.1567  -19.7191  -13.0222 C   0  0  1  0  0  0  0  0  0  0  0  0
   27.1460  -20.3775  -12.1675 C   0  0  0  0  0  0  0  0  0  0  0  0
   26.5539  -21.4497  -12.5572 O   0  0  0  0  0  0  0  0  0  0  0  0
   26.7528  -19.9180  -10.9073 N   0  0  0  0  0  0  0  0  0  0  0  0
   25.7439  -20.6192  -10.0913 C   0  0  1  0  0  0  0  0  0  0  0  0
   26.0564  -20.3542   -8.6633 C   0  0  0  0  0  0  0  0  0  0  0  0
   27.4219  -20.6318   -8.2299 C   0  0  0  0  0  0  0  0  0  0  0  0
   28.5078  -21.2220   -8.8094 C   0  0  0  0  0  0  0  0  0  0  0  0
   29.5639  -21.2405   -7.9634 N   0  0  0  0  0  0  0  0  0  0  0  0
   29.1665  -20.6574   -6.8188 C   0  0  0  0  0  0  0  0  0  0  0  0
   29.8135  -20.3961   -5.6059 C   0  0  0  0  0  0  0  0  0  0  0  0
   29.1875  -19.7748   -4.5556 C   0  0  0  0  0  0  0  0  0  0  0  0
   27.8748  -19.3930   -4.6960 C   0  0  0  0  0  0  0  0  0  0  0  0
   27.2389  -19.6446   -5.8754 C   0  0  0  0  0  0  0  0  0  0  0  0
   27.8528  -20.2704   -6.9475 C   0  0  0  0  0  0  0  0  0  0  0  0
   24.3911  -20.0190  -10.3837 C   0  0  0  0  0  0  0  0  0  0  0  0
   24.2873  -18.7911  -10.3977 O   0  0  0  0  0  0  0  0  0  0  0  0
   23.2792  -20.8496  -10.6333 N   0  0  0  0  0  0  0  0  0  0  0  0
   22.2704  -20.4957  -11.6643 C   0  0  1  0  0  0  0  0  0  0  0  0
   22.9520  -20.3800  -12.9967 C   0  0  0  0  0  0  0  0  0  0  0  0
   22.0510  -20.0257  -14.1119 C   0  0  0  0  0  0  0  0  0  0  0  0
   21.0346  -19.0690  -14.0667 C   0  0  0  0  0  0  0  0  0  0  0  0
   20.4161  -19.0030  -15.2466 N   0  0  0  0  0  0  0  0  0  0  0  0
   20.9983  -19.8853  -16.0536 C   0  0  0  0  0  0  0  0  0  0  0  0
   21.9887  -20.5045  -15.3658 N   0  0  0  0  0  0  0  0  0  0  0  0
   21.2151  -21.5440  -11.6470 C   0  0  0  0  0  0  0  0  0  0  0  0
   19.9854  -21.3402  -11.7064 O   0  0  0  0  0  0  0  0  0  0  0  0
   21.6170  -22.8710  -11.5573 O   0  0  0  0  0  0  0  0  0  0  0  0
  1  2  1  0
  1  5  1  0
  2  3  1  0
  3  4  1  0
  5  4  1  0
  5  6  1  6
  6  7  2  0
  8  9  1  0
  8  6  1  0
  9 10  1  1
 10 11  1  0
 11 12  2  0
 13 12  1  0
 14 13  1  0
 15 14  2  0
 16 15  1  0
 17 16  2  0
 17 18  1  0
 18 19  2  0
 19 14  1  0
 19 11  1  0
 20  9  1  0
 21 20  2  0
 22 20  1  0
 23 24  1  6
 23 22  1  0
 25 29  1  0
 25 24  1  0
 26 25  2  0
 27 26  1  0
 27 28  1  0
 28 29  2  0
 30 23  1  0
 30 32  1  0
 31 30  2  0
M  END
$$$$
