PWH.pdb
     RDKit          3D

 32 35  0  0  1  0  0  0  0  0999 V2000
   15.0436  -18.8168    4.0903 N   0  0  0  0  0  0  0  0  0  0  0  0
   14.6248  -17.5640    3.5638 C   0  0  0  0  0  0  0  0  0  0  0  0
   14.9798  -17.7336    2.0811 C   0  0  0  0  0  0  0  0  0  0  0  0
   16.3335  -18.4247    2.1972 C   0  0  0  0  0  0  0  0  0  0  0  0
   16.3764  -18.9947    3.5957 C   0  0  1  0  0  0  0  0  0  0  0  0
   17.3862  -18.3207    4.4392 C   0  0  0  0  0  0  0  0  0  0  0  0
   18.6297  -18.3360    4.1144 O   0  0  0  0  0  0  0  0  0  0  0  0
   17.0995  -17.6314    5.6209 N   0  0  0  0  0  0  0  0  0  0  0  0
   18.1334  -16.9039    6.3807 C   0  0  1  0  0  0  0  0  0  0  0  0
   17.5490  -15.6068    6.8082 C   0  0  0  0  0  0  0  0  0  0  0  0
   17.7257  -14.4784    5.8998 C   0  0  0  0  0  0  0  0  0  0  0  0
   17.0205  -13.9839    4.8408 C   0  0  0  0  0  0  0  0  0  0  0  0
   17.6257  -12.8925    4.3173 N   0  0  0  0  0  0  0  0  0  0  0  0
   18.7379  -12.6699    5.0394 C   0  0  0  0  0  0  0  0  0  0  0  0
   19.7450  -11.7011    4.9673 C   0  0  0  0  0  0  0  0  0  0  0  0
   20.8076  -11.6767    5.8340 C   0  0  0  0  0  0  0  0  0  0  0  0
   20.8899  -12.6388    6.8118 C   0  0  0  0  0  0  0  0  0  0  0  0
   19.9117  -13.5855    6.8875 C   0  0  0  0  0  0  0  0  0  0  0  0
   18.8310  -13.6276    6.0225 C   0  0  0  0  0  0  0  0  0  0  0  0
   18.4567  -17.6934    7.6249 C   0  0  0  0  0  0  0  0  0  0  0  0
   17.5356  -18.2677    8.2084 O   0  0  0  0  0  0  0  0  0  0  0  0
   19.7820  -17.7666    8.1010 N   0  0  0  0  0  0  0  0  0  0  0  0
   20.1239  -18.5651    9.3057 C   0  0  1  0  0  0  0  0  0  0  0  0
   21.2558  -19.4930    8.9731 C   0  0  0  0  0  0  0  0  0  0  0  0
   20.8739  -20.6371    8.1209 C   0  0  0  0  0  0  0  0  0  0  0  0
   19.6446  -21.2992    8.1475 C   0  0  0  0  0  0  0  0  0  0  0  0
   19.6365  -22.2845    7.2485 N   0  0  0  0  0  0  0  0  0  0  0  0
   20.8196  -22.2821    6.6414 C   0  0  0  0  0  0  0  0  0  0  0  0
   21.5689  -21.2839    7.1701 N   0  0  0  0  0  0  0  0  0  0  0  0
   20.4610  -17.6156   10.4002 C   0  0  0  0  0  0  0  0  0  0  0  0
   20.4902  -16.3720   10.3019 O   0  0  0  0  0  0  0  0  0  0  0  0
   20.7729  -18.1435   11.6471 O   0  0  0  0  0  0  0  0  0  0  0  0
  1  2  1  0
  1  5  1  0
  2  3  1  0
  3  4  1  0
  5  4  1  0
  5  6  1  1
  6  7  2  0
  8  9  1  0
  8  6  1  0
  9 10  1  1
 10 11  1  0
 11 12  2  0
 13 12  1  0
 14 13  1  0
 15 14  2  0
 16 15  1  0
 17 16  2  0
 17 18  1  0
 18 19  2  0
 19 14  1  0
 19 11  1  0
 20  9  1  0
 21 20  2  0
 22 20  1  0
 23 24  1  6
 23 22  1  0
 25 29  1  0
 25 24  1  0
 26 25  2  0
 27 26  1  0
 27 28  1  0
 28 29  2  0
 30 23  1  0
 30 32  1  0
 31 30  2  0
M  END
$$$$
