PWH.pdb
     RDKit          3D

 32 35  0  0  1  0  0  0  0  0999 V2000
   27.7598  -19.1845  -14.2979 N   0  0  0  0  0  0  0  0  0  0  0  0
   28.9776  -19.0743  -13.5720 C   0  0  0  0  0  0  0  0  0  0  0  0
   29.8730  -20.0483  -14.3484 C   0  0  0  0  0  0  0  0  0  0  0  0
   28.8945  -21.1916  -14.5909 C   0  0  0  0  0  0  0  0  0  0  0  0
   27.5204  -20.5935  -14.3995 C   0  0  1  0  0  0  0  0  0  0  0  0
   26.8394  -21.1378  -13.2055 C   0  0  0  0  0  0  0  0  0  0  0  0
   26.6271  -22.4000  -13.0885 O   0  0  0  0  0  0  0  0  0  0  0  0
   26.3798  -20.3663  -12.1344 N   0  0  0  0  0  0  0  0  0  0  0  0
   25.4985  -20.9158  -11.0871 C   0  0  1  0  0  0  0  0  0  0  0  0
   25.9505  -20.3650   -9.7835 C   0  0  0  0  0  0  0  0  0  0  0  0
   27.2807  -20.7600   -9.3320 C   0  0  0  0  0  0  0  0  0  0  0  0
   28.3188  -21.4427   -9.8974 C   0  0  0  0  0  0  0  0  0  0  0  0
   29.3578  -21.5526   -9.0373 N   0  0  0  0  0  0  0  0  0  0  0  0
   28.9973  -20.9368   -7.8977 C   0  0  0  0  0  0  0  0  0  0  0  0
   29.6482  -20.7323   -6.6760 C   0  0  0  0  0  0  0  0  0  0  0  0
   29.0646  -20.0584   -5.6337 C   0  0  0  0  0  0  0  0  0  0  0  0
   27.7921  -19.5639   -5.7915 C   0  0  0  0  0  0  0  0  0  0  0  0
   27.1527  -19.7598   -6.9795 C   0  0  0  0  0  0  0  0  0  0  0  0
   27.7241  -20.4370   -8.0437 C   0  0  0  0  0  0  0  0  0  0  0  0
   24.0956  -20.4188  -11.3333 C   0  0  0  0  0  0  0  0  0  0  0  0
   23.9341  -19.2215  -11.5764 O   0  0  0  0  0  0  0  0  0  0  0  0
   23.0029  -21.3088  -11.2845 N   0  0  0  0  0  0  0  0  0  0  0  0
   21.6305  -20.8621  -11.6349 C   0  0  1  0  0  0  0  0  0  0  0  0
   21.0427  -21.8206  -12.6293 C   0  0  0  0  0  0  0  0  0  0  0  0
   21.5329  -21.6406  -14.0107 C   0  0  0  0  0  0  0  0  0  0  0  0
   22.3988  -20.6343  -14.4440 C   0  0  0  0  0  0  0  0  0  0  0  0
   22.6356  -20.7660  -15.7500 N   0  0  0  0  0  0  0  0  0  0  0  0
   21.9515  -21.8238  -16.1762 C   0  0  0  0  0  0  0  0  0  0  0  0
   21.2837  -22.3534  -15.1221 N   0  0  0  0  0  0  0  0  0  0  0  0
   20.8420  -20.7838  -10.3758 C   0  0  0  0  0  0  0  0  0  0  0  0
   21.1728  -21.2761   -9.2780 O   0  0  0  0  0  0  0  0  0  0  0  0
   19.6291  -20.1068  -10.4083 O   0  0  0  0  0  0  0  0  0  0  0  0
  1  2  1  0
  1  5  1  0
  2  3  1  0
  3  4  1  0
  5  4  1  0
  5  6  1  1
  6  7  2  0
  8  9  1  0
  8  6  1  0
  9 10  1  1
 10 11  1  0
 11 12  2  0
 13 12  1  0
 14 13  1  0
 15 14  2  0
 16 15  1  0
 17 16  2  0
 17 18  1  0
 18 19  2  0
 19 14  1  0
 19 11  1  0
 20  9  1  0
 21 20  2  0
 22 20  1  0
 23 24  1  6
 23 22  1  0
 25 29  1  0
 25 24  1  0
 26 25  2  0
 27 26  1  0
 27 28  1  0
 28 29  2  0
 30 23  1  0
 30 32  1  0
 31 30  2  0
M  END
$$$$
