HVH.pdb
     RDKit          3D

 28 29  0  0  1  0  0  0  0  0999 V2000
   19.0472  -13.1952  -17.3872 N   0  0  0  0  0  0  0  0  0  0  0  0
   19.6058  -11.9184  -17.7070 C   0  0  1  0  0  0  0  0  0  0  0  0
   18.5468  -11.1360  -18.4690 C   0  0  0  0  0  0  0  0  0  0  0  0
   18.3468  -11.7156  -19.8331 C   0  0  0  0  0  0  0  0  0  0  0  0
   18.8054  -11.1790  -21.0164 C   0  0  0  0  0  0  0  0  0  0  0  0
   18.4304  -11.9849  -22.0451 N   0  0  0  0  0  0  0  0  0  0  0  0
   17.7464  -13.0095  -21.4992 C   0  0  0  0  0  0  0  0  0  0  0  0
   17.6950  -12.8473  -20.1573 N   0  0  0  0  0  0  0  0  0  0  0  0
   19.8819  -11.1099  -16.4646 C   0  0  0  0  0  0  0  0  0  0  0  0
   19.0686  -11.0818  -15.5138 O   0  0  0  0  0  0  0  0  0  0  0  0
   22.4570  -11.5336  -14.0554 C   0  0  0  0  0  0  0  0  0  0  0  0
   22.6670  -10.1029  -14.4559 C   0  0  1  0  0  0  0  0  0  0  0  0
   23.8963   -9.8959  -15.2565 C   0  0  0  0  0  0  0  0  0  0  0  0
   21.4044   -9.5908  -15.1476 C   0  0  2  0  0  0  0  0  0  0  0  0
   21.0702  -10.3462  -16.3142 N   0  0  0  0  0  0  0  0  0  0  0  0
   21.5134   -8.1284  -15.4225 C   0  0  0  0  0  0  0  0  0  0  0  0
   22.0932   -7.6943  -16.4523 O   0  0  0  0  0  0  0  0  0  0  0  0
   20.9740   -7.1479  -14.5461 N   0  0  0  0  0  0  0  0  0  0  0  0
   21.2812   -5.7012  -14.7351 C   0  0  1  0  0  0  0  0  0  0  0  0
   19.9570   -5.0419  -14.7109 C   0  0  0  0  0  0  0  0  0  0  0  0
   19.9146   -3.5866  -14.7616 C   0  0  0  0  0  0  0  0  0  0  0  0
   20.8469   -2.6074  -14.8808 C   0  0  0  0  0  0  0  0  0  0  0  0
   20.2004   -1.4109  -14.9115 N   0  0  0  0  0  0  0  0  0  0  0  0
   18.8883   -1.6472  -14.8135 C   0  0  0  0  0  0  0  0  0  0  0  0
   18.7062   -2.9453  -14.7235 N   0  0  0  0  0  0  0  0  0  0  0  0
   22.0011   -5.3232  -13.4687 C   0  0  0  0  0  0  0  0  0  0  0  0
   22.5627   -4.1863  -13.4552 O   0  0  0  0  0  0  0  0  0  0  0  0
   22.0855   -6.1194  -12.3484 O   0  0  0  0  0  0  0  0  0  0  0  0
  2  1  1  1
  2  9  1  0
  3  2  1  0
  3  4  1  0
  4  5  2  0
  5  6  1  0
  7  6  1  0
  8  4  1  0
  8  7  2  0
  9 10  2  0
 12 11  1  6
 12 14  1  0
 13 12  1  0
 14 16  1  0
 14 15  1  6
 15  9  1  0
 16 18  1  0
 16 17  2  0
 18 19  1  0
 19 26  1  0
 19 20  1  1
 21 20  1  0
 21 25  1  0
 22 21  2  0
 23 22  1  0
 23 24  1  0
 24 25  2  0
 26 27  2  0
 26 28  1  0
M  END
$$$$
