HVH.pdb
     RDKit          3D

 28 29  0  0  1  0  0  0  0  0999 V2000
   24.7478  -15.6363  -18.1415 N   0  0  0  0  0  0  0  0  0  0  0  0
   24.3660  -14.3108  -18.5180 C   0  0  1  0  0  0  0  0  0  0  0  0
   23.0205  -14.4069  -19.2213 C   0  0  0  0  0  0  0  0  0  0  0  0
   23.1632  -15.1126  -20.5321 C   0  0  0  0  0  0  0  0  0  0  0  0
   23.3058  -14.5121  -21.7640 C   0  0  0  0  0  0  0  0  0  0  0  0
   23.4067  -15.4746  -22.7189 N   0  0  0  0  0  0  0  0  0  0  0  0
   23.3269  -16.6581  -22.0797 C   0  0  0  0  0  0  0  0  0  0  0  0
   23.1791  -16.4399  -20.7530 N   0  0  0  0  0  0  0  0  0  0  0  0
   24.1232  -13.4422  -17.3097 C   0  0  0  0  0  0  0  0  0  0  0  0
   23.4977  -13.8730  -16.3150 O   0  0  0  0  0  0  0  0  0  0  0  0
   26.5580  -11.9779  -15.0939 C   0  0  0  0  0  0  0  0  0  0  0  0
   25.7702  -10.7791  -15.5341 C   0  0  1  0  0  0  0  0  0  0  0  0
   26.5217   -9.8930  -16.4533 C   0  0  0  0  0  0  0  0  0  0  0  0
   24.4333  -11.2471  -16.1073 C   0  0  2  0  0  0  0  0  0  0  0  0
   24.5893  -12.1020  -17.2422 N   0  0  0  0  0  0  0  0  0  0  0  0
   23.5447  -10.0811  -16.3848 C   0  0  0  0  0  0  0  0  0  0  0  0
   23.5712   -9.4830  -17.4922 O   0  0  0  0  0  0  0  0  0  0  0  0
   22.6242   -9.5814  -15.4239 N   0  0  0  0  0  0  0  0  0  0  0  0
   21.7375   -8.4259  -15.7431 C   0  0  1  0  0  0  0  0  0  0  0  0
   20.3694   -8.9820  -15.6551 C   0  0  0  0  0  0  0  0  0  0  0  0
   19.8484   -9.7065  -16.8067 C   0  0  0  0  0  0  0  0  0  0  0  0
   20.3385  -10.0381  -18.0282 C   0  0  0  0  0  0  0  0  0  0  0  0
   19.3933  -10.7698  -18.6776 N   0  0  0  0  0  0  0  0  0  0  0  0
   18.3354  -10.8894  -17.8691 C   0  0  0  0  0  0  0  0  0  0  0  0
   18.5970  -10.2573  -16.7474 N   0  0  0  0  0  0  0  0  0  0  0  0
   21.9281   -7.4989  -14.5728 C   0  0  0  0  0  0  0  0  0  0  0  0
   22.5745   -7.9612  -13.5846 O   0  0  0  0  0  0  0  0  0  0  0  0
   21.4537   -6.2078  -14.5112 O   0  0  0  0  0  0  0  0  0  0  0  0
  2  1  1  1
  2  9  1  0
  3  2  1  0
  3  4  1  0
  4  5  2  0
  5  6  1  0
  7  6  1  0
  8  4  1  0
  8  7  2  0
  9 10  2  0
 12 11  1  6
 12 14  1  0
 13 12  1  0
 14 16  1  0
 14 15  1  6
 15  9  1  0
 16 18  1  0
 16 17  2  0
 18 19  1  0
 19 26  1  0
 19 20  1  1
 21 20  1  0
 21 25  1  0
 22 21  2  0
 23 22  1  0
 23 24  1  0
 24 25  2  0
 26 27  2  0
 26 28  1  0
M  END
$$$$
