HVH.pdb
     RDKit          3D

 28 29  0  0  1  0  0  0  0  0999 V2000
   18.2855  -12.7412  -15.9586 N   0  0  0  0  0  0  0  0  0  0  0  0
   18.7115  -11.5707  -16.6607 C   0  0  1  0  0  0  0  0  0  0  0  0
   17.4850  -10.6967  -16.8751 C   0  0  0  0  0  0  0  0  0  0  0  0
   16.5392  -11.3465  -17.8342 C   0  0  0  0  0  0  0  0  0  0  0  0
   16.6431  -11.3343  -19.2080 C   0  0  0  0  0  0  0  0  0  0  0  0
   15.6018  -12.0287  -19.7391 N   0  0  0  0  0  0  0  0  0  0  0  0
   14.8630  -12.4649  -18.7001 C   0  0  0  0  0  0  0  0  0  0  0  0
   15.4306  -12.0518  -17.5439 N   0  0  0  0  0  0  0  0  0  0  0  0
   19.6530  -10.7390  -15.8269 C   0  0  0  0  0  0  0  0  0  0  0  0
   19.4414  -10.5425  -14.6092 O   0  0  0  0  0  0  0  0  0  0  0  0
   24.1401   -8.7619  -15.3737 C   0  0  0  0  0  0  0  0  0  0  0  0
   23.2084   -9.8209  -15.8854 C   0  0  1  0  0  0  0  0  0  0  0  0
   23.5082  -11.1694  -15.3503 C   0  0  0  0  0  0  0  0  0  0  0  0
   21.7678   -9.3788  -15.6322 C   0  0  2  0  0  0  0  0  0  0  0  0
   20.8178  -10.1422  -16.3792 N   0  0  0  0  0  0  0  0  0  0  0  0
   21.6236   -7.9101  -15.8515 C   0  0  0  0  0  0  0  0  0  0  0  0
   21.6131   -7.4160  -17.0094 O   0  0  0  0  0  0  0  0  0  0  0  0
   21.4908   -6.9904  -14.7759 N   0  0  0  0  0  0  0  0  0  0  0  0
   21.4187   -5.5227  -15.0290 C   0  0  1  0  0  0  0  0  0  0  0  0
   20.1057   -5.1225  -14.4771 C   0  0  0  0  0  0  0  0  0  0  0  0
   18.9398   -5.2149  -15.3458 C   0  0  0  0  0  0  0  0  0  0  0  0
   18.7343   -5.5998  -16.6310 C   0  0  0  0  0  0  0  0  0  0  0  0
   17.4017   -5.5121  -16.8898 N   0  0  0  0  0  0  0  0  0  0  0  0
   16.7928   -5.0803  -15.7808 C   0  0  0  0  0  0  0  0  0  0  0  0
   17.7034   -4.8996  -14.8510 N   0  0  0  0  0  0  0  0  0  0  0  0
   22.4830   -4.9551  -14.1290 C   0  0  0  0  0  0  0  0  0  0  0  0
   22.9795   -5.7463  -13.2714 O   0  0  0  0  0  0  0  0  0  0  0  0
   22.9402   -3.6573  -14.1788 O   0  0  0  0  0  0  0  0  0  0  0  0
  2  1  1  1
  2  9  1  0
  3  2  1  0
  3  4  1  0
  4  5  2  0
  5  6  1  0
  7  6  1  0
  8  4  1  0
  8  7  2  0
  9 10  2  0
 12 11  1  1
 12 14  1  0
 13 12  1  0
 14 16  1  0
 14 15  1  6
 15  9  1  0
 16 18  1  0
 16 17  2  0
 18 19  1  0
 19 26  1  0
 19 20  1  1
 21 20  1  0
 21 25  1  0
 22 21  2  0
 23 22  1  0
 23 24  1  0
 24 25  2  0
 26 27  2  0
 26 28  1  0
M  END
$$$$
