HVH.pdb
     RDKit          3D

 28 29  0  0  1  0  0  0  0  0999 V2000
   17.3797  -23.0108    2.0690 N   0  0  0  0  0  0  0  0  0  0  0  0
   17.1095  -22.9271    3.4706 C   0  0  1  0  0  0  0  0  0  0  0  0
   16.4853  -24.2483    3.8938 C   0  0  0  0  0  0  0  0  0  0  0  0
   15.1630  -24.4423    3.2226 C   0  0  0  0  0  0  0  0  0  0  0  0
   14.0293  -23.6882    3.4334 C   0  0  0  0  0  0  0  0  0  0  0  0
   13.0273  -24.1618    2.6459 N   0  0  0  0  0  0  0  0  0  0  0  0
   13.5404  -25.1993    1.9559 C   0  0  0  0  0  0  0  0  0  0  0  0
   14.8360  -25.3705    2.3049 N   0  0  0  0  0  0  0  0  0  0  0  0
   18.3815  -22.8121    4.2721 C   0  0  0  0  0  0  0  0  0  0  0  0
   19.4062  -23.4595    3.9607 O   0  0  0  0  0  0  0  0  0  0  0  0
   18.7115  -19.5263    6.5579 C   0  0  0  0  0  0  0  0  0  0  0  0
   19.9943  -20.2805    6.3654 C   0  0  1  0  0  0  0  0  0  0  0  0
   20.9813  -20.0367    7.4429 C   0  0  0  0  0  0  0  0  0  0  0  0
   19.6742  -21.7612    6.1654 C   0  0  2  0  0  0  0  0  0  0  0  0
   18.4777  -21.9693    5.4115 N   0  0  0  0  0  0  0  0  0  0  0  0
   19.6591  -22.4761    7.4749 C   0  0  0  0  0  0  0  0  0  0  0  0
   18.6706  -22.4057    8.2513 O   0  0  0  0  0  0  0  0  0  0  0  0
   20.7502  -23.2715    7.9192 N   0  0  0  0  0  0  0  0  0  0  0  0
   20.6954  -23.9815    9.2292 C   0  0  1  0  0  0  0  0  0  0  0  0
   21.2809  -25.3106    8.9474 C   0  0  0  0  0  0  0  0  0  0  0  0
   20.4213  -26.3268    8.3551 C   0  0  0  0  0  0  0  0  0  0  0  0
   19.1241  -26.6924    8.5154 C   0  0  0  0  0  0  0  0  0  0  0  0
   18.8596  -27.7025    7.6435 N   0  0  0  0  0  0  0  0  0  0  0  0
   19.9764  -27.9566    6.9540 C   0  0  0  0  0  0  0  0  0  0  0  0
   20.9166  -27.1394    7.3715 N   0  0  0  0  0  0  0  0  0  0  0  0
   21.6757  -23.2242   10.0841 C   0  0  0  0  0  0  0  0  0  0  0  0
   22.3551  -22.3245    9.5036 O   0  0  0  0  0  0  0  0  0  0  0  0
   21.8755  -23.4442   11.4285 O   0  0  0  0  0  0  0  0  0  0  0  0
  2  1  1  6
  2  9  1  0
  3  2  1  0
  3  4  1  0
  4  5  2  0
  5  6  1  0
  7  6  1  0
  8  4  1  0
  8  7  2  0
  9 10  2  0
 12 11  1  1
 12 14  1  0
 13 12  1  0
 14 16  1  0
 14 15  1  1
 15  9  1  0
 16 18  1  0
 16 17  2  0
 18 19  1  0
 19 26  1  0
 19 20  1  6
 21 20  1  0
 21 25  1  0
 22 21  2  0
 23 22  1  0
 23 24  1  0
 24 25  2  0
 26 27  2  0
 26 28  1  0
M  END
$$$$
