AHI.pdb
     RDKit          3D

 24 24  0  0  1  0  0  0  0  0999 V2000
    8.7352  -12.5102   19.5371 C   0  0  0  0  0  0  0  0  0  0  0  0
    8.4173  -13.9473   19.1602 C   0  0  2  0  0  0  0  0  0  0  0  0
    7.5823  -13.9857   18.0022 N   0  0  0  0  0  0  0  0  0  0  0  0
    7.7917  -14.5716   20.3539 C   0  0  0  0  0  0  0  0  0  0  0  0
    6.5475  -14.3277   20.5087 O   0  0  0  0  0  0  0  0  0  0  0  0
    8.5083  -15.3835   21.2678 N   0  0  0  0  0  0  0  0  0  0  0  0
    7.8073  -15.9463   22.4547 C   0  0  1  0  0  0  0  0  0  0  0  0
    7.9814  -17.4216   22.3720 C   0  0  0  0  0  0  0  0  0  0  0  0
    7.5452  -18.1719   23.5584 C   0  0  0  0  0  0  0  0  0  0  0  0
    7.0534  -17.6559   24.7336 C   0  0  0  0  0  0  0  0  0  0  0  0
    6.7994  -18.6573   25.5754 N   0  0  0  0  0  0  0  0  0  0  0  0
    7.1105  -19.8149   24.9857 C   0  0  0  0  0  0  0  0  0  0  0  0
    7.5650  -19.5166   23.7561 N   0  0  0  0  0  0  0  0  0  0  0  0
    8.3910  -15.2751   23.6238 C   0  0  0  0  0  0  0  0  0  0  0  0
    9.6638  -15.1576   23.7119 O   0  0  0  0  0  0  0  0  0  0  0  0
    5.5834  -11.6940   26.9239 C   0  0  0  0  0  0  0  0  0  0  0  0
    6.1676  -13.0108   26.4954 C   0  0  0  0  0  0  0  0  0  0  0  0
    7.6494  -12.8003   26.2489 C   0  0  2  0  0  0  0  0  0  0  0  0
    7.7591  -11.8319   25.0838 C   0  0  0  0  0  0  0  0  0  0  0  0
    8.3274  -14.0992   25.8548 C   0  0  2  0  0  0  0  0  0  0  0  0
    7.6936  -14.7107   24.7155 N   0  0  0  0  0  0  0  0  0  0  0  0
    8.4263  -14.9286   27.0480 C   0  0  0  0  0  0  0  0  0  0  0  0
    7.8282  -16.1679   27.1894 O   0  0  0  0  0  0  0  0  0  0  0  0
    9.0968  -14.5001   28.0203 O   0  0  0  0  0  0  0  0  0  0  0  0
  2  1  1  1
  2  3  1  0
  4  5  2  0
  4  2  1  0
  6  4  1  0
  7 14  1  0
  7  6  1  0
  7  8  1  1
  9  8  1  0
  9 13  1  0
 10 11  1  0
 10  9  2  0
 11 12  1  0
 12 13  2  0
 14 21  1  0
 15 14  2  0
 17 16  1  0
 18 20  1  0
 18 17  1  0
 18 19  1  6
 20 22  1  0
 20 21  1  6
 22 24  2  0
 22 23  1  0
M  END
$$$$
