AHI.pdb
     RDKit          3D

 24 24  0  0  1  0  0  0  0  0999 V2000
    7.6012  -12.8286   18.9115 C   0  0  0  0  0  0  0  0  0  0  0  0
    8.2473  -14.1443   19.3115 C   0  0  2  0  0  0  0  0  0  0  0  0
    7.9227  -15.1660   18.3678 N   0  0  0  0  0  0  0  0  0  0  0  0
    7.7774  -14.4478   20.6874 C   0  0  0  0  0  0  0  0  0  0  0  0
    6.5103  -14.5317   20.8256 O   0  0  0  0  0  0  0  0  0  0  0  0
    8.6575  -14.6345   21.7822 N   0  0  0  0  0  0  0  0  0  0  0  0
    8.1642  -15.3126   23.0125 C   0  0  1  0  0  0  0  0  0  0  0  0
    7.8887  -16.7214   22.6214 C   0  0  0  0  0  0  0  0  0  0  0  0
    7.4942  -17.6120   23.7224 C   0  0  0  0  0  0  0  0  0  0  0  0
    6.5591  -17.3629   24.6984 C   0  0  0  0  0  0  0  0  0  0  0  0
    6.5113  -18.4030   25.5303 N   0  0  0  0  0  0  0  0  0  0  0  0
    7.3883  -19.3267   25.1274 C   0  0  0  0  0  0  0  0  0  0  0  0
    7.9864  -18.8423   24.0251 N   0  0  0  0  0  0  0  0  0  0  0  0
    9.1987  -15.0988   24.0334 C   0  0  0  0  0  0  0  0  0  0  0  0
   10.1063  -15.9867   24.2054 O   0  0  0  0  0  0  0  0  0  0  0  0
    6.6900  -11.0670   25.9981 C   0  0  0  0  0  0  0  0  0  0  0  0
    7.0481  -12.2027   25.0811 C   0  0  0  0  0  0  0  0  0  0  0  0
    7.1731  -13.4564   25.9258 C   0  0  2  0  0  0  0  0  0  0  0  0
    6.5630  -13.1278   27.2775 C   0  0  0  0  0  0  0  0  0  0  0  0
    8.6285  -13.8294   26.1375 C   0  0  2  0  0  0  0  0  0  0  0  0
    9.3299  -13.9821   24.8892 N   0  0  0  0  0  0  0  0  0  0  0  0
    8.6671  -14.9777   27.0326 C   0  0  0  0  0  0  0  0  0  0  0  0
    9.1087  -14.9322   28.3427 O   0  0  0  0  0  0  0  0  0  0  0  0
    8.2758  -16.0893   26.5967 O   0  0  0  0  0  0  0  0  0  0  0  0
  2  1  1  6
  2  3  1  0
  4  5  2  0
  4  2  1  0
  6  4  1  0
  7 14  1  0
  7  6  1  0
  7  8  1  6
  9  8  1  0
  9 13  1  0
 10 11  1  0
 10  9  2  0
 11 12  1  0
 12 13  2  0
 14 21  1  0
 15 14  2  0
 17 16  1  0
 18 20  1  0
 18 17  1  0
 18 19  1  1
 20 22  1  0
 20 21  1  6
 22 24  2  0
 22 23  1  0
M  END
$$$$
