AHI.pdb
     RDKit          3D

 24 24  0  0  1  0  0  0  0  0999 V2000
   14.0406  -17.9292   21.4420 C   0  0  0  0  0  0  0  0  0  0  0  0
   13.1895  -17.9383   22.7006 C   0  0  2  0  0  0  0  0  0  0  0  0
   12.5706  -19.2137   22.8745 N   0  0  0  0  0  0  0  0  0  0  0  0
   12.2128  -16.8280   22.5615 C   0  0  0  0  0  0  0  0  0  0  0  0
   12.7226  -15.6602   22.4728 O   0  0  0  0  0  0  0  0  0  0  0  0
   10.8107  -17.0304   22.5276 N   0  0  0  0  0  0  0  0  0  0  0  0
    9.9017  -15.8543   22.4405 C   0  0  1  0  0  0  0  0  0  0  0  0
    9.0606  -16.0750   21.2332 C   0  0  0  0  0  0  0  0  0  0  0  0
    8.2009  -14.9449   20.8530 C   0  0  0  0  0  0  0  0  0  0  0  0
    6.8465  -14.8265   21.0545 C   0  0  0  0  0  0  0  0  0  0  0  0
    6.4302  -13.6690   20.5417 N   0  0  0  0  0  0  0  0  0  0  0  0
    7.4729  -13.0254   20.0098 C   0  0  0  0  0  0  0  0  0  0  0  0
    8.5514  -13.8051   20.2008 N   0  0  0  0  0  0  0  0  0  0  0  0
    9.2033  -15.7878   23.7311 C   0  0  0  0  0  0  0  0  0  0  0  0
    8.9732  -16.8691   24.3789 O   0  0  0  0  0  0  0  0  0  0  0  0
    7.6496  -11.1495   27.0485 C   0  0  0  0  0  0  0  0  0  0  0  0
    8.1220  -12.5745   26.9794 C   0  0  0  0  0  0  0  0  0  0  0  0
    7.3447  -13.2657   25.8753 C   0  0  2  0  0  0  0  0  0  0  0  0
    5.9292  -13.4493   26.3948 C   0  0  0  0  0  0  0  0  0  0  0  0
    7.9238  -14.6355   25.5748 C   0  0  2  0  0  0  0  0  0  0  0  0
    8.7334  -14.6260   24.3840 N   0  0  0  0  0  0  0  0  0  0  0  0
    6.8276  -15.5944   25.5902 C   0  0  0  0  0  0  0  0  0  0  0  0
    6.3842  -16.2556   26.7215 O   0  0  0  0  0  0  0  0  0  0  0  0
    6.2378  -15.8459   24.5097 O   0  0  0  0  0  0  0  0  0  0  0  0
  2  1  1  6
  2  3  1  0
  4  5  2  0
  4  2  1  0
  6  4  1  0
  7 14  1  0
  7  6  1  0
  7  8  1  6
  9  8  1  0
  9 13  1  0
 10 11  1  0
 10  9  2  0
 11 12  1  0
 12 13  2  0
 14 21  1  0
 15 14  2  0
 17 16  1  0
 18 20  1  0
 18 17  1  0
 18 19  1  1
 20 22  1  0
 20 21  1  6
 22 24  2  0
 22 23  1  0
M  END
$$$$
