AHI.pdb
     RDKit          3D

 24 24  0  0  1  0  0  0  0  0999 V2000
    8.2556  -12.1984   19.7115 C   0  0  0  0  0  0  0  0  0  0  0  0
    8.3279  -13.6312   19.2112 C   0  0  2  0  0  0  0  0  0  0  0  0
    7.4025  -13.8331   18.1422 N   0  0  0  0  0  0  0  0  0  0  0  0
    8.0671  -14.5048   20.3838 C   0  0  0  0  0  0  0  0  0  0  0  0
    6.8349  -14.7319   20.6321 O   0  0  0  0  0  0  0  0  0  0  0  0
    9.0993  -15.0565   21.1826 N   0  0  0  0  0  0  0  0  0  0  0  0
    8.7530  -16.0089   22.2735 C   0  0  1  0  0  0  0  0  0  0  0  0
    9.4934  -17.2638   21.9722 C   0  0  0  0  0  0  0  0  0  0  0  0
    8.9291  -18.0796   20.8874 C   0  0  0  0  0  0  0  0  0  0  0  0
    7.7186  -18.7305   20.8805 C   0  0  0  0  0  0  0  0  0  0  0  0
    7.5842  -19.3863   19.7281 N   0  0  0  0  0  0  0  0  0  0  0  0
    8.6720  -19.1839   18.9796 C   0  0  0  0  0  0  0  0  0  0  0  0
    9.4906  -18.3871   19.6884 N   0  0  0  0  0  0  0  0  0  0  0  0
    9.0918  -15.3251   23.5287 C   0  0  0  0  0  0  0  0  0  0  0  0
   10.2718  -14.8524   23.6894 O   0  0  0  0  0  0  0  0  0  0  0  0
    5.8523  -11.8606   25.8477 C   0  0  0  0  0  0  0  0  0  0  0  0
    7.0752  -12.5577   25.3210 C   0  0  0  0  0  0  0  0  0  0  0  0
    7.5407  -13.5377   26.3811 C   0  0  2  0  0  0  0  0  0  0  0  0
    8.1169  -12.7055   27.5137 C   0  0  0  0  0  0  0  0  0  0  0  0
    8.6372  -14.4401   25.8469 C   0  0  2  0  0  0  0  0  0  0  0  0
    8.2394  -15.1073   24.6345 N   0  0  0  0  0  0  0  0  0  0  0  0
    9.0702  -15.3053   26.9355 C   0  0  0  0  0  0  0  0  0  0  0  0
   10.0093  -14.9519   27.8878 O   0  0  0  0  0  0  0  0  0  0  0  0
    8.5641  -16.4518   27.0258 O   0  0  0  0  0  0  0  0  0  0  0  0
  2  1  1  1
  2  3  1  0
  4  5  2  0
  4  2  1  0
  6  4  1  0
  7 14  1  0
  7  6  1  0
  7  8  1  6
  9  8  1  0
  9 13  1  0
 10 11  1  0
 10  9  2  0
 11 12  1  0
 12 13  2  0
 14 21  1  0
 15 14  2  0
 17 16  1  0
 18 20  1  0
 18 17  1  0
 18 19  1  1
 20 22  1  0
 20 21  1  6
 22 24  2  0
 22 23  1  0
M  END
$$$$
