AHI.pdb
     RDKit          3D

 24 24  0  0  1  0  0  0  0  0999 V2000
   12.6532  -13.9457   20.4843 C   0  0  0  0  0  0  0  0  0  0  0  0
   11.9351  -15.1278   19.8556 C   0  0  2  0  0  0  0  0  0  0  0  0
   11.7745  -14.9239   18.4513 N   0  0  0  0  0  0  0  0  0  0  0  0
   10.6450  -15.2743   20.5770 C   0  0  0  0  0  0  0  0  0  0  0  0
    9.6813  -14.5711   20.1206 O   0  0  0  0  0  0  0  0  0  0  0  0
   10.4760  -16.1288   21.6947 N   0  0  0  0  0  0  0  0  0  0  0  0
    9.1570  -16.1835   22.3834 C   0  0  1  0  0  0  0  0  0  0  0  0
    8.7174  -17.6032   22.3144 C   0  0  0  0  0  0  0  0  0  0  0  0
    8.0078  -17.9807   21.0836 C   0  0  0  0  0  0  0  0  0  0  0  0
    8.5553  -18.1960   19.8414 C   0  0  0  0  0  0  0  0  0  0  0  0
    7.5805  -18.4906   18.9818 N   0  0  0  0  0  0  0  0  0  0  0  0
    6.4098  -18.4747   19.6249 C   0  0  0  0  0  0  0  0  0  0  0  0
    6.6726  -18.1636   20.9062 N   0  0  0  0  0  0  0  0  0  0  0  0
    9.3778  -15.6229   23.7231 C   0  0  0  0  0  0  0  0  0  0  0  0
   10.4786  -15.8641   24.3329 O   0  0  0  0  0  0  0  0  0  0  0  0
    5.5212  -12.4026   26.4178 C   0  0  0  0  0  0  0  0  0  0  0  0
    6.3257  -13.5877   25.9627 C   0  0  0  0  0  0  0  0  0  0  0  0
    7.7853  -13.2940   26.2532 C   0  0  2  0  0  0  0  0  0  0  0  0
    8.1598  -12.0911   25.4046 C   0  0  0  0  0  0  0  0  0  0  0  0
    8.6682  -14.4586   25.8456 C   0  0  2  0  0  0  0  0  0  0  0  0
    8.4894  -14.8079   24.4601 N   0  0  0  0  0  0  0  0  0  0  0  0
    8.4557  -15.5341   26.8044 C   0  0  0  0  0  0  0  0  0  0  0  0
    8.8409  -15.4842   28.1321 O   0  0  0  0  0  0  0  0  0  0  0  0
    7.8855  -16.5823   26.4109 O   0  0  0  0  0  0  0  0  0  0  0  0
  2  1  1  1
  2  3  1  0
  4  5  2  0
  4  2  1  0
  6  4  1  0
  7 14  1  0
  7  6  1  0
  7  8  1  1
  9  8  1  0
  9 13  1  0
 10 11  1  0
 10  9  2  0
 11 12  1  0
 12 13  2  0
 14 21  1  0
 15 14  2  0
 17 16  1  0
 18 20  1  0
 18 17  1  0
 18 19  1  6
 20 22  1  0
 20 21  1  6
 22 24  2  0
 22 23  1  0
M  END
$$$$
