AHI.pdb
     RDKit          3D

 24 24  0  0  1  0  0  0  0  0999 V2000
    7.3543  -13.0292   18.7742 C   0  0  0  0  0  0  0  0  0  0  0  0
    8.6311  -13.2781   19.5592 C   0  0  2  0  0  0  0  0  0  0  0  0
    9.6051  -13.9206   18.7356 N   0  0  0  0  0  0  0  0  0  0  0  0
    8.2491  -14.0812   20.7488 C   0  0  0  0  0  0  0  0  0  0  0  0
    7.2462  -13.6408   21.4059 O   0  0  0  0  0  0  0  0  0  0  0  0
    8.9367  -15.2560   21.1427 N   0  0  0  0  0  0  0  0  0  0  0  0
    8.3567  -16.1243   22.2042 C   0  0  1  0  0  0  0  0  0  0  0  0
    8.8276  -17.5041   21.9075 C   0  0  0  0  0  0  0  0  0  0  0  0
    8.1292  -18.1815   20.8055 C   0  0  0  0  0  0  0  0  0  0  0  0
    8.6060  -18.4135   19.5375 C   0  0  0  0  0  0  0  0  0  0  0  0
    7.6625  -19.0271   18.8238 N   0  0  0  0  0  0  0  0  0  0  0  0
    6.5810  -19.2039   19.5878 C   0  0  0  0  0  0  0  0  0  0  0  0
    6.8678  -18.6876   20.7955 N   0  0  0  0  0  0  0  0  0  0  0  0
    8.7839  -15.5392   23.4822 C   0  0  0  0  0  0  0  0  0  0  0  0
   10.0199  -15.2536   23.6619 O   0  0  0  0  0  0  0  0  0  0  0  0
    5.8954  -11.8476   26.0621 C   0  0  0  0  0  0  0  0  0  0  0  0
    6.9410  -12.7022   25.4024 C   0  0  0  0  0  0  0  0  0  0  0  0
    7.4372  -13.7010   26.4305 C   0  0  2  0  0  0  0  0  0  0  0  0
    8.1361  -12.8949   27.5118 C   0  0  0  0  0  0  0  0  0  0  0  0
    8.4459  -14.6566   25.8211 C   0  0  2  0  0  0  0  0  0  0  0  0
    7.9648  -15.2318   24.5918 N   0  0  0  0  0  0  0  0  0  0  0  0
    8.8406  -15.6042   26.8543 C   0  0  0  0  0  0  0  0  0  0  0  0
    8.5440  -16.9551   26.8295 O   0  0  0  0  0  0  0  0  0  0  0  0
    9.4944  -15.1777   27.8389 O   0  0  0  0  0  0  0  0  0  0  0  0
  2  1  1  6
  2  3  1  0
  4  5  2  0
  4  2  1  0
  6  4  1  0
  7 14  1  0
  7  6  1  0
  7  8  1  6
  9  8  1  0
  9 13  1  0
 10 11  1  0
 10  9  2  0
 11 12  1  0
 12 13  2  0
 14 21  1  0
 15 14  2  0
 17 16  1  0
 18 20  1  0
 18 17  1  0
 18 19  1  1
 20 22  1  0
 20 21  1  6
 22 24  2  0
 22 23  1  0
M  END
$$$$
