AHI.pdb
     RDKit          3D

 24 24  0  0  1  0  0  0  0  0999 V2000
    8.0672  -12.2600   19.8758 C   0  0  0  0  0  0  0  0  0  0  0  0
    8.3374  -13.6715   19.3828 C   0  0  2  0  0  0  0  0  0  0  0  0
    7.4677  -13.9952   18.2972 N   0  0  0  0  0  0  0  0  0  0  0  0
    8.1712  -14.5700   20.5538 C   0  0  0  0  0  0  0  0  0  0  0  0
    6.9626  -14.8164   20.8857 O   0  0  0  0  0  0  0  0  0  0  0  0
    9.2641  -15.1244   21.2652 N   0  0  0  0  0  0  0  0  0  0  0  0
    9.0055  -16.0524   22.4004 C   0  0  1  0  0  0  0  0  0  0  0  0
    9.9516  -17.1873   22.2258 C   0  0  0  0  0  0  0  0  0  0  0  0
    9.5395  -18.2018   21.2451 C   0  0  0  0  0  0  0  0  0  0  0  0
    8.2904  -18.3682   20.6963 C   0  0  0  0  0  0  0  0  0  0  0  0
    8.3134  -19.4155   19.8725 N   0  0  0  0  0  0  0  0  0  0  0  0
    9.5418  -19.9403   19.8656 C   0  0  0  0  0  0  0  0  0  0  0  0
   10.2877  -19.1988   20.7030 N   0  0  0  0  0  0  0  0  0  0  0  0
    9.1540  -15.2482   23.6208 C   0  0  0  0  0  0  0  0  0  0  0  0
   10.1408  -14.4375   23.7242 O   0  0  0  0  0  0  0  0  0  0  0  0
    5.5475  -12.2040   25.8742 C   0  0  0  0  0  0  0  0  0  0  0  0
    6.7914  -12.8623   25.3467 C   0  0  0  0  0  0  0  0  0  0  0  0
    7.3350  -13.7643   26.4385 C   0  0  2  0  0  0  0  0  0  0  0  0
    7.7490  -12.8547   27.5824 C   0  0  0  0  0  0  0  0  0  0  0  0
    8.5616  -14.5198   25.9623 C   0  0  2  0  0  0  0  0  0  0  0  0
    8.3033  -15.2513   24.7491 N   0  0  0  0  0  0  0  0  0  0  0  0
    9.0630  -15.3040   27.0825 C   0  0  0  0  0  0  0  0  0  0  0  0
   10.0467  -14.8773   27.9564 O   0  0  0  0  0  0  0  0  0  0  0  0
    8.5771  -16.4462   27.2780 O   0  0  0  0  0  0  0  0  0  0  0  0
  2  1  1  1
  2  3  1  0
  4  5  2  0
  4  2  1  0
  6  4  1  0
  7 14  1  0
  7  6  1  0
  7  8  1  1
  9  8  1  0
  9 13  1  0
 10 11  1  0
 10  9  2  0
 11 12  1  0
 12 13  2  0
 14 21  1  0
 15 14  2  0
 17 16  1  0
 18 20  1  0
 18 17  1  0
 18 19  1  1
 20 22  1  0
 20 21  1  6
 22 24  2  0
 22 23  1  0
M  END
$$$$
