AHI.pdb
     RDKit          3D

 24 24  0  0  1  0  0  0  0  0999 V2000
    8.1489  -12.1280   19.5271 C   0  0  0  0  0  0  0  0  0  0  0  0
    8.2809  -13.5464   18.9987 C   0  0  2  0  0  0  0  0  0  0  0  0
    7.3524  -13.7711   17.9371 N   0  0  0  0  0  0  0  0  0  0  0  0
    8.0753  -14.4526   20.1575 C   0  0  0  0  0  0  0  0  0  0  0  0
    6.8848  -14.8918   20.3027 O   0  0  0  0  0  0  0  0  0  0  0  0
    9.1146  -14.8156   21.0498 N   0  0  0  0  0  0  0  0  0  0  0  0
    8.8723  -15.8780   22.0645 C   0  0  1  0  0  0  0  0  0  0  0  0
    9.7553  -17.0143   21.6870 C   0  0  0  0  0  0  0  0  0  0  0  0
    9.7862  -18.1294   22.6443 C   0  0  0  0  0  0  0  0  0  0  0  0
    9.0946  -18.2278   23.8280 C   0  0  0  0  0  0  0  0  0  0  0  0
    9.4135  -19.3765   24.4237 N   0  0  0  0  0  0  0  0  0  0  0  0
   10.2943  -20.0338   23.6644 C   0  0  0  0  0  0  0  0  0  0  0  0
   10.5201  -19.2716   22.5801 N   0  0  0  0  0  0  0  0  0  0  0  0
    9.1197  -15.2525   23.3705 C   0  0  0  0  0  0  0  0  0  0  0  0
   10.1879  -14.5676   23.5482 O   0  0  0  0  0  0  0  0  0  0  0  0
    5.8809  -12.0799   25.9136 C   0  0  0  0  0  0  0  0  0  0  0  0
    7.0287  -12.8426   25.3140 C   0  0  0  0  0  0  0  0  0  0  0  0
    7.4734  -13.8801   26.3274 C   0  0  2  0  0  0  0  0  0  0  0  0
    7.9802  -13.1122   27.5360 C   0  0  0  0  0  0  0  0  0  0  0  0
    8.6138  -14.7205   25.7840 C   0  0  2  0  0  0  0  0  0  0  0  0
    8.2871  -15.3086   24.5109 N   0  0  0  0  0  0  0  0  0  0  0  0
    9.0169  -15.6514   26.8291 C   0  0  0  0  0  0  0  0  0  0  0  0
   10.0815  -15.4475   27.6885 O   0  0  0  0  0  0  0  0  0  0  0  0
    8.3613  -16.7141   26.9689 O   0  0  0  0  0  0  0  0  0  0  0  0
  2  1  1  1
  2  3  1  0
  4  5  2  0
  4  2  1  0
  6  4  1  0
  7 14  1  0
  7  6  1  0
  7  8  1  6
  9  8  1  0
  9 13  1  0
 10 11  1  0
 10  9  2  0
 11 12  1  0
 12 13  2  0
 14 21  1  0
 15 14  2  0
 17 16  1  0
 18 20  1  0
 18 17  1  0
 18 19  1  1
 20 22  1  0
 20 21  1  6
 22 24  2  0
 22 23  1  0
M  END
$$$$
