WMG.pdb
     RDKit          3D

 27 28  0  0  1  0  0  0  0  0999 V2000
    7.7025  -20.1264   26.3270 N   0  0  0  0  0  0  0  0  0  0  0  0
    8.1064  -18.7674   26.7556 C   0  0  1  0  0  0  0  0  0  0  0  0
    9.5509  -18.8283   27.1317 C   0  0  0  0  0  0  0  0  0  0  0  0
    9.8561  -17.9690   28.2999 C   0  0  0  0  0  0  0  0  0  0  0  0
   10.1487  -18.4469   29.5901 C   0  0  0  0  0  0  0  0  0  0  0  0
   10.4076  -17.4042   30.3870 N   0  0  0  0  0  0  0  0  0  0  0  0
   10.3072  -16.2277   29.7096 C   0  0  0  0  0  0  0  0  0  0  0  0
   10.4695  -14.9126   30.0833 C   0  0  0  0  0  0  0  0  0  0  0  0
   10.2893  -13.9141   29.1615 C   0  0  0  0  0  0  0  0  0  0  0  0
    9.9461  -14.2606   27.8707 C   0  0  0  0  0  0  0  0  0  0  0  0
    9.7848  -15.5781   27.4997 C   0  0  0  0  0  0  0  0  0  0  0  0
    9.9621  -16.6084   28.4119 C   0  0  0  0  0  0  0  0  0  0  0  0
    7.7227  -17.8377   25.7112 C   0  0  0  0  0  0  0  0  0  0  0  0
    7.2243  -18.2590   24.6088 O   0  0  0  0  0  0  0  0  0  0  0  0
    5.6521  -11.3256   26.6180 C   0  0  0  0  0  0  0  0  0  0  0  0
    7.1368  -11.4968   25.5511 S   0  0  0  0  0  0  0  0  0  0  0  0
    6.9807  -13.0278   24.5459 C   0  0  0  0  0  0  0  0  0  0  0  0
    7.4723  -14.1352   25.4037 C   0  0  0  0  0  0  0  0  0  0  0  0
    7.3527  -15.5228   24.7481 C   0  0  2  0  0  0  0  0  0  0  0  0
    7.8408  -16.4208   25.7782 N   0  0  0  0  0  0  0  0  0  0  0  0
    8.1045  -15.6066   23.4945 C   0  0  0  0  0  0  0  0  0  0  0  0
    7.7400  -14.9045   22.5065 O   0  0  0  0  0  0  0  0  0  0  0  0
    9.2412  -16.4447   23.3177 N   0  0  0  0  0  0  0  0  0  0  0  0
    9.8892  -16.4901   22.0279 C   0  0  0  0  0  0  0  0  0  0  0  0
   11.0357  -15.5798   22.0286 C   0  0  0  0  0  0  0  0  0  0  0  0
   12.3073  -16.0629   21.7909 O   0  0  0  0  0  0  0  0  0  0  0  0
   10.9351  -14.3361   22.2394 O   0  0  0  0  0  0  0  0  0  0  0  0
  2  3  1  0
  2  1  1  6
  4  5  2  0
  4  3  1  0
  6  5  1  0
  7 12  2  0
  7  6  1  0
  8  7  1  0
  9 10  1  0
  9  8  2  0
 10 11  2  0
 11 12  1  0
 12  4  1  0
 13  2  1  0
 14 13  2  0
 16 15  1  0
 17 16  1  0
 18 17  1  0
 19 18  1  1
 19 20  1  0
 20 13  1  0
 21 19  1  0
 21 22  2  0
 23 21  1  0
 24 23  1  0
 24 25  1  0
 25 27  2  0
 25 26  1  0
M  END
$$$$
