WMG.pdb
     RDKit          3D

 27 28  0  0  1  0  0  0  0  0999 V2000
    9.8637  -17.6734   21.9482 N   0  0  0  0  0  0  0  0  0  0  0  0
    9.4390  -16.6945   22.9754 C   0  0  1  0  0  0  0  0  0  0  0  0
    8.0258  -16.3153   22.6740 C   0  0  0  0  0  0  0  0  0  0  0  0
    7.7327  -14.9156   23.0625 C   0  0  0  0  0  0  0  0  0  0  0  0
    8.0792  -13.7846   22.3014 C   0  0  0  0  0  0  0  0  0  0  0  0
    7.6340  -12.6903   22.9289 N   0  0  0  0  0  0  0  0  0  0  0  0
    6.9966  -13.0106   24.0883 C   0  0  0  0  0  0  0  0  0  0  0  0
    6.3869  -12.2544   25.0641 C   0  0  0  0  0  0  0  0  0  0  0  0
    5.8236  -12.8699   26.1518 C   0  0  0  0  0  0  0  0  0  0  0  0
    5.8852  -14.2457   26.2378 C   0  0  0  0  0  0  0  0  0  0  0  0
    6.4959  -14.9998   25.2592 C   0  0  0  0  0  0  0  0  0  0  0  0
    7.0730  -14.4030   24.1474 C   0  0  0  0  0  0  0  0  0  0  0  0
    9.7181  -17.2657   24.2785 C   0  0  0  0  0  0  0  0  0  0  0  0
   10.1805  -18.4555   24.3877 O   0  0  0  0  0  0  0  0  0  0  0  0
    9.6213  -12.7336   28.3620 C   0  0  0  0  0  0  0  0  0  0  0  0
   11.0273  -13.8304   28.8001 S   0  0  0  0  0  0  0  0  0  0  0  0
   11.1327  -15.1921   27.5699 C   0  0  0  0  0  0  0  0  0  0  0  0
    9.9140  -16.0174   27.7640 C   0  0  0  0  0  0  0  0  0  0  0  0
    9.8269  -17.2225   26.8103 C   0  0  2  0  0  0  0  0  0  0  0  0
    9.5283  -16.6115   25.5283 N   0  0  0  0  0  0  0  0  0  0  0  0
    8.8226  -18.1961   27.2427 C   0  0  0  0  0  0  0  0  0  0  0  0
    8.9789  -18.7980   28.3451 O   0  0  0  0  0  0  0  0  0  0  0  0
    7.6600  -18.5111   26.4844 N   0  0  0  0  0  0  0  0  0  0  0  0
    6.7460  -19.5132   26.9799 C   0  0  0  0  0  0  0  0  0  0  0  0
    7.2127  -20.8396   26.5725 C   0  0  0  0  0  0  0  0  0  0  0  0
    6.4674  -21.9622   26.8744 O   0  0  0  0  0  0  0  0  0  0  0  0
    8.2912  -21.0322   25.9393 O   0  0  0  0  0  0  0  0  0  0  0  0
  2  3  1  0
  2  1  1  6
  4  5  2  0
  4  3  1  0
  6  5  1  0
  7 12  2  0
  7  6  1  0
  8  7  1  0
  9 10  1  0
  9  8  2  0
 10 11  2  0
 11 12  1  0
 12  4  1  0
 13  2  1  0
 14 13  2  0
 16 15  1  0
 17 16  1  0
 18 17  1  0
 19 18  1  1
 19 20  1  0
 20 13  1  0
 21 19  1  0
 21 22  2  0
 23 21  1  0
 24 23  1  0
 24 25  1  0
 25 27  2  0
 25 26  1  0
M  END
$$$$
