WMG.pdb
     RDKit          3D

 27 28  0  0  1  0  0  0  0  0999 V2000
    7.0208  -18.8509   26.0548 N   0  0  0  0  0  0  0  0  0  0  0  0
    7.8245  -17.6074   26.0130 C   0  0  1  0  0  0  0  0  0  0  0  0
    9.2492  -17.9881   26.2522 C   0  0  0  0  0  0  0  0  0  0  0  0
    9.7782  -17.3966   27.5038 C   0  0  0  0  0  0  0  0  0  0  0  0
   10.0560  -18.1219   28.6766 C   0  0  0  0  0  0  0  0  0  0  0  0
   10.5506  -17.2837   29.5942 N   0  0  0  0  0  0  0  0  0  0  0  0
   10.6276  -16.0129   29.1122 C   0  0  0  0  0  0  0  0  0  0  0  0
   11.0519  -14.8243   29.6625 C   0  0  0  0  0  0  0  0  0  0  0  0
   11.0027  -13.6728   28.9204 C   0  0  0  0  0  0  0  0  0  0  0  0
   10.5234  -13.7396   27.6281 C   0  0  0  0  0  0  0  0  0  0  0  0
   10.0998  -14.9310   27.0801 C   0  0  0  0  0  0  0  0  0  0  0  0
   10.1396  -16.1115   27.8083 C   0  0  0  0  0  0  0  0  0  0  0  0
    7.5123  -16.9156   24.7776 C   0  0  0  0  0  0  0  0  0  0  0  0
    6.9815  -17.5396   23.7927 O   0  0  0  0  0  0  0  0  0  0  0  0
    4.9658  -12.0940   26.6757 C   0  0  0  0  0  0  0  0  0  0  0  0
    6.5353  -12.5933   25.8638 S   0  0  0  0  0  0  0  0  0  0  0  0
    6.1903  -13.0419   24.1149 C   0  0  0  0  0  0  0  0  0  0  0  0
    7.4966  -13.4257   23.5231 C   0  0  0  0  0  0  0  0  0  0  0  0
    7.6136  -14.9279   23.2085 C   0  0  2  0  0  0  0  0  0  0  0  0
    7.7393  -15.5341   24.5210 N   0  0  0  0  0  0  0  0  0  0  0  0
    8.7398  -15.2187   22.3193 C   0  0  0  0  0  0  0  0  0  0  0  0
    8.6559  -14.9121   21.0941 O   0  0  0  0  0  0  0  0  0  0  0  0
    9.9449  -15.8358   22.7582 N   0  0  0  0  0  0  0  0  0  0  0  0
   11.0913  -15.8462   21.8802 C   0  0  0  0  0  0  0  0  0  0  0  0
   11.1331  -17.1154   21.1517 C   0  0  0  0  0  0  0  0  0  0  0  0
   12.1980  -17.4063   20.3222 O   0  0  0  0  0  0  0  0  0  0  0  0
   10.2267  -17.9944   21.2353 O   0  0  0  0  0  0  0  0  0  0  0  0
  2  3  1  0
  2  1  1  6
  4  5  2  0
  4  3  1  0
  6  5  1  0
  7 12  2  0
  7  6  1  0
  8  7  1  0
  9 10  1  0
  9  8  2  0
 10 11  2  0
 11 12  1  0
 12  4  1  0
 13  2  1  0
 14 13  2  0
 16 15  1  0
 17 16  1  0
 18 17  1  0
 19 18  1  1
 19 20  1  0
 20 13  1  0
 21 19  1  0
 21 22  2  0
 23 21  1  0
 24 23  1  0
 24 25  1  0
 25 27  2  0
 25 26  1  0
M  END
$$$$
