WMG.pdb
     RDKit          3D

 27 28  0  0  1  0  0  0  0  0999 V2000
    6.7111  -17.9293   24.5039 N   0  0  0  0  0  0  0  0  0  0  0  0
    7.3554  -16.7414   23.8974 C   0  0  1  0  0  0  0  0  0  0  0  0
    8.1389  -16.0606   24.9719 C   0  0  0  0  0  0  0  0  0  0  0  0
    7.3021  -15.1257   25.7602 C   0  0  0  0  0  0  0  0  0  0  0  0
    6.2126  -15.5094   26.5629 C   0  0  0  0  0  0  0  0  0  0  0  0
    5.7098  -14.4206   27.1555 N   0  0  0  0  0  0  0  0  0  0  0  0
    6.3993  -13.3019   26.8004 C   0  0  0  0  0  0  0  0  0  0  0  0
    6.2656  -11.9722   27.1315 C   0  0  0  0  0  0  0  0  0  0  0  0
    7.1236  -11.0463   26.5970 C   0  0  0  0  0  0  0  0  0  0  0  0
    8.1078  -11.4795   25.7322 C   0  0  0  0  0  0  0  0  0  0  0  0
    8.2392  -12.8113   25.4030 C   0  0  0  0  0  0  0  0  0  0  0  0
    7.3853  -13.7695   25.9302 C   0  0  0  0  0  0  0  0  0  0  0  0
    8.0737  -17.1779   22.7160 C   0  0  0  0  0  0  0  0  0  0  0  0
    8.5056  -18.3800   22.6178 O   0  0  0  0  0  0  0  0  0  0  0  0
    8.2087  -11.8470   20.0434 C   0  0  0  0  0  0  0  0  0  0  0  0
    7.5929  -13.5559   19.7749 S   0  0  0  0  0  0  0  0  0  0  0  0
    8.9906  -14.6197   19.2332 C   0  0  0  0  0  0  0  0  0  0  0  0
    8.4828  -16.0144   19.2651 C   0  0  0  0  0  0  0  0  0  0  0  0
    9.0726  -16.8594   20.4086 C   0  0  2  0  0  0  0  0  0  0  0  0
    8.3680  -16.3723   21.5800 N   0  0  0  0  0  0  0  0  0  0  0  0
   10.5273  -16.7221   20.5015 C   0  0  0  0  0  0  0  0  0  0  0  0
   11.2566  -17.2501   19.6119 O   0  0  0  0  0  0  0  0  0  0  0  0
   11.1819  -16.0174   21.5506 N   0  0  0  0  0  0  0  0  0  0  0  0
   12.1666  -16.7041   22.3532 C   0  0  0  0  0  0  0  0  0  0  0  0
   13.5071  -16.3614   21.8748 C   0  0  0  0  0  0  0  0  0  0  0  0
   14.6214  -16.7433   22.5954 O   0  0  0  0  0  0  0  0  0  0  0  0
   13.7197  -15.7164   20.8071 O   0  0  0  0  0  0  0  0  0  0  0  0
  2  3  1  0
  2  1  1  1
  4  5  2  0
  4  3  1  0
  6  5  1  0
  7 12  2  0
  7  6  1  0
  8  7  1  0
  9 10  1  0
  9  8  2  0
 10 11  2  0
 11 12  1  0
 12  4  1  0
 13  2  1  0
 14 13  2  0
 16 15  1  0
 17 16  1  0
 18 17  1  0
 19 18  1  6
 19 20  1  0
 20 13  1  0
 21 19  1  0
 21 22  2  0
 23 21  1  0
 24 23  1  0
 24 25  1  0
 25 27  2  0
 25 26  1  0
M  END
$$$$
