WMG.pdb
     RDKit          3D

 27 28  0  0  1  0  0  0  0  0999 V2000
    6.8398  -18.6011   24.6345 N   0  0  0  0  0  0  0  0  0  0  0  0
    7.1689  -17.1849   24.3516 C   0  0  1  0  0  0  0  0  0  0  0  0
    7.6743  -16.5814   25.6213 C   0  0  0  0  0  0  0  0  0  0  0  0
    6.9126  -15.3679   25.9998 C   0  0  0  0  0  0  0  0  0  0  0  0
    5.5427  -15.3501   26.3188 C   0  0  0  0  0  0  0  0  0  0  0  0
    5.1928  -14.1009   26.6450 N   0  0  0  0  0  0  0  0  0  0  0  0
    6.2554  -13.2536   26.5662 C   0  0  0  0  0  0  0  0  0  0  0  0
    6.3976  -11.9028   26.7917 C   0  0  0  0  0  0  0  0  0  0  0  0
    7.6198  -11.3070   26.6177 C   0  0  0  0  0  0  0  0  0  0  0  0
    8.6844  -12.0879   26.2166 C   0  0  0  0  0  0  0  0  0  0  0  0
    8.5388  -13.4399   25.9920 C   0  0  0  0  0  0  0  0  0  0  0  0
    7.3136  -14.0687   26.1616 C   0  0  0  0  0  0  0  0  0  0  0  0
    8.0451  -17.1525   23.1969 C   0  0  0  0  0  0  0  0  0  0  0  0
    8.6414  -18.2132   22.7961 O   0  0  0  0  0  0  0  0  0  0  0  0
    7.9377  -11.7940   20.1162 C   0  0  0  0  0  0  0  0  0  0  0  0
    7.1756  -13.1435   19.1312 S   0  0  0  0  0  0  0  0  0  0  0  0
    7.4110  -14.7382   20.0146 C   0  0  0  0  0  0  0  0  0  0  0  0
    8.8172  -14.7414   20.4905 C   0  0  0  0  0  0  0  0  0  0  0  0
    9.2084  -16.0222   21.2494 C   0  0  2  0  0  0  0  0  0  0  0  0
    8.3325  -16.0043   22.4063 N   0  0  0  0  0  0  0  0  0  0  0  0
   10.6314  -16.0462   21.5932 C   0  0  0  0  0  0  0  0  0  0  0  0
   11.4907  -16.1140   20.6663 O   0  0  0  0  0  0  0  0  0  0  0  0
   11.1148  -15.9962   22.9309 N   0  0  0  0  0  0  0  0  0  0  0  0
   12.5332  -15.8562   23.1626 C   0  0  0  0  0  0  0  0  0  0  0  0
   13.1265  -17.1806   23.3547 C   0  0  0  0  0  0  0  0  0  0  0  0
   14.3469  -17.3108   23.9877 O   0  0  0  0  0  0  0  0  0  0  0  0
   12.5757  -18.2515   22.9661 O   0  0  0  0  0  0  0  0  0  0  0  0
  2  3  1  0
  2  1  1  1
  4  5  2  0
  4  3  1  0
  6  5  1  0
  7 12  2  0
  7  6  1  0
  8  7  1  0
  9 10  1  0
  9  8  2  0
 10 11  2  0
 11 12  1  0
 12  4  1  0
 13  2  1  0
 14 13  2  0
 16 15  1  0
 17 16  1  0
 18 17  1  0
 19 18  1  6
 19 20  1  0
 20 13  1  0
 21 19  1  0
 21 22  2  0
 23 21  1  0
 24 23  1  0
 24 25  1  0
 25 27  2  0
 25 26  1  0
M  END
$$$$
