WMG.pdb
     RDKit          3D

 27 28  0  0  1  0  0  0  0  0999 V2000
    8.9271  -17.5814   22.7542 N   0  0  0  0  0  0  0  0  0  0  0  0
   10.2059  -16.8353   22.7973 C   0  0  1  0  0  0  0  0  0  0  0  0
   10.2682  -15.9842   21.5711 C   0  0  0  0  0  0  0  0  0  0  0  0
    8.9585  -15.3653   21.2590 C   0  0  0  0  0  0  0  0  0  0  0  0
    7.7485  -15.6864   21.9004 C   0  0  0  0  0  0  0  0  0  0  0  0
    6.7770  -14.9167   21.3975 N   0  0  0  0  0  0  0  0  0  0  0  0
    7.2572  -14.0788   20.4381 C   0  0  0  0  0  0  0  0  0  0  0  0
    6.6636  -13.1253   19.6418 C   0  0  0  0  0  0  0  0  0  0  0  0
    7.4186  -12.4272   18.7353 C   0  0  0  0  0  0  0  0  0  0  0  0
    8.7674  -12.7042   18.6462 C   0  0  0  0  0  0  0  0  0  0  0  0
    9.3587  -13.6591   19.4449 C   0  0  0  0  0  0  0  0  0  0  0  0
    8.6185  -14.3795   20.3715 C   0  0  0  0  0  0  0  0  0  0  0  0
   10.2909  -16.1694   24.0824 C   0  0  0  0  0  0  0  0  0  0  0  0
   11.3162  -15.4655   24.3898 O   0  0  0  0  0  0  0  0  0  0  0  0
    6.1798  -11.9332   26.8932 C   0  0  0  0  0  0  0  0  0  0  0  0
    7.9757  -12.0219   26.5206 S   0  0  0  0  0  0  0  0  0  0  0  0
    8.3164  -13.5570   25.5687 C   0  0  0  0  0  0  0  0  0  0  0  0
    8.2918  -14.6666   26.5547 C   0  0  0  0  0  0  0  0  0  0  0  0
    9.4816  -15.6344   26.4238 C   0  0  2  0  0  0  0  0  0  0  0  0
    9.3000  -16.2085   25.1034 N   0  0  0  0  0  0  0  0  0  0  0  0
    9.5026  -16.6302   27.4970 C   0  0  0  0  0  0  0  0  0  0  0  0
    9.6823  -16.2495   28.6907 O   0  0  0  0  0  0  0  0  0  0  0  0
    9.3294  -18.0252   27.2743 N   0  0  0  0  0  0  0  0  0  0  0  0
   10.3532  -18.7583   26.5675 C   0  0  0  0  0  0  0  0  0  0  0  0
   11.4319  -19.1023   27.4955 C   0  0  0  0  0  0  0  0  0  0  0  0
   11.8411  -20.4143   27.6305 O   0  0  0  0  0  0  0  0  0  0  0  0
   12.0357  -18.2472   28.2065 O   0  0  0  0  0  0  0  0  0  0  0  0
  2  3  1  0
  2  1  1  1
  4  5  2  0
  4  3  1  0
  6  5  1  0
  7 12  2  0
  7  6  1  0
  8  7  1  0
  9 10  1  0
  9  8  2  0
 10 11  2  0
 11 12  1  0
 12  4  1  0
 13  2  1  0
 14 13  2  0
 16 15  1  0
 17 16  1  0
 18 17  1  0
 19 18  1  1
 19 20  1  0
 20 13  1  0
 21 19  1  0
 21 22  2  0
 23 21  1  0
 24 23  1  0
 24 25  1  0
 25 27  2  0
 25 26  1  0
M  END
$$$$
