WMG.pdb
     RDKit          3D

 27 28  0  0  1  0  0  0  0  0999 V2000
    6.4598  -18.2170   24.1070 N   0  0  0  0  0  0  0  0  0  0  0  0
    7.0669  -16.9321   23.6896 C   0  0  1  0  0  0  0  0  0  0  0  0
    7.7871  -16.3729   24.8729 C   0  0  0  0  0  0  0  0  0  0  0  0
    6.9866  -15.3399   25.5716 C   0  0  0  0  0  0  0  0  0  0  0  0
    5.6594  -15.5130   26.0042 C   0  0  0  0  0  0  0  0  0  0  0  0
    5.2596  -14.3972   26.6242 N   0  0  0  0  0  0  0  0  0  0  0  0
    6.2469  -13.4601   26.6405 C   0  0  0  0  0  0  0  0  0  0  0  0
    6.3178  -12.1799   27.1421 C   0  0  0  0  0  0  0  0  0  0  0  0
    7.4711  -11.4532   26.9971 C   0  0  0  0  0  0  0  0  0  0  0  0
    8.5398  -12.0331   26.3446 C   0  0  0  0  0  0  0  0  0  0  0  0
    8.4657  -13.3150   25.8440 C   0  0  0  0  0  0  0  0  0  0  0  0
    7.3113  -14.0731   25.9777 C   0  0  0  0  0  0  0  0  0  0  0  0
    7.8383  -17.1733   22.4858 C   0  0  0  0  0  0  0  0  0  0  0  0
    7.9717  -18.3588   22.0189 O   0  0  0  0  0  0  0  0  0  0  0  0
    6.2233  -12.3103   19.1850 C   0  0  0  0  0  0  0  0  0  0  0  0
    7.8049  -12.9352   19.8778 S   0  0  0  0  0  0  0  0  0  0  0  0
    8.1564  -14.5948   19.1701 C   0  0  0  0  0  0  0  0  0  0  0  0
    9.3888  -15.0766   19.8430 C   0  0  0  0  0  0  0  0  0  0  0  0
    9.2345  -16.4632   20.4934 C   0  0  2  0  0  0  0  0  0  0  0  0
    8.5023  -16.1789   21.7136 N   0  0  0  0  0  0  0  0  0  0  0  0
   10.5273  -17.1107   20.7240 C   0  0  0  0  0  0  0  0  0  0  0  0
   11.1950  -17.5291   19.7335 O   0  0  0  0  0  0  0  0  0  0  0  0
   11.0882  -17.3004   22.0183 N   0  0  0  0  0  0  0  0  0  0  0  0
   12.3738  -17.9465   22.1411 C   0  0  0  0  0  0  0  0  0  0  0  0
   13.4332  -16.9401   22.0511 C   0  0  0  0  0  0  0  0  0  0  0  0
   14.7531  -17.3014   22.2353 O   0  0  0  0  0  0  0  0  0  0  0  0
   13.2117  -15.7184   21.8066 O   0  0  0  0  0  0  0  0  0  0  0  0
  2  3  1  0
  2  1  1  1
  4  5  2  0
  4  3  1  0
  6  5  1  0
  7 12  2  0
  7  6  1  0
  8  7  1  0
  9 10  1  0
  9  8  2  0
 10 11  2  0
 11 12  1  0
 12  4  1  0
 13  2  1  0
 14 13  2  0
 16 15  1  0
 17 16  1  0
 18 17  1  0
 19 18  1  1
 19 20  1  0
 20 13  1  0
 21 19  1  0
 21 22  2  0
 23 21  1  0
 24 23  1  0
 24 25  1  0
 25 27  2  0
 25 26  1  0
M  END
$$$$
