WMG.pdb
     RDKit          3D

 27 28  0  0  1  0  0  0  0  0999 V2000
    6.8719  -17.9148   23.7027 N   0  0  0  0  0  0  0  0  0  0  0  0
    7.5903  -16.6270   23.5625 C   0  0  1  0  0  0  0  0  0  0  0  0
    8.1794  -16.2968   24.8950 C   0  0  0  0  0  0  0  0  0  0  0  0
    7.2885  -15.4223   25.6935 C   0  0  0  0  0  0  0  0  0  0  0  0
    6.1660  -15.8682   26.4143 C   0  0  0  0  0  0  0  0  0  0  0  0
    5.6161  -14.8240   27.0442 N   0  0  0  0  0  0  0  0  0  0  0  0
    6.3046  -13.6768   26.7928 C   0  0  0  0  0  0  0  0  0  0  0  0
    6.1326  -12.3715   27.1954 C   0  0  0  0  0  0  0  0  0  0  0  0
    7.0016  -11.4038   26.7623 C   0  0  0  0  0  0  0  0  0  0  0  0
    8.0354  -11.7708   25.9252 C   0  0  0  0  0  0  0  0  0  0  0  0
    8.2050  -13.0785   25.5243 C   0  0  0  0  0  0  0  0  0  0  0  0
    7.3410  -14.0780   25.9484 C   0  0  0  0  0  0  0  0  0  0  0  0
    8.4969  -16.7421   22.4369 C   0  0  0  0  0  0  0  0  0  0  0  0
    8.8051  -17.8895   21.9576 O   0  0  0  0  0  0  0  0  0  0  0  0
    6.3953  -12.1546   18.3074 C   0  0  0  0  0  0  0  0  0  0  0  0
    8.1468  -12.5777   18.6612 S   0  0  0  0  0  0  0  0  0  0  0  0
    8.2196  -14.2535   19.4129 C   0  0  0  0  0  0  0  0  0  0  0  0
    9.6356  -14.4679   19.8042 C   0  0  0  0  0  0  0  0  0  0  0  0
    9.8791  -15.8024   20.5317 C   0  0  2  0  0  0  0  0  0  0  0  0
    9.1188  -15.6559   21.7591 N   0  0  0  0  0  0  0  0  0  0  0  0
   11.3037  -16.0576   20.7527 C   0  0  0  0  0  0  0  0  0  0  0  0
   12.0759  -16.1601   19.7550 O   0  0  0  0  0  0  0  0  0  0  0  0
   11.8826  -16.1991   22.0452 N   0  0  0  0  0  0  0  0  0  0  0  0
   13.2937  -16.4844   22.1577 C   0  0  0  0  0  0  0  0  0  0  0  0
   13.6631  -16.5555   23.5725 C   0  0  0  0  0  0  0  0  0  0  0  0
   14.9918  -16.6271   23.9416 O   0  0  0  0  0  0  0  0  0  0  0  0
   12.8159  -16.5552   24.5125 O   0  0  0  0  0  0  0  0  0  0  0  0
  2  3  1  0
  2  1  1  1
  4  5  2  0
  4  3  1  0
  6  5  1  0
  7 12  2  0
  7  6  1  0
  8  7  1  0
  9 10  1  0
  9  8  2  0
 10 11  2  0
 11 12  1  0
 12  4  1  0
 13  2  1  0
 14 13  2  0
 16 15  1  0
 17 16  1  0
 18 17  1  0
 19 18  1  6
 19 20  1  0
 20 13  1  0
 21 19  1  0
 21 22  2  0
 23 21  1  0
 24 23  1  0
 24 25  1  0
 25 27  2  0
 25 26  1  0
M  END
$$$$
