WMG.pdb
     RDKit          3D

 27 28  0  0  1  0  0  0  0  0999 V2000
    8.9833  -16.6663   23.4650 N   0  0  0  0  0  0  0  0  0  0  0  0
   10.2199  -15.8546   23.3895 C   0  0  1  0  0  0  0  0  0  0  0  0
    9.8203  -14.4654   23.0124 C   0  0  0  0  0  0  0  0  0  0  0  0
    8.6001  -14.4486   22.1717 C   0  0  0  0  0  0  0  0  0  0  0  0
    7.3101  -14.7762   22.6269 C   0  0  0  0  0  0  0  0  0  0  0  0
    6.4453  -14.6212   21.6182 N   0  0  0  0  0  0  0  0  0  0  0  0
    7.0758  -14.2027   20.4867 C   0  0  0  0  0  0  0  0  0  0  0  0
    6.6311  -13.9160   19.2156 C   0  0  0  0  0  0  0  0  0  0  0  0
    7.5229  -13.5151   18.2549 C   0  0  0  0  0  0  0  0  0  0  0  0
    8.8564  -13.4096   18.5940 C   0  0  0  0  0  0  0  0  0  0  0  0
    9.2983  -13.6970   19.8674 C   0  0  0  0  0  0  0  0  0  0  0  0
    8.4173  -14.1038   20.8592 C   0  0  0  0  0  0  0  0  0  0  0  0
   10.9461  -16.0311   24.6320 C   0  0  0  0  0  0  0  0  0  0  0  0
   12.1970  -15.7644   24.7041 O   0  0  0  0  0  0  0  0  0  0  0  0
    8.8593  -11.6305   27.6532 C   0  0  0  0  0  0  0  0  0  0  0  0
    8.8476  -13.4038   28.1297 S   0  0  0  0  0  0  0  0  0  0  0  0
   10.4328  -14.1757   27.6100 C   0  0  0  0  0  0  0  0  0  0  0  0
   10.3538  -15.5985   28.0266 C   0  0  0  0  0  0  0  0  0  0  0  0
   11.1313  -16.5550   27.1047 C   0  0  2  0  0  0  0  0  0  0  0  0
   10.3903  -16.4921   25.8586 N   0  0  0  0  0  0  0  0  0  0  0  0
   11.2234  -17.9053   27.6633 C   0  0  0  0  0  0  0  0  0  0  0  0
   12.0374  -18.1306   28.6060 O   0  0  0  0  0  0  0  0  0  0  0  0
   10.4379  -18.9988   27.2019 N   0  0  0  0  0  0  0  0  0  0  0  0
   11.0476  -19.9956   26.3534 C   0  0  0  0  0  0  0  0  0  0  0  0
   12.0540  -20.7341   27.1183 C   0  0  0  0  0  0  0  0  0  0  0  0
   11.8115  -22.0352   27.5122 O   0  0  0  0  0  0  0  0  0  0  0  0
   13.1705  -20.2421   27.4536 O   0  0  0  0  0  0  0  0  0  0  0  0
  2  3  1  0
  2  1  1  1
  4  5  2  0
  4  3  1  0
  6  5  1  0
  7 12  2  0
  7  6  1  0
  8  7  1  0
  9 10  1  0
  9  8  2  0
 10 11  2  0
 11 12  1  0
 12  4  1  0
 13  2  1  0
 14 13  2  0
 16 15  1  0
 17 16  1  0
 18 17  1  0
 19 18  1  1
 19 20  1  0
 20 13  1  0
 21 19  1  0
 21 22  2  0
 23 21  1  0
 24 23  1  0
 24 25  1  0
 25 27  2  0
 25 26  1  0
M  END
$$$$
