TMH.pdb
     RDKit          3D

 26 26  0  0  1  0  0  0  0  0999 V2000
    6.1780  -17.0889   19.6815 C   0  0  0  0  0  0  0  0  0  0  0  0
    7.0332  -16.9454   20.9226 C   0  0  1  0  0  0  0  0  0  0  0  0
    8.1888  -17.6900   20.7527 O   0  0  0  0  0  0  0  0  0  0  0  0
    7.3382  -15.4902   21.1031 C   0  0  2  0  0  0  0  0  0  0  0  0
    8.0620  -15.0203   19.9366 N   0  0  0  0  0  0  0  0  0  0  0  0
    8.1640  -15.2094   22.3060 C   0  0  0  0  0  0  0  0  0  0  0  0
    9.4019  -14.9905   22.2140 O   0  0  0  0  0  0  0  0  0  0  0  0
    7.0037  -11.3700   27.5442 C   0  0  0  0  0  0  0  0  0  0  0  0
    5.8584  -12.1504   26.3749 S   0  0  0  0  0  0  0  0  0  0  0  0
    6.7510  -13.0708   25.0880 C   0  0  0  0  0  0  0  0  0  0  0  0
    7.6650  -14.0430   25.7550 C   0  0  0  0  0  0  0  0  0  0  0  0
    8.4479  -14.9057   24.8143 C   0  0  2  0  0  0  0  0  0  0  0  0
    7.6226  -15.1696   23.6171 N   0  0  0  0  0  0  0  0  0  0  0  0
    8.9018  -16.1897   25.3790 C   0  0  0  0  0  0  0  0  0  0  0  0
    8.5390  -16.4326   26.5884 O   0  0  0  0  0  0  0  0  0  0  0  0
    9.6691  -17.1717   24.7646 N   0  0  0  0  0  0  0  0  0  0  0  0
   11.0484  -17.4099   25.2068 C   0  0  1  0  0  0  0  0  0  0  0  0
   11.9847  -16.3309   24.7143 C   0  0  0  0  0  0  0  0  0  0  0  0
   12.2945  -16.5110   23.2760 C   0  0  0  0  0  0  0  0  0  0  0  0
   11.6326  -17.4107   22.4783 C   0  0  0  0  0  0  0  0  0  0  0  0
   12.1873  -17.2892   21.2406 N   0  0  0  0  0  0  0  0  0  0  0  0
   13.1551  -16.3540   21.2623 C   0  0  0  0  0  0  0  0  0  0  0  0
   13.2090  -15.8834   22.5247 N   0  0  0  0  0  0  0  0  0  0  0  0
   11.1129  -17.4628   26.6953 C   0  0  0  0  0  0  0  0  0  0  0  0
   12.1933  -17.6562   27.3088 O   0  0  0  0  0  0  0  0  0  0  0  0
    9.9330  -17.2909   27.3951 O   0  0  0  0  0  0  0  0  0  0  0  0
  2  1  1  6
  2  4  1  0
  3  2  1  0
  4  6  1  0
  4  5  1  6
  6  7  2  0
  9  8  1  0
 10  9  1  0
 11 10  1  0
 12 11  1  1
 12 14  1  0
 13  6  1  0
 13 12  1  0
 14 15  2  0
 16 17  1  0
 16 14  1  0
 17 24  1  0
 17 18  1  1
 19 20  2  0
 19 18  1  0
 21 20  1  0
 22 23  2  0
 22 21  1  0
 23 19  1  0
 24 25  2  0
 24 26  1  0
M  END
$$$$
