TMH.pdb
     RDKit          3D

 26 26  0  0  1  0  0  0  0  0999 V2000
    7.1342  -16.5581   20.4686 C   0  0  0  0  0  0  0  0  0  0  0  0
    7.7682  -15.3559   19.8014 C   0  0  1  0  0  0  0  0  0  0  0  0
    7.3308  -15.2961   18.4885 O   0  0  0  0  0  0  0  0  0  0  0  0
    7.3628  -14.1375   20.5723 C   0  0  2  0  0  0  0  0  0  0  0  0
    7.7304  -12.9611   19.8065 N   0  0  0  0  0  0  0  0  0  0  0  0
    8.0119  -14.0448   21.9056 C   0  0  0  0  0  0  0  0  0  0  0  0
    9.2062  -13.6604   22.0273 O   0  0  0  0  0  0  0  0  0  0  0  0
    7.7097  -12.1653   28.0088 C   0  0  0  0  0  0  0  0  0  0  0  0
    6.4449  -11.6065   26.8358 S   0  0  0  0  0  0  0  0  0  0  0  0
    6.6384  -12.4124   25.2194 C   0  0  0  0  0  0  0  0  0  0  0  0
    7.0554  -13.8265   25.4470 C   0  0  0  0  0  0  0  0  0  0  0  0
    8.0119  -14.3640   24.4281 C   0  0  2  0  0  0  0  0  0  0  0  0
    7.3412  -14.3775   23.1112 N   0  0  0  0  0  0  0  0  0  0  0  0
    8.5353  -15.7119   24.7158 C   0  0  0  0  0  0  0  0  0  0  0  0
    7.6604  -16.6511   24.7919 O   0  0  0  0  0  0  0  0  0  0  0  0
    9.8570  -16.0936   24.9102 N   0  0  0  0  0  0  0  0  0  0  0  0
   10.1771  -17.4850   25.2513 C   0  0  1  0  0  0  0  0  0  0  0  0
   11.4444  -17.9473   24.5704 C   0  0  0  0  0  0  0  0  0  0  0  0
   11.3439  -17.7953   23.0994 C   0  0  0  0  0  0  0  0  0  0  0  0
   10.3742  -18.4146   22.3509 C   0  0  0  0  0  0  0  0  0  0  0  0
   10.6036  -18.0407   21.0618 N   0  0  0  0  0  0  0  0  0  0  0  0
   11.6710  -17.2227   21.0052 C   0  0  0  0  0  0  0  0  0  0  0  0
   12.1163  -17.0812   22.2700 N   0  0  0  0  0  0  0  0  0  0  0  0
   10.3399  -17.6319   26.7260 C   0  0  0  0  0  0  0  0  0  0  0  0
   10.2546  -16.6499   27.5068 O   0  0  0  0  0  0  0  0  0  0  0  0
   10.5918  -18.8982   27.2206 O   0  0  0  0  0  0  0  0  0  0  0  0
  2  1  1  1
  2  4  1  0
  3  2  1  0
  4  6  1  0
  4  5  1  6
  6  7  2  0
  9  8  1  0
 10  9  1  0
 11 10  1  0
 12 11  1  1
 12 14  1  0
 13  6  1  0
 13 12  1  0
 14 15  2  0
 16 17  1  0
 16 14  1  0
 17 24  1  0
 17 18  1  6
 19 20  2  0
 19 18  1  0
 21 20  1  0
 22 23  2  0
 22 21  1  0
 23 19  1  0
 24 25  2  0
 24 26  1  0
M  END
$$$$
