TMH.pdb
     RDKit          3D

 26 26  0  0  1  0  0  0  0  0999 V2000
    6.7438  -16.6298   18.3622 C   0  0  0  0  0  0  0  0  0  0  0  0
    7.3126  -16.5236   19.7614 C   0  0  1  0  0  0  0  0  0  0  0  0
    8.4480  -17.3130   19.8391 O   0  0  0  0  0  0  0  0  0  0  0  0
    7.6262  -15.0821   20.0201 C   0  0  2  0  0  0  0  0  0  0  0  0
    8.5760  -14.6280   19.0215 N   0  0  0  0  0  0  0  0  0  0  0  0
    8.2147  -14.8424   21.3633 C   0  0  0  0  0  0  0  0  0  0  0  0
    9.4110  -15.1467   21.6179 O   0  0  0  0  0  0  0  0  0  0  0  0
    7.0300  -11.2823   28.3997 C   0  0  0  0  0  0  0  0  0  0  0  0
    6.4783  -11.7446   26.7354 S   0  0  0  0  0  0  0  0  0  0  0  0
    7.6020  -12.9539   25.9773 C   0  0  0  0  0  0  0  0  0  0  0  0
    7.1836  -13.1593   24.5602 C   0  0  0  0  0  0  0  0  0  0  0  0
    8.0286  -14.1319   23.7974 C   0  0  2  0  0  0  0  0  0  0  0  0
    7.4806  -14.2642   22.4313 N   0  0  0  0  0  0  0  0  0  0  0  0
    8.1378  -15.4710   24.4043 C   0  0  0  0  0  0  0  0  0  0  0  0
    7.3828  -16.3812   23.8995 O   0  0  0  0  0  0  0  0  0  0  0  0
    8.9588  -15.8724   25.4509 N   0  0  0  0  0  0  0  0  0  0  0  0
    9.7885  -17.0755   25.3138 C   0  0  1  0  0  0  0  0  0  0  0  0
   10.7428  -16.9633   24.1475 C   0  0  0  0  0  0  0  0  0  0  0  0
   11.6510  -18.1332   24.0886 C   0  0  0  0  0  0  0  0  0  0  0  0
   11.5905  -19.1694   24.9867 C   0  0  0  0  0  0  0  0  0  0  0  0
   12.5670  -20.0423   24.6143 N   0  0  0  0  0  0  0  0  0  0  0  0
   13.2115  -19.5730   23.5299 C   0  0  0  0  0  0  0  0  0  0  0  0
   12.6349  -18.3948   23.2179 N   0  0  0  0  0  0  0  0  0  0  0  0
   10.5738  -17.3074   26.5597 C   0  0  0  0  0  0  0  0  0  0  0  0
   11.0726  -18.4287   26.8337 O   0  0  0  0  0  0  0  0  0  0  0  0
   10.7415  -16.2387   27.4205 O   0  0  0  0  0  0  0  0  0  0  0  0
  2  1  1  6
  2  4  1  0
  3  2  1  0
  4  6  1  0
  4  5  1  6
  6  7  2  0
  9  8  1  0
 10  9  1  0
 11 10  1  0
 12 11  1  1
 12 14  1  0
 13  6  1  0
 13 12  1  0
 14 15  2  0
 16 17  1  0
 16 14  1  0
 17 24  1  0
 17 18  1  6
 19 20  2  0
 19 18  1  0
 21 20  1  0
 22 23  2  0
 22 21  1  0
 23 19  1  0
 24 25  2  0
 24 26  1  0
M  END
$$$$
