TMH.pdb
     RDKit          3D

 26 26  0  0  1  0  0  0  0  0999 V2000
    6.7838  -14.6749   18.1123 C   0  0  0  0  0  0  0  0  0  0  0  0
    7.3740  -14.9385   19.4814 C   0  0  1  0  0  0  0  0  0  0  0  0
    8.6094  -15.5442   19.3221 O   0  0  0  0  0  0  0  0  0  0  0  0
    7.4929  -13.6242   20.1897 C   0  0  2  0  0  0  0  0  0  0  0  0
    8.2345  -12.7075   19.3440 N   0  0  0  0  0  0  0  0  0  0  0  0
    8.1961  -13.7235   21.4949 C   0  0  0  0  0  0  0  0  0  0  0  0
    9.4508  -13.6311   21.5715 O   0  0  0  0  0  0  0  0  0  0  0  0
    6.7779  -11.8925   27.9017 C   0  0  0  0  0  0  0  0  0  0  0  0
    5.7635  -11.7983   26.4017 S   0  0  0  0  0  0  0  0  0  0  0  0
    6.7275  -12.2250   24.9223 C   0  0  0  0  0  0  0  0  0  0  0  0
    7.2860  -13.5961   25.1056 C   0  0  0  0  0  0  0  0  0  0  0  0
    8.2144  -14.0394   24.0177 C   0  0  2  0  0  0  0  0  0  0  0  0
    7.5126  -13.9256   22.7220 N   0  0  0  0  0  0  0  0  0  0  0  0
    8.7354  -15.4107   24.1644 C   0  0  0  0  0  0  0  0  0  0  0  0
    8.8073  -16.1043   23.0841 O   0  0  0  0  0  0  0  0  0  0  0  0
    9.1626  -16.0447   25.3246 N   0  0  0  0  0  0  0  0  0  0  0  0
   10.0670  -17.1979   25.2411 C   0  0  1  0  0  0  0  0  0  0  0  0
   11.3705  -16.8350   24.5682 C   0  0  0  0  0  0  0  0  0  0  0  0
   11.2833  -17.0267   23.1010 C   0  0  0  0  0  0  0  0  0  0  0  0
   10.1254  -17.4006   22.4659 C   0  0  0  0  0  0  0  0  0  0  0  0
   10.4339  -17.4731   21.1416 N   0  0  0  0  0  0  0  0  0  0  0  0
   11.7292  -17.1585   20.9553 C   0  0  0  0  0  0  0  0  0  0  0  0
   12.2393  -16.8857   22.1732 N   0  0  0  0  0  0  0  0  0  0  0  0
   10.3580  -17.7271   26.6041 C   0  0  0  0  0  0  0  0  0  0  0  0
   11.1132  -18.7156   26.7876 O   0  0  0  0  0  0  0  0  0  0  0  0
    9.7652  -17.0914   27.6792 O   0  0  0  0  0  0  0  0  0  0  0  0
  2  1  1  6
  2  4  1  0
  3  2  1  0
  4  6  1  0
  4  5  1  6
  6  7  2  0
  9  8  1  0
 10  9  1  0
 11 10  1  0
 12 11  1  1
 12 14  1  0
 13  6  1  0
 13 12  1  0
 14 15  2  0
 16 17  1  0
 16 14  1  0
 17 24  1  0
 17 18  1  1
 19 20  2  0
 19 18  1  0
 21 20  1  0
 22 23  2  0
 22 21  1  0
 23 19  1  0
 24 25  2  0
 24 26  1  0
M  END
$$$$
