TMH.pdb
     RDKit          3D

 26 26  0  0  1  0  0  0  0  0999 V2000
    7.3289  -14.6042   17.6217 C   0  0  0  0  0  0  0  0  0  0  0  0
    7.8090  -14.8811   19.0307 C   0  0  1  0  0  0  0  0  0  0  0  0
    9.0827  -15.4218   18.9664 O   0  0  0  0  0  0  0  0  0  0  0  0
    7.7990  -13.5849   19.7810 C   0  0  2  0  0  0  0  0  0  0  0  0
    8.7126  -12.6651   19.1293 N   0  0  0  0  0  0  0  0  0  0  0  0
    8.2164  -13.7261   21.2001 C   0  0  0  0  0  0  0  0  0  0  0  0
    9.4329  -13.8075   21.5199 O   0  0  0  0  0  0  0  0  0  0  0  0
    7.6764  -12.0044   28.3207 C   0  0  0  0  0  0  0  0  0  0  0  0
    7.0875  -12.0517   26.6063 S   0  0  0  0  0  0  0  0  0  0  0  0
    6.8742  -13.7599   26.0263 C   0  0  0  0  0  0  0  0  0  0  0  0
    6.5456  -13.7239   24.5715 C   0  0  0  0  0  0  0  0  0  0  0  0
    7.6933  -14.0505   23.6670 C   0  0  2  0  0  0  0  0  0  0  0  0
    7.2881  -13.7778   22.2722 N   0  0  0  0  0  0  0  0  0  0  0  0
    8.1866  -15.4365   23.7630 C   0  0  0  0  0  0  0  0  0  0  0  0
    7.2888  -16.3566   23.7389 O   0  0  0  0  0  0  0  0  0  0  0  0
    9.5016  -15.8717   23.8716 N   0  0  0  0  0  0  0  0  0  0  0  0
   10.0978  -16.0850   25.1959 C   0  0  1  0  0  0  0  0  0  0  0  0
    9.5894  -15.0799   26.2032 C   0  0  0  0  0  0  0  0  0  0  0  0
   10.2020  -15.3040   27.5342 C   0  0  0  0  0  0  0  0  0  0  0  0
   10.8031  -16.4861   27.8882 C   0  0  0  0  0  0  0  0  0  0  0  0
   11.2400  -16.3134   29.1663 N   0  0  0  0  0  0  0  0  0  0  0  0
   10.9259  -15.0766   29.5944 C   0  0  0  0  0  0  0  0  0  0  0  0
   10.2861  -14.4665   28.5764 N   0  0  0  0  0  0  0  0  0  0  0  0
    9.7902  -17.4587   25.6868 C   0  0  0  0  0  0  0  0  0  0  0  0
    8.9163  -18.1805   25.1422 O   0  0  0  0  0  0  0  0  0  0  0  0
   10.5033  -17.9257   26.7752 O   0  0  0  0  0  0  0  0  0  0  0  0
  2  1  1  6
  2  4  1  0
  3  2  1  0
  4  6  1  0
  4  5  1  6
  6  7  2  0
  9  8  1  0
 10  9  1  0
 11 10  1  0
 12 11  1  1
 12 14  1  0
 13  6  1  0
 13 12  1  0
 14 15  2  0
 16 17  1  0
 16 14  1  0
 17 24  1  0
 17 18  1  1
 19 20  2  0
 19 18  1  0
 21 20  1  0
 22 23  2  0
 22 21  1  0
 23 19  1  0
 24 25  2  0
 24 26  1  0
M  END
$$$$
