NHC.pdb
     RDKit          3D

 25 25  0  0  1  0  0  0  0  0999 V2000
   20.5780  -18.5361  -15.1480 N   0  0  0  0  0  0  0  0  0  0  0  0
   21.3346  -17.9213  -16.1774 C   0  0  0  0  0  0  0  0  0  0  0  0
   20.8749  -17.7713  -17.3223 O   0  0  0  0  0  0  0  0  0  0  0  0
   22.6999  -17.4490  -15.8812 C   0  0  0  0  0  0  0  0  0  0  0  0
   23.7060  -18.0318  -16.8367 C   0  0  2  0  0  0  0  0  0  0  0  0
   23.1318  -18.7205  -17.9510 N   0  0  0  0  0  0  0  0  0  0  0  0
   24.5954  -18.9467  -16.1050 C   0  0  0  0  0  0  0  0  0  0  0  0
   24.3190  -20.1576  -16.0721 O   0  0  0  0  0  0  0  0  0  0  0  0
   25.7410  -18.4848  -15.4477 N   0  0  0  0  0  0  0  0  0  0  0  0
   26.7047  -19.4269  -14.8399 C   0  0  1  0  0  0  0  0  0  0  0  0
   28.0970  -18.9482  -15.0886 C   0  0  0  0  0  0  0  0  0  0  0  0
   28.6474  -19.2626  -16.4027 C   0  0  0  0  0  0  0  0  0  0  0  0
   29.0170  -20.4368  -16.9897 C   0  0  0  0  0  0  0  0  0  0  0  0
   29.4115  -20.1590  -18.2646 N   0  0  0  0  0  0  0  0  0  0  0  0
   29.2899  -18.8596  -18.4623 C   0  0  0  0  0  0  0  0  0  0  0  0
   28.8267  -18.2946  -17.3437 N   0  0  0  0  0  0  0  0  0  0  0  0
   26.3969  -19.3416  -13.3587 C   0  0  0  0  0  0  0  0  0  0  0  0
   26.4052  -18.2744  -12.7295 O   0  0  0  0  0  0  0  0  0  0  0  0
   26.0820  -20.5195  -12.6325 N   0  0  0  0  0  0  0  0  0  0  0  0
   25.8218  -20.4153  -11.2010 C   0  0  1  0  0  0  0  0  0  0  0  0
   24.4501  -20.9907  -10.9347 C   0  0  0  0  0  0  0  0  0  0  0  0
   24.1440  -21.2044   -9.1805 S   0  0  0  0  0  0  0  0  0  0  0  0
   26.8436  -21.1591  -10.4177 C   0  0  0  0  0  0  0  0  0  0  0  0
   27.0693  -20.9336   -9.1975 O   0  0  0  0  0  0  0  0  0  0  0  0
   27.5782  -22.1340  -11.0363 O   0  0  0  0  0  0  0  0  0  0  0  0
  1  2  1  0
  2  3  2  0
  4  2  1  0
  5  4  1  0
  5  6  1  6
  7  9  1  0
  7  5  1  0
  8  7  2  0
 10  9  1  0
 11 12  1  0
 10 11  1  1
 12 16  1  0
 12 13  2  0
 13 14  1  0
 15 14  1  0
 16 15  2  0
 17 19  1  0
 17 10  1  0
 18 17  2  0
 20 19  1  0
 20 23  1  0
 20 21  1  6
 21 22  1  0
 23 25  1  0
 24 23  2  0
M  END
$$$$
