NHC.pdb
     RDKit          3D

 25 25  0  0  1  0  0  0  0  0999 V2000
   21.4110   -9.1954  -13.2937 N   0  0  0  0  0  0  0  0  0  0  0  0
   21.0157   -7.8767  -12.9550 C   0  0  0  0  0  0  0  0  0  0  0  0
   21.8315   -6.9395  -12.9266 O   0  0  0  0  0  0  0  0  0  0  0  0
   19.6021   -7.6121  -12.6285 C   0  0  0  0  0  0  0  0  0  0  0  0
   18.7902   -8.8791  -12.6192 C   0  0  2  0  0  0  0  0  0  0  0  0
   18.6513   -9.5006  -13.8998 N   0  0  0  0  0  0  0  0  0  0  0  0
   17.4560   -8.5954  -12.0687 C   0  0  0  0  0  0  0  0  0  0  0  0
   16.5653   -8.1831  -12.8306 O   0  0  0  0  0  0  0  0  0  0  0  0
   17.1695   -8.7786  -10.7115 N   0  0  0  0  0  0  0  0  0  0  0  0
   15.8052   -8.5647  -10.1835 C   0  0  1  0  0  0  0  0  0  0  0  0
   15.3844   -9.7560   -9.3877 C   0  0  0  0  0  0  0  0  0  0  0  0
   14.8033  -10.8535  -10.1535 C   0  0  0  0  0  0  0  0  0  0  0  0
   14.5205  -11.0032  -11.4793 C   0  0  0  0  0  0  0  0  0  0  0  0
   14.0391  -12.2654  -11.6624 N   0  0  0  0  0  0  0  0  0  0  0  0
   14.0249  -12.8773  -10.4930 C   0  0  0  0  0  0  0  0  0  0  0  0
   14.4855  -12.0380   -9.5612 N   0  0  0  0  0  0  0  0  0  0  0  0
   15.9650   -7.3717   -9.2631 C   0  0  0  0  0  0  0  0  0  0  0  0
   17.0344   -7.0905   -8.7044 O   0  0  0  0  0  0  0  0  0  0  0  0
   14.8583   -6.5202   -9.0099 N   0  0  0  0  0  0  0  0  0  0  0  0
   15.0452   -5.3619   -8.1431 C   0  0  1  0  0  0  0  0  0  0  0  0
   16.0263   -4.4306   -8.8167 C   0  0  0  0  0  0  0  0  0  0  0  0
   16.1662   -2.8668   -7.9499 S   0  0  0  0  0  0  0  0  0  0  0  0
   13.7569   -4.6573   -7.9094 C   0  0  0  0  0  0  0  0  0  0  0  0
   12.7685   -4.7614   -8.6858 O   0  0  0  0  0  0  0  0  0  0  0  0
   13.6250   -3.8575   -6.8067 O   0  0  0  0  0  0  0  0  0  0  0  0
  1  2  1  0
  2  3  2  0
  4  2  1  0
  5  4  1  0
  5  6  1  6
  7  9  1  0
  7  5  1  0
  8  7  2  0
 10  9  1  0
 11 12  1  0
 10 11  1  1
 12 16  1  0
 12 13  2  0
 13 14  1  0
 15 14  1  0
 16 15  2  0
 17 19  1  0
 17 10  1  0
 18 17  2  0
 20 19  1  0
 20 23  1  0
 20 21  1  6
 21 22  1  0
 23 25  1  0
 24 23  2  0
M  END
$$$$
