NHC.pdb
     RDKit          3D

 25 25  0  0  1  0  0  0  0  0999 V2000
   30.3733  -25.6024  -15.6457 N   0  0  0  0  0  0  0  0  0  0  0  0
   30.6461  -24.4015  -16.3481 C   0  0  0  0  0  0  0  0  0  0  0  0
   31.5757  -24.3246  -17.1695 O   0  0  0  0  0  0  0  0  0  0  0  0
   29.8061  -23.2157  -16.0969 C   0  0  0  0  0  0  0  0  0  0  0  0
   28.6810  -23.1144  -17.0913 C   0  0  2  0  0  0  0  0  0  0  0  0
   29.0997  -22.8335  -18.4298 N   0  0  0  0  0  0  0  0  0  0  0  0
   27.7360  -22.0775  -16.6494 C   0  0  0  0  0  0  0  0  0  0  0  0
   28.1367  -20.9071  -16.5337 O   0  0  0  0  0  0  0  0  0  0  0  0
   26.4013  -22.3794  -16.3574 N   0  0  0  0  0  0  0  0  0  0  0  0
   25.4556  -21.3256  -15.9320 C   0  0  1  0  0  0  0  0  0  0  0  0
   24.5465  -20.9820  -17.0655 C   0  0  0  0  0  0  0  0  0  0  0  0
   23.4014  -20.1445  -16.7247 C   0  0  0  0  0  0  0  0  0  0  0  0
   22.0850  -20.4276  -16.5080 C   0  0  0  0  0  0  0  0  0  0  0  0
   21.4618  -19.2672  -16.1572 N   0  0  0  0  0  0  0  0  0  0  0  0
   22.3589  -18.2991  -16.1549 C   0  0  0  0  0  0  0  0  0  0  0  0
   23.5453  -18.8095  -16.4968 N   0  0  0  0  0  0  0  0  0  0  0  0
   24.6590  -21.9901  -14.8275 C   0  0  0  0  0  0  0  0  0  0  0  0
   24.3660  -23.1938  -14.8390 O   0  0  0  0  0  0  0  0  0  0  0  0
   24.2142  -21.2256  -13.7177 N   0  0  0  0  0  0  0  0  0  0  0  0
   23.4297  -21.8837  -12.6787 C   0  0  1  0  0  0  0  0  0  0  0  0
   23.7786  -21.2418  -11.3560 C   0  0  0  0  0  0  0  0  0  0  0  0
   22.7043  -19.8553  -10.9820 S   0  0  0  0  0  0  0  0  0  0  0  0
   21.9729  -21.7434  -12.9410 C   0  0  0  0  0  0  0  0  0  0  0  0
   21.5008  -20.9002  -13.7513 O   0  0  0  0  0  0  0  0  0  0  0  0
   21.0950  -22.5595  -12.2805 O   0  0  0  0  0  0  0  0  0  0  0  0
  1  2  1  0
  2  3  2  0
  4  2  1  0
  5  4  1  0
  5  6  1  6
  7  9  1  0
  7  5  1  0
  8  7  2  0
 10  9  1  0
 11 12  1  0
 10 11  1  6
 12 16  1  0
 12 13  2  0
 13 14  1  0
 15 14  1  0
 16 15  2  0
 17 19  1  0
 17 10  1  0
 18 17  2  0
 20 19  1  0
 20 23  1  0
 20 21  1  1
 21 22  1  0
 23 25  1  0
 24 23  2  0
M  END
$$$$
