NHC.pdb
     RDKit          3D

 25 25  0  0  1  0  0  0  0  0999 V2000
   17.8687  -13.1587  -17.1088 N   0  0  0  0  0  0  0  0  0  0  0  0
   19.1672  -12.7550  -17.5099 C   0  0  0  0  0  0  0  0  0  0  0  0
   19.7466  -13.2880  -18.4717 O   0  0  0  0  0  0  0  0  0  0  0  0
   19.8457  -11.6768  -16.7671 C   0  0  0  0  0  0  0  0  0  0  0  0
   21.3384  -11.7337  -16.9503 C   0  0  2  0  0  0  0  0  0  0  0  0
   21.9583  -12.8934  -16.3878 N   0  0  0  0  0  0  0  0  0  0  0  0
   21.9443  -10.5269  -16.3670 C   0  0  0  0  0  0  0  0  0  0  0  0
   21.9720  -10.4041  -15.1309 O   0  0  0  0  0  0  0  0  0  0  0  0
   22.4874   -9.5185  -17.1706 N   0  0  0  0  0  0  0  0  0  0  0  0
   23.1792   -8.3561  -16.5739 C   0  0  1  0  0  0  0  0  0  0  0  0
   24.6057   -8.3423  -17.0151 C   0  0  0  0  0  0  0  0  0  0  0  0
   25.4793   -9.3077  -16.3568 C   0  0  0  0  0  0  0  0  0  0  0  0
   25.2519  -10.2546  -15.4019 C   0  0  0  0  0  0  0  0  0  0  0  0
   26.4201  -10.9258  -15.1945 N   0  0  0  0  0  0  0  0  0  0  0  0
   27.3390  -10.4149  -15.9925 C   0  0  0  0  0  0  0  0  0  0  0  0
   26.7893   -9.4300  -16.7085 N   0  0  0  0  0  0  0  0  0  0  0  0
   22.4531   -7.1676  -17.1706 C   0  0  0  0  0  0  0  0  0  0  0  0
   22.1657   -7.0883  -18.3731 O   0  0  0  0  0  0  0  0  0  0  0  0
   22.0728   -6.0812  -16.3405 N   0  0  0  0  0  0  0  0  0  0  0  0
   21.3252   -4.9748  -16.9278 C   0  0  1  0  0  0  0  0  0  0  0  0
   20.0033   -5.5164  -17.4203 C   0  0  0  0  0  0  0  0  0  0  0  0
   18.8699   -4.2026  -17.8737 S   0  0  0  0  0  0  0  0  0  0  0  0
   21.0909   -3.8994  -15.9280 C   0  0  0  0  0  0  0  0  0  0  0  0
   20.9657   -4.1268  -14.6939 O   0  0  0  0  0  0  0  0  0  0  0  0
   21.0054   -2.6013  -16.3529 O   0  0  0  0  0  0  0  0  0  0  0  0
  1  2  1  0
  2  3  2  0
  4  2  1  0
  5  4  1  0
  5  6  1  1
  7  9  1  0
  7  5  1  0
  8  7  2  0
 10  9  1  0
 11 12  1  0
 10 11  1  6
 12 16  1  0
 12 13  2  0
 13 14  1  0
 15 14  1  0
 16 15  2  0
 17 19  1  0
 17 10  1  0
 18 17  2  0
 20 19  1  0
 20 23  1  0
 20 21  1  1
 21 22  1  0
 23 25  1  0
 24 23  2  0
M  END
$$$$
