NHC.pdb
     RDKit          3D

 25 25  0  0  1  0  0  0  0  0999 V2000
   28.1646  -32.0188  -14.7324 N   0  0  0  0  0  0  0  0  0  0  0  0
   28.5822  -32.0730  -16.0861 C   0  0  0  0  0  0  0  0  0  0  0  0
   28.6502  -33.1494  -16.7038 O   0  0  0  0  0  0  0  0  0  0  0  0
   28.9448  -30.8215  -16.7767 C   0  0  0  0  0  0  0  0  0  0  0  0
   28.1426  -29.6554  -16.2652 C   0  0  2  0  0  0  0  0  0  0  0  0
   26.7443  -29.7275  -16.5570 N   0  0  0  0  0  0  0  0  0  0  0  0
   28.6918  -28.4089  -16.8206 C   0  0  0  0  0  0  0  0  0  0  0  0
   29.9036  -28.1710  -16.6836 O   0  0  0  0  0  0  0  0  0  0  0  0
   27.8826  -27.4892  -17.4965 N   0  0  0  0  0  0  0  0  0  0  0  0
   28.4711  -26.3456  -18.2257 C   0  0  1  0  0  0  0  0  0  0  0  0
   27.9222  -26.3014  -19.6136 C   0  0  0  0  0  0  0  0  0  0  0  0
   28.3858  -25.1925  -20.4407 C   0  0  0  0  0  0  0  0  0  0  0  0
   29.3557  -24.2510  -20.2597 C   0  0  0  0  0  0  0  0  0  0  0  0
   29.4090  -23.4861  -21.3867 N   0  0  0  0  0  0  0  0  0  0  0  0
   28.5059  -23.9372  -22.2370 C   0  0  0  0  0  0  0  0  0  0  0  0
   27.8720  -24.9746  -21.6830 N   0  0  0  0  0  0  0  0  0  0  0  0
   27.9812  -25.1406  -17.4487 C   0  0  0  0  0  0  0  0  0  0  0  0
   26.9542  -25.1578  -16.7562 O   0  0  0  0  0  0  0  0  0  0  0  0
   28.7096  -23.9236  -17.4973 N   0  0  0  0  0  0  0  0  0  0  0  0
   28.1932  -22.7650  -16.7769 C   0  0  1  0  0  0  0  0  0  0  0  0
   29.2460  -21.6820  -16.8224 C   0  0  0  0  0  0  0  0  0  0  0  0
   28.5870  -20.0882  -16.3306 S   0  0  0  0  0  0  0  0  0  0  0  0
   26.9329  -22.2721  -17.3931 C   0  0  0  0  0  0  0  0  0  0  0  0
   26.7717  -22.1771  -18.6403 O   0  0  0  0  0  0  0  0  0  0  0  0
   25.8944  -21.9024  -16.5820 O   0  0  0  0  0  0  0  0  0  0  0  0
  1  2  1  0
  2  3  2  0
  4  2  1  0
  5  4  1  0
  5  6  1  6
  7  9  1  0
  7  5  1  0
  8  7  2  0
 10  9  1  0
 11 12  1  0
 10 11  1  6
 12 16  1  0
 12 13  2  0
 13 14  1  0
 15 14  1  0
 16 15  2  0
 17 19  1  0
 17 10  1  0
 18 17  2  0
 20 19  1  0
 20 23  1  0
 20 21  1  6
 21 22  1  0
 23 25  1  0
 24 23  2  0
M  END
$$$$
