NHC.pdb
     RDKit          3D

 25 25  0  0  1  0  0  0  0  0999 V2000
   19.1471  -14.4620  -17.0088 N   0  0  0  0  0  0  0  0  0  0  0  0
   20.3712  -14.6860  -16.3295 C   0  0  0  0  0  0  0  0  0  0  0  0
   20.7117  -15.8225  -15.9591 O   0  0  0  0  0  0  0  0  0  0  0  0
   21.2609  -13.5421  -16.0562 C   0  0  0  0  0  0  0  0  0  0  0  0
   20.6862  -12.2559  -16.5856 C   0  0  2  0  0  0  0  0  0  0  0  0
   20.7096  -12.1415  -18.0111 N   0  0  0  0  0  0  0  0  0  0  0  0
   21.4124  -11.1215  -15.9945 C   0  0  0  0  0  0  0  0  0  0  0  0
   21.4413  -11.0033  -14.7579 O   0  0  0  0  0  0  0  0  0  0  0  0
   22.0681  -10.1764  -16.7911 N   0  0  0  0  0  0  0  0  0  0  0  0
   22.7553   -9.0145  -16.1881 C   0  0  1  0  0  0  0  0  0  0  0  0
   24.1152   -8.8710  -16.7879 C   0  0  0  0  0  0  0  0  0  0  0  0
   25.1347   -9.7735  -16.2637 C   0  0  0  0  0  0  0  0  0  0  0  0
   25.0920  -10.7720  -15.3357 C   0  0  0  0  0  0  0  0  0  0  0  0
   26.3308  -11.3376  -15.2752 N   0  0  0  0  0  0  0  0  0  0  0  0
   27.1137  -10.7138  -16.1354 C   0  0  0  0  0  0  0  0  0  0  0  0
   26.4075   -9.7592  -16.7479 N   0  0  0  0  0  0  0  0  0  0  0  0
   21.8928   -7.8395  -16.6019 C   0  0  0  0  0  0  0  0  0  0  0  0
   21.3689   -7.7496  -17.7210 O   0  0  0  0  0  0  0  0  0  0  0  0
   21.6568   -6.7789  -15.6890 N   0  0  0  0  0  0  0  0  0  0  0  0
   20.8142   -5.6642  -16.1077 C   0  0  1  0  0  0  0  0  0  0  0  0
   19.3725   -6.1012  -15.9896 C   0  0  0  0  0  0  0  0  0  0  0  0
   18.2408   -4.7170  -16.1304 S   0  0  0  0  0  0  0  0  0  0  0  0
   21.0517   -4.4675  -15.2578 C   0  0  0  0  0  0  0  0  0  0  0  0
   21.2828   -4.5412  -14.0202 O   0  0  0  0  0  0  0  0  0  0  0  0
   21.0211   -3.2255  -15.8318 O   0  0  0  0  0  0  0  0  0  0  0  0
  1  2  1  0
  2  3  2  0
  4  2  1  0
  5  4  1  0
  5  6  1  6
  7  9  1  0
  7  5  1  0
  8  7  2  0
 10  9  1  0
 11 12  1  0
 10 11  1  6
 12 16  1  0
 12 13  2  0
 13 14  1  0
 15 14  1  0
 16 15  2  0
 17 19  1  0
 17 10  1  0
 18 17  2  0
 20 19  1  0
 20 23  1  0
 20 21  1  1
 21 22  1  0
 23 25  1  0
 24 23  2  0
M  END
$$$$
