NHC.pdb
     RDKit          3D

 25 25  0  0  1  0  0  0  0  0999 V2000
   19.2163  -13.1447  -17.8492 N   0  0  0  0  0  0  0  0  0  0  0  0
   19.5247  -13.3888  -16.4871 C   0  0  0  0  0  0  0  0  0  0  0  0
   18.9496  -14.2798  -15.8390 O   0  0  0  0  0  0  0  0  0  0  0  0
   20.5526  -12.5647  -15.8245 C   0  0  0  0  0  0  0  0  0  0  0  0
   21.1204  -11.5314  -16.7597 C   0  0  2  0  0  0  0  0  0  0  0  0
   21.8997  -12.0699  -17.8314 N   0  0  0  0  0  0  0  0  0  0  0  0
   21.9398  -10.5813  -15.9919 C   0  0  0  0  0  0  0  0  0  0  0  0
   21.9475  -10.6576  -14.7518 O   0  0  0  0  0  0  0  0  0  0  0  0
   22.7071   -9.5975  -16.6251 N   0  0  0  0  0  0  0  0  0  0  0  0
   23.4833   -8.6128  -15.8417 C   0  0  1  0  0  0  0  0  0  0  0  0
   24.8794   -8.5444  -16.3668 C   0  0  0  0  0  0  0  0  0  0  0  0
   25.7338   -9.6804  -16.0382 C   0  0  0  0  0  0  0  0  0  0  0  0
   25.5051  -10.8374  -15.3533 C   0  0  0  0  0  0  0  0  0  0  0  0
   26.6465  -11.5812  -15.3993 N   0  0  0  0  0  0  0  0  0  0  0  0
   27.5505  -10.9109  -16.0889 C   0  0  0  0  0  0  0  0  0  0  0  0
   27.0175   -9.7524  -16.4873 N   0  0  0  0  0  0  0  0  0  0  0  0
   22.7738   -7.3027  -16.1175 C   0  0  0  0  0  0  0  0  0  0  0  0
   22.5836   -6.8677  -17.2619 O   0  0  0  0  0  0  0  0  0  0  0  0
   22.2948   -6.5165  -15.0376 N   0  0  0  0  0  0  0  0  0  0  0  0
   21.5950   -5.2704  -15.3303 C   0  0  1  0  0  0  0  0  0  0  0  0
   20.1874   -5.3906  -14.7937 C   0  0  0  0  0  0  0  0  0  0  0  0
   19.3234   -6.7979  -15.4934 S   0  0  0  0  0  0  0  0  0  0  0  0
   22.2807   -4.1125  -14.6980 C   0  0  0  0  0  0  0  0  0  0  0  0
   23.2709   -4.2399  -13.9275 O   0  0  0  0  0  0  0  0  0  0  0  0
   21.8271   -2.8472  -14.9555 O   0  0  0  0  0  0  0  0  0  0  0  0
  1  2  1  0
  2  3  2  0
  4  2  1  0
  5  4  1  0
  5  6  1  6
  7  9  1  0
  7  5  1  0
  8  7  2  0
 10  9  1  0
 11 12  1  0
 10 11  1  6
 12 16  1  0
 12 13  2  0
 13 14  1  0
 15 14  1  0
 16 15  2  0
 17 19  1  0
 17 10  1  0
 18 17  2  0
 20 19  1  0
 20 23  1  0
 20 21  1  1
 21 22  1  0
 23 25  1  0
 24 23  2  0
M  END
$$$$
