NHC.pdb
     RDKit          3D

 25 25  0  0  1  0  0  0  0  0999 V2000
   20.3497  -13.1630  -20.9192 N   0  0  0  0  0  0  0  0  0  0  0  0
   19.2695  -12.6000  -20.1939 C   0  0  0  0  0  0  0  0  0  0  0  0
   18.2185  -12.2507  -20.7579 O   0  0  0  0  0  0  0  0  0  0  0  0
   19.3974  -12.4248  -18.7353 C   0  0  0  0  0  0  0  0  0  0  0  0
   20.7680  -12.8129  -18.2498 C   0  0  2  0  0  0  0  0  0  0  0  0
   20.8153  -14.0589  -17.5491 N   0  0  0  0  0  0  0  0  0  0  0  0
   21.2947  -11.7472  -17.3834 C   0  0  0  0  0  0  0  0  0  0  0  0
   20.8875  -11.6667  -16.2123 O   0  0  0  0  0  0  0  0  0  0  0  0
   22.2399  -10.8259  -17.8476 N   0  0  0  0  0  0  0  0  0  0  0  0
   22.7507   -9.7494  -16.9725 C   0  0  1  0  0  0  0  0  0  0  0  0
   24.1996   -9.5220  -17.2527 C   0  0  0  0  0  0  0  0  0  0  0  0
   25.1215  -10.4427  -16.5961 C   0  0  0  0  0  0  0  0  0  0  0  0
   24.9298  -11.4677  -15.7171 C   0  0  0  0  0  0  0  0  0  0  0  0
   26.1431  -12.0387  -15.4722 N   0  0  0  0  0  0  0  0  0  0  0  0
   27.0547  -11.3925  -16.1746 C   0  0  0  0  0  0  0  0  0  0  0  0
   26.4563  -10.4182  -16.8656 N   0  0  0  0  0  0  0  0  0  0  0  0
   21.9547   -8.5346  -17.4045 C   0  0  0  0  0  0  0  0  0  0  0  0
   21.8155   -8.2078  -18.5913 O   0  0  0  0  0  0  0  0  0  0  0  0
   21.3297   -7.7148  -16.4291 N   0  0  0  0  0  0  0  0  0  0  0  0
   20.5661   -6.5530  -16.8709 C   0  0  1  0  0  0  0  0  0  0  0  0
   19.1008   -6.8482  -16.6495 C   0  0  0  0  0  0  0  0  0  0  0  0
   18.7867   -7.4709  -14.9972 S   0  0  0  0  0  0  0  0  0  0  0  0
   20.9581   -5.3367  -16.1106 C   0  0  0  0  0  0  0  0  0  0  0  0
   21.8056   -5.3560  -15.1769 O   0  0  0  0  0  0  0  0  0  0  0  0
   20.3812   -4.1371  -16.4286 O   0  0  0  0  0  0  0  0  0  0  0  0
  1  2  1  0
  2  3  2  0
  4  2  1  0
  5  4  1  0
  5  6  1  1
  7  9  1  0
  7  5  1  0
  8  7  2  0
 10  9  1  0
 11 12  1  0
 10 11  1  6
 12 16  1  0
 12 13  2  0
 13 14  1  0
 15 14  1  0
 16 15  2  0
 17 19  1  0
 17 10  1  0
 18 17  2  0
 20 19  1  0
 20 23  1  0
 20 21  1  1
 21 22  1  0
 23 25  1  0
 24 23  2  0
M  END
$$$$
