NHC.pdb
     RDKit          3D

 25 25  0  0  1  0  0  0  0  0999 V2000
   27.6378  -25.5199  -16.7090 N   0  0  0  0  0  0  0  0  0  0  0  0
   28.3791  -24.3636  -17.0603 C   0  0  0  0  0  0  0  0  0  0  0  0
   29.2470  -24.3919  -17.9495 O   0  0  0  0  0  0  0  0  0  0  0  0
   28.1131  -23.0974  -16.3527 C   0  0  0  0  0  0  0  0  0  0  0  0
   27.1039  -22.2556  -17.0859 C   0  0  2  0  0  0  0  0  0  0  0  0
   27.6637  -21.4006  -18.0865 N   0  0  0  0  0  0  0  0  0  0  0  0
   26.3544  -21.4430  -16.1155 C   0  0  0  0  0  0  0  0  0  0  0  0
   26.8943  -20.4349  -15.6296 O   0  0  0  0  0  0  0  0  0  0  0  0
   25.0524  -21.7795  -15.7290 N   0  0  0  0  0  0  0  0  0  0  0  0
   24.3013  -20.9443  -14.7677 C   0  0  1  0  0  0  0  0  0  0  0  0
   22.8374  -21.1906  -14.9282 C   0  0  0  0  0  0  0  0  0  0  0  0
   21.9685  -20.4381  -14.0297 C   0  0  0  0  0  0  0  0  0  0  0  0
   22.2132  -19.4399  -13.1332 C   0  0  0  0  0  0  0  0  0  0  0  0
   21.0181  -19.0536  -12.6035 N   0  0  0  0  0  0  0  0  0  0  0  0
   20.0658  -19.7845  -13.1522 C   0  0  0  0  0  0  0  0  0  0  0  0
   20.6206  -20.6329  -14.0225 N   0  0  0  0  0  0  0  0  0  0  0  0
   24.7569  -21.4615  -13.4183 C   0  0  0  0  0  0  0  0  0  0  0  0
   24.6482  -22.6484  -13.0802 O   0  0  0  0  0  0  0  0  0  0  0  0
   25.3371  -20.5706  -12.4783 N   0  0  0  0  0  0  0  0  0  0  0  0
   25.8054  -21.1005  -11.2025 C   0  0  1  0  0  0  0  0  0  0  0  0
   27.0530  -20.3417  -10.8136 C   0  0  0  0  0  0  0  0  0  0  0  0
   28.3358  -20.4817  -12.0591 S   0  0  0  0  0  0  0  0  0  0  0  0
   24.7689  -20.9452  -10.1478 C   0  0  0  0  0  0  0  0  0  0  0  0
   23.6964  -20.3073  -10.3300 O   0  0  0  0  0  0  0  0  0  0  0  0
   24.9758  -21.5150   -8.9208 O   0  0  0  0  0  0  0  0  0  0  0  0
  1  2  1  0
  2  3  2  0
  4  2  1  0
  5  4  1  0
  5  6  1  6
  7  9  1  0
  7  5  1  0
  8  7  2  0
 10  9  1  0
 11 12  1  0
 10 11  1  6
 12 16  1  0
 12 13  2  0
 13 14  1  0
 15 14  1  0
 16 15  2  0
 17 19  1  0
 17 10  1  0
 18 17  2  0
 20 19  1  0
 20 23  1  0
 20 21  1  1
 21 22  1  0
 23 25  1  0
 24 23  2  0
M  END
$$$$
