NHC.pdb
     RDKit          3D

 25 25  0  0  1  0  0  0  0  0999 V2000
   13.0184   -6.5368   -7.7061 N   0  0  0  0  0  0  0  0  0  0  0  0
   13.0748   -7.9458   -7.8526 C   0  0  0  0  0  0  0  0  0  0  0  0
   12.2023   -8.6862   -7.3674 O   0  0  0  0  0  0  0  0  0  0  0  0
   14.1963   -8.5461   -8.5986 C   0  0  0  0  0  0  0  0  0  0  0  0
   15.1428   -7.4957   -9.1140 C   0  0  2  0  0  0  0  0  0  0  0  0
   14.5170   -6.4607   -9.8774 N   0  0  0  0  0  0  0  0  0  0  0  0
   16.1838   -8.1400   -9.9293 C   0  0  0  0  0  0  0  0  0  0  0  0
   17.0035   -8.8918   -9.3754 O   0  0  0  0  0  0  0  0  0  0  0  0
   16.2710   -7.9251  -11.3091 N   0  0  0  0  0  0  0  0  0  0  0  0
   17.3501   -8.5403  -12.1110 C   0  0  1  0  0  0  0  0  0  0  0  0
   16.7680   -9.1711  -13.3328 C   0  0  0  0  0  0  0  0  0  0  0  0
   17.7279   -9.7812  -14.2465 C   0  0  0  0  0  0  0  0  0  0  0  0
   18.3059  -11.0159  -14.2857 C   0  0  0  0  0  0  0  0  0  0  0  0
   19.0873  -11.0747  -15.4012 N   0  0  0  0  0  0  0  0  0  0  0  0
   18.9966   -9.9189  -16.0322 C   0  0  0  0  0  0  0  0  0  0  0  0
   18.1753   -9.1173  -15.3482 N   0  0  0  0  0  0  0  0  0  0  0  0
   18.2103   -7.3591  -12.5119 C   0  0  0  0  0  0  0  0  0  0  0  0
   17.7439   -6.2364  -12.7504 O   0  0  0  0  0  0  0  0  0  0  0  0
   19.6161   -7.5148  -12.6283 N   0  0  0  0  0  0  0  0  0  0  0  0
   20.4040   -6.4122  -13.1683 C   0  0  1  0  0  0  0  0  0  0  0  0
   21.7165   -6.3688  -12.4206 C   0  0  0  0  0  0  0  0  0  0  0  0
   22.8346   -5.1443  -13.1038 S   0  0  0  0  0  0  0  0  0  0  0  0
   20.6554   -6.5983  -14.6220 C   0  0  0  0  0  0  0  0  0  0  0  0
   20.9515   -7.7146  -15.1286 O   0  0  0  0  0  0  0  0  0  0  0  0
   20.5643   -5.5184  -15.4578 O   0  0  0  0  0  0  0  0  0  0  0  0
  1  2  1  0
  2  3  2  0
  4  2  1  0
  5  4  1  0
  5  6  1  6
  7  9  1  0
  7  5  1  0
  8  7  2  0
 10  9  1  0
 11 12  1  0
 10 11  1  6
 12 16  1  0
 12 13  2  0
 13 14  1  0
 15 14  1  0
 16 15  2  0
 17 19  1  0
 17 10  1  0
 18 17  2  0
 20 19  1  0
 20 23  1  0
 20 21  1  1
 21 22  1  0
 23 25  1  0
 24 23  2  0
M  END
$$$$
