NHC.pdb
     RDKit          3D

 25 25  0  0  1  0  0  0  0  0999 V2000
   28.6834  -11.8886  -16.0256 N   0  0  0  0  0  0  0  0  0  0  0  0
   28.7080  -11.4070  -17.3588 C   0  0  0  0  0  0  0  0  0  0  0  0
   29.6619  -11.6447  -18.1193 O   0  0  0  0  0  0  0  0  0  0  0  0
   27.5741  -10.6047  -17.8538 C   0  0  0  0  0  0  0  0  0  0  0  0
   26.5677  -10.3400  -16.7666 C   0  0  2  0  0  0  0  0  0  0  0  0
   25.9591  -11.5162  -16.2265 N   0  0  0  0  0  0  0  0  0  0  0  0
   25.5215   -9.4441  -17.2827 C   0  0  0  0  0  0  0  0  0  0  0  0
   25.8525   -8.3525  -17.7754 O   0  0  0  0  0  0  0  0  0  0  0  0
   24.1674   -9.7927  -17.2306 N   0  0  0  0  0  0  0  0  0  0  0  0
   23.1245   -8.8848  -17.7539 C   0  0  1  0  0  0  0  0  0  0  0  0
   21.8621   -9.6499  -17.9786 C   0  0  0  0  0  0  0  0  0  0  0  0
   20.7287   -8.8693  -18.4631 C   0  0  0  0  0  0  0  0  0  0  0  0
   20.6148   -7.5804  -18.8940 C   0  0  0  0  0  0  0  0  0  0  0  0
   19.3261   -7.3875  -19.2946 N   0  0  0  0  0  0  0  0  0  0  0  0
   18.6644   -8.5162  -19.1199 C   0  0  0  0  0  0  0  0  0  0  0  0
   19.4974   -9.4309  -18.6155 N   0  0  0  0  0  0  0  0  0  0  0  0
   22.9215   -7.8924  -16.6271 C   0  0  0  0  0  0  0  0  0  0  0  0
   23.0932   -8.1825  -15.4350 O   0  0  0  0  0  0  0  0  0  0  0  0
   22.5161   -6.5640  -16.9188 N   0  0  0  0  0  0  0  0  0  0  0  0
   22.2600   -5.6474  -15.8132 C   0  0  1  0  0  0  0  0  0  0  0  0
   23.5839   -5.0642  -15.3765 C   0  0  0  0  0  0  0  0  0  0  0  0
   23.3706   -3.7377  -14.1885 S   0  0  0  0  0  0  0  0  0  0  0  0
   21.3382   -4.5567  -16.2272 C   0  0  0  0  0  0  0  0  0  0  0  0
   20.8561   -3.7217  -15.4143 O   0  0  0  0  0  0  0  0  0  0  0  0
   20.9899   -4.4429  -17.5458 O   0  0  0  0  0  0  0  0  0  0  0  0
  1  2  1  0
  2  3  2  0
  4  2  1  0
  5  4  1  0
  5  6  1  6
  7  9  1  0
  7  5  1  0
  8  7  2  0
 10  9  1  0
 11 12  1  0
 10 11  1  1
 12 16  1  0
 12 13  2  0
 13 14  1  0
 15 14  1  0
 16 15  2  0
 17 19  1  0
 17 10  1  0
 18 17  2  0
 20 19  1  0
 20 23  1  0
 20 21  1  6
 21 22  1  0
 23 25  1  0
 24 23  2  0
M  END
$$$$
