NHC.pdb
     RDKit          3D

 25 25  0  0  1  0  0  0  0  0999 V2000
   16.9297  -14.1057  -17.0862 N   0  0  0  0  0  0  0  0  0  0  0  0
   17.7722  -14.3700  -15.9770 C   0  0  0  0  0  0  0  0  0  0  0  0
   17.4734  -15.2196  -15.1204 O   0  0  0  0  0  0  0  0  0  0  0  0
   19.0330  -13.6180  -15.8372 C   0  0  0  0  0  0  0  0  0  0  0  0
   19.1822  -12.5828  -16.9194 C   0  0  2  0  0  0  0  0  0  0  0  0
   19.3187  -13.1219  -18.2372 N   0  0  0  0  0  0  0  0  0  0  0  0
   20.3440  -11.7321  -16.6191 C   0  0  0  0  0  0  0  0  0  0  0  0
   21.0989  -12.0513  -15.6852 O   0  0  0  0  0  0  0  0  0  0  0  0
   20.6160  -10.5760  -17.3587 N   0  0  0  0  0  0  0  0  0  0  0  0
   21.8174   -9.7592  -17.0846 C   0  0  1  0  0  0  0  0  0  0  0  0
   22.5510   -9.5047  -18.3600 C   0  0  0  0  0  0  0  0  0  0  0  0
   23.2348  -10.6577  -18.9357 C   0  0  0  0  0  0  0  0  0  0  0  0
   23.0650  -11.3406  -20.1040 C   0  0  0  0  0  0  0  0  0  0  0  0
   24.0269  -12.3045  -20.1665 N   0  0  0  0  0  0  0  0  0  0  0  0
   24.7676  -12.2222  -19.0771 C   0  0  0  0  0  0  0  0  0  0  0  0
   24.3044  -11.2278  -18.3146 N   0  0  0  0  0  0  0  0  0  0  0  0
   21.2477   -8.4570  -16.5595 C   0  0  0  0  0  0  0  0  0  0  0  0
   20.2061   -7.9513  -17.0002 O   0  0  0  0  0  0  0  0  0  0  0  0
   21.9148   -7.7621  -15.5174 N   0  0  0  0  0  0  0  0  0  0  0  0
   21.3095   -6.5480  -14.9810 C   0  0  1  0  0  0  0  0  0  0  0  0
   21.5744   -6.5145  -13.4937 C   0  0  0  0  0  0  0  0  0  0  0  0
   20.8917   -7.9486  -12.6608 S   0  0  0  0  0  0  0  0  0  0  0  0
   21.8832   -5.3368  -15.6249 C   0  0  0  0  0  0  0  0  0  0  0  0
   22.8498   -5.3836  -16.4335 O   0  0  0  0  0  0  0  0  0  0  0  0
   21.3474   -4.1111  -15.3359 O   0  0  0  0  0  0  0  0  0  0  0  0
  1  2  1  0
  2  3  2  0
  4  2  1  0
  5  4  1  0
  5  6  1  6
  7  9  1  0
  7  5  1  0
  8  7  2  0
 10  9  1  0
 11 12  1  0
 10 11  1  6
 12 16  1  0
 12 13  2  0
 13 14  1  0
 15 14  1  0
 16 15  2  0
 17 19  1  0
 17 10  1  0
 18 17  2  0
 20 19  1  0
 20 23  1  0
 20 21  1  1
 21 22  1  0
 23 25  1  0
 24 23  2  0
M  END
$$$$
