CWW.pdb
     RDKit          3D

 35 38  0  0  1  0  0  0  0  0999 V2000
   28.4618  -18.2516  -16.3426 N   0  0  0  0  0  0  0  0  0  0  0  0
   28.5672  -19.2587  -15.3028 C   0  0  1  0  0  0  0  0  0  0  0  0
   29.8406  -19.0202  -14.5131 C   0  0  0  0  0  0  0  0  0  0  0  0
   30.0198  -20.4358  -13.3657 S   0  0  0  0  0  0  0  0  0  0  0  0
   27.3636  -19.2226  -14.4716 C   0  0  0  0  0  0  0  0  0  0  0  0
   26.9171  -18.1115  -14.0155 O   0  0  0  0  0  0  0  0  0  0  0  0
   26.6005  -20.3599  -14.1004 N   0  0  0  0  0  0  0  0  0  0  0  0
   25.4582  -20.3085  -13.1925 C   0  0  1  0  0  0  0  0  0  0  0  0
   24.3639  -21.1009  -13.8582 C   0  0  0  0  0  0  0  0  0  0  0  0
   24.6753  -22.5103  -14.1564 C   0  0  0  0  0  0  0  0  0  0  0  0
   24.2743  -23.5475  -13.3292 C   0  0  0  0  0  0  0  0  0  0  0  0
   24.7482  -24.6693  -13.8537 N   0  0  0  0  0  0  0  0  0  0  0  0
   25.4350  -24.4464  -14.9727 C   0  0  0  0  0  0  0  0  0  0  0  0
   26.0947  -25.2783  -15.8768 C   0  0  0  0  0  0  0  0  0  0  0  0
   26.7040  -24.7130  -16.9756 C   0  0  0  0  0  0  0  0  0  0  0  0
   26.6616  -23.3638  -17.1738 C   0  0  0  0  0  0  0  0  0  0  0  0
   26.0156  -22.5293  -16.2910 C   0  0  0  0  0  0  0  0  0  0  0  0
   25.3995  -23.0939  -15.1795 C   0  0  0  0  0  0  0  0  0  0  0  0
   25.7284  -20.8225  -11.8534 C   0  0  0  0  0  0  0  0  0  0  0  0
   26.8302  -21.4040  -11.6930 O   0  0  0  0  0  0  0  0  0  0  0  0
   24.8815  -20.7253  -10.7496 N   0  0  0  0  0  0  0  0  0  0  0  0
   25.1807  -20.8502   -9.3851 C   0  0  1  0  0  0  0  0  0  0  0  0
   26.4229  -20.2135   -8.8332 C   0  0  0  0  0  0  0  0  0  0  0  0
   26.6330  -20.3835   -7.3856 C   0  0  0  0  0  0  0  0  0  0  0  0
   25.9308  -21.1284   -6.4825 C   0  0  0  0  0  0  0  0  0  0  0  0
   26.4972  -21.0144   -5.2476 N   0  0  0  0  0  0  0  0  0  0  0  0
   27.5555  -20.2134   -5.3156 C   0  0  0  0  0  0  0  0  0  0  0  0
   28.4622  -19.7748   -4.3929 C   0  0  0  0  0  0  0  0  0  0  0  0
   29.5060  -18.9222   -4.7338 C   0  0  0  0  0  0  0  0  0  0  0  0
   29.6145  -18.5153   -6.0543 C   0  0  0  0  0  0  0  0  0  0  0  0
   28.6897  -18.9607   -7.0017 C   0  0  0  0  0  0  0  0  0  0  0  0
   27.6683  -19.8047   -6.6269 C   0  0  0  0  0  0  0  0  0  0  0  0
   24.0654  -20.6503   -8.4391 C   0  0  0  0  0  0  0  0  0  0  0  0
   23.2496  -19.7206   -8.5214 O   0  0  0  0  0  0  0  0  0  0  0  0
   23.9512  -21.5869   -7.3963 O   0  0  0  0  0  0  0  0  0  0  0  0
  2  1  1  6
  2  3  1  0
  3  4  1  0
  5  2  1  0
  5  6  2  0
  7  5  1  0
  8  7  1  0
  9 10  1  0
  8  9  1  6
 10 11  2  0
 11 12  1  0
 13 12  1  0
 14 13  2  0
 15 14  1  0
 16 17  1  0
 16 15  2  0
 17 18  2  0
 18 10  1  0
 18 13  1  0
 19 21  1  0
 19  8  1  0
 20 19  2  0
 22 21  1  0
 22 33  1  0
 22 23  1  1
 24 23  1  0
 25 24  2  0
 26 25  1  0
 27 26  1  0
 27 32  2  0
 28 29  2  0
 28 27  1  0
 29 30  1  0
 30 31  2  0
 32 31  1  0
 32 24  1  0
 33 34  2  0
 33 35  1  0
M  END
$$$$
