CWW.pdb
     RDKit          3D

 35 38  0  0  1  0  0  0  0  0999 V2000
   31.0671  -23.6670  -18.0529 N   0  0  0  0  0  0  0  0  0  0  0  0
   29.6242  -23.6145  -17.9043 C   0  0  1  0  0  0  0  0  0  0  0  0
   29.1085  -25.0099  -17.6063 C   0  0  0  0  0  0  0  0  0  0  0  0
   29.1092  -25.9204  -19.1949 S   0  0  0  0  0  0  0  0  0  0  0  0
   29.2807  -22.6438  -16.8647 C   0  0  0  0  0  0  0  0  0  0  0  0
   29.9603  -22.5790  -15.7804 O   0  0  0  0  0  0  0  0  0  0  0  0
   28.2098  -21.7162  -16.9440 N   0  0  0  0  0  0  0  0  0  0  0  0
   27.8858  -20.7601  -15.8891 C   0  0  1  0  0  0  0  0  0  0  0  0
   27.1805  -19.6161  -16.5691 C   0  0  0  0  0  0  0  0  0  0  0  0
   26.7247  -18.5234  -15.6912 C   0  0  0  0  0  0  0  0  0  0  0  0
   27.5727  -17.8921  -14.7949 C   0  0  0  0  0  0  0  0  0  0  0  0
   26.8475  -16.9987  -14.1360 N   0  0  0  0  0  0  0  0  0  0  0  0
   25.5770  -16.9942  -14.5352 C   0  0  0  0  0  0  0  0  0  0  0  0
   24.4582  -16.2458  -14.1708 C   0  0  0  0  0  0  0  0  0  0  0  0
   23.2631  -16.4832  -14.8138 C   0  0  0  0  0  0  0  0  0  0  0  0
   23.1778  -17.4335  -15.7890 C   0  0  0  0  0  0  0  0  0  0  0  0
   24.2720  -18.1808  -16.1597 C   0  0  0  0  0  0  0  0  0  0  0  0
   25.4808  -17.9465  -15.5137 C   0  0  0  0  0  0  0  0  0  0  0  0
   27.0670  -21.3059  -14.8110 C   0  0  0  0  0  0  0  0  0  0  0  0
   26.2157  -22.1684  -15.1417 O   0  0  0  0  0  0  0  0  0  0  0  0
   27.1462  -20.9588  -13.4626 N   0  0  0  0  0  0  0  0  0  0  0  0
   26.4590  -21.4954  -12.3641 C   0  0  1  0  0  0  0  0  0  0  0  0
   27.2170  -21.8835  -11.1281 C   0  0  0  0  0  0  0  0  0  0  0  0
   26.9370  -21.0719   -9.9316 C   0  0  0  0  0  0  0  0  0  0  0  0
   25.8201  -20.3604   -9.6004 C   0  0  0  0  0  0  0  0  0  0  0  0
   25.9860  -19.7796   -8.3782 N   0  0  0  0  0  0  0  0  0  0  0  0
   27.1845  -20.0919   -7.8961 C   0  0  0  0  0  0  0  0  0  0  0  0
   27.8403  -19.7845   -6.7380 C   0  0  0  0  0  0  0  0  0  0  0  0
   29.1202  -20.2558   -6.4690 C   0  0  0  0  0  0  0  0  0  0  0  0
   29.7340  -21.0607   -7.4159 C   0  0  0  0  0  0  0  0  0  0  0  0
   29.0678  -21.3778   -8.6020 C   0  0  0  0  0  0  0  0  0  0  0  0
   27.8004  -20.8921   -8.8340 C   0  0  0  0  0  0  0  0  0  0  0  0
   25.1995  -20.8295  -11.9781 C   0  0  0  0  0  0  0  0  0  0  0  0
   24.9743  -19.6236  -12.1565 O   0  0  0  0  0  0  0  0  0  0  0  0
   24.2202  -21.6393  -11.3758 O   0  0  0  0  0  0  0  0  0  0  0  0
  2  1  1  1
  2  3  1  0
  3  4  1  0
  5  2  1  0
  5  6  2  0
  7  5  1  0
  8  7  1  0
  9 10  1  0
  8  9  1  6
 10 11  2  0
 11 12  1  0
 13 12  1  0
 14 13  2  0
 15 14  1  0
 16 17  1  0
 16 15  2  0
 17 18  2  0
 18 10  1  0
 18 13  1  0
 19 21  1  0
 19  8  1  0
 20 19  2  0
 22 21  1  0
 22 33  1  0
 22 23  1  1
 24 23  1  0
 25 24  2  0
 26 25  1  0
 27 26  1  0
 27 32  2  0
 28 29  2  0
 28 27  1  0
 29 30  1  0
 30 31  2  0
 32 31  1  0
 32 24  1  0
 33 34  2  0
 33 35  1  0
M  END
$$$$
