CWW.pdb
     RDKit          3D

 35 38  0  0  1  0  0  0  0  0999 V2000
   31.4345  -23.9011  -16.8550 N   0  0  0  0  0  0  0  0  0  0  0  0
   30.0029  -23.7436  -17.0349 C   0  0  1  0  0  0  0  0  0  0  0  0
   29.3332  -25.0942  -16.8638 C   0  0  0  0  0  0  0  0  0  0  0  0
   29.8850  -26.1352  -18.2654 S   0  0  0  0  0  0  0  0  0  0  0  0
   29.5063  -22.7362  -16.0971 C   0  0  0  0  0  0  0  0  0  0  0  0
   30.0614  -22.5777  -14.9532 O   0  0  0  0  0  0  0  0  0  0  0  0
   28.4097  -21.8700  -16.3439 N   0  0  0  0  0  0  0  0  0  0  0  0
   27.9673  -20.8367  -15.4119 C   0  0  1  0  0  0  0  0  0  0  0  0
   27.2730  -19.7941  -16.2482 C   0  0  0  0  0  0  0  0  0  0  0  0
   26.6010  -18.7120  -15.5067 C   0  0  0  0  0  0  0  0  0  0  0  0
   27.3069  -17.7235  -14.8393 C   0  0  0  0  0  0  0  0  0  0  0  0
   26.4154  -16.9418  -14.2456 N   0  0  0  0  0  0  0  0  0  0  0  0
   25.1668  -17.3442  -14.4750 C   0  0  0  0  0  0  0  0  0  0  0  0
   23.9159  -16.8582  -14.0961 C   0  0  0  0  0  0  0  0  0  0  0  0
   22.7878  -17.5162  -14.5347 C   0  0  0  0  0  0  0  0  0  0  0  0
   22.8946  -18.6229  -15.3254 C   0  0  0  0  0  0  0  0  0  0  0  0
   24.1211  -19.1155  -15.7075 C   0  0  0  0  0  0  0  0  0  0  0  0
   25.2635  -18.4563  -15.2672 C   0  0  0  0  0  0  0  0  0  0  0  0
   27.0888  -21.3181  -14.3503 C   0  0  0  0  0  0  0  0  0  0  0  0
   26.2546  -22.1990  -14.6757 O   0  0  0  0  0  0  0  0  0  0  0  0
   27.0945  -20.8917  -13.0224 N   0  0  0  0  0  0  0  0  0  0  0  0
   26.3707  -21.3843  -11.9268 C   0  0  1  0  0  0  0  0  0  0  0  0
   27.1016  -21.8877  -10.7163 C   0  0  0  0  0  0  0  0  0  0  0  0
   27.1409  -20.9642   -9.5699 C   0  0  0  0  0  0  0  0  0  0  0  0
   26.3786  -19.8621   -9.3094 C   0  0  0  0  0  0  0  0  0  0  0  0
   26.7409  -19.3206   -8.1118 N   0  0  0  0  0  0  0  0  0  0  0  0
   27.7225  -20.0395   -7.5770 C   0  0  0  0  0  0  0  0  0  0  0  0
   28.4329  -19.9410   -6.4145 C   0  0  0  0  0  0  0  0  0  0  0  0
   29.4311  -20.8498   -6.0823 C   0  0  0  0  0  0  0  0  0  0  0  0
   29.6998  -21.8806   -6.9691 C   0  0  0  0  0  0  0  0  0  0  0  0
   28.9763  -21.9856   -8.1594 C   0  0  0  0  0  0  0  0  0  0  0  0
   27.9948  -21.0662   -8.4550 C   0  0  0  0  0  0  0  0  0  0  0  0
   25.1959  -20.5995  -11.4993 C   0  0  0  0  0  0  0  0  0  0  0  0
   25.0536  -19.3898  -11.7301 O   0  0  0  0  0  0  0  0  0  0  0  0
   24.1998  -21.2954  -10.7915 O   0  0  0  0  0  0  0  0  0  0  0  0
  2  1  1  1
  2  3  1  0
  3  4  1  0
  5  2  1  0
  5  6  2  0
  7  5  1  0
  8  7  1  0
  9 10  1  0
  8  9  1  6
 10 11  2  0
 11 12  1  0
 13 12  1  0
 14 13  2  0
 15 14  1  0
 16 17  1  0
 16 15  2  0
 17 18  2  0
 18 10  1  0
 18 13  1  0
 19 21  1  0
 19  8  1  0
 20 19  2  0
 22 21  1  0
 22 33  1  0
 22 23  1  1
 24 23  1  0
 25 24  2  0
 26 25  1  0
 27 26  1  0
 27 32  2  0
 28 29  2  0
 28 27  1  0
 29 30  1  0
 30 31  2  0
 32 31  1  0
 32 24  1  0
 33 34  2  0
 33 35  1  0
M  END
$$$$
