CWW.pdb
     RDKit          3D

 35 38  0  0  1  0  0  0  0  0999 V2000
   28.9171  -21.1999  -16.2039 N   0  0  0  0  0  0  0  0  0  0  0  0
   28.4610  -20.2203  -15.2349 C   0  0  1  0  0  0  0  0  0  0  0  0
   27.6322  -19.1694  -15.9494 C   0  0  0  0  0  0  0  0  0  0  0  0
   28.3190  -17.5419  -15.4674 S   0  0  0  0  0  0  0  0  0  0  0  0
   27.7254  -20.9014  -14.1691 C   0  0  0  0  0  0  0  0  0  0  0  0
   26.6843  -21.5991  -14.4360 O   0  0  0  0  0  0  0  0  0  0  0  0
   28.0708  -20.8628  -12.7934 N   0  0  0  0  0  0  0  0  0  0  0  0
   27.1962  -21.3364  -11.7244 C   0  0  1  0  0  0  0  0  0  0  0  0
   28.0236  -21.3023  -10.4663 C   0  0  0  0  0  0  0  0  0  0  0  0
   27.3018  -20.9659   -9.2261 C   0  0  0  0  0  0  0  0  0  0  0  0
   25.9290  -21.1140   -9.1059 C   0  0  0  0  0  0  0  0  0  0  0  0
   25.5957  -20.6858   -7.8960 N   0  0  0  0  0  0  0  0  0  0  0  0
   26.6541  -20.2651   -7.2058 C   0  0  0  0  0  0  0  0  0  0  0  0
   26.8208  -19.7548   -5.9188 C   0  0  0  0  0  0  0  0  0  0  0  0
   28.0900  -19.4285   -5.4937 C   0  0  0  0  0  0  0  0  0  0  0  0
   29.1630  -19.6024   -6.3183 C   0  0  0  0  0  0  0  0  0  0  0  0
   29.0154  -20.1040   -7.5910 C   0  0  0  0  0  0  0  0  0  0  0  0
   27.7367  -20.4342   -8.0261 C   0  0  0  0  0  0  0  0  0  0  0  0
   25.9708  -20.5606  -11.5594 C   0  0  0  0  0  0  0  0  0  0  0  0
   26.1103  -19.3166  -11.4548 O   0  0  0  0  0  0  0  0  0  0  0  0
   24.6746  -21.0728  -11.5091 N   0  0  0  0  0  0  0  0  0  0  0  0
   23.4477  -20.3964  -11.5749 C   0  0  1  0  0  0  0  0  0  0  0  0
   23.2356  -19.3373  -12.6171 C   0  0  0  0  0  0  0  0  0  0  0  0
   23.4279  -19.7717  -14.0109 C   0  0  0  0  0  0  0  0  0  0  0  0
   23.2525  -21.0027  -14.5743 C   0  0  0  0  0  0  0  0  0  0  0  0
   23.5199  -20.9435  -15.9099 N   0  0  0  0  0  0  0  0  0  0  0  0
   23.8664  -19.7035  -16.2398 C   0  0  0  0  0  0  0  0  0  0  0  0
   24.2221  -19.1096  -17.4173 C   0  0  0  0  0  0  0  0  0  0  0  0
   24.5415  -17.7587  -17.4936 C   0  0  0  0  0  0  0  0  0  0  0  0
   24.4920  -17.0074  -16.3300 C   0  0  0  0  0  0  0  0  0  0  0  0
   24.1290  -17.6100  -15.1232 C   0  0  0  0  0  0  0  0  0  0  0  0
   23.8197  -18.9513  -15.0860 C   0  0  0  0  0  0  0  0  0  0  0  0
   22.2280  -21.2192  -11.4565 C   0  0  0  0  0  0  0  0  0  0  0  0
   21.7573  -21.8922  -12.3851 O   0  0  0  0  0  0  0  0  0  0  0  0
   21.5881  -21.2165  -10.2042 O   0  0  0  0  0  0  0  0  0  0  0  0
  2  1  1  6
  2  3  1  0
  3  4  1  0
  5  2  1  0
  5  6  2  0
  7  5  1  0
  8  7  1  0
  9 10  1  0
  8  9  1  1
 10 11  2  0
 11 12  1  0
 13 12  1  0
 14 13  2  0
 15 14  1  0
 16 17  1  0
 16 15  2  0
 17 18  2  0
 18 10  1  0
 18 13  1  0
 19 21  1  0
 19  8  1  0
 20 19  2  0
 22 21  1  0
 22 33  1  0
 22 23  1  6
 24 23  1  0
 25 24  2  0
 26 25  1  0
 27 26  1  0
 27 32  2  0
 28 29  2  0
 28 27  1  0
 29 30  1  0
 30 31  2  0
 32 31  1  0
 32 24  1  0
 33 34  2  0
 33 35  1  0
M  END
$$$$
