CWW.pdb
     RDKit          3D

 35 38  0  0  1  0  0  0  0  0999 V2000
   29.9648  -21.6444  -19.0644 N   0  0  0  0  0  0  0  0  0  0  0  0
   29.5937  -22.3980  -17.8808 C   0  0  1  0  0  0  0  0  0  0  0  0
   30.8543  -22.8868  -17.1925 C   0  0  0  0  0  0  0  0  0  0  0  0
   30.3183  -23.7705  -15.6810 S   0  0  0  0  0  0  0  0  0  0  0  0
   28.7587  -21.5617  -17.0180 C   0  0  0  0  0  0  0  0  0  0  0  0
   29.1532  -20.3978  -16.6554 O   0  0  0  0  0  0  0  0  0  0  0  0
   27.4849  -21.9340  -16.5156 N   0  0  0  0  0  0  0  0  0  0  0  0
   26.7031  -21.1103  -15.5978 C   0  0  1  0  0  0  0  0  0  0  0  0
   25.3687  -20.9001  -16.2638 C   0  0  0  0  0  0  0  0  0  0  0  0
   24.4010  -20.0688  -15.5258 C   0  0  0  0  0  0  0  0  0  0  0  0
   24.5907  -18.7097  -15.3307 C   0  0  0  0  0  0  0  0  0  0  0  0
   23.5732  -18.2756  -14.5997 N   0  0  0  0  0  0  0  0  0  0  0  0
   22.7216  -19.2540  -14.2979 C   0  0  0  0  0  0  0  0  0  0  0  0
   21.5232  -19.2989  -13.5863 C   0  0  0  0  0  0  0  0  0  0  0  0
   20.8615  -20.5024  -13.4765 C   0  0  0  0  0  0  0  0  0  0  0  0
   21.3710  -21.6284  -14.0543 C   0  0  0  0  0  0  0  0  0  0  0  0
   22.5524  -21.6010  -14.7591 C   0  0  0  0  0  0  0  0  0  0  0  0
   23.2253  -20.3895  -14.8725 C   0  0  0  0  0  0  0  0  0  0  0  0
   26.5328  -21.6855  -14.2671 C   0  0  0  0  0  0  0  0  0  0  0  0
   26.3447  -22.9265  -14.2179 O   0  0  0  0  0  0  0  0  0  0  0  0
   26.5609  -20.9870  -13.0603 N   0  0  0  0  0  0  0  0  0  0  0  0
   26.1822  -21.4109  -11.7782 C   0  0  1  0  0  0  0  0  0  0  0  0
   27.2281  -21.6120  -10.7206 C   0  0  0  0  0  0  0  0  0  0  0  0
   27.1039  -20.7488   -9.5338 C   0  0  0  0  0  0  0  0  0  0  0  0
   26.1130  -19.8757   -9.1886 C   0  0  0  0  0  0  0  0  0  0  0  0
   26.3967  -19.3060   -7.9829 N   0  0  0  0  0  0  0  0  0  0  0  0
   27.5497  -19.7832   -7.5255 C   0  0  0  0  0  0  0  0  0  0  0  0
   28.2758  -19.5568   -6.3909 C   0  0  0  0  0  0  0  0  0  0  0  0
   29.4800  -20.2066   -6.1454 C   0  0  0  0  0  0  0  0  0  0  0  0
   29.9423  -21.1082   -7.0912 C   0  0  0  0  0  0  0  0  0  0  0  0
   29.2036  -21.3430   -8.2534 C   0  0  0  0  0  0  0  0  0  0  0  0
   28.0150  -20.6802   -8.4626 C   0  0  0  0  0  0  0  0  0  0  0  0
   25.0022  -20.7539  -11.1824 C   0  0  0  0  0  0  0  0  0  0  0  0
   24.7376  -19.5512  -11.3244 O   0  0  0  0  0  0  0  0  0  0  0  0
   24.1504  -21.5687  -10.4156 O   0  0  0  0  0  0  0  0  0  0  0  0
  2  1  1  6
  2  3  1  0
  3  4  1  0
  5  2  1  0
  5  6  2  0
  7  5  1  0
  8  7  1  0
  9 10  1  0
  8  9  1  6
 10 11  2  0
 11 12  1  0
 13 12  1  0
 14 13  2  0
 15 14  1  0
 16 17  1  0
 16 15  2  0
 17 18  2  0
 18 10  1  0
 18 13  1  0
 19 21  1  0
 19  8  1  0
 20 19  2  0
 22 21  1  0
 22 33  1  0
 22 23  1  1
 24 23  1  0
 25 24  2  0
 26 25  1  0
 27 26  1  0
 27 32  2  0
 28 29  2  0
 28 27  1  0
 29 30  1  0
 30 31  2  0
 32 31  1  0
 32 24  1  0
 33 34  2  0
 33 35  1  0
M  END
$$$$
