CWW.pdb
     RDKit          3D

 35 38  0  0  1  0  0  0  0  0999 V2000
   11.4448  -18.6551    2.6728 N   0  0  0  0  0  0  0  0  0  0  0  0
   12.4165  -17.5865    2.8164 C   0  0  1  0  0  0  0  0  0  0  0  0
   11.7405  -16.3887    3.4570 C   0  0  0  0  0  0  0  0  0  0  0  0
   10.8816  -15.4895    2.1130 S   0  0  0  0  0  0  0  0  0  0  0  0
   13.5619  -18.0752    3.5846 C   0  0  0  0  0  0  0  0  0  0  0  0
   13.3915  -18.6609    4.7114 O   0  0  0  0  0  0  0  0  0  0  0  0
   14.9174  -17.9575    3.1819 N   0  0  0  0  0  0  0  0  0  0  0  0
   16.0411  -18.4766    3.9563 C   0  0  1  0  0  0  0  0  0  0  0  0
   16.8952  -19.2457    2.9828 C   0  0  0  0  0  0  0  0  0  0  0  0
   16.4054  -20.5849    2.6101 C   0  0  0  0  0  0  0  0  0  0  0  0
   15.6722  -20.8095    1.4556 C   0  0  0  0  0  0  0  0  0  0  0  0
   15.3529  -22.0964    1.4413 N   0  0  0  0  0  0  0  0  0  0  0  0
   15.8256  -22.7402    2.5070 C   0  0  0  0  0  0  0  0  0  0  0  0
   15.7735  -24.0686    2.9280 C   0  0  0  0  0  0  0  0  0  0  0  0
   16.4035  -24.4174    4.1026 C   0  0  0  0  0  0  0  0  0  0  0  0
   17.0658  -23.4789    4.8388 C   0  0  0  0  0  0  0  0  0  0  0  0
   17.1259  -22.1642    4.4376 C   0  0  0  0  0  0  0  0  0  0  0  0
   16.4911  -21.8058    3.2535 C   0  0  0  0  0  0  0  0  0  0  0  0
   16.8273  -17.4535    4.6388 C   0  0  0  0  0  0  0  0  0  0  0  0
   16.9311  -16.3482    4.0511 O   0  0  0  0  0  0  0  0  0  0  0  0
   17.4649  -17.5933    5.8713 N   0  0  0  0  0  0  0  0  0  0  0  0
   18.0239  -16.6098    6.7002 C   0  0  1  0  0  0  0  0  0  0  0  0
   17.2643  -15.3440    6.9714 C   0  0  0  0  0  0  0  0  0  0  0  0
   17.7153  -14.1604    6.2201 C   0  0  0  0  0  0  0  0  0  0  0  0
   17.1132  -13.4985    5.1893 C   0  0  0  0  0  0  0  0  0  0  0  0
   17.8767  -12.4333    4.8136 N   0  0  0  0  0  0  0  0  0  0  0  0
   18.9664  -12.3773    5.5723 C   0  0  0  0  0  0  0  0  0  0  0  0
   20.0352  -11.5279    5.6197 C   0  0  0  0  0  0  0  0  0  0  0  0
   21.0668  -11.6928    6.5369 C   0  0  0  0  0  0  0  0  0  0  0  0
   20.9918  -12.7565    7.4224 C   0  0  0  0  0  0  0  0  0  0  0  0
   19.9011  -13.6281    7.3779 C   0  0  0  0  0  0  0  0  0  0  0  0
   18.8980  -13.4334    6.4549 C   0  0  0  0  0  0  0  0  0  0  0  0
   18.6619  -17.0756    7.9471 C   0  0  0  0  0  0  0  0  0  0  0  0
   19.6490  -16.5304    8.4620 O   0  0  0  0  0  0  0  0  0  0  0  0
   18.0917  -18.2055    8.5599 O   0  0  0  0  0  0  0  0  0  0  0  0
  2  1  1  1
  2  3  1  0
  3  4  1  0
  5  2  1  0
  5  6  2  0
  7  5  1  0
  8  7  1  0
  9 10  1  0
  8  9  1  6
 10 11  2  0
 11 12  1  0
 13 12  1  0
 14 13  2  0
 15 14  1  0
 16 17  1  0
 16 15  2  0
 17 18  2  0
 18 10  1  0
 18 13  1  0
 19 21  1  0
 19  8  1  0
 20 19  2  0
 22 21  1  0
 22 33  1  0
 22 23  1  1
 24 23  1  0
 25 24  2  0
 26 25  1  0
 27 26  1  0
 27 32  2  0
 28 29  2  0
 28 27  1  0
 29 30  1  0
 30 31  2  0
 32 31  1  0
 32 24  1  0
 33 34  2  0
 33 35  1  0
M  END
$$$$
