CWW.pdb
     RDKit          3D

 35 38  0  0  1  0  0  0  0  0999 V2000
   28.4074  -21.4246  -14.5032 N   0  0  0  0  0  0  0  0  0  0  0  0
   27.9345  -20.3595  -13.6379 C   0  0  1  0  0  0  0  0  0  0  0  0
   27.3041  -19.2748  -14.4910 C   0  0  0  0  0  0  0  0  0  0  0  0
   26.2955  -20.1252  -15.7608 S   0  0  0  0  0  0  0  0  0  0  0  0
   27.0127  -20.9157  -12.6469 C   0  0  0  0  0  0  0  0  0  0  0  0
   26.5735  -22.1138  -12.7626 O   0  0  0  0  0  0  0  0  0  0  0  0
   26.5310  -20.2199  -11.5079 N   0  0  0  0  0  0  0  0  0  0  0  0
   25.5574  -20.7741  -10.5714 C   0  0  1  0  0  0  0  0  0  0  0  0
   25.8167  -20.0934   -9.2530 C   0  0  0  0  0  0  0  0  0  0  0  0
   27.1105  -20.3929   -8.6137 C   0  0  0  0  0  0  0  0  0  0  0  0
   28.0334  -21.2574   -9.1810 C   0  0  0  0  0  0  0  0  0  0  0  0
   29.0563  -21.3407   -8.3414 N   0  0  0  0  0  0  0  0  0  0  0  0
   28.8746  -20.5895   -7.2568 C   0  0  0  0  0  0  0  0  0  0  0  0
   29.6481  -20.3335   -6.1250 C   0  0  0  0  0  0  0  0  0  0  0  0
   29.1630  -19.4639   -5.1728 C   0  0  0  0  0  0  0  0  0  0  0  0
   27.9480  -18.8651   -5.3361 C   0  0  0  0  0  0  0  0  0  0  0  0
   27.1725  -19.1076   -6.4464 C   0  0  0  0  0  0  0  0  0  0  0  0
   27.6562  -19.9851   -7.4105 C   0  0  0  0  0  0  0  0  0  0  0  0
   24.1656  -20.6039  -10.9770 C   0  0  0  0  0  0  0  0  0  0  0  0
   23.4390  -19.9327  -10.2028 O   0  0  0  0  0  0  0  0  0  0  0  0
   23.5790  -21.1140  -12.1349 N   0  0  0  0  0  0  0  0  0  0  0  0
   22.2541  -21.0073  -12.5821 C   0  0  1  0  0  0  0  0  0  0  0  0
   21.9763  -20.7446  -14.0336 C   0  0  0  0  0  0  0  0  0  0  0  0
   22.5610  -19.5071  -14.5772 C   0  0  0  0  0  0  0  0  0  0  0  0
   23.8692  -19.1316  -14.6816 C   0  0  0  0  0  0  0  0  0  0  0  0
   23.9541  -17.9085  -15.2779 N   0  0  0  0  0  0  0  0  0  0  0  0
   22.7339  -17.4699  -15.5693 C   0  0  0  0  0  0  0  0  0  0  0  0
   22.2610  -16.3336  -16.1618 C   0  0  0  0  0  0  0  0  0  0  0  0
   20.9019  -16.1162  -16.3577 C   0  0  0  0  0  0  0  0  0  0  0  0
   20.0146  -17.0926  -15.9329 C   0  0  0  0  0  0  0  0  0  0  0  0
   20.4931  -18.2563  -15.3261 C   0  0  0  0  0  0  0  0  0  0  0  0
   21.8466  -18.4367  -15.1484 C   0  0  0  0  0  0  0  0  0  0  0  0
   21.2980  -22.0104  -12.0735 C   0  0  0  0  0  0  0  0  0  0  0  0
   20.0673  -21.9050  -12.1778 O   0  0  0  0  0  0  0  0  0  0  0  0
   21.8493  -23.1381  -11.4395 O   0  0  0  0  0  0  0  0  0  0  0  0
  2  1  1  6
  2  3  1  0
  3  4  1  0
  5  2  1  0
  5  6  2  0
  7  5  1  0
  8  7  1  0
  9 10  1  0
  8  9  1  1
 10 11  2  0
 11 12  1  0
 13 12  1  0
 14 13  2  0
 15 14  1  0
 16 17  1  0
 16 15  2  0
 17 18  2  0
 18 10  1  0
 18 13  1  0
 19 21  1  0
 19  8  1  0
 20 19  2  0
 22 21  1  0
 22 33  1  0
 22 23  1  6
 24 23  1  0
 25 24  2  0
 26 25  1  0
 27 26  1  0
 27 32  2  0
 28 29  2  0
 28 27  1  0
 29 30  1  0
 30 31  2  0
 32 31  1  0
 32 24  1  0
 33 34  2  0
 33 35  1  0
M  END
$$$$
