CWW.pdb
     RDKit          3D

 35 38  0  0  1  0  0  0  0  0999 V2000
   29.2956  -20.7961  -13.9543 N   0  0  0  0  0  0  0  0  0  0  0  0
   28.2832  -19.8608  -13.4995 C   0  0  1  0  0  0  0  0  0  0  0  0
   27.6501  -19.1943  -14.7065 C   0  0  0  0  0  0  0  0  0  0  0  0
   28.6150  -17.6726  -15.0323 S   0  0  0  0  0  0  0  0  0  0  0  0
   27.3134  -20.5680  -12.6626 C   0  0  0  0  0  0  0  0  0  0  0  0
   26.7358  -21.6303  -13.0865 O   0  0  0  0  0  0  0  0  0  0  0  0
   26.9287  -20.1708  -11.3558 N   0  0  0  0  0  0  0  0  0  0  0  0
   25.8485  -20.8010  -10.6020 C   0  0  1  0  0  0  0  0  0  0  0  0
   25.9763  -20.2916   -9.1904 C   0  0  0  0  0  0  0  0  0  0  0  0
   27.2856  -20.4954   -8.5450 C   0  0  0  0  0  0  0  0  0  0  0  0
   28.2980  -21.2302   -9.1417 C   0  0  0  0  0  0  0  0  0  0  0  0
   29.3134  -21.2576   -8.2895 N   0  0  0  0  0  0  0  0  0  0  0  0
   29.0434  -20.5903   -7.1691 C   0  0  0  0  0  0  0  0  0  0  0  0
   29.7728  -20.3219   -6.0112 C   0  0  0  0  0  0  0  0  0  0  0  0
   29.1906  -19.5598   -5.0221 C   0  0  0  0  0  0  0  0  0  0  0  0
   27.9236  -19.0773   -5.1745 C   0  0  0  0  0  0  0  0  0  0  0  0
   27.1904  -19.3337   -6.3102 C   0  0  0  0  0  0  0  0  0  0  0  0
   27.7722  -20.1031   -7.3117 C   0  0  0  0  0  0  0  0  0  0  0  0
   24.5127  -20.5382  -11.1284 C   0  0  0  0  0  0  0  0  0  0  0  0
   24.2207  -19.3328  -11.3274 O   0  0  0  0  0  0  0  0  0  0  0  0
   23.5441  -21.4963  -11.4268 N   0  0  0  0  0  0  0  0  0  0  0  0
   22.2503  -21.3233  -11.9398 C   0  0  1  0  0  0  0  0  0  0  0  0
   21.9633  -21.6724  -13.3711 C   0  0  0  0  0  0  0  0  0  0  0  0
   22.7683  -20.9532  -14.3728 C   0  0  0  0  0  0  0  0  0  0  0  0
   23.8766  -21.3597  -15.0583 C   0  0  0  0  0  0  0  0  0  0  0  0
   24.2808  -20.3758  -15.9111 N   0  0  0  0  0  0  0  0  0  0  0  0
   23.4654  -19.3318  -15.8045 C   0  0  0  0  0  0  0  0  0  0  0  0
   23.4153  -18.1127  -16.4187 C   0  0  0  0  0  0  0  0  0  0  0  0
   22.4299  -17.1783  -16.1213 C   0  0  0  0  0  0  0  0  0  0  0  0
   21.4777  -17.5108  -15.1705 C   0  0  0  0  0  0  0  0  0  0  0  0
   21.5247  -18.7561  -14.5393 C   0  0  0  0  0  0  0  0  0  0  0  0
   22.5163  -19.6562  -14.8595 C   0  0  0  0  0  0  0  0  0  0  0  0
   21.1321  -21.7784  -11.0904 C   0  0  0  0  0  0  0  0  0  0  0  0
   21.2812  -22.4104  -10.0344 O   0  0  0  0  0  0  0  0  0  0  0  0
   19.8364  -21.4596  -11.5343 O   0  0  0  0  0  0  0  0  0  0  0  0
  2  1  1  6
  2  3  1  0
  3  4  1  0
  5  2  1  0
  5  6  2  0
  7  5  1  0
  8  7  1  0
  9 10  1  0
  8  9  1  1
 10 11  2  0
 11 12  1  0
 13 12  1  0
 14 13  2  0
 15 14  1  0
 16 17  1  0
 16 15  2  0
 17 18  2  0
 18 10  1  0
 18 13  1  0
 19 21  1  0
 19  8  1  0
 20 19  2  0
 22 21  1  0
 22 33  1  0
 22 23  1  6
 24 23  1  0
 25 24  2  0
 26 25  1  0
 27 26  1  0
 27 32  2  0
 28 29  2  0
 28 27  1  0
 29 30  1  0
 30 31  2  0
 32 31  1  0
 32 24  1  0
 33 34  2  0
 33 35  1  0
M  END
$$$$
