CWW.pdb
     RDKit          3D

 35 38  0  0  1  0  0  0  0  0999 V2000
   28.8967  -21.4013  -15.3156 N   0  0  0  0  0  0  0  0  0  0  0  0
   28.5879  -20.3338  -14.3820 C   0  0  1  0  0  0  0  0  0  0  0  0
   27.7514  -19.2855  -15.0913 C   0  0  0  0  0  0  0  0  0  0  0  0
   28.9236  -18.1701  -15.9483 S   0  0  0  0  0  0  0  0  0  0  0  0
   27.9225  -20.8973  -13.2069 C   0  0  0  0  0  0  0  0  0  0  0  0
   26.8796  -21.6307  -13.3351 O   0  0  0  0  0  0  0  0  0  0  0  0
   28.3419  -20.7002  -11.8658 N   0  0  0  0  0  0  0  0  0  0  0  0
   27.4987  -20.9707  -10.7048 C   0  0  1  0  0  0  0  0  0  0  0  0
   28.2498  -20.4363   -9.5136 C   0  0  0  0  0  0  0  0  0  0  0  0
   27.5276  -20.4608   -8.2291 C   0  0  0  0  0  0  0  0  0  0  0  0
   26.2008  -20.8500   -8.1337 C   0  0  0  0  0  0  0  0  0  0  0  0
   25.8463  -20.7168   -6.8630 N   0  0  0  0  0  0  0  0  0  0  0  0
   26.8480  -20.2669   -6.1095 C   0  0  0  0  0  0  0  0  0  0  0  0
   26.9765  -19.9873   -4.7494 C   0  0  0  0  0  0  0  0  0  0  0  0
   28.1920  -19.5449   -4.2749 C   0  0  0  0  0  0  0  0  0  0  0  0
   29.2494  -19.3840   -5.1219 C   0  0  0  0  0  0  0  0  0  0  0  0
   29.1389  -19.6547   -6.4664 C   0  0  0  0  0  0  0  0  0  0  0  0
   27.9144  -20.1006   -6.9514 C   0  0  0  0  0  0  0  0  0  0  0  0
   26.1634  -20.3859  -10.7798 C   0  0  0  0  0  0  0  0  0  0  0  0
   26.1082  -19.1329  -10.8473 O   0  0  0  0  0  0  0  0  0  0  0  0
   24.9581  -21.0877  -10.7837 N   0  0  0  0  0  0  0  0  0  0  0  0
   23.6835  -20.6641  -11.1871 C   0  0  1  0  0  0  0  0  0  0  0  0
   23.2751  -20.7951  -12.6254 C   0  0  0  0  0  0  0  0  0  0  0  0
   22.0095  -20.1352  -12.9879 C   0  0  0  0  0  0  0  0  0  0  0  0
   21.5976  -18.8531  -12.7643 C   0  0  0  0  0  0  0  0  0  0  0  0
   20.3579  -18.6646  -13.2996 N   0  0  0  0  0  0  0  0  0  0  0  0
   19.9439  -19.7909  -13.8708 C   0  0  0  0  0  0  0  0  0  0  0  0
   18.8056  -20.1415  -14.5396 C   0  0  0  0  0  0  0  0  0  0  0  0
   18.6187  -21.4187  -15.0560 C   0  0  0  0  0  0  0  0  0  0  0  0
   19.6283  -22.3514  -14.8775 C   0  0  0  0  0  0  0  0  0  0  0  0
   20.7942  -21.9980  -14.1940 C   0  0  0  0  0  0  0  0  0  0  0  0
   20.9439  -20.7230  -13.6960 C   0  0  0  0  0  0  0  0  0  0  0  0
   22.5514  -21.0438  -10.3193 C   0  0  0  0  0  0  0  0  0  0  0  0
   22.6028  -21.9514   -9.4764 O   0  0  0  0  0  0  0  0  0  0  0  0
   21.3610  -20.3135  -10.4848 O   0  0  0  0  0  0  0  0  0  0  0  0
  2  1  1  6
  2  3  1  0
  3  4  1  0
  5  2  1  0
  5  6  2  0
  7  5  1  0
  8  7  1  0
  9 10  1  0
  8  9  1  1
 10 11  2  0
 11 12  1  0
 13 12  1  0
 14 13  2  0
 15 14  1  0
 16 17  1  0
 16 15  2  0
 17 18  2  0
 18 10  1  0
 18 13  1  0
 19 21  1  0
 19  8  1  0
 20 19  2  0
 22 21  1  0
 22 33  1  0
 22 23  1  6
 24 23  1  0
 25 24  2  0
 26 25  1  0
 27 26  1  0
 27 32  2  0
 28 29  2  0
 28 27  1  0
 29 30  1  0
 30 31  2  0
 32 31  1  0
 32 24  1  0
 33 34  2  0
 33 35  1  0
M  END
$$$$
