CWW.pdb
     RDKit          3D

 35 38  0  0  1  0  0  0  0  0999 V2000
   30.4650  -21.6529  -18.5766 N   0  0  0  0  0  0  0  0  0  0  0  0
   29.1554  -22.2371  -18.3524 C   0  0  1  0  0  0  0  0  0  0  0  0
   29.3166  -23.7231  -18.0923 C   0  0  0  0  0  0  0  0  0  0  0  0
   30.0242  -23.8882  -16.4116 S   0  0  0  0  0  0  0  0  0  0  0  0
   28.4941  -21.5326  -17.2535 C   0  0  0  0  0  0  0  0  0  0  0  0
   29.1623  -20.7716  -16.4686 O   0  0  0  0  0  0  0  0  0  0  0  0
   27.1092  -21.6144  -16.9554 N   0  0  0  0  0  0  0  0  0  0  0  0
   26.4518  -20.8090  -15.9302 C   0  0  1  0  0  0  0  0  0  0  0  0
   25.1419  -20.3664  -16.5277 C   0  0  0  0  0  0  0  0  0  0  0  0
   24.3148  -19.4803  -15.6891 C   0  0  0  0  0  0  0  0  0  0  0  0
   24.7099  -18.1935  -15.3591 C   0  0  0  0  0  0  0  0  0  0  0  0
   23.7732  -17.6896  -14.5674 N   0  0  0  0  0  0  0  0  0  0  0  0
   22.7837  -18.5543  -14.3512 C   0  0  0  0  0  0  0  0  0  0  0  0
   21.5951  -18.4920  -13.6246 C   0  0  0  0  0  0  0  0  0  0  0  0
   20.7583  -19.5866  -13.6263 C   0  0  0  0  0  0  0  0  0  0  0  0
   21.0884  -20.7099  -14.3268 C   0  0  0  0  0  0  0  0  0  0  0  0
   22.2575  -20.7876  -15.0480 C   0  0  0  0  0  0  0  0  0  0  0  0
   23.1065  -19.6865  -15.0494 C   0  0  0  0  0  0  0  0  0  0  0  0
   26.2353  -21.5032  -14.6646 C   0  0  0  0  0  0  0  0  0  0  0  0
   25.9950  -22.7339  -14.7396 O   0  0  0  0  0  0  0  0  0  0  0  0
   26.2721  -20.9275  -13.3948 N   0  0  0  0  0  0  0  0  0  0  0  0
   26.0711  -21.5240  -12.1415 C   0  0  1  0  0  0  0  0  0  0  0  0
   27.1767  -21.5157  -11.1264 C   0  0  0  0  0  0  0  0  0  0  0  0
   26.9510  -20.6588   -9.9501 C   0  0  0  0  0  0  0  0  0  0  0  0
   25.8553  -19.9222   -9.6033 C   0  0  0  0  0  0  0  0  0  0  0  0
   26.0736  -19.3007   -8.4096 N   0  0  0  0  0  0  0  0  0  0  0  0
   27.2859  -19.6106   -7.9618 C   0  0  0  0  0  0  0  0  0  0  0  0
   27.9882  -19.2705   -6.8406 C   0  0  0  0  0  0  0  0  0  0  0  0
   29.2721  -19.7479   -6.6028 C   0  0  0  0  0  0  0  0  0  0  0  0
   29.8408  -20.5934   -7.5424 C   0  0  0  0  0  0  0  0  0  0  0  0
   29.1269  -20.9439   -8.6908 C   0  0  0  0  0  0  0  0  0  0  0  0
   27.8571  -20.4511   -8.8926 C   0  0  0  0  0  0  0  0  0  0  0  0
   24.7868  -21.2435  -11.4702 C   0  0  0  0  0  0  0  0  0  0  0  0
   24.1269  -20.2094  -11.6486 O   0  0  0  0  0  0  0  0  0  0  0  0
   24.3139  -22.2273  -10.5836 O   0  0  0  0  0  0  0  0  0  0  0  0
  2  1  1  1
  2  3  1  0
  3  4  1  0
  5  2  1  0
  5  6  2  0
  7  5  1  0
  8  7  1  0
  9 10  1  0
  8  9  1  6
 10 11  2  0
 11 12  1  0
 13 12  1  0
 14 13  2  0
 15 14  1  0
 16 17  1  0
 16 15  2  0
 17 18  2  0
 18 10  1  0
 18 13  1  0
 19 21  1  0
 19  8  1  0
 20 19  2  0
 22 21  1  0
 22 33  1  0
 22 23  1  1
 24 23  1  0
 25 24  2  0
 26 25  1  0
 27 26  1  0
 27 32  2  0
 28 29  2  0
 28 27  1  0
 29 30  1  0
 30 31  2  0
 32 31  1  0
 32 24  1  0
 33 34  2  0
 33 35  1  0
M  END
$$$$
