ILE.pdb
     RDKit          3D

 26 25  0  0  1  0  0  0  0  0999 V2000
   20.0891  -22.6979  -15.3334 C   0  0  0  0  0  0  0  0  0  0  0  0
   20.3287  -22.4125  -13.8899 C   0  0  0  0  0  0  0  0  0  0  0  0
   21.6078  -21.7013  -13.5757 C   0  0  2  0  0  0  0  0  0  0  0  0
   22.8349  -22.4714  -14.0369 C   0  0  0  0  0  0  0  0  0  0  0  0
   21.8046  -21.5110  -12.0791 C   0  0  2  0  0  0  0  0  0  0  0  0
   20.6644  -20.7170  -11.6278 N   0  0  0  0  0  0  0  0  0  0  0  0
   23.0559  -20.7888  -11.7782 C   0  0  0  0  0  0  0  0  0  0  0  0
   23.1247  -19.5784  -12.1375 O   0  0  0  0  0  0  0  0  0  0  0  0
   26.6553  -19.0184   -8.4567 C   0  0  0  0  0  0  0  0  0  0  0  0
   27.0090  -20.4956   -8.8236 C   0  0  1  0  0  0  0  0  0  0  0  0
   27.3854  -21.1087   -7.5089 C   0  0  0  0  0  0  0  0  0  0  0  0
   25.8117  -21.0161   -9.4908 C   0  0  0  0  0  0  0  0  0  0  0  0
   25.4142  -20.6034  -10.8458 C   0  0  2  0  0  0  0  0  0  0  0  0
   24.1560  -21.3837  -11.1183 N   0  0  0  0  0  0  0  0  0  0  0  0
   26.3011  -20.7264  -11.9704 C   0  0  0  0  0  0  0  0  0  0  0  0
   26.8489  -21.8727  -12.1701 O   0  0  0  0  0  0  0  0  0  0  0  0
   26.6532  -19.7336  -12.9184 N   0  0  0  0  0  0  0  0  0  0  0  0
   27.5973  -20.0427  -14.0040 C   0  0  1  0  0  0  0  0  0  0  0  0
   27.0797  -21.2488  -14.7786 C   0  0  0  0  0  0  0  0  0  0  0  0
   25.8399  -20.9587  -15.5699 C   0  0  0  0  0  0  0  0  0  0  0  0
   25.4293  -22.2070  -16.2567 C   0  0  0  0  0  0  0  0  0  0  0  0
   26.0790  -23.2586  -16.1252 O   0  0  0  0  0  0  0  0  0  0  0  0
   27.8211  -18.8595  -14.8311 C   0  0  0  0  0  0  0  0  0  0  0  0
   27.1413  -17.6606  -14.6819 O   0  0  0  0  0  0  0  0  0  0  0  0
   24.3015  -22.1865  -17.0535 O   0  0  0  0  0  0  0  0  0  0  0  0
   28.6803  -18.9010  -15.7479 O   0  0  0  0  0  0  0  0  0  0  0  0
  2  3  1  0
  2  1  1  0
  3  4  1  1
  5  6  1  6
  5  3  1  0
  7  5  1  0
  8  7  2  0
 10 12  1  0
 10  9  1  1
 11 10  1  0
 13 12  1  1
 13 15  1  0
 13 14  1  0
 14  7  1  0
 15 16  2  0
 17 18  1  0
 17 15  1  0
 19 20  1  0
 18 19  1  6
 20 21  1  0
 21 25  1  0
 21 22  2  0
 23 24  1  0
 23 18  1  0
 26 23  2  0
M  END
$$$$
