ILE.pdb
     RDKit          3D

 26 25  0  0  1  0  0  0  0  0999 V2000
   37.8895   -5.0685  -15.0391 C   0  0  0  0  0  0  0  0  0  0  0  0
   37.5200   -6.4274  -14.5498 C   0  0  0  0  0  0  0  0  0  0  0  0
   37.6753   -6.6482  -13.0775 C   0  0  2  0  0  0  0  0  0  0  0  0
   39.0858   -6.3612  -12.5876 C   0  0  0  0  0  0  0  0  0  0  0  0
   37.4108   -8.0938  -12.6841 C   0  0  2  0  0  0  0  0  0  0  0  0
   36.0326   -8.3671  -13.0844 N   0  0  0  0  0  0  0  0  0  0  0  0
   37.5499   -8.3003  -11.2295 C   0  0  0  0  0  0  0  0  0  0  0  0
   36.9363   -7.4960  -10.4709 O   0  0  0  0  0  0  0  0  0  0  0  0
   37.5490  -13.1039   -8.5296 C   0  0  0  0  0  0  0  0  0  0  0  0
   37.1757  -11.5873   -8.5832 C   0  0  1  0  0  0  0  0  0  0  0  0
   36.5763  -11.3204   -7.2358 C   0  0  0  0  0  0  0  0  0  0  0  0
   38.4295  -10.9012   -8.9101 C   0  0  0  0  0  0  0  0  0  0  0  0
   38.4992   -9.4553   -9.1728 C   0  0  2  0  0  0  0  0  0  0  0  0
   38.3244   -9.3392  -10.6634 N   0  0  0  0  0  0  0  0  0  0  0  0
   39.6251   -8.6605   -8.7642 C   0  0  0  0  0  0  0  0  0  0  0  0
   40.6841   -8.7153   -9.4917 O   0  0  0  0  0  0  0  0  0  0  0  0
   39.7240   -7.7946   -7.6466 N   0  0  0  0  0  0  0  0  0  0  0  0
   40.8635   -6.8725   -7.5182 C   0  0  1  0  0  0  0  0  0  0  0  0
   40.8342   -5.8881   -8.6813 C   0  0  0  0  0  0  0  0  0  0  0  0
   40.3759   -4.5164   -8.2866 C   0  0  0  0  0  0  0  0  0  0  0  0
   40.5413   -3.6211   -9.4569 C   0  0  0  0  0  0  0  0  0  0  0  0
   41.5167   -3.7309  -10.2197 O   0  0  0  0  0  0  0  0  0  0  0  0
   40.8525   -6.2359   -6.2034 C   0  0  0  0  0  0  0  0  0  0  0  0
   41.9570   -5.6419   -5.6125 O   0  0  0  0  0  0  0  0  0  0  0  0
   39.5857   -2.6522   -9.6922 O   0  0  0  0  0  0  0  0  0  0  0  0
   39.7855   -6.2101   -5.5391 O   0  0  0  0  0  0  0  0  0  0  0  0
  2  3  1  0
  2  1  1  0
  3  4  1  6
  5  6  1  1
  5  3  1  0
  7  5  1  0
  8  7  2  0
 10 12  1  0
 10  9  1  1
 11 10  1  0
 13 12  1  6
 13 15  1  0
 13 14  1  0
 14  7  1  0
 15 16  2  0
 17 18  1  0
 17 15  1  0
 19 20  1  0
 18 19  1  6
 20 21  1  0
 21 25  1  0
 21 22  2  0
 23 24  1  0
 23 18  1  0
 26 23  2  0
M  END
$$$$
