YII.pdb
     RDKit          3D

 29 29  0  0  1  0  0  0  0  0999 V2000
   15.5355   -8.5491  -21.8867 O   0  0  0  0  0  0  0  0  0  0  0  0
   15.7489   -8.6602  -20.5002 C   0  0  0  0  0  0  0  0  0  0  0  0
   15.0163   -9.5693  -19.7738 C   0  0  0  0  0  0  0  0  0  0  0  0
   15.2186   -9.6840  -18.4194 C   0  0  0  0  0  0  0  0  0  0  0  0
   16.1345   -8.9175  -17.7540 C   0  0  0  0  0  0  0  0  0  0  0  0
   16.3660   -9.0304  -16.2820 C   0  0  0  0  0  0  0  0  0  0  0  0
   17.7560   -9.5797  -16.0984 C   0  0  2  0  0  0  0  0  0  0  0  0
   17.7394  -10.9673  -16.4936 N   0  0  0  0  0  0  0  0  0  0  0  0
   18.2523   -9.4034  -14.7077 C   0  0  0  0  0  0  0  0  0  0  0  0
   17.7845  -10.1426  -13.8052 O   0  0  0  0  0  0  0  0  0  0  0  0
   16.8520   -8.0178  -18.5050 C   0  0  0  0  0  0  0  0  0  0  0  0
   16.6742   -7.8789  -19.8572 C   0  0  0  0  0  0  0  0  0  0  0  0
   23.0828   -9.5889  -13.2697 C   0  0  0  0  0  0  0  0  0  0  0  0
   21.5943   -9.4840  -13.2750 C   0  0  0  0  0  0  0  0  0  0  0  0
   21.1003   -8.0593  -12.9605 C   0  0  2  0  0  0  0  0  0  0  0  0
   21.7544   -7.6909  -11.6768 C   0  0  0  0  0  0  0  0  0  0  0  0
   19.6218   -8.1385  -12.9784 C   0  0  2  0  0  0  0  0  0  0  0  0
   19.2317   -8.4347  -14.3618 N   0  0  0  0  0  0  0  0  0  0  0  0
   18.8775   -6.9881  -12.4519 C   0  0  0  0  0  0  0  0  0  0  0  0
   19.0495   -5.8603  -13.0400 O   0  0  0  0  0  0  0  0  0  0  0  0
   13.9208   -4.1117  -11.4294 C   0  0  0  0  0  0  0  0  0  0  0  0
   15.2945   -4.3491  -10.8674 C   0  0  0  0  0  0  0  0  0  0  0  0
   15.9400   -5.5883  -11.4307 C   0  0  2  0  0  0  0  0  0  0  0  0
   15.1320   -6.7744  -10.9265 C   0  0  0  0  0  0  0  0  0  0  0  0
   17.3401   -5.7444  -10.9129 C   0  0  2  0  0  0  0  0  0  0  0  0
   17.9846   -6.9600  -11.3700 N   0  0  0  0  0  0  0  0  0  0  0  0
   17.4030   -5.6235   -9.4544 C   0  0  0  0  0  0  0  0  0  0  0  0
   17.2188   -4.4777   -8.7372 O   0  0  0  0  0  0  0  0  0  0  0  0
   17.6516   -6.6755   -8.7812 O   0  0  0  0  0  0  0  0  0  0  0  0
  2  1  1  0
  3  2  2  0
  4  3  1  0
  5 11  1  0
  5  4  2  0
  6  7  1  0
  6  5  1  0
  7  9  1  0
  7  8  1  1
  9 18  1  0
 10  9  2  0
 11 12  2  0
 12  2  1  0
 13 14  1  0
 15 14  1  0
 15 16  1  1
 17 18  1  6
 17 19  1  0
 17 15  1  0
 19 20  2  0
 22 23  1  0
 22 21  1  0
 23 25  1  0
 23 24  1  1
 25 27  1  0
 26 19  1  0
 25 26  1  1
 27 29  2  0
 27 28  1  0
M  END
$$$$
