YII.pdb
     RDKit          3D

 29 29  0  0  1  0  0  0  0  0999 V2000
   17.6905  -16.1104  -18.0481 O   0  0  0  0  0  0  0  0  0  0  0  0
   18.2837  -16.9623  -17.0981 C   0  0  0  0  0  0  0  0  0  0  0  0
   17.4833  -17.7108  -16.2676 C   0  0  0  0  0  0  0  0  0  0  0  0
   18.0548  -18.5453  -15.3372 C   0  0  0  0  0  0  0  0  0  0  0  0
   19.4102  -18.6629  -15.2019 C   0  0  0  0  0  0  0  0  0  0  0  0
   20.0467  -19.5656  -14.1953 C   0  0  0  0  0  0  0  0  0  0  0  0
   20.9225  -20.5237  -14.9585 C   0  0  2  0  0  0  0  0  0  0  0  0
   20.0629  -21.4336  -15.6761 N   0  0  0  0  0  0  0  0  0  0  0  0
   21.8770  -21.2420  -14.0729 C   0  0  0  0  0  0  0  0  0  0  0  0
   21.4166  -22.0215  -13.2010 O   0  0  0  0  0  0  0  0  0  0  0  0
   20.1852  -17.9033  -16.0449 C   0  0  0  0  0  0  0  0  0  0  0  0
   19.6465  -17.0616  -16.9833 C   0  0  0  0  0  0  0  0  0  0  0  0
   26.6227  -22.7065  -16.1619 C   0  0  0  0  0  0  0  0  0  0  0  0
   25.8510  -21.9097  -15.1637 C   0  0  0  0  0  0  0  0  0  0  0  0
   24.9223  -22.7836  -14.2996 C   0  0  2  0  0  0  0  0  0  0  0  0
   24.0734  -23.5299  -15.2658 C   0  0  0  0  0  0  0  0  0  0  0  0
   24.2453  -21.8478  -13.3729 C   0  0  2  0  0  0  0  0  0  0  0  0
   23.2845  -21.0811  -14.1745 N   0  0  0  0  0  0  0  0  0  0  0  0
   25.0948  -20.9597  -12.5701 C   0  0  0  0  0  0  0  0  0  0  0  0
   25.0932  -19.7133  -12.8765 O   0  0  0  0  0  0  0  0  0  0  0  0
   27.5199  -21.1702   -7.2228 C   0  0  0  0  0  0  0  0  0  0  0  0
   27.3724  -21.4058   -8.6999 C   0  0  0  0  0  0  0  0  0  0  0  0
   26.7010  -20.2541   -9.4017 C   0  0  2  0  0  0  0  0  0  0  0  0
   25.2154  -20.3535   -9.0901 C   0  0  0  0  0  0  0  0  0  0  0  0
   26.8577  -20.3701  -10.8899 C   0  0  2  0  0  0  0  0  0  0  0  0
   25.9230  -21.3016  -11.4904 N   0  0  0  0  0  0  0  0  0  0  0  0
   28.2375  -20.6766  -11.2747 C   0  0  0  0  0  0  0  0  0  0  0  0
   28.6837  -21.8638  -11.7772 O   0  0  0  0  0  0  0  0  0  0  0  0
   29.1111  -19.7611  -11.1328 O   0  0  0  0  0  0  0  0  0  0  0  0
  2  1  1  0
  3  2  2  0
  4  3  1  0
  5 11  1  0
  5  4  2  0
  6  7  1  0
  6  5  1  0
  7  9  1  0
  7  8  1  1
  9 18  1  0
 10  9  2  0
 11 12  2  0
 12  2  1  0
 13 14  1  0
 15 14  1  0
 15 16  1  6
 17 18  1  6
 17 19  1  0
 17 15  1  0
 19 20  2  0
 22 23  1  0
 22 21  1  0
 23 25  1  0
 23 24  1  6
 25 27  1  0
 26 19  1  0
 25 26  1  1
 27 29  2  0
 27 28  1  0
M  END
$$$$
