YII.pdb
     RDKit          3D

 29 29  0  0  1  0  0  0  0  0999 V2000
   28.3294  -20.4957   -6.1289 O   0  0  0  0  0  0  0  0  0  0  0  0
   27.9863  -20.4375   -7.4924 C   0  0  0  0  0  0  0  0  0  0  0  0
   26.6940  -20.1357   -7.8524 C   0  0  0  0  0  0  0  0  0  0  0  0
   26.3507  -20.0768   -9.1817 C   0  0  0  0  0  0  0  0  0  0  0  0
   27.2580  -20.3103  -10.1775 C   0  0  0  0  0  0  0  0  0  0  0  0
   26.9003  -20.2501  -11.6272 C   0  0  0  0  0  0  0  0  0  0  0  0
   26.1813  -21.5322  -11.9543 C   0  0  2  0  0  0  0  0  0  0  0  0
   27.1748  -22.5618  -12.1402 N   0  0  0  0  0  0  0  0  0  0  0  0
   25.2947  -21.3942  -13.1401 C   0  0  0  0  0  0  0  0  0  0  0  0
   25.7903  -21.5620  -14.2829 O   0  0  0  0  0  0  0  0  0  0  0  0
   28.5416  -20.6095   -9.7886 C   0  0  0  0  0  0  0  0  0  0  0  0
   28.9161  -20.6761   -8.4715 C   0  0  0  0  0  0  0  0  0  0  0  0
   22.4277  -24.7510  -14.3612 C   0  0  0  0  0  0  0  0  0  0  0  0
   22.4851  -23.3591  -13.8261 C   0  0  0  0  0  0  0  0  0  0  0  0
   23.0797  -22.3605  -14.8371 C   0  0  2  0  0  0  0  0  0  0  0  0
   24.4310  -22.8889  -15.1630 C   0  0  0  0  0  0  0  0  0  0  0  0
   23.0019  -21.0360  -14.1797 C   0  0  2  0  0  0  0  0  0  0  0  0
   23.9137  -21.0809  -13.0306 N   0  0  0  0  0  0  0  0  0  0  0  0
   21.6725  -20.5557  -13.7838 C   0  0  0  0  0  0  0  0  0  0  0  0
   21.3950  -20.5669  -12.5307 O   0  0  0  0  0  0  0  0  0  0  0  0
   20.4402  -15.7006  -14.5334 C   0  0  0  0  0  0  0  0  0  0  0  0
   20.5082  -17.1246  -14.0568 C   0  0  0  0  0  0  0  0  0  0  0  0
   19.3781  -17.9648  -14.5921 C   0  0  2  0  0  0  0  0  0  0  0  0
   18.0904  -17.3805  -14.0314 C   0  0  0  0  0  0  0  0  0  0  0  0
   19.4831  -19.3786  -14.0995 C   0  0  2  0  0  0  0  0  0  0  0  0
   20.6466  -20.0757  -14.6118 N   0  0  0  0  0  0  0  0  0  0  0  0
   18.2552  -20.1386  -14.3452 C   0  0  0  0  0  0  0  0  0  0  0  0
   18.0761  -21.0782  -15.3180 O   0  0  0  0  0  0  0  0  0  0  0  0
   17.2552  -19.9122  -13.5899 O   0  0  0  0  0  0  0  0  0  0  0  0
  2  1  1  0
  3  2  2  0
  4  3  1  0
  5 11  1  0
  5  4  2  0
  6  7  1  0
  6  5  1  0
  7  9  1  0
  7  8  1  6
  9 18  1  0
 10  9  2  0
 11 12  2  0
 12  2  1  0
 13 14  1  0
 15 14  1  0
 15 16  1  1
 17 18  1  1
 17 19  1  0
 17 15  1  0
 19 20  2  0
 22 23  1  0
 22 21  1  0
 23 25  1  0
 23 24  1  1
 25 27  1  0
 26 19  1  0
 25 26  1  6
 27 29  2  0
 27 28  1  0
M  END
$$$$
