YII.pdb
     RDKit          3D

 29 29  0  0  1  0  0  0  0  0999 V2000
   24.3006  -14.2780  -20.3814 O   0  0  0  0  0  0  0  0  0  0  0  0
   24.0210  -15.3878  -19.5626 C   0  0  0  0  0  0  0  0  0  0  0  0
   23.7851  -16.6127  -20.1410 C   0  0  0  0  0  0  0  0  0  0  0  0
   23.5113  -17.7015  -19.3484 C   0  0  0  0  0  0  0  0  0  0  0  0
   23.4632  -17.6140  -17.9849 C   0  0  0  0  0  0  0  0  0  0  0  0
   23.1668  -18.7884  -17.1096 C   0  0  0  0  0  0  0  0  0  0  0  0
   24.4584  -19.1687  -16.4352 C   0  0  2  0  0  0  0  0  0  0  0  0
   25.3628  -19.6507  -17.4508 N   0  0  0  0  0  0  0  0  0  0  0  0
   24.2556  -20.1670  -15.3519 C   0  0  0  0  0  0  0  0  0  0  0  0
   23.7396  -21.2749  -15.6454 O   0  0  0  0  0  0  0  0  0  0  0  0
   23.7028  -16.3779  -17.4345 C   0  0  0  0  0  0  0  0  0  0  0  0
   23.9787  -15.2725  -18.1969 C   0  0  0  0  0  0  0  0  0  0  0  0
   27.9313  -20.6414  -11.9000 C   0  0  0  0  0  0  0  0  0  0  0  0
   26.7044  -21.0977  -12.6165 C   0  0  0  0  0  0  0  0  0  0  0  0
   25.4084  -20.6696  -11.9023 C   0  0  2  0  0  0  0  0  0  0  0  0
   25.3454  -21.5006  -10.6708 C   0  0  0  0  0  0  0  0  0  0  0  0
   24.3290  -20.8418  -12.9013 C   0  0  2  0  0  0  0  0  0  0  0  0
   24.6216  -19.9169  -14.0025 N   0  0  0  0  0  0  0  0  0  0  0  0
   22.9458  -20.6896  -12.4339 C   0  0  0  0  0  0  0  0  0  0  0  0
   22.5752  -19.5148  -12.0736 O   0  0  0  0  0  0  0  0  0  0  0  0
   17.1911  -21.2440  -13.6442 C   0  0  0  0  0  0  0  0  0  0  0  0
   18.2053  -21.2452  -12.5348 C   0  0  0  0  0  0  0  0  0  0  0  0
   19.6079  -21.4667  -13.0382 C   0  0  2  0  0  0  0  0  0  0  0  0
   19.6575  -22.8805  -13.5974 C   0  0  0  0  0  0  0  0  0  0  0  0
   20.5979  -21.3926  -11.9126 C   0  0  2  0  0  0  0  0  0  0  0  0
   21.9568  -21.6792  -12.3290 N   0  0  0  0  0  0  0  0  0  0  0  0
   20.2011  -22.2274  -10.7762 C   0  0  0  0  0  0  0  0  0  0  0  0
   19.1516  -21.9915   -9.9371 O   0  0  0  0  0  0  0  0  0  0  0  0
   20.8892  -23.2720  -10.5375 O   0  0  0  0  0  0  0  0  0  0  0  0
  2  1  1  0
  3  2  2  0
  4  3  1  0
  5 11  1  0
  5  4  2  0
  6  7  1  0
  6  5  1  0
  7  9  1  0
  7  8  1  6
  9 18  1  0
 10  9  2  0
 11 12  2  0
 12  2  1  0
 13 14  1  0
 15 14  1  0
 15 16  1  1
 17 18  1  6
 17 19  1  0
 17 15  1  0
 19 20  2  0
 22 23  1  0
 22 21  1  0
 23 25  1  0
 23 24  1  1
 25 27  1  0
 26 19  1  0
 25 26  1  6
 27 29  2  0
 27 28  1  0
M  END
$$$$
