YII.pdb
     RDKit          3D

 29 29  0  0  1  0  0  0  0  0999 V2000
   29.6979  -14.4621  -17.6282 O   0  0  0  0  0  0  0  0  0  0  0  0
   28.9091  -15.5506  -17.2119 C   0  0  0  0  0  0  0  0  0  0  0  0
   28.2821  -15.5030  -15.9891 C   0  0  0  0  0  0  0  0  0  0  0  0
   27.5100  -16.5618  -15.5752 C   0  0  0  0  0  0  0  0  0  0  0  0
   27.3375  -17.6795  -16.3434 C   0  0  0  0  0  0  0  0  0  0  0  0
   26.5015  -18.8388  -15.9075 C   0  0  0  0  0  0  0  0  0  0  0  0
   27.3779  -19.7126  -15.0496 C   0  0  2  0  0  0  0  0  0  0  0  0
   28.2368  -20.4730  -15.9247 N   0  0  0  0  0  0  0  0  0  0  0  0
   26.5871  -20.5900  -14.1463 C   0  0  0  0  0  0  0  0  0  0  0  0
   26.2501  -21.7284  -14.5590 O   0  0  0  0  0  0  0  0  0  0  0  0
   27.9757  -17.6995  -17.5603 C   0  0  0  0  0  0  0  0  0  0  0  0
   28.7527  -16.6600  -18.0023 C   0  0  0  0  0  0  0  0  0  0  0  0
   25.2024  -21.5027   -8.2413 C   0  0  0  0  0  0  0  0  0  0  0  0
   24.8654  -21.6133   -9.6908 C   0  0  0  0  0  0  0  0  0  0  0  0
   25.7790  -20.7472  -10.5785 C   0  0  2  0  0  0  0  0  0  0  0  0
   25.6374  -19.3625  -10.0552 C   0  0  0  0  0  0  0  0  0  0  0  0
   25.3395  -21.0026  -11.9693 C   0  0  2  0  0  0  0  0  0  0  0  0
   26.1992  -20.1916  -12.8393 N   0  0  0  0  0  0  0  0  0  0  0  0
   23.9204  -20.7905  -12.2787 C   0  0  0  0  0  0  0  0  0  0  0  0
   23.4934  -19.5801  -12.2688 O   0  0  0  0  0  0  0  0  0  0  0  0
   21.8528  -22.4802  -16.7257 C   0  0  0  0  0  0  0  0  0  0  0  0
   22.1959  -21.7801  -15.4406 C   0  0  0  0  0  0  0  0  0  0  0  0
   21.2427  -22.1245  -14.3259 C   0  0  2  0  0  0  0  0  0  0  0  0
   19.8727  -21.6115  -14.7432 C   0  0  0  0  0  0  0  0  0  0  0  0
   21.6226  -21.4147  -13.0591 C   0  0  2  0  0  0  0  0  0  0  0  0
   22.9517  -21.7561  -12.5912 N   0  0  0  0  0  0  0  0  0  0  0  0
   20.6224  -21.5993  -12.0049 C   0  0  0  0  0  0  0  0  0  0  0  0
   19.6010  -20.7439  -11.7116 O   0  0  0  0  0  0  0  0  0  0  0  0
   20.7008  -22.6494  -11.2889 O   0  0  0  0  0  0  0  0  0  0  0  0
  2  1  1  0
  3  2  2  0
  4  3  1  0
  5 11  1  0
  5  4  2  0
  6  7  1  0
  6  5  1  0
  7  9  1  0
  7  8  1  6
  9 18  1  0
 10  9  2  0
 11 12  2  0
 12  2  1  0
 13 14  1  0
 15 14  1  0
 15 16  1  1
 17 18  1  6
 17 19  1  0
 17 15  1  0
 19 20  2  0
 22 23  1  0
 22 21  1  0
 23 25  1  0
 23 24  1  6
 25 27  1  0
 26 19  1  0
 25 26  1  1
 27 29  2  0
 27 28  1  0
M  END
$$$$
