YII.pdb
     RDKit          3D

 29 29  0  0  1  0  0  0  0  0999 V2000
   18.6119  -18.3535  -14.6520 O   0  0  0  0  0  0  0  0  0  0  0  0
   19.5607  -18.9556  -13.8049 C   0  0  0  0  0  0  0  0  0  0  0  0
   19.4386  -20.2890  -13.4923 C   0  0  0  0  0  0  0  0  0  0  0  0
   20.3610  -20.8845  -12.6658 C   0  0  0  0  0  0  0  0  0  0  0  0
   21.4130  -20.1926  -12.1330 C   0  0  0  0  0  0  0  0  0  0  0  0
   22.4240  -20.8257  -11.2329 C   0  0  0  0  0  0  0  0  0  0  0  0
   23.7184  -20.8828  -12.0002 C   0  0  2  0  0  0  0  0  0  0  0  0
   23.5247  -21.7583  -13.1305 N   0  0  0  0  0  0  0  0  0  0  0  0
   24.8588  -21.3162  -11.1499 C   0  0  0  0  0  0  0  0  0  0  0  0
   24.8411  -22.4770  -10.6683 O   0  0  0  0  0  0  0  0  0  0  0  0
   21.5100  -18.8620  -12.4625 C   0  0  0  0  0  0  0  0  0  0  0  0
   20.6068  -18.2383  -13.2838 C   0  0  0  0  0  0  0  0  0  0  0  0
   29.4793  -21.3182  -12.9045 C   0  0  0  0  0  0  0  0  0  0  0  0
   28.2641  -21.4531  -12.0489 C   0  0  0  0  0  0  0  0  0  0  0  0
   28.3259  -20.5684  -10.7894 C   0  0  2  0  0  0  0  0  0  0  0  0
   29.6319  -20.8832  -10.1517 C   0  0  0  0  0  0  0  0  0  0  0  0
   27.0969  -20.8799  -10.0245 C   0  0  2  0  0  0  0  0  0  0  0  0
   25.9634  -20.4710  -10.8623 N   0  0  0  0  0  0  0  0  0  0  0  0
   26.9845  -20.3229   -8.6711 C   0  0  0  0  0  0  0  0  0  0  0  0
   26.4073  -19.1826   -8.5531 O   0  0  0  0  0  0  0  0  0  0  0  0
   28.8078  -20.7120   -2.7132 C   0  0  0  0  0  0  0  0  0  0  0  0
   27.8750  -20.2004   -3.7750 C   0  0  0  0  0  0  0  0  0  0  0  0
   28.0183  -20.9479   -5.0751 C   0  0  2  0  0  0  0  0  0  0  0  0
   29.5095  -21.0984   -5.3351 C   0  0  0  0  0  0  0  0  0  0  0  0
   27.4404  -20.1576   -6.2127 C   0  0  2  0  0  0  0  0  0  0  0  0
   27.4330  -20.8855   -7.4666 N   0  0  0  0  0  0  0  0  0  0  0  0
   28.0870  -18.8512   -6.3584 C   0  0  0  0  0  0  0  0  0  0  0  0
   27.6971  -17.6928   -5.7526 O   0  0  0  0  0  0  0  0  0  0  0  0
   29.1073  -18.7746   -7.1165 O   0  0  0  0  0  0  0  0  0  0  0  0
  2  1  1  0
  3  2  2  0
  4  3  1  0
  5 11  1  0
  5  4  2  0
  6  7  1  0
  6  5  1  0
  7  9  1  0
  7  8  1  6
  9 18  1  0
 10  9  2  0
 11 12  2  0
 12  2  1  0
 13 14  1  0
 15 14  1  0
 15 16  1  1
 17 18  1  6
 17 19  1  0
 17 15  1  0
 19 20  2  0
 22 23  1  0
 22 21  1  0
 23 25  1  0
 23 24  1  6
 25 27  1  0
 26 19  1  0
 25 26  1  6
 27 29  2  0
 27 28  1  0
M  END
$$$$
