YII.pdb
     RDKit          3D

 29 29  0  0  1  0  0  0  0  0999 V2000
   29.9866  -15.2748  -18.8542 O   0  0  0  0  0  0  0  0  0  0  0  0
   29.2071  -15.7288  -17.7742 C   0  0  0  0  0  0  0  0  0  0  0  0
   29.4295  -16.9846  -17.2602 C   0  0  0  0  0  0  0  0  0  0  0  0
   28.6726  -17.4354  -16.2055 C   0  0  0  0  0  0  0  0  0  0  0  0
   27.6907  -16.6725  -15.6372 C   0  0  0  0  0  0  0  0  0  0  0  0
   26.8593  -17.1483  -14.4903 C   0  0  0  0  0  0  0  0  0  0  0  0
   26.0641  -18.3273  -14.9855 C   0  0  2  0  0  0  0  0  0  0  0  0
   25.0832  -17.8371  -15.9232 N   0  0  0  0  0  0  0  0  0  0  0  0
   25.4379  -19.0914  -13.8741 C   0  0  0  0  0  0  0  0  0  0  0  0
   24.4457  -18.5915  -13.2864 O   0  0  0  0  0  0  0  0  0  0  0  0
   27.4905  -15.4221  -16.1711 C   0  0  0  0  0  0  0  0  0  0  0  0
   28.2281  -14.9429  -17.2226 C   0  0  0  0  0  0  0  0  0  0  0  0
   23.7230  -23.6670  -14.6123 C   0  0  0  0  0  0  0  0  0  0  0  0
   24.0632  -22.3574  -13.9829 C   0  0  0  0  0  0  0  0  0  0  0  0
   25.0977  -22.4963  -12.8501 C   0  0  2  0  0  0  0  0  0  0  0  0
   24.5165  -23.4875  -11.9062 C   0  0  0  0  0  0  0  0  0  0  0  0
   25.3234  -21.1218  -12.3475 C   0  0  2  0  0  0  0  0  0  0  0  0
   25.9169  -20.3604  -13.4529 N   0  0  0  0  0  0  0  0  0  0  0  0
   26.1109  -20.9733  -11.1177 C   0  0  0  0  0  0  0  0  0  0  0  0
   27.2162  -21.6220  -11.0481 O   0  0  0  0  0  0  0  0  0  0  0  0
   28.7021  -18.8551   -6.1879 C   0  0  0  0  0  0  0  0  0  0  0  0
   27.7667  -19.8787   -6.7682 C   0  0  0  0  0  0  0  0  0  0  0  0
   27.2110  -19.4581   -8.1038 C   0  0  2  0  0  0  0  0  0  0  0  0
   26.3688  -18.2152   -7.8593 C   0  0  0  0  0  0  0  0  0  0  0  0
   26.3029  -20.5148   -8.6618 C   0  0  2  0  0  0  0  0  0  0  0  0
   25.8081  -20.1990   -9.9875 N   0  0  0  0  0  0  0  0  0  0  0  0
   25.2058  -20.8359   -7.7458 C   0  0  0  0  0  0  0  0  0  0  0  0
   23.8758  -20.6706   -8.0002 O   0  0  0  0  0  0  0  0  0  0  0  0
   25.5058  -21.3138   -6.6041 O   0  0  0  0  0  0  0  0  0  0  0  0
  2  1  1  0
  3  2  2  0
  4  3  1  0
  5 11  1  0
  5  4  2  0
  6  7  1  0
  6  5  1  0
  7  9  1  0
  7  8  1  6
  9 18  1  0
 10  9  2  0
 11 12  2  0
 12  2  1  0
 13 14  1  0
 15 14  1  0
 15 16  1  1
 17 18  1  6
 17 19  1  0
 17 15  1  0
 19 20  2  0
 22 23  1  0
 22 21  1  0
 23 25  1  0
 23 24  1  1
 25 27  1  0
 26 19  1  0
 25 26  1  6
 27 29  2  0
 27 28  1  0
M  END
$$$$
