YII.pdb
     RDKit          3D

 29 29  0  0  1  0  0  0  0  0999 V2000
   22.9426  -14.7413  -20.2345 O   0  0  0  0  0  0  0  0  0  0  0  0
   23.1024  -15.8518  -19.3850 C   0  0  0  0  0  0  0  0  0  0  0  0
   23.8038  -15.7097  -18.2108 C   0  0  0  0  0  0  0  0  0  0  0  0
   23.9644  -16.7892  -17.3757 C   0  0  0  0  0  0  0  0  0  0  0  0
   23.4460  -18.0195  -17.6705 C   0  0  0  0  0  0  0  0  0  0  0  0
   23.6120  -19.2027  -16.7730 C   0  0  0  0  0  0  0  0  0  0  0  0
   25.0649  -19.5947  -16.8296 C   0  0  2  0  0  0  0  0  0  0  0  0
   25.2939  -20.2647  -18.0867 N   0  0  0  0  0  0  0  0  0  0  0  0
   25.4675  -20.4344  -15.6702 C   0  0  0  0  0  0  0  0  0  0  0  0
   25.0295  -21.6104  -15.6001 O   0  0  0  0  0  0  0  0  0  0  0  0
   22.7500  -18.1321  -18.8500 C   0  0  0  0  0  0  0  0  0  0  0  0
   22.5720  -17.0751  -19.7047 C   0  0  0  0  0  0  0  0  0  0  0  0
   30.0786  -19.3155  -12.7227 C   0  0  0  0  0  0  0  0  0  0  0  0
   28.6156  -19.3894  -13.0075 C   0  0  0  0  0  0  0  0  0  0  0  0
   28.1630  -20.8041  -13.4157 C   0  0  2  0  0  0  0  0  0  0  0  0
   28.8794  -21.0948  -14.6860 C   0  0  0  0  0  0  0  0  0  0  0  0
   26.6839  -20.7506  -13.4597 C   0  0  2  0  0  0  0  0  0  0  0  0
   26.3251  -19.9594  -14.6426 N   0  0  0  0  0  0  0  0  0  0  0  0
   25.9900  -20.2601  -12.2628 C   0  0  0  0  0  0  0  0  0  0  0  0
   25.7806  -18.9963  -12.1839 O   0  0  0  0  0  0  0  0  0  0  0  0
   21.1898  -20.8853  -11.0438 C   0  0  0  0  0  0  0  0  0  0  0  0
   22.6269  -20.4536  -11.1307 C   0  0  0  0  0  0  0  0  0  0  0  0
   23.4146  -20.8257   -9.9016 C   0  0  2  0  0  0  0  0  0  0  0  0
   22.8161  -20.0449   -8.7413 C   0  0  0  0  0  0  0  0  0  0  0  0
   24.8483  -20.4030  -10.0369 C   0  0  2  0  0  0  0  0  0  0  0  0
   25.5155  -21.0066  -11.1738 N   0  0  0  0  0  0  0  0  0  0  0  0
   25.6033  -20.6173   -8.8000 C   0  0  0  0  0  0  0  0  0  0  0  0
   25.7108  -19.7355   -7.7646 O   0  0  0  0  0  0  0  0  0  0  0  0
   26.2207  -21.7228   -8.6648 O   0  0  0  0  0  0  0  0  0  0  0  0
  2  1  1  0
  3  2  2  0
  4  3  1  0
  5 11  1  0
  5  4  2  0
  6  7  1  0
  6  5  1  0
  7  9  1  0
  7  8  1  6
  9 18  1  0
 10  9  2  0
 11 12  2  0
 12  2  1  0
 13 14  1  0
 15 14  1  0
 15 16  1  6
 17 18  1  6
 17 19  1  0
 17 15  1  0
 19 20  2  0
 22 23  1  0
 22 21  1  0
 23 25  1  0
 23 24  1  1
 25 27  1  0
 26 19  1  0
 25 26  1  6
 27 29  2  0
 27 28  1  0
M  END
$$$$
