YII.pdb
     RDKit          3D

 29 29  0  0  1  0  0  0  0  0999 V2000
   19.1046  -14.7509  -24.4415 O   0  0  0  0  0  0  0  0  0  0  0  0
   19.0039  -14.0051  -23.2525 C   0  0  0  0  0  0  0  0  0  0  0  0
   20.0900  -13.2868  -22.8105 C   0  0  0  0  0  0  0  0  0  0  0  0
   19.9998  -12.5558  -21.6504 C   0  0  0  0  0  0  0  0  0  0  0  0
   18.8543  -12.5135  -20.9053 C   0  0  0  0  0  0  0  0  0  0  0  0
   18.7406  -11.7236  -19.6419 C   0  0  0  0  0  0  0  0  0  0  0  0
   19.7898  -12.2516  -18.6996 C   0  0  2  0  0  0  0  0  0  0  0  0
   19.4302  -13.6045  -18.3499 N   0  0  0  0  0  0  0  0  0  0  0  0
   19.9522  -11.3910  -17.4978 C   0  0  0  0  0  0  0  0  0  0  0  0
   19.0728  -11.4401  -16.6011 O   0  0  0  0  0  0  0  0  0  0  0  0
   17.7852  -13.2406  -21.3708 C   0  0  0  0  0  0  0  0  0  0  0  0
   17.8426  -13.9798  -22.5239 C   0  0  0  0  0  0  0  0  0  0  0  0
   24.1031  -11.5554  -14.7596 C   0  0  0  0  0  0  0  0  0  0  0  0
   22.7306  -11.2259  -15.2439 C   0  0  0  0  0  0  0  0  0  0  0  0
   22.5993   -9.7597  -15.6976 C   0  0  2  0  0  0  0  0  0  0  0  0
   23.0099   -8.9464  -14.5224 C   0  0  0  0  0  0  0  0  0  0  0  0
   21.2059   -9.6158  -16.1776 C   0  0  2  0  0  0  0  0  0  0  0  0
   21.0595  -10.5184  -17.3255 N   0  0  0  0  0  0  0  0  0  0  0  0
   20.7406   -8.2624  -16.5041 C   0  0  0  0  0  0  0  0  0  0  0  0
   21.3496   -7.6463  -17.4511 O   0  0  0  0  0  0  0  0  0  0  0  0
   15.5777   -6.2148  -16.1848 C   0  0  0  0  0  0  0  0  0  0  0  0
   16.9934   -6.4078  -15.7178 C   0  0  0  0  0  0  0  0  0  0  0  0
   18.0030   -5.9609  -16.7428 C   0  0  2  0  0  0  0  0  0  0  0  0
   17.8239   -6.8580  -17.9583 C   0  0  0  0  0  0  0  0  0  0  0  0
   19.4021   -6.1610  -16.2377 C   0  0  2  0  0  0  0  0  0  0  0  0
   19.6963   -7.5413  -15.9058 N   0  0  0  0  0  0  0  0  0  0  0  0
   19.7166   -5.2656  -15.1218 C   0  0  0  0  0  0  0  0  0  0  0  0
   20.0404   -5.6499  -13.8535 O   0  0  0  0  0  0  0  0  0  0  0  0
   19.6891   -4.0114  -15.3406 O   0  0  0  0  0  0  0  0  0  0  0  0
  2  1  1  0
  3  2  2  0
  4  3  1  0
  5 11  1  0
  5  4  2  0
  6  7  1  0
  6  5  1  0
  7  9  1  0
  7  8  1  1
  9 18  1  0
 10  9  2  0
 11 12  2  0
 12  2  1  0
 13 14  1  0
 15 14  1  0
 15 16  1  1
 17 18  1  6
 17 19  1  0
 17 15  1  0
 19 20  2  0
 22 23  1  0
 22 21  1  0
 23 25  1  0
 23 24  1  6
 25 27  1  0
 26 19  1  0
 25 26  1  1
 27 29  2  0
 27 28  1  0
M  END
$$$$
