YII.pdb
     RDKit          3D

 29 29  0  0  1  0  0  0  0  0999 V2000
   16.8842  -20.3191  -17.8007 O   0  0  0  0  0  0  0  0  0  0  0  0
   18.0504  -20.7824  -17.1637 C   0  0  0  0  0  0  0  0  0  0  0  0
   18.3631  -22.1204  -17.2152 C   0  0  0  0  0  0  0  0  0  0  0  0
   19.5001  -22.5809  -16.5957 C   0  0  0  0  0  0  0  0  0  0  0  0
   20.3470  -21.7480  -15.9189 C   0  0  0  0  0  0  0  0  0  0  0  0
   21.5868  -22.2333  -15.2403 C   0  0  0  0  0  0  0  0  0  0  0  0
   22.7520  -21.7720  -16.0752 C   0  0  2  0  0  0  0  0  0  0  0  0
   22.8041  -22.5978  -17.2572 N   0  0  0  0  0  0  0  0  0  0  0  0
   24.0327  -21.8005  -15.3199 C   0  0  0  0  0  0  0  0  0  0  0  0
   24.6677  -22.8832  -15.2559 O   0  0  0  0  0  0  0  0  0  0  0  0
   20.0096  -20.4163  -15.8840 C   0  0  0  0  0  0  0  0  0  0  0  0
   18.8830  -19.9252  -16.4914 C   0  0  0  0  0  0  0  0  0  0  0  0
   29.0351  -20.1352  -14.2148 C   0  0  0  0  0  0  0  0  0  0  0  0
   27.8880  -19.6252  -13.4079 C   0  0  0  0  0  0  0  0  0  0  0  0
   26.5894  -19.5152  -14.2292 C   0  0  2  0  0  0  0  0  0  0  0  0
   26.0472  -18.1637  -13.9282 C   0  0  0  0  0  0  0  0  0  0  0  0
   25.7709  -20.6851  -13.8366 C   0  0  2  0  0  0  0  0  0  0  0  0
   24.5635  -20.6544  -14.6703 N   0  0  0  0  0  0  0  0  0  0  0  0
   25.4310  -20.8250  -12.4154 C   0  0  0  0  0  0  0  0  0  0  0  0
   24.2179  -20.5783  -12.0764 O   0  0  0  0  0  0  0  0  0  0  0  0
   27.5607  -19.8569   -6.7599 C   0  0  0  0  0  0  0  0  0  0  0  0
   26.5434  -20.5151   -7.6494 C   0  0  0  0  0  0  0  0  0  0  0  0
   26.9847  -20.5647   -9.0890 C   0  0  2  0  0  0  0  0  0  0  0  0
   27.2590  -19.1306   -9.5158 C   0  0  0  0  0  0  0  0  0  0  0  0
   25.8879  -21.0937   -9.9664 C   0  0  2  0  0  0  0  0  0  0  0  0
   26.2746  -21.2018  -11.3596 N   0  0  0  0  0  0  0  0  0  0  0  0
   24.6469  -20.3301   -9.8152 C   0  0  0  0  0  0  0  0  0  0  0  0
   24.3921  -19.1018  -10.3513 O   0  0  0  0  0  0  0  0  0  0  0  0
   23.7117  -20.8474   -9.1228 O   0  0  0  0  0  0  0  0  0  0  0  0
  2  1  1  0
  3  2  2  0
  4  3  1  0
  5 11  1  0
  5  4  2  0
  6  7  1  0
  6  5  1  0
  7  9  1  0
  7  8  1  6
  9 18  1  0
 10  9  2  0
 11 12  2  0
 12  2  1  0
 13 14  1  0
 15 14  1  0
 15 16  1  1
 17 18  1  6
 17 19  1  0
 17 15  1  0
 19 20  2  0
 22 23  1  0
 22 21  1  0
 23 25  1  0
 23 24  1  6
 25 27  1  0
 26 19  1  0
 25 26  1  6
 27 29  2  0
 27 28  1  0
M  END
$$$$
