IDG.pdb
     RDKit          3D

 21 20  0  0  1  0  0  0  0  0999 V2000
    6.1983  -11.6546   26.9622 C   0  0  0  0  0  0  0  0  0  0  0  0
    5.9415  -12.8756   26.1380 C   0  0  0  0  0  0  0  0  0  0  0  0
    7.1975  -13.6740   25.8677 C   0  0  2  0  0  0  0  0  0  0  0  0
    8.2995  -12.8339   25.3124 C   0  0  0  0  0  0  0  0  0  0  0  0
    6.8458  -14.8530   24.9769 C   0  0  2  0  0  0  0  0  0  0  0  0
    5.8088  -15.6012   25.6407 N   0  0  0  0  0  0  0  0  0  0  0  0
    7.9941  -15.7246   24.7204 C   0  0  0  0  0  0  0  0  0  0  0  0
    8.1563  -16.7710   25.3927 O   0  0  0  0  0  0  0  0  0  0  0  0
    8.9592  -15.4336   23.7194 N   0  0  0  0  0  0  0  0  0  0  0  0
   10.0066  -16.4318   23.3848 C   0  0  1  0  0  0  0  0  0  0  0  0
   10.4729  -16.0531   22.0072 C   0  0  0  0  0  0  0  0  0  0  0  0
    9.7753  -16.6773   20.8919 C   0  0  0  0  0  0  0  0  0  0  0  0
    9.1571  -17.7612   20.9547 O   0  0  0  0  0  0  0  0  0  0  0  0
   11.0781  -16.3579   24.4152 C   0  0  0  0  0  0  0  0  0  0  0  0
   12.0785  -17.1052   24.3117 O   0  0  0  0  0  0  0  0  0  0  0  0
    9.7662  -16.0533   19.6250 O   0  0  0  0  0  0  0  0  0  0  0  0
   10.9434  -15.4336   25.5051 N   0  0  0  0  0  0  0  0  0  0  0  0
   11.9406  -15.3838   26.5406 C   0  0  0  0  0  0  0  0  0  0  0  0
   11.5968  -16.2728   27.6876 C   0  0  0  0  0  0  0  0  0  0  0  0
   12.3166  -16.2895   28.8627 O   0  0  0  0  0  0  0  0  0  0  0  0
   10.6134  -17.0265   27.5606 O   0  0  0  0  0  0  0  0  0  0  0  0
  1  2  1  0
  2  3  1  0
  3  5  1  0
  3  4  1  6
  5  7  1  0
  5  6  1  1
  7  9  1  0
  8  7  2  0
  9 10  1  0
 10 14  1  0
 10 11  1  6
 11 12  1  0
 12 13  2  0
 14 15  2  0
 14 17  1  0
 16 12  1  0
 17 18  1  0
 18 19  1  0
 19 20  1  0
 21 19  2  0
M  END
$$$$
