IDG.pdb
     RDKit          3D

 21 20  0  0  1  0  0  0  0  0999 V2000
    8.0622  -12.6450   21.6116 C   0  0  0  0  0  0  0  0  0  0  0  0
    7.9421  -13.9459   20.8841 C   0  0  0  0  0  0  0  0  0  0  0  0
    8.5633  -13.9051   19.5055 C   0  0  2  0  0  0  0  0  0  0  0  0
    7.9151  -12.8956   18.6171 C   0  0  0  0  0  0  0  0  0  0  0  0
    8.5471  -15.3063   18.9196 C   0  0  2  0  0  0  0  0  0  0  0  0
    7.1684  -15.6785   18.7288 N   0  0  0  0  0  0  0  0  0  0  0  0
    9.2054  -16.2849   19.7873 C   0  0  0  0  0  0  0  0  0  0  0  0
    8.5376  -16.9380   20.6243 O   0  0  0  0  0  0  0  0  0  0  0  0
   10.6021  -16.5367   19.7244 N   0  0  0  0  0  0  0  0  0  0  0  0
   11.2360  -17.4565   20.7031 C   0  0  1  0  0  0  0  0  0  0  0  0
   12.1138  -18.3529   19.8758 C   0  0  0  0  0  0  0  0  0  0  0  0
   11.4356  -19.2598   18.9606 C   0  0  0  0  0  0  0  0  0  0  0  0
   10.4174  -19.9269   19.2422 O   0  0  0  0  0  0  0  0  0  0  0  0
   11.9874  -16.6445   21.6986 C   0  0  0  0  0  0  0  0  0  0  0  0
   12.6816  -15.6798   21.3020 O   0  0  0  0  0  0  0  0  0  0  0  0
   11.9236  -19.4344   17.6468 O   0  0  0  0  0  0  0  0  0  0  0  0
   11.9017  -16.9829   23.0910 N   0  0  0  0  0  0  0  0  0  0  0  0
   12.5476  -16.1596   24.0780 C   0  0  0  0  0  0  0  0  0  0  0  0
   14.0006  -16.4731   24.2000 C   0  0  0  0  0  0  0  0  0  0  0  0
   14.8392  -15.8067   25.0670 O   0  0  0  0  0  0  0  0  0  0  0  0
   14.4591  -17.3795   23.4792 O   0  0  0  0  0  0  0  0  0  0  0  0
  1  2  1  0
  2  3  1  0
  3  5  1  0
  3  4  1  6
  5  7  1  0
  5  6  1  1
  7  9  1  0
  8  7  2  0
  9 10  1  0
 10 14  1  0
 10 11  1  6
 11 12  1  0
 12 13  2  0
 14 15  2  0
 14 17  1  0
 16 12  1  0
 17 18  1  0
 18 19  1  0
 19 20  1  0
 21 19  2  0
M  END
$$$$
