IDG.pdb
     RDKit          3D

 21 20  0  0  1  0  0  0  0  0999 V2000
    6.9452  -12.3540   20.8374 C   0  0  0  0  0  0  0  0  0  0  0  0
    7.3183  -13.5251   19.9858 C   0  0  0  0  0  0  0  0  0  0  0  0
    8.3319  -14.4315   20.6485 C   0  0  2  0  0  0  0  0  0  0  0  0
    9.5446  -13.6921   21.1079 C   0  0  0  0  0  0  0  0  0  0  0  0
    8.6584  -15.5746   19.7030 C   0  0  2  0  0  0  0  0  0  0  0  0
    7.4110  -16.1779   19.3083 N   0  0  0  0  0  0  0  0  0  0  0  0
    9.5200  -16.5847   20.3205 C   0  0  0  0  0  0  0  0  0  0  0  0
    9.0169  -17.5411   20.9572 O   0  0  0  0  0  0  0  0  0  0  0  0
   10.9367  -16.5318   20.2302 N   0  0  0  0  0  0  0  0  0  0  0  0
   11.7644  -17.5442   20.9340 C   0  0  1  0  0  0  0  0  0  0  0  0
   13.0063  -17.6745   20.0979 C   0  0  0  0  0  0  0  0  0  0  0  0
   13.0384  -18.7810   19.1521 C   0  0  0  0  0  0  0  0  0  0  0  0
   12.4489  -19.8712   19.3103 O   0  0  0  0  0  0  0  0  0  0  0  0
   12.0280  -17.0621   22.3172 C   0  0  0  0  0  0  0  0  0  0  0  0
   11.7543  -17.8069   23.2869 O   0  0  0  0  0  0  0  0  0  0  0  0
   13.7749  -18.6651   17.9526 O   0  0  0  0  0  0  0  0  0  0  0  0
   12.5895  -15.7554   22.5118 N   0  0  0  0  0  0  0  0  0  0  0  0
   13.0060  -15.3334   23.8224 C   0  0  0  0  0  0  0  0  0  0  0  0
   14.3374  -15.8953   24.1910 C   0  0  0  0  0  0  0  0  0  0  0  0
   14.5492  -16.6233   25.3418 O   0  0  0  0  0  0  0  0  0  0  0  0
   15.2881  -15.6878   23.4135 O   0  0  0  0  0  0  0  0  0  0  0  0
  1  2  1  0
  2  3  1  0
  3  5  1  0
  3  4  1  6
  5  7  1  0
  5  6  1  1
  7  9  1  0
  8  7  2  0
  9 10  1  0
 10 14  1  0
 10 11  1  6
 11 12  1  0
 12 13  2  0
 14 15  2  0
 14 17  1  0
 16 12  1  0
 17 18  1  0
 18 19  1  0
 19 20  1  0
 21 19  2  0
M  END
$$$$
