IDG.pdb
     RDKit          3D

 21 20  0  0  1  0  0  0  0  0999 V2000
    6.7498  -11.7129   27.2649 C   0  0  0  0  0  0  0  0  0  0  0  0
    6.2864  -12.9621   26.5859 C   0  0  0  0  0  0  0  0  0  0  0  0
    7.4117  -13.7113   25.9073 C   0  0  2  0  0  0  0  0  0  0  0  0
    8.1632  -12.8584   24.9396 C   0  0  0  0  0  0  0  0  0  0  0  0
    6.8482  -14.9709   25.2725 C   0  0  2  0  0  0  0  0  0  0  0  0
    6.1687  -15.7086   26.3068 N   0  0  0  0  0  0  0  0  0  0  0  0
    7.8873  -15.8095   24.6716 C   0  0  0  0  0  0  0  0  0  0  0  0
    8.6554  -16.4830   25.3992 O   0  0  0  0  0  0  0  0  0  0  0  0
    8.0717  -15.8989   23.2658 N   0  0  0  0  0  0  0  0  0  0  0  0
    9.1726  -16.7277   22.7123 C   0  0  1  0  0  0  0  0  0  0  0  0
    8.7390  -17.0576   21.3117 C   0  0  0  0  0  0  0  0  0  0  0  0
    7.6282  -17.9897   21.1791 C   0  0  0  0  0  0  0  0  0  0  0  0
    6.8504  -18.0373   20.2026 O   0  0  0  0  0  0  0  0  0  0  0  0
   10.4346  -15.9411   22.7730 C   0  0  0  0  0  0  0  0  0  0  0  0
   10.5147  -14.8636   22.1385 O   0  0  0  0  0  0  0  0  0  0  0  0
    7.3676  -18.9293   22.2008 O   0  0  0  0  0  0  0  0  0  0  0  0
   11.5328  -16.4325   23.5561 N   0  0  0  0  0  0  0  0  0  0  0  0
   12.7163  -15.6327   23.7267 C   0  0  0  0  0  0  0  0  0  0  0  0
   13.8323  -16.0967   22.8530 C   0  0  0  0  0  0  0  0  0  0  0  0
   13.6697  -17.0591   21.8800 O   0  0  0  0  0  0  0  0  0  0  0  0
   14.9533  -15.5814   23.0239 O   0  0  0  0  0  0  0  0  0  0  0  0
  1  2  1  0
  2  3  1  0
  3  5  1  0
  3  4  1  6
  5  7  1  0
  5  6  1  1
  7  9  1  0
  8  7  2  0
  9 10  1  0
 10 14  1  0
 10 11  1  6
 11 12  1  0
 12 13  2  0
 14 15  2  0
 14 17  1  0
 16 12  1  0
 17 18  1  0
 18 19  1  0
 19 20  1  0
 21 19  2  0
M  END
$$$$
