IDG.pdb
     RDKit          3D

 21 20  0  0  1  0  0  0  0  0999 V2000
    7.2037  -11.8388   27.3259 C   0  0  0  0  0  0  0  0  0  0  0  0
    6.5213  -13.0040   26.6834 C   0  0  0  0  0  0  0  0  0  0  0  0
    7.4410  -13.7956   25.7803 C   0  0  2  0  0  0  0  0  0  0  0  0
    8.1472  -12.9331   24.7874 C   0  0  0  0  0  0  0  0  0  0  0  0
    6.6454  -14.9152   25.1317 C   0  0  2  0  0  0  0  0  0  0  0  0
    6.0607  -15.6985   26.1902 N   0  0  0  0  0  0  0  0  0  0  0  0
    7.4744  -15.7744   24.2840 C   0  0  0  0  0  0  0  0  0  0  0  0
    7.9852  -16.8202   24.7515 O   0  0  0  0  0  0  0  0  0  0  0  0
    7.7346  -15.4718   22.9206 N   0  0  0  0  0  0  0  0  0  0  0  0
    8.4388  -16.4579   22.0620 C   0  0  1  0  0  0  0  0  0  0  0  0
    8.0008  -16.1311   20.6621 C   0  0  0  0  0  0  0  0  0  0  0  0
    8.6239  -16.8971   19.5920 C   0  0  0  0  0  0  0  0  0  0  0  0
    9.3914  -16.4214   18.7286 O   0  0  0  0  0  0  0  0  0  0  0  0
    9.9044  -16.3105   22.2750 C   0  0  0  0  0  0  0  0  0  0  0  0
   10.6935  -17.0213   21.6102 O   0  0  0  0  0  0  0  0  0  0  0  0
    8.3756  -18.2827   19.4768 O   0  0  0  0  0  0  0  0  0  0  0  0
   10.3832  -15.3584   23.2367 N   0  0  0  0  0  0  0  0  0  0  0  0
   11.7963  -15.1777   23.4359 C   0  0  0  0  0  0  0  0  0  0  0  0
   12.4211  -16.3602   24.0958 C   0  0  0  0  0  0  0  0  0  0  0  0
   12.5209  -16.4867   25.4645 O   0  0  0  0  0  0  0  0  0  0  0  0
   12.8668  -17.2632   23.3628 O   0  0  0  0  0  0  0  0  0  0  0  0
  1  2  1  0
  2  3  1  0
  3  5  1  0
  3  4  1  6
  5  7  1  0
  5  6  1  1
  7  9  1  0
  8  7  2  0
  9 10  1  0
 10 14  1  0
 10 11  1  6
 11 12  1  0
 12 13  2  0
 14 15  2  0
 14 17  1  0
 16 12  1  0
 17 18  1  0
 18 19  1  0
 19 20  1  0
 21 19  2  0
M  END
$$$$
