IDG.pdb
     RDKit          3D

 21 20  0  0  1  0  0  0  0  0999 V2000
    8.6304  -12.0458   21.0368 C   0  0  0  0  0  0  0  0  0  0  0  0
    8.3913  -13.4335   20.5334 C   0  0  0  0  0  0  0  0  0  0  0  0
    8.7680  -13.6012   19.0781 C   0  0  2  0  0  0  0  0  0  0  0  0
    7.9820  -12.7061   18.1783 C   0  0  0  0  0  0  0  0  0  0  0  0
    8.6456  -15.0689   18.7068 C   0  0  2  0  0  0  0  0  0  0  0  0
    7.2570  -15.4318   18.8332 N   0  0  0  0  0  0  0  0  0  0  0  0
    9.4601  -15.9340   19.5625 C   0  0  0  0  0  0  0  0  0  0  0  0
    8.9448  -16.5153   20.5472 O   0  0  0  0  0  0  0  0  0  0  0  0
   10.8435  -16.1521   19.3240 N   0  0  0  0  0  0  0  0  0  0  0  0
   11.6239  -17.0323   20.2304 C   0  0  1  0  0  0  0  0  0  0  0  0
   11.8396  -18.2966   19.4471 C   0  0  0  0  0  0  0  0  0  0  0  0
   12.2014  -19.4807   20.2133 C   0  0  0  0  0  0  0  0  0  0  0  0
   12.7831  -19.4639   21.3189 O   0  0  0  0  0  0  0  0  0  0  0  0
   12.8882  -16.3365   20.5942 C   0  0  0  0  0  0  0  0  0  0  0  0
   13.8113  -16.9885   21.1352 O   0  0  0  0  0  0  0  0  0  0  0  0
   11.8951  -20.7663   19.7153 O   0  0  0  0  0  0  0  0  0  0  0  0
   13.0239  -14.9343   20.3183 N   0  0  0  0  0  0  0  0  0  0  0  0
   14.2865  -14.2750   20.5195 C   0  0  0  0  0  0  0  0  0  0  0  0
   15.0616  -14.8862   21.6375 C   0  0  0  0  0  0  0  0  0  0  0  0
   16.2320  -15.5867   21.4406 O   0  0  0  0  0  0  0  0  0  0  0  0
   14.6172  -14.7479   22.7928 O   0  0  0  0  0  0  0  0  0  0  0  0
  1  2  1  0
  2  3  1  0
  3  5  1  0
  3  4  1  6
  5  7  1  0
  5  6  1  1
  7  9  1  0
  8  7  2  0
  9 10  1  0
 10 14  1  0
 10 11  1  6
 11 12  1  0
 12 13  2  0
 14 15  2  0
 14 17  1  0
 16 12  1  0
 17 18  1  0
 18 19  1  0
 19 20  1  0
 21 19  2  0
M  END
$$$$
