IDG.pdb
     RDKit          3D

 21 20  0  0  1  0  0  0  0  0999 V2000
    8.4139  -11.6929   19.7876 C   0  0  0  0  0  0  0  0  0  0  0  0
    8.2724  -12.8915   20.6703 C   0  0  0  0  0  0  0  0  0  0  0  0
    8.1578  -14.1825   19.8904 C   0  0  2  0  0  0  0  0  0  0  0  0
    7.0344  -14.1578   18.9076 C   0  0  0  0  0  0  0  0  0  0  0  0
    8.0617  -15.3393   20.8700 C   0  0  2  0  0  0  0  0  0  0  0  0
    6.8991  -15.1144   21.6908 N   0  0  0  0  0  0  0  0  0  0  0  0
    9.2487  -15.4554   21.7194 C   0  0  0  0  0  0  0  0  0  0  0  0
    9.2709  -14.9168   22.8519 O   0  0  0  0  0  0  0  0  0  0  0  0
   10.4077  -16.1682   21.3108 N   0  0  0  0  0  0  0  0  0  0  0  0
   11.6004  -16.2158   22.1942 C   0  0  1  0  0  0  0  0  0  0  0  0
   11.9046  -17.6791   22.3512 C   0  0  0  0  0  0  0  0  0  0  0  0
   11.9981  -18.1795   23.7154 C   0  0  0  0  0  0  0  0  0  0  0  0
   12.4711  -17.5394   24.6785 O   0  0  0  0  0  0  0  0  0  0  0  0
   12.6993  -15.4472   21.5487 C   0  0  0  0  0  0  0  0  0  0  0  0
   13.7550  -15.2345   22.1891 O   0  0  0  0  0  0  0  0  0  0  0  0
   11.5344  -19.4768   24.0263 O   0  0  0  0  0  0  0  0  0  0  0  0
   12.5273  -14.9656   20.2074 N   0  0  0  0  0  0  0  0  0  0  0  0
   13.5622  -14.1900   19.5775 C   0  0  0  0  0  0  0  0  0  0  0  0
   14.5782  -15.0547   18.9110 C   0  0  0  0  0  0  0  0  0  0  0  0
   15.4510  -14.5820   17.9551 O   0  0  0  0  0  0  0  0  0  0  0  0
   14.6258  -16.2537   19.2450 O   0  0  0  0  0  0  0  0  0  0  0  0
  1  2  1  0
  2  3  1  0
  3  5  1  0
  3  4  1  1
  5  7  1  0
  5  6  1  1
  7  9  1  0
  8  7  2  0
  9 10  1  0
 10 14  1  0
 10 11  1  6
 11 12  1  0
 12 13  2  0
 14 15  2  0
 14 17  1  0
 16 12  1  0
 17 18  1  0
 18 19  1  0
 19 20  1  0
 21 19  2  0
M  END
$$$$
