PNS.pdb
     RDKit          3D

 22 22  0  0  1  0  0  0  0  0999 V2000
   25.5108  -34.3546   -7.7356 N   0  0  0  0  0  0  0  0  0  0  0  0
   24.6865  -33.7567   -8.7400 C   0  0  0  0  0  0  0  0  0  0  0  0
   25.6660  -32.7543   -9.3660 C   0  0  0  0  0  0  0  0  0  0  0  0
   26.3528  -32.1860   -8.1378 C   0  0  0  0  0  0  0  0  0  0  0  0
   26.1342  -33.2618   -7.0718 C   0  0  1  0  0  0  0  0  0  0  0  0
   25.3087  -32.7370   -5.9742 C   0  0  0  0  0  0  0  0  0  0  0  0
   25.6624  -31.7058   -5.3166 O   0  0  0  0  0  0  0  0  0  0  0  0
   19.9403  -33.7426   -5.1789 N   0  0  0  0  0  0  0  0  0  0  0  0
   21.2552  -33.4566   -5.6106 C   0  0  0  0  0  0  0  0  0  0  0  0
   21.7298  -34.1209   -6.5698 O   0  0  0  0  0  0  0  0  0  0  0  0
   21.9832  -32.3891   -4.8979 C   0  0  0  0  0  0  0  0  0  0  0  0
   23.3446  -32.7841   -4.4221 C   0  0  2  0  0  0  0  0  0  0  0  0
   24.0918  -33.3230   -5.5773 N   0  0  0  0  0  0  0  0  0  0  0  0
   23.2577  -33.8777   -3.4288 C   0  0  0  0  0  0  0  0  0  0  0  0
   22.1713  -34.3413   -3.0344 O   0  0  0  0  0  0  0  0  0  0  0  0
   25.7937  -37.2397   -0.9724 O   0  0  0  0  0  0  0  0  0  0  0  0
   25.8467  -36.0941   -1.7484 C   0  0  0  0  0  0  0  0  0  0  0  0
   24.4347  -35.5194   -1.9277 C   0  0  2  0  0  0  0  0  0  0  0  0
   24.4459  -34.4507   -2.8768 N   0  0  0  0  0  0  0  0  0  0  0  0
   23.9386  -35.1648   -0.6094 C   0  0  0  0  0  0  0  0  0  0  0  0
   23.6930  -33.9802   -0.3099 O   0  0  0  0  0  0  0  0  0  0  0  0
   23.7281  -36.1377    0.3431 O   0  0  0  0  0  0  0  0  0  0  0  0
  2  1  1  0
  3  2  1  0
  4  3  1  0
  4  5  1  0
  5  1  1  0
  5  6  1  1
  6 13  1  0
  7  6  2  0
  9  8  1  0
 10  9  2  0
 11  9  1  0
 12 11  1  6
 12 13  1  0
 12 14  1  0
 14 19  1  0
 15 14  2  0
 16 17  1  0
 18 20  1  0
 18 17  1  1
 19 18  1  0
 20 22  1  0
 21 20  2  0
M  END
$$$$
