PNS.pdb
     RDKit          3D

 22 22  0  0  1  0  0  0  0  0999 V2000
   19.0706  -10.8186  -17.3970 N   0  0  0  0  0  0  0  0  0  0  0  0
   19.9233  -11.9472  -17.6087 C   0  0  0  0  0  0  0  0  0  0  0  0
   19.4390  -12.8936  -16.5014 C   0  0  0  0  0  0  0  0  0  0  0  0
   19.2777  -11.9414  -15.3306 C   0  0  0  0  0  0  0  0  0  0  0  0
   19.1257  -10.5724  -15.9970 C   0  0  1  0  0  0  0  0  0  0  0  0
   20.2488   -9.6963  -15.6327 C   0  0  0  0  0  0  0  0  0  0  0  0
   20.5034   -9.4201  -14.4162 O   0  0  0  0  0  0  0  0  0  0  0  0
   25.6414   -7.6900  -17.6548 N   0  0  0  0  0  0  0  0  0  0  0  0
   24.5291   -7.5742  -16.7909 C   0  0  0  0  0  0  0  0  0  0  0  0
   24.5993   -6.7661  -15.8272 O   0  0  0  0  0  0  0  0  0  0  0  0
   23.3546   -8.4177  -17.0847 C   0  0  0  0  0  0  0  0  0  0  0  0
   22.2061   -8.2222  -16.1474 C   0  0  2  0  0  0  0  0  0  0  0  0
   21.1080   -9.1105  -16.5816 N   0  0  0  0  0  0  0  0  0  0  0  0
   21.6878   -6.8386  -16.2321 C   0  0  0  0  0  0  0  0  0  0  0  0
   21.4415   -6.2795  -17.3174 O   0  0  0  0  0  0  0  0  0  0  0  0
   19.3490   -5.0513  -13.4217 O   0  0  0  0  0  0  0  0  0  0  0  0
   19.5770   -4.5589  -14.6957 C   0  0  0  0  0  0  0  0  0  0  0  0
   21.0625   -4.7047  -15.0534 C   0  0  2  0  0  0  0  0  0  0  0  0
   21.4473   -6.0813  -15.0433 N   0  0  0  0  0  0  0  0  0  0  0  0
   21.8135   -3.8506  -14.1499 C   0  0  0  0  0  0  0  0  0  0  0  0
   22.6631   -4.3247  -13.3710 O   0  0  0  0  0  0  0  0  0  0  0  0
   21.6003   -2.4895  -14.1358 O   0  0  0  0  0  0  0  0  0  0  0  0
  2  1  1  0
  3  2  1  0
  4  3  1  0
  4  5  1  0
  5  1  1  0
  5  6  1  6
  6 13  1  0
  7  6  2  0
  9  8  1  0
 10  9  2  0
 11  9  1  0
 12 11  1  6
 12 13  1  0
 12 14  1  0
 14 19  1  0
 15 14  2  0
 16 17  1  0
 18 20  1  0
 18 17  1  1
 19 18  1  0
 20 22  1  0
 21 20  2  0
M  END
$$$$
