PNS.pdb
     RDKit          3D

 22 22  0  0  1  0  0  0  0  0999 V2000
   27.3961  -20.0839  -11.8883 N   0  0  0  0  0  0  0  0  0  0  0  0
   27.9491  -21.3968  -11.7612 C   0  0  0  0  0  0  0  0  0  0  0  0
   29.2009  -21.2753  -12.6412 C   0  0  0  0  0  0  0  0  0  0  0  0
   28.6659  -20.5040  -13.8338 C   0  0  0  0  0  0  0  0  0  0  0  0
   27.4194  -19.8076  -13.2835 C   0  0  1  0  0  0  0  0  0  0  0  0
   26.2132  -20.2991  -13.9654 C   0  0  0  0  0  0  0  0  0  0  0  0
   26.1653  -20.3974  -15.2339 O   0  0  0  0  0  0  0  0  0  0  0  0
   25.4148  -23.2680  -14.9334 N   0  0  0  0  0  0  0  0  0  0  0  0
   24.3879  -23.6325  -14.0337 C   0  0  0  0  0  0  0  0  0  0  0  0
   24.2542  -24.8492  -13.7365 O   0  0  0  0  0  0  0  0  0  0  0  0
   23.5386  -22.5489  -13.5028 C   0  0  0  0  0  0  0  0  0  0  0  0
   23.8741  -21.1899  -14.0284 C   0  0  2  0  0  0  0  0  0  0  0  0
   25.0465  -20.6896  -13.2812 N   0  0  0  0  0  0  0  0  0  0  0  0
   22.7709  -20.2383  -13.7683 C   0  0  0  0  0  0  0  0  0  0  0  0
   22.4863  -19.8373  -12.6241 O   0  0  0  0  0  0  0  0  0  0  0  0
   19.9854  -16.8089  -15.6869 O   0  0  0  0  0  0  0  0  0  0  0  0
   20.9036  -17.8223  -15.9042 C   0  0  0  0  0  0  0  0  0  0  0  0
   20.9607  -18.7463  -14.6799 C   0  0  2  0  0  0  0  0  0  0  0  0
   21.9775  -19.7369  -14.8471 N   0  0  0  0  0  0  0  0  0  0  0  0
   19.6226  -19.2697  -14.4669 C   0  0  0  0  0  0  0  0  0  0  0  0
   19.2496  -20.3272  -15.0109 O   0  0  0  0  0  0  0  0  0  0  0  0
   18.7326  -18.6029  -13.6537 O   0  0  0  0  0  0  0  0  0  0  0  0
  2  1  1  0
  3  2  1  0
  4  3  1  0
  4  5  1  0
  5  1  1  0
  5  6  1  6
  6 13  1  0
  7  6  2  0
  9  8  1  0
 10  9  2  0
 11  9  1  0
 12 11  1  1
 12 13  1  0
 12 14  1  0
 14 19  1  0
 15 14  2  0
 16 17  1  0
 18 20  1  0
 18 17  1  6
 19 18  1  0
 20 22  1  0
 21 20  2  0
M  END
$$$$
