DNL.pdb
     RDKit          3D

 25 24  0  0  1  0  0  0  0  0999 V2000
   14.7627  -11.5378  -12.4221 N   0  0  0  0  0  0  0  0  0  0  0  0
   15.8911  -10.6822  -12.2385 C   0  0  1  0  0  0  0  0  0  0  0  0
   16.7316  -10.4869  -13.4786 C   0  0  0  0  0  0  0  0  0  0  0  0
   17.2791  -11.7594  -13.9351 C   0  0  0  0  0  0  0  0  0  0  0  0
   17.4458  -12.7680  -13.2052 O   0  0  0  0  0  0  0  0  0  0  0  0
   15.4794   -9.3981  -11.6408 C   0  0  0  0  0  0  0  0  0  0  0  0
   14.5953   -8.7008  -12.2606 O   0  0  0  0  0  0  0  0  0  0  0  0
   17.6674  -11.9210  -15.2839 O   0  0  0  0  0  0  0  0  0  0  0  0
   14.0693   -6.0559   -7.8501 N   0  0  0  0  0  0  0  0  0  0  0  0
   15.4865   -6.2096   -7.9388 C   0  0  0  0  0  0  0  0  0  0  0  0
   16.2666   -5.3004   -7.5657 O   0  0  0  0  0  0  0  0  0  0  0  0
   15.9661   -7.4858   -8.4869 C   0  0  0  0  0  0  0  0  0  0  0  0
   15.6003   -7.6435   -9.9467 C   0  0  2  0  0  0  0  0  0  0  0  0
   16.0475   -8.9553  -10.4213 N   0  0  0  0  0  0  0  0  0  0  0  0
   16.1682   -6.5384  -10.7392 C   0  0  0  0  0  0  0  0  0  0  0  0
   17.0834   -6.7434  -11.5717 O   0  0  0  0  0  0  0  0  0  0  0  0
   17.3095   -3.2767  -14.0279 C   0  0  0  0  0  0  0  0  0  0  0  0
   15.8541   -3.7630  -14.1091 C   0  0  2  0  0  0  0  0  0  0  0  0
   14.9569   -2.5779  -13.9789 C   0  0  0  0  0  0  0  0  0  0  0  0
   15.5733   -4.7508  -13.0169 C   0  0  0  0  0  0  0  0  0  0  0  0
   16.0510   -4.2076  -11.6907 C   0  0  2  0  0  0  0  0  0  0  0  0
   15.7312   -5.1935  -10.6328 N   0  0  0  0  0  0  0  0  0  0  0  0
   15.5573   -2.9034  -11.3574 C   0  0  0  0  0  0  0  0  0  0  0  0
   14.3763   -2.7957  -10.8560 O   0  0  0  0  0  0  0  0  0  0  0  0
   16.2370   -1.6899  -11.5172 O   0  0  0  0  0  0  0  0  0  0  0  0
  2  1  1  6
  2  3  1  0
  3  4  1  0
  4  5  2  0
  6  2  1  0
  7  6  2  0
  8  4  1  0
  9 10  1  0
 10 12  1  0
 11 10  2  0
 13 12  1  1
 13 15  1  0
 13 14  1  0
 14  6  1  0
 15 16  2  0
 18 17  1  1
 18 19  1  0
 21 20  1  6
 20 18  1  0
 22 21  1  0
 22 15  1  0
 23 21  1  0
 24 23  2  0
 25 23  1  0
M  END
$$$$
