DNL.pdb
     RDKit          3D

 25 24  0  0  1  0  0  0  0  0999 V2000
   16.4234  -11.6363  -16.2144 N   0  0  0  0  0  0  0  0  0  0  0  0
   16.4388  -10.2397  -15.9171 C   0  0  1  0  0  0  0  0  0  0  0  0
   16.0715   -9.9034  -14.4907 C   0  0  0  0  0  0  0  0  0  0  0  0
   14.6338  -10.0363  -14.2843 C   0  0  0  0  0  0  0  0  0  0  0  0
   13.8065  -10.3229  -15.1851 O   0  0  0  0  0  0  0  0  0  0  0  0
   17.7246   -9.6365  -16.3147 C   0  0  0  0  0  0  0  0  0  0  0  0
   18.6965   -9.6809  -15.4747 O   0  0  0  0  0  0  0  0  0  0  0  0
   14.0806   -9.8364  -12.9997 O   0  0  0  0  0  0  0  0  0  0  0  0
   19.5329  -10.3701  -19.6412 N   0  0  0  0  0  0  0  0  0  0  0  0
   19.4100   -9.0738  -20.2280 C   0  0  0  0  0  0  0  0  0  0  0  0
   19.4540   -8.9130  -21.4717 O   0  0  0  0  0  0  0  0  0  0  0  0
   19.2294   -7.9546  -19.2931 C   0  0  0  0  0  0  0  0  0  0  0  0
   19.1810   -8.4251  -17.8558 C   0  0  2  0  0  0  0  0  0  0  0  0
   17.8738   -9.0283  -17.5852 N   0  0  0  0  0  0  0  0  0  0  0  0
   19.4823   -7.3094  -16.9413 C   0  0  0  0  0  0  0  0  0  0  0  0
   18.5822   -6.5229  -16.5621 O   0  0  0  0  0  0  0  0  0  0  0  0
   20.5581   -4.6565  -12.8750 C   0  0  0  0  0  0  0  0  0  0  0  0
   21.8622   -5.3880  -13.2291 C   0  0  2  0  0  0  0  0  0  0  0  0
   22.8079   -4.3976  -13.8217 C   0  0  0  0  0  0  0  0  0  0  0  0
   21.5905   -6.4951  -14.2027 C   0  0  0  0  0  0  0  0  0  0  0  0
   21.0030   -5.9337  -15.4761 C   0  0  2  0  0  0  0  0  0  0  0  0
   20.7769   -7.0485  -16.4246 N   0  0  0  0  0  0  0  0  0  0  0  0
   21.7634   -4.8787  -16.0800 C   0  0  0  0  0  0  0  0  0  0  0  0
   21.6454   -3.6836  -15.6154 O   0  0  0  0  0  0  0  0  0  0  0  0
   22.6537   -5.0030  -17.1532 O   0  0  0  0  0  0  0  0  0  0  0  0
  2  1  1  1
  2  3  1  0
  3  4  1  0
  4  5  2  0
  6  2  1  0
  7  6  2  0
  8  4  1  0
  9 10  1  0
 10 12  1  0
 11 10  2  0
 13 12  1  6
 13 15  1  0
 13 14  1  0
 14  6  1  0
 15 16  2  0
 18 17  1  6
 18 19  1  0
 21 20  1  1
 20 18  1  0
 22 21  1  0
 22 15  1  0
 23 21  1  0
 24 23  2  0
 25 23  1  0
M  END
$$$$
