DNL.pdb
     RDKit          3D

 25 24  0  0  1  0  0  0  0  0999 V2000
   15.4658  -13.2967  -15.3913 N   0  0  0  0  0  0  0  0  0  0  0  0
   15.5004  -11.8954  -15.6634 C   0  0  1  0  0  0  0  0  0  0  0  0
   14.6374  -11.0621  -14.7451 C   0  0  0  0  0  0  0  0  0  0  0  0
   13.2341  -11.1564  -15.1314 C   0  0  0  0  0  0  0  0  0  0  0  0
   12.8288  -11.4244  -16.2898 O   0  0  0  0  0  0  0  0  0  0  0  0
   16.8917  -11.4078  -15.7093 C   0  0  0  0  0  0  0  0  0  0  0  0
   17.6495  -11.6522  -14.7004 O   0  0  0  0  0  0  0  0  0  0  0  0
   12.2189  -10.9374  -14.1735 O   0  0  0  0  0  0  0  0  0  0  0  0
   18.8599  -12.7332  -19.3839 N   0  0  0  0  0  0  0  0  0  0  0  0
   19.5870  -12.1309  -18.3122 C   0  0  0  0  0  0  0  0  0  0  0  0
   20.3284  -12.8112  -17.5625 O   0  0  0  0  0  0  0  0  0  0  0  0
   19.4142  -10.6810  -18.1471 C   0  0  0  0  0  0  0  0  0  0  0  0
   18.7896  -10.3379  -16.8123 C   0  0  2  0  0  0  0  0  0  0  0  0
   17.3683  -10.6922  -16.8348 N   0  0  0  0  0  0  0  0  0  0  0  0
   19.0064   -8.9149  -16.4961 C   0  0  0  0  0  0  0  0  0  0  0  0
   18.1420   -8.0509  -16.7773 O   0  0  0  0  0  0  0  0  0  0  0  0
   23.1814   -5.0905  -14.0551 C   0  0  0  0  0  0  0  0  0  0  0  0
   21.6906   -5.3405  -14.3306 C   0  0  2  0  0  0  0  0  0  0  0  0
   20.9112   -4.8715  -13.1479 C   0  0  0  0  0  0  0  0  0  0  0  0
   21.4430   -6.7994  -14.5716 C   0  0  0  0  0  0  0  0  0  0  0  0
   20.3340   -6.9776  -15.5817 C   0  0  2  0  0  0  0  0  0  0  0  0
   20.1739   -8.4237  -15.8585 N   0  0  0  0  0  0  0  0  0  0  0  0
   20.4921   -6.2270  -16.7931 C   0  0  0  0  0  0  0  0  0  0  0  0
   21.2339   -6.7078  -17.7294 O   0  0  0  0  0  0  0  0  0  0  0  0
   19.9095   -4.9884  -17.0873 O   0  0  0  0  0  0  0  0  0  0  0  0
  2  1  1  1
  2  3  1  0
  3  4  1  0
  4  5  2  0
  6  2  1  0
  7  6  2  0
  8  4  1  0
  9 10  1  0
 10 12  1  0
 11 10  2  0
 13 12  1  6
 13 15  1  0
 13 14  1  0
 14  6  1  0
 15 16  2  0
 18 17  1  1
 18 19  1  0
 21 20  1  1
 20 18  1  0
 22 21  1  0
 22 15  1  0
 23 21  1  0
 24 23  2  0
 25 23  1  0
M  END
$$$$
