DNL.pdb
     RDKit          3D

 25 24  0  0  1  0  0  0  0  0999 V2000
   24.0403  -16.8983  -15.9735 N   0  0  0  0  0  0  0  0  0  0  0  0
   23.9249  -18.0575  -16.7992 C   0  0  1  0  0  0  0  0  0  0  0  0
   24.1008  -17.7894  -18.2756 C   0  0  0  0  0  0  0  0  0  0  0  0
   23.4016  -16.5699  -18.6642 C   0  0  0  0  0  0  0  0  0  0  0  0
   22.1650  -16.3859  -18.5418 O   0  0  0  0  0  0  0  0  0  0  0  0
   24.8184  -19.1291  -16.3207 C   0  0  0  0  0  0  0  0  0  0  0  0
   24.5978  -20.3264  -16.7327 O   0  0  0  0  0  0  0  0  0  0  0  0
   24.1188  -15.4897  -19.2253 O   0  0  0  0  0  0  0  0  0  0  0  0
   28.8881  -17.9816  -16.5301 N   0  0  0  0  0  0  0  0  0  0  0  0
   28.4092  -19.3236  -16.4320 C   0  0  0  0  0  0  0  0  0  0  0  0
   28.2763  -20.0457  -17.4496 O   0  0  0  0  0  0  0  0  0  0  0  0
   28.0877  -19.7988  -15.0792 C   0  0  0  0  0  0  0  0  0  0  0  0
   26.5990  -19.9953  -14.8916 C   0  0  2  0  0  0  0  0  0  0  0  0
   25.8835  -18.8377  -15.4337 N   0  0  0  0  0  0  0  0  0  0  0  0
   26.2885  -20.2295  -13.4702 C   0  0  0  0  0  0  0  0  0  0  0  0
   26.8546  -19.5686  -12.5672 O   0  0  0  0  0  0  0  0  0  0  0  0
   25.7538  -21.9144   -9.2072 C   0  0  0  0  0  0  0  0  0  0  0  0
   26.4660  -20.7408   -9.8974 C   0  0  2  0  0  0  0  0  0  0  0  0
   26.8978  -19.7728   -8.8473 C   0  0  0  0  0  0  0  0  0  0  0  0
   25.5440  -20.0732  -10.8730 C   0  0  0  0  0  0  0  0  0  0  0  0
   24.7772  -21.1123  -11.6568 C   0  0  2  0  0  0  0  0  0  0  0  0
   25.3445  -21.1884  -13.0227 N   0  0  0  0  0  0  0  0  0  0  0  0
   23.3569  -20.9194  -11.6897 C   0  0  0  0  0  0  0  0  0  0  0  0
   22.8651  -20.0648  -12.5178 O   0  0  0  0  0  0  0  0  0  0  0  0
   22.4084  -21.5790  -10.8989 O   0  0  0  0  0  0  0  0  0  0  0  0
  2  1  1  1
  2  3  1  0
  3  4  1  0
  4  5  2  0
  6  2  1  0
  7  6  2  0
  8  4  1  0
  9 10  1  0
 10 12  1  0
 11 10  2  0
 13 12  1  1
 13 15  1  0
 13 14  1  0
 14  6  1  0
 15 16  2  0
 18 17  1  1
 18 19  1  0
 21 20  1  1
 20 18  1  0
 22 21  1  0
 22 15  1  0
 23 21  1  0
 24 23  2  0
 25 23  1  0
M  END
$$$$
