DNL.pdb
     RDKit          3D

 25 24  0  0  1  0  0  0  0  0999 V2000
   13.2664  -11.7223  -10.4969 N   0  0  0  0  0  0  0  0  0  0  0  0
   14.3398  -11.1775  -11.2651 C   0  0  1  0  0  0  0  0  0  0  0  0
   14.3020  -11.5405  -12.7312 C   0  0  0  0  0  0  0  0  0  0  0  0
   14.4692  -12.9783  -12.9101 C   0  0  0  0  0  0  0  0  0  0  0  0
   13.6035  -13.7417  -13.4058 O   0  0  0  0  0  0  0  0  0  0  0  0
   14.4420   -9.7208  -11.0578 C   0  0  0  0  0  0  0  0  0  0  0  0
   13.7747   -8.9521  -11.8427 O   0  0  0  0  0  0  0  0  0  0  0  0
   15.6700  -13.6073  -12.5118 O   0  0  0  0  0  0  0  0  0  0  0  0
   15.3371   -5.1044   -9.4711 N   0  0  0  0  0  0  0  0  0  0  0  0
   15.6455   -5.8875   -8.3172 C   0  0  0  0  0  0  0  0  0  0  0  0
   15.8392   -5.3537   -7.1983 O   0  0  0  0  0  0  0  0  0  0  0  0
   15.7190   -7.3408   -8.5219 C   0  0  0  0  0  0  0  0  0  0  0  0
   15.2893   -7.7340   -9.9186 C   0  0  2  0  0  0  0  0  0  0  0  0
   15.2540   -9.1947  -10.0234 N   0  0  0  0  0  0  0  0  0  0  0  0
   16.1812   -7.1227  -10.9199 C   0  0  0  0  0  0  0  0  0  0  0  0
   17.3572   -7.5305  -11.0732 O   0  0  0  0  0  0  0  0  0  0  0  0
   16.5246   -5.5015  -16.5891 C   0  0  0  0  0  0  0  0  0  0  0  0
   17.1833   -5.4066  -15.2041 C   0  0  2  0  0  0  0  0  0  0  0  0
   18.4572   -6.1828  -15.2378 C   0  0  0  0  0  0  0  0  0  0  0  0
   16.2668   -5.9562  -14.1528 C   0  0  0  0  0  0  0  0  0  0  0  0
   16.7248   -5.5145  -12.7827 C   0  0  2  0  0  0  0  0  0  0  0  0
   15.7890   -6.0596  -11.7724 N   0  0  0  0  0  0  0  0  0  0  0  0
   16.8955   -4.0993  -12.6285 C   0  0  0  0  0  0  0  0  0  0  0  0
   15.9162   -3.4020  -12.1673 O   0  0  0  0  0  0  0  0  0  0  0  0
   18.0469   -3.3618  -12.9296 O   0  0  0  0  0  0  0  0  0  0  0  0
  2  1  1  1
  2  3  1  0
  3  4  1  0
  4  5  2  0
  6  2  1  0
  7  6  2  0
  8  4  1  0
  9 10  1  0
 10 12  1  0
 11 10  2  0
 13 12  1  1
 13 15  1  0
 13 14  1  0
 14  6  1  0
 15 16  2  0
 18 17  1  6
 18 19  1  0
 21 20  1  6
 20 18  1  0
 22 21  1  0
 22 15  1  0
 23 21  1  0
 24 23  2  0
 25 23  1  0
M  END
$$$$
