DNL.pdb
     RDKit          3D

 25 24  0  0  1  0  0  0  0  0999 V2000
   15.4124  -12.1814  -14.5990 N   0  0  0  0  0  0  0  0  0  0  0  0
   15.9975  -11.5121  -15.7164 C   0  0  1  0  0  0  0  0  0  0  0  0
   15.0243  -11.1849  -16.8248 C   0  0  0  0  0  0  0  0  0  0  0  0
   14.4526  -12.4044  -17.3845 C   0  0  0  0  0  0  0  0  0  0  0  0
   13.2219  -12.6312  -17.4941 O   0  0  0  0  0  0  0  0  0  0  0  0
   16.7538  -10.3251  -15.2753 C   0  0  0  0  0  0  0  0  0  0  0  0
   16.1246   -9.4221  -14.6114 O   0  0  0  0  0  0  0  0  0  0  0  0
   15.2990  -13.4360  -17.8485 O   0  0  0  0  0  0  0  0  0  0  0  0
   20.1620   -6.8466  -14.2706 N   0  0  0  0  0  0  0  0  0  0  0  0
   20.9733   -7.9917  -14.5357 C   0  0  0  0  0  0  0  0  0  0  0  0
   22.2094   -7.9804  -14.3204 O   0  0  0  0  0  0  0  0  0  0  0  0
   20.2755   -9.1700  -15.0687 C   0  0  0  0  0  0  0  0  0  0  0  0
   18.7763   -8.9676  -15.1030 C   0  0  2  0  0  0  0  0  0  0  0  0
   18.1308  -10.1931  -15.5796 N   0  0  0  0  0  0  0  0  0  0  0  0
   18.4363   -7.7975  -15.9319 C   0  0  0  0  0  0  0  0  0  0  0  0
   18.3688   -7.8875  -17.1809 O   0  0  0  0  0  0  0  0  0  0  0  0
   14.9544   -3.2921  -16.5723 C   0  0  0  0  0  0  0  0  0  0  0  0
   15.8288   -4.2925  -17.3442 C   0  0  2  0  0  0  0  0  0  0  0  0
   15.0305   -4.8283  -18.4852 C   0  0  0  0  0  0  0  0  0  0  0  0
   16.2624   -5.4091  -16.4426 C   0  0  0  0  0  0  0  0  0  0  0  0
   17.7645   -5.3940  -16.2834 C   0  0  2  0  0  0  0  0  0  0  0  0
   18.1576   -6.5138  -15.3975 N   0  0  0  0  0  0  0  0  0  0  0  0
   18.3126   -4.1495  -15.8288 C   0  0  0  0  0  0  0  0  0  0  0  0
   18.3055   -3.1391  -16.6269 O   0  0  0  0  0  0  0  0  0  0  0  0
   18.8721   -3.8962  -14.5707 O   0  0  0  0  0  0  0  0  0  0  0  0
  2  1  1  1
  2  3  1  0
  3  4  1  0
  4  5  2  0
  6  2  1  0
  7  6  2  0
  8  4  1  0
  9 10  1  0
 10 12  1  0
 11 10  2  0
 13 12  1  6
 13 15  1  0
 13 14  1  0
 14  6  1  0
 15 16  2  0
 18 17  1  1
 18 19  1  0
 21 20  1  1
 20 18  1  0
 22 21  1  0
 22 15  1  0
 23 21  1  0
 24 23  2  0
 25 23  1  0
M  END
$$$$
