DNL.pdb
     RDKit          3D

 25 24  0  0  1  0  0  0  0  0999 V2000
   18.0598  -14.0694  -19.0456 N   0  0  0  0  0  0  0  0  0  0  0  0
   18.0840  -13.4179  -17.7753 C   0  0  1  0  0  0  0  0  0  0  0  0
   18.6785  -14.2482  -16.6618 C   0  0  0  0  0  0  0  0  0  0  0  0
   17.6325  -14.9577  -15.9339 C   0  0  0  0  0  0  0  0  0  0  0  0
   16.7932  -15.7293  -16.4613 O   0  0  0  0  0  0  0  0  0  0  0  0
   18.7246  -12.0936  -17.8811 C   0  0  0  0  0  0  0  0  0  0  0  0
   19.9644  -12.0489  -18.2174 O   0  0  0  0  0  0  0  0  0  0  0  0
   17.5094  -14.7989  -14.5355 O   0  0  0  0  0  0  0  0  0  0  0  0
   19.8988   -7.2953  -18.1329 N   0  0  0  0  0  0  0  0  0  0  0  0
   18.4890   -7.2783  -18.3609 C   0  0  0  0  0  0  0  0  0  0  0  0
   17.8979   -6.2310  -18.7191 O   0  0  0  0  0  0  0  0  0  0  0  0
   17.7843   -8.5509  -18.1532 C   0  0  0  0  0  0  0  0  0  0  0  0
   18.7306   -9.6559  -17.7368 C   0  0  2  0  0  0  0  0  0  0  0  0
   17.9880  -10.9129  -17.6173 N   0  0  0  0  0  0  0  0  0  0  0  0
   19.4223   -9.2938  -16.4869 C   0  0  0  0  0  0  0  0  0  0  0  0
   18.8397   -9.3724  -15.3792 O   0  0  0  0  0  0  0  0  0  0  0  0
   22.4625  -10.9794  -13.9796 C   0  0  0  0  0  0  0  0  0  0  0  0
   23.0527  -10.3525  -15.2523 C   0  0  2  0  0  0  0  0  0  0  0  0
   24.5020  -10.7011  -15.3168 C   0  0  0  0  0  0  0  0  0  0  0  0
   22.8761   -8.8639  -15.2296 C   0  0  0  0  0  0  0  0  0  0  0  0
   21.4085   -8.5167  -15.1440 C   0  0  2  0  0  0  0  0  0  0  0  0
   20.7676   -8.8480  -16.4375 N   0  0  0  0  0  0  0  0  0  0  0  0
   21.1276   -7.1666  -14.7513 C   0  0  0  0  0  0  0  0  0  0  0  0
   20.9337   -6.2812  -15.6658 O   0  0  0  0  0  0  0  0  0  0  0  0
   21.0335   -6.6831  -13.4408 O   0  0  0  0  0  0  0  0  0  0  0  0
  2  1  1  6
  2  3  1  0
  3  4  1  0
  4  5  2  0
  6  2  1  0
  7  6  2  0
  8  4  1  0
  9 10  1  0
 10 12  1  0
 11 10  2  0
 13 12  1  1
 13 15  1  0
 13 14  1  0
 14  6  1  0
 15 16  2  0
 18 17  1  1
 18 19  1  0
 21 20  1  6
 20 18  1  0
 22 21  1  0
 22 15  1  0
 23 21  1  0
 24 23  2  0
 25 23  1  0
M  END
$$$$
