VDL.pdb
     RDKit          3D

 24 23  0  0  1  0  0  0  0  0999 V2000
   12.8496  -12.8458  -12.0192 C   0  0  0  0  0  0  0  0  0  0  0  0
   13.1260  -12.6719  -13.4965 C   0  0  2  0  0  0  0  0  0  0  0  0
   12.2525  -13.6244  -14.2448 C   0  0  0  0  0  0  0  0  0  0  0  0
   14.5940  -12.9134  -13.7390 C   0  0  2  0  0  0  0  0  0  0  0  0
   14.9704  -14.2517  -13.3958 N   0  0  0  0  0  0  0  0  0  0  0  0
   15.4395  -11.8968  -13.0466 C   0  0  0  0  0  0  0  0  0  0  0  0
   15.9426  -12.1654  -11.9263 O   0  0  0  0  0  0  0  0  0  0  0  0
   15.7067  -10.6115  -13.6095 N   0  0  0  0  0  0  0  0  0  0  0  0
   16.5582   -9.6341  -12.9691 C   0  0  1  0  0  0  0  0  0  0  0  0
   17.5960   -9.0752  -13.8931 C   0  0  0  0  0  0  0  0  0  0  0  0
   18.4840   -8.0957  -13.2811 C   0  0  0  0  0  0  0  0  0  0  0  0
   18.9969   -8.3128  -12.1620 O   0  0  0  0  0  0  0  0  0  0  0  0
   15.7533   -8.5815  -12.3085 C   0  0  0  0  0  0  0  0  0  0  0  0
   14.8820   -7.9639  -12.9617 O   0  0  0  0  0  0  0  0  0  0  0  0
   18.7761   -6.9101  -13.9241 O   0  0  0  0  0  0  0  0  0  0  0  0
   14.9624   -6.4459   -6.5973 C   0  0  0  0  0  0  0  0  0  0  0  0
   14.5388   -6.2890   -8.0561 C   0  0  2  0  0  0  0  0  0  0  0  0
   13.0451   -6.4284   -8.1123 C   0  0  0  0  0  0  0  0  0  0  0  0
   15.2327   -7.3440   -8.8435 C   0  0  0  0  0  0  0  0  0  0  0  0
   15.1509   -7.1684  -10.3351 C   0  0  2  0  0  0  0  0  0  0  0  0
   15.9369   -8.2448  -10.9474 N   0  0  0  0  0  0  0  0  0  0  0  0
   15.7924   -5.9074  -10.7408 C   0  0  0  0  0  0  0  0  0  0  0  0
   17.0336   -5.8280  -10.8711 O   0  0  0  0  0  0  0  0  0  0  0  0
   15.0683   -4.7296  -11.0042 O   0  0  0  0  0  0  0  0  0  0  0  0
  2  1  1  1
  2  4  1  0
  3  2  1  0
  4  5  1  1
  6  7  2  0
  6  4  1  0
  8  6  1  0
  9  8  1  0
  9 10  1  6
 10 11  1  0
 11 15  1  0
 12 11  2  0
 13  9  1  0
 14 13  2  0
 17 16  1  1
 17 19  1  0
 18 17  1  0
 20 19  1  1
 20 22  1  0
 20 21  1  0
 21 13  1  0
 22 24  1  0
 23 22  2  0
M  END
$$$$
