VDL.pdb
     RDKit          3D

 24 23  0  0  1  0  0  0  0  0999 V2000
   17.7949  -14.2811  -15.6134 C   0  0  0  0  0  0  0  0  0  0  0  0
   16.3513  -13.8314  -15.5613 C   0  0  2  0  0  0  0  0  0  0  0  0
   15.4984  -15.0402  -15.3573 C   0  0  0  0  0  0  0  0  0  0  0  0
   16.0321  -13.1018  -16.8410 C   0  0  2  0  0  0  0  0  0  0  0  0
   16.0877  -13.9769  -17.9731 N   0  0  0  0  0  0  0  0  0  0  0  0
   16.8977  -11.8987  -17.0177 C   0  0  0  0  0  0  0  0  0  0  0  0
   17.8275  -11.9205  -17.8635 O   0  0  0  0  0  0  0  0  0  0  0  0
   16.7135  -10.7043  -16.2563 N   0  0  0  0  0  0  0  0  0  0  0  0
   17.5005   -9.5096  -16.4645 C   0  0  1  0  0  0  0  0  0  0  0  0
   16.6805   -8.2576  -16.4068 C   0  0  0  0  0  0  0  0  0  0  0  0
   17.4359   -7.0311  -16.6244 C   0  0  0  0  0  0  0  0  0  0  0  0
   18.1784   -6.9092  -17.6226 O   0  0  0  0  0  0  0  0  0  0  0  0
   18.6638   -9.4748  -15.5491 C   0  0  0  0  0  0  0  0  0  0  0  0
   18.5010   -9.7020  -14.3288 O   0  0  0  0  0  0  0  0  0  0  0  0
   17.3468   -5.9807  -15.7337 O   0  0  0  0  0  0  0  0  0  0  0  0
   24.6475  -10.2894  -15.7277 C   0  0  0  0  0  0  0  0  0  0  0  0
   23.5173   -9.7114  -14.8788 C   0  0  2  0  0  0  0  0  0  0  0  0
   23.4256  -10.5328  -13.6255 C   0  0  0  0  0  0  0  0  0  0  0  0
   22.2688   -9.7747  -15.6860 C   0  0  0  0  0  0  0  0  0  0  0  0
   21.0859   -9.0827  -15.0659 C   0  0  2  0  0  0  0  0  0  0  0  0
   19.9695   -9.1901  -16.0112 N   0  0  0  0  0  0  0  0  0  0  0  0
   21.3556   -7.6444  -14.9082 C   0  0  0  0  0  0  0  0  0  0  0  0
   21.2247   -6.8545  -15.8688 O   0  0  0  0  0  0  0  0  0  0  0  0
   21.7706   -7.0717  -13.6913 O   0  0  0  0  0  0  0  0  0  0  0  0
  2  1  1  6
  2  4  1  0
  3  2  1  0
  4  5  1  6
  6  7  2  0
  6  4  1  0
  8  6  1  0
  9  8  1  0
  9 10  1  1
 10 11  1  0
 11 15  1  0
 12 11  2  0
 13  9  1  0
 14 13  2  0
 17 16  1  6
 17 19  1  0
 18 17  1  0
 20 19  1  6
 20 22  1  0
 20 21  1  0
 21 13  1  0
 22 24  1  0
 23 22  2  0
M  END
$$$$
