VDL.pdb
     RDKit          3D

 24 23  0  0  1  0  0  0  0  0999 V2000
   15.0148  -12.9850  -18.1115 C   0  0  0  0  0  0  0  0  0  0  0  0
   16.1688  -13.8680  -17.6899 C   0  0  2  0  0  0  0  0  0  0  0  0
   15.6607  -15.2674  -17.5737 C   0  0  0  0  0  0  0  0  0  0  0  0
   16.7245  -13.3398  -16.3922 C   0  0  2  0  0  0  0  0  0  0  0  0
   15.7994  -13.5162  -15.3135 N   0  0  0  0  0  0  0  0  0  0  0  0
   17.1715  -11.9217  -16.5229 C   0  0  0  0  0  0  0  0  0  0  0  0
   18.1077  -11.6351  -17.3115 O   0  0  0  0  0  0  0  0  0  0  0  0
   16.5731  -10.8586  -15.7799 N   0  0  0  0  0  0  0  0  0  0  0  0
   17.0607   -9.4982  -15.8218 C   0  0  1  0  0  0  0  0  0  0  0  0
   16.0083   -8.4938  -15.4657 C   0  0  0  0  0  0  0  0  0  0  0  0
   14.9251   -8.3859  -16.4338 C   0  0  0  0  0  0  0  0  0  0  0  0
   13.7350   -8.3353  -16.0547 O   0  0  0  0  0  0  0  0  0  0  0  0
   18.2907   -9.3506  -15.0109 C   0  0  0  0  0  0  0  0  0  0  0  0
   18.3014   -9.7414  -13.8216 O   0  0  0  0  0  0  0  0  0  0  0  0
   15.1911   -8.3374  -17.7871 O   0  0  0  0  0  0  0  0  0  0  0  0
   23.7998  -10.8518  -15.2625 C   0  0  0  0  0  0  0  0  0  0  0  0
   22.9181   -9.8614  -14.5049 C   0  0  2  0  0  0  0  0  0  0  0  0
   22.8055  -10.3456  -13.0883 C   0  0  0  0  0  0  0  0  0  0  0  0
   21.5983   -9.8156  -15.1908 C   0  0  0  0  0  0  0  0  0  0  0  0
   20.6911   -8.7075  -14.7309 C   0  0  2  0  0  0  0  0  0  0  0  0
   19.4696   -8.7761  -15.5399 N   0  0  0  0  0  0  0  0  0  0  0  0
   21.2979   -7.3961  -15.0108 C   0  0  0  0  0  0  0  0  0  0  0  0
   21.1719   -6.8529  -16.1303 O   0  0  0  0  0  0  0  0  0  0  0  0
   22.0455   -6.6788  -14.0582 O   0  0  0  0  0  0  0  0  0  0  0  0
  2  1  1  1
  2  4  1  0
  3  2  1  0
  4  5  1  1
  6  7  2  0
  6  4  1  0
  8  6  1  0
  9  8  1  0
  9 10  1  1
 10 11  1  0
 11 15  1  0
 12 11  2  0
 13  9  1  0
 14 13  2  0
 17 16  1  6
 17 19  1  0
 18 17  1  0
 20 19  1  6
 20 22  1  0
 20 21  1  0
 21 13  1  0
 22 24  1  0
 23 22  2  0
M  END
$$$$
