VDL.pdb
     RDKit          3D

 24 23  0  0  1  0  0  0  0  0999 V2000
   18.0150   -9.1425  -18.4986 C   0  0  0  0  0  0  0  0  0  0  0  0
   19.4834   -9.4958  -18.5877 C   0  0  2  0  0  0  0  0  0  0  0  0
   19.6341  -10.5938  -19.5885 C   0  0  0  0  0  0  0  0  0  0  0  0
   19.9639   -9.8888  -17.2141 C   0  0  2  0  0  0  0  0  0  0  0  0
   19.3040  -11.0695  -16.7441 N   0  0  0  0  0  0  0  0  0  0  0  0
   19.8480   -8.7576  -16.2473 C   0  0  0  0  0  0  0  0  0  0  0  0
   18.8088   -8.6401  -15.5496 O   0  0  0  0  0  0  0  0  0  0  0  0
   20.8819   -7.7870  -16.0767 N   0  0  0  0  0  0  0  0  0  0  0  0
   20.7068   -6.5794  -15.3013 C   0  0  1  0  0  0  0  0  0  0  0  0
   21.9494   -6.1749  -14.5695 C   0  0  0  0  0  0  0  0  0  0  0  0
   21.7889   -5.0142  -13.7038 C   0  0  0  0  0  0  0  0  0  0  0  0
   20.6634   -4.4978  -13.5333 O   0  0  0  0  0  0  0  0  0  0  0  0
   20.1535   -5.4889  -16.1362 C   0  0  0  0  0  0  0  0  0  0  0  0
   20.7770   -5.1069  -17.1523 O   0  0  0  0  0  0  0  0  0  0  0  0
   22.8751   -4.4624  -13.0556 O   0  0  0  0  0  0  0  0  0  0  0  0
   14.8628   -3.3635  -17.9200 C   0  0  0  0  0  0  0  0  0  0  0  0
   16.3375   -2.9842  -17.8023 C   0  0  2  0  0  0  0  0  0  0  0  0
   16.8886   -2.8686  -19.1940 C   0  0  0  0  0  0  0  0  0  0  0  0
   17.0159   -4.0491  -17.0148 C   0  0  0  0  0  0  0  0  0  0  0  0
   18.4384   -3.7391  -16.6369 C   0  0  2  0  0  0  0  0  0  0  0  0
   18.9291   -4.8552  -15.8216 N   0  0  0  0  0  0  0  0  0  0  0  0
   18.4942   -2.5453  -15.7778 C   0  0  0  0  0  0  0  0  0  0  0  0
   18.3950   -1.3967  -16.2625 O   0  0  0  0  0  0  0  0  0  0  0  0
   18.6593   -2.6131  -14.3817 O   0  0  0  0  0  0  0  0  0  0  0  0
  2  1  1  1
  2  4  1  0
  3  2  1  0
  4  5  1  1
  6  7  2  0
  6  4  1  0
  8  6  1  0
  9  8  1  0
  9 10  1  6
 10 11  1  0
 11 15  1  0
 12 11  2  0
 13  9  1  0
 14 13  2  0
 17 16  1  6
 17 19  1  0
 18 17  1  0
 20 19  1  1
 20 22  1  0
 20 21  1  0
 21 13  1  0
 22 24  1  0
 23 22  2  0
M  END
$$$$
