VDL.pdb
     RDKit          3D

 24 23  0  0  1  0  0  0  0  0999 V2000
   29.3375  -18.1212  -17.9099 C   0  0  0  0  0  0  0  0  0  0  0  0
   28.1059  -17.8231  -17.0831 C   0  0  2  0  0  0  0  0  0  0  0  0
   28.2861  -18.4551  -15.7421 C   0  0  0  0  0  0  0  0  0  0  0  0
   26.8993  -18.3486  -17.8179 C   0  0  2  0  0  0  0  0  0  0  0  0
   26.8329  -17.8368  -19.1536 N   0  0  0  0  0  0  0  0  0  0  0  0
   25.6402  -18.0972  -17.0566 C   0  0  0  0  0  0  0  0  0  0  0  0
   25.2489  -16.9164  -16.8748 O   0  0  0  0  0  0  0  0  0  0  0  0
   24.8475  -19.1557  -16.5168 N   0  0  0  0  0  0  0  0  0  0  0  0
   23.6721  -18.9239  -15.7076 C   0  0  1  0  0  0  0  0  0  0  0  0
   22.4737  -18.5433  -16.5215 C   0  0  0  0  0  0  0  0  0  0  0  0
   21.2742  -18.2744  -15.7397 C   0  0  0  0  0  0  0  0  0  0  0  0
   21.3023  -17.4633  -14.7890 O   0  0  0  0  0  0  0  0  0  0  0  0
   23.4125  -20.0714  -14.8086 C   0  0  0  0  0  0  0  0  0  0  0  0
   23.2038  -21.2062  -15.2942 O   0  0  0  0  0  0  0  0  0  0  0  0
   20.0844  -18.9090  -16.0330 O   0  0  0  0  0  0  0  0  0  0  0  0
   26.0612  -21.5648  -12.0332 C   0  0  0  0  0  0  0  0  0  0  0  0
   25.2968  -20.4121  -11.3858 C   0  0  2  0  0  0  0  0  0  0  0  0
   25.9428  -20.1268  -10.0610 C   0  0  0  0  0  0  0  0  0  0  0  0
   23.8780  -20.8367  -11.2404 C   0  0  0  0  0  0  0  0  0  0  0  0
   23.1642  -21.0926  -12.5394 C   0  0  2  0  0  0  0  0  0  0  0  0
   23.3918  -19.9283  -13.4020 N   0  0  0  0  0  0  0  0  0  0  0  0
   21.7104  -21.1664  -12.3218 C   0  0  0  0  0  0  0  0  0  0  0  0
   20.9866  -20.1550  -12.4521 O   0  0  0  0  0  0  0  0  0  0  0  0
   21.0493  -22.3551  -11.9599 O   0  0  0  0  0  0  0  0  0  0  0  0
  2  1  1  6
  2  4  1  0
  3  2  1  0
  4  5  1  6
  6  7  2  0
  6  4  1  0
  8  6  1  0
  9  8  1  0
  9 10  1  6
 10 11  1  0
 11 15  1  0
 12 11  2  0
 13  9  1  0
 14 13  2  0
 17 16  1  1
 17 19  1  0
 18 17  1  0
 20 19  1  1
 20 22  1  0
 20 21  1  0
 21 13  1  0
 22 24  1  0
 23 22  2  0
M  END
$$$$
