VDL.pdb
     RDKit          3D

 24 23  0  0  1  0  0  0  0  0999 V2000
   29.4884  -18.5423  -16.1106 C   0  0  0  0  0  0  0  0  0  0  0  0
   28.4299  -18.4587  -15.0328 C   0  0  2  0  0  0  0  0  0  0  0  0
   28.9684  -19.1164  -13.8049 C   0  0  0  0  0  0  0  0  0  0  0  0
   27.1746  -19.1179  -15.5445 C   0  0  2  0  0  0  0  0  0  0  0  0
   26.8015  -18.6112  -16.8308 N   0  0  0  0  0  0  0  0  0  0  0  0
   26.0603  -19.0186  -14.5565 C   0  0  0  0  0  0  0  0  0  0  0  0
   25.3578  -17.9769  -14.5143 O   0  0  0  0  0  0  0  0  0  0  0  0
   25.7515  -20.0715  -13.6421 N   0  0  0  0  0  0  0  0  0  0  0  0
   24.6250  -20.0222  -12.7372 C   0  0  1  0  0  0  0  0  0  0  0  0
   23.3222  -20.3119  -13.4170 C   0  0  0  0  0  0  0  0  0  0  0  0
   22.1545  -20.2097  -12.5519 C   0  0  0  0  0  0  0  0  0  0  0  0
   22.0647  -19.2907  -11.7094 O   0  0  0  0  0  0  0  0  0  0  0  0
   24.8570  -20.8819  -11.5543 C   0  0  0  0  0  0  0  0  0  0  0  0
   24.9417  -22.1229  -11.6952 O   0  0  0  0  0  0  0  0  0  0  0  0
   21.1254  -21.1245  -12.6454 O   0  0  0  0  0  0  0  0  0  0  0  0
   28.0841  -20.8850   -8.6664 C   0  0  0  0  0  0  0  0  0  0  0  0
   27.0553  -19.7873   -8.4038 C   0  0  2  0  0  0  0  0  0  0  0  0
   27.6044  -18.8997   -7.3246 C   0  0  0  0  0  0  0  0  0  0  0  0
   25.7848  -20.4472   -7.9978 C   0  0  0  0  0  0  0  0  0  0  0  0
   25.1074  -21.2283   -9.0903 C   0  0  2  0  0  0  0  0  0  0  0  0
   24.9881  -20.3429  -10.2535 N   0  0  0  0  0  0  0  0  0  0  0  0
   23.7333  -21.5786   -8.6962 C   0  0  0  0  0  0  0  0  0  0  0  0
   23.5103  -22.2621   -7.6729 O   0  0  0  0  0  0  0  0  0  0  0  0
   22.6003  -21.1770   -9.4283 O   0  0  0  0  0  0  0  0  0  0  0  0
  2  1  1  6
  2  4  1  0
  3  2  1  0
  4  5  1  6
  6  7  2  0
  6  4  1  0
  8  6  1  0
  9  8  1  0
  9 10  1  6
 10 11  1  0
 11 15  1  0
 12 11  2  0
 13  9  1  0
 14 13  2  0
 17 16  1  1
 17 19  1  0
 18 17  1  0
 20 19  1  1
 20 22  1  0
 20 21  1  0
 21 13  1  0
 22 24  1  0
 23 22  2  0
M  END
$$$$
