DFM.pdb
     RDKit          3D

 28 28  0  0  1  0  0  0  0  0999 V2000
    8.7879  -18.2875   19.7619 N   0  0  0  0  0  0  0  0  0  0  0  0
   10.0615  -17.6383   19.8401 C   0  0  1  0  0  0  0  0  0  0  0  0
   10.4341  -17.0965   18.4877 C   0  0  0  0  0  0  0  0  0  0  0  0
   10.3296  -18.0724   17.3937 C   0  0  0  0  0  0  0  0  0  0  0  0
   10.7004  -19.2505   17.6290 O   0  0  0  0  0  0  0  0  0  0  0  0
   10.0411  -16.5483   20.8490 C   0  0  0  0  0  0  0  0  0  0  0  0
   10.9826  -15.7407   21.0123 O   0  0  0  0  0  0  0  0  0  0  0  0
    9.8602  -17.8214   16.1186 O   0  0  0  0  0  0  0  0  0  0  0  0
    8.8832  -16.4141   21.6849 N   0  0  0  0  0  0  0  0  0  0  0  0
    8.7696  -15.3406   22.6496 C   0  0  1  0  0  0  0  0  0  0  0  0
    7.4424  -15.4283   23.3400 C   0  0  0  0  0  0  0  0  0  0  0  0
    7.1889  -14.4513   24.3907 C   0  0  0  0  0  0  0  0  0  0  0  0
    6.4911  -14.7488   25.5224 C   0  0  0  0  0  0  0  0  0  0  0  0
    6.2342  -13.7928   26.5116 C   0  0  0  0  0  0  0  0  0  0  0  0
    6.6986  -12.5031   26.3449 C   0  0  0  0  0  0  0  0  0  0  0  0
    7.4101  -12.1811   25.2012 C   0  0  0  0  0  0  0  0  0  0  0  0
    7.6497  -13.1607   24.2318 C   0  0  0  0  0  0  0  0  0  0  0  0
    9.8272  -15.6025   23.6971 C   0  0  0  0  0  0  0  0  0  0  0  0
   10.8771  -14.9282   23.6622 O   0  0  0  0  0  0  0  0  0  0  0  0
   11.4369  -13.7076   30.3126 C   0  0  0  0  0  0  0  0  0  0  0  0
   10.5193  -13.7551   28.7627 S   0  0  0  0  0  0  0  0  0  0  0  0
   10.8465  -15.3141   27.9261 C   0  0  0  0  0  0  0  0  0  0  0  0
   10.0489  -15.3317   26.6441 C   0  0  0  0  0  0  0  0  0  0  0  0
   10.3316  -16.6390   25.9328 C   0  0  2  0  0  0  0  0  0  0  0  0
    9.5971  -16.5805   24.6597 N   0  0  0  0  0  0  0  0  0  0  0  0
    9.8855  -17.8177   26.6915 C   0  0  0  0  0  0  0  0  0  0  0  0
   10.7797  -18.5570   27.4430 O   0  0  0  0  0  0  0  0  0  0  0  0
    8.6812  -18.1689   26.6661 O   0  0  0  0  0  0  0  0  0  0  0  0
  2  1  1  6
  2  6  1  0
  3  2  1  0
  4  3  1  0
  4  8  1  0
  5  4  2  0
  6  7  2  0
  6  9  1  0
  9 10  1  0
 10 11  1  1
 11 12  1  0
 12 17  2  0
 13 12  1  0
 13 14  2  0
 14 15  1  0
 15 16  2  0
 17 16  1  0
 18 10  1  0
 18 19  2  0
 20 21  1  0
 21 22  1  0
 24 23  1  1
 23 22  1  0
 24 25  1  0
 25 18  1  0
 26 24  1  0
 27 26  1  0
 28 26  2  0
M  END
$$$$
