DFM.pdb
     RDKit          3D

 28 28  0  0  1  0  0  0  0  0999 V2000
    9.1801  -18.0658   19.2970 N   0  0  0  0  0  0  0  0  0  0  0  0
   10.4791  -17.5745   19.6447 C   0  0  1  0  0  0  0  0  0  0  0  0
   11.0824  -16.8667   18.4630 C   0  0  0  0  0  0  0  0  0  0  0  0
   11.0718  -17.6479   17.2181 C   0  0  0  0  0  0  0  0  0  0  0  0
   11.6436  -18.7676   17.2301 O   0  0  0  0  0  0  0  0  0  0  0  0
   10.4065  -16.6628   20.8151 C   0  0  0  0  0  0  0  0  0  0  0  0
   11.3823  -16.0048   21.2396 O   0  0  0  0  0  0  0  0  0  0  0  0
   10.4905  -17.2701   16.0228 O   0  0  0  0  0  0  0  0  0  0  0  0
    9.1531  -16.5301   21.4998 N   0  0  0  0  0  0  0  0  0  0  0  0
    9.0268  -15.7182   22.6917 C   0  0  1  0  0  0  0  0  0  0  0  0
    7.5861  -15.3648   22.9047 C   0  0  0  0  0  0  0  0  0  0  0  0
    7.2759  -14.5855   24.0960 C   0  0  0  0  0  0  0  0  0  0  0  0
    6.5469  -15.0828   25.1340 C   0  0  0  0  0  0  0  0  0  0  0  0
    6.2358  -14.3137   26.2611 C   0  0  0  0  0  0  0  0  0  0  0  0
    6.6771  -13.0074   26.3334 C   0  0  0  0  0  0  0  0  0  0  0  0
    7.4197  -12.4837   25.2882 C   0  0  0  0  0  0  0  0  0  0  0  0
    7.7133  -13.2796   24.1759 C   0  0  0  0  0  0  0  0  0  0  0  0
    9.4376  -16.6011   23.8477 C   0  0  0  0  0  0  0  0  0  0  0  0
    9.2280  -17.8285   23.7609 O   0  0  0  0  0  0  0  0  0  0  0  0
    9.5854  -13.0416   29.7246 C   0  0  0  0  0  0  0  0  0  0  0  0
   10.8869  -14.0223   28.9560 S   0  0  0  0  0  0  0  0  0  0  0  0
   10.1565  -15.1320   27.7425 C   0  0  0  0  0  0  0  0  0  0  0  0
   11.2798  -15.8020   26.9877 C   0  0  0  0  0  0  0  0  0  0  0  0
   10.6697  -16.8058   26.0310 C   0  0  2  0  0  0  0  0  0  0  0  0
   10.0320  -16.0200   24.9636 N   0  0  0  0  0  0  0  0  0  0  0  0
    9.6585  -17.6664   26.6641 C   0  0  0  0  0  0  0  0  0  0  0  0
   10.0332  -18.7369   27.4545 O   0  0  0  0  0  0  0  0  0  0  0  0
    8.4365  -17.4386   26.4940 O   0  0  0  0  0  0  0  0  0  0  0  0
  2  1  1  6
  2  6  1  0
  3  2  1  0
  4  3  1  0
  4  8  1  0
  5  4  2  0
  6  7  2  0
  6  9  1  0
  9 10  1  0
 10 11  1  1
 11 12  1  0
 12 17  2  0
 13 12  1  0
 13 14  2  0
 14 15  1  0
 15 16  2  0
 17 16  1  0
 18 10  1  0
 18 19  2  0
 20 21  1  0
 21 22  1  0
 24 23  1  1
 23 22  1  0
 24 25  1  0
 25 18  1  0
 26 24  1  0
 27 26  1  0
 28 26  2  0
M  END
$$$$
