DFM.pdb
     RDKit          3D

 28 28  0  0  1  0  0  0  0  0999 V2000
   11.4893  -16.7976   18.9208 N   0  0  0  0  0  0  0  0  0  0  0  0
   10.7804  -17.4899   19.9542 C   0  0  1  0  0  0  0  0  0  0  0  0
   11.5278  -18.7405   20.3263 C   0  0  0  0  0  0  0  0  0  0  0  0
   11.7533  -19.6676   19.2084 C   0  0  0  0  0  0  0  0  0  0  0  0
   10.9238  -19.6509   18.2637 O   0  0  0  0  0  0  0  0  0  0  0  0
   10.5950  -16.6215   21.1448 C   0  0  0  0  0  0  0  0  0  0  0  0
   11.5003  -15.9019   21.6226 O   0  0  0  0  0  0  0  0  0  0  0  0
   12.7969  -20.5657   19.0910 O   0  0  0  0  0  0  0  0  0  0  0  0
    9.3120  -16.6074   21.7859 N   0  0  0  0  0  0  0  0  0  0  0  0
    9.0584  -15.7828   22.9485 C   0  0  1  0  0  0  0  0  0  0  0  0
    7.6168  -15.3737   22.9656 C   0  0  0  0  0  0  0  0  0  0  0  0
    7.1771  -14.5850   24.1090 C   0  0  0  0  0  0  0  0  0  0  0  0
    7.4777  -13.2641   24.2538 C   0  0  0  0  0  0  0  0  0  0  0  0
    7.0692  -12.5255   25.3701 C   0  0  0  0  0  0  0  0  0  0  0  0
    6.3372  -13.1463   26.3628 C   0  0  0  0  0  0  0  0  0  0  0  0
    6.0214  -14.4886   26.2338 C   0  0  0  0  0  0  0  0  0  0  0  0
    6.4452  -15.1978   25.1049 C   0  0  0  0  0  0  0  0  0  0  0  0
    9.2764  -16.6722   24.1509 C   0  0  0  0  0  0  0  0  0  0  0  0
    8.8015  -17.8264   24.1295 O   0  0  0  0  0  0  0  0  0  0  0  0
   10.3878  -12.3677   28.9953 C   0  0  0  0  0  0  0  0  0  0  0  0
   11.2585  -13.9302   28.7793 S   0  0  0  0  0  0  0  0  0  0  0  0
   10.5338  -14.8283   27.3988 C   0  0  0  0  0  0  0  0  0  0  0  0
   11.2817  -16.1312   27.2461 C   0  0  0  0  0  0  0  0  0  0  0  0
   10.4752  -17.0315   26.3329 C   0  0  2  0  0  0  0  0  0  0  0  0
    9.9949  -16.1782   25.2353 N   0  0  0  0  0  0  0  0  0  0  0  0
    9.3201  -17.6486   27.0030 C   0  0  0  0  0  0  0  0  0  0  0  0
    9.4962  -18.6445   27.9454 O   0  0  0  0  0  0  0  0  0  0  0  0
    8.1542  -17.2768   26.7262 O   0  0  0  0  0  0  0  0  0  0  0  0
  2  1  1  6
  2  6  1  0
  3  2  1  0
  4  3  1  0
  4  8  1  0
  5  4  2  0
  6  7  2  0
  6  9  1  0
  9 10  1  0
 10 11  1  6
 11 12  1  0
 12 17  2  0
 13 12  1  0
 13 14  2  0
 14 15  1  0
 15 16  2  0
 17 16  1  0
 18 10  1  0
 18 19  2  0
 20 21  1  0
 21 22  1  0
 24 23  1  1
 23 22  1  0
 24 25  1  0
 25 18  1  0
 26 24  1  0
 27 26  1  0
 28 26  2  0
M  END
$$$$
