DFM.pdb
     RDKit          3D

 28 28  0  0  1  0  0  0  0  0999 V2000
    9.8299  -18.3416   19.6129 N   0  0  0  0  0  0  0  0  0  0  0  0
   11.0202  -17.6002   19.9011 C   0  0  1  0  0  0  0  0  0  0  0  0
   11.5188  -16.9406   18.6451 C   0  0  0  0  0  0  0  0  0  0  0  0
   11.5074  -17.8082   17.4589 C   0  0  0  0  0  0  0  0  0  0  0  0
   10.9376  -18.9244   17.5612 O   0  0  0  0  0  0  0  0  0  0  0  0
   10.7716  -16.5859   20.9574 C   0  0  0  0  0  0  0  0  0  0  0  0
   11.5825  -15.6786   21.2482 O   0  0  0  0  0  0  0  0  0  0  0  0
   12.0669  -17.5168   16.2295 O   0  0  0  0  0  0  0  0  0  0  0  0
    9.5386  -16.6494   21.6875 N   0  0  0  0  0  0  0  0  0  0  0  0
    9.2570  -15.7345   22.7735 C   0  0  1  0  0  0  0  0  0  0  0  0
    7.7773  -15.5193   22.8741 C   0  0  0  0  0  0  0  0  0  0  0  0
    7.3160  -14.6612   23.9574 C   0  0  0  0  0  0  0  0  0  0  0  0
    6.5297  -15.1140   24.9738 C   0  0  0  0  0  0  0  0  0  0  0  0
    6.0738  -14.2719   25.9943 C   0  0  0  0  0  0  0  0  0  0  0  0
    6.4267  -12.9371   25.9800 C   0  0  0  0  0  0  0  0  0  0  0  0
    7.2255  -12.4577   24.9553 C   0  0  0  0  0  0  0  0  0  0  0  0
    7.6643  -13.3265   23.9506 C   0  0  0  0  0  0  0  0  0  0  0  0
    9.6848  -16.4402   24.0398 C   0  0  0  0  0  0  0  0  0  0  0  0
    9.5724  -17.6821   24.0942 O   0  0  0  0  0  0  0  0  0  0  0  0
   10.6739  -12.7322   29.1325 C   0  0  0  0  0  0  0  0  0  0  0  0
   10.5384  -14.3318   29.9508 S   0  0  0  0  0  0  0  0  0  0  0  0
   10.8259  -15.6400   28.7493 C   0  0  0  0  0  0  0  0  0  0  0  0
   10.2193  -15.2082   27.4356 C   0  0  0  0  0  0  0  0  0  0  0  0
   10.5332  -16.2700   26.4017 C   0  0  2  0  0  0  0  0  0  0  0  0
   10.1866  -15.6868   25.0965 N   0  0  0  0  0  0  0  0  0  0  0  0
    9.7640  -17.5090   26.5941 C   0  0  0  0  0  0  0  0  0  0  0  0
   10.4043  -18.7255   26.7395 O   0  0  0  0  0  0  0  0  0  0  0  0
    8.5102  -17.4773   26.6292 O   0  0  0  0  0  0  0  0  0  0  0  0
  2  1  1  6
  2  6  1  0
  3  2  1  0
  4  3  1  0
  4  8  1  0
  5  4  2  0
  6  7  2  0
  6  9  1  0
  9 10  1  0
 10 11  1  1
 11 12  1  0
 12 17  2  0
 13 12  1  0
 13 14  2  0
 14 15  1  0
 15 16  2  0
 17 16  1  0
 18 10  1  0
 18 19  2  0
 20 21  1  0
 21 22  1  0
 24 23  1  1
 23 22  1  0
 24 25  1  0
 25 18  1  0
 26 24  1  0
 27 26  1  0
 28 26  2  0
M  END
$$$$
