DFM.pdb
     RDKit          3D

 28 28  0  0  1  0  0  0  0  0999 V2000
    9.3799  -17.9339   19.7435 N   0  0  0  0  0  0  0  0  0  0  0  0
   10.6872  -17.5035   20.1378 C   0  0  1  0  0  0  0  0  0  0  0  0
   11.3775  -16.8556   18.9696 C   0  0  0  0  0  0  0  0  0  0  0  0
   11.9306  -17.8023   17.9908 C   0  0  0  0  0  0  0  0  0  0  0  0
   11.2795  -18.8547   17.7687 O   0  0  0  0  0  0  0  0  0  0  0  0
   10.6133  -16.5627   21.2849 C   0  0  0  0  0  0  0  0  0  0  0  0
   11.6134  -15.9963   21.7791 O   0  0  0  0  0  0  0  0  0  0  0  0
   13.1078  -17.6498   17.2835 O   0  0  0  0  0  0  0  0  0  0  0  0
    9.3287  -16.2897   21.8616 N   0  0  0  0  0  0  0  0  0  0  0  0
    9.1898  -15.4431   23.0277 C   0  0  1  0  0  0  0  0  0  0  0  0
    7.7778  -14.9496   23.1211 C   0  0  0  0  0  0  0  0  0  0  0  0
    7.4512  -14.1248   24.2768 C   0  0  0  0  0  0  0  0  0  0  0  0
    7.9842  -12.8866   24.4741 C   0  0  0  0  0  0  0  0  0  0  0  0
    7.6799  -12.1161   25.6021 C   0  0  0  0  0  0  0  0  0  0  0  0
    6.8124  -12.6180   26.5519 C   0  0  0  0  0  0  0  0  0  0  0  0
    6.2600  -13.8748   26.3693 C   0  0  0  0  0  0  0  0  0  0  0  0
    6.5851  -14.6189   25.2302 C   0  0  0  0  0  0  0  0  0  0  0  0
    9.4229  -16.3352   24.2254 C   0  0  0  0  0  0  0  0  0  0  0  0
    8.4390  -16.9022   24.7437 O   0  0  0  0  0  0  0  0  0  0  0  0
   11.1281  -12.3927   27.8397 C   0  0  0  0  0  0  0  0  0  0  0  0
   10.4060  -13.6657   28.8907 S   0  0  0  0  0  0  0  0  0  0  0  0
   10.8135  -15.2871   28.2253 C   0  0  0  0  0  0  0  0  0  0  0  0
   10.4815  -15.2835   26.7523 C   0  0  0  0  0  0  0  0  0  0  0  0
   11.0365  -16.5544   26.1425 C   0  0  2  0  0  0  0  0  0  0  0  0
   10.7184  -16.4939   24.7077 N   0  0  0  0  0  0  0  0  0  0  0  0
   10.4472  -17.7748   26.7146 C   0  0  0  0  0  0  0  0  0  0  0  0
    9.5964  -18.5683   25.9680 O   0  0  0  0  0  0  0  0  0  0  0  0
   10.7108  -18.1130   27.8938 O   0  0  0  0  0  0  0  0  0  0  0  0
  2  1  1  6
  2  6  1  0
  3  2  1  0
  4  3  1  0
  4  8  1  0
  5  4  2  0
  6  7  2  0
  6  9  1  0
  9 10  1  0
 10 11  1  1
 11 12  1  0
 12 17  2  0
 13 12  1  0
 13 14  2  0
 14 15  1  0
 15 16  2  0
 17 16  1  0
 18 10  1  0
 18 19  2  0
 20 21  1  0
 21 22  1  0
 24 23  1  1
 23 22  1  0
 24 25  1  0
 25 18  1  0
 26 24  1  0
 27 26  1  0
 28 26  2  0
M  END
$$$$
