DFM.pdb
     RDKit          3D

 28 28  0  0  1  0  0  0  0  0999 V2000
    9.5795  -17.8818   19.4705 N   0  0  0  0  0  0  0  0  0  0  0  0
   10.8538  -17.5119   20.0080 C   0  0  1  0  0  0  0  0  0  0  0  0
   11.6936  -16.8879   18.9280 C   0  0  0  0  0  0  0  0  0  0  0  0
   11.9882  -17.7797   17.7974 C   0  0  0  0  0  0  0  0  0  0  0  0
   11.0407  -18.0674   17.0225 O   0  0  0  0  0  0  0  0  0  0  0  0
   10.6969  -16.5757   21.1505 C   0  0  0  0  0  0  0  0  0  0  0  0
   11.6366  -15.8968   21.6211 O   0  0  0  0  0  0  0  0  0  0  0  0
   13.2154  -18.3400   17.4984 O   0  0  0  0  0  0  0  0  0  0  0  0
    9.4011  -16.4433   21.7510 N   0  0  0  0  0  0  0  0  0  0  0  0
    9.1965  -15.6324   22.9328 C   0  0  1  0  0  0  0  0  0  0  0  0
    7.7408  -15.3024   23.0659 C   0  0  0  0  0  0  0  0  0  0  0  0
    7.3698  -14.4259   24.1690 C   0  0  0  0  0  0  0  0  0  0  0  0
    6.6875  -14.8652   25.2634 C   0  0  0  0  0  0  0  0  0  0  0  0
    6.3164  -14.0059   26.3038 C   0  0  0  0  0  0  0  0  0  0  0  0
    6.6477  -12.6676   26.2285 C   0  0  0  0  0  0  0  0  0  0  0  0
    7.3414  -12.2017   25.1240 C   0  0  0  0  0  0  0  0  0  0  0  0
    7.6973  -13.0875   24.1015 C   0  0  0  0  0  0  0  0  0  0  0  0
    9.5576  -16.5074   24.1111 C   0  0  0  0  0  0  0  0  0  0  0  0
    9.2381  -17.7135   24.0749 O   0  0  0  0  0  0  0  0  0  0  0  0
    8.9542  -13.4176   30.0777 C   0  0  0  0  0  0  0  0  0  0  0  0
   10.4357  -14.0885   29.3020 S   0  0  0  0  0  0  0  0  0  0  0  0
    9.9576  -15.2016   27.9716 C   0  0  0  0  0  0  0  0  0  0  0  0
   11.2179  -15.7620   27.3570 C   0  0  0  0  0  0  0  0  0  0  0  0
   10.8167  -16.7443   26.2758 C   0  0  2  0  0  0  0  0  0  0  0  0
   10.2301  -15.9431   25.1907 N   0  0  0  0  0  0  0  0  0  0  0  0
    9.8278  -17.7333   26.7319 C   0  0  0  0  0  0  0  0  0  0  0  0
    8.4808  -17.5595   26.4742 O   0  0  0  0  0  0  0  0  0  0  0  0
   10.1962  -18.7526   27.3639 O   0  0  0  0  0  0  0  0  0  0  0  0
  2  1  1  6
  2  6  1  0
  3  2  1  0
  4  3  1  0
  4  8  1  0
  5  4  2  0
  6  7  2  0
  6  9  1  0
  9 10  1  0
 10 11  1  1
 11 12  1  0
 12 17  2  0
 13 12  1  0
 13 14  2  0
 14 15  1  0
 15 16  2  0
 17 16  1  0
 18 10  1  0
 18 19  2  0
 20 21  1  0
 21 22  1  0
 24 23  1  1
 23 22  1  0
 24 25  1  0
 25 18  1  0
 26 24  1  0
 27 26  1  0
 28 26  2  0
M  END
$$$$
