YWI.pdb
     RDKit          3D

 35 37  0  0  1  0  0  0  0  0999 V2000
   14.4930  -21.5245   16.9922 O   0  0  0  0  0  0  0  0  0  0  0  0
   14.0553  -20.5614   17.9241 C   0  0  0  0  0  0  0  0  0  0  0  0
   14.4131  -19.2394   17.7869 C   0  0  0  0  0  0  0  0  0  0  0  0
   13.9602  -18.3281   18.7256 C   0  0  0  0  0  0  0  0  0  0  0  0
   13.1711  -18.7223   19.7745 C   0  0  0  0  0  0  0  0  0  0  0  0
   12.7044  -17.7300   20.7549 C   0  0  0  0  0  0  0  0  0  0  0  0
   11.2446  -17.4218   20.4476 C   0  0  2  0  0  0  0  0  0  0  0  0
   11.2375  -16.7486   19.1604 N   0  0  0  0  0  0  0  0  0  0  0  0
   10.7798  -16.5051   21.5149 C   0  0  0  0  0  0  0  0  0  0  0  0
   11.2474  -15.3420   21.5577 O   0  0  0  0  0  0  0  0  0  0  0  0
   12.8168  -20.0372   19.9088 C   0  0  0  0  0  0  0  0  0  0  0  0
   13.2662  -20.9544   18.9734 C   0  0  0  0  0  0  0  0  0  0  0  0
    9.8395  -16.9415   22.4473 N   0  0  0  0  0  0  0  0  0  0  0  0
    9.3000  -16.0647   23.5098 C   0  0  1  0  0  0  0  0  0  0  0  0
    7.8104  -16.2479   23.4288 C   0  0  0  0  0  0  0  0  0  0  0  0
    7.0396  -15.4750   24.4164 C   0  0  0  0  0  0  0  0  0  0  0  0
    6.2680  -15.9723   25.4356 C   0  0  0  0  0  0  0  0  0  0  0  0
    5.7063  -14.9584   26.1098 N   0  0  0  0  0  0  0  0  0  0  0  0
    6.0932  -13.7897   25.5535 C   0  0  0  0  0  0  0  0  0  0  0  0
    5.7907  -12.4691   25.8785 C   0  0  0  0  0  0  0  0  0  0  0  0
    6.3268  -11.4384   25.1366 C   0  0  0  0  0  0  0  0  0  0  0  0
    7.1576  -11.7500   24.0809 C   0  0  0  0  0  0  0  0  0  0  0  0
    7.4522  -13.0592   23.7656 C   0  0  0  0  0  0  0  0  0  0  0  0
    6.9168  -14.1048   24.5073 C   0  0  0  0  0  0  0  0  0  0  0  0
    9.9253  -16.5329   24.7568 C   0  0  0  0  0  0  0  0  0  0  0  0
   10.3185  -17.7524   24.8787 O   0  0  0  0  0  0  0  0  0  0  0  0
    9.8950  -13.7447   29.9444 C   0  0  0  0  0  0  0  0  0  0  0  0
    9.7079  -14.7476   28.8637 C   0  0  0  0  0  0  0  0  0  0  0  0
   10.9148  -15.2015   28.1414 C   0  0  2  0  0  0  0  0  0  0  0  0
   11.7858  -14.0347   27.7279 C   0  0  0  0  0  0  0  0  0  0  0  0
   10.7736  -16.2808   27.1338 C   0  0  2  0  0  0  0  0  0  0  0  0
   10.1592  -15.7397   25.9050 N   0  0  0  0  0  0  0  0  0  0  0  0
   10.1387  -17.5239   27.5465 C   0  0  0  0  0  0  0  0  0  0  0  0
   10.6283  -18.4644   28.4273 O   0  0  0  0  0  0  0  0  0  0  0  0
    8.9877  -17.8265   27.0582 O   0  0  0  0  0  0  0  0  0  0  0  0
  2 12  2  0
  2  1  1  0
  3  2  1  0
  4  5  1  0
  4  3  2  0
  5 11  2  0
  6  5  1  0
  7  6  1  0
  7  8  1  6
  9 13  1  0
  9  7  1  0
 10  9  2  0
 11 12  1  0
 14 25  1  0
 14 13  1  0
 14 15  1  1
 16 17  2  0
 16 15  1  0
 18 17  1  0
 19 24  2  0
 19 18  1  0
 20 19  1  0
 21 22  1  0
 21 20  2  0
 22 23  2  0
 23 24  1  0
 24 16  1  0
 25 32  1  0
 26 25  2  0
 28 27  1  0
 29 28  1  0
 29 30  1  6
 31 33  1  0
 31 29  1  0
 31 32  1  6
 33 34  1  0
 35 33  2  0
M  END
$$$$
