YWI.pdb
     RDKit          3D

 35 37  0  0  1  0  0  0  0  0999 V2000
    7.6601  -14.1382   15.0797 O   0  0  0  0  0  0  0  0  0  0  0  0
    7.9492  -14.0120   16.4538 C   0  0  0  0  0  0  0  0  0  0  0  0
    9.2331  -13.7578   16.8799 C   0  0  0  0  0  0  0  0  0  0  0  0
    9.4709  -13.6416   18.2389 C   0  0  0  0  0  0  0  0  0  0  0  0
    8.4567  -13.7751   19.1509 C   0  0  0  0  0  0  0  0  0  0  0  0
    8.7408  -13.6447   20.5883 C   0  0  0  0  0  0  0  0  0  0  0  0
    9.5052  -14.8872   21.0270 C   0  0  2  0  0  0  0  0  0  0  0  0
    8.7103  -16.0230   20.5935 N   0  0  0  0  0  0  0  0  0  0  0  0
    9.5705  -14.8342   22.5063 C   0  0  0  0  0  0  0  0  0  0  0  0
   10.1937  -13.8910   23.0497 O   0  0  0  0  0  0  0  0  0  0  0  0
    7.1812  -14.0278   18.7248 C   0  0  0  0  0  0  0  0  0  0  0  0
    6.9359  -14.1453   17.3668 C   0  0  0  0  0  0  0  0  0  0  0  0
    8.9460  -15.8217   23.2670 N   0  0  0  0  0  0  0  0  0  0  0  0
    8.7514  -15.7022   24.7287 C   0  0  1  0  0  0  0  0  0  0  0  0
    7.3854  -16.2787   24.9750 C   0  0  0  0  0  0  0  0  0  0  0  0
    6.3435  -15.2855   25.2837 C   0  0  0  0  0  0  0  0  0  0  0  0
    4.9894  -15.4971   25.3364 C   0  0  0  0  0  0  0  0  0  0  0  0
    4.3659  -14.3463   25.6285 N   0  0  0  0  0  0  0  0  0  0  0  0
    5.2870  -13.3686   25.7715 C   0  0  0  0  0  0  0  0  0  0  0  0
    5.1552  -12.0144   26.0717 C   0  0  0  0  0  0  0  0  0  0  0  0
    6.2766  -11.2178   26.1614 C   0  0  0  0  0  0  0  0  0  0  0  0
    7.5116  -11.7932   25.9484 C   0  0  0  0  0  0  0  0  0  0  0  0
    7.6339  -13.1339   25.6519 C   0  0  0  0  0  0  0  0  0  0  0  0
    6.5097  -13.9449   25.5593 C   0  0  0  0  0  0  0  0  0  0  0  0
    9.8676  -16.4467   25.3329 C   0  0  0  0  0  0  0  0  0  0  0  0
   10.7714  -16.9913   24.5959 O   0  0  0  0  0  0  0  0  0  0  0  0
   10.8906  -14.4128   30.0066 C   0  0  0  0  0  0  0  0  0  0  0  0
   11.3105  -14.9363   28.6805 C   0  0  0  0  0  0  0  0  0  0  0  0
   11.5982  -16.3825   28.5809 C   0  0  2  0  0  0  0  0  0  0  0  0
   12.8901  -16.7411   29.2833 C   0  0  0  0  0  0  0  0  0  0  0  0
   11.3671  -17.0632   27.2834 C   0  0  2  0  0  0  0  0  0  0  0  0
   10.0702  -16.6378   26.7203 N   0  0  0  0  0  0  0  0  0  0  0  0
   11.5245  -18.5093   27.2313 C   0  0  0  0  0  0  0  0  0  0  0  0
   12.6725  -19.2192   26.9523 O   0  0  0  0  0  0  0  0  0  0  0  0
   10.5019  -19.2549   27.4622 O   0  0  0  0  0  0  0  0  0  0  0  0
  2 12  2  0
  2  1  1  0
  3  2  1  0
  4  5  1  0
  4  3  2  0
  5 11  2  0
  6  5  1  0
  7  6  1  0
  7  8  1  1
  9 13  1  0
  9  7  1  0
 10  9  2  0
 11 12  1  0
 14 25  1  0
 14 13  1  0
 14 15  1  6
 16 17  2  0
 16 15  1  0
 18 17  1  0
 19 24  2  0
 19 18  1  0
 20 19  1  0
 21 22  1  0
 21 20  2  0
 22 23  2  0
 23 24  1  0
 24 16  1  0
 25 32  1  0
 26 25  2  0
 28 27  1  0
 29 28  1  0
 29 30  1  6
 31 33  1  0
 31 29  1  0
 31 32  1  1
 33 34  1  0
 35 33  2  0
M  END
$$$$
