YWI.pdb
     RDKit          3D

 35 37  0  0  1  0  0  0  0  0999 V2000
    7.7465  -14.3732   14.5655 O   0  0  0  0  0  0  0  0  0  0  0  0
    7.9708  -14.2493   15.9518 C   0  0  0  0  0  0  0  0  0  0  0  0
    6.9180  -14.0621   16.8186 C   0  0  0  0  0  0  0  0  0  0  0  0
    7.1851  -13.9456   18.1721 C   0  0  0  0  0  0  0  0  0  0  0  0
    8.4673  -14.0137   18.6510 C   0  0  0  0  0  0  0  0  0  0  0  0
    8.7187  -13.8879   20.0949 C   0  0  0  0  0  0  0  0  0  0  0  0
    9.3987  -15.1681   20.5631 C   0  0  2  0  0  0  0  0  0  0  0  0
    8.4429  -16.2380   20.3355 N   0  0  0  0  0  0  0  0  0  0  0  0
    9.6514  -14.9981   22.0131 C   0  0  0  0  0  0  0  0  0  0  0  0
   10.4863  -14.1385   22.3838 O   0  0  0  0  0  0  0  0  0  0  0  0
    9.5122  -14.1999   17.7874 C   0  0  0  0  0  0  0  0  0  0  0  0
    9.2525  -14.3172   16.4320 C   0  0  0  0  0  0  0  0  0  0  0  0
    8.9662  -15.7863   22.9368 N   0  0  0  0  0  0  0  0  0  0  0  0
    9.0904  -15.5962   24.3987 C   0  0  1  0  0  0  0  0  0  0  0  0
    7.8145  -16.1574   24.9610 C   0  0  0  0  0  0  0  0  0  0  0  0
    6.8457  -15.1477   25.4182 C   0  0  0  0  0  0  0  0  0  0  0  0
    5.5469  -15.3630   25.8031 C   0  0  0  0  0  0  0  0  0  0  0  0
    4.9766  -14.1951   26.1332 N   0  0  0  0  0  0  0  0  0  0  0  0
    5.8786  -13.2021   25.9734 C   0  0  0  0  0  0  0  0  0  0  0  0
    5.7827  -11.8275   26.1792 C   0  0  0  0  0  0  0  0  0  0  0  0
    6.8721  -11.0184   25.9366 C   0  0  0  0  0  0  0  0  0  0  0  0
    8.0395  -11.6021   25.4914 C   0  0  0  0  0  0  0  0  0  0  0  0
    8.1265  -12.9630   25.2902 C   0  0  0  0  0  0  0  0  0  0  0  0
    7.0342  -13.7867   25.5319 C   0  0  0  0  0  0  0  0  0  0  0  0
   10.3168  -16.3131   24.7824 C   0  0  0  0  0  0  0  0  0  0  0  0
   11.4288  -16.0876   24.1748 O   0  0  0  0  0  0  0  0  0  0  0  0
   10.2705  -14.6707   29.6467 C   0  0  0  0  0  0  0  0  0  0  0  0
   10.1521  -15.7752   28.6593 C   0  0  0  0  0  0  0  0  0  0  0  0
   11.1974  -15.8718   27.6191 C   0  0  2  0  0  0  0  0  0  0  0  0
   11.2139  -14.6447   26.7330 C   0  0  0  0  0  0  0  0  0  0  0  0
   11.3834  -17.1665   26.9195 C   0  0  2  0  0  0  0  0  0  0  0  0
   10.4139  -17.2794   25.8116 N   0  0  0  0  0  0  0  0  0  0  0  0
   11.4211  -18.3796   27.7230 C   0  0  0  0  0  0  0  0  0  0  0  0
   12.4783  -18.8636   28.4633 O   0  0  0  0  0  0  0  0  0  0  0  0
   10.3719  -19.1217   27.7785 O   0  0  0  0  0  0  0  0  0  0  0  0
  2 12  2  0
  2  1  1  0
  3  2  1  0
  4  5  1  0
  4  3  2  0
  5 11  2  0
  6  5  1  0
  7  6  1  0
  7  8  1  1
  9 13  1  0
  9  7  1  0
 10  9  2  0
 11 12  1  0
 14 25  1  0
 14 13  1  0
 14 15  1  1
 16 17  2  0
 16 15  1  0
 18 17  1  0
 19 24  2  0
 19 18  1  0
 20 19  1  0
 21 22  1  0
 21 20  2  0
 22 23  2  0
 23 24  1  0
 24 16  1  0
 25 32  1  0
 26 25  2  0
 28 27  1  0
 29 28  1  0
 29 30  1  6
 31 33  1  0
 31 29  1  0
 31 32  1  6
 33 34  1  0
 35 33  2  0
M  END
$$$$
