YWI.pdb
     RDKit          3D

 35 37  0  0  1  0  0  0  0  0999 V2000
   14.5702  -21.8199   17.2371 O   0  0  0  0  0  0  0  0  0  0  0  0
   14.0349  -20.8800   18.1414 C   0  0  0  0  0  0  0  0  0  0  0  0
   12.7835  -20.3444   17.9373 C   0  0  0  0  0  0  0  0  0  0  0  0
   12.2978  -19.4248   18.8512 C   0  0  0  0  0  0  0  0  0  0  0  0
   13.0386  -19.0477   19.9408 C   0  0  0  0  0  0  0  0  0  0  0  0
   12.4944  -18.0694   20.8950 C   0  0  0  0  0  0  0  0  0  0  0  0
   11.2036  -17.5134   20.3075 C   0  0  2  0  0  0  0  0  0  0  0  0
   11.5731  -16.8744   19.0564 N   0  0  0  0  0  0  0  0  0  0  0  0
   10.7052  -16.5086   21.2757 C   0  0  0  0  0  0  0  0  0  0  0  0
   11.0080  -15.3034   21.1047 O   0  0  0  0  0  0  0  0  0  0  0  0
   14.2824  -19.5816   20.1415 C   0  0  0  0  0  0  0  0  0  0  0  0
   14.7748  -20.5021   19.2313 C   0  0  0  0  0  0  0  0  0  0  0  0
    9.9154  -16.9103   22.3521 N   0  0  0  0  0  0  0  0  0  0  0  0
    9.3422  -15.9540   23.3246 C   0  0  1  0  0  0  0  0  0  0  0  0
    7.8613  -16.2047   23.2709 C   0  0  0  0  0  0  0  0  0  0  0  0
    7.0794  -15.5028   24.3020 C   0  0  0  0  0  0  0  0  0  0  0  0
    6.2824  -16.0695   25.2637 C   0  0  0  0  0  0  0  0  0  0  0  0
    5.7185  -15.1052   26.0055 N   0  0  0  0  0  0  0  0  0  0  0  0
    6.1290  -13.9011   25.5510 C   0  0  0  0  0  0  0  0  0  0  0  0
    5.8345  -12.6066   25.9739 C   0  0  0  0  0  0  0  0  0  0  0  0
    6.3965  -11.5272   25.3264 C   0  0  0  0  0  0  0  0  0  0  0  0
    7.2446  -11.7647   24.2652 C   0  0  0  0  0  0  0  0  0  0  0  0
    7.5312  -13.0484   23.8528 C   0  0  0  0  0  0  0  0  0  0  0  0
    6.9697  -14.1426   24.4989 C   0  0  0  0  0  0  0  0  0  0  0  0
    9.9883  -16.2690   24.6086 C   0  0  0  0  0  0  0  0  0  0  0  0
   10.3805  -17.4663   24.8721 O   0  0  0  0  0  0  0  0  0  0  0  0
   10.4574  -13.9543   30.3921 C   0  0  0  0  0  0  0  0  0  0  0  0
   10.9134  -14.9281   29.3662 C   0  0  0  0  0  0  0  0  0  0  0  0
   10.4334  -14.7321   27.9822 C   0  0  2  0  0  0  0  0  0  0  0  0
    8.9992  -14.2489   27.9553 C   0  0  0  0  0  0  0  0  0  0  0  0
   10.7835  -15.7485   26.9601 C   0  0  2  0  0  0  0  0  0  0  0  0
   10.2445  -15.3424   25.6468 N   0  0  0  0  0  0  0  0  0  0  0  0
   10.4869  -17.1433   27.2520 C   0  0  0  0  0  0  0  0  0  0  0  0
    9.4152  -17.8852   26.8037 O   0  0  0  0  0  0  0  0  0  0  0  0
   11.2860  -17.8027   28.0144 O   0  0  0  0  0  0  0  0  0  0  0  0
  2 12  2  0
  2  1  1  0
  3  2  1  0
  4  5  1  0
  4  3  2  0
  5 11  2  0
  6  5  1  0
  7  6  1  0
  7  8  1  6
  9 13  1  0
  9  7  1  0
 10  9  2  0
 11 12  1  0
 14 25  1  0
 14 13  1  0
 14 15  1  1
 16 17  2  0
 16 15  1  0
 18 17  1  0
 19 24  2  0
 19 18  1  0
 20 19  1  0
 21 22  1  0
 21 20  2  0
 22 23  2  0
 23 24  1  0
 24 16  1  0
 25 32  1  0
 26 25  2  0
 28 27  1  0
 29 28  1  0
 29 30  1  1
 31 33  1  0
 31 29  1  0
 31 32  1  6
 33 34  1  0
 35 33  2  0
M  END
$$$$
