VTR.pdb
     RDKit          3D

 26 25  0  0  1  0  0  0  0  0999 V2000
   23.0903  -14.2538  -21.2576 C   0  0  0  0  0  0  0  0  0  0  0  0
   23.0058  -12.9887  -20.4606 C   0  0  1  0  0  0  0  0  0  0  0  0
   22.0828  -13.1718  -19.2938 C   0  0  0  0  0  0  0  0  0  0  0  0
   24.3629  -12.4503  -20.0473 C   0  0  2  0  0  0  0  0  0  0  0  0
   25.1174  -13.3736  -19.2740 N   0  0  0  0  0  0  0  0  0  0  0  0
   24.1120  -11.1513  -19.3813 C   0  0  0  0  0  0  0  0  0  0  0  0
   24.1582  -11.1704  -18.1130 O   0  0  0  0  0  0  0  0  0  0  0  0
   23.7531   -6.2386  -19.4155 C   0  0  0  0  0  0  0  0  0  0  0  0
   23.9006   -7.5444  -20.1395 C   0  0  1  0  0  0  0  0  0  0  0  0
   25.0905   -7.6407  -20.8078 O   0  0  0  0  0  0  0  0  0  0  0  0
   23.6819   -8.7351  -19.2311 C   0  0  2  0  0  0  0  0  0  0  0  0
   23.8364   -9.9403  -20.0207 N   0  0  0  0  0  0  0  0  0  0  0  0
   22.3673   -8.6990  -18.5426 C   0  0  0  0  0  0  0  0  0  0  0  0
   21.3558   -9.2336  -19.0856 O   0  0  0  0  0  0  0  0  0  0  0  0
   16.8364  -13.2023  -14.8779 N   0  0  0  0  0  0  0  0  0  0  0  0
   16.4127  -11.8710  -14.6527 C   0  0  0  0  0  0  0  0  0  0  0  0
   15.2467  -11.6209  -14.1698 N   0  0  0  0  0  0  0  0  0  0  0  0
   17.2481  -10.7580  -14.9467 N   0  0  0  0  0  0  0  0  0  0  0  0
   18.5461  -10.8670  -15.5781 C   0  0  0  0  0  0  0  0  0  0  0  0
   19.1021   -9.4431  -15.6816 C   0  0  0  0  0  0  0  0  0  0  0  0
   20.3855   -9.4214  -16.4451 C   0  0  0  0  0  0  0  0  0  0  0  0
   20.9256   -8.0516  -16.5943 C   0  0  2  0  0  0  0  0  0  0  0  0
   22.2326   -8.0799  -17.2960 N   0  0  0  0  0  0  0  0  0  0  0  0
   21.0405   -7.2756  -15.3498 C   0  0  0  0  0  0  0  0  0  0  0  0
   19.9366   -6.9463  -14.5886 O   0  0  0  0  0  0  0  0  0  0  0  0
   22.1937   -6.8855  -14.9510 O   0  0  0  0  0  0  0  0  0  0  0  0
  2  1  1  1
  2  3  1  0
  2  4  1  0
  4  5  1  1
  6  7  2  0
  6  4  1  0
  9  8  1  1
 10  9  1  0
 11  9  1  0
 11 12  1  6
 12  6  1  0
 13 11  1  0
 14 13  2  0
 16 15  1  0
 16 17  2  0
 18 16  1  0
 19 18  1  0
 20 19  1  0
 21 20  1  0
 22 21  1  1
 22 23  1  0
 23 13  1  0
 24 22  1  0
 24 25  1  0
 26 24  2  0
M  END
$$$$
