VTR.pdb
     RDKit          3D

 26 25  0  0  1  0  0  0  0  0999 V2000
   26.6810  -20.4379   -7.5508 C   0  0  0  0  0  0  0  0  0  0  0  0
   26.1015  -20.2290   -8.9158 C   0  0  1  0  0  0  0  0  0  0  0  0
   26.0795  -18.7682   -9.2516 C   0  0  0  0  0  0  0  0  0  0  0  0
   26.7813  -21.0601   -9.9881 C   0  0  2  0  0  0  0  0  0  0  0  0
   28.1949  -20.9137   -9.9946 N   0  0  0  0  0  0  0  0  0  0  0  0
   26.1212  -20.7122  -11.2676 C   0  0  0  0  0  0  0  0  0  0  0  0
   26.6474  -19.7520  -11.9096 O   0  0  0  0  0  0  0  0  0  0  0  0
   25.9942  -22.2319  -14.4225 C   0  0  0  0  0  0  0  0  0  0  0  0
   24.5621  -21.9271  -14.0947 C   0  0  1  0  0  0  0  0  0  0  0  0
   23.8554  -23.0456  -13.7467 O   0  0  0  0  0  0  0  0  0  0  0  0
   24.4287  -20.8437  -13.0462 C   0  0  2  0  0  0  0  0  0  0  0  0
   24.9969  -21.3399  -11.8089 N   0  0  0  0  0  0  0  0  0  0  0  0
   23.0266  -20.3932  -12.8603 C   0  0  0  0  0  0  0  0  0  0  0  0
   22.7316  -19.6320  -11.8922 O   0  0  0  0  0  0  0  0  0  0  0  0
   19.6331  -13.9470  -16.1906 N   0  0  0  0  0  0  0  0  0  0  0  0
   18.7878  -14.9534  -15.6660 C   0  0  0  0  0  0  0  0  0  0  0  0
   17.5603  -14.7005  -15.3751 N   0  0  0  0  0  0  0  0  0  0  0  0
   19.2512  -16.2788  -15.4385 N   0  0  0  0  0  0  0  0  0  0  0  0
   20.6276  -16.6936  -15.6086 C   0  0  0  0  0  0  0  0  0  0  0  0
   20.6445  -18.2189  -15.4671 C   0  0  0  0  0  0  0  0  0  0  0  0
   20.9750  -18.6253  -14.0685 C   0  0  0  0  0  0  0  0  0  0  0  0
   20.7372  -20.0669  -13.8327 C   0  0  2  0  0  0  0  0  0  0  0  0
   22.0240  -20.8005  -13.7460 N   0  0  0  0  0  0  0  0  0  0  0  0
   19.8458  -20.7292  -14.7976 C   0  0  0  0  0  0  0  0  0  0  0  0
   18.4722  -20.7060  -14.6596 O   0  0  0  0  0  0  0  0  0  0  0  0
   20.3469  -21.3518  -15.7987 O   0  0  0  0  0  0  0  0  0  0  0  0
  2  1  1  1
  2  3  1  0
  2  4  1  0
  4  5  1  6
  6  7  2  0
  6  4  1  0
  9  8  1  1
 10  9  1  0
 11  9  1  0
 11 12  1  1
 12  6  1  0
 13 11  1  0
 14 13  2  0
 16 15  1  0
 16 17  2  0
 18 16  1  0
 19 18  1  0
 20 19  1  0
 21 20  1  0
 22 21  1  6
 22 23  1  0
 23 13  1  0
 24 22  1  0
 24 25  1  0
 26 24  2  0
M  END
$$$$
