VTR.pdb
     RDKit          3D

 26 25  0  0  1  0  0  0  0  0999 V2000
   12.0397  -11.1822   -8.3480 C   0  0  0  0  0  0  0  0  0  0  0  0
   12.6563   -9.9791   -8.9923 C   0  0  1  0  0  0  0  0  0  0  0  0
   12.1126   -9.7968  -10.3773 C   0  0  0  0  0  0  0  0  0  0  0  0
   12.5343   -8.7217   -8.1516 C   0  0  2  0  0  0  0  0  0  0  0  0
   11.1870   -8.3659   -7.8725 N   0  0  0  0  0  0  0  0  0  0  0  0
   13.3146   -7.6745   -8.8503 C   0  0  0  0  0  0  0  0  0  0  0  0
   12.6437   -6.9077   -9.6072 O   0  0  0  0  0  0  0  0  0  0  0  0
   14.9714   -4.6558   -7.8879 C   0  0  0  0  0  0  0  0  0  0  0  0
   15.9790   -5.4450   -8.6709 C   0  0  1  0  0  0  0  0  0  0  0  0
   16.9298   -6.0187   -7.8720 O   0  0  0  0  0  0  0  0  0  0  0  0
   15.3308   -6.4694   -9.5772 C   0  0  2  0  0  0  0  0  0  0  0  0
   14.6923   -7.4693   -8.7449 N   0  0  0  0  0  0  0  0  0  0  0  0
   16.2901   -7.0838  -10.5288 C   0  0  0  0  0  0  0  0  0  0  0  0
   17.1183   -7.9498  -10.1189 O   0  0  0  0  0  0  0  0  0  0  0  0
   17.8927  -13.4243  -14.8592 N   0  0  0  0  0  0  0  0  0  0  0  0
   18.3742  -12.4521  -15.7678 C   0  0  0  0  0  0  0  0  0  0  0  0
   18.9488  -12.8000  -16.8652 N   0  0  0  0  0  0  0  0  0  0  0  0
   18.2466  -11.0586  -15.5130 N   0  0  0  0  0  0  0  0  0  0  0  0
   17.3749  -10.4991  -14.5018 C   0  0  0  0  0  0  0  0  0  0  0  0
   17.4097   -8.9789  -14.6882 C   0  0  0  0  0  0  0  0  0  0  0  0
   16.4992   -8.2976  -13.7200 C   0  0  0  0  0  0  0  0  0  0  0  0
   17.2221   -7.3499  -12.8427 C   0  0  2  0  0  0  0  0  0  0  0  0
   16.2892   -6.7167  -11.8781 N   0  0  0  0  0  0  0  0  0  0  0  0
   18.0064   -6.3158  -13.5353 C   0  0  0  0  0  0  0  0  0  0  0  0
   19.2077   -6.6005  -14.1536 O   0  0  0  0  0  0  0  0  0  0  0  0
   17.5739   -5.1105  -13.5706 O   0  0  0  0  0  0  0  0  0  0  0  0
  2  1  1  1
  2  3  1  0
  2  4  1  0
  4  5  1  6
  6  7  2  0
  6  4  1  0
  9  8  1  1
 10  9  1  0
 11  9  1  0
 11 12  1  1
 12  6  1  0
 13 11  1  0
 14 13  2  0
 16 15  1  0
 16 17  2  0
 18 16  1  0
 19 18  1  0
 20 19  1  0
 21 20  1  0
 22 21  1  6
 22 23  1  0
 23 13  1  0
 24 22  1  0
 24 25  1  0
 26 24  2  0
M  END
$$$$
