VTR.pdb
     RDKit          3D

 26 25  0  0  1  0  0  0  0  0999 V2000
   16.9143  -20.3258    0.0314 C   0  0  0  0  0  0  0  0  0  0  0  0
   16.8857  -20.1560    1.5190 C   0  0  1  0  0  0  0  0  0  0  0  0
   17.5757  -18.8836    1.9089 C   0  0  0  0  0  0  0  0  0  0  0  0
   15.4908  -20.2626    2.1067 C   0  0  2  0  0  0  0  0  0  0  0  0
   14.5759  -19.3320    1.5439 N   0  0  0  0  0  0  0  0  0  0  0  0
   15.6473  -20.1590    3.5760 C   0  0  0  0  0  0  0  0  0  0  0  0
   14.9789  -19.2344    4.1321 O   0  0  0  0  0  0  0  0  0  0  0  0
   16.1121  -23.1259    6.3770 C   0  0  0  0  0  0  0  0  0  0  0  0
   17.0647  -21.9705    6.4715 C   0  0  1  0  0  0  0  0  0  0  0  0
   18.3145  -22.2837    6.0113 O   0  0  0  0  0  0  0  0  0  0  0  0
   16.5279  -20.7244    5.8009 C   0  0  2  0  0  0  0  0  0  0  0  0
   16.4496  -20.9760    4.3759 N   0  0  0  0  0  0  0  0  0  0  0  0
   17.3390  -19.5171    6.0976 C   0  0  0  0  0  0  0  0  0  0  0  0
   17.8400  -18.8446    5.1486 O   0  0  0  0  0  0  0  0  0  0  0  0
   18.8315  -12.0554    4.5905 N   0  0  0  0  0  0  0  0  0  0  0  0
   19.4929  -12.2694    5.8231 C   0  0  0  0  0  0  0  0  0  0  0  0
   20.3999  -11.4560    6.2367 N   0  0  0  0  0  0  0  0  0  0  0  0
   19.1885  -13.3827    6.6544 N   0  0  0  0  0  0  0  0  0  0  0  0
   18.3748  -14.5044    6.2361 C   0  0  0  0  0  0  0  0  0  0  0  0
   18.1807  -15.3879    7.4725 C   0  0  0  0  0  0  0  0  0  0  0  0
   17.5586  -16.6954    7.1066 C   0  0  0  0  0  0  0  0  0  0  0  0
   18.2630  -17.8427    7.7212 C   0  0  2  0  0  0  0  0  0  0  0  0
   17.5565  -19.1117    7.4182 N   0  0  0  0  0  0  0  0  0  0  0  0
   18.5065  -17.7368    9.1681 C   0  0  0  0  0  0  0  0  0  0  0  0
   19.6321  -17.1200    9.6772 O   0  0  0  0  0  0  0  0  0  0  0  0
   17.6576  -18.2300    9.9909 O   0  0  0  0  0  0  0  0  0  0  0  0
  2  1  1  6
  2  3  1  0
  2  4  1  0
  4  5  1  6
  6  7  2  0
  6  4  1  0
  9  8  1  6
 10  9  1  0
 11  9  1  0
 11 12  1  6
 12  6  1  0
 13 11  1  0
 14 13  2  0
 16 15  1  0
 16 17  2  0
 18 16  1  0
 19 18  1  0
 20 19  1  0
 21 20  1  0
 22 21  1  1
 22 23  1  0
 23 13  1  0
 24 22  1  0
 24 25  1  0
 26 24  2  0
M  END
$$$$
