VTR.pdb
     RDKit          3D

 26 25  0  0  1  0  0  0  0  0999 V2000
   28.9841  -20.8287  -11.5258 C   0  0  0  0  0  0  0  0  0  0  0  0
   27.7518  -20.1904  -12.0886 C   0  0  1  0  0  0  0  0  0  0  0  0
   28.1245  -19.0977  -13.0447 C   0  0  0  0  0  0  0  0  0  0  0  0
   26.7856  -21.1893  -12.6980 C   0  0  2  0  0  0  0  0  0  0  0  0
   27.3384  -21.9007  -13.7970 N   0  0  0  0  0  0  0  0  0  0  0  0
   25.5492  -20.4366  -13.0121 C   0  0  0  0  0  0  0  0  0  0  0  0
   25.0114  -19.8370  -12.0312 O   0  0  0  0  0  0  0  0  0  0  0  0
   25.1155  -17.4892  -15.0727 C   0  0  0  0  0  0  0  0  0  0  0  0
   24.0684  -18.4746  -15.5013 C   0  0  1  0  0  0  0  0  0  0  0  0
   24.3694  -19.0721  -16.6947 O   0  0  0  0  0  0  0  0  0  0  0  0
   23.7716  -19.5026  -14.4308 C   0  0  2  0  0  0  0  0  0  0  0  0
   24.9451  -20.3368  -14.2676 N   0  0  0  0  0  0  0  0  0  0  0  0
   22.5642  -20.3124  -14.7306 C   0  0  0  0  0  0  0  0  0  0  0  0
   22.6807  -21.4178  -15.3376 O   0  0  0  0  0  0  0  0  0  0  0  0
   17.6183  -23.5435   -9.9520 N   0  0  0  0  0  0  0  0  0  0  0  0
   18.7810  -24.2341  -10.3686 C   0  0  0  0  0  0  0  0  0  0  0  0
   18.9262  -25.4897  -10.1279 N   0  0  0  0  0  0  0  0  0  0  0  0
   19.8332  -23.5789  -11.0664 N   0  0  0  0  0  0  0  0  0  0  0  0
   19.7877  -22.1923  -11.4792 C   0  0  0  0  0  0  0  0  0  0  0  0
   19.2412  -22.1807  -12.9104 C   0  0  0  0  0  0  0  0  0  0  0  0
   19.2214  -20.7949  -13.4670 C   0  0  0  0  0  0  0  0  0  0  0  0
   20.0805  -20.6595  -14.6643 C   0  0  2  0  0  0  0  0  0  0  0  0
   21.2948  -19.8676  -14.3482 N   0  0  0  0  0  0  0  0  0  0  0  0
   19.4212  -20.1119  -15.8600 C   0  0  0  0  0  0  0  0  0  0  0  0
   18.5674  -20.8700  -16.6363 O   0  0  0  0  0  0  0  0  0  0  0  0
   19.6397  -18.8972  -16.2033 O   0  0  0  0  0  0  0  0  0  0  0  0
  2  1  1  6
  2  3  1  0
  2  4  1  0
  4  5  1  6
  6  7  2  0
  6  4  1  0
  9  8  1  1
 10  9  1  0
 11  9  1  0
 11 12  1  6
 12  6  1  0
 13 11  1  0
 14 13  2  0
 16 15  1  0
 16 17  2  0
 18 16  1  0
 19 18  1  0
 20 19  1  0
 21 20  1  0
 22 21  1  1
 22 23  1  0
 23 13  1  0
 24 22  1  0
 24 25  1  0
 26 24  2  0
M  END
$$$$
