VTR.pdb
     RDKit          3D

 26 25  0  0  1  0  0  0  0  0999 V2000
   24.8417  -22.4096  -17.8289 C   0  0  0  0  0  0  0  0  0  0  0  0
   25.4306  -23.7745  -17.6469 C   0  0  1  0  0  0  0  0  0  0  0  0
   26.3129  -24.1176  -18.8092 C   0  0  0  0  0  0  0  0  0  0  0  0
   26.1339  -23.9497  -16.3137 C   0  0  2  0  0  0  0  0  0  0  0  0
   26.6725  -25.2526  -16.1343 N   0  0  0  0  0  0  0  0  0  0  0  0
   25.1648  -23.5363  -15.2726 C   0  0  0  0  0  0  0  0  0  0  0  0
   24.3018  -24.4102  -14.9526 O   0  0  0  0  0  0  0  0  0  0  0  0
   25.8482  -22.6273  -11.7750 C   0  0  0  0  0  0  0  0  0  0  0  0
   24.9428  -21.5780  -12.3499 C   0  0  1  0  0  0  0  0  0  0  0  0
   25.6019  -20.4108  -12.6234 O   0  0  0  0  0  0  0  0  0  0  0  0
   24.1791  -22.0748  -13.5586 C   0  0  2  0  0  0  0  0  0  0  0  0
   25.1268  -22.2953  -14.6325 N   0  0  0  0  0  0  0  0  0  0  0  0
   23.0924  -21.1517  -13.9712 C   0  0  0  0  0  0  0  0  0  0  0  0
   23.3574  -20.1518  -14.7018 O   0  0  0  0  0  0  0  0  0  0  0  0
   16.8759  -23.3021  -18.4283 N   0  0  0  0  0  0  0  0  0  0  0  0
   17.8810  -23.7898  -17.5595 C   0  0  0  0  0  0  0  0  0  0  0  0
   18.0459  -25.0535  -17.3827 N   0  0  0  0  0  0  0  0  0  0  0  0
   18.7474  -22.9141  -16.8484 N   0  0  0  0  0  0  0  0  0  0  0  0
   18.7235  -21.4727  -16.9788 C   0  0  0  0  0  0  0  0  0  0  0  0
   19.9066  -20.9410  -16.1635 C   0  0  0  0  0  0  0  0  0  0  0  0
   19.6430  -21.0533  -14.6978 C   0  0  0  0  0  0  0  0  0  0  0  0
   20.6986  -20.4059  -13.8873 C   0  0  2  0  0  0  0  0  0  0  0  0
   21.7741  -21.3748  -13.5616 N   0  0  0  0  0  0  0  0  0  0  0  0
   20.2369  -19.7374  -12.6610 C   0  0  0  0  0  0  0  0  0  0  0  0
   19.6214  -18.5017  -12.6890 O   0  0  0  0  0  0  0  0  0  0  0  0
   20.4076  -20.3072  -11.5264 O   0  0  0  0  0  0  0  0  0  0  0  0
  2  1  1  6
  2  3  1  0
  2  4  1  0
  4  5  1  1
  6  7  2  0
  6  4  1  0
  9  8  1  6
 10  9  1  0
 11  9  1  0
 11 12  1  6
 12  6  1  0
 13 11  1  0
 14 13  2  0
 16 15  1  0
 16 17  2  0
 18 16  1  0
 19 18  1  0
 20 19  1  0
 21 20  1  0
 22 21  1  1
 22 23  1  0
 23 13  1  0
 24 22  1  0
 24 25  1  0
 26 24  2  0
M  END
$$$$
