VTR.pdb
     RDKit          3D

 26 25  0  0  1  0  0  0  0  0999 V2000
   23.6142  -21.0168  -17.5105 C   0  0  0  0  0  0  0  0  0  0  0  0
   23.5969  -19.6473  -16.9049 C   0  0  1  0  0  0  0  0  0  0  0  0
   22.2572  -19.3679  -16.2932 C   0  0  0  0  0  0  0  0  0  0  0  0
   24.7386  -19.4077  -15.9345 C   0  0  2  0  0  0  0  0  0  0  0  0
   24.7448  -20.3196  -14.8445 N   0  0  0  0  0  0  0  0  0  0  0  0
   24.6614  -17.9814  -15.5424 C   0  0  0  0  0  0  0  0  0  0  0  0
   24.0847  -17.7502  -14.4357 O   0  0  0  0  0  0  0  0  0  0  0  0
   25.9191  -13.2462  -15.8952 C   0  0  0  0  0  0  0  0  0  0  0  0
   26.0670  -14.6794  -16.3137 C   0  0  1  0  0  0  0  0  0  0  0  0
   27.2923  -15.1951  -15.9907 O   0  0  0  0  0  0  0  0  0  0  0  0
   24.9471  -15.5518  -15.7886 C   0  0  2  0  0  0  0  0  0  0  0  0
   25.1596  -16.9006  -16.2738 N   0  0  0  0  0  0  0  0  0  0  0  0
   23.6019  -15.0448  -16.1585 C   0  0  0  0  0  0  0  0  0  0  0  0
   23.1180  -15.3127  -17.2977 O   0  0  0  0  0  0  0  0  0  0  0  0
   15.9287  -15.4289  -12.4628 N   0  0  0  0  0  0  0  0  0  0  0  0
   16.6469  -16.0241  -13.5269 C   0  0  0  0  0  0  0  0  0  0  0  0
   16.3465  -17.2013  -13.9505 N   0  0  0  0  0  0  0  0  0  0  0  0
   17.7238  -15.3552  -14.1718 N   0  0  0  0  0  0  0  0  0  0  0  0
   18.1403  -14.0051  -13.8571 C   0  0  0  0  0  0  0  0  0  0  0  0
   19.1569  -13.6008  -14.9295 C   0  0  0  0  0  0  0  0  0  0  0  0
   20.5162  -14.1294  -14.6082 C   0  0  0  0  0  0  0  0  0  0  0  0
   21.5205  -13.7493  -15.6266 C   0  0  2  0  0  0  0  0  0  0  0  0
   22.8595  -14.2725  -15.2596 N   0  0  0  0  0  0  0  0  0  0  0  0
   21.6081  -12.3116  -15.9260 C   0  0  0  0  0  0  0  0  0  0  0  0
   20.7732  -11.7031  -16.8420 O   0  0  0  0  0  0  0  0  0  0  0  0
   22.4829  -11.5923  -15.3275 O   0  0  0  0  0  0  0  0  0  0  0  0
  2  1  1  1
  2  3  1  0
  2  4  1  0
  4  5  1  1
  6  7  2  0
  6  4  1  0
  9  8  1  1
 10  9  1  0
 11  9  1  0
 11 12  1  6
 12  6  1  0
 13 11  1  0
 14 13  2  0
 16 15  1  0
 16 17  2  0
 18 16  1  0
 19 18  1  0
 20 19  1  0
 21 20  1  0
 22 21  1  1
 22 23  1  0
 23 13  1  0
 24 22  1  0
 24 25  1  0
 26 24  2  0
M  END
$$$$
