VTR.pdb
     RDKit          3D

 26 25  0  0  1  0  0  0  0  0999 V2000
   26.3850  -11.8867  -16.1058 C   0  0  0  0  0  0  0  0  0  0  0  0
   25.7452  -10.6054  -15.6680 C   0  0  1  0  0  0  0  0  0  0  0  0
   26.7949   -9.5824  -15.3545 C   0  0  0  0  0  0  0  0  0  0  0  0
   24.7074  -10.0897  -16.6477 C   0  0  2  0  0  0  0  0  0  0  0  0
   25.2531   -9.7669  -17.9196 N   0  0  0  0  0  0  0  0  0  0  0  0
   24.0166   -8.9670  -15.9722 C   0  0  0  0  0  0  0  0  0  0  0  0
   23.2586   -9.2936  -15.0081 O   0  0  0  0  0  0  0  0  0  0  0  0
   23.0950   -4.1988  -15.1466 C   0  0  0  0  0  0  0  0  0  0  0  0
   23.9052   -5.2787  -15.8015 C   0  0  1  0  0  0  0  0  0  0  0  0
   25.2072   -5.2836  -15.3815 O   0  0  0  0  0  0  0  0  0  0  0  0
   23.2731   -6.6456  -15.6502 C   0  0  2  0  0  0  0  0  0  0  0  0
   24.1305   -7.6146  -16.3028 N   0  0  0  0  0  0  0  0  0  0  0  0
   21.8873   -6.6998  -16.1794 C   0  0  0  0  0  0  0  0  0  0  0  0
   21.6899   -6.7191  -17.4302 O   0  0  0  0  0  0  0  0  0  0  0  0
   15.2617  -11.2321  -17.8112 N   0  0  0  0  0  0  0  0  0  0  0  0
   14.6172  -10.1362  -17.1898 C   0  0  0  0  0  0  0  0  0  0  0  0
   13.3763   -9.8834  -17.4169 N   0  0  0  0  0  0  0  0  0  0  0  0
   15.3045   -9.2715  -16.2936 N   0  0  0  0  0  0  0  0  0  0  0  0
   16.7041   -9.4103  -15.9513 C   0  0  0  0  0  0  0  0  0  0  0  0
   17.3219   -8.0130  -16.0648 C   0  0  0  0  0  0  0  0  0  0  0  0
   18.7507   -8.0200  -15.6300 C   0  0  0  0  0  0  0  0  0  0  0  0
   19.4033   -6.7066  -15.8286 C   0  0  2  0  0  0  0  0  0  0  0  0
   20.7930   -6.7309  -15.3093 N   0  0  0  0  0  0  0  0  0  0  0  0
   18.6815   -5.5494  -15.2772 C   0  0  0  0  0  0  0  0  0  0  0  0
   19.1867   -4.8028  -14.2313 O   0  0  0  0  0  0  0  0  0  0  0  0
   17.5479   -5.2158  -15.7718 O   0  0  0  0  0  0  0  0  0  0  0  0
  2  1  1  6
  2  3  1  0
  2  4  1  0
  4  5  1  6
  6  7  2  0
  6  4  1  0
  9  8  1  1
 10  9  1  0
 11  9  1  0
 11 12  1  6
 12  6  1  0
 13 11  1  0
 14 13  2  0
 16 15  1  0
 16 17  2  0
 18 16  1  0
 19 18  1  0
 20 19  1  0
 21 20  1  0
 22 21  1  1
 22 23  1  0
 23 13  1  0
 24 22  1  0
 24 25  1  0
 26 24  2  0
M  END
$$$$
