HNV.pdb
     RDKit          3D

 26 26  0  0  1  0  0  0  0  0999 V2000
    9.4053  -15.6389   19.6924 N   0  0  0  0  0  0  0  0  0  0  0  0
    8.2305  -14.8325   19.8831 C   0  0  1  0  0  0  0  0  0  0  0  0
    7.2328  -15.1336   18.7971 C   0  0  0  0  0  0  0  0  0  0  0  0
    7.7619  -14.7807   17.4543 C   0  0  0  0  0  0  0  0  0  0  0  0
    8.5770  -13.6826   17.1718 C   0  0  0  0  0  0  0  0  0  0  0  0
    8.8559  -13.6827   15.8511 N   0  0  0  0  0  0  0  0  0  0  0  0
    8.2311  -14.7556   15.3150 C   0  0  0  0  0  0  0  0  0  0  0  0
    7.5796  -15.4055   16.2821 N   0  0  0  0  0  0  0  0  0  0  0  0
    7.5591  -15.2107   21.1940 C   0  0  0  0  0  0  0  0  0  0  0  0
    6.4381  -14.7031   21.3474 O   0  0  0  0  0  0  0  0  0  0  0  0
    6.6580  -18.8308   25.4208 N   0  0  0  0  0  0  0  0  0  0  0  0
    7.9221  -18.2480   25.1808 C   0  0  0  0  0  0  0  0  0  0  0  0
    8.7048  -18.0998   26.1494 O   0  0  0  0  0  0  0  0  0  0  0  0
    8.2978  -17.8338   23.8421 C   0  0  0  0  0  0  0  0  0  0  0  0
    7.7661  -16.4677   23.4089 C   0  0  2  0  0  0  0  0  0  0  0  0
    8.1848  -16.0505   22.1033 N   0  0  0  0  0  0  0  0  0  0  0  0
    8.3748  -15.5199   24.4092 C   0  0  0  0  0  0  0  0  0  0  0  0
    9.6128  -15.2940   24.4293 O   0  0  0  0  0  0  0  0  0  0  0  0
    6.2660  -12.2912   25.7027 C   0  0  0  0  0  0  0  0  0  0  0  0
    6.9286  -13.0347   26.8358 C   0  0  2  0  0  0  0  0  0  0  0  0
    7.4974  -12.0274   27.7950 C   0  0  0  0  0  0  0  0  0  0  0  0
    8.0949  -13.8905   26.3190 C   0  0  2  0  0  0  0  0  0  0  0  0
    7.5614  -14.8553   25.3568 N   0  0  0  0  0  0  0  0  0  0  0  0
    8.6336  -14.6098   27.4916 C   0  0  0  0  0  0  0  0  0  0  0  0
    8.0879  -15.6923   27.8249 O   0  0  0  0  0  0  0  0  0  0  0  0
    9.6954  -14.1973   28.2657 O   0  0  0  0  0  0  0  0  0  0  0  0
  2  1  1  6
  2  9  1  0
  3  4  1  0
  3  2  1  0
  4  5  2  0
  4  8  1  0
  5  6  1  0
  6  7  1  0
  8  7  2  0
  9 10  2  0
 11 12  1  0
 12 13  2  0
 12 14  1  0
 15 14  1  1
 15 17  1  0
 16  9  1  0
 16 15  1  0
 17 23  1  0
 17 18  2  0
 20 19  1  6
 20 22  1  0
 21 20  1  0
 22 24  1  0
 22 23  1  6
 24 25  2  0
 24 26  1  0
M  END
$$$$
