HNV.pdb
     RDKit          3D

 26 26  0  0  1  0  0  0  0  0999 V2000
    9.1604  -15.6327   20.2302 N   0  0  0  0  0  0  0  0  0  0  0  0
    8.0130  -14.7848   20.4071 C   0  0  1  0  0  0  0  0  0  0  0  0
    6.9804  -15.1124   19.3622 C   0  0  0  0  0  0  0  0  0  0  0  0
    7.4168  -14.6841   18.0080 C   0  0  0  0  0  0  0  0  0  0  0  0
    8.6380  -14.0766   17.7090 C   0  0  0  0  0  0  0  0  0  0  0  0
    8.6819  -13.8294   16.3826 N   0  0  0  0  0  0  0  0  0  0  0  0
    7.5157  -14.2711   15.8592 C   0  0  0  0  0  0  0  0  0  0  0  0
    6.7662  -14.7803   16.8396 N   0  0  0  0  0  0  0  0  0  0  0  0
    7.3650  -15.0768   21.7514 C   0  0  0  0  0  0  0  0  0  0  0  0
    6.3077  -14.4578   21.9428 O   0  0  0  0  0  0  0  0  0  0  0  0
    5.9382  -19.1671   24.3086 N   0  0  0  0  0  0  0  0  0  0  0  0
    7.1873  -18.7551   23.7937 C   0  0  0  0  0  0  0  0  0  0  0  0
    7.6285  -19.3271   22.7685 O   0  0  0  0  0  0  0  0  0  0  0  0
    7.9354  -17.6945   24.4419 C   0  0  0  0  0  0  0  0  0  0  0  0
    7.5756  -16.2770   23.9972 C   0  0  2  0  0  0  0  0  0  0  0  0
    7.9432  -15.9629   22.6481 N   0  0  0  0  0  0  0  0  0  0  0  0
    8.3956  -15.4031   24.9101 C   0  0  0  0  0  0  0  0  0  0  0  0
    9.6384  -15.2774   24.7555 O   0  0  0  0  0  0  0  0  0  0  0  0
    6.3168  -12.8607   27.5336 C   0  0  0  0  0  0  0  0  0  0  0  0
    7.7285  -12.5478   27.1034 C   0  0  2  0  0  0  0  0  0  0  0  0
    7.6735  -11.8255   25.7868 C   0  0  0  0  0  0  0  0  0  0  0  0
    8.5326  -13.8389   26.8889 C   0  0  2  0  0  0  0  0  0  0  0  0
    7.7820  -14.6966   25.9710 N   0  0  0  0  0  0  0  0  0  0  0  0
    8.6270  -14.4937   28.2097 C   0  0  0  0  0  0  0  0  0  0  0  0
    7.9133  -15.5069   28.4214 O   0  0  0  0  0  0  0  0  0  0  0  0
    9.4377  -14.0901   29.2474 O   0  0  0  0  0  0  0  0  0  0  0  0
  2  1  1  6
  2  9  1  0
  3  4  1  0
  3  2  1  0
  4  5  2  0
  4  8  1  0
  5  6  1  0
  6  7  1  0
  8  7  2  0
  9 10  2  0
 11 12  1  0
 12 13  2  0
 12 14  1  0
 15 14  1  1
 15 17  1  0
 16  9  1  0
 16 15  1  0
 17 23  1  0
 17 18  2  0
 20 19  1  6
 20 22  1  0
 21 20  1  0
 22 24  1  0
 22 23  1  6
 24 25  2  0
 24 26  1  0
M  END
$$$$
