HNV.pdb
     RDKit          3D

 26 26  0  0  1  0  0  0  0  0999 V2000
    8.0363  -16.8298   19.2137 N   0  0  0  0  0  0  0  0  0  0  0  0
    7.9467  -15.6600   20.0445 C   0  0  1  0  0  0  0  0  0  0  0  0
    7.0048  -14.6683   19.4159 C   0  0  0  0  0  0  0  0  0  0  0  0
    7.5523  -14.1213   18.1475 C   0  0  0  0  0  0  0  0  0  0  0  0
    8.3890  -13.0082   18.0442 C   0  0  0  0  0  0  0  0  0  0  0  0
    8.6798  -12.8084   16.7413 N   0  0  0  0  0  0  0  0  0  0  0  0
    8.0412  -13.7733   16.0411 C   0  0  0  0  0  0  0  0  0  0  0  0
    7.3697  -14.5530   16.8914 N   0  0  0  0  0  0  0  0  0  0  0  0
    7.3375  -16.0328   21.3870 C   0  0  0  0  0  0  0  0  0  0  0  0
    6.1015  -15.9390   21.4196 O   0  0  0  0  0  0  0  0  0  0  0  0
    7.1346  -17.3747   26.4752 N   0  0  0  0  0  0  0  0  0  0  0  0
    8.0706  -18.1940   25.8059 C   0  0  0  0  0  0  0  0  0  0  0  0
    8.5820  -19.1519   26.4336 O   0  0  0  0  0  0  0  0  0  0  0  0
    8.4259  -17.9266   24.4251 C   0  0  0  0  0  0  0  0  0  0  0  0
    7.7888  -16.6766   23.8181 C   0  0  2  0  0  0  0  0  0  0  0  0
    8.1345  -16.4351   22.4484 N   0  0  0  0  0  0  0  0  0  0  0  0
    8.3651  -15.5534   24.6402 C   0  0  0  0  0  0  0  0  0  0  0  0
    9.5974  -15.2975   24.6284 O   0  0  0  0  0  0  0  0  0  0  0  0
    7.3526  -11.4103   27.1899 C   0  0  0  0  0  0  0  0  0  0  0  0
    6.8744  -12.6421   26.4620 C   0  0  2  0  0  0  0  0  0  0  0  0
    5.8481  -13.3296   27.3178 C   0  0  0  0  0  0  0  0  0  0  0  0
    8.0302  -13.6300   26.2431 C   0  0  2  0  0  0  0  0  0  0  0  0
    7.5267  -14.7528   25.4511 N   0  0  0  0  0  0  0  0  0  0  0  0
    8.4256  -14.1100   27.5832 C   0  0  0  0  0  0  0  0  0  0  0  0
    8.0179  -15.2407   27.9519 O   0  0  0  0  0  0  0  0  0  0  0  0
    9.2122  -13.4220   28.4802 O   0  0  0  0  0  0  0  0  0  0  0  0
  2  1  1  6
  2  9  1  0
  3  4  1  0
  3  2  1  0
  4  5  2  0
  4  8  1  0
  5  6  1  0
  6  7  1  0
  8  7  2  0
  9 10  2  0
 11 12  1  0
 12 13  2  0
 12 14  1  0
 15 14  1  1
 15 17  1  0
 16  9  1  0
 16 15  1  0
 17 23  1  0
 17 18  2  0
 20 19  1  1
 20 22  1  0
 21 20  1  0
 22 24  1  0
 22 23  1  6
 24 25  2  0
 24 26  1  0
M  END
$$$$
