HNV.pdb
     RDKit          3D

 26 26  0  0  1  0  0  0  0  0999 V2000
    7.2226  -16.9535   19.7418 N   0  0  0  0  0  0  0  0  0  0  0  0
    7.5869  -15.8901   20.6379 C   0  0  1  0  0  0  0  0  0  0  0  0
    6.9280  -14.6115   20.1944 C   0  0  0  0  0  0  0  0  0  0  0  0
    7.5476  -14.0779   18.9538 C   0  0  0  0  0  0  0  0  0  0  0  0
    8.4641  -13.0259   18.8984 C   0  0  0  0  0  0  0  0  0  0  0  0
    8.8040  -12.8193   17.6084 N   0  0  0  0  0  0  0  0  0  0  0  0
    8.1176  -13.7203   16.8694 C   0  0  0  0  0  0  0  0  0  0  0  0
    7.3691  -14.4680   17.6836 N   0  0  0  0  0  0  0  0  0  0  0  0
    7.0470  -16.1866   22.0281 C   0  0  0  0  0  0  0  0  0  0  0  0
    5.8100  -16.1444   22.1047 O   0  0  0  0  0  0  0  0  0  0  0  0
    5.9806  -19.5616   24.6092 N   0  0  0  0  0  0  0  0  0  0  0  0
    7.3147  -19.2566   24.2595 C   0  0  0  0  0  0  0  0  0  0  0  0
    7.8742  -19.9505   23.3773 O   0  0  0  0  0  0  0  0  0  0  0  0
    8.0134  -18.1645   24.9105 C   0  0  0  0  0  0  0  0  0  0  0  0
    7.6041  -16.7642   24.4539 C   0  0  2  0  0  0  0  0  0  0  0  0
    7.9014  -16.4725   23.0826 N   0  0  0  0  0  0  0  0  0  0  0  0
    8.4482  -15.8548   25.3084 C   0  0  0  0  0  0  0  0  0  0  0  0
    9.6850  -15.7310   25.1109 O   0  0  0  0  0  0  0  0  0  0  0  0
    7.2316  -12.2767   26.4742 C   0  0  0  0  0  0  0  0  0  0  0  0
    7.7182  -13.0663   27.6640 C   0  0  2  0  0  0  0  0  0  0  0  0
    8.5271  -12.1523   28.5406 C   0  0  0  0  0  0  0  0  0  0  0  0
    8.6381  -14.2132   27.2188 C   0  0  2  0  0  0  0  0  0  0  0  0
    7.8645  -15.1119   26.3613 N   0  0  0  0  0  0  0  0  0  0  0  0
    9.0366  -14.9273   28.4492 C   0  0  0  0  0  0  0  0  0  0  0  0
    8.3414  -15.9083   28.8166 O   0  0  0  0  0  0  0  0  0  0  0  0
   10.1167  -14.6124   29.2436 O   0  0  0  0  0  0  0  0  0  0  0  0
  2  1  1  6
  2  9  1  0
  3  4  1  0
  3  2  1  0
  4  5  2  0
  4  8  1  0
  5  6  1  0
  6  7  1  0
  8  7  2  0
  9 10  2  0
 11 12  1  0
 12 13  2  0
 12 14  1  0
 15 14  1  1
 15 17  1  0
 16  9  1  0
 16 15  1  0
 17 23  1  0
 17 18  2  0
 20 19  1  6
 20 22  1  0
 21 20  1  0
 22 24  1  0
 22 23  1  6
 24 25  2  0
 24 26  1  0
M  END
$$$$
