HNV.pdb
     RDKit          3D

 26 26  0  0  1  0  0  0  0  0999 V2000
    7.3735  -17.1313   19.7568 N   0  0  0  0  0  0  0  0  0  0  0  0
    7.8891  -16.0940   20.6082 C   0  0  1  0  0  0  0  0  0  0  0  0
    7.1530  -14.8094   20.3370 C   0  0  0  0  0  0  0  0  0  0  0  0
    7.6652  -14.1316   19.1180 C   0  0  0  0  0  0  0  0  0  0  0  0
    8.7303  -14.5793   18.3338 C   0  0  0  0  0  0  0  0  0  0  0  0
    8.9097  -13.7108   17.3162 N   0  0  0  0  0  0  0  0  0  0  0  0
    7.9791  -12.7395   17.4565 C   0  0  0  0  0  0  0  0  0  0  0  0
    7.2401  -13.0005   18.5371 N   0  0  0  0  0  0  0  0  0  0  0  0
    7.6135  -16.4432   22.0623 C   0  0  0  0  0  0  0  0  0  0  0  0
    6.4396  -16.7756   22.2838 O   0  0  0  0  0  0  0  0  0  0  0  0
    8.5649  -19.0789   23.0262 N   0  0  0  0  0  0  0  0  0  0  0  0
    9.4479  -18.9633   24.1227 C   0  0  0  0  0  0  0  0  0  0  0  0
   10.1965  -19.9331   24.3911 O   0  0  0  0  0  0  0  0  0  0  0  0
    9.4813  -17.7479   24.9141 C   0  0  0  0  0  0  0  0  0  0  0  0
    8.5622  -16.6275   24.4275 C   0  0  2  0  0  0  0  0  0  0  0  0
    8.6175  -16.3798   23.0170 N   0  0  0  0  0  0  0  0  0  0  0  0
    9.0964  -15.4053   25.1279 C   0  0  0  0  0  0  0  0  0  0  0  0
   10.2275  -14.9302   24.8467 O   0  0  0  0  0  0  0  0  0  0  0  0
    6.4932  -13.2902   27.7393 C   0  0  0  0  0  0  0  0  0  0  0  0
    7.6598  -12.6172   27.0597 C   0  0  2  0  0  0  0  0  0  0  0  0
    7.2206  -12.1743   25.6925 C   0  0  0  0  0  0  0  0  0  0  0  0
    8.8253  -13.6006   26.8745 C   0  0  2  0  0  0  0  0  0  0  0  0
    8.3316  -14.7572   26.1260 N   0  0  0  0  0  0  0  0  0  0  0  0
    9.2288  -14.0265   28.2303 C   0  0  0  0  0  0  0  0  0  0  0  0
    8.8623  -15.1612   28.6288 O   0  0  0  0  0  0  0  0  0  0  0  0
    9.9814  -13.2831   29.1123 O   0  0  0  0  0  0  0  0  0  0  0  0
  2  1  1  6
  2  9  1  0
  3  4  1  0
  3  2  1  0
  4  5  2  0
  4  8  1  0
  5  6  1  0
  6  7  1  0
  8  7  2  0
  9 10  2  0
 11 12  1  0
 12 13  2  0
 12 14  1  0
 15 14  1  6
 15 17  1  0
 16  9  1  0
 16 15  1  0
 17 23  1  0
 17 18  2  0
 20 19  1  6
 20 22  1  0
 21 20  1  0
 22 24  1  0
 22 23  1  6
 24 25  2  0
 24 26  1  0
M  END
$$$$
