HNV.pdb
     RDKit          3D

 26 26  0  0  1  0  0  0  0  0999 V2000
    9.1816  -15.7673   20.1042 N   0  0  0  0  0  0  0  0  0  0  0  0
    8.1941  -14.7458   20.3235 C   0  0  1  0  0  0  0  0  0  0  0  0
    7.1190  -14.8532   19.2755 C   0  0  0  0  0  0  0  0  0  0  0  0
    7.6170  -14.4451   17.9364 C   0  0  0  0  0  0  0  0  0  0  0  0
    8.9232  -14.0431   17.6499 C   0  0  0  0  0  0  0  0  0  0  0  0
    9.0034  -13.7472   16.3354 N   0  0  0  0  0  0  0  0  0  0  0  0
    7.7765  -13.9581   15.8069 C   0  0  0  0  0  0  0  0  0  0  0  0
    6.9547  -14.3751   16.7727 N   0  0  0  0  0  0  0  0  0  0  0  0
    7.5087  -14.9773   21.6610 C   0  0  0  0  0  0  0  0  0  0  0  0
    6.5925  -14.1764   21.8996 O   0  0  0  0  0  0  0  0  0  0  0  0
    6.6820  -19.8240   23.5174 N   0  0  0  0  0  0  0  0  0  0  0  0
    6.6777  -18.6562   24.3120 C   0  0  0  0  0  0  0  0  0  0  0  0
    5.6788  -18.4305   25.0361 O   0  0  0  0  0  0  0  0  0  0  0  0
    7.8063  -17.7450   24.2850 C   0  0  0  0  0  0  0  0  0  0  0  0
    7.4836  -16.3204   23.8344 C   0  0  2  0  0  0  0  0  0  0  0  0
    7.9086  -16.0045   22.5027 N   0  0  0  0  0  0  0  0  0  0  0  0
    8.2786  -15.4625   24.7839 C   0  0  0  0  0  0  0  0  0  0  0  0
    9.5371  -15.4574   24.7659 O   0  0  0  0  0  0  0  0  0  0  0  0
    6.1026  -13.0906   27.5428 C   0  0  0  0  0  0  0  0  0  0  0  0
    7.4235  -12.5865   27.0165 C   0  0  2  0  0  0  0  0  0  0  0  0
    7.1648  -11.8009   25.7619 C   0  0  0  0  0  0  0  0  0  0  0  0
    8.3464  -13.7574   26.6464 C   0  0  2  0  0  0  0  0  0  0  0  0
    7.6230  -14.6349   25.7254 N   0  0  0  0  0  0  0  0  0  0  0  0
    8.6221  -14.4823   27.9038 C   0  0  0  0  0  0  0  0  0  0  0  0
    8.0089  -15.5596   28.1136 O   0  0  0  0  0  0  0  0  0  0  0  0
    9.5032  -14.0802   28.8831 O   0  0  0  0  0  0  0  0  0  0  0  0
  2  1  1  6
  2  9  1  0
  3  4  1  0
  3  2  1  0
  4  5  2  0
  4  8  1  0
  5  6  1  0
  6  7  1  0
  8  7  2  0
  9 10  2  0
 11 12  1  0
 12 13  2  0
 12 14  1  0
 15 14  1  1
 15 17  1  0
 16  9  1  0
 16 15  1  0
 17 23  1  0
 17 18  2  0
 20 19  1  6
 20 22  1  0
 21 20  1  0
 22 24  1  0
 22 23  1  6
 24 25  2  0
 24 26  1  0
M  END
$$$$
