HNV.pdb
     RDKit          3D

 26 26  0  0  1  0  0  0  0  0999 V2000
    8.5127  -17.6082   18.7930 N   0  0  0  0  0  0  0  0  0  0  0  0
    8.2003  -16.3937   19.4961 C   0  0  1  0  0  0  0  0  0  0  0  0
    7.1102  -15.6565   18.7655 C   0  0  0  0  0  0  0  0  0  0  0  0
    7.6491  -14.8722   17.6245 C   0  0  0  0  0  0  0  0  0  0  0  0
    8.9889  -14.8351   17.2329 C   0  0  0  0  0  0  0  0  0  0  0  0
    9.1020  -14.0185   16.1640 N   0  0  0  0  0  0  0  0  0  0  0  0
    7.8624  -13.5528   15.8892 C   0  0  0  0  0  0  0  0  0  0  0  0
    7.0009  -14.0692   16.7685 N   0  0  0  0  0  0  0  0  0  0  0  0
    7.6404  -16.7286   20.8696 C   0  0  0  0  0  0  0  0  0  0  0  0
    6.5365  -17.2925   20.8367 O   0  0  0  0  0  0  0  0  0  0  0  0
    9.2198  -18.6191   26.3312 N   0  0  0  0  0  0  0  0  0  0  0  0
    8.2805  -18.0503   25.4428 C   0  0  0  0  0  0  0  0  0  0  0  0
    7.1519  -17.7342   25.8891 O   0  0  0  0  0  0  0  0  0  0  0  0
    8.6218  -17.8403   24.0485 C   0  0  0  0  0  0  0  0  0  0  0  0
    7.9840  -16.6123   23.3988 C   0  0  2  0  0  0  0  0  0  0  0  0
    8.3391  -16.4114   22.0249 N   0  0  0  0  0  0  0  0  0  0  0  0
    8.5493  -15.4620   24.1904 C   0  0  0  0  0  0  0  0  0  0  0  0
    9.7534  -15.1145   24.0735 O   0  0  0  0  0  0  0  0  0  0  0  0
    7.4928  -11.3897   26.8118 C   0  0  0  0  0  0  0  0  0  0  0  0
    7.0520  -12.6076   26.0383 C   0  0  2  0  0  0  0  0  0  0  0  0
    5.9906  -13.3149   26.8328 C   0  0  0  0  0  0  0  0  0  0  0  0
    8.2198  -13.5880   25.8519 C   0  0  2  0  0  0  0  0  0  0  0  0
    7.7322  -14.7388   25.0907 N   0  0  0  0  0  0  0  0  0  0  0  0
    8.6157  -14.0247   27.2065 C   0  0  0  0  0  0  0  0  0  0  0  0
    8.1649  -15.1185   27.6320 O   0  0  0  0  0  0  0  0  0  0  0  0
    9.4464  -13.3330   28.0599 O   0  0  0  0  0  0  0  0  0  0  0  0
  2  1  1  6
  2  9  1  0
  3  4  1  0
  3  2  1  0
  4  5  2  0
  4  8  1  0
  5  6  1  0
  6  7  1  0
  8  7  2  0
  9 10  2  0
 11 12  1  0
 12 13  2  0
 12 14  1  0
 15 14  1  1
 15 17  1  0
 16  9  1  0
 16 15  1  0
 17 23  1  0
 17 18  2  0
 20 19  1  1
 20 22  1  0
 21 20  1  0
 22 24  1  0
 22 23  1  6
 24 25  2  0
 24 26  1  0
M  END
$$$$
