HNV.pdb
     RDKit          3D

 26 26  0  0  1  0  0  0  0  0999 V2000
    8.8284  -16.0545   20.4209 N   0  0  0  0  0  0  0  0  0  0  0  0
    8.1849  -14.8622   20.9016 C   0  0  1  0  0  0  0  0  0  0  0  0
    7.0255  -14.5206   20.0046 C   0  0  0  0  0  0  0  0  0  0  0  0
    7.4761  -14.1984   18.6259 C   0  0  0  0  0  0  0  0  0  0  0  0
    8.8015  -14.2137   18.1866 C   0  0  0  0  0  0  0  0  0  0  0  0
    8.8262  -13.8664   16.8825 N   0  0  0  0  0  0  0  0  0  0  0  0
    7.5464  -13.6381   16.5097 C   0  0  0  0  0  0  0  0  0  0  0  0
    6.7469  -13.8393   17.5597 N   0  0  0  0  0  0  0  0  0  0  0  0
    7.5950  -15.1205   22.2792 C   0  0  0  0  0  0  0  0  0  0  0  0
    6.8529  -14.2134   22.6844 O   0  0  0  0  0  0  0  0  0  0  0  0
    6.5421  -19.8474   22.8824 N   0  0  0  0  0  0  0  0  0  0  0  0
    6.2975  -18.8148   23.8146 C   0  0  0  0  0  0  0  0  0  0  0  0
    5.1110  -18.4630   24.0182 O   0  0  0  0  0  0  0  0  0  0  0  0
    7.3987  -18.1818   24.5155 C   0  0  0  0  0  0  0  0  0  0  0  0
    7.5225  -16.6724   24.3076 C   0  0  2  0  0  0  0  0  0  0  0  0
    7.8907  -16.2808   22.9791 N   0  0  0  0  0  0  0  0  0  0  0  0
    8.6489  -16.2817   25.2285 C   0  0  0  0  0  0  0  0  0  0  0  0
    9.8520  -16.3824   24.8724 O   0  0  0  0  0  0  0  0  0  0  0  0
    8.2380  -13.0393   27.3496 C   0  0  0  0  0  0  0  0  0  0  0  0
    8.8046  -14.1181   28.2389 C   0  0  2  0  0  0  0  0  0  0  0  0
    9.9057  -13.5190   29.0677 C   0  0  0  0  0  0  0  0  0  0  0  0
    9.4200  -15.2490   27.4010 C   0  0  2  0  0  0  0  0  0  0  0  0
    8.3779  -15.7873   26.5259 N   0  0  0  0  0  0  0  0  0  0  0  0
    9.8464  -16.2902   28.3583 C   0  0  0  0  0  0  0  0  0  0  0  0
    9.0514  -17.2334   28.6013 O   0  0  0  0  0  0  0  0  0  0  0  0
   11.0540  -16.3235   29.0198 O   0  0  0  0  0  0  0  0  0  0  0  0
  2  1  1  6
  2  9  1  0
  3  4  1  0
  3  2  1  0
  4  5  2  0
  4  8  1  0
  5  6  1  0
  6  7  1  0
  8  7  2  0
  9 10  2  0
 11 12  1  0
 12 13  2  0
 12 14  1  0
 15 14  1  6
 15 17  1  0
 16  9  1  0
 16 15  1  0
 17 23  1  0
 17 18  2  0
 20 19  1  6
 20 22  1  0
 21 20  1  0
 22 24  1  0
 22 23  1  6
 24 25  2  0
 24 26  1  0
M  END
$$$$
