FAT.pdb
     RDKit          3D

 24 24  0  0  1  0  0  0  0  0999 V2000
   27.4997  -21.1876  -15.5258 N   0  0  0  0  0  0  0  0  0  0  0  0
   27.3075  -20.3141  -14.3972 C   0  0  1  0  0  0  0  0  0  0  0  0
   26.8190  -18.9438  -14.8175 C   0  0  0  0  0  0  0  0  0  0  0  0
   27.8733  -18.3726  -15.7224 C   0  0  0  0  0  0  0  0  0  0  0  0
   29.1777  -18.2300  -15.2703 C   0  0  0  0  0  0  0  0  0  0  0  0
   30.1574  -17.7070  -16.0904 C   0  0  0  0  0  0  0  0  0  0  0  0
   29.7790  -17.3374  -17.3675 C   0  0  0  0  0  0  0  0  0  0  0  0
   28.4832  -17.4773  -17.8219 C   0  0  0  0  0  0  0  0  0  0  0  0
   27.5066  -18.0002  -16.9999 C   0  0  0  0  0  0  0  0  0  0  0  0
   26.3384  -20.9558  -13.4728 C   0  0  0  0  0  0  0  0  0  0  0  0
   25.4978  -21.7943  -13.8811 O   0  0  0  0  0  0  0  0  0  0  0  0
   25.4880  -20.6568   -9.7633 C   0  0  0  0  0  0  0  0  0  0  0  0
   25.2526  -21.0519  -11.2035 C   0  0  2  0  0  0  0  0  0  0  0  0
   26.3100  -20.6554  -12.0760 N   0  0  0  0  0  0  0  0  0  0  0  0
   23.9623  -20.4362  -11.6321 C   0  0  0  0  0  0  0  0  0  0  0  0
   23.8548  -19.2043  -11.8535 O   0  0  0  0  0  0  0  0  0  0  0  0
   22.1338  -20.6290  -14.6776 C   0  0  0  0  0  0  0  0  0  0  0  0
   21.1116  -21.0405  -13.6290 C   0  0  1  0  0  0  0  0  0  0  0  0
   21.0498  -22.4353  -13.6788 O   0  0  0  0  0  0  0  0  0  0  0  0
   21.5360  -20.6457  -12.2447 C   0  0  2  0  0  0  0  0  0  0  0  0
   22.7717  -21.2025  -11.8175 N   0  0  0  0  0  0  0  0  0  0  0  0
   20.4131  -20.9642  -11.2951 C   0  0  0  0  0  0  0  0  0  0  0  0
   19.1820  -20.3334  -11.4028 O   0  0  0  0  0  0  0  0  0  0  0  0
   20.5392  -21.8079  -10.3706 O   0  0  0  0  0  0  0  0  0  0  0  0
  2  1  1  6
  3  2  1  0
  4  3  1  0
  5  4  2  0
  6  5  1  0
  7  6  2  0
  7  8  1  0
  8  9  2  0
  9  4  1  0
 10  2  1  0
 10 11  2  0
 13 12  1  1
 13 14  1  0
 13 15  1  0
 14 10  1  0
 15 16  2  0
 15 21  1  0
 18 17  1  6
 18 19  1  0
 18 20  1  0
 20 22  1  0
 20 21  1  1
 22 24  2  0
 22 23  1  0
M  END
$$$$
