FAT.pdb
     RDKit          3D

 24 24  0  0  1  0  0  0  0  0999 V2000
   28.7657  -21.4090   -8.8951 N   0  0  0  0  0  0  0  0  0  0  0  0
   27.3972  -20.9619   -8.9279 C   0  0  1  0  0  0  0  0  0  0  0  0
   27.2448  -19.5613   -8.3726 C   0  0  0  0  0  0  0  0  0  0  0  0
   27.6282  -19.6321   -6.9219 C   0  0  0  0  0  0  0  0  0  0  0  0
   26.7723  -20.2220   -6.0023 C   0  0  0  0  0  0  0  0  0  0  0  0
   27.1110  -20.2946   -4.6660 C   0  0  0  0  0  0  0  0  0  0  0  0
   28.3294  -19.7573   -4.2947 C   0  0  0  0  0  0  0  0  0  0  0  0
   29.1841  -19.1696   -5.2053 C   0  0  0  0  0  0  0  0  0  0  0  0
   28.8425  -19.0987   -6.5399 C   0  0  0  0  0  0  0  0  0  0  0  0
   26.9218  -21.0236  -10.3334 C   0  0  0  0  0  0  0  0  0  0  0  0
   27.6639  -20.6983  -11.2926 O   0  0  0  0  0  0  0  0  0  0  0  0
   24.2958  -22.8022  -12.2512 C   0  0  0  0  0  0  0  0  0  0  0  0
   25.1201  -21.5582  -12.0085 C   0  0  2  0  0  0  0  0  0  0  0  0
   25.6012  -21.4543  -10.6690 N   0  0  0  0  0  0  0  0  0  0  0  0
   24.2678  -20.3819  -12.3508 C   0  0  0  0  0  0  0  0  0  0  0  0
   23.5914  -19.7760  -11.4827 O   0  0  0  0  0  0  0  0  0  0  0  0
   25.0620  -17.3060  -15.0712 C   0  0  0  0  0  0  0  0  0  0  0  0
   23.7465  -18.0420  -15.2753 C   0  0  1  0  0  0  0  0  0  0  0  0
   23.9827  -18.9790  -16.2843 O   0  0  0  0  0  0  0  0  0  0  0  0
   23.3215  -18.7863  -14.0434 C   0  0  2  0  0  0  0  0  0  0  0  0
   24.1655  -19.8705  -13.6801 N   0  0  0  0  0  0  0  0  0  0  0  0
   21.8906  -19.2170  -14.2191 C   0  0  0  0  0  0  0  0  0  0  0  0
   20.8649  -18.2855  -14.2916 O   0  0  0  0  0  0  0  0  0  0  0  0
   21.5637  -20.4286  -14.3071 O   0  0  0  0  0  0  0  0  0  0  0  0
  2  1  1  6
  3  2  1  0
  4  3  1  0
  5  4  2  0
  6  5  1  0
  7  6  2  0
  7  8  1  0
  8  9  2  0
  9  4  1  0
 10  2  1  0
 10 11  2  0
 13 12  1  1
 13 14  1  0
 13 15  1  0
 14 10  1  0
 15 16  2  0
 15 21  1  0
 18 17  1  1
 18 19  1  0
 18 20  1  0
 20 22  1  0
 20 21  1  6
 22 24  2  0
 22 23  1  0
M  END
$$$$
