FAT.pdb
     RDKit          3D

 24 24  0  0  1  0  0  0  0  0999 V2000
   28.7120  -21.2092   -9.1269 N   0  0  0  0  0  0  0  0  0  0  0  0
   27.3184  -20.8609   -9.0254 C   0  0  1  0  0  0  0  0  0  0  0  0
   27.1130  -19.5524   -8.2915 C   0  0  0  0  0  0  0  0  0  0  0  0
   27.6363  -19.7564   -6.8982 C   0  0  0  0  0  0  0  0  0  0  0  0
   28.8028  -19.1239   -6.4918 C   0  0  0  0  0  0  0  0  0  0  0  0
   29.2958  -19.3016   -5.2146 C   0  0  0  0  0  0  0  0  0  0  0  0
   28.5786  -20.1302   -4.3720 C   0  0  0  0  0  0  0  0  0  0  0  0
   27.4179  -20.7615   -4.7713 C   0  0  0  0  0  0  0  0  0  0  0  0
   26.9281  -20.5818   -6.0483 C   0  0  0  0  0  0  0  0  0  0  0  0
   26.7571  -20.7861  -10.3983 C   0  0  0  0  0  0  0  0  0  0  0  0
   27.3530  -20.1750  -11.3191 O   0  0  0  0  0  0  0  0  0  0  0  0
   24.7710  -22.8136  -12.6095 C   0  0  0  0  0  0  0  0  0  0  0  0
   24.9818  -21.4178  -12.0678 C   0  0  2  0  0  0  0  0  0  0  0  0
   25.5150  -21.4023  -10.7441 N   0  0  0  0  0  0  0  0  0  0  0  0
   23.6647  -20.7172  -12.1093 C   0  0  0  0  0  0  0  0  0  0  0  0
   22.9936  -20.5013  -11.0696 O   0  0  0  0  0  0  0  0  0  0  0  0
   22.5261  -17.5056  -14.5077 C   0  0  0  0  0  0  0  0  0  0  0  0
   21.6130  -18.7201  -14.5772 C   0  0  1  0  0  0  0  0  0  0  0  0
   21.9851  -19.4156  -15.7303 O   0  0  0  0  0  0  0  0  0  0  0  0
   21.8042  -19.6354  -13.4033 C   0  0  2  0  0  0  0  0  0  0  0  0
   23.0839  -20.2488  -13.3268 N   0  0  0  0  0  0  0  0  0  0  0  0
   20.6905  -20.6472  -13.4039 C   0  0  0  0  0  0  0  0  0  0  0  0
   19.3880  -20.2802  -13.0975 O   0  0  0  0  0  0  0  0  0  0  0  0
   20.8887  -21.8585  -13.6793 O   0  0  0  0  0  0  0  0  0  0  0  0
  2  1  1  6
  3  2  1  0
  4  3  1  0
  5  4  2  0
  6  5  1  0
  7  6  2  0
  7  8  1  0
  8  9  2  0
  9  4  1  0
 10  2  1  0
 10 11  2  0
 13 12  1  1
 13 14  1  0
 13 15  1  0
 14 10  1  0
 15 16  2  0
 15 21  1  0
 18 17  1  1
 18 19  1  0
 18 20  1  0
 20 22  1  0
 20 21  1  6
 22 24  2  0
 22 23  1  0
M  END
$$$$
