FAT.pdb
     RDKit          3D

 24 24  0  0  1  0  0  0  0  0999 V2000
   24.0264  -11.5174  -19.3931 N   0  0  0  0  0  0  0  0  0  0  0  0
   23.0046  -10.5609  -19.0546 C   0  0  1  0  0  0  0  0  0  0  0  0
   21.8663  -11.1962  -18.2838 C   0  0  0  0  0  0  0  0  0  0  0  0
   21.1391  -12.0866  -19.2508 C   0  0  0  0  0  0  0  0  0  0  0  0
   20.3309  -11.5345  -20.2348 C   0  0  0  0  0  0  0  0  0  0  0  0
   19.6567  -12.3399  -21.1306 C   0  0  0  0  0  0  0  0  0  0  0  0
   19.8247  -13.7058  -21.0001 C   0  0  0  0  0  0  0  0  0  0  0  0
   20.6272  -14.2597  -20.0232 C   0  0  0  0  0  0  0  0  0  0  0  0
   21.2996  -13.4521  -19.1297 C   0  0  0  0  0  0  0  0  0  0  0  0
   23.6313   -9.4722  -18.2625 C   0  0  0  0  0  0  0  0  0  0  0  0
   24.7052   -9.6499  -17.6367 O   0  0  0  0  0  0  0  0  0  0  0  0
   24.3940   -6.1183  -18.2453 C   0  0  0  0  0  0  0  0  0  0  0  0
   23.6136   -7.1048  -17.4065 C   0  0  2  0  0  0  0  0  0  0  0  0
   23.0494   -8.1704  -18.1700 N   0  0  0  0  0  0  0  0  0  0  0  0
   22.5420   -6.3432  -16.6999 C   0  0  0  0  0  0  0  0  0  0  0  0
   21.5146   -5.9337  -17.2956 O   0  0  0  0  0  0  0  0  0  0  0  0
   20.2769   -7.5093  -14.2182 C   0  0  0  0  0  0  0  0  0  0  0  0
   20.8729   -6.2629  -13.5819 C   0  0  1  0  0  0  0  0  0  0  0  0
   21.8315   -6.7163  -12.6723 O   0  0  0  0  0  0  0  0  0  0  0  0
   21.5665   -5.3937  -14.5897 C   0  0  2  0  0  0  0  0  0  0  0  0
   22.6136   -6.0317  -15.3082 N   0  0  0  0  0  0  0  0  0  0  0  0
   22.0359   -4.1439  -13.8956 C   0  0  0  0  0  0  0  0  0  0  0  0
   23.3867   -3.9000  -13.6936 O   0  0  0  0  0  0  0  0  0  0  0  0
   21.2328   -3.2734  -13.4719 O   0  0  0  0  0  0  0  0  0  0  0  0
  2  1  1  1
  3  2  1  0
  4  3  1  0
  5  4  2  0
  6  5  1  0
  7  6  2  0
  7  8  1  0
  8  9  2  0
  9  4  1  0
 10  2  1  0
 10 11  2  0
 13 12  1  6
 13 14  1  0
 13 15  1  0
 14 10  1  0
 15 16  2  0
 15 21  1  0
 18 17  1  6
 18 19  1  0
 18 20  1  0
 20 22  1  0
 20 21  1  1
 22 24  2  0
 22 23  1  0
M  END
$$$$
