ASA.pdb
     RDKit          3D

 17 16  0  0  1  0  0  0  0  0999 V2000
   -3.5212  -26.0448   24.6164 C   0  0  0  0  0  0  0  0  0  0  0  0
   -4.8751  -26.0183   25.2195 C   0  0  2  0  0  0  0  0  0  0  0  0
   -5.8768  -25.9498   24.1773 N   0  0  0  0  0  0  0  0  0  0  0  0
   -5.1339  -25.0086   26.2235 C   0  0  0  0  0  0  0  0  0  0  0  0
   -4.4666  -25.0841   27.3147 O   0  0  0  0  0  0  0  0  0  0  0  0
   -8.0960  -22.0961   25.7719 O   0  0  0  0  0  0  0  0  0  0  0  0
   -7.0389  -21.7606   26.6147 C   0  0  0  0  0  0  0  0  0  0  0  0
   -6.3983  -23.0248   27.1497 C   0  0  2  0  0  0  0  0  0  0  0  0
   -6.0674  -23.9450   26.0913 N   0  0  0  0  0  0  0  0  0  0  0  0
   -7.3880  -23.6237   28.1081 C   0  0  0  0  0  0  0  0  0  0  0  0
   -8.2184  -24.4194   27.6361 O   0  0  0  0  0  0  0  0  0  0  0  0
   -7.9805  -23.5804   31.8441 C   0  0  0  0  0  0  0  0  0  0  0  0
   -8.3185  -23.9041   30.4006 C   0  0  2  0  0  0  0  0  0  0  0  0
   -7.3774  -23.2983   29.4859 N   0  0  0  0  0  0  0  0  0  0  0  0
   -9.6958  -23.4260   30.1222 C   0  0  0  0  0  0  0  0  0  0  0  0
  -10.7978  -24.1612   30.4970 O   0  0  0  0  0  0  0  0  0  0  0  0
   -9.8513  -22.3284   29.5329 O   0  0  0  0  0  0  0  0  0  0  0  0
  2  1  1  6
  2  3  1  0
  4  5  2  0
  4  2  1  0
  6  7  1  0
  8  7  1  6
  8  9  1  0
  9  4  1  0
 10  8  1  0
 11 10  2  0
 13 12  1  1
 13 15  1  0
 13 14  1  0
 14 10  1  0
 15 16  1  0
 17 15  2  0
M  END
$$$$
