ASA.pdb
     RDKit          3D

 17 16  0  0  1  0  0  0  0  0999 V2000
    7.8512  -12.4989   18.9733 C   0  0  0  0  0  0  0  0  0  0  0  0
    8.6649  -13.2745   19.9396 C   0  0  2  0  0  0  0  0  0  0  0  0
    9.1926  -14.4598   19.2986 N   0  0  0  0  0  0  0  0  0  0  0  0
    8.0429  -13.6263   21.1981 C   0  0  0  0  0  0  0  0  0  0  0  0
    7.5569  -12.6694   21.8980 O   0  0  0  0  0  0  0  0  0  0  0  0
    6.5865  -17.0088   24.4131 O   0  0  0  0  0  0  0  0  0  0  0  0
    7.1466  -16.7554   23.1631 C   0  0  0  0  0  0  0  0  0  0  0  0
    7.3644  -15.2651   22.9997 C   0  0  2  0  0  0  0  0  0  0  0  0
    7.9309  -14.9460   21.7137 N   0  0  0  0  0  0  0  0  0  0  0  0
    8.2754  -14.8488   24.1192 C   0  0  0  0  0  0  0  0  0  0  0  0
    9.4849  -15.1036   23.9855 O   0  0  0  0  0  0  0  0  0  0  0  0
    8.1047  -12.6840   27.1753 C   0  0  0  0  0  0  0  0  0  0  0  0
    8.6654  -13.8340   26.3593 C   0  0  2  0  0  0  0  0  0  0  0  0
    7.7816  -14.1962   25.2744 N   0  0  0  0  0  0  0  0  0  0  0  0
    8.8799  -14.9909   27.2640 C   0  0  0  0  0  0  0  0  0  0  0  0
    9.8580  -14.9700   28.2326 O   0  0  0  0  0  0  0  0  0  0  0  0
    8.1511  -16.0053   27.1376 O   0  0  0  0  0  0  0  0  0  0  0  0
  2  1  1  6
  2  3  1  0
  4  5  2  0
  4  2  1  0
  6  7  1  0
  8  7  1  6
  8  9  1  0
  9  4  1  0
 10  8  1  0
 11 10  2  0
 13 12  1  1
 13 15  1  0
 13 14  1  0
 14 10  1  0
 15 16  1  0
 17 15  2  0
M  END
$$$$
