ASA.pdb
     RDKit          3D

 17 16  0  0  1  0  0  0  0  0999 V2000
    5.6397  -20.1446   22.1943 C   0  0  0  0  0  0  0  0  0  0  0  0
    6.2172  -18.8717   21.7010 C   0  0  2  0  0  0  0  0  0  0  0  0
    6.5783  -19.0032   20.3058 N   0  0  0  0  0  0  0  0  0  0  0  0
    7.3223  -18.3112   22.4488 C   0  0  0  0  0  0  0  0  0  0  0  0
    8.4939  -18.4402   21.9464 O   0  0  0  0  0  0  0  0  0  0  0  0
    6.7763  -16.0992   25.9207 O   0  0  0  0  0  0  0  0  0  0  0  0
    7.9615  -15.8781   25.2229 C   0  0  0  0  0  0  0  0  0  0  0  0
    8.3275  -17.1231   24.4412 C   0  0  2  0  0  0  0  0  0  0  0  0
    7.2068  -17.6320   23.6920 N   0  0  0  0  0  0  0  0  0  0  0  0
    8.8134  -18.1244   25.4501 C   0  0  0  0  0  0  0  0  0  0  0  0
    7.9541  -18.8426   25.9897 O   0  0  0  0  0  0  0  0  0  0  0  0
   12.0147  -19.7892   26.3037 C   0  0  0  0  0  0  0  0  0  0  0  0
   10.6468  -19.2609   26.6940 C   0  0  2  0  0  0  0  0  0  0  0  0
   10.1865  -18.2464   25.7730 N   0  0  0  0  0  0  0  0  0  0  0  0
   10.7300  -18.7139   28.0713 C   0  0  0  0  0  0  0  0  0  0  0  0
   11.0600  -19.5157   29.1408 O   0  0  0  0  0  0  0  0  0  0  0  0
   10.4936  -17.4950   28.2572 O   0  0  0  0  0  0  0  0  0  0  0  0
  2  1  1  1
  2  3  1  0
  4  5  2  0
  4  2  1  0
  6  7  1  0
  8  7  1  1
  8  9  1  0
  9  4  1  0
 10  8  1  0
 11 10  2  0
 13 12  1  6
 13 15  1  0
 13 14  1  0
 14 10  1  0
 15 16  1  0
 17 15  2  0
M  END
$$$$
