ASA.pdb
     RDKit          3D

 17 16  0  0  1  0  0  0  0  0999 V2000
   10.0512  -18.7755   16.8340 C   0  0  0  0  0  0  0  0  0  0  0  0
    8.8918  -17.8578   16.7289 C   0  0  2  0  0  0  0  0  0  0  0  0
    9.0070  -17.0545   15.5308 N   0  0  0  0  0  0  0  0  0  0  0  0
    8.6108  -17.0114   17.8687 C   0  0  0  0  0  0  0  0  0  0  0  0
    9.2362  -15.8952   17.9367 O   0  0  0  0  0  0  0  0  0  0  0  0
    5.8144  -18.0349   20.7686 O   0  0  0  0  0  0  0  0  0  0  0  0
    6.0820  -16.6746   20.6324 C   0  0  0  0  0  0  0  0  0  0  0  0
    7.4744  -16.4879   20.0656 C   0  0  2  0  0  0  0  0  0  0  0  0
    7.6982  -17.3230   18.9128 N   0  0  0  0  0  0  0  0  0  0  0  0
    8.4282  -16.8201   21.1775 C   0  0  0  0  0  0  0  0  0  0  0  0
    8.8896  -17.9743   21.1977 O   0  0  0  0  0  0  0  0  0  0  0  0
   10.0528  -14.9827   24.0622 C   0  0  0  0  0  0  0  0  0  0  0  0
    9.7117  -16.1968   23.2182 C   0  0  2  0  0  0  0  0  0  0  0  0
    8.7867  -15.8642   22.1584 N   0  0  0  0  0  0  0  0  0  0  0  0
    9.1346  -17.2379   24.1047 C   0  0  0  0  0  0  0  0  0  0  0  0
    9.9305  -17.9834   24.9451 O   0  0  0  0  0  0  0  0  0  0  0  0
    7.8952  -17.4372   24.0825 O   0  0  0  0  0  0  0  0  0  0  0  0
  2  1  1  1
  2  3  1  0
  4  5  2  0
  4  2  1  0
  6  7  1  0
  8  7  1  1
  8  9  1  0
  9  4  1  0
 10  8  1  0
 11 10  2  0
 13 12  1  1
 13 15  1  0
 13 14  1  0
 14 10  1  0
 15 16  1  0
 17 15  2  0
M  END
$$$$
