ASA.pdb
     RDKit          3D

 17 16  0  0  1  0  0  0  0  0999 V2000
   10.4136  -16.5231   20.0507 C   0  0  0  0  0  0  0  0  0  0  0  0
   10.6469  -16.9809   21.4412 C   0  0  2  0  0  0  0  0  0  0  0  0
   10.2387  -18.3624   21.5794 N   0  0  0  0  0  0  0  0  0  0  0  0
   10.0741  -16.1855   22.5059 C   0  0  0  0  0  0  0  0  0  0  0  0
   10.3867  -14.9434   22.5413 O   0  0  0  0  0  0  0  0  0  0  0  0
    7.5177  -17.7808   25.4043 O   0  0  0  0  0  0  0  0  0  0  0  0
    7.3491  -16.4324   25.0979 C   0  0  0  0  0  0  0  0  0  0  0  0
    8.6524  -15.8668   24.5721 C   0  0  2  0  0  0  0  0  0  0  0  0
    9.1956  -16.6753   23.5101 N   0  0  0  0  0  0  0  0  0  0  0  0
    9.5868  -15.8039   25.7467 C   0  0  0  0  0  0  0  0  0  0  0  0
   10.4804  -16.6663   25.8023 O   0  0  0  0  0  0  0  0  0  0  0  0
   10.1464  -13.4974   28.6974 C   0  0  0  0  0  0  0  0  0  0  0  0
   10.4133  -14.7103   27.8255 C   0  0  2  0  0  0  0  0  0  0  0  0
    9.4575  -14.8089   26.7455 N   0  0  0  0  0  0  0  0  0  0  0  0
   10.3604  -15.9232   28.6793 C   0  0  0  0  0  0  0  0  0  0  0  0
    9.3695  -16.8661   28.5222 O   0  0  0  0  0  0  0  0  0  0  0  0
   11.2400  -16.0860   29.5601 O   0  0  0  0  0  0  0  0  0  0  0  0
  2  1  1  6
  2  3  1  0
  4  5  2  0
  4  2  1  0
  6  7  1  0
  8  7  1  1
  8  9  1  0
  9  4  1  0
 10  8  1  0
 11 10  2  0
 13 12  1  1
 13 15  1  0
 13 14  1  0
 14 10  1  0
 15 16  1  0
 17 15  2  0
M  END
$$$$
