LDR.pdb
     RDKit          3D

 28 27  0  0  1  0  0  0  0  0999 V2000
    9.2700  -14.0315   17.2816 C   0  0  0  0  0  0  0  0  0  0  0  0
    8.0571  -14.3265   18.1121 C   0  0  2  0  0  0  0  0  0  0  0  0
    7.6215  -13.0309   18.7885 C   0  0  0  0  0  0  0  0  0  0  0  0
    8.3042  -15.3251   19.1948 C   0  0  0  0  0  0  0  0  0  0  0  0
    8.9710  -16.5925   18.7280 C   0  0  2  0  0  0  0  0  0  0  0  0
    8.0080  -17.4214   18.0683 N   0  0  0  0  0  0  0  0  0  0  0  0
    9.5750  -17.2318   19.9261 C   0  0  0  0  0  0  0  0  0  0  0  0
    8.7959  -17.8278   20.7114 O   0  0  0  0  0  0  0  0  0  0  0  0
   10.9553  -17.2155   20.2400 N   0  0  0  0  0  0  0  0  0  0  0  0
   11.4872  -17.9124   21.4156 C   0  0  1  0  0  0  0  0  0  0  0  0
   12.8974  -18.3619   21.1529 C   0  0  0  0  0  0  0  0  0  0  0  0
   13.4442  -19.2208   22.2089 C   0  0  0  0  0  0  0  0  0  0  0  0
   12.7765  -19.8307   23.0754 O   0  0  0  0  0  0  0  0  0  0  0  0
   11.3633  -17.0933   22.6357 C   0  0  0  0  0  0  0  0  0  0  0  0
   12.1411  -16.1424   22.8439 O   0  0  0  0  0  0  0  0  0  0  0  0
   14.8382  -19.3644   22.2407 O   0  0  0  0  0  0  0  0  0  0  0  0
    6.6134  -13.1094   21.6051 N   0  0  0  0  0  0  0  0  0  0  0  0
    7.9864  -13.0095   21.8995 C   0  0  0  0  0  0  0  0  0  0  0  0
    8.7984  -12.4447   21.0736 N   0  0  0  0  0  0  0  0  0  0  0  0
    8.4732  -13.5414   23.1217 N   0  0  0  0  0  0  0  0  0  0  0  0
    7.7282  -14.3670   23.9827 C   0  0  0  0  0  0  0  0  0  0  0  0
    7.9751  -15.8294   24.0191 C   0  0  0  0  0  0  0  0  0  0  0  0
    8.7993  -16.3409   25.1455 C   0  0  0  0  0  0  0  0  0  0  0  0
   10.2352  -16.6378   24.8589 C   0  0  2  0  0  0  0  0  0  0  0  0
   10.3649  -17.3702   23.5877 N   0  0  0  0  0  0  0  0  0  0  0  0
   10.8132  -17.5476   25.8785 C   0  0  0  0  0  0  0  0  0  0  0  0
   11.4512  -17.0335   26.9820 O   0  0  0  0  0  0  0  0  0  0  0  0
   10.7289  -18.7736   25.7488 O   0  0  0  0  0  0  0  0  0  0  0  0
  2  1  1  1
  2  3  1  0
  4  2  1  0
  5  4  1  0
  5  6  1  1
  7  5  1  0
  7  8  2  0
  9  7  1  0
 10  9  1  0
 10 11  1  6
 12 11  1  0
 12 16  1  0
 13 12  2  0
 14 10  1  0
 15 14  2  0
 18 20  1  0
 18 17  1  0
 19 18  2  0
 21 22  1  0
 21 20  1  0
 22 23  1  0
 24 23  1  1
 24 25  1  0
 24 26  1  0
 25 14  1  0
 26 28  2  0
 26 27  1  0
M  END
$$$$
