LDR.pdb
     RDKit          3D

 28 27  0  0  1  0  0  0  0  0999 V2000
    7.8190  -12.1503   20.0400 C   0  0  0  0  0  0  0  0  0  0  0  0
    8.0749  -13.2261   19.0276 C   0  0  2  0  0  0  0  0  0  0  0  0
    6.8541  -14.1394   18.9901 C   0  0  0  0  0  0  0  0  0  0  0  0
    9.2540  -14.0830   19.3531 C   0  0  0  0  0  0  0  0  0  0  0  0
    9.9600  -14.6485   18.1487 C   0  0  2  0  0  0  0  0  0  0  0  0
    9.1064  -15.5964   17.4987 N   0  0  0  0  0  0  0  0  0  0  0  0
   11.2355  -15.2395   18.6311 C   0  0  0  0  0  0  0  0  0  0  0  0
   11.1534  -16.2387   19.3887 O   0  0  0  0  0  0  0  0  0  0  0  0
   12.5246  -14.7583   18.2984 N   0  0  0  0  0  0  0  0  0  0  0  0
   13.7377  -15.3268   18.8949 C   0  0  1  0  0  0  0  0  0  0  0  0
   14.9529  -14.8265   18.1651 C   0  0  0  0  0  0  0  0  0  0  0  0
   16.2036  -15.4452   18.6179 C   0  0  0  0  0  0  0  0  0  0  0  0
   16.8770  -15.0914   19.6128 O   0  0  0  0  0  0  0  0  0  0  0  0
   13.7973  -15.0788   20.3475 C   0  0  0  0  0  0  0  0  0  0  0  0
   13.8447  -13.9156   20.7916 O   0  0  0  0  0  0  0  0  0  0  0  0
   16.6765  -16.5275   17.8630 O   0  0  0  0  0  0  0  0  0  0  0  0
    7.9731  -17.6250   25.3509 N   0  0  0  0  0  0  0  0  0  0  0  0
    7.8406  -16.5449   24.4577 C   0  0  0  0  0  0  0  0  0  0  0  0
    6.6830  -16.0426   24.1977 N   0  0  0  0  0  0  0  0  0  0  0  0
    9.0011  -16.0108   23.8399 N   0  0  0  0  0  0  0  0  0  0  0  0
   10.2861  -16.5738   23.9396 C   0  0  0  0  0  0  0  0  0  0  0  0
   11.4479  -15.9090   23.2998 C   0  0  0  0  0  0  0  0  0  0  0  0
   12.7600  -16.5977   23.4158 C   0  0  0  0  0  0  0  0  0  0  0  0
   13.9222  -15.9717   22.7160 C   0  0  2  0  0  0  0  0  0  0  0  0
   13.8021  -16.1506   21.2590 N   0  0  0  0  0  0  0  0  0  0  0  0
   15.1954  -16.6439   23.0743 C   0  0  0  0  0  0  0  0  0  0  0  0
   15.7318  -16.4851   24.3297 O   0  0  0  0  0  0  0  0  0  0  0  0
   15.7869  -17.3518   22.2521 O   0  0  0  0  0  0  0  0  0  0  0  0
  2  1  1  1
  2  3  1  0
  4  2  1  0
  5  4  1  0
  5  6  1  1
  7  5  1  0
  7  8  2  0
  9  7  1  0
 10  9  1  0
 10 11  1  6
 12 11  1  0
 12 16  1  0
 13 12  2  0
 14 10  1  0
 15 14  2  0
 18 20  1  0
 18 17  1  0
 19 18  2  0
 21 22  1  0
 21 20  1  0
 22 23  1  0
 24 23  1  1
 24 25  1  0
 24 26  1  0
 25 14  1  0
 26 28  2  0
 26 27  1  0
M  END
$$$$
