LDR.pdb
     RDKit          3D

 28 27  0  0  1  0  0  0  0  0999 V2000
    8.5747  -12.0152   18.7867 C   0  0  0  0  0  0  0  0  0  0  0  0
    7.6462  -13.1850   18.9187 C   0  0  2  0  0  0  0  0  0  0  0  0
    6.4382  -12.7392   19.7358 C   0  0  0  0  0  0  0  0  0  0  0  0
    8.2518  -14.3498   19.6306 C   0  0  0  0  0  0  0  0  0  0  0  0
    9.6241  -14.7304   19.1398 C   0  0  2  0  0  0  0  0  0  0  0  0
    9.5464  -15.1175   17.7636 N   0  0  0  0  0  0  0  0  0  0  0  0
   10.1178  -15.8143   20.0288 C   0  0  0  0  0  0  0  0  0  0  0  0
    9.7937  -15.7528   21.2413 O   0  0  0  0  0  0  0  0  0  0  0  0
   10.9205  -16.9013   19.6069 N   0  0  0  0  0  0  0  0  0  0  0  0
   11.3607  -17.9431   20.5404 C   0  0  1  0  0  0  0  0  0  0  0  0
   12.1248  -19.0063   19.8019 C   0  0  0  0  0  0  0  0  0  0  0  0
   12.4548  -20.1716   20.6297 C   0  0  0  0  0  0  0  0  0  0  0  0
   12.1405  -20.3280   21.8318 O   0  0  0  0  0  0  0  0  0  0  0  0
   12.1156  -17.3749   21.6728 C   0  0  0  0  0  0  0  0  0  0  0  0
   13.1535  -16.7140   21.4763 O   0  0  0  0  0  0  0  0  0  0  0  0
   13.1862  -21.1939   20.0094 O   0  0  0  0  0  0  0  0  0  0  0  0
   10.5973  -13.7501   29.5891 N   0  0  0  0  0  0  0  0  0  0  0  0
   10.3963  -15.1324   29.4140 C   0  0  0  0  0  0  0  0  0  0  0  0
   10.7976  -15.9748   30.3026 N   0  0  0  0  0  0  0  0  0  0  0  0
    9.7446  -15.5944   28.2412 N   0  0  0  0  0  0  0  0  0  0  0  0
    9.9821  -15.0925   26.9490 C   0  0  0  0  0  0  0  0  0  0  0  0
   11.1698  -15.5362   26.1786 C   0  0  0  0  0  0  0  0  0  0  0  0
   10.9126  -16.3605   24.9687 C   0  0  0  0  0  0  0  0  0  0  0  0
   12.0905  -16.7072   24.1175 C   0  0  2  0  0  0  0  0  0  0  0  0
   11.6786  -17.5687   22.9961 N   0  0  0  0  0  0  0  0  0  0  0  0
   13.0818  -17.5156   24.8692 C   0  0  0  0  0  0  0  0  0  0  0  0
   13.1911  -18.8660   24.6377 O   0  0  0  0  0  0  0  0  0  0  0  0
   13.8182  -16.9873   25.7092 O   0  0  0  0  0  0  0  0  0  0  0  0
  2  1  1  1
  2  3  1  0
  4  2  1  0
  5  4  1  0
  5  6  1  6
  7  5  1  0
  7  8  2  0
  9  7  1  0
 10  9  1  0
 10 11  1  6
 12 11  1  0
 12 16  1  0
 13 12  2  0
 14 10  1  0
 15 14  2  0
 18 20  1  0
 18 17  1  0
 19 18  2  0
 21 22  1  0
 21 20  1  0
 22 23  1  0
 24 23  1  1
 24 25  1  0
 24 26  1  0
 25 14  1  0
 26 28  2  0
 26 27  1  0
M  END
$$$$
