LDR.pdb
     RDKit          3D

 28 27  0  0  1  0  0  0  0  0999 V2000
    7.5025  -13.4117   17.7496 C   0  0  0  0  0  0  0  0  0  0  0  0
    7.1276  -13.7317   19.1655 C   0  0  2  0  0  0  0  0  0  0  0  0
    7.0419  -12.4203   19.9392 C   0  0  0  0  0  0  0  0  0  0  0  0
    8.1274  -14.5908   19.8676 C   0  0  0  0  0  0  0  0  0  0  0  0
    8.3074  -15.9563   19.2579 C   0  0  2  0  0  0  0  0  0  0  0  0
    7.0792  -16.6858   19.3542 N   0  0  0  0  0  0  0  0  0  0  0  0
    9.4355  -16.6064   19.9747 C   0  0  0  0  0  0  0  0  0  0  0  0
    9.1682  -17.1864   21.0569 O   0  0  0  0  0  0  0  0  0  0  0  0
   10.7779  -16.6169   19.5257 N   0  0  0  0  0  0  0  0  0  0  0  0
   11.8453  -17.2584   20.3002 C   0  0  1  0  0  0  0  0  0  0  0  0
   12.9908  -17.6198   19.3965 C   0  0  0  0  0  0  0  0  0  0  0  0
   14.0726  -18.3363   20.0808 C   0  0  0  0  0  0  0  0  0  0  0  0
   15.2969  -18.1023   19.9593 O   0  0  0  0  0  0  0  0  0  0  0  0
   12.2584  -16.4290   21.4476 C   0  0  0  0  0  0  0  0  0  0  0  0
   12.7334  -15.2908   21.2701 O   0  0  0  0  0  0  0  0  0  0  0  0
   13.6900  -19.3718   20.9447 O   0  0  0  0  0  0  0  0  0  0  0  0
   11.2270  -15.8784   30.7690 N   0  0  0  0  0  0  0  0  0  0  0  0
   10.7505  -15.2585   29.5983 C   0  0  0  0  0  0  0  0  0  0  0  0
   10.6098  -13.9790   29.5403 N   0  0  0  0  0  0  0  0  0  0  0  0
   10.4223  -16.0603   28.4745 N   0  0  0  0  0  0  0  0  0  0  0  0
   10.2621  -15.5690   27.1664 C   0  0  0  0  0  0  0  0  0  0  0  0
   11.4186  -15.5150   26.2386 C   0  0  0  0  0  0  0  0  0  0  0  0
   11.2613  -16.2071   24.9326 C   0  0  0  0  0  0  0  0  0  0  0  0
   12.3836  -16.0799   23.9547 C   0  0  2  0  0  0  0  0  0  0  0  0
   12.1243  -16.9073   22.7640 N   0  0  0  0  0  0  0  0  0  0  0  0
   13.6510  -16.6113   24.5138 C   0  0  0  0  0  0  0  0  0  0  0  0
   14.5403  -15.7674   25.1353 O   0  0  0  0  0  0  0  0  0  0  0  0
   13.9219  -17.8139   24.4281 O   0  0  0  0  0  0  0  0  0  0  0  0
  2  1  1  6
  2  3  1  0
  4  2  1  0
  5  4  1  0
  5  6  1  1
  7  5  1  0
  7  8  2  0
  9  7  1  0
 10  9  1  0
 10 11  1  6
 12 11  1  0
 12 16  1  0
 13 12  2  0
 14 10  1  0
 15 14  2  0
 18 20  1  0
 18 17  1  0
 19 18  2  0
 21 22  1  0
 21 20  1  0
 22 23  1  0
 24 23  1  1
 24 25  1  0
 24 26  1  0
 25 14  1  0
 26 28  2  0
 26 27  1  0
M  END
$$$$
