LDR.pdb
     RDKit          3D

 28 27  0  0  1  0  0  0  0  0999 V2000
    8.5889  -12.7276   18.4653 C   0  0  0  0  0  0  0  0  0  0  0  0
    7.4744  -13.4933   19.1131 C   0  0  2  0  0  0  0  0  0  0  0  0
    6.6415  -12.5129   19.9320 C   0  0  0  0  0  0  0  0  0  0  0  0
    7.9469  -14.5565   20.0494 C   0  0  0  0  0  0  0  0  0  0  0  0
    8.9291  -15.5242   19.4430 C   0  0  2  0  0  0  0  0  0  0  0  0
    8.4143  -16.0060   18.1970 N   0  0  0  0  0  0  0  0  0  0  0  0
    9.1516  -16.6007   20.4433 C   0  0  0  0  0  0  0  0  0  0  0  0
    9.3591  -16.2453   21.6306 O   0  0  0  0  0  0  0  0  0  0  0  0
    9.1457  -17.9861   20.1526 N   0  0  0  0  0  0  0  0  0  0  0  0
    9.5014  -18.9877   21.1630 C   0  0  1  0  0  0  0  0  0  0  0  0
    9.3184  -20.3707   20.6032 C   0  0  0  0  0  0  0  0  0  0  0  0
    9.5670  -21.4356   21.5811 C   0  0  0  0  0  0  0  0  0  0  0  0
   10.0047  -22.5800   21.3217 O   0  0  0  0  0  0  0  0  0  0  0  0
   10.8555  -18.7603   21.7012 C   0  0  0  0  0  0  0  0  0  0  0  0
   11.8496  -18.7853   20.9505 O   0  0  0  0  0  0  0  0  0  0  0  0
    9.2868  -21.1337   22.9210 O   0  0  0  0  0  0  0  0  0  0  0  0
   12.7992  -14.5058   18.9959 N   0  0  0  0  0  0  0  0  0  0  0  0
   14.1841  -14.5300   19.2480 C   0  0  0  0  0  0  0  0  0  0  0  0
   15.0306  -14.3209   18.2993 N   0  0  0  0  0  0  0  0  0  0  0  0
   14.6439  -14.7902   20.5650 N   0  0  0  0  0  0  0  0  0  0  0  0
   13.8056  -15.0619   21.6611 C   0  0  0  0  0  0  0  0  0  0  0  0
   13.5333  -16.4624   22.0681 C   0  0  0  0  0  0  0  0  0  0  0  0
   12.6241  -16.6573   23.2277 C   0  0  0  0  0  0  0  0  0  0  0  0
   12.3350  -18.0646   23.6377 C   0  0  2  0  0  0  0  0  0  0  0  0
   11.0504  -18.5112   23.0722 N   0  0  0  0  0  0  0  0  0  0  0  0
   12.1583  -18.1745   25.1068 C   0  0  0  0  0  0  0  0  0  0  0  0
   13.2545  -18.2801   25.9292 O   0  0  0  0  0  0  0  0  0  0  0  0
   11.0284  -18.1726   25.6071 O   0  0  0  0  0  0  0  0  0  0  0  0
  2  1  1  1
  2  3  1  0
  4  2  1  0
  5  4  1  0
  5  6  1  6
  7  5  1  0
  7  8  2  0
  9  7  1  0
 10  9  1  0
 10 11  1  6
 12 11  1  0
 12 16  1  0
 13 12  2  0
 14 10  1  0
 15 14  2  0
 18 20  1  0
 18 17  1  0
 19 18  2  0
 21 22  1  0
 21 20  1  0
 22 23  1  0
 24 23  1  1
 24 25  1  0
 24 26  1  0
 25 14  1  0
 26 28  2  0
 26 27  1  0
M  END
$$$$
