LDR.pdb
     RDKit          3D

 28 27  0  0  1  0  0  0  0  0999 V2000
    8.6256  -12.8310   18.5144 C   0  0  0  0  0  0  0  0  0  0  0  0
    7.5957  -13.3774   19.4572 C   0  0  2  0  0  0  0  0  0  0  0  0
    7.1153  -12.2348   20.3456 C   0  0  0  0  0  0  0  0  0  0  0  0
    8.1206  -14.4446   20.3604 C   0  0  0  0  0  0  0  0  0  0  0  0
    8.6404  -15.6628   19.6431 C   0  0  2  0  0  0  0  0  0  0  0  0
    7.5387  -16.4134   19.1208 N   0  0  0  0  0  0  0  0  0  0  0  0
    9.4608  -16.4249   20.6204 C   0  0  0  0  0  0  0  0  0  0  0  0
    8.8753  -17.3112   21.2917 O   0  0  0  0  0  0  0  0  0  0  0  0
   10.8438  -16.2226   20.8443 N   0  0  0  0  0  0  0  0  0  0  0  0
   11.5912  -17.0186   21.8234 C   0  0  1  0  0  0  0  0  0  0  0  0
   13.0600  -16.9772   21.5065 C   0  0  0  0  0  0  0  0  0  0  0  0
   13.8670  -17.8604   22.3556 C   0  0  0  0  0  0  0  0  0  0  0  0
   13.4256  -18.7758   23.0875 O   0  0  0  0  0  0  0  0  0  0  0  0
   11.2898  -16.6028   23.2060 C   0  0  0  0  0  0  0  0  0  0  0  0
   11.8442  -15.6042   23.7039 O   0  0  0  0  0  0  0  0  0  0  0  0
   15.2530  -17.6523   22.3373 O   0  0  0  0  0  0  0  0  0  0  0  0
    7.6493  -12.4302   26.8855 N   0  0  0  0  0  0  0  0  0  0  0  0
    6.4254  -12.7211   26.2536 C   0  0  0  0  0  0  0  0  0  0  0  0
    5.6522  -11.7742   25.8466 N   0  0  0  0  0  0  0  0  0  0  0  0
    6.0463  -14.0760   26.0685 N   0  0  0  0  0  0  0  0  0  0  0  0
    6.6338  -14.9456   25.1321 C   0  0  0  0  0  0  0  0  0  0  0  0
    8.0923  -15.2145   25.1705 C   0  0  0  0  0  0  0  0  0  0  0  0
    8.5069  -16.6247   25.3923 C   0  0  0  0  0  0  0  0  0  0  0  0
    9.9708  -16.9196   25.3467 C   0  0  2  0  0  0  0  0  0  0  0  0
   10.3712  -17.3260   23.9888 N   0  0  0  0  0  0  0  0  0  0  0  0
   10.3157  -18.0802   26.2042 C   0  0  0  0  0  0  0  0  0  0  0  0
   10.3689  -17.9390   27.5704 O   0  0  0  0  0  0  0  0  0  0  0  0
   10.5585  -19.1834   25.7033 O   0  0  0  0  0  0  0  0  0  0  0  0
  2  1  1  6
  2  3  1  0
  4  2  1  0
  5  4  1  0
  5  6  1  1
  7  5  1  0
  7  8  2  0
  9  7  1  0
 10  9  1  0
 10 11  1  6
 12 11  1  0
 12 16  1  0
 13 12  2  0
 14 10  1  0
 15 14  2  0
 18 20  1  0
 18 17  1  0
 19 18  2  0
 21 22  1  0
 21 20  1  0
 22 23  1  0
 24 23  1  6
 24 25  1  0
 24 26  1  0
 25 14  1  0
 26 28  2  0
 26 27  1  0
M  END
$$$$
