LDR.pdb
     RDKit          3D

 28 27  0  0  1  0  0  0  0  0999 V2000
    9.1537  -12.4520   18.7676 C   0  0  0  0  0  0  0  0  0  0  0  0
    8.2031  -13.2889   19.5701 C   0  0  2  0  0  0  0  0  0  0  0  0
    7.5127  -12.3804   20.5819 C   0  0  0  0  0  0  0  0  0  0  0  0
    8.8731  -14.3770   20.3430 C   0  0  0  0  0  0  0  0  0  0  0  0
    9.6692  -15.3370   19.4983 C   0  0  2  0  0  0  0  0  0  0  0  0
    8.7904  -16.0181   18.5962 N   0  0  0  0  0  0  0  0  0  0  0  0
   10.3782  -16.2511   20.4314 C   0  0  0  0  0  0  0  0  0  0  0  0
    9.7298  -17.2313   20.8762 O   0  0  0  0  0  0  0  0  0  0  0  0
   11.7216  -16.0947   20.8491 N   0  0  0  0  0  0  0  0  0  0  0  0
   12.3452  -17.0178   21.8029 C   0  0  1  0  0  0  0  0  0  0  0  0
   13.8243  -17.0998   21.5476 C   0  0  0  0  0  0  0  0  0  0  0  0
   14.5112  -18.0800   22.3958 C   0  0  0  0  0  0  0  0  0  0  0  0
   13.9581  -18.9741   23.0763 O   0  0  0  0  0  0  0  0  0  0  0  0
   12.0218  -16.6603   23.1967 C   0  0  0  0  0  0  0  0  0  0  0  0
   12.5318  -15.6559   23.7293 O   0  0  0  0  0  0  0  0  0  0  0  0
   15.9099  -17.9993   22.4401 O   0  0  0  0  0  0  0  0  0  0  0  0
    8.1845  -14.0483   22.5303 N   0  0  0  0  0  0  0  0  0  0  0  0
    6.9616  -14.7363   22.4159 C   0  0  0  0  0  0  0  0  0  0  0  0
    6.2615  -14.6615   21.3368 N   0  0  0  0  0  0  0  0  0  0  0  0
    6.5017  -15.5177   23.5075 N   0  0  0  0  0  0  0  0  0  0  0  0
    7.2987  -15.9065   24.5991 C   0  0  0  0  0  0  0  0  0  0  0  0
    8.7087  -16.3179   24.3894 C   0  0  0  0  0  0  0  0  0  0  0  0
    9.4578  -16.7744   25.5894 C   0  0  0  0  0  0  0  0  0  0  0  0
   10.8686  -17.2207   25.3827 C   0  0  2  0  0  0  0  0  0  0  0  0
   11.1318  -17.4465   23.9513 N   0  0  0  0  0  0  0  0  0  0  0  0
   11.1195  -18.5350   26.0238 C   0  0  0  0  0  0  0  0  0  0  0  0
   11.1289  -18.6457   27.3937 O   0  0  0  0  0  0  0  0  0  0  0  0
   11.3225  -19.5421   25.3371 O   0  0  0  0  0  0  0  0  0  0  0  0
  2  1  1  1
  2  3  1  0
  4  2  1  0
  5  4  1  0
  5  6  1  6
  7  5  1  0
  7  8  2  0
  9  7  1  0
 10  9  1  0
 10 11  1  1
 12 11  1  0
 12 16  1  0
 13 12  2  0
 14 10  1  0
 15 14  2  0
 18 20  1  0
 18 17  1  0
 19 18  2  0
 21 22  1  0
 21 20  1  0
 22 23  1  0
 24 23  1  6
 24 25  1  0
 24 26  1  0
 25 14  1  0
 26 28  2  0
 26 27  1  0
M  END
$$$$
