LDR.pdb
     RDKit          3D

 28 27  0  0  1  0  0  0  0  0999 V2000
    8.6565  -15.8833   15.9689 C   0  0  0  0  0  0  0  0  0  0  0  0
    7.8626  -15.6804   17.2244 C   0  0  2  0  0  0  0  0  0  0  0  0
    7.8461  -14.1878   17.5367 C   0  0  0  0  0  0  0  0  0  0  0  0
    8.4422  -16.3713   18.4148 C   0  0  0  0  0  0  0  0  0  0  0  0
    8.5257  -17.8693   18.2817 C   0  0  2  0  0  0  0  0  0  0  0  0
    7.2049  -18.4217   18.2886 N   0  0  0  0  0  0  0  0  0  0  0  0
    9.3734  -18.3579   19.4005 C   0  0  0  0  0  0  0  0  0  0  0  0
    8.8231  -18.4846   20.5230 O   0  0  0  0  0  0  0  0  0  0  0  0
   10.7456  -18.6873   19.2889 N   0  0  0  0  0  0  0  0  0  0  0  0
   11.5360  -19.1034   20.4521 C   0  0  1  0  0  0  0  0  0  0  0  0
   12.8207  -19.7397   20.0001 C   0  0  0  0  0  0  0  0  0  0  0  0
   13.6484  -20.2359   21.1050 C   0  0  0  0  0  0  0  0  0  0  0  0
   13.2623  -20.9899   22.0274 O   0  0  0  0  0  0  0  0  0  0  0  0
   11.7474  -17.9878   21.3932 C   0  0  0  0  0  0  0  0  0  0  0  0
   12.4611  -17.0167   21.0768 O   0  0  0  0  0  0  0  0  0  0  0  0
   14.9880  -19.8235   21.1186 O   0  0  0  0  0  0  0  0  0  0  0  0
    7.2507  -11.6757   23.0386 N   0  0  0  0  0  0  0  0  0  0  0  0
    7.6429  -12.1566   21.7749 C   0  0  0  0  0  0  0  0  0  0  0  0
    7.5100  -11.4266   20.7215 N   0  0  0  0  0  0  0  0  0  0  0  0
    8.1883  -13.4624   21.6694 N   0  0  0  0  0  0  0  0  0  0  0  0
    8.7395  -14.1834   22.7439 C   0  0  0  0  0  0  0  0  0  0  0  0
    9.2806  -15.5484   22.5319 C   0  0  0  0  0  0  0  0  0  0  0  0
    9.8340  -16.2413   23.7249 C   0  0  0  0  0  0  0  0  0  0  0  0
   11.1905  -16.8526   23.5896 C   0  0  2  0  0  0  0  0  0  0  0  0
   11.1478  -17.9991   22.6660 N   0  0  0  0  0  0  0  0  0  0  0  0
   11.6575  -17.4233   24.8770 C   0  0  0  0  0  0  0  0  0  0  0  0
   11.4594  -18.7546   25.1557 O   0  0  0  0  0  0  0  0  0  0  0  0
   12.2277  -16.7120   25.7113 O   0  0  0  0  0  0  0  0  0  0  0  0
  2  1  1  6
  2  3  1  0
  4  2  1  0
  5  4  1  0
  5  6  1  1
  7  5  1  0
  7  8  2  0
  9  7  1  0
 10  9  1  0
 10 11  1  6
 12 11  1  0
 12 16  1  0
 13 12  2  0
 14 10  1  0
 15 14  2  0
 18 20  1  0
 18 17  1  0
 19 18  2  0
 21 22  1  0
 21 20  1  0
 22 23  1  0
 24 23  1  1
 24 25  1  0
 24 26  1  0
 25 14  1  0
 26 28  2  0
 26 27  1  0
M  END
$$$$
