LDR.pdb
     RDKit          3D

 28 27  0  0  1  0  0  0  0  0999 V2000
    8.6852  -13.3229   18.6909 C   0  0  0  0  0  0  0  0  0  0  0  0
    7.7803  -13.2933   19.8860 C   0  0  2  0  0  0  0  0  0  0  0  0
    7.8606  -11.9017   20.5047 C   0  0  0  0  0  0  0  0  0  0  0  0
    8.1646  -14.2691   20.9492 C   0  0  0  0  0  0  0  0  0  0  0  0
    8.2730  -15.6938   20.4725 C   0  0  2  0  0  0  0  0  0  0  0  0
    6.9608  -16.2250   20.2590 N   0  0  0  0  0  0  0  0  0  0  0  0
    9.0487  -16.4372   21.4994 C   0  0  0  0  0  0  0  0  0  0  0  0
    8.4449  -16.7546   22.5547 O   0  0  0  0  0  0  0  0  0  0  0  0
   10.4086  -16.8089   21.3711 N   0  0  0  0  0  0  0  0  0  0  0  0
   11.1056  -17.5589   22.4210 C   0  0  1  0  0  0  0  0  0  0  0  0
   12.4181  -18.0743   21.9001 C   0  0  0  0  0  0  0  0  0  0  0  0
   13.0943  -18.9923   22.8232 C   0  0  0  0  0  0  0  0  0  0  0  0
   12.6113  -19.4513   23.8837 O   0  0  0  0  0  0  0  0  0  0  0  0
   11.2497  -16.7626   23.6539 C   0  0  0  0  0  0  0  0  0  0  0  0
   11.7498  -15.6219   23.6182 O   0  0  0  0  0  0  0  0  0  0  0  0
   14.3949  -19.3838   22.4770 O   0  0  0  0  0  0  0  0  0  0  0  0
    6.7323  -11.2861   26.9196 N   0  0  0  0  0  0  0  0  0  0  0  0
    6.4760  -12.5453   26.3447 C   0  0  0  0  0  0  0  0  0  0  0  0
    5.4076  -12.7495   25.6540 N   0  0  0  0  0  0  0  0  0  0  0  0
    7.4099  -13.5966   26.5348 N   0  0  0  0  0  0  0  0  0  0  0  0
    8.6454  -13.4540   27.1916 C   0  0  0  0  0  0  0  0  0  0  0  0
    9.5726  -14.6068   27.3038 C   0  0  0  0  0  0  0  0  0  0  0  0
    9.7889  -15.4133   26.0741 C   0  0  0  0  0  0  0  0  0  0  0  0
   10.8258  -16.4871   26.1373 C   0  0  2  0  0  0  0  0  0  0  0  0
   10.8256  -17.2758   24.8934 N   0  0  0  0  0  0  0  0  0  0  0  0
   10.5222  -17.4699   27.2065 C   0  0  0  0  0  0  0  0  0  0  0  0
   10.7024  -17.1332   28.5268 O   0  0  0  0  0  0  0  0  0  0  0  0
   10.1054  -18.5986   26.9246 O   0  0  0  0  0  0  0  0  0  0  0  0
  2  1  1  6
  2  3  1  0
  4  2  1  0
  5  4  1  0
  5  6  1  1
  7  5  1  0
  7  8  2  0
  9  7  1  0
 10  9  1  0
 10 11  1  6
 12 11  1  0
 12 16  1  0
 13 12  2  0
 14 10  1  0
 15 14  2  0
 18 20  1  0
 18 17  1  0
 19 18  2  0
 21 22  1  0
 21 20  1  0
 22 23  1  0
 24 23  1  6
 24 25  1  0
 24 26  1  0
 25 14  1  0
 26 28  2  0
 26 27  1  0
M  END
$$$$
