LDR.pdb
     RDKit          3D

 28 27  0  0  1  0  0  0  0  0999 V2000
    8.1190  -12.8561   19.0618 C   0  0  0  0  0  0  0  0  0  0  0  0
    7.4171  -13.7058   20.0783 C   0  0  2  0  0  0  0  0  0  0  0  0
    7.0361  -12.8152   21.2562 C   0  0  0  0  0  0  0  0  0  0  0  0
    8.2640  -14.8105   20.6194 C   0  0  0  0  0  0  0  0  0  0  0  0
    8.7658  -15.7741   19.5762 C   0  0  2  0  0  0  0  0  0  0  0  0
    7.6685  -16.5432   19.0721 N   0  0  0  0  0  0  0  0  0  0  0  0
    9.8179  -16.6027   20.2209 C   0  0  0  0  0  0  0  0  0  0  0  0
    9.4332  -17.5414   20.9624 O   0  0  0  0  0  0  0  0  0  0  0  0
   11.2106  -16.4085   20.0581 N   0  0  0  0  0  0  0  0  0  0  0  0
   12.1925  -17.2742   20.7192 C   0  0  1  0  0  0  0  0  0  0  0  0
   13.3921  -17.4619   19.8330 C   0  0  0  0  0  0  0  0  0  0  0  0
   14.4081  -18.3527   20.4043 C   0  0  0  0  0  0  0  0  0  0  0  0
   15.6086  -18.0589   20.6068 O   0  0  0  0  0  0  0  0  0  0  0  0
   12.5426  -16.7734   22.0615 C   0  0  0  0  0  0  0  0  0  0  0  0
   13.0522  -15.6455   22.2054 O   0  0  0  0  0  0  0  0  0  0  0  0
   13.9862  -19.6437   20.7506 O   0  0  0  0  0  0  0  0  0  0  0  0
   14.6546  -19.4324   29.1659 N   0  0  0  0  0  0  0  0  0  0  0  0
   13.4740  -19.3298   29.9259 C   0  0  0  0  0  0  0  0  0  0  0  0
   13.4274  -19.7734   31.1347 N   0  0  0  0  0  0  0  0  0  0  0  0
   12.3262  -18.7307   29.3451 N   0  0  0  0  0  0  0  0  0  0  0  0
   11.9730  -18.8390   27.9880 C   0  0  0  0  0  0  0  0  0  0  0  0
   12.5148  -17.8808   26.9933 C   0  0  0  0  0  0  0  0  0  0  0  0
   12.1413  -18.1088   25.5727 C   0  0  0  0  0  0  0  0  0  0  0  0
   12.6369  -17.1177   24.5705 C   0  0  2  0  0  0  0  0  0  0  0  0
   12.3083  -17.5597   23.2045 N   0  0  0  0  0  0  0  0  0  0  0  0
   14.1175  -17.0232   24.5899 C   0  0  0  0  0  0  0  0  0  0  0  0
   14.8819  -18.0328   24.0554 O   0  0  0  0  0  0  0  0  0  0  0  0
   14.6795  -16.0402   25.0846 O   0  0  0  0  0  0  0  0  0  0  0  0
  2  1  1  6
  2  3  1  0
  4  2  1  0
  5  4  1  0
  5  6  1  1
  7  5  1  0
  7  8  2  0
  9  7  1  0
 10  9  1  0
 10 11  1  6
 12 11  1  0
 12 16  1  0
 13 12  2  0
 14 10  1  0
 15 14  2  0
 18 20  1  0
 18 17  1  0
 19 18  2  0
 21 22  1  0
 21 20  1  0
 22 23  1  0
 24 23  1  1
 24 25  1  0
 24 26  1  0
 25 14  1  0
 26 28  2  0
 26 27  1  0
M  END
$$$$
