LDR.pdb
     RDKit          3D

 28 27  0  0  1  0  0  0  0  0999 V2000
    6.4455  -13.7126   18.3303 C   0  0  0  0  0  0  0  0  0  0  0  0
    7.7554  -13.4040   18.9913 C   0  0  2  0  0  0  0  0  0  0  0  0
    8.8318  -13.3660   17.9117 C   0  0  0  0  0  0  0  0  0  0  0  0
    8.1743  -14.4299   19.9926 C   0  0  0  0  0  0  0  0  0  0  0  0
    9.3099  -13.9986   20.8832 C   0  0  2  0  0  0  0  0  0  0  0  0
   10.3612  -13.4496   20.0813 N   0  0  0  0  0  0  0  0  0  0  0  0
    9.7275  -15.1930   21.6632 C   0  0  0  0  0  0  0  0  0  0  0  0
    8.8159  -15.8900   22.1752 O   0  0  0  0  0  0  0  0  0  0  0  0
   11.0693  -15.5952   21.8665 N   0  0  0  0  0  0  0  0  0  0  0  0
   11.4080  -16.7717   22.6739 C   0  0  1  0  0  0  0  0  0  0  0  0
   12.8599  -17.1175   22.4955 C   0  0  0  0  0  0  0  0  0  0  0  0
   13.2803  -18.2935   23.2652 C   0  0  0  0  0  0  0  0  0  0  0  0
   12.5180  -19.0915   23.8573 O   0  0  0  0  0  0  0  0  0  0  0  0
   11.0306  -16.5880   24.0877 C   0  0  0  0  0  0  0  0  0  0  0  0
   11.6170  -15.7485   24.7975 O   0  0  0  0  0  0  0  0  0  0  0  0
   14.6591  -18.5355   23.3367 O   0  0  0  0  0  0  0  0  0  0  0  0
    4.4250  -19.2543   22.7604 N   0  0  0  0  0  0  0  0  0  0  0  0
    5.4056  -19.8250   23.5938 C   0  0  0  0  0  0  0  0  0  0  0  0
    5.5430  -21.1038   23.6701 N   0  0  0  0  0  0  0  0  0  0  0  0
    6.2471  -18.9740   24.3564 N   0  0  0  0  0  0  0  0  0  0  0  0
    6.0947  -17.5789   24.4480 C   0  0  0  0  0  0  0  0  0  0  0  0
    7.0818  -16.7643   25.1984 C   0  0  0  0  0  0  0  0  0  0  0  0
    8.0254  -17.5011   26.0795 C   0  0  0  0  0  0  0  0  0  0  0  0
    9.4661  -17.1116   26.0115 C   0  0  2  0  0  0  0  0  0  0  0  0
   10.0019  -17.3574   24.6618 N   0  0  0  0  0  0  0  0  0  0  0  0
   10.2971  -17.9548   26.9059 C   0  0  0  0  0  0  0  0  0  0  0  0
   10.1852  -17.8346   28.2705 O   0  0  0  0  0  0  0  0  0  0  0  0
   11.0969  -18.7720   26.4372 O   0  0  0  0  0  0  0  0  0  0  0  0
  2  1  1  6
  2  3  1  0
  4  2  1  0
  5  4  1  0
  5  6  1  6
  7  5  1  0
  7  8  2  0
  9  7  1  0
 10  9  1  0
 10 11  1  1
 12 11  1  0
 12 16  1  0
 13 12  2  0
 14 10  1  0
 15 14  2  0
 18 20  1  0
 18 17  1  0
 19 18  2  0
 21 22  1  0
 21 20  1  0
 22 23  1  0
 24 23  1  6
 24 25  1  0
 24 26  1  0
 25 14  1  0
 26 28  2  0
 26 27  1  0
M  END
$$$$
