MIK.pdb
     RDKit          3D

 26 25  0  0  1  0  0  0  0  0999 V2000
   29.0797  -17.0064  -18.2285 C   0  0  0  0  0  0  0  0  0  0  0  0
   28.1417  -18.0653  -17.0910 S   0  0  0  0  0  0  0  0  0  0  0  0
   27.3426  -19.3497  -18.0906 C   0  0  0  0  0  0  0  0  0  0  0  0
   26.4919  -20.2760  -17.2325 C   0  0  0  0  0  0  0  0  0  0  0  0
   27.4043  -20.8483  -16.1748 C   0  0  2  0  0  0  0  0  0  0  0  0
   28.1690  -21.9179  -16.7386 N   0  0  0  0  0  0  0  0  0  0  0  0
   26.5806  -21.2808  -15.0179 C   0  0  0  0  0  0  0  0  0  0  0  0
   25.9967  -22.4052  -15.0466 O   0  0  0  0  0  0  0  0  0  0  0  0
   28.7681  -21.4263  -10.4779 C   0  0  0  0  0  0  0  0  0  0  0  0
   27.7794  -21.7062  -11.5537 C   0  0  0  0  0  0  0  0  0  0  0  0
   26.5154  -20.8613  -11.4676 C   0  0  2  0  0  0  0  0  0  0  0  0
   25.7545  -21.3459  -10.2540 C   0  0  0  0  0  0  0  0  0  0  0  0
   25.6634  -21.0412  -12.6974 C   0  0  2  0  0  0  0  0  0  0  0  0
   26.4076  -20.4892  -13.8602 N   0  0  0  0  0  0  0  0  0  0  0  0
   24.3623  -20.3993  -12.6861 C   0  0  0  0  0  0  0  0  0  0  0  0
   24.3368  -19.1140  -12.8512 O   0  0  0  0  0  0  0  0  0  0  0  0
   23.1034  -21.0240  -12.5169 N   0  0  0  0  0  0  0  0  0  0  0  0
   21.8742  -20.5179  -13.1330 C   0  0  1  0  0  0  0  0  0  0  0  0
   22.0724  -20.2669  -14.5842 C   0  0  0  0  0  0  0  0  0  0  0  0
   20.9289  -19.6798  -15.3282 C   0  0  0  0  0  0  0  0  0  0  0  0
   20.4706  -20.4249  -16.5307 C   0  0  0  0  0  0  0  0  0  0  0  0
   19.3893  -19.6087  -17.2130 C   0  0  0  0  0  0  0  0  0  0  0  0
   18.8143  -20.3009  -18.3397 N   0  0  0  0  0  0  0  0  0  0  0  0
   20.7109  -21.3377  -12.7709 C   0  0  0  0  0  0  0  0  0  0  0  0
   20.7659  -22.7249  -12.8205 O   0  0  0  0  0  0  0  0  0  0  0  0
   19.6367  -20.8016  -12.4054 O   0  0  0  0  0  0  0  0  0  0  0  0
  2  1  1  0
  3  2  1  0
  4  3  1  0
  4  5  1  0
  5  7  1  0
  5  6  1  6
  7  8  2  0
 10  9  1  0
 11 13  1  0
 11 10  1  0
 11 12  1  1
 13 14  1  6
 14  7  1  0
 15 13  1  0
 16 15  2  0
 17 15  1  0
 18 19  1  6
 18 17  1  0
 19 20  1  0
 20 21  1  0
 21 22  1  0
 23 22  1  0
 24 25  1  0
 24 18  1  0
 26 24  2  0
M  END
$$$$
