MIK.pdb
     RDKit          3D

 26 25  0  0  1  0  0  0  0  0999 V2000
   21.6442  -21.2987   -7.9307 C   0  0  0  0  0  0  0  0  0  0  0  0
   22.9693  -21.6713   -6.7474 S   0  0  0  0  0  0  0  0  0  0  0  0
   24.5430  -21.3255   -7.5791 C   0  0  0  0  0  0  0  0  0  0  0  0
   24.3236  -20.7602   -8.9757 C   0  0  0  0  0  0  0  0  0  0  0  0
   25.6805  -20.6869   -9.6330 C   0  0  2  0  0  0  0  0  0  0  0  0
   26.5449  -19.8656   -8.8424 N   0  0  0  0  0  0  0  0  0  0  0  0
   25.5129  -20.1764  -11.0169 C   0  0  0  0  0  0  0  0  0  0  0  0
   25.2510  -18.9512  -11.2081 O   0  0  0  0  0  0  0  0  0  0  0  0
   28.3556  -22.3776  -15.0767 C   0  0  0  0  0  0  0  0  0  0  0  0
   27.0946  -22.0958  -14.3393 C   0  0  0  0  0  0  0  0  0  0  0  0
   26.7240  -20.6197  -14.2885 C   0  0  2  0  0  0  0  0  0  0  0  0
   27.8617  -19.9133  -13.5859 C   0  0  0  0  0  0  0  0  0  0  0  0
   25.4497  -20.4115  -13.5117 C   0  0  2  0  0  0  0  0  0  0  0  0
   25.6317  -21.0004  -12.1586 N   0  0  0  0  0  0  0  0  0  0  0  0
   24.2457  -20.9988  -14.0689 C   0  0  0  0  0  0  0  0  0  0  0  0
   23.5987  -21.8382  -13.3227 O   0  0  0  0  0  0  0  0  0  0  0  0
   23.6891  -20.7544  -15.3472 N   0  0  0  0  0  0  0  0  0  0  0  0
   22.2929  -21.0510  -15.6776 C   0  0  1  0  0  0  0  0  0  0  0  0
   21.3709  -20.4321  -14.6901 C   0  0  0  0  0  0  0  0  0  0  0  0
   19.9157  -20.6308  -14.9111 C   0  0  0  0  0  0  0  0  0  0  0  0
   19.0500  -19.4361  -14.7252 C   0  0  0  0  0  0  0  0  0  0  0  0
   17.6083  -19.8546  -14.9421 C   0  0  0  0  0  0  0  0  0  0  0  0
   16.6899  -18.7580  -14.7593 N   0  0  0  0  0  0  0  0  0  0  0  0
   22.0030  -20.7808  -17.0917 C   0  0  0  0  0  0  0  0  0  0  0  0
   21.0687  -21.5347  -17.7905 O   0  0  0  0  0  0  0  0  0  0  0  0
   22.5942  -19.8580  -17.7030 O   0  0  0  0  0  0  0  0  0  0  0  0
  2  1  1  0
  3  2  1  0
  4  3  1  0
  4  5  1  0
  5  7  1  0
  5  6  1  1
  7  8  2  0
 10  9  1  0
 11 13  1  0
 11 10  1  0
 11 12  1  1
 13 14  1  1
 14  7  1  0
 15 13  1  0
 16 15  2  0
 17 15  1  0
 18 19  1  1
 18 17  1  0
 19 20  1  0
 20 21  1  0
 21 22  1  0
 23 22  1  0
 24 25  1  0
 24 18  1  0
 26 24  2  0
M  END
$$$$
