MIK.pdb
     RDKit          3D

 26 25  0  0  1  0  0  0  0  0999 V2000
   21.0650  -17.7943  -18.3433 C   0  0  0  0  0  0  0  0  0  0  0  0
   22.3982  -16.6053  -18.0213 S   0  0  0  0  0  0  0  0  0  0  0  0
   23.7667  -17.5258  -17.2679 C   0  0  0  0  0  0  0  0  0  0  0  0
   23.2592  -18.6732  -16.4052 C   0  0  0  0  0  0  0  0  0  0  0  0
   24.4608  -19.2466  -15.6939 C   0  0  2  0  0  0  0  0  0  0  0  0
   25.3524  -19.8166  -16.6567 N   0  0  0  0  0  0  0  0  0  0  0  0
   23.9935  -20.2352  -14.6898 C   0  0  0  0  0  0  0  0  0  0  0  0
   23.9359  -21.4636  -14.9960 O   0  0  0  0  0  0  0  0  0  0  0  0
   26.0058  -20.5349   -9.7998 C   0  0  0  0  0  0  0  0  0  0  0  0
   25.3242  -20.8796  -11.0764 C   0  0  0  0  0  0  0  0  0  0  0  0
   23.8293  -20.5898  -11.0776 C   0  0  2  0  0  0  0  0  0  0  0  0
   23.2195  -21.4641  -10.0050 C   0  0  0  0  0  0  0  0  0  0  0  0
   23.2162  -20.9320  -12.4109 C   0  0  2  0  0  0  0  0  0  0  0  0
   23.6003  -19.8734  -13.3817 N   0  0  0  0  0  0  0  0  0  0  0  0
   21.7698  -21.0382  -12.4530 C   0  0  0  0  0  0  0  0  0  0  0  0
   21.0953  -19.9324  -12.4069 O   0  0  0  0  0  0  0  0  0  0  0  0
   21.0030  -22.2246  -12.5429 N   0  0  0  0  0  0  0  0  0  0  0  0
   19.5418  -22.2220  -12.6507 C   0  0  1  0  0  0  0  0  0  0  0  0
   19.0539  -23.4771  -13.2792 C   0  0  0  0  0  0  0  0  0  0  0  0
   17.5850  -23.6193  -13.4466 C   0  0  0  0  0  0  0  0  0  0  0  0
   17.1111  -24.8788  -14.0792 C   0  0  0  0  0  0  0  0  0  0  0  0
   15.6192  -24.7562  -14.3245 C   0  0  0  0  0  0  0  0  0  0  0  0
   15.0621  -25.9549  -14.9006 N   0  0  0  0  0  0  0  0  0  0  0  0
   18.9070  -21.8444  -11.3815 C   0  0  0  0  0  0  0  0  0  0  0  0
   17.8307  -20.9667  -11.3495 O   0  0  0  0  0  0  0  0  0  0  0  0
   19.3232  -22.3090  -10.2925 O   0  0  0  0  0  0  0  0  0  0  0  0
  2  1  1  0
  3  2  1  0
  4  3  1  0
  4  5  1  0
  5  7  1  0
  5  6  1  6
  7  8  2  0
 10  9  1  0
 11 13  1  0
 11 10  1  0
 11 12  1  1
 13 14  1  6
 14  7  1  0
 15 13  1  0
 16 15  2  0
 17 15  1  0
 18 19  1  1
 18 17  1  0
 19 20  1  0
 20 21  1  0
 21 22  1  0
 23 22  1  0
 24 25  1  0
 24 18  1  0
 26 24  2  0
M  END
$$$$
