MIK.pdb
     RDKit          3D

 26 25  0  0  1  0  0  0  0  0999 V2000
   26.5060  -14.7708  -15.1638 C   0  0  0  0  0  0  0  0  0  0  0  0
   27.2850  -15.5609  -16.6004 S   0  0  0  0  0  0  0  0  0  0  0  0
   27.9394  -17.1577  -16.0442 C   0  0  0  0  0  0  0  0  0  0  0  0
   26.8411  -18.0406  -15.4676 C   0  0  0  0  0  0  0  0  0  0  0  0
   27.5191  -19.2670  -14.9065 C   0  0  2  0  0  0  0  0  0  0  0  0
   28.1348  -19.9961  -15.9724 N   0  0  0  0  0  0  0  0  0  0  0  0
   26.5137  -20.0716  -14.1679 C   0  0  0  0  0  0  0  0  0  0  0  0
   26.0202  -21.1083  -14.7044 O   0  0  0  0  0  0  0  0  0  0  0  0
   27.2095  -20.5082   -8.8869 C   0  0  0  0  0  0  0  0  0  0  0  0
   26.8076  -20.9282  -10.2563 C   0  0  0  0  0  0  0  0  0  0  0  0
   25.4097  -20.4763  -10.6570 C   0  0  2  0  0  0  0  0  0  0  0  0
   24.4389  -21.3341   -9.8769 C   0  0  0  0  0  0  0  0  0  0  0  0
   25.1817  -20.6778  -12.1328 C   0  0  2  0  0  0  0  0  0  0  0  0
   26.0662  -19.7371  -12.8699 N   0  0  0  0  0  0  0  0  0  0  0  0
   23.8324  -20.4561  -12.6181 C   0  0  0  0  0  0  0  0  0  0  0  0
   23.3848  -19.2403  -12.5824 O   0  0  0  0  0  0  0  0  0  0  0  0
   22.9407  -21.4264  -13.1348 N   0  0  0  0  0  0  0  0  0  0  0  0
   21.6103  -21.0912  -13.6493 C   0  0  1  0  0  0  0  0  0  0  0  0
   21.2358  -21.9860  -14.7750 C   0  0  0  0  0  0  0  0  0  0  0  0
   19.9433  -21.7106  -15.4527 C   0  0  0  0  0  0  0  0  0  0  0  0
   19.5765  -22.6200  -16.5706 C   0  0  0  0  0  0  0  0  0  0  0  0
   18.3263  -22.0764  -17.2357 C   0  0  0  0  0  0  0  0  0  0  0  0
   17.9864  -22.8045  -18.4330 N   0  0  0  0  0  0  0  0  0  0  0  0
   20.6270  -20.9681  -12.5656 C   0  0  0  0  0  0  0  0  0  0  0  0
   19.6591  -19.9719  -12.5832 O   0  0  0  0  0  0  0  0  0  0  0  0
   20.6380  -21.7643  -11.5956 O   0  0  0  0  0  0  0  0  0  0  0  0
  2  1  1  0
  3  2  1  0
  4  3  1  0
  4  5  1  0
  5  7  1  0
  5  6  1  6
  7  8  2  0
 10  9  1  0
 11 13  1  0
 11 10  1  0
 11 12  1  1
 13 14  1  6
 14  7  1  0
 15 13  1  0
 16 15  2  0
 17 15  1  0
 18 19  1  6
 18 17  1  0
 19 20  1  0
 20 21  1  0
 21 22  1  0
 23 22  1  0
 24 25  1  0
 24 18  1  0
 26 24  2  0
M  END
$$$$
