MIK.pdb
     RDKit          3D

 26 25  0  0  1  0  0  0  0  0999 V2000
   31.3059   -6.8894  -17.8939 C   0  0  0  0  0  0  0  0  0  0  0  0
   31.3499   -8.2902  -19.0474 S   0  0  0  0  0  0  0  0  0  0  0  0
   30.5424   -9.6887  -18.2229 C   0  0  0  0  0  0  0  0  0  0  0  0
   29.0261   -9.5537  -18.2519 C   0  0  0  0  0  0  0  0  0  0  0  0
   28.4717  -10.7070  -17.4512 C   0  0  2  0  0  0  0  0  0  0  0  0
   28.8216  -11.9379  -18.0909 N   0  0  0  0  0  0  0  0  0  0  0  0
   27.0042  -10.5299  -17.3134 C   0  0  0  0  0  0  0  0  0  0  0  0
   26.2410  -10.8281  -18.2802 O   0  0  0  0  0  0  0  0  0  0  0  0
   24.0569  -13.3637  -14.5398 C   0  0  0  0  0  0  0  0  0  0  0  0
   24.5250  -12.3458  -15.5185 C   0  0  0  0  0  0  0  0  0  0  0  0
   24.4399  -10.9130  -15.0097 C   0  0  2  0  0  0  0  0  0  0  0  0
   22.9823  -10.6494  -14.7052 C   0  0  0  0  0  0  0  0  0  0  0  0
   24.9162   -9.9409  -16.0578 C   0  0  2  0  0  0  0  0  0  0  0  0
   26.3979  -10.0353  -16.1367 N   0  0  0  0  0  0  0  0  0  0  0  0
   24.5936   -8.5429  -15.8420 C   0  0  0  0  0  0  0  0  0  0  0  0
   25.2750   -7.9128  -14.9372 O   0  0  0  0  0  0  0  0  0  0  0  0
   23.6109   -7.7793  -16.5165 N   0  0  0  0  0  0  0  0  0  0  0  0
   23.3334   -6.3769  -16.1955 C   0  0  1  0  0  0  0  0  0  0  0  0
   22.5875   -5.7176  -17.2989 C   0  0  0  0  0  0  0  0  0  0  0  0
   22.1314   -4.3238  -17.0644 C   0  0  0  0  0  0  0  0  0  0  0  0
   21.4511   -3.6509  -18.2027 C   0  0  0  0  0  0  0  0  0  0  0  0
   21.2016   -2.2044  -17.8204 C   0  0  0  0  0  0  0  0  0  0  0  0
   20.4084   -1.5104  -18.8044 N   0  0  0  0  0  0  0  0  0  0  0  0
   22.7608   -6.2334  -14.8509 C   0  0  0  0  0  0  0  0  0  0  0  0
   23.1994   -5.2392  -13.9854 O   0  0  0  0  0  0  0  0  0  0  0  0
   21.8575   -7.0080  -14.4520 O   0  0  0  0  0  0  0  0  0  0  0  0
  2  1  1  0
  3  2  1  0
  4  3  1  0
  4  5  1  0
  5  7  1  0
  5  6  1  6
  7  8  2  0
 10  9  1  0
 11 13  1  0
 11 10  1  0
 11 12  1  6
 13 14  1  1
 14  7  1  0
 15 13  1  0
 16 15  2  0
 17 15  1  0
 18 19  1  6
 18 17  1  0
 19 20  1  0
 20 21  1  0
 21 22  1  0
 23 22  1  0
 24 25  1  0
 24 18  1  0
 26 24  2  0
M  END
$$$$
