WVF.pdb
     RDKit          3D

 33 35  0  0  1  0  0  0  0  0999 V2000
   22.5509  -14.1749  -19.2684 N   0  0  0  0  0  0  0  0  0  0  0  0
   21.6298  -13.6561  -18.2453 C   0  0  1  0  0  0  0  0  0  0  0  0
   21.7841  -14.4968  -17.0142 C   0  0  0  0  0  0  0  0  0  0  0  0
   21.0895  -15.7808  -17.0054 C   0  0  0  0  0  0  0  0  0  0  0  0
   19.9437  -16.0184  -16.2576 C   0  0  0  0  0  0  0  0  0  0  0  0
   19.5791  -17.3014  -16.4490 N   0  0  0  0  0  0  0  0  0  0  0  0
   20.4349  -17.9045  -17.2859 C   0  0  0  0  0  0  0  0  0  0  0  0
   20.4476  -19.1908  -17.7702 C   0  0  0  0  0  0  0  0  0  0  0  0
   21.4316  -19.5928  -18.6487 C   0  0  0  0  0  0  0  0  0  0  0  0
   22.3819  -18.6405  -19.0024 C   0  0  0  0  0  0  0  0  0  0  0  0
   22.3556  -17.3573  -18.5084 C   0  0  0  0  0  0  0  0  0  0  0  0
   21.3821  -16.9604  -17.6386 C   0  0  0  0  0  0  0  0  0  0  0  0
   21.9166  -12.2321  -18.0222 C   0  0  0  0  0  0  0  0  0  0  0  0
   23.1287  -11.8327  -17.8970 O   0  0  0  0  0  0  0  0  0  0  0  0
   20.7191   -7.7252  -19.0697 C   0  0  0  0  0  0  0  0  0  0  0  0
   20.5536   -9.2184  -19.0268 C   0  0  2  0  0  0  0  0  0  0  0  0
   19.0746   -9.5291  -19.0671 C   0  0  0  0  0  0  0  0  0  0  0  0
   21.2244   -9.8714  -17.8317 C   0  0  2  0  0  0  0  0  0  0  0  0
   20.8629  -11.2850  -17.9421 N   0  0  0  0  0  0  0  0  0  0  0  0
   20.7850   -9.3224  -16.5381 C   0  0  0  0  0  0  0  0  0  0  0  0
   19.6496   -9.6987  -16.0802 O   0  0  0  0  0  0  0  0  0  0  0  0
   21.4746   -8.4148  -15.7203 N   0  0  0  0  0  0  0  0  0  0  0  0
   20.9600   -7.8993  -14.4665 C   0  0  1  0  0  0  0  0  0  0  0  0
   22.1885   -7.6541  -13.5807 C   0  0  0  0  0  0  0  0  0  0  0  0
   23.1363   -6.7079  -14.2221 C   0  0  0  0  0  0  0  0  0  0  0  0
   24.1057   -7.1343  -15.1182 C   0  0  0  0  0  0  0  0  0  0  0  0
   24.9876   -6.2590  -15.7143 C   0  0  0  0  0  0  0  0  0  0  0  0
   24.9409   -4.9083  -15.4404 C   0  0  0  0  0  0  0  0  0  0  0  0
   23.9776   -4.4779  -14.5488 C   0  0  0  0  0  0  0  0  0  0  0  0
   23.0861   -5.3579  -13.9454 C   0  0  0  0  0  0  0  0  0  0  0  0
   20.2809   -6.6114  -14.6155 C   0  0  0  0  0  0  0  0  0  0  0  0
   20.3136   -5.8501  -15.7722 O   0  0  0  0  0  0  0  0  0  0  0  0
   19.6238   -6.1551  -13.6442 O   0  0  0  0  0  0  0  0  0  0  0  0
  2  1  1  6
  2  3  1  0
  3  4  1  0
  4  5  2  0
  5  6  1  0
  7  6  1  0
  8  7  2  0
  9  8  1  0
 10 11  1  0
 10  9  2  0
 11 12  2  0
 12  4  1  0
 12  7  1  0
 13  2  1  0
 14 13  2  0
 16 15  1  1
 16 17  1  0
 18 19  1  1
 18 16  1  0
 19 13  1  0
 20 18  1  0
 21 20  2  0
 22 20  1  0
 23 22  1  0
 24 25  1  0
 23 24  1  1
 25 26  2  0
 26 27  1  0
 28 27  2  0
 29 28  1  0
 30 29  2  0
 30 25  1  0
 31 23  1  0
 31 32  1  0
 33 31  2  0
M  END
$$$$
