WVF.pdb
     RDKit          3D

 33 35  0  0  1  0  0  0  0  0999 V2000
   23.3159  -20.0379  -15.5492 N   0  0  0  0  0  0  0  0  0  0  0  0
   23.3458  -19.6281  -14.1366 C   0  0  1  0  0  0  0  0  0  0  0  0
   21.9385  -19.6390  -13.6214 C   0  0  0  0  0  0  0  0  0  0  0  0
   20.9974  -18.7272  -14.2648 C   0  0  0  0  0  0  0  0  0  0  0  0
   20.1795  -19.1029  -15.3224 C   0  0  0  0  0  0  0  0  0  0  0  0
   19.4626  -18.0259  -15.6987 N   0  0  0  0  0  0  0  0  0  0  0  0
   19.7779  -16.9713  -14.9336 C   0  0  0  0  0  0  0  0  0  0  0  0
   19.2930  -15.6853  -14.9485 C   0  0  0  0  0  0  0  0  0  0  0  0
   19.7587  -14.7567  -14.0416 C   0  0  0  0  0  0  0  0  0  0  0  0
   20.7220  -15.1930  -13.1378 C   0  0  0  0  0  0  0  0  0  0  0  0
   21.1973  -16.4835  -13.1364 C   0  0  0  0  0  0  0  0  0  0  0  0
   20.7367  -17.4016  -14.0345 C   0  0  0  0  0  0  0  0  0  0  0  0
   24.2471  -20.5240  -13.3983 C   0  0  0  0  0  0  0  0  0  0  0  0
   23.9397  -21.7592  -13.2427 O   0  0  0  0  0  0  0  0  0  0  0  0
   28.4230  -19.8344  -12.9076 C   0  0  0  0  0  0  0  0  0  0  0  0
   27.5736  -21.0730  -12.9658 C   0  0  2  0  0  0  0  0  0  0  0  0
   27.2542  -21.3565  -14.4160 C   0  0  0  0  0  0  0  0  0  0  0  0
   26.3110  -20.9856  -12.1274 C   0  0  2  0  0  0  0  0  0  0  0  0
   25.4623  -20.0377  -12.8500 N   0  0  0  0  0  0  0  0  0  0  0  0
   26.5505  -20.5231  -10.7501 C   0  0  0  0  0  0  0  0  0  0  0  0
   27.3215  -19.5146  -10.5806 O   0  0  0  0  0  0  0  0  0  0  0  0
   26.0234  -21.0628   -9.5673 N   0  0  0  0  0  0  0  0  0  0  0  0
   26.7989  -21.2911   -8.3636 C   0  0  1  0  0  0  0  0  0  0  0  0
   27.4132  -19.9332   -7.9994 C   0  0  0  0  0  0  0  0  0  0  0  0
   28.1798  -20.0105   -6.7300 C   0  0  0  0  0  0  0  0  0  0  0  0
   27.8809  -19.2039   -5.6416 C   0  0  0  0  0  0  0  0  0  0  0  0
   28.5910  -19.2722   -4.4626 C   0  0  0  0  0  0  0  0  0  0  0  0
   29.6396  -20.1557   -4.3160 C   0  0  0  0  0  0  0  0  0  0  0  0
   29.9419  -20.9616   -5.3965 C   0  0  0  0  0  0  0  0  0  0  0  0
   29.2277  -20.8955   -6.5877 C   0  0  0  0  0  0  0  0  0  0  0  0
   25.9765  -21.7033   -7.2253 C   0  0  0  0  0  0  0  0  0  0  0  0
   24.5924  -21.6505   -7.2129 O   0  0  0  0  0  0  0  0  0  0  0  0
   26.5455  -22.1339   -6.1888 O   0  0  0  0  0  0  0  0  0  0  0  0
  2  1  1  6
  2  3  1  0
  3  4  1  0
  4  5  2  0
  5  6  1  0
  7  6  1  0
  8  7  2  0
  9  8  1  0
 10 11  1  0
 10  9  2  0
 11 12  2  0
 12  4  1  0
 12  7  1  0
 13  2  1  0
 14 13  2  0
 16 15  1  6
 16 17  1  0
 18 19  1  6
 18 16  1  0
 19 13  1  0
 20 18  1  0
 21 20  2  0
 22 20  1  0
 23 22  1  0
 24 25  1  0
 23 24  1  1
 25 26  2  0
 26 27  1  0
 28 27  2  0
 29 28  1  0
 30 29  2  0
 30 25  1  0
 31 23  1  0
 31 32  1  0
 33 31  2  0
M  END
$$$$
