WVF.pdb
     RDKit          3D

 33 35  0  0  1  0  0  0  0  0999 V2000
   28.2929  -21.2430  -15.2855 N   0  0  0  0  0  0  0  0  0  0  0  0
   28.6688  -21.2605  -13.8633 C   0  0  1  0  0  0  0  0  0  0  0  0
   30.0663  -20.7316  -13.7472 C   0  0  0  0  0  0  0  0  0  0  0  0
   31.0926  -21.6784  -13.3209 C   0  0  0  0  0  0  0  0  0  0  0  0
   31.8376  -22.4412  -14.2107 C   0  0  0  0  0  0  0  0  0  0  0  0
   32.6664  -23.2264  -13.4949 N   0  0  0  0  0  0  0  0  0  0  0  0
   32.4927  -23.0067  -12.1841 C   0  0  0  0  0  0  0  0  0  0  0  0
   33.1233  -23.5649  -11.0977 C   0  0  0  0  0  0  0  0  0  0  0  0
   32.7889  -23.1673   -9.8203 C   0  0  0  0  0  0  0  0  0  0  0  0
   31.8017  -22.1941   -9.7060 C   0  0  0  0  0  0  0  0  0  0  0  0
   31.1797  -21.6458  -10.8033 C   0  0  0  0  0  0  0  0  0  0  0  0
   31.5106  -22.0400  -12.0669 C   0  0  0  0  0  0  0  0  0  0  0  0
   27.6829  -20.4835  -13.0990 C   0  0  0  0  0  0  0  0  0  0  0  0
   27.3607  -19.3021  -13.4800 O   0  0  0  0  0  0  0  0  0  0  0  0
   23.6830  -19.4979  -11.6035 C   0  0  0  0  0  0  0  0  0  0  0  0
   24.8695  -20.2389  -12.1531 C   0  0  2  0  0  0  0  0  0  0  0  0
   24.4406  -21.6573  -12.4528 C   0  0  0  0  0  0  0  0  0  0  0  0
   26.0828  -20.2080  -11.2411 C   0  0  2  0  0  0  0  0  0  0  0  0
   27.0778  -21.0258  -11.9356 N   0  0  0  0  0  0  0  0  0  0  0  0
   25.8199  -20.7422   -9.8945 C   0  0  0  0  0  0  0  0  0  0  0  0
   25.7580  -22.0138   -9.7540 O   0  0  0  0  0  0  0  0  0  0  0  0
   25.6253  -20.0123   -8.7123 N   0  0  0  0  0  0  0  0  0  0  0  0
   25.3961  -20.6163   -7.4142 C   0  0  1  0  0  0  0  0  0  0  0  0
   25.6959  -19.5189   -6.3848 C   0  0  0  0  0  0  0  0  0  0  0  0
   27.0989  -19.5978   -5.9046 C   0  0  0  0  0  0  0  0  0  0  0  0
   27.5152  -20.5741   -5.0114 C   0  0  0  0  0  0  0  0  0  0  0  0
   28.8161  -20.6495   -4.5629 C   0  0  0  0  0  0  0  0  0  0  0  0
   29.7670  -19.7465   -4.9892 C   0  0  0  0  0  0  0  0  0  0  0  0
   29.3583  -18.7720   -5.8788 C   0  0  0  0  0  0  0  0  0  0  0  0
   28.0467  -18.6927   -6.3336 C   0  0  0  0  0  0  0  0  0  0  0  0
   24.0039  -21.0194   -7.2108 C   0  0  0  0  0  0  0  0  0  0  0  0
   23.5863  -21.8736   -6.2036 O   0  0  0  0  0  0  0  0  0  0  0  0
   23.1219  -20.5717   -7.9886 O   0  0  0  0  0  0  0  0  0  0  0  0
  2  1  1  6
  2  3  1  0
  3  4  1  0
  4  5  2  0
  5  6  1  0
  7  6  1  0
  8  7  2  0
  9  8  1  0
 10 11  1  0
 10  9  2  0
 11 12  2  0
 12  4  1  0
 12  7  1  0
 13  2  1  0
 14 13  2  0
 16 15  1  1
 16 17  1  0
 18 19  1  6
 18 16  1  0
 19 13  1  0
 20 18  1  0
 21 20  2  0
 22 20  1  0
 23 22  1  0
 24 25  1  0
 23 24  1  1
 25 26  2  0
 26 27  1  0
 28 27  2  0
 29 28  1  0
 30 29  2  0
 30 25  1  0
 31 23  1  0
 31 32  1  0
 33 31  2  0
M  END
$$$$
