WVF.pdb
     RDKit          3D

 33 35  0  0  1  0  0  0  0  0999 V2000
   25.2402  -17.7327  -16.0141 N   0  0  0  0  0  0  0  0  0  0  0  0
   26.2024  -17.8966  -14.9133 C   0  0  1  0  0  0  0  0  0  0  0  0
   26.6714  -16.5341  -14.5014 C   0  0  0  0  0  0  0  0  0  0  0  0
   27.4469  -15.7826  -15.4838 C   0  0  0  0  0  0  0  0  0  0  0  0
   27.1993  -14.4503  -15.7874 C   0  0  0  0  0  0  0  0  0  0  0  0
   28.0658  -14.0731  -16.7480 N   0  0  0  0  0  0  0  0  0  0  0  0
   28.8626  -15.0988  -17.0793 C   0  0  0  0  0  0  0  0  0  0  0  0
   29.8895  -15.1689  -17.9903 C   0  0  0  0  0  0  0  0  0  0  0  0
   30.5941  -16.3429  -18.1540 C   0  0  0  0  0  0  0  0  0  0  0  0
   30.2098  -17.4192  -17.3610 C   0  0  0  0  0  0  0  0  0  0  0  0
   29.1795  -17.3330  -16.4541 C   0  0  0  0  0  0  0  0  0  0  0  0
   28.4823  -16.1713  -16.2932 C   0  0  0  0  0  0  0  0  0  0  0  0
   25.5608  -18.6490  -13.8261 C   0  0  0  0  0  0  0  0  0  0  0  0
   24.4729  -18.2183  -13.3014 O   0  0  0  0  0  0  0  0  0  0  0  0
   24.3604  -22.8403  -11.9591 C   0  0  0  0  0  0  0  0  0  0  0  0
   25.1232  -21.9308  -12.8811 C   0  0  2  0  0  0  0  0  0  0  0  0
   26.3907  -22.6407  -13.2994 C   0  0  0  0  0  0  0  0  0  0  0  0
   25.4233  -20.5686  -12.2819 C   0  0  2  0  0  0  0  0  0  0  0  0
   26.1329  -19.8549  -13.3441 N   0  0  0  0  0  0  0  0  0  0  0  0
   26.2433  -20.6311  -11.0605 C   0  0  0  0  0  0  0  0  0  0  0  0
   27.4176  -21.1344  -11.1504 O   0  0  0  0  0  0  0  0  0  0  0  0
   25.8902  -20.1942   -9.7750 N   0  0  0  0  0  0  0  0  0  0  0  0
   26.6119  -20.5526   -8.5695 C   0  0  1  0  0  0  0  0  0  0  0  0
   26.9910  -19.2251   -7.9002 C   0  0  0  0  0  0  0  0  0  0  0  0
   27.7589  -19.4510   -6.6494 C   0  0  0  0  0  0  0  0  0  0  0  0
   28.5290  -20.5886   -6.4562 C   0  0  0  0  0  0  0  0  0  0  0  0
   29.2418  -20.8019   -5.2962 C   0  0  0  0  0  0  0  0  0  0  0  0
   29.2176  -19.8820   -4.2692 C   0  0  0  0  0  0  0  0  0  0  0  0
   28.4525  -18.7472   -4.4560 C   0  0  0  0  0  0  0  0  0  0  0  0
   27.7319  -18.5284   -5.6249 C   0  0  0  0  0  0  0  0  0  0  0  0
   25.7889  -21.2909   -7.6106 C   0  0  0  0  0  0  0  0  0  0  0  0
   26.3028  -22.0091   -6.5435 O   0  0  0  0  0  0  0  0  0  0  0  0
   24.5383  -21.2824   -7.7499 O   0  0  0  0  0  0  0  0  0  0  0  0
  2  1  1  6
  2  3  1  0
  3  4  1  0
  4  5  2  0
  5  6  1  0
  7  6  1  0
  8  7  2  0
  9  8  1  0
 10 11  1  0
 10  9  2  0
 11 12  2  0
 12  4  1  0
 12  7  1  0
 13  2  1  0
 14 13  2  0
 16 15  1  1
 16 17  1  0
 18 19  1  6
 18 16  1  0
 19 13  1  0
 20 18  1  0
 21 20  2  0
 22 20  1  0
 23 22  1  0
 24 25  1  0
 23 24  1  1
 25 26  2  0
 26 27  1  0
 28 27  2  0
 29 28  1  0
 30 29  2  0
 30 25  1  0
 31 23  1  0
 31 32  1  0
 33 31  2  0
M  END
$$$$
