WVF.pdb
     RDKit          3D

 33 35  0  0  1  0  0  0  0  0999 V2000
   28.2557  -19.9962  -10.0731 N   0  0  0  0  0  0  0  0  0  0  0  0
   27.0219  -20.7847   -9.9308 C   0  0  1  0  0  0  0  0  0  0  0  0
   26.2997  -20.2986   -8.7109 C   0  0  0  0  0  0  0  0  0  0  0  0
   27.1150  -19.6838   -7.6675 C   0  0  0  0  0  0  0  0  0  0  0  0
   27.4691  -18.3410   -7.6739 C   0  0  0  0  0  0  0  0  0  0  0  0
   28.2429  -18.1083   -6.5955 N   0  0  0  0  0  0  0  0  0  0  0  0
   28.4052  -19.2374   -5.8917 C   0  0  0  0  0  0  0  0  0  0  0  0
   29.0964  -19.4670   -4.7260 C   0  0  0  0  0  0  0  0  0  0  0  0
   29.1115  -20.7261   -4.1637 C   0  0  0  0  0  0  0  0  0  0  0  0
   28.4032  -21.7189   -4.8328 C   0  0  0  0  0  0  0  0  0  0  0  0
   27.7170  -21.4729   -5.9990 C   0  0  0  0  0  0  0  0  0  0  0  0
   27.7029  -20.2271   -6.5551 C   0  0  0  0  0  0  0  0  0  0  0  0
   26.2334  -20.6648  -11.1652 C   0  0  0  0  0  0  0  0  0  0  0  0
   25.8732  -19.5089  -11.5879 O   0  0  0  0  0  0  0  0  0  0  0  0
   27.3930  -21.9598  -14.2768 C   0  0  0  0  0  0  0  0  0  0  0  0
   25.9601  -22.4030  -14.1806 C   0  0  2  0  0  0  0  0  0  0  0  0
   25.3475  -22.3168  -15.5601 C   0  0  0  0  0  0  0  0  0  0  0  0
   25.1477  -21.6212  -13.1640 C   0  0  2  0  0  0  0  0  0  0  0  0
   25.8613  -21.8192  -11.9019 N   0  0  0  0  0  0  0  0  0  0  0  0
   23.7528  -22.0782  -13.0492 C   0  0  0  0  0  0  0  0  0  0  0  0
   23.5454  -23.3075  -12.7558 O   0  0  0  0  0  0  0  0  0  0  0  0
   22.5895  -21.3136  -13.2239 N   0  0  0  0  0  0  0  0  0  0  0  0
   21.2500  -21.8681  -13.2477 C   0  0  1  0  0  0  0  0  0  0  0  0
   20.4557  -21.0851  -12.1942 C   0  0  0  0  0  0  0  0  0  0  0  0
   20.7500  -21.5733  -10.8231 C   0  0  0  0  0  0  0  0  0  0  0  0
   21.7499  -21.0116  -10.0427 C   0  0  0  0  0  0  0  0  0  0  0  0
   22.0264  -21.4630   -8.7704 C   0  0  0  0  0  0  0  0  0  0  0  0
   21.3116  -22.5036   -8.2157 C   0  0  0  0  0  0  0  0  0  0  0  0
   20.3145  -23.0670   -8.9881 C   0  0  0  0  0  0  0  0  0  0  0  0
   20.0326  -22.6142  -10.2722 C   0  0  0  0  0  0  0  0  0  0  0  0
   20.5713  -21.6644  -14.5283 C   0  0  0  0  0  0  0  0  0  0  0  0
   19.4173  -22.3310  -14.9056 O   0  0  0  0  0  0  0  0  0  0  0  0
   21.0521  -20.8376  -15.3460 O   0  0  0  0  0  0  0  0  0  0  0  0
  2  1  1  6
  2  3  1  0
  3  4  1  0
  4  5  2  0
  5  6  1  0
  7  6  1  0
  8  7  2  0
  9  8  1  0
 10 11  1  0
 10  9  2  0
 11 12  2  0
 12  4  1  0
 12  7  1  0
 13  2  1  0
 14 13  2  0
 16 15  1  6
 16 17  1  0
 18 19  1  1
 18 16  1  0
 19 13  1  0
 20 18  1  0
 21 20  2  0
 22 20  1  0
 23 22  1  0
 24 25  1  0
 23 24  1  1
 25 26  2  0
 26 27  1  0
 28 27  2  0
 29 28  1  0
 30 29  2  0
 30 25  1  0
 31 23  1  0
 31 32  1  0
 33 31  2  0
M  END
$$$$
