WVF.pdb
     RDKit          3D

 33 35  0  0  1  0  0  0  0  0999 V2000
   28.0138  -19.4492   -9.6199 N   0  0  0  0  0  0  0  0  0  0  0  0
   26.9410  -20.4466   -9.4835 C   0  0  1  0  0  0  0  0  0  0  0  0
   26.2246  -20.1826   -8.1939 C   0  0  0  0  0  0  0  0  0  0  0  0
   27.0329  -19.6864   -7.0842 C   0  0  0  0  0  0  0  0  0  0  0  0
   27.3781  -18.3495   -6.9355 C   0  0  0  0  0  0  0  0  0  0  0  0
   28.1474  -18.2370   -5.8349 N   0  0  0  0  0  0  0  0  0  0  0  0
   28.3155  -19.4383   -5.2645 C   0  0  0  0  0  0  0  0  0  0  0  0
   29.0050  -19.7956   -4.1305 C   0  0  0  0  0  0  0  0  0  0  0  0
   29.0271  -21.1107   -3.7162 C   0  0  0  0  0  0  0  0  0  0  0  0
   28.3272  -22.0247   -4.4970 C   0  0  0  0  0  0  0  0  0  0  0  0
   27.6424  -21.6511   -5.6297 C   0  0  0  0  0  0  0  0  0  0  0  0
   27.6215  -20.3498   -6.0394 C   0  0  0  0  0  0  0  0  0  0  0  0
   26.0685  -20.3742  -10.6640 C   0  0  0  0  0  0  0  0  0  0  0  0
   25.5045  -19.2665  -10.9792 O   0  0  0  0  0  0  0  0  0  0  0  0
   27.1681  -21.4477  -13.9209 C   0  0  0  0  0  0  0  0  0  0  0  0
   25.7820  -22.0084  -13.7692 C   0  0  2  0  0  0  0  0  0  0  0  0
   25.0710  -21.8706  -15.0963 C   0  0  0  0  0  0  0  0  0  0  0  0
   24.9861  -21.3692  -12.6455 C   0  0  2  0  0  0  0  0  0  0  0  0
   25.8389  -21.5219  -11.4663 N   0  0  0  0  0  0  0  0  0  0  0  0
   23.6738  -21.9986  -12.4225 C   0  0  0  0  0  0  0  0  0  0  0  0
   23.6496  -23.2334  -12.0834 O   0  0  0  0  0  0  0  0  0  0  0  0
   22.4112  -21.3976  -12.5361 N   0  0  0  0  0  0  0  0  0  0  0  0
   21.1594  -22.0872  -12.2913 C   0  0  1  0  0  0  0  0  0  0  0  0
   20.3305  -21.1459  -11.4077 C   0  0  0  0  0  0  0  0  0  0  0  0
   19.0018  -21.7302  -11.0941 C   0  0  0  0  0  0  0  0  0  0  0  0
   18.8221  -22.6272  -10.0513 C   0  0  0  0  0  0  0  0  0  0  0  0
   17.5907  -23.1722   -9.7583 C   0  0  0  0  0  0  0  0  0  0  0  0
   16.4749  -22.8436  -10.4990 C   0  0  0  0  0  0  0  0  0  0  0  0
   16.6479  -21.9507  -11.5387 C   0  0  0  0  0  0  0  0  0  0  0  0
   17.8886  -21.3988  -11.8374 C   0  0  0  0  0  0  0  0  0  0  0  0
   20.3850  -22.3137  -13.5125 C   0  0  0  0  0  0  0  0  0  0  0  0
   19.5410  -23.3953  -13.7025 O   0  0  0  0  0  0  0  0  0  0  0  0
   20.4806  -21.4854  -14.4549 O   0  0  0  0  0  0  0  0  0  0  0  0
  2  1  1  6
  2  3  1  0
  3  4  1  0
  4  5  2  0
  5  6  1  0
  7  6  1  0
  8  7  2  0
  9  8  1  0
 10 11  1  0
 10  9  2  0
 11 12  2  0
 12  4  1  0
 12  7  1  0
 13  2  1  0
 14 13  2  0
 16 15  1  6
 16 17  1  0
 18 19  1  1
 18 16  1  0
 19 13  1  0
 20 18  1  0
 21 20  2  0
 22 20  1  0
 23 22  1  0
 24 25  1  0
 23 24  1  1
 25 26  2  0
 26 27  1  0
 28 27  2  0
 29 28  1  0
 30 29  2  0
 30 25  1  0
 31 23  1  0
 31 32  1  0
 33 31  2  0
M  END
$$$$
