WVF.pdb
     RDKit          3D

 33 35  0  0  1  0  0  0  0  0999 V2000
   24.5000  -19.6274  -15.7600 N   0  0  0  0  0  0  0  0  0  0  0  0
   25.0142  -19.2569  -14.4323 C   0  0  1  0  0  0  0  0  0  0  0  0
   23.8609  -18.7694  -13.6087 C   0  0  0  0  0  0  0  0  0  0  0  0
   22.9424  -17.8358  -14.2538 C   0  0  0  0  0  0  0  0  0  0  0  0
   21.6356  -18.1661  -14.5880 C   0  0  0  0  0  0  0  0  0  0  0  0
   21.0768  -17.0989  -15.1918 N   0  0  0  0  0  0  0  0  0  0  0  0
   21.9608  -16.0937  -15.2631 C   0  0  0  0  0  0  0  0  0  0  0  0
   21.8265  -14.8265  -15.7782 C   0  0  0  0  0  0  0  0  0  0  0  0
   22.8817  -13.9401  -15.7265 C   0  0  0  0  0  0  0  0  0  0  0  0
   24.0554  -14.3981  -15.1369 C   0  0  0  0  0  0  0  0  0  0  0  0
   24.1738  -15.6697  -14.6265 C   0  0  0  0  0  0  0  0  0  0  0  0
   23.1296  -16.5464  -14.6786 C   0  0  0  0  0  0  0  0  0  0  0  0
   25.7040  -20.4151  -13.8470 C   0  0  0  0  0  0  0  0  0  0  0  0
   25.2766  -21.6019  -14.0780 O   0  0  0  0  0  0  0  0  0  0  0  0
   29.5168  -20.1290  -11.7609 C   0  0  0  0  0  0  0  0  0  0  0  0
   28.9516  -21.2150  -12.6328 C   0  0  2  0  0  0  0  0  0  0  0  0
   29.2840  -20.8849  -14.0702 C   0  0  0  0  0  0  0  0  0  0  0  0
   27.4609  -21.4328  -12.4450 C   0  0  2  0  0  0  0  0  0  0  0  0
   26.8454  -20.2377  -13.0227 N   0  0  0  0  0  0  0  0  0  0  0  0
   27.0629  -21.5930  -11.0365 C   0  0  0  0  0  0  0  0  0  0  0  0
   27.4125  -22.6665  -10.4317 O   0  0  0  0  0  0  0  0  0  0  0  0
   26.3299  -20.6906  -10.2513 N   0  0  0  0  0  0  0  0  0  0  0  0
   25.9717  -20.9255   -8.8660 C   0  0  1  0  0  0  0  0  0  0  0  0
   25.9299  -19.5413   -8.2055 C   0  0  0  0  0  0  0  0  0  0  0  0
   26.9643  -19.4166   -7.1474 C   0  0  0  0  0  0  0  0  0  0  0  0
   27.5571  -18.2006   -6.8401 C   0  0  0  0  0  0  0  0  0  0  0  0
   28.5182  -18.0815   -5.8597 C   0  0  0  0  0  0  0  0  0  0  0  0
   28.9338  -19.1796   -5.1364 C   0  0  0  0  0  0  0  0  0  0  0  0
   28.3470  -20.3932   -5.4380 C   0  0  0  0  0  0  0  0  0  0  0  0
   27.3770  -20.5173   -6.4265 C   0  0  0  0  0  0  0  0  0  0  0  0
   24.6380  -21.5086   -8.7130 C   0  0  0  0  0  0  0  0  0  0  0  0
   24.1524  -22.0247   -7.5229 O   0  0  0  0  0  0  0  0  0  0  0  0
   23.8750  -21.5507   -9.7127 O   0  0  0  0  0  0  0  0  0  0  0  0
  2  1  1  6
  2  3  1  0
  3  4  1  0
  4  5  2  0
  5  6  1  0
  7  6  1  0
  8  7  2  0
  9  8  1  0
 10 11  1  0
 10  9  2  0
 11 12  2  0
 12  4  1  0
 12  7  1  0
 13  2  1  0
 14 13  2  0
 16 15  1  1
 16 17  1  0
 18 19  1  1
 18 16  1  0
 19 13  1  0
 20 18  1  0
 21 20  2  0
 22 20  1  0
 23 22  1  0
 24 25  1  0
 23 24  1  1
 25 26  2  0
 26 27  1  0
 28 27  2  0
 29 28  1  0
 30 29  2  0
 30 25  1  0
 31 23  1  0
 31 32  1  0
 33 31  2  0
M  END
$$$$
