WVF.pdb
     RDKit          3D

 33 35  0  0  1  0  0  0  0  0999 V2000
   23.1648  -22.0484  -14.6271 N   0  0  0  0  0  0  0  0  0  0  0  0
   23.7541  -20.9452  -13.8525 C   0  0  1  0  0  0  0  0  0  0  0  0
   22.6545  -20.2842  -13.0779 C   0  0  0  0  0  0  0  0  0  0  0  0
   21.7154  -19.4664  -13.8397 C   0  0  0  0  0  0  0  0  0  0  0  0
   20.3715  -19.7868  -13.9808 C   0  0  0  0  0  0  0  0  0  0  0  0
   19.7990  -18.8505  -14.7627 N   0  0  0  0  0  0  0  0  0  0  0  0
   20.7095  -17.9393  -15.1334 C   0  0  0  0  0  0  0  0  0  0  0  0
   20.5753  -16.8130  -15.9098 C   0  0  0  0  0  0  0  0  0  0  0  0
   21.6633  -15.9999  -16.1482 C   0  0  0  0  0  0  0  0  0  0  0  0
   22.8690  -16.3820  -15.5694 C   0  0  0  0  0  0  0  0  0  0  0  0
   22.9869  -17.5126  -14.7952 C   0  0  0  0  0  0  0  0  0  0  0  0
   21.9102  -18.3170  -14.5602 C   0  0  0  0  0  0  0  0  0  0  0  0
   24.8298  -21.4781  -13.0046 C   0  0  0  0  0  0  0  0  0  0  0  0
   24.6428  -22.5514  -12.3283 O   0  0  0  0  0  0  0  0  0  0  0  0
   29.4356  -20.9476  -11.2777 C   0  0  0  0  0  0  0  0  0  0  0  0
   28.3257  -20.6183  -12.2361 C   0  0  2  0  0  0  0  0  0  0  0  0
   28.2645  -19.1152  -12.3863 C   0  0  0  0  0  0  0  0  0  0  0  0
   26.9795  -21.1894  -11.8285 C   0  0  2  0  0  0  0  0  0  0  0  0
   26.0824  -20.8162  -12.9225 N   0  0  0  0  0  0  0  0  0  0  0  0
   26.4817  -20.6639  -10.5463 C   0  0  0  0  0  0  0  0  0  0  0  0
   25.7098  -19.6423  -10.5747 O   0  0  0  0  0  0  0  0  0  0  0  0
   26.7529  -21.1573   -9.2613 N   0  0  0  0  0  0  0  0  0  0  0  0
   26.2641  -20.5496   -8.0389 C   0  0  1  0  0  0  0  0  0  0  0  0
   26.6756  -21.5002   -6.9071 C   0  0  0  0  0  0  0  0  0  0  0  0
   27.7933  -20.9366   -6.1082 C   0  0  0  0  0  0  0  0  0  0  0  0
   27.5782  -20.0191   -5.0902 C   0  0  0  0  0  0  0  0  0  0  0  0
   28.6132  -19.4932   -4.3476 C   0  0  0  0  0  0  0  0  0  0  0  0
   29.9195  -19.8627   -4.5900 C   0  0  0  0  0  0  0  0  0  0  0  0
   30.1398  -20.7761   -5.6025 C   0  0  0  0  0  0  0  0  0  0  0  0
   29.0981  -21.3089   -6.3538 C   0  0  0  0  0  0  0  0  0  0  0  0
   26.8894  -19.2571   -7.7552 C   0  0  0  0  0  0  0  0  0  0  0  0
   26.2550  -18.2219   -7.0886 O   0  0  0  0  0  0  0  0  0  0  0  0
   28.0733  -19.0590   -8.1326 O   0  0  0  0  0  0  0  0  0  0  0  0
  2  1  1  1
  2  3  1  0
  3  4  1  0
  4  5  2  0
  5  6  1  0
  7  6  1  0
  8  7  2  0
  9  8  1  0
 10 11  1  0
 10  9  2  0
 11 12  2  0
 12  4  1  0
 12  7  1  0
 13  2  1  0
 14 13  2  0
 16 15  1  1
 16 17  1  0
 18 19  1  6
 18 16  1  0
 19 13  1  0
 20 18  1  0
 21 20  2  0
 22 20  1  0
 23 22  1  0
 24 25  1  0
 23 24  1  1
 25 26  2  0
 26 27  1  0
 28 27  2  0
 29 28  1  0
 30 29  2  0
 30 25  1  0
 31 23  1  0
 31 32  1  0
 33 31  2  0
M  END
$$$$
