WVF.pdb
     RDKit          3D

 33 35  0  0  1  0  0  0  0  0999 V2000
   23.9157  -17.3032  -15.4695 N   0  0  0  0  0  0  0  0  0  0  0  0
   25.1627  -17.6987  -14.7966 C   0  0  1  0  0  0  0  0  0  0  0  0
   25.9079  -16.4507  -14.4315 C   0  0  0  0  0  0  0  0  0  0  0  0
   26.9186  -15.9895  -15.3786 C   0  0  0  0  0  0  0  0  0  0  0  0
   26.9302  -14.7070  -15.9111 C   0  0  0  0  0  0  0  0  0  0  0  0
   27.9672  -14.6198  -16.7672 N   0  0  0  0  0  0  0  0  0  0  0  0
   28.6271  -15.7857  -16.8129 C   0  0  0  0  0  0  0  0  0  0  0  0
   29.7426  -16.1485  -17.5292 C   0  0  0  0  0  0  0  0  0  0  0  0
   30.2661  -17.4181  -17.4040 C   0  0  0  0  0  0  0  0  0  0  0  0
   29.6116  -18.2818  -16.5318 C   0  0  0  0  0  0  0  0  0  0  0  0
   28.4958  -17.9034  -15.8225 C   0  0  0  0  0  0  0  0  0  0  0  0
   27.9779  -16.6472  -15.9474 C   0  0  0  0  0  0  0  0  0  0  0  0
   24.8341  -18.5444  -13.6404 C   0  0  0  0  0  0  0  0  0  0  0  0
   23.7215  -18.3847  -13.0230 O   0  0  0  0  0  0  0  0  0  0  0  0
   24.8308  -22.9047  -11.8343 C   0  0  0  0  0  0  0  0  0  0  0  0
   25.2968  -21.8141  -12.7576 C   0  0  2  0  0  0  0  0  0  0  0  0
   26.6724  -22.1831  -13.2648 C   0  0  0  0  0  0  0  0  0  0  0  0
   25.2921  -20.4352  -12.1227 C   0  0  2  0  0  0  0  0  0  0  0  0
   25.7379  -19.5429  -13.1932 N   0  0  0  0  0  0  0  0  0  0  0  0
   26.1773  -20.3241  -10.9514 C   0  0  0  0  0  0  0  0  0  0  0  0
   27.4413  -20.3975  -11.1445 O   0  0  0  0  0  0  0  0  0  0  0  0
   25.7991  -20.1406   -9.6130 N   0  0  0  0  0  0  0  0  0  0  0  0
   26.6496  -20.4492   -8.4798 C   0  0  1  0  0  0  0  0  0  0  0  0
   26.6000  -19.2132   -7.5723 C   0  0  0  0  0  0  0  0  0  0  0  0
   27.4388  -19.3987   -6.3610 C   0  0  0  0  0  0  0  0  0  0  0  0
   26.9190  -19.9051   -5.1787 C   0  0  0  0  0  0  0  0  0  0  0  0
   27.6943  -20.0775   -4.0526 C   0  0  0  0  0  0  0  0  0  0  0  0
   29.0337  -19.7494   -4.0562 C   0  0  0  0  0  0  0  0  0  0  0  0
   29.5569  -19.2447   -5.2308 C   0  0  0  0  0  0  0  0  0  0  0  0
   28.7778  -19.0694   -6.3691 C   0  0  0  0  0  0  0  0  0  0  0  0
   26.1568  -21.5768   -7.6876 C   0  0  0  0  0  0  0  0  0  0  0  0
   24.8385  -22.0020   -7.6858 O   0  0  0  0  0  0  0  0  0  0  0  0
   26.9664  -22.2081   -6.9601 O   0  0  0  0  0  0  0  0  0  0  0  0
  2  1  1  1
  2  3  1  0
  3  4  1  0
  4  5  2  0
  5  6  1  0
  7  6  1  0
  8  7  2  0
  9  8  1  0
 10 11  1  0
 10  9  2  0
 11 12  2  0
 12  4  1  0
 12  7  1  0
 13  2  1  0
 14 13  2  0
 16 15  1  1
 16 17  1  0
 18 19  1  6
 18 16  1  0
 19 13  1  0
 20 18  1  0
 21 20  2  0
 22 20  1  0
 23 22  1  0
 24 25  1  0
 23 24  1  1
 25 26  2  0
 26 27  1  0
 28 27  2  0
 29 28  1  0
 30 29  2  0
 30 25  1  0
 31 23  1  0
 31 32  1  0
 33 31  2  0
M  END
$$$$
