WVF.pdb
     RDKit          3D

 33 35  0  0  1  0  0  0  0  0999 V2000
   14.7874  -18.0711    4.3300 N   0  0  0  0  0  0  0  0  0  0  0  0
   15.8920  -18.4859    5.2087 C   0  0  1  0  0  0  0  0  0  0  0  0
   17.1358  -18.5768    4.3775 C   0  0  0  0  0  0  0  0  0  0  0  0
   17.0841  -19.4567    3.2138 C   0  0  0  0  0  0  0  0  0  0  0  0
   16.5274  -20.7285    3.2484 C   0  0  0  0  0  0  0  0  0  0  0  0
   16.6692  -21.2796    2.0270 N   0  0  0  0  0  0  0  0  0  0  0  0
   17.2910  -20.4236    1.2039 C   0  0  0  0  0  0  0  0  0  0  0  0
   17.6308  -20.5526   -0.1217 C   0  0  0  0  0  0  0  0  0  0  0  0
   18.2609  -19.5184   -0.7812 C   0  0  0  0  0  0  0  0  0  0  0  0
   18.5224  -18.3706   -0.0402 C   0  0  0  0  0  0  0  0  0  0  0  0
   18.1764  -18.2575    1.2861 C   0  0  0  0  0  0  0  0  0  0  0  0
   17.5536  -19.2814    1.9382 C   0  0  0  0  0  0  0  0  0  0  0  0
   15.9999  -17.5332    6.3225 C   0  0  0  0  0  0  0  0  0  0  0  0
   15.6109  -16.3207    6.1710 O   0  0  0  0  0  0  0  0  0  0  0  0
   14.9694  -18.1670   10.2518 C   0  0  0  0  0  0  0  0  0  0  0  0
   16.3903  -17.8070    9.9198 C   0  0  2  0  0  0  0  0  0  0  0  0
   16.9922  -17.1118   11.1198 C   0  0  0  0  0  0  0  0  0  0  0  0
   16.5277  -16.9640    8.6647 C   0  0  2  0  0  0  0  0  0  0  0  0
   16.5333  -17.9388    7.5734 N   0  0  0  0  0  0  0  0  0  0  0  0
   17.7517  -16.1461    8.6368 C   0  0  0  0  0  0  0  0  0  0  0  0
   18.8656  -16.7389    8.4173 O   0  0  0  0  0  0  0  0  0  0  0  0
   17.8531  -14.7594    8.8236 N   0  0  0  0  0  0  0  0  0  0  0  0
   19.0939  -14.0158    8.7236 C   0  0  1  0  0  0  0  0  0  0  0  0
   18.7124  -12.6421    8.1569 C   0  0  0  0  0  0  0  0  0  0  0  0
   18.5559  -12.6914    6.6810 C   0  0  0  0  0  0  0  0  0  0  0  0
   17.3551  -13.0421    6.0814 C   0  0  0  0  0  0  0  0  0  0  0  0
   17.2068  -13.0900    4.7122 C   0  0  0  0  0  0  0  0  0  0  0  0
   18.2589  -12.7876    3.8736 C   0  0  0  0  0  0  0  0  0  0  0  0
   19.4572  -12.4376    4.4650 C   0  0  0  0  0  0  0  0  0  0  0  0
   19.6106  -12.3881    5.8460 C   0  0  0  0  0  0  0  0  0  0  0  0
   19.7226  -13.7783   10.0237 C   0  0  0  0  0  0  0  0  0  0  0  0
   21.0472  -13.4067   10.1849 O   0  0  0  0  0  0  0  0  0  0  0  0
   19.0321  -13.9153   11.0666 O   0  0  0  0  0  0  0  0  0  0  0  0
  2  1  1  6
  2  3  1  0
  3  4  1  0
  4  5  2  0
  5  6  1  0
  7  6  1  0
  8  7  2  0
  9  8  1  0
 10 11  1  0
 10  9  2  0
 11 12  2  0
 12  4  1  0
 12  7  1  0
 13  2  1  0
 14 13  2  0
 16 15  1  1
 16 17  1  0
 18 19  1  6
 18 16  1  0
 19 13  1  0
 20 18  1  0
 21 20  2  0
 22 20  1  0
 23 22  1  0
 24 25  1  0
 23 24  1  1
 25 26  2  0
 26 27  1  0
 28 27  2  0
 29 28  1  0
 30 29  2  0
 30 25  1  0
 31 23  1  0
 31 32  1  0
 33 31  2  0
M  END
$$$$
