WYL.pdb
     RDKit          3D

 35 37  0  0  1  0  0  0  0  0999 V2000
   28.4403  -21.2203  -16.9954 N   0  0  0  0  0  0  0  0  0  0  0  0
   27.6696  -20.2019  -16.3479 C   0  0  1  0  0  0  0  0  0  0  0  0
   26.7264  -19.4863  -17.2584 C   0  0  0  0  0  0  0  0  0  0  0  0
   27.3696  -18.4677  -18.1014 C   0  0  0  0  0  0  0  0  0  0  0  0
   27.6436  -18.5913  -19.4485 C   0  0  0  0  0  0  0  0  0  0  0  0
   28.2404  -17.4543  -19.8889 N   0  0  0  0  0  0  0  0  0  0  0  0
   28.3663  -16.5873  -18.8710 C   0  0  0  0  0  0  0  0  0  0  0  0
   28.8935  -15.3160  -18.7887 C   0  0  0  0  0  0  0  0  0  0  0  0
   28.8634  -14.6921  -17.5605 C   0  0  0  0  0  0  0  0  0  0  0  0
   28.3223  -15.3196  -16.4458 C   0  0  0  0  0  0  0  0  0  0  0  0
   27.8046  -16.5746  -16.5376 C   0  0  0  0  0  0  0  0  0  0  0  0
   27.8212  -17.2209  -17.7506 C   0  0  0  0  0  0  0  0  0  0  0  0
   26.8344  -20.8652  -15.2795 C   0  0  0  0  0  0  0  0  0  0  0  0
   26.3381  -21.9862  -15.5423 O   0  0  0  0  0  0  0  0  0  0  0  0
   22.4906  -22.0649   -7.6034 O   0  0  0  0  0  0  0  0  0  0  0  0
   23.3759  -21.6052   -8.5936 C   0  0  0  0  0  0  0  0  0  0  0  0
   24.5954  -22.2131   -8.7924 C   0  0  0  0  0  0  0  0  0  0  0  0
   25.4661  -21.7601   -9.7673 C   0  0  0  0  0  0  0  0  0  0  0  0
   25.1576  -20.6873  -10.5798 C   0  0  0  0  0  0  0  0  0  0  0  0
   26.0927  -20.2052  -11.6243 C   0  0  0  0  0  0  0  0  0  0  0  0
   25.7405  -20.6903  -12.9848 C   0  0  2  0  0  0  0  0  0  0  0  0
   26.6107  -20.2614  -14.0285 N   0  0  0  0  0  0  0  0  0  0  0  0
   24.2968  -20.4403  -13.3549 C   0  0  0  0  0  0  0  0  0  0  0  0
   23.8316  -19.2999  -13.5783 O   0  0  0  0  0  0  0  0  0  0  0  0
   23.9351  -20.0858  -10.3729 C   0  0  0  0  0  0  0  0  0  0  0  0
   23.0533  -20.5326   -9.3969 C   0  0  0  0  0  0  0  0  0  0  0  0
   21.5624  -19.9628  -16.5423 C   0  0  0  0  0  0  0  0  0  0  0  0
   22.2184  -21.3314  -16.2568 C   0  0  2  0  0  0  0  0  0  0  0  0
   22.0196  -22.2091  -17.4856 C   0  0  0  0  0  0  0  0  0  0  0  0
   21.6155  -21.9698  -15.0614 C   0  0  0  0  0  0  0  0  0  0  0  0
   21.9894  -21.2421  -13.8032 C   0  0  2  0  0  0  0  0  0  0  0  0
   23.3939  -21.5326  -13.4641 N   0  0  0  0  0  0  0  0  0  0  0  0
   21.1769  -21.7049  -12.6557 C   0  0  0  0  0  0  0  0  0  0  0  0
   19.9598  -21.4250  -12.5125 O   0  0  0  0  0  0  0  0  0  0  0  0
   21.7969  -22.4947  -11.6811 O   0  0  0  0  0  0  0  0  0  0  0  0
  2  1  1  6
  3  2  1  0
  4  5  2  0
  4  3  1  0
  6  5  1  0
  7 12  2  0
  7  6  1  0
  8  7  1  0
  9 10  1  0
  9  8  2  0
 10 11  2  0
 11 12  1  0
 12  4  1  0
 13  2  1  0
 14 13  2  0
 16 17  2  0
 16 15  1  0
 18 17  1  0
 19 18  2  0
 21 20  1  1
 20 19  1  0
 21 22  1  0
 22 13  1  0
 23 24  2  0
 23 21  1  0
 25 19  1  0
 25 26  2  0
 26 16  1  0
 28 27  1  6
 28 30  1  0
 29 28  1  0
 31 30  1  6
 31 32  1  0
 32 23  1  0
 33 35  1  0
 33 31  1  0
 34 33  2  0
M  END
$$$$
