WYL.pdb
     RDKit          3D

 35 37  0  0  1  0  0  0  0  0999 V2000
   31.1294  -30.7512  -19.2515 N   0  0  0  0  0  0  0  0  0  0  0  0
   30.3577  -31.9502  -19.3817 C   0  0  1  0  0  0  0  0  0  0  0  0
   30.0751  -32.3370  -20.7963 C   0  0  0  0  0  0  0  0  0  0  0  0
   29.3342  -33.5998  -20.9321 C   0  0  0  0  0  0  0  0  0  0  0  0
   28.0867  -33.8638  -20.4036 C   0  0  0  0  0  0  0  0  0  0  0  0
   27.7217  -35.1295  -20.7317 N   0  0  0  0  0  0  0  0  0  0  0  0
   28.6924  -35.7048  -21.4600 C   0  0  0  0  0  0  0  0  0  0  0  0
   28.8144  -36.9542  -22.0300 C   0  0  0  0  0  0  0  0  0  0  0  0
   29.9703  -37.2252  -22.7294 C   0  0  0  0  0  0  0  0  0  0  0  0
   30.9760  -36.2758  -22.8563 C   0  0  0  0  0  0  0  0  0  0  0  0
   30.8458  -35.0455  -22.2898 C   0  0  0  0  0  0  0  0  0  0  0  0
   29.7032  -34.7476  -21.5863 C   0  0  0  0  0  0  0  0  0  0  0  0
   31.1503  -33.0777  -18.7655 C   0  0  0  0  0  0  0  0  0  0  0  0
   32.3042  -33.2870  -19.2089 O   0  0  0  0  0  0  0  0  0  0  0  0
   26.6497  -32.3954  -13.3695 O   0  0  0  0  0  0  0  0  0  0  0  0
   27.7953  -33.0008  -13.9143 C   0  0  0  0  0  0  0  0  0  0  0  0
   28.0066  -34.3561  -13.7936 C   0  0  0  0  0  0  0  0  0  0  0  0
   29.1343  -34.9513  -14.3301 C   0  0  0  0  0  0  0  0  0  0  0  0
   30.0928  -34.2223  -15.0055 C   0  0  0  0  0  0  0  0  0  0  0  0
   31.2996  -34.8637  -15.5802 C   0  0  0  0  0  0  0  0  0  0  0  0
   31.2481  -34.9703  -17.0621 C   0  0  2  0  0  0  0  0  0  0  0  0
   30.6283  -33.8749  -17.7303 N   0  0  0  0  0  0  0  0  0  0  0  0
   30.6817  -36.2840  -17.5490 C   0  0  0  0  0  0  0  0  0  0  0  0
   29.4873  -36.4328  -17.8929 O   0  0  0  0  0  0  0  0  0  0  0  0
   29.8722  -32.8670  -15.1208 C   0  0  0  0  0  0  0  0  0  0  0  0
   28.7433  -32.2592  -14.5859 C   0  0  0  0  0  0  0  0  0  0  0  0
   29.8952  -39.8263  -21.5959 C   0  0  0  0  0  0  0  0  0  0  0  0
   30.1998  -39.9299  -20.0855 C   0  0  2  0  0  0  0  0  0  0  0  0
   28.9710  -40.5145  -19.4011 C   0  0  0  0  0  0  0  0  0  0  0  0
   30.5251  -38.5991  -19.5171 C   0  0  0  0  0  0  0  0  0  0  0  0
   30.9168  -38.7005  -18.0718 C   0  0  2  0  0  0  0  0  0  0  0  0
   31.5195  -37.4290  -17.6336 N   0  0  0  0  0  0  0  0  0  0  0  0
   31.9462  -39.7445  -17.8682 C   0  0  0  0  0  0  0  0  0  0  0  0
   31.7462  -40.9655  -18.0899 O   0  0  0  0  0  0  0  0  0  0  0  0
   33.2065  -39.3502  -17.4053 O   0  0  0  0  0  0  0  0  0  0  0  0
  2  1  1  6
  3  2  1  0
  4  5  2  0
  4  3  1  0
  6  5  1  0
  7 12  2  0
  7  6  1  0
  8  7  1  0
  9 10  1  0
  9  8  2  0
 10 11  2  0
 11 12  1  0
 12  4  1  0
 13  2  1  0
 14 13  2  0
 16 17  2  0
 16 15  1  0
 18 17  1  0
 19 18  2  0
 21 20  1  1
 20 19  1  0
 21 22  1  0
 22 13  1  0
 23 24  2  0
 23 21  1  0
 25 19  1  0
 25 26  2  0
 26 16  1  0
 28 27  1  6
 28 30  1  0
 29 28  1  0
 31 30  1  6
 31 32  1  0
 32 23  1  0
 33 35  1  0
 33 31  1  0
 34 33  2  0
M  END
$$$$
