WYL.pdb
     RDKit          3D

 35 37  0  0  1  0  0  0  0  0999 V2000
   25.6641  -19.2305  -11.6322 N   0  0  0  0  0  0  0  0  0  0  0  0
   26.1313  -20.5838  -11.6597 C   0  0  1  0  0  0  0  0  0  0  0  0
   25.8163  -21.3577  -10.4218 C   0  0  0  0  0  0  0  0  0  0  0  0
   26.3528  -20.7577   -9.1913 C   0  0  0  0  0  0  0  0  0  0  0  0
   25.6124  -20.1247   -8.2134 C   0  0  0  0  0  0  0  0  0  0  0  0
   26.4446  -19.6983   -7.2292 N   0  0  0  0  0  0  0  0  0  0  0  0
   27.7098  -20.0324   -7.5317 C   0  0  0  0  0  0  0  0  0  0  0  0
   28.9078  -19.8358   -6.8783 C   0  0  0  0  0  0  0  0  0  0  0  0
   30.0490  -20.3179   -7.4815 C   0  0  0  0  0  0  0  0  0  0  0  0
   29.9958  -20.9777   -8.7025 C   0  0  0  0  0  0  0  0  0  0  0  0
   28.8083  -21.1665   -9.3393 C   0  0  0  0  0  0  0  0  0  0  0  0
   27.6536  -20.6961   -8.7606 C   0  0  0  0  0  0  0  0  0  0  0  0
   25.4440  -21.2855  -12.8062 C   0  0  0  0  0  0  0  0  0  0  0  0
   24.2946  -20.8959  -13.1208 O   0  0  0  0  0  0  0  0  0  0  0  0
   24.5133  -26.3983  -20.0401 O   0  0  0  0  0  0  0  0  0  0  0  0
   25.0272  -25.7630  -18.8964 C   0  0  0  0  0  0  0  0  0  0  0  0
   25.3059  -26.4777  -17.7529 C   0  0  0  0  0  0  0  0  0  0  0  0
   25.8118  -25.8517  -16.6277 C   0  0  0  0  0  0  0  0  0  0  0  0
   26.0591  -24.4937  -16.5974 C   0  0  0  0  0  0  0  0  0  0  0  0
   26.6024  -23.8263  -15.3901 C   0  0  0  0  0  0  0  0  0  0  0  0
   25.5833  -23.0226  -14.6652 C   0  0  2  0  0  0  0  0  0  0  0  0
   26.0566  -22.3405  -13.5070 N   0  0  0  0  0  0  0  0  0  0  0  0
   24.3220  -23.7945  -14.3538 C   0  0  0  0  0  0  0  0  0  0  0  0
   24.2431  -24.6415  -13.4354 O   0  0  0  0  0  0  0  0  0  0  0  0
   25.7769  -23.7875  -17.7465 C   0  0  0  0  0  0  0  0  0  0  0  0
   25.2687  -24.4061  -18.8818 C   0  0  0  0  0  0  0  0  0  0  0  0
   18.9645  -24.5543  -14.9167 C   0  0  0  0  0  0  0  0  0  0  0  0
   19.6898  -23.9353  -13.7020 C   0  0  2  0  0  0  0  0  0  0  0  0
   18.7493  -22.9206  -13.0648 C   0  0  0  0  0  0  0  0  0  0  0  0
   20.9545  -23.2804  -14.1160 C   0  0  0  0  0  0  0  0  0  0  0  0
   21.9113  -24.2668  -14.7194 C   0  0  2  0  0  0  0  0  0  0  0  0
   23.1471  -23.5722  -15.1222 N   0  0  0  0  0  0  0  0  0  0  0  0
   21.3514  -24.8727  -15.9484 C   0  0  0  0  0  0  0  0  0  0  0  0
   20.9087  -24.1980  -16.9122 O   0  0  0  0  0  0  0  0  0  0  0  0
   21.3138  -26.2684  -16.0406 O   0  0  0  0  0  0  0  0  0  0  0  0
  2  1  1  1
  3  2  1  0
  4  5  2  0
  4  3  1  0
  6  5  1  0
  7 12  2  0
  7  6  1  0
  8  7  1  0
  9 10  1  0
  9  8  2  0
 10 11  2  0
 11 12  1  0
 12  4  1  0
 13  2  1  0
 14 13  2  0
 16 17  2  0
 16 15  1  0
 18 17  1  0
 19 18  2  0
 21 20  1  1
 20 19  1  0
 21 22  1  0
 22 13  1  0
 23 24  2  0
 23 21  1  0
 25 19  1  0
 25 26  2  0
 26 16  1  0
 28 27  1  6
 28 30  1  0
 29 28  1  0
 31 30  1  6
 31 32  1  0
 32 23  1  0
 33 35  1  0
 33 31  1  0
 34 33  2  0
M  END
$$$$
