WYL.pdb
     RDKit          3D

 35 37  0  0  1  0  0  0  0  0999 V2000
   28.5461  -20.0710  -10.0498 N   0  0  0  0  0  0  0  0  0  0  0  0
   27.3421  -20.7946   -9.7722 C   0  0  1  0  0  0  0  0  0  0  0  0
   26.4682  -20.1453   -8.7498 C   0  0  0  0  0  0  0  0  0  0  0  0
   27.2019  -19.6026   -7.5970 C   0  0  0  0  0  0  0  0  0  0  0  0
   27.5397  -18.2779   -7.4068 C   0  0  0  0  0  0  0  0  0  0  0  0
   28.2118  -18.1525   -6.2339 N   0  0  0  0  0  0  0  0  0  0  0  0
   28.3254  -19.3556   -5.6480 C   0  0  0  0  0  0  0  0  0  0  0  0
   28.9071  -19.7667   -4.4676 C   0  0  0  0  0  0  0  0  0  0  0  0
   28.8426  -21.1080   -4.1588 C   0  0  0  0  0  0  0  0  0  0  0  0
   28.2150  -22.0135   -5.0046 C   0  0  0  0  0  0  0  0  0  0  0  0
   27.6440  -21.5976   -6.1674 C   0  0  0  0  0  0  0  0  0  0  0  0
   27.6932  -20.2649   -6.5008 C   0  0  0  0  0  0  0  0  0  0  0  0
   26.5441  -20.8698  -11.0516 C   0  0  0  0  0  0  0  0  0  0  0  0
   26.6575  -19.9214  -11.8638 O   0  0  0  0  0  0  0  0  0  0  0  0
   22.4264  -24.5529  -17.9765 O   0  0  0  0  0  0  0  0  0  0  0  0
   23.0637  -24.3351  -16.7427 C   0  0  0  0  0  0  0  0  0  0  0  0
   22.4486  -24.6717  -15.5576 C   0  0  0  0  0  0  0  0  0  0  0  0
   23.0765  -24.4572  -14.3437 C   0  0  0  0  0  0  0  0  0  0  0  0
   24.3374  -23.9005  -14.2627 C   0  0  0  0  0  0  0  0  0  0  0  0
   25.0077  -23.6731  -12.9601 C   0  0  0  0  0  0  0  0  0  0  0  0
   25.0098  -22.2434  -12.5523 C   0  0  2  0  0  0  0  0  0  0  0  0
   25.6989  -21.9574  -11.3382 N   0  0  0  0  0  0  0  0  0  0  0  0
   23.6333  -21.6200  -12.5461 C   0  0  0  0  0  0  0  0  0  0  0  0
   22.8927  -21.5981  -11.5371 O   0  0  0  0  0  0  0  0  0  0  0  0
   24.9443  -23.5671  -15.4541 C   0  0  0  0  0  0  0  0  0  0  0  0
   24.3229  -23.7783  -16.6785 C   0  0  0  0  0  0  0  0  0  0  0  0
   21.2812  -17.6457  -12.7597 C   0  0  0  0  0  0  0  0  0  0  0  0
   22.1833  -18.0676  -13.9400 C   0  0  2  0  0  0  0  0  0  0  0  0
   22.2331  -16.9081  -14.9265 C   0  0  0  0  0  0  0  0  0  0  0  0
   21.6575  -19.2871  -14.6004 C   0  0  0  0  0  0  0  0  0  0  0  0
   21.7497  -20.4829  -13.6982 C   0  0  2  0  0  0  0  0  0  0  0  0
   23.1221  -21.0191  -13.7284 N   0  0  0  0  0  0  0  0  0  0  0  0
   20.8634  -21.5736  -14.1629 C   0  0  0  0  0  0  0  0  0  0  0  0
   21.2762  -22.5779  -14.7961 O   0  0  0  0  0  0  0  0  0  0  0  0
   19.4957  -21.4804  -13.8818 O   0  0  0  0  0  0  0  0  0  0  0  0
  2  1  1  6
  3  2  1  0
  4  5  2  0
  4  3  1  0
  6  5  1  0
  7 12  2  0
  7  6  1  0
  8  7  1  0
  9 10  1  0
  9  8  2  0
 10 11  2  0
 11 12  1  0
 12  4  1  0
 13  2  1  0
 14 13  2  0
 16 17  2  0
 16 15  1  0
 18 17  1  0
 19 18  2  0
 21 20  1  1
 20 19  1  0
 21 22  1  0
 22 13  1  0
 23 24  2  0
 23 21  1  0
 25 19  1  0
 25 26  2  0
 26 16  1  0
 28 27  1  1
 28 30  1  0
 29 28  1  0
 31 30  1  6
 31 32  1  0
 32 23  1  0
 33 35  1  0
 33 31  1  0
 34 33  2  0
M  END
$$$$
