WYL.pdb
     RDKit          3D

 35 37  0  0  1  0  0  0  0  0999 V2000
   23.5309  -19.0932  -15.2634 N   0  0  0  0  0  0  0  0  0  0  0  0
   23.4375  -19.7629  -14.0012 C   0  0  1  0  0  0  0  0  0  0  0  0
   22.3063  -20.7342  -13.9141 C   0  0  0  0  0  0  0  0  0  0  0  0
   21.0875  -20.1768  -13.3094 C   0  0  0  0  0  0  0  0  0  0  0  0
   20.0401  -19.5956  -13.9951 C   0  0  0  0  0  0  0  0  0  0  0  0
   19.0925  -19.1971  -13.1084 N   0  0  0  0  0  0  0  0  0  0  0  0
   19.4864  -19.4993  -11.8605 C   0  0  0  0  0  0  0  0  0  0  0  0
   18.9009  -19.3114  -10.6266 C   0  0  0  0  0  0  0  0  0  0  0  0
   19.5931  -19.7511   -9.5193 C   0  0  0  0  0  0  0  0  0  0  0  0
   20.8350  -20.3612   -9.6404 C   0  0  0  0  0  0  0  0  0  0  0  0
   21.4043  -20.5420  -10.8629 C   0  0  0  0  0  0  0  0  0  0  0  0
   20.7361  -20.1131  -11.9850 C   0  0  0  0  0  0  0  0  0  0  0  0
   24.7109  -20.5486  -13.8010 C   0  0  0  0  0  0  0  0  0  0  0  0
   24.8961  -21.5509  -14.5312 O   0  0  0  0  0  0  0  0  0  0  0  0
   28.4400  -18.0800  -18.1821 O   0  0  0  0  0  0  0  0  0  0  0  0
   28.3588  -18.5405  -16.8566 C   0  0  0  0  0  0  0  0  0  0  0  0
   28.8134  -19.7939  -16.5121 C   0  0  0  0  0  0  0  0  0  0  0  0
   28.7333  -20.2464  -15.2073 C   0  0  0  0  0  0  0  0  0  0  0  0
   28.1987  -19.4711  -14.1976 C   0  0  0  0  0  0  0  0  0  0  0  0
   28.1154  -19.9589  -12.8001 C   0  0  0  0  0  0  0  0  0  0  0  0
   26.9176  -20.8039  -12.5527 C   0  0  2  0  0  0  0  0  0  0  0  0
   25.6659  -20.1836  -12.8345 N   0  0  0  0  0  0  0  0  0  0  0  0
   26.9041  -21.4374  -11.1808 C   0  0  0  0  0  0  0  0  0  0  0  0
   26.9126  -22.6752  -10.9946 O   0  0  0  0  0  0  0  0  0  0  0  0
   27.7465  -18.2187  -14.5526 C   0  0  0  0  0  0  0  0  0  0  0  0
   27.8223  -17.7544  -15.8597 C   0  0  0  0  0  0  0  0  0  0  0  0
   27.7701  -18.1999   -8.0236 C   0  0  0  0  0  0  0  0  0  0  0  0
   27.1122  -19.3479   -7.2273 C   0  0  2  0  0  0  0  0  0  0  0  0
   27.4545  -19.1509   -5.7562 C   0  0  0  0  0  0  0  0  0  0  0  0
   27.5973  -20.6676   -7.6996 C   0  0  0  0  0  0  0  0  0  0  0  0
   26.6663  -21.2634   -8.7148 C   0  0  2  0  0  0  0  0  0  0  0  0
   26.8810  -20.6159  -10.0211 N   0  0  0  0  0  0  0  0  0  0  0  0
   25.2520  -21.0182   -8.3529 C   0  0  0  0  0  0  0  0  0  0  0  0
   24.4948  -20.2529   -9.0018 O   0  0  0  0  0  0  0  0  0  0  0  0
   24.7328  -21.6729   -7.2305 O   0  0  0  0  0  0  0  0  0  0  0  0
  2  1  1  6
  3  2  1  0
  4  5  2  0
  4  3  1  0
  6  5  1  0
  7 12  2  0
  7  6  1  0
  8  7  1  0
  9 10  1  0
  9  8  2  0
 10 11  2  0
 11 12  1  0
 12  4  1  0
 13  2  1  0
 14 13  2  0
 16 17  2  0
 16 15  1  0
 18 17  1  0
 19 18  2  0
 21 20  1  1
 20 19  1  0
 21 22  1  0
 22 13  1  0
 23 24  2  0
 23 21  1  0
 25 19  1  0
 25 26  2  0
 26 16  1  0
 28 27  1  6
 28 30  1  0
 29 28  1  0
 31 30  1  1
 31 32  1  0
 32 23  1  0
 33 35  1  0
 33 31  1  0
 34 33  2  0
M  END
$$$$
