WYL.pdb
     RDKit          3D

 35 37  0  0  1  0  0  0  0  0999 V2000
   15.0606  -12.8355  -18.7226 N   0  0  0  0  0  0  0  0  0  0  0  0
   15.8659  -11.8812  -19.4234 C   0  0  1  0  0  0  0  0  0  0  0  0
   15.3586  -10.4794  -19.3334 C   0  0  0  0  0  0  0  0  0  0  0  0
   14.1280  -10.2406  -20.1018 C   0  0  0  0  0  0  0  0  0  0  0  0
   12.8482  -10.5584  -19.6942 C   0  0  0  0  0  0  0  0  0  0  0  0
   11.9680  -10.1924  -20.6608 N   0  0  0  0  0  0  0  0  0  0  0  0
   12.6317   -9.6434  -21.6912 C   0  0  0  0  0  0  0  0  0  0  0  0
   12.2144   -9.1193  -22.8962 C   0  0  0  0  0  0  0  0  0  0  0  0
   13.1809   -8.6253  -23.7450 C   0  0  0  0  0  0  0  0  0  0  0  0
   14.5262   -8.6535  -23.4005 C   0  0  0  0  0  0  0  0  0  0  0  0
   14.9277   -9.1730  -22.2088 C   0  0  0  0  0  0  0  0  0  0  0  0
   13.9850   -9.6730  -21.3423 C   0  0  0  0  0  0  0  0  0  0  0  0
   17.2416  -11.8939  -18.8017 C   0  0  0  0  0  0  0  0  0  0  0  0
   17.3181  -12.0761  -17.5636 O   0  0  0  0  0  0  0  0  0  0  0  0
   18.3811  -18.0663  -18.6341 O   0  0  0  0  0  0  0  0  0  0  0  0
   18.9126  -16.7955  -18.9136 C   0  0  0  0  0  0  0  0  0  0  0  0
   19.9171  -16.2606  -18.1381 C   0  0  0  0  0  0  0  0  0  0  0  0
   20.4398  -15.0098  -18.4138 C   0  0  0  0  0  0  0  0  0  0  0  0
   19.9841  -14.2450  -19.4691 C   0  0  0  0  0  0  0  0  0  0  0  0
   20.5474  -12.9053  -19.7623 C   0  0  0  0  0  0  0  0  0  0  0  0
   19.7644  -11.8012  -19.1474 C   0  0  2  0  0  0  0  0  0  0  0  0
   18.4063  -11.7095  -19.5691 N   0  0  0  0  0  0  0  0  0  0  0  0
   20.4469  -10.4564  -19.2443 C   0  0  0  0  0  0  0  0  0  0  0  0
   21.6358  -10.2624  -18.9040 O   0  0  0  0  0  0  0  0  0  0  0  0
   18.9789  -14.7889  -20.2388 C   0  0  0  0  0  0  0  0  0  0  0  0
   18.4469  -16.0440  -19.9709 C   0  0  0  0  0  0  0  0  0  0  0  0
   21.2429   -7.8554  -22.7146 C   0  0  0  0  0  0  0  0  0  0  0  0
   19.7896   -7.7495  -22.2031 C   0  0  2  0  0  0  0  0  0  0  0  0
   19.0140   -6.8756  -23.1802 C   0  0  0  0  0  0  0  0  0  0  0  0
   19.7478   -7.1654  -20.8404 C   0  0  0  0  0  0  0  0  0  0  0  0
   20.4433   -8.0464  -19.8441 C   0  0  2  0  0  0  0  0  0  0  0  0
   19.7325   -9.3334  -19.7429 N   0  0  0  0  0  0  0  0  0  0  0  0
   20.4193   -7.4468  -18.4909 C   0  0  0  0  0  0  0  0  0  0  0  0
   20.0041   -8.0550  -17.4722 O   0  0  0  0  0  0  0  0  0  0  0  0
   20.8833   -6.1354  -18.3396 O   0  0  0  0  0  0  0  0  0  0  0  0
  2  1  1  1
  3  2  1  0
  4  5  2  0
  4  3  1  0
  6  5  1  0
  7 12  2  0
  7  6  1  0
  8  7  1  0
  9 10  1  0
  9  8  2  0
 10 11  2  0
 11 12  1  0
 12  4  1  0
 13  2  1  0
 14 13  2  0
 16 17  2  0
 16 15  1  0
 18 17  1  0
 19 18  2  0
 21 20  1  6
 20 19  1  0
 21 22  1  0
 22 13  1  0
 23 24  2  0
 23 21  1  0
 25 19  1  0
 25 26  2  0
 26 16  1  0
 28 27  1  6
 28 30  1  0
 29 28  1  0
 31 30  1  6
 31 32  1  0
 32 23  1  0
 33 35  1  0
 33 31  1  0
 34 33  2  0
M  END
$$$$
