WYL.pdb
     RDKit          3D

 35 37  0  0  1  0  0  0  0  0999 V2000
   21.0790  -24.5184  -16.0468 N   0  0  0  0  0  0  0  0  0  0  0  0
   20.0190  -23.7827  -15.4259 C   0  0  1  0  0  0  0  0  0  0  0  0
   18.7598  -23.7428  -16.2280 C   0  0  0  0  0  0  0  0  0  0  0  0
   18.9192  -23.1357  -17.5576 C   0  0  0  0  0  0  0  0  0  0  0  0
   19.0821  -23.8225  -18.7437 C   0  0  0  0  0  0  0  0  0  0  0  0
   19.1975  -22.9328  -19.7625 N   0  0  0  0  0  0  0  0  0  0  0  0
   19.1152  -21.6819  -19.2809 C   0  0  0  0  0  0  0  0  0  0  0  0
   19.1716  -20.4442  -19.8857 C   0  0  0  0  0  0  0  0  0  0  0  0
   19.0498  -19.3344  -19.0782 C   0  0  0  0  0  0  0  0  0  0  0  0
   18.8765  -19.4566  -17.7055 C   0  0  0  0  0  0  0  0  0  0  0  0
   18.8222  -20.6828  -17.1183 C   0  0  0  0  0  0  0  0  0  0  0  0
   18.9408  -21.8075  -17.8997 C   0  0  0  0  0  0  0  0  0  0  0  0
   19.6892  -24.4635  -14.1194 C   0  0  0  0  0  0  0  0  0  0  0  0
   20.1995  -25.5885  -13.9054 O   0  0  0  0  0  0  0  0  0  0  0  0
   17.7410  -25.2081   -5.5153 O   0  0  0  0  0  0  0  0  0  0  0  0
   17.9673  -24.7242   -6.8154 C   0  0  0  0  0  0  0  0  0  0  0  0
   17.0132  -23.9781   -7.4706 C   0  0  0  0  0  0  0  0  0  0  0  0
   17.2367  -23.5021   -8.7501 C   0  0  0  0  0  0  0  0  0  0  0  0
   18.4153  -23.7498   -9.4253 C   0  0  0  0  0  0  0  0  0  0  0  0
   18.6518  -23.2370  -10.7961 C   0  0  0  0  0  0  0  0  0  0  0  0
   18.5775  -24.3004  -11.8324 C   0  0  2  0  0  0  0  0  0  0  0  0
   18.8416  -23.8712  -13.1654 N   0  0  0  0  0  0  0  0  0  0  0  0
   17.3011  -25.1071  -11.7728 C   0  0  0  0  0  0  0  0  0  0  0  0
   16.8719  -25.6389  -10.7240 O   0  0  0  0  0  0  0  0  0  0  0  0
   19.3635  -24.4973   -8.7612 C   0  0  0  0  0  0  0  0  0  0  0  0
   19.1494  -24.9801   -7.4763 C   0  0  0  0  0  0  0  0  0  0  0  0
   14.1934  -29.2269  -11.2229 C   0  0  0  0  0  0  0  0  0  0  0  0
   14.2129  -28.1880  -12.3654 C   0  0  2  0  0  0  0  0  0  0  0  0
   14.0945  -28.9422  -13.6834 C   0  0  0  0  0  0  0  0  0  0  0  0
   15.4629  -27.3902  -12.3359 C   0  0  0  0  0  0  0  0  0  0  0  0
   15.2320  -25.9901  -12.8249 C   0  0  2  0  0  0  0  0  0  0  0  0
   16.5236  -25.2913  -12.9482 N   0  0  0  0  0  0  0  0  0  0  0  0
   14.4250  -25.2119  -11.8582 C   0  0  0  0  0  0  0  0  0  0  0  0
   13.3543  -24.6282  -12.1630 O   0  0  0  0  0  0  0  0  0  0  0  0
   14.8788  -25.1226  -10.5376 O   0  0  0  0  0  0  0  0  0  0  0  0
  2  1  1  6
  3  2  1  0
  4  5  2  0
  4  3  1  0
  6  5  1  0
  7 12  2  0
  7  6  1  0
  8  7  1  0
  9 10  1  0
  9  8  2  0
 10 11  2  0
 11 12  1  0
 12  4  1  0
 13  2  1  0
 14 13  2  0
 16 17  2  0
 16 15  1  0
 18 17  1  0
 19 18  2  0
 21 20  1  1
 20 19  1  0
 21 22  1  0
 22 13  1  0
 23 24  2  0
 23 21  1  0
 25 19  1  0
 25 26  2  0
 26 16  1  0
 28 27  1  1
 28 30  1  0
 29 28  1  0
 31 30  1  1
 31 32  1  0
 32 23  1  0
 33 35  1  0
 33 31  1  0
 34 33  2  0
M  END
$$$$
