WYL.pdb
     RDKit          3D

 35 37  0  0  1  0  0  0  0  0999 V2000
   25.4802  -19.2837  -15.1268 N   0  0  0  0  0  0  0  0  0  0  0  0
   26.3845  -18.8966  -14.0863 C   0  0  1  0  0  0  0  0  0  0  0  0
   26.8050  -17.4650  -14.1520 C   0  0  0  0  0  0  0  0  0  0  0  0
   27.4926  -17.1026  -15.4001 C   0  0  0  0  0  0  0  0  0  0  0  0
   27.2085  -16.0059  -16.1884 C   0  0  0  0  0  0  0  0  0  0  0  0
   28.0452  -15.9956  -17.2574 N   0  0  0  0  0  0  0  0  0  0  0  0
   28.8707  -17.0531  -17.1945 C   0  0  0  0  0  0  0  0  0  0  0  0
   29.8859  -17.4937  -18.0167 C   0  0  0  0  0  0  0  0  0  0  0  0
   30.5487  -18.6447  -17.6499 C   0  0  0  0  0  0  0  0  0  0  0  0
   30.2076  -19.3364  -16.4947 C   0  0  0  0  0  0  0  0  0  0  0  0
   29.2039  -18.8931  -15.6900 C   0  0  0  0  0  0  0  0  0  0  0  0
   28.5256  -17.7475  -16.0315 C   0  0  0  0  0  0  0  0  0  0  0  0
   25.6778  -19.0892  -12.7661 C   0  0  0  0  0  0  0  0  0  0  0  0
   24.7293  -18.3150  -12.4963 O   0  0  0  0  0  0  0  0  0  0  0  0
   19.8452  -20.1699  -13.6705 O   0  0  0  0  0  0  0  0  0  0  0  0
   20.9845  -20.4923  -12.9131 C   0  0  0  0  0  0  0  0  0  0  0  0
   21.0773  -20.1381  -11.5856 C   0  0  0  0  0  0  0  0  0  0  0  0
   22.1989  -20.4559  -10.8408 C   0  0  0  0  0  0  0  0  0  0  0  0
   23.2688  -21.1366  -11.3871 C   0  0  0  0  0  0  0  0  0  0  0  0
   24.4688  -21.4765  -10.5856 C   0  0  0  0  0  0  0  0  0  0  0  0
   25.4904  -20.3966  -10.5870 C   0  0  2  0  0  0  0  0  0  0  0  0
   26.0571  -20.0960  -11.8595 N   0  0  0  0  0  0  0  0  0  0  0  0
   26.5736  -20.5950   -9.5521 C   0  0  0  0  0  0  0  0  0  0  0  0
   27.6116  -21.2624   -9.7622 O   0  0  0  0  0  0  0  0  0  0  0  0
   23.1662  -21.4864  -12.7160 C   0  0  0  0  0  0  0  0  0  0  0  0
   22.0446  -21.1724  -13.4730 C   0  0  0  0  0  0  0  0  0  0  0  0
   29.7796  -19.6875   -7.0591 C   0  0  0  0  0  0  0  0  0  0  0  0
   28.5365  -18.8710   -6.6431 C   0  0  2  0  0  0  0  0  0  0  0  0
   28.9772  -17.8473   -5.6049 C   0  0  0  0  0  0  0  0  0  0  0  0
   27.4838  -19.7542   -6.0850 C   0  0  0  0  0  0  0  0  0  0  0  0
   26.9918  -20.7359   -7.1081 C   0  0  2  0  0  0  0  0  0  0  0  0
   26.4397  -20.0081   -8.2646 N   0  0  0  0  0  0  0  0  0  0  0  0
   25.8896  -21.5638   -6.5688 C   0  0  0  0  0  0  0  0  0  0  0  0
   24.7004  -21.4764   -6.9667 O   0  0  0  0  0  0  0  0  0  0  0  0
   26.1885  -22.4912   -5.5645 O   0  0  0  0  0  0  0  0  0  0  0  0
  2  1  1  6
  3  2  1  0
  4  5  2  0
  4  3  1  0
  6  5  1  0
  7 12  2  0
  7  6  1  0
  8  7  1  0
  9 10  1  0
  9  8  2  0
 10 11  2  0
 11 12  1  0
 12  4  1  0
 13  2  1  0
 14 13  2  0
 16 17  2  0
 16 15  1  0
 18 17  1  0
 19 18  2  0
 21 20  1  6
 20 19  1  0
 21 22  1  0
 22 13  1  0
 23 24  2  0
 23 21  1  0
 25 19  1  0
 25 26  2  0
 26 16  1  0
 28 27  1  1
 28 30  1  0
 29 28  1  0
 31 30  1  1
 31 32  1  0
 32 23  1  0
 33 35  1  0
 33 31  1  0
 34 33  2  0
M  END
$$$$
