HDW.pdb
     RDKit          3D

 33 35  0  0  1  0  0  0  0  0999 V2000
    9.9620  -16.0726   19.3473 N   0  0  0  0  0  0  0  0  0  0  0  0
    9.4875  -15.3558   20.5664 C   0  0  1  0  0  0  0  0  0  0  0  0
    8.0492  -15.0382   20.2607 C   0  0  0  0  0  0  0  0  0  0  0  0
    7.8019  -14.3409   19.0045 C   0  0  0  0  0  0  0  0  0  0  0  0
    8.2790  -13.0350   18.8061 C   0  0  0  0  0  0  0  0  0  0  0  0
    7.9142  -12.6416   17.5807 N   0  0  0  0  0  0  0  0  0  0  0  0
    7.2196  -13.6697   17.0063 C   0  0  0  0  0  0  0  0  0  0  0  0
    7.1690  -14.6682   17.8780 N   0  0  0  0  0  0  0  0  0  0  0  0
    9.5458  -16.3556   21.6615 C   0  0  0  0  0  0  0  0  0  0  0  0
    8.5667  -16.3237   22.4909 O   0  0  0  0  0  0  0  0  0  0  0  0
   10.5705  -17.3166   21.8453 N   0  0  0  0  0  0  0  0  0  0  0  0
   10.5629  -18.0542   23.1116 C   0  0  1  0  0  0  0  0  0  0  0  0
   11.6713  -19.0779   23.0058 C   0  0  0  0  0  0  0  0  0  0  0  0
   11.8375  -19.9400   24.1812 C   0  0  0  0  0  0  0  0  0  0  0  0
   11.1970  -19.8800   25.2503 O   0  0  0  0  0  0  0  0  0  0  0  0
   10.8123  -17.1566   24.2513 C   0  0  0  0  0  0  0  0  0  0  0  0
   11.4448  -16.0979   24.0433 O   0  0  0  0  0  0  0  0  0  0  0  0
   12.8407  -20.9500   24.0773 O   0  0  0  0  0  0  0  0  0  0  0  0
   10.3858  -17.3964   25.5867 N   0  0  0  0  0  0  0  0  0  0  0  0
   10.5020  -16.4485   26.6776 C   0  0  1  0  0  0  0  0  0  0  0  0
   10.0303  -15.0895   26.3169 C   0  0  0  0  0  0  0  0  0  0  0  0
    8.6077  -14.8138   26.4208 C   0  0  0  0  0  0  0  0  0  0  0  0
    7.6178  -15.7909   26.3437 C   0  0  0  0  0  0  0  0  0  0  0  0
    6.4078  -15.2308   26.5058 N   0  0  0  0  0  0  0  0  0  0  0  0
    6.5894  -13.9011   26.6873 C   0  0  0  0  0  0  0  0  0  0  0  0
    5.6797  -12.9088   26.8853 C   0  0  0  0  0  0  0  0  0  0  0  0
    6.0799  -11.5947   27.0418 C   0  0  0  0  0  0  0  0  0  0  0  0
    7.4297  -11.3073   26.9923 C   0  0  0  0  0  0  0  0  0  0  0  0
    8.3542  -12.3099   26.7920 C   0  0  0  0  0  0  0  0  0  0  0  0
    7.9536  -13.6369   26.6350 C   0  0  0  0  0  0  0  0  0  0  0  0
   10.1356  -16.9911   27.9799 C   0  0  0  0  0  0  0  0  0  0  0  0
    9.6186  -18.2740   28.0802 O   0  0  0  0  0  0  0  0  0  0  0  0
   10.2561  -16.3677   29.0693 O   0  0  0  0  0  0  0  0  0  0  0  0
  2  1  1  6
  3  2  1  0
  3  4  1  0
  4  5  2  0
  5  6  1  0
  7  6  1  0
  8  4  1  0
  8  7  2  0
  9  2  1  0
  9 10  2  0
 11  9  1  0
 12 11  1  0
 12 13  1  6
 14 13  1  0
 15 14  2  0
 16 19  1  0
 16 12  1  0
 17 16  2  0
 18 14  1  0
 20 19  1  0
 20 31  1  0
 21 22  1  0
 20 21  1  6
 22 30  1  0
 22 23  2  0
 23 24  1  0
 25 26  2  0
 25 24  1  0
 27 26  1  0
 28 27  2  0
 29 28  1  0
 29 30  2  0
 30 25  1  0
 31 32  1  0
 33 31  2  0
M  END
$$$$
