HDW.pdb
     RDKit          3D

 33 35  0  0  1  0  0  0  0  0999 V2000
   10.0802  -14.7551   19.8020 N   0  0  0  0  0  0  0  0  0  0  0  0
    8.7829  -14.9099   20.5217 C   0  0  1  0  0  0  0  0  0  0  0  0
    7.8678  -15.5106   19.4899 C   0  0  0  0  0  0  0  0  0  0  0  0
    7.7869  -14.8029   18.2180 C   0  0  0  0  0  0  0  0  0  0  0  0
    8.6505  -13.7305   17.9407 C   0  0  0  0  0  0  0  0  0  0  0  0
    8.3618  -13.2706   16.7182 N   0  0  0  0  0  0  0  0  0  0  0  0
    7.3377  -14.0289   16.2226 C   0  0  0  0  0  0  0  0  0  0  0  0
    7.0165  -14.9334   17.1381 N   0  0  0  0  0  0  0  0  0  0  0  0
    9.0390  -15.9083   21.5893 C   0  0  0  0  0  0  0  0  0  0  0  0
    8.0302  -16.1971   22.3287 O   0  0  0  0  0  0  0  0  0  0  0  0
   10.2779  -16.5494   21.8370 N   0  0  0  0  0  0  0  0  0  0  0  0
   10.3690  -17.3595   23.0548 C   0  0  1  0  0  0  0  0  0  0  0  0
   11.7048  -18.0659   22.9882 C   0  0  0  0  0  0  0  0  0  0  0  0
   11.9486  -18.8226   21.7552 C   0  0  0  0  0  0  0  0  0  0  0  0
   11.1879  -19.6588   21.2272 O   0  0  0  0  0  0  0  0  0  0  0  0
   10.3035  -16.5169   24.2601 C   0  0  0  0  0  0  0  0  0  0  0  0
   10.0115  -15.3086   24.1222 O   0  0  0  0  0  0  0  0  0  0  0  0
   13.1906  -18.5653   21.1006 O   0  0  0  0  0  0  0  0  0  0  0  0
   10.5460  -16.9701   25.5861 N   0  0  0  0  0  0  0  0  0  0  0  0
    9.6719  -16.7305   26.7178 C   0  0  1  0  0  0  0  0  0  0  0  0
    8.2345  -16.8645   26.3781 C   0  0  0  0  0  0  0  0  0  0  0  0
    7.5081  -15.6618   26.0092 C   0  0  0  0  0  0  0  0  0  0  0  0
    6.4868  -15.6289   25.0623 C   0  0  0  0  0  0  0  0  0  0  0  0
    5.9920  -14.3839   24.9654 N   0  0  0  0  0  0  0  0  0  0  0  0
    6.6740  -13.5999   25.8340 C   0  0  0  0  0  0  0  0  0  0  0  0
    6.5520  -12.2712   26.1007 C   0  0  0  0  0  0  0  0  0  0  0  0
    7.3655  -11.6529   27.0321 C   0  0  0  0  0  0  0  0  0  0  0  0
    8.3104  -12.4151   27.6901 C   0  0  0  0  0  0  0  0  0  0  0  0
    8.4368  -13.7614   27.4225 C   0  0  0  0  0  0  0  0  0  0  0  0
    7.6168  -14.3885   26.4842 C   0  0  0  0  0  0  0  0  0  0  0  0
   10.1488  -17.3027   27.9707 C   0  0  0  0  0  0  0  0  0  0  0  0
   10.3088  -16.4976   29.0885 O   0  0  0  0  0  0  0  0  0  0  0  0
   10.4380  -18.5193   28.1320 O   0  0  0  0  0  0  0  0  0  0  0  0
  2  1  1  6
  3  2  1  0
  3  4  1  0
  4  5  2  0
  5  6  1  0
  7  6  1  0
  8  4  1  0
  8  7  2  0
  9  2  1  0
  9 10  2  0
 11  9  1  0
 12 11  1  0
 12 13  1  6
 14 13  1  0
 15 14  2  0
 16 19  1  0
 16 12  1  0
 17 16  2  0
 18 14  1  0
 20 19  1  0
 20 31  1  0
 21 22  1  0
 20 21  1  6
 22 30  1  0
 22 23  2  0
 23 24  1  0
 25 26  2  0
 25 24  1  0
 27 26  1  0
 28 27  2  0
 29 28  1  0
 29 30  2  0
 30 25  1  0
 31 32  1  0
 33 31  2  0
M  END
$$$$
