HDW.pdb
     RDKit          3D

 33 35  0  0  1  0  0  0  0  0999 V2000
    8.0127  -17.2177   19.9094 N   0  0  0  0  0  0  0  0  0  0  0  0
    8.9997  -16.2788   20.5172 C   0  0  1  0  0  0  0  0  0  0  0  0
    8.1811  -15.0615   20.8505 C   0  0  0  0  0  0  0  0  0  0  0  0
    7.9521  -14.1261   19.7561 C   0  0  0  0  0  0  0  0  0  0  0  0
    8.4759  -14.3797   18.4778 C   0  0  0  0  0  0  0  0  0  0  0  0
    8.1181  -13.3713   17.6751 N   0  0  0  0  0  0  0  0  0  0  0  0
    7.3827  -12.4914   18.4197 C   0  0  0  0  0  0  0  0  0  0  0  0
    7.3007  -12.9677   19.6549 N   0  0  0  0  0  0  0  0  0  0  0  0
    9.4430  -16.9299   21.7749 C   0  0  0  0  0  0  0  0  0  0  0  0
    8.6345  -17.8006   22.2605 O   0  0  0  0  0  0  0  0  0  0  0  0
   10.6605  -16.6707   22.4514 N   0  0  0  0  0  0  0  0  0  0  0  0
   11.0038  -17.5683   23.5578 C   0  0  1  0  0  0  0  0  0  0  0  0
   12.5123  -17.6789   23.5538 C   0  0  0  0  0  0  0  0  0  0  0  0
   13.0794  -18.4244   22.4247 C   0  0  0  0  0  0  0  0  0  0  0  0
   12.5352  -19.3506   21.7902 O   0  0  0  0  0  0  0  0  0  0  0  0
   10.5412  -17.0260   24.8457 C   0  0  0  0  0  0  0  0  0  0  0  0
   10.7002  -15.8049   25.0649 O   0  0  0  0  0  0  0  0  0  0  0  0
   14.3927  -18.0393   22.0194 O   0  0  0  0  0  0  0  0  0  0  0  0
    9.9182  -17.7857   25.8739 N   0  0  0  0  0  0  0  0  0  0  0  0
    9.6633  -17.3091   27.2193 C   0  0  1  0  0  0  0  0  0  0  0  0
    8.2344  -16.9944   27.4613 C   0  0  0  0  0  0  0  0  0  0  0  0
    7.6214  -15.9534   26.6544 C   0  0  0  0  0  0  0  0  0  0  0  0
    6.7888  -16.2015   25.5655 C   0  0  0  0  0  0  0  0  0  0  0  0
    6.3557  -15.0408   25.0463 N   0  0  0  0  0  0  0  0  0  0  0  0
    6.8926  -14.0356   25.7779 C   0  0  0  0  0  0  0  0  0  0  0  0
    6.7631  -12.6874   25.6472 C   0  0  0  0  0  0  0  0  0  0  0  0
    7.4130  -11.8215   26.5070 C   0  0  0  0  0  0  0  0  0  0  0  0
    8.2015  -12.3553   27.5071 C   0  0  0  0  0  0  0  0  0  0  0  0
    8.3350  -13.7205   27.6427 C   0  0  0  0  0  0  0  0  0  0  0  0
    7.6796  -14.5968   26.7775 C   0  0  0  0  0  0  0  0  0  0  0  0
   10.4060  -18.0187   28.2534 C   0  0  0  0  0  0  0  0  0  0  0  0
   10.3587  -17.5827   29.5691 O   0  0  0  0  0  0  0  0  0  0  0  0
   11.1158  -19.0398   28.0451 O   0  0  0  0  0  0  0  0  0  0  0  0
  2  1  1  1
  3  2  1  0
  3  4  1  0
  4  5  2  0
  5  6  1  0
  7  6  1  0
  8  4  1  0
  8  7  2  0
  9  2  1  0
  9 10  2  0
 11  9  1  0
 12 11  1  0
 12 13  1  1
 14 13  1  0
 15 14  2  0
 16 19  1  0
 16 12  1  0
 17 16  2  0
 18 14  1  0
 20 19  1  0
 20 31  1  0
 21 22  1  0
 20 21  1  1
 22 30  1  0
 22 23  2  0
 23 24  1  0
 25 26  2  0
 25 24  1  0
 27 26  1  0
 28 27  2  0
 29 28  1  0
 29 30  2  0
 30 25  1  0
 31 32  1  0
 33 31  2  0
M  END
$$$$
