HDW.pdb
     RDKit          3D

 33 35  0  0  1  0  0  0  0  0999 V2000
   10.1124  -14.5619   19.8902 N   0  0  0  0  0  0  0  0  0  0  0  0
    8.9221  -14.7518   20.7689 C   0  0  1  0  0  0  0  0  0  0  0  0
    7.8536  -15.2380   19.8283 C   0  0  0  0  0  0  0  0  0  0  0  0
    7.7897  -14.5704   18.5339 C   0  0  0  0  0  0  0  0  0  0  0  0
    8.3803  -13.3094   18.3502 C   0  0  0  0  0  0  0  0  0  0  0  0
    8.1743  -12.9353   17.0826 N   0  0  0  0  0  0  0  0  0  0  0  0
    7.4683  -13.9315   16.4672 C   0  0  0  0  0  0  0  0  0  0  0  0
    7.2541  -14.8920   17.3565 N   0  0  0  0  0  0  0  0  0  0  0  0
    9.2887  -15.8467   21.7011 C   0  0  0  0  0  0  0  0  0  0  0  0
    8.3564  -16.2308   22.4955 O   0  0  0  0  0  0  0  0  0  0  0  0
   10.5534  -16.4819   21.7685 N   0  0  0  0  0  0  0  0  0  0  0  0
   10.7520  -17.4410   22.8585 C   0  0  1  0  0  0  0  0  0  0  0  0
   12.0832  -18.1075   22.5916 C   0  0  0  0  0  0  0  0  0  0  0  0
   12.1725  -18.8341   21.3202 C   0  0  0  0  0  0  0  0  0  0  0  0
   11.2758  -19.5150   20.7824 O   0  0  0  0  0  0  0  0  0  0  0  0
   10.7802  -16.7631   24.1648 C   0  0  0  0  0  0  0  0  0  0  0  0
   11.3457  -15.6501   24.2417 O   0  0  0  0  0  0  0  0  0  0  0  0
   13.4221  -18.7440   20.6365 O   0  0  0  0  0  0  0  0  0  0  0  0
   10.2080  -17.2751   25.3619 N   0  0  0  0  0  0  0  0  0  0  0  0
   10.2358  -16.6053   26.6474 C   0  0  1  0  0  0  0  0  0  0  0  0
    9.8417  -15.1779   26.5655 C   0  0  0  0  0  0  0  0  0  0  0  0
    8.4277  -14.8691   26.4405 C   0  0  0  0  0  0  0  0  0  0  0  0
    7.4393  -15.8246   26.2153 C   0  0  0  0  0  0  0  0  0  0  0  0
    6.2326  -15.2357   26.1793 N   0  0  0  0  0  0  0  0  0  0  0  0
    6.4151  -13.9083   26.3767 C   0  0  0  0  0  0  0  0  0  0  0  0
    5.5096  -12.8936   26.4201 C   0  0  0  0  0  0  0  0  0  0  0  0
    5.9115  -11.5871   26.6275 C   0  0  0  0  0  0  0  0  0  0  0  0
    7.2586  -11.3307   26.7903 C   0  0  0  0  0  0  0  0  0  0  0  0
    8.1788  -12.3560   26.7469 C   0  0  0  0  0  0  0  0  0  0  0  0
    7.7763  -13.6755   26.5390 C   0  0  0  0  0  0  0  0  0  0  0  0
    9.7210  -17.4088   27.7492 C   0  0  0  0  0  0  0  0  0  0  0  0
    9.1821  -18.6631   27.5049 O   0  0  0  0  0  0  0  0  0  0  0  0
    9.7264  -17.0462   28.9568 O   0  0  0  0  0  0  0  0  0  0  0  0
  2  1  1  6
  3  2  1  0
  3  4  1  0
  4  5  2  0
  5  6  1  0
  7  6  1  0
  8  4  1  0
  8  7  2  0
  9  2  1  0
  9 10  2  0
 11  9  1  0
 12 11  1  0
 12 13  1  6
 14 13  1  0
 15 14  2  0
 16 19  1  0
 16 12  1  0
 17 16  2  0
 18 14  1  0
 20 19  1  0
 20 31  1  0
 21 22  1  0
 20 21  1  6
 22 30  1  0
 22 23  2  0
 23 24  1  0
 25 26  2  0
 25 24  1  0
 27 26  1  0
 28 27  2  0
 29 28  1  0
 29 30  2  0
 30 25  1  0
 31 32  1  0
 33 31  2  0
M  END
$$$$
