MQQ.pdb
     RDKit          3D

 27 26  0  0  1  0  0  0  0  0999 V2000
    9.2381  -11.5984   19.9131 C   0  0  0  0  0  0  0  0  0  0  0  0
    7.8599  -12.3280   19.0053 S   0  0  0  0  0  0  0  0  0  0  0  0
    8.1034  -14.1359   18.9681 C   0  0  0  0  0  0  0  0  0  0  0  0
    8.0600  -14.6184   20.3996 C   0  0  0  0  0  0  0  0  0  0  0  0
    8.2914  -16.1096   20.4044 C   0  0  2  0  0  0  0  0  0  0  0  0
    7.1411  -16.8230   19.8906 N   0  0  0  0  0  0  0  0  0  0  0  0
    8.6452  -16.5429   21.7659 C   0  0  0  0  0  0  0  0  0  0  0  0
    7.7117  -16.7312   22.5901 O   0  0  0  0  0  0  0  0  0  0  0  0
   13.5233  -20.2059   24.8773 N   0  0  0  0  0  0  0  0  0  0  0  0
   13.3021  -18.8128   25.0492 C   0  0  0  0  0  0  0  0  0  0  0  0
   14.2747  -18.0494   25.2115 O   0  0  0  0  0  0  0  0  0  0  0  0
   11.9207  -18.2604   25.0370 C   0  0  0  0  0  0  0  0  0  0  0  0
   11.5787  -17.8193   23.6327 C   0  0  0  0  0  0  0  0  0  0  0  0
   10.2091  -17.1958   23.5658 C   0  0  2  0  0  0  0  0  0  0  0  0
    9.9674  -16.7610   22.2113 N   0  0  0  0  0  0  0  0  0  0  0  0
   10.2431  -15.9968   24.4655 C   0  0  0  0  0  0  0  0  0  0  0  0
   10.7046  -14.9331   24.0217 O   0  0  0  0  0  0  0  0  0  0  0  0
    5.7125  -13.2497   26.2137 N   0  0  0  0  0  0  0  0  0  0  0  0
    6.6158  -12.4672   26.9876 C   0  0  0  0  0  0  0  0  0  0  0  0
    6.3117  -11.3735   27.5183 O   0  0  0  0  0  0  0  0  0  0  0  0
    8.0060  -13.0112   27.1593 C   0  0  0  0  0  0  0  0  0  0  0  0
    8.1910  -14.2612   26.3428 C   0  0  0  0  0  0  0  0  0  0  0  0
    9.5261  -14.8595   26.6090 C   0  0  2  0  0  0  0  0  0  0  0  0
    9.7669  -16.0438   25.7976 N   0  0  0  0  0  0  0  0  0  0  0  0
    9.8759  -15.0706   28.0141 C   0  0  0  0  0  0  0  0  0  0  0  0
   10.1050  -16.2615   28.4463 O   0  0  0  0  0  0  0  0  0  0  0  0
   10.0016  -14.1008   28.9915 O   0  0  0  0  0  0  0  0  0  0  0  0
  2  1  1  0
  3  4  1  0
  3  2  1  0
  4  5  1  0
  5  6  1  1
  7  5  1  0
  7  8  2  0
  9 10  1  0
 10 12  1  0
 10 11  2  0
 12 13  1  0
 14 13  1  6
 14 15  1  0
 15  7  1  0
 16 14  1  0
 17 16  2  0
 19 20  2  0
 19 18  1  0
 21 19  1  0
 22 21  1  0
 23 22  1  1
 23 24  1  0
 24 16  1  0
 25 23  1  0
 26 25  2  0
 27 25  1  0
M  END
$$$$
