MQQ.pdb
     RDKit          3D

 27 26  0  0  1  0  0  0  0  0999 V2000
    7.2793  -11.4200   24.9288 C   0  0  0  0  0  0  0  0  0  0  0  0
    6.3605  -12.1121   26.3189 S   0  0  0  0  0  0  0  0  0  0  0  0
    5.8449  -13.8033   25.8680 C   0  0  0  0  0  0  0  0  0  0  0  0
    7.1054  -14.6000   25.6221 C   0  0  0  0  0  0  0  0  0  0  0  0
    6.7598  -15.7731   24.7381 C   0  0  2  0  0  0  0  0  0  0  0  0
    5.8737  -16.6981   25.4127 N   0  0  0  0  0  0  0  0  0  0  0  0
    8.0000  -16.4264   24.2892 C   0  0  0  0  0  0  0  0  0  0  0  0
    8.4875  -17.3349   25.0127 O   0  0  0  0  0  0  0  0  0  0  0  0
   10.1243  -18.2149   19.3956 N   0  0  0  0  0  0  0  0  0  0  0  0
   11.4323  -17.9643   19.8911 C   0  0  0  0  0  0  0  0  0  0  0  0
   12.4035  -18.5779   19.4061 O   0  0  0  0  0  0  0  0  0  0  0  0
   11.6499  -16.9769   20.9825 C   0  0  0  0  0  0  0  0  0  0  0  0
   10.3213  -16.3709   21.3711 C   0  0  0  0  0  0  0  0  0  0  0  0
    9.9144  -16.7743   22.7643 C   0  0  2  0  0  0  0  0  0  0  0  0
    8.6830  -16.0999   23.0972 N   0  0  0  0  0  0  0  0  0  0  0  0
   10.9991  -16.2924   23.6805 C   0  0  0  0  0  0  0  0  0  0  0  0
   11.2341  -15.0746   23.7350 O   0  0  0  0  0  0  0  0  0  0  0  0
   10.7164  -14.2623   28.3499 N   0  0  0  0  0  0  0  0  0  0  0  0
   10.8290  -15.6243   28.7493 C   0  0  0  0  0  0  0  0  0  0  0  0
   10.4431  -16.0588   29.8595 O   0  0  0  0  0  0  0  0  0  0  0  0
   11.4505  -16.5699   27.7606 C   0  0  0  0  0  0  0  0  0  0  0  0
   11.8650  -15.8369   26.5140 C   0  0  0  0  0  0  0  0  0  0  0  0
   12.5904  -16.7521   25.5933 C   0  0  2  0  0  0  0  0  0  0  0  0
   11.7572  -17.1814   24.4795 N   0  0  0  0  0  0  0  0  0  0  0  0
   13.3028  -17.8691   26.2144 C   0  0  0  0  0  0  0  0  0  0  0  0
   13.0039  -19.0793   25.8924 O   0  0  0  0  0  0  0  0  0  0  0  0
   14.3143  -17.7874   27.1534 O   0  0  0  0  0  0  0  0  0  0  0  0
  2  1  1  0
  3  4  1  0
  3  2  1  0
  4  5  1  0
  5  6  1  1
  7  5  1  0
  7  8  2  0
  9 10  1  0
 10 12  1  0
 10 11  2  0
 12 13  1  0
 14 13  1  6
 14 15  1  0
 15  7  1  0
 16 14  1  0
 17 16  2  0
 19 20  2  0
 19 18  1  0
 21 19  1  0
 22 21  1  0
 23 22  1  1
 23 24  1  0
 24 16  1  0
 25 23  1  0
 26 25  2  0
 27 25  1  0
M  END
$$$$
