MQQ.pdb
     RDKit          3D

 27 26  0  0  1  0  0  0  0  0999 V2000
    6.3530  -11.3006   18.5951 C   0  0  0  0  0  0  0  0  0  0  0  0
    7.5782  -12.1735   19.5915 S   0  0  0  0  0  0  0  0  0  0  0  0
    8.0065  -13.7230   18.7285 C   0  0  0  0  0  0  0  0  0  0  0  0
    9.0502  -14.4235   19.5675 C   0  0  0  0  0  0  0  0  0  0  0  0
    9.2987  -15.7880   18.9730 C   0  0  2  0  0  0  0  0  0  0  0  0
    8.1263  -16.6307   19.0798 N   0  0  0  0  0  0  0  0  0  0  0  0
   10.4736  -16.3943   19.6198 C   0  0  0  0  0  0  0  0  0  0  0  0
   11.3319  -16.9535   18.8871 O   0  0  0  0  0  0  0  0  0  0  0  0
   14.5834  -14.4503   19.4579 N   0  0  0  0  0  0  0  0  0  0  0  0
   15.0335  -14.6261   20.7941 C   0  0  0  0  0  0  0  0  0  0  0  0
   16.2392  -14.4600   21.0655 O   0  0  0  0  0  0  0  0  0  0  0  0
   14.0777  -15.0061   21.8691 C   0  0  0  0  0  0  0  0  0  0  0  0
   12.6844  -15.0751   21.2880 C   0  0  0  0  0  0  0  0  0  0  0  0
   12.0525  -16.4223   21.5219 C   0  0  2  0  0  0  0  0  0  0  0  0
   10.7026  -16.3917   21.0133 N   0  0  0  0  0  0  0  0  0  0  0  0
   12.0108  -16.6205   23.0076 C   0  0  0  0  0  0  0  0  0  0  0  0
   11.7605  -15.6433   23.7311 O   0  0  0  0  0  0  0  0  0  0  0  0
   12.0631  -22.1629   26.0643 N   0  0  0  0  0  0  0  0  0  0  0  0
   11.9693  -21.2600   27.1612 C   0  0  0  0  0  0  0  0  0  0  0  0
   11.8944  -21.6233   28.3581 O   0  0  0  0  0  0  0  0  0  0  0  0
   11.9622  -19.7938   26.8316 C   0  0  0  0  0  0  0  0  0  0  0  0
   12.0907  -19.5833   25.3475 C   0  0  0  0  0  0  0  0  0  0  0  0
   12.1384  -18.1304   25.0340 C   0  0  2  0  0  0  0  0  0  0  0  0
   12.2474  -17.8823   23.6038 N   0  0  0  0  0  0  0  0  0  0  0  0
   13.0859  -17.3285   25.8088 C   0  0  0  0  0  0  0  0  0  0  0  0
   14.2690  -17.1118   25.3495 O   0  0  0  0  0  0  0  0  0  0  0  0
   12.8604  -16.7381   27.0385 O   0  0  0  0  0  0  0  0  0  0  0  0
  2  1  1  0
  3  4  1  0
  3  2  1  0
  4  5  1  0
  5  6  1  1
  7  5  1  0
  7  8  2  0
  9 10  1  0
 10 12  1  0
 10 11  2  0
 12 13  1  0
 14 13  1  1
 14 15  1  0
 15  7  1  0
 16 14  1  0
 17 16  2  0
 19 20  2  0
 19 18  1  0
 21 19  1  0
 22 21  1  0
 23 22  1  6
 23 24  1  0
 24 16  1  0
 25 23  1  0
 26 25  2  0
 27 25  1  0
M  END
$$$$
