MQQ.pdb
     RDKit          3D

 27 26  0  0  1  0  0  0  0  0999 V2000
    6.5129  -10.9389   26.5398 C   0  0  0  0  0  0  0  0  0  0  0  0
    6.0942  -12.5347   25.8091 S   0  0  0  0  0  0  0  0  0  0  0  0
    6.7733  -12.5750   24.1160 C   0  0  0  0  0  0  0  0  0  0  0  0
    6.2396  -13.8245   23.4543 C   0  0  0  0  0  0  0  0  0  0  0  0
    7.4118  -14.6400   22.9664 C   0  0  2  0  0  0  0  0  0  0  0  0
    6.9751  -15.7608   22.1607 N   0  0  0  0  0  0  0  0  0  0  0  0
    8.2181  -15.0717   24.1196 C   0  0  0  0  0  0  0  0  0  0  0  0
    8.8420  -14.1920   24.7701 O   0  0  0  0  0  0  0  0  0  0  0  0
    7.2159  -19.2240   28.3382 N   0  0  0  0  0  0  0  0  0  0  0  0
    7.5216  -19.7861   27.0694 C   0  0  0  0  0  0  0  0  0  0  0  0
    7.2074  -20.9682   26.8268 O   0  0  0  0  0  0  0  0  0  0  0  0
    8.2127  -18.9752   26.0310 C   0  0  0  0  0  0  0  0  0  0  0  0
    8.5442  -17.6174   26.6058 C   0  0  0  0  0  0  0  0  0  0  0  0
    9.2615  -16.7514   25.6034 C   0  0  2  0  0  0  0  0  0  0  0  0
    8.3402  -16.4124   24.5459 N   0  0  0  0  0  0  0  0  0  0  0  0
   10.3707  -17.5861   25.0366 C   0  0  0  0  0  0  0  0  0  0  0  0
   10.0950  -18.4343   24.1730 O   0  0  0  0  0  0  0  0  0  0  0  0
   14.3103  -15.6586   21.3559 N   0  0  0  0  0  0  0  0  0  0  0  0
   14.2557  -15.5559   22.7749 C   0  0  0  0  0  0  0  0  0  0  0  0
   15.0217  -14.8303   23.4509 O   0  0  0  0  0  0  0  0  0  0  0  0
   13.2084  -16.3772   23.4727 C   0  0  0  0  0  0  0  0  0  0  0  0
   13.8453  -17.4847   24.2671 C   0  0  0  0  0  0  0  0  0  0  0  0
   12.8054  -18.2727   24.9808 C   0  0  2  0  0  0  0  0  0  0  0  0
   11.7140  -17.4349   25.4561 N   0  0  0  0  0  0  0  0  0  0  0  0
   13.2820  -19.1975   26.0096 C   0  0  0  0  0  0  0  0  0  0  0  0
   12.8178  -19.1187   27.2079 O   0  0  0  0  0  0  0  0  0  0  0  0
   14.2172  -20.2033   25.8508 O   0  0  0  0  0  0  0  0  0  0  0  0
  2  1  1  0
  3  4  1  0
  3  2  1  0
  4  5  1  0
  5  6  1  1
  7  5  1  0
  7  8  2  0
  9 10  1  0
 10 12  1  0
 10 11  2  0
 12 13  1  0
 14 13  1  1
 14 15  1  0
 15  7  1  0
 16 14  1  0
 17 16  2  0
 19 20  2  0
 19 18  1  0
 21 19  1  0
 22 21  1  0
 23 22  1  1
 23 24  1  0
 24 16  1  0
 25 23  1  0
 26 25  2  0
 27 25  1  0
M  END
$$$$
