MQQ.pdb
     RDKit          3D

 27 26  0  0  1  0  0  0  0  0999 V2000
    5.9712  -11.2178   26.0490 C   0  0  0  0  0  0  0  0  0  0  0  0
    6.9762  -12.3564   25.0746 S   0  0  0  0  0  0  0  0  0  0  0  0
    5.9686  -13.8356   24.7199 C   0  0  0  0  0  0  0  0  0  0  0  0
    6.9249  -14.9418   24.3379 C   0  0  0  0  0  0  0  0  0  0  0  0
    7.3325  -14.7402   22.8990 C   0  0  2  0  0  0  0  0  0  0  0  0
    6.1982  -14.8635   22.0078 N   0  0  0  0  0  0  0  0  0  0  0  0
    8.4054  -15.6888   22.5595 C   0  0  0  0  0  0  0  0  0  0  0  0
    8.0811  -16.8665   22.2524 O   0  0  0  0  0  0  0  0  0  0  0  0
   12.9711  -15.0114   19.0809 N   0  0  0  0  0  0  0  0  0  0  0  0
   13.2398  -14.4251   20.3470 C   0  0  0  0  0  0  0  0  0  0  0  0
   14.2037  -13.6440   20.4728 O   0  0  0  0  0  0  0  0  0  0  0  0
   12.3805  -14.7364   21.5210 C   0  0  0  0  0  0  0  0  0  0  0  0
   11.6896  -16.0602   21.2889 C   0  0  0  0  0  0  0  0  0  0  0  0
   10.7662  -16.4103   22.4264 C   0  0  2  0  0  0  0  0  0  0  0  0
    9.7799  -15.3651   22.5565 N   0  0  0  0  0  0  0  0  0  0  0  0
   11.6105  -16.4428   23.6652 C   0  0  0  0  0  0  0  0  0  0  0  0
   12.4846  -15.5735   23.8120 O   0  0  0  0  0  0  0  0  0  0  0  0
   11.5895  -14.2766   28.6378 N   0  0  0  0  0  0  0  0  0  0  0  0
   10.3512  -14.7968   28.1653 C   0  0  0  0  0  0  0  0  0  0  0  0
    9.2345  -14.4637   28.6260 O   0  0  0  0  0  0  0  0  0  0  0  0
   10.4211  -15.8008   27.0494 C   0  0  0  0  0  0  0  0  0  0  0  0
   11.8420  -15.9865   26.5913 C   0  0  0  0  0  0  0  0  0  0  0  0
   12.0206  -17.3376   25.9961 C   0  0  2  0  0  0  0  0  0  0  0  0
   11.4396  -17.4304   24.6647 N   0  0  0  0  0  0  0  0  0  0  0  0
   11.6531  -18.4743   26.8410 C   0  0  0  0  0  0  0  0  0  0  0  0
   10.8428  -19.3699   26.3948 O   0  0  0  0  0  0  0  0  0  0  0  0
   12.0908  -18.7259   28.1281 O   0  0  0  0  0  0  0  0  0  0  0  0
  2  1  1  0
  3  4  1  0
  3  2  1  0
  4  5  1  0
  5  6  1  6
  7  5  1  0
  7  8  2  0
  9 10  1  0
 10 12  1  0
 10 11  2  0
 12 13  1  0
 14 13  1  6
 14 15  1  0
 15  7  1  0
 16 14  1  0
 17 16  2  0
 19 20  2  0
 19 18  1  0
 21 19  1  0
 22 21  1  0
 23 22  1  1
 23 24  1  0
 24 16  1  0
 25 23  1  0
 26 25  2  0
 27 25  1  0
M  END
$$$$
