MQQ.pdb
     RDKit          3D

 27 26  0  0  1  0  0  0  0  0999 V2000
    7.4508  -12.2771   26.1767 C   0  0  0  0  0  0  0  0  0  0  0  0
    5.8168  -12.4379   25.4284 S   0  0  0  0  0  0  0  0  0  0  0  0
    6.0423  -12.8322   23.6613 C   0  0  0  0  0  0  0  0  0  0  0  0
    7.1023  -13.9062   23.5787 C   0  0  0  0  0  0  0  0  0  0  0  0
    7.3678  -14.1991   22.1224 C   0  0  2  0  0  0  0  0  0  0  0  0
    6.1643  -14.6322   21.4441 N   0  0  0  0  0  0  0  0  0  0  0  0
    8.4485  -15.1926   22.0148 C   0  0  0  0  0  0  0  0  0  0  0  0
    8.1525  -16.4088   22.1541 O   0  0  0  0  0  0  0  0  0  0  0  0
   14.0071  -15.3460   18.6092 N   0  0  0  0  0  0  0  0  0  0  0  0
   13.0734  -14.4682   19.2231 C   0  0  0  0  0  0  0  0  0  0  0  0
   13.3116  -13.2448   19.2635 O   0  0  0  0  0  0  0  0  0  0  0  0
   11.8163  -14.9981   19.8167 C   0  0  0  0  0  0  0  0  0  0  0  0
   12.0790  -15.4000   21.2496 C   0  0  0  0  0  0  0  0  0  0  0  0
   10.8227  -15.8763   21.9308 C   0  0  2  0  0  0  0  0  0  0  0  0
    9.8009  -14.8710   21.7663 N   0  0  0  0  0  0  0  0  0  0  0  0
   11.1517  -16.0053   23.3880 C   0  0  0  0  0  0  0  0  0  0  0  0
   10.9794  -15.0219   24.1259 O   0  0  0  0  0  0  0  0  0  0  0  0
    6.9458  -17.8461   25.0480 N   0  0  0  0  0  0  0  0  0  0  0  0
    7.5245  -16.8746   25.9132 C   0  0  0  0  0  0  0  0  0  0  0  0
    6.8576  -16.0428   26.5716 O   0  0  0  0  0  0  0  0  0  0  0  0
    9.0233  -16.8725   26.0214 C   0  0  0  0  0  0  0  0  0  0  0  0
    9.6224  -17.9071   25.1081 C   0  0  0  0  0  0  0  0  0  0  0  0
   11.1070  -17.8285   25.1419 C   0  0  2  0  0  0  0  0  0  0  0  0
   11.6498  -17.2090   23.9417 N   0  0  0  0  0  0  0  0  0  0  0  0
   11.8155  -19.0579   25.4991 C   0  0  0  0  0  0  0  0  0  0  0  0
   11.6376  -19.5870   26.6593 O   0  0  0  0  0  0  0  0  0  0  0  0
   12.6990  -19.7657   24.7054 O   0  0  0  0  0  0  0  0  0  0  0  0
  2  1  1  0
  3  4  1  0
  3  2  1  0
  4  5  1  0
  5  6  1  1
  7  5  1  0
  7  8  2  0
  9 10  1  0
 10 12  1  0
 10 11  2  0
 12 13  1  0
 14 13  1  6
 14 15  1  0
 15  7  1  0
 16 14  1  0
 17 16  2  0
 19 20  2  0
 19 18  1  0
 21 19  1  0
 22 21  1  0
 23 22  1  6
 23 24  1  0
 24 16  1  0
 25 23  1  0
 26 25  2  0
 27 25  1  0
M  END
$$$$
