MQQ.pdb
     RDKit          3D

 27 26  0  0  1  0  0  0  0  0999 V2000
    7.2574  -11.0007   26.6987 C   0  0  0  0  0  0  0  0  0  0  0  0
    6.6636  -12.3639   27.7209 S   0  0  0  0  0  0  0  0  0  0  0  0
    6.0002  -13.6524   26.6123 C   0  0  0  0  0  0  0  0  0  0  0  0
    7.1588  -14.1701   25.7915 C   0  0  0  0  0  0  0  0  0  0  0  0
    6.6483  -15.2675   24.8902 C   0  0  2  0  0  0  0  0  0  0  0  0
    6.1179  -16.3750   25.6571 N   0  0  0  0  0  0  0  0  0  0  0  0
    7.7258  -15.6922   23.9820 C   0  0  0  0  0  0  0  0  0  0  0  0
    8.0124  -16.9178   23.9336 O   0  0  0  0  0  0  0  0  0  0  0  0
    6.2753  -16.6792   19.7650 N   0  0  0  0  0  0  0  0  0  0  0  0
    7.2731  -15.7043   19.4948 C   0  0  0  0  0  0  0  0  0  0  0  0
    8.1157  -15.9159   18.6002 O   0  0  0  0  0  0  0  0  0  0  0  0
    7.3192  -14.4357   20.2706 C   0  0  0  0  0  0  0  0  0  0  0  0
    8.7067  -14.2575   20.8421 C   0  0  0  0  0  0  0  0  0  0  0  0
    9.0037  -15.2818   21.9060 C   0  0  2  0  0  0  0  0  0  0  0  0
    8.4635  -14.8132   23.1592 N   0  0  0  0  0  0  0  0  0  0  0  0
   10.4970  -15.3602   22.0160 C   0  0  0  0  0  0  0  0  0  0  0  0
   11.1476  -15.7311   21.0258 O   0  0  0  0  0  0  0  0  0  0  0  0
    9.7804  -18.7995   26.6779 N   0  0  0  0  0  0  0  0  0  0  0  0
   11.0843  -18.2382   26.7868 C   0  0  0  0  0  0  0  0  0  0  0  0
   11.6450  -17.9854   27.8785 O   0  0  0  0  0  0  0  0  0  0  0  0
   11.8034  -17.9435   25.5006 C   0  0  0  0  0  0  0  0  0  0  0  0
   11.0099  -16.9829   24.6575 C   0  0  0  0  0  0  0  0  0  0  0  0
   11.9130  -15.9908   24.0159 C   0  0  2  0  0  0  0  0  0  0  0  0
   11.1807  -15.0253   23.2093 N   0  0  0  0  0  0  0  0  0  0  0  0
   13.0771  -16.5303   23.3124 C   0  0  0  0  0  0  0  0  0  0  0  0
   12.9138  -17.3835   22.3621 O   0  0  0  0  0  0  0  0  0  0  0  0
   14.4041  -16.2223   23.5484 O   0  0  0  0  0  0  0  0  0  0  0  0
  2  1  1  0
  3  4  1  0
  3  2  1  0
  4  5  1  0
  5  6  1  1
  7  5  1  0
  7  8  2  0
  9 10  1  0
 10 12  1  0
 10 11  2  0
 12 13  1  0
 14 13  1  6
 14 15  1  0
 15  7  1  0
 16 14  1  0
 17 16  2  0
 19 20  2  0
 19 18  1  0
 21 19  1  0
 22 21  1  0
 23 22  1  6
 23 24  1  0
 24 16  1  0
 25 23  1  0
 26 25  2  0
 27 25  1  0
M  END
$$$$
