MQQ.pdb
     RDKit          3D

 27 26  0  0  1  0  0  0  0  0999 V2000
    8.7286  -11.5153   21.0074 C   0  0  0  0  0  0  0  0  0  0  0  0
    7.3759  -11.8277   19.8549 S   0  0  0  0  0  0  0  0  0  0  0  0
    7.2662  -13.6295   19.5893 C   0  0  0  0  0  0  0  0  0  0  0  0
    7.6732  -14.2938   20.8843 C   0  0  0  0  0  0  0  0  0  0  0  0
    7.4904  -15.7838   20.7306 C   0  0  2  0  0  0  0  0  0  0  0  0
    6.1006  -16.1242   20.5104 N   0  0  0  0  0  0  0  0  0  0  0  0
    8.0444  -16.4665   21.9111 C   0  0  0  0  0  0  0  0  0  0  0  0
    7.3093  -16.5859   22.9268 O   0  0  0  0  0  0  0  0  0  0  0  0
   13.2606  -20.0117   22.5332 N   0  0  0  0  0  0  0  0  0  0  0  0
   13.0032  -19.5550   23.8539 C   0  0  0  0  0  0  0  0  0  0  0  0
   13.8685  -19.7075   24.7388 O   0  0  0  0  0  0  0  0  0  0  0  0
   11.7108  -18.8977   24.1872 C   0  0  0  0  0  0  0  0  0  0  0  0
   11.1250  -18.2966   22.9305 C   0  0  0  0  0  0  0  0  0  0  0  0
    9.8223  -17.5930   23.2078 C   0  0  2  0  0  0  0  0  0  0  0  0
    9.3510  -16.9973   21.9810 N   0  0  0  0  0  0  0  0  0  0  0  0
   10.1277  -16.5053   24.1937 C   0  0  0  0  0  0  0  0  0  0  0  0
   11.0315  -15.6971   23.9266 O   0  0  0  0  0  0  0  0  0  0  0  0
    7.4228  -12.0652   26.4799 N   0  0  0  0  0  0  0  0  0  0  0  0
    6.8191  -13.2251   25.9167 C   0  0  0  0  0  0  0  0  0  0  0  0
    5.6470  -13.2554   25.4745 O   0  0  0  0  0  0  0  0  0  0  0  0
    7.6617  -14.4682   25.8639 C   0  0  0  0  0  0  0  0  0  0  0  0
    9.0088  -14.2227   26.4872 C   0  0  0  0  0  0  0  0  0  0  0  0
    9.8158  -15.4717   26.4821 C   0  0  2  0  0  0  0  0  0  0  0  0
    9.4191  -16.3755   25.4121 N   0  0  0  0  0  0  0  0  0  0  0  0
    9.9560  -16.1609   27.7653 C   0  0  0  0  0  0  0  0  0  0  0  0
    9.7164  -17.4233   27.8451 O   0  0  0  0  0  0  0  0  0  0  0  0
   10.3367  -15.5995   28.9701 O   0  0  0  0  0  0  0  0  0  0  0  0
  2  1  1  0
  3  4  1  0
  3  2  1  0
  4  5  1  0
  5  6  1  1
  7  5  1  0
  7  8  2  0
  9 10  1  0
 10 12  1  0
 10 11  2  0
 12 13  1  0
 14 13  1  6
 14 15  1  0
 15  7  1  0
 16 14  1  0
 17 16  2  0
 19 20  2  0
 19 18  1  0
 21 19  1  0
 22 21  1  0
 23 22  1  1
 23 24  1  0
 24 16  1  0
 25 23  1  0
 26 25  2  0
 27 25  1  0
M  END
$$$$
