MQQ.pdb
     RDKit          3D

 27 26  0  0  1  0  0  0  0  0999 V2000
    5.8273  -10.5807   26.3779 C   0  0  0  0  0  0  0  0  0  0  0  0
    6.3548  -11.8037   27.5952 S   0  0  0  0  0  0  0  0  0  0  0  0
    5.8437  -13.4503   26.9981 C   0  0  0  0  0  0  0  0  0  0  0  0
    6.8641  -13.8859   25.9720 C   0  0  0  0  0  0  0  0  0  0  0  0
    6.3306  -15.1054   25.2610 C   0  0  2  0  0  0  0  0  0  0  0  0
    6.2110  -16.2312   26.1634 N   0  0  0  0  0  0  0  0  0  0  0  0
    7.1925  -15.4127   24.1081 C   0  0  0  0  0  0  0  0  0  0  0  0
    7.8416  -16.4920   24.1234 O   0  0  0  0  0  0  0  0  0  0  0  0
    7.0833  -13.1416   18.4949 N   0  0  0  0  0  0  0  0  0  0  0  0
    8.2951  -13.8792   18.4139 C   0  0  0  0  0  0  0  0  0  0  0  0
    8.7449  -14.2057   17.2976 O   0  0  0  0  0  0  0  0  0  0  0  0
    9.0291  -14.2638   19.6496 C   0  0  0  0  0  0  0  0  0  0  0  0
    8.1985  -13.8854   20.8541 C   0  0  0  0  0  0  0  0  0  0  0  0
    8.1713  -14.9903   21.8777 C   0  0  2  0  0  0  0  0  0  0  0  0
    7.3416  -14.5736   22.9822 N   0  0  0  0  0  0  0  0  0  0  0  0
    9.5809  -15.1574   22.3608 C   0  0  0  0  0  0  0  0  0  0  0  0
   10.1999  -14.1533   22.7480 O   0  0  0  0  0  0  0  0  0  0  0  0
   11.5237  -19.9211   25.3629 N   0  0  0  0  0  0  0  0  0  0  0  0
   10.9255  -18.7465   25.9011 C   0  0  0  0  0  0  0  0  0  0  0  0
   10.3818  -18.6958   27.0289 O   0  0  0  0  0  0  0  0  0  0  0  0
   10.9648  -17.5135   25.0430 C   0  0  0  0  0  0  0  0  0  0  0  0
   11.7080  -17.7818   23.7628 C   0  0  0  0  0  0  0  0  0  0  0  0
   11.5890  -16.6194   22.8429 C   0  0  2  0  0  0  0  0  0  0  0  0
   10.2210  -16.4196   22.3874 N   0  0  0  0  0  0  0  0  0  0  0  0
   12.5530  -16.5583   21.7438 C   0  0  0  0  0  0  0  0  0  0  0  0
   13.8150  -16.6101   21.9935 O   0  0  0  0  0  0  0  0  0  0  0  0
   12.2667  -16.4488   20.3956 O   0  0  0  0  0  0  0  0  0  0  0  0
  2  1  1  0
  3  4  1  0
  3  2  1  0
  4  5  1  0
  5  6  1  1
  7  5  1  0
  7  8  2  0
  9 10  1  0
 10 12  1  0
 10 11  2  0
 12 13  1  0
 14 13  1  6
 14 15  1  0
 15  7  1  0
 16 14  1  0
 17 16  2  0
 19 20  2  0
 19 18  1  0
 21 19  1  0
 22 21  1  0
 23 22  1  6
 23 24  1  0
 24 16  1  0
 25 23  1  0
 26 25  2  0
 27 25  1  0
M  END
$$$$
