GQQ.pdb
     RDKit          3D

 23 22  0  0  1  0  0  0  0  0999 V2000
   10.4594  -18.0261   18.5996 N   0  0  0  0  0  0  0  0  0  0  0  0
   10.0422  -18.9801   19.6032 C   0  0  0  0  0  0  0  0  0  0  0  0
    9.3437  -18.2641   20.7104 C   0  0  0  0  0  0  0  0  0  0  0  0
    9.0416  -17.0337   20.6192 O   0  0  0  0  0  0  0  0  0  0  0  0
    6.0024  -19.5859   25.7112 N   0  0  0  0  0  0  0  0  0  0  0  0
    6.7018  -20.6386   25.0836 C   0  0  0  0  0  0  0  0  0  0  0  0
    6.8545  -21.7214   25.6610 O   0  0  0  0  0  0  0  0  0  0  0  0
    7.2501  -20.4260   23.7223 C   0  0  0  0  0  0  0  0  0  0  0  0
    6.9808  -19.0253   23.2961 C   0  0  0  0  0  0  0  0  0  0  0  0
    8.2104  -18.2785   22.9598 C   0  0  2  0  0  0  0  0  0  0  0  0
    8.9857  -18.9138   21.9075 N   0  0  0  0  0  0  0  0  0  0  0  0
    9.1530  -18.0277   24.0674 C   0  0  0  0  0  0  0  0  0  0  0  0
   10.1952  -18.7083   24.1864 O   0  0  0  0  0  0  0  0  0  0  0  0
   10.5433  -14.0258   30.1910 N   0  0  0  0  0  0  0  0  0  0  0  0
   10.0690  -14.0781   28.8504 C   0  0  0  0  0  0  0  0  0  0  0  0
    9.3076  -13.1645   28.4465 O   0  0  0  0  0  0  0  0  0  0  0  0
   10.5225  -15.2283   28.0310 C   0  0  0  0  0  0  0  0  0  0  0  0
    9.5782  -15.5898   26.9164 C   0  0  0  0  0  0  0  0  0  0  0  0
    9.9598  -16.7857   26.1164 C   0  0  2  0  0  0  0  0  0  0  0  0
    8.9540  -17.0177   25.0605 N   0  0  0  0  0  0  0  0  0  0  0  0
    9.9984  -17.9763   26.9915 C   0  0  0  0  0  0  0  0  0  0  0  0
   11.1203  -18.4183   27.6654 O   0  0  0  0  0  0  0  0  0  0  0  0
    8.9095  -18.6333   27.1229 O   0  0  0  0  0  0  0  0  0  0  0  0
  2  1  1  0
  3  2  1  0
  3  4  2  0
  5  6  1  0
  6  7  2  0
  8  9  1  0
  8  6  1  0
 10  9  1  1
 10 11  1  0
 10 12  1  0
 11  3  1  0
 12 13  2  0
 12 20  1  0
 15 17  1  0
 15 14  1  0
 16 15  2  0
 19 18  1  1
 18 17  1  0
 19 21  1  0
 20 19  1  0
 21 23  2  0
 21 22  1  0
M  END
$$$$
