GQQ.pdb
     RDKit          3D

 23 22  0  0  1  0  0  0  0  0999 V2000
    3.8390  -19.6462   21.7619 N   0  0  0  0  0  0  0  0  0  0  0  0
    3.7969  -18.2268   22.0358 C   0  0  0  0  0  0  0  0  0  0  0  0
    5.1799  -17.6692   21.9852 C   0  0  0  0  0  0  0  0  0  0  0  0
    6.2012  -18.4122   22.1207 O   0  0  0  0  0  0  0  0  0  0  0  0
    7.3192  -13.1715   18.7683 N   0  0  0  0  0  0  0  0  0  0  0  0
    8.3875  -13.1996   19.6898 C   0  0  0  0  0  0  0  0  0  0  0  0
    9.4764  -12.6885   19.4028 O   0  0  0  0  0  0  0  0  0  0  0  0
    8.1839  -13.8510   21.0064 C   0  0  0  0  0  0  0  0  0  0  0  0
    6.8100  -14.4210   21.0666 C   0  0  0  0  0  0  0  0  0  0  0  0
    6.7524  -15.7118   21.7831 C   0  0  2  0  0  0  0  0  0  0  0  0
    5.4218  -16.2962   21.7855 N   0  0  0  0  0  0  0  0  0  0  0  0
    7.1985  -15.7054   23.1899 C   0  0  0  0  0  0  0  0  0  0  0  0
    6.4431  -15.2960   24.0983 O   0  0  0  0  0  0  0  0  0  0  0  0
    8.0459  -19.9892   26.6496 N   0  0  0  0  0  0  0  0  0  0  0  0
    8.6378  -19.0753   27.5657 C   0  0  0  0  0  0  0  0  0  0  0  0
    8.8990  -19.4740   28.7277 O   0  0  0  0  0  0  0  0  0  0  0  0
    8.8993  -17.7056   27.0602 C   0  0  0  0  0  0  0  0  0  0  0  0
    8.4933  -17.4996   25.6258 C   0  0  0  0  0  0  0  0  0  0  0  0
    8.8532  -16.1785   25.0418 C   0  0  2  0  0  0  0  0  0  0  0  0
    8.4901  -16.1533   23.6108 N   0  0  0  0  0  0  0  0  0  0  0  0
   10.3116  -15.9666   25.1554 C   0  0  0  0  0  0  0  0  0  0  0  0
   11.1832  -15.9203   24.0847 O   0  0  0  0  0  0  0  0  0  0  0  0
   10.7847  -15.8188   26.3340 O   0  0  0  0  0  0  0  0  0  0  0  0
  2  1  1  0
  3  2  1  0
  3  4  2  0
  5  6  1  0
  6  7  2  0
  8  9  1  0
  8  6  1  0
 10  9  1  1
 10 11  1  0
 10 12  1  0
 11  3  1  0
 12 13  2  0
 12 20  1  0
 15 17  1  0
 15 14  1  0
 16 15  2  0
 19 18  1  6
 18 17  1  0
 19 21  1  0
 20 19  1  0
 21 23  2  0
 21 22  1  0
M  END
$$$$
