GQQ.pdb
     RDKit          3D

 23 22  0  0  1  0  0  0  0  0999 V2000
    8.4562  -11.8820   18.9819 N   0  0  0  0  0  0  0  0  0  0  0  0
    8.7094  -13.2991   19.1201 C   0  0  0  0  0  0  0  0  0  0  0  0
    8.1919  -13.7708   20.4377 C   0  0  0  0  0  0  0  0  0  0  0  0
    7.7236  -12.9602   21.2962 O   0  0  0  0  0  0  0  0  0  0  0  0
    4.9876  -18.3898   20.6645 N   0  0  0  0  0  0  0  0  0  0  0  0
    6.3362  -18.6475   20.3389 C   0  0  0  0  0  0  0  0  0  0  0  0
    6.6250  -19.5097   19.5009 O   0  0  0  0  0  0  0  0  0  0  0  0
    7.4006  -17.8687   21.0170 C   0  0  0  0  0  0  0  0  0  0  0  0
    6.7767  -16.8105   21.8580 C   0  0  0  0  0  0  0  0  0  0  0  0
    7.6496  -15.6333   22.0446 C   0  0  2  0  0  0  0  0  0  0  0  0
    8.1965  -15.1333   20.7944 N   0  0  0  0  0  0  0  0  0  0  0  0
    8.7989  -15.8024   22.9549 C   0  0  0  0  0  0  0  0  0  0  0  0
    9.9561  -15.9465   22.5036 O   0  0  0  0  0  0  0  0  0  0  0  0
   10.2415  -13.3948   29.3538 N   0  0  0  0  0  0  0  0  0  0  0  0
   10.1232  -14.7591   28.9673 C   0  0  0  0  0  0  0  0  0  0  0  0
    9.6456  -15.5776   29.7915 O   0  0  0  0  0  0  0  0  0  0  0  0
   10.5832  -15.1032   27.5998 C   0  0  0  0  0  0  0  0  0  0  0  0
    9.4672  -15.2352   26.5988 C   0  0  0  0  0  0  0  0  0  0  0  0
    9.8763  -15.6809   25.2387 C   0  0  2  0  0  0  0  0  0  0  0  0
    8.6822  -15.8143   24.3804 N   0  0  0  0  0  0  0  0  0  0  0  0
   10.5357  -17.0009   25.3267 C   0  0  0  0  0  0  0  0  0  0  0  0
   11.8908  -17.1895   25.5167 O   0  0  0  0  0  0  0  0  0  0  0  0
    9.7859  -18.0306   25.2160 O   0  0  0  0  0  0  0  0  0  0  0  0
  2  1  1  0
  3  2  1  0
  3  4  2  0
  5  6  1  0
  6  7  2  0
  8  9  1  0
  8  6  1  0
 10  9  1  6
 10 11  1  0
 10 12  1  0
 11  3  1  0
 12 13  2  0
 12 20  1  0
 15 17  1  0
 15 14  1  0
 16 15  2  0
 19 18  1  1
 18 17  1  0
 19 21  1  0
 20 19  1  0
 21 23  2  0
 21 22  1  0
M  END
$$$$
