GQQ.pdb
     RDKit          3D

 23 22  0  0  1  0  0  0  0  0999 V2000
    4.3222  -18.1888   20.3655 N   0  0  0  0  0  0  0  0  0  0  0  0
    4.5846  -17.0698   21.2432 C   0  0  0  0  0  0  0  0  0  0  0  0
    5.9830  -16.5924   21.0362 C   0  0  0  0  0  0  0  0  0  0  0  0
    6.8672  -17.3355   20.5076 O   0  0  0  0  0  0  0  0  0  0  0  0
    7.2649  -13.8794   17.5447 N   0  0  0  0  0  0  0  0  0  0  0  0
    7.9369  -13.3160   18.6502 C   0  0  0  0  0  0  0  0  0  0  0  0
    9.1675  -13.1952   18.6407 O   0  0  0  0  0  0  0  0  0  0  0  0
    7.1446  -12.8715   19.8224 C   0  0  0  0  0  0  0  0  0  0  0  0
    7.8069  -13.3397   21.0707 C   0  0  0  0  0  0  0  0  0  0  0  0
    7.7474  -14.8062   21.2396 C   0  0  2  0  0  0  0  0  0  0  0  0
    6.3915  -15.2989   21.4149 N   0  0  0  0  0  0  0  0  0  0  0  0
    8.5355  -15.3744   22.3506 C   0  0  0  0  0  0  0  0  0  0  0  0
    8.1591  -15.2403   23.5354 O   0  0  0  0  0  0  0  0  0  0  0  0
    9.1678  -19.6558   21.4454 N   0  0  0  0  0  0  0  0  0  0  0  0
    9.0481  -19.9086   22.8406 C   0  0  0  0  0  0  0  0  0  0  0  0
    8.2006  -20.7507   23.2279 O   0  0  0  0  0  0  0  0  0  0  0  0
    9.9506  -19.1414   23.7333 C   0  0  0  0  0  0  0  0  0  0  0  0
   10.7898  -18.1190   23.0155 C   0  0  0  0  0  0  0  0  0  0  0  0
   10.4621  -16.6979   23.3139 C   0  0  2  0  0  0  0  0  0  0  0  0
    9.7538  -16.1003   22.1643 N   0  0  0  0  0  0  0  0  0  0  0  0
   11.7097  -15.9376   23.5378 C   0  0  0  0  0  0  0  0  0  0  0  0
   12.5370  -16.0930   24.6331 O   0  0  0  0  0  0  0  0  0  0  0  0
   12.0316  -15.0787   22.6471 O   0  0  0  0  0  0  0  0  0  0  0  0
  2  1  1  0
  3  2  1  0
  3  4  2  0
  5  6  1  0
  6  7  2  0
  8  9  1  0
  8  6  1  0
 10  9  1  1
 10 11  1  0
 10 12  1  0
 11  3  1  0
 12 13  2  0
 12 20  1  0
 15 17  1  0
 15 14  1  0
 16 15  2  0
 19 18  1  6
 18 17  1  0
 19 21  1  0
 20 19  1  0
 21 23  2  0
 21 22  1  0
M  END
$$$$
