GQQ.pdb
     RDKit          3D

 23 22  0  0  1  0  0  0  0  0999 V2000
    4.9644  -19.3383   21.0857 N   0  0  0  0  0  0  0  0  0  0  0  0
    4.8705  -18.0054   21.6390 C   0  0  0  0  0  0  0  0  0  0  0  0
    6.0361  -17.1938   21.1819 C   0  0  0  0  0  0  0  0  0  0  0  0
    6.9964  -17.7160   20.5350 O   0  0  0  0  0  0  0  0  0  0  0  0
    7.6731  -12.7972   17.8801 N   0  0  0  0  0  0  0  0  0  0  0  0
    8.4959  -13.2051   18.9514 C   0  0  0  0  0  0  0  0  0  0  0  0
    9.5111  -13.8789   18.7407 O   0  0  0  0  0  0  0  0  0  0  0  0
    8.1242  -12.8132   20.3325 C   0  0  0  0  0  0  0  0  0  0  0  0
    6.9482  -13.6134   20.7718 C   0  0  0  0  0  0  0  0  0  0  0  0
    7.2926  -15.0122   21.0993 C   0  0  2  0  0  0  0  0  0  0  0  0
    6.1299  -15.8132   21.4438 N   0  0  0  0  0  0  0  0  0  0  0  0
    8.2654  -15.2134   22.1907 C   0  0  0  0  0  0  0  0  0  0  0  0
    7.9706  -14.9249   23.3711 O   0  0  0  0  0  0  0  0  0  0  0  0
   10.6262  -19.2546   26.6089 N   0  0  0  0  0  0  0  0  0  0  0  0
   11.0093  -19.1477   25.2427 C   0  0  0  0  0  0  0  0  0  0  0  0
   11.1148  -20.1995   24.5643 O   0  0  0  0  0  0  0  0  0  0  0  0
   11.2562  -17.7786   24.7283 C   0  0  0  0  0  0  0  0  0  0  0  0
   10.3111  -17.3613   23.6340 C   0  0  0  0  0  0  0  0  0  0  0  0
   10.4860  -15.9706   23.1327 C   0  0  2  0  0  0  0  0  0  0  0  0
    9.5808  -15.7380   21.9895 N   0  0  0  0  0  0  0  0  0  0  0  0
   11.8771  -15.7812   22.6704 C   0  0  0  0  0  0  0  0  0  0  0  0
   12.2457  -15.5791   21.3546 O   0  0  0  0  0  0  0  0  0  0  0  0
   12.7923  -15.8105   23.5628 O   0  0  0  0  0  0  0  0  0  0  0  0
  2  1  1  0
  3  2  1  0
  3  4  2  0
  5  6  1  0
  6  7  2  0
  8  9  1  0
  8  6  1  0
 10  9  1  1
 10 11  1  0
 10 12  1  0
 11  3  1  0
 12 13  2  0
 12 20  1  0
 15 17  1  0
 15 14  1  0
 16 15  2  0
 19 18  1  6
 18 17  1  0
 19 21  1  0
 20 19  1  0
 21 23  2  0
 21 22  1  0
M  END
$$$$
