GQQ.pdb
     RDKit          3D

 23 22  0  0  1  0  0  0  0  0999 V2000
    8.9159  -16.4290   18.1939 N   0  0  0  0  0  0  0  0  0  0  0  0
    9.5623  -16.5956   19.4768 C   0  0  0  0  0  0  0  0  0  0  0  0
    8.5570  -16.4252   20.5662 C   0  0  0  0  0  0  0  0  0  0  0  0
    7.4812  -15.7755   20.3817 O   0  0  0  0  0  0  0  0  0  0  0  0
    5.9894  -20.3212   24.0730 N   0  0  0  0  0  0  0  0  0  0  0  0
    7.3933  -20.3812   23.9435 C   0  0  0  0  0  0  0  0  0  0  0  0
    8.0003  -21.4321   24.1811 O   0  0  0  0  0  0  0  0  0  0  0  0
    8.1284  -19.1654   23.5185 C   0  0  0  0  0  0  0  0  0  0  0  0
    7.1707  -18.0342   23.3798 C   0  0  0  0  0  0  0  0  0  0  0  0
    7.8198  -16.7790   22.9487 C   0  0  2  0  0  0  0  0  0  0  0  0
    8.7495  -16.9741   21.8488 N   0  0  0  0  0  0  0  0  0  0  0  0
    8.5611  -16.0312   23.9828 C   0  0  0  0  0  0  0  0  0  0  0  0
    9.7987  -16.1628   24.1031 O   0  0  0  0  0  0  0  0  0  0  0  0
    5.9846  -11.8726   27.8268 N   0  0  0  0  0  0  0  0  0  0  0  0
    6.1658  -11.6274   26.4369 C   0  0  0  0  0  0  0  0  0  0  0  0
    5.5259  -10.6869   25.9044 O   0  0  0  0  0  0  0  0  0  0  0  0
    7.1116  -12.5202   25.7238 C   0  0  0  0  0  0  0  0  0  0  0  0
    7.8882  -13.4333   26.6337 C   0  0  0  0  0  0  0  0  0  0  0  0
    8.7306  -14.4529   25.9505 C   0  0  2  0  0  0  0  0  0  0  0  0
    7.9407  -15.1255   24.8997 N   0  0  0  0  0  0  0  0  0  0  0  0
    9.1669  -15.4719   26.9284 C   0  0  0  0  0  0  0  0  0  0  0  0
   10.2238  -15.3167   27.8041 O   0  0  0  0  0  0  0  0  0  0  0  0
    8.5108  -16.5690   26.9523 O   0  0  0  0  0  0  0  0  0  0  0  0
  2  1  1  0
  3  2  1  0
  3  4  2  0
  5  6  1  0
  6  7  2  0
  8  9  1  0
  8  6  1  0
 10  9  1  1
 10 11  1  0
 10 12  1  0
 11  3  1  0
 12 13  2  0
 12 20  1  0
 15 17  1  0
 15 14  1  0
 16 15  2  0
 19 18  1  1
 18 17  1  0
 19 21  1  0
 20 19  1  0
 21 23  2  0
 21 22  1  0
M  END
$$$$
