GQQ.pdb
     RDKit          3D

 23 22  0  0  1  0  0  0  0  0999 V2000
    7.9196  -11.9578   19.5929 N   0  0  0  0  0  0  0  0  0  0  0  0
    8.5284  -13.2673   19.5146 C   0  0  0  0  0  0  0  0  0  0  0  0
    8.1168  -14.0787   20.6972 C   0  0  0  0  0  0  0  0  0  0  0  0
    7.4326  -13.5761   21.6421 O   0  0  0  0  0  0  0  0  0  0  0  0
    5.7697  -17.9042   23.3727 N   0  0  0  0  0  0  0  0  0  0  0  0
    5.3264  -17.8368   22.0347 C   0  0  0  0  0  0  0  0  0  0  0  0
    4.1184  -17.8685   21.7724 O   0  0  0  0  0  0  0  0  0  0  0  0
    6.3312  -17.7275   20.9495 C   0  0  0  0  0  0  0  0  0  0  0  0
    7.6923  -17.6383   21.5457 C   0  0  0  0  0  0  0  0  0  0  0  0
    8.0564  -16.2642   21.9481 C   0  0  2  0  0  0  0  0  0  0  0  0
    8.4648  -15.4374   20.8249 N   0  0  0  0  0  0  0  0  0  0  0  0
    9.1227  -16.1343   22.9602 C   0  0  0  0  0  0  0  0  0  0  0  0
   10.3267  -16.2266   22.6357 O   0  0  0  0  0  0  0  0  0  0  0  0
   10.8389  -14.3189   30.0102 N   0  0  0  0  0  0  0  0  0  0  0  0
   10.0727  -14.2186   28.8154 C   0  0  0  0  0  0  0  0  0  0  0  0
    9.1140  -13.4078   28.7829 O   0  0  0  0  0  0  0  0  0  0  0  0
   10.4792  -15.0967   27.6913 C   0  0  0  0  0  0  0  0  0  0  0  0
    9.5516  -15.0371   26.5078 C   0  0  0  0  0  0  0  0  0  0  0  0
    9.9810  -15.8211   25.3175 C   0  0  2  0  0  0  0  0  0  0  0  0
    8.8697  -15.9001   24.3484 N   0  0  0  0  0  0  0  0  0  0  0  0
   10.3365  -17.1952   25.7304 C   0  0  0  0  0  0  0  0  0  0  0  0
    9.4441  -18.2468   25.8068 O   0  0  0  0  0  0  0  0  0  0  0  0
   11.5593  -17.4091   26.0364 O   0  0  0  0  0  0  0  0  0  0  0  0
  2  1  1  0
  3  2  1  0
  3  4  2  0
  5  6  1  0
  6  7  2  0
  8  9  1  0
  8  6  1  0
 10  9  1  6
 10 11  1  0
 10 12  1  0
 11  3  1  0
 12 13  2  0
 12 20  1  0
 15 17  1  0
 15 14  1  0
 16 15  2  0
 19 18  1  1
 18 17  1  0
 19 21  1  0
 20 19  1  0
 21 23  2  0
 21 22  1  0
M  END
$$$$
