HYS.pdb
     RDKit          3D

 29 30  0  0  1  0  0  0  0  0999 V2000
   10.7651  -14.0153   19.8617 N   0  0  0  0  0  0  0  0  0  0  0  0
    9.6525  -14.2246   20.7301 C   0  0  1  0  0  0  0  0  0  0  0  0
    8.6863  -15.2047   20.0730 C   0  0  0  0  0  0  0  0  0  0  0  0
    8.1560  -14.5713   18.8373 C   0  0  0  0  0  0  0  0  0  0  0  0
    8.4855  -13.3434   18.3272 C   0  0  0  0  0  0  0  0  0  0  0  0
    7.7729  -13.1460   17.1819 N   0  0  0  0  0  0  0  0  0  0  0  0
    7.0185  -14.2202   16.9808 C   0  0  0  0  0  0  0  0  0  0  0  0
    7.2398  -15.0938   17.9766 N   0  0  0  0  0  0  0  0  0  0  0  0
   10.0418  -14.6985   22.0816 C   0  0  0  0  0  0  0  0  0  0  0  0
   11.1331  -15.3038   22.1990 O   0  0  0  0  0  0  0  0  0  0  0  0
   10.3555  -15.7293   30.7132 O   0  0  0  0  0  0  0  0  0  0  0  0
    9.9530  -15.3421   29.4329 C   0  0  0  0  0  0  0  0  0  0  0  0
    9.0507  -16.0744   28.6898 C   0  0  0  0  0  0  0  0  0  0  0  0
    8.6696  -15.6710   27.4288 C   0  0  0  0  0  0  0  0  0  0  0  0
    9.1762  -14.5122   26.8523 C   0  0  0  0  0  0  0  0  0  0  0  0
    8.7400  -14.1084   25.4897 C   0  0  0  0  0  0  0  0  0  0  0  0
    9.5593  -14.8323   24.4871 C   0  0  2  0  0  0  0  0  0  0  0  0
    9.1527  -14.4359   23.1571 N   0  0  0  0  0  0  0  0  0  0  0  0
    9.5543  -16.2874   24.5775 C   0  0  0  0  0  0  0  0  0  0  0  0
    8.5020  -16.9170   24.3207 O   0  0  0  0  0  0  0  0  0  0  0  0
   10.0757  -13.7958   27.6112 C   0  0  0  0  0  0  0  0  0  0  0  0
   10.4587  -14.1988   28.8754 C   0  0  0  0  0  0  0  0  0  0  0  0
   11.1375  -18.5690   22.8461 O   0  0  0  0  0  0  0  0  0  0  0  0
   11.3117  -19.2514   24.0382 C   0  0  0  0  0  0  0  0  0  0  0  0
   10.5737  -18.4987   25.1239 C   0  0  2  0  0  0  0  0  0  0  0  0
   10.6814  -17.0732   24.9446 N   0  0  0  0  0  0  0  0  0  0  0  0
   11.1317  -18.8531   26.4428 C   0  0  0  0  0  0  0  0  0  0  0  0
   11.1393  -20.0481   26.8161 O   0  0  0  0  0  0  0  0  0  0  0  0
   11.6469  -17.8489   27.2633 O   0  0  0  0  0  0  0  0  0  0  0  0
  2  1  1  6
  2  9  1  0
  3  2  1  0
  3  4  1  0
  4  5  2  0
  4  8  1  0
  5  6  1  0
  6  7  1  0
  8  7  2  0
  9 18  1  0
  9 10  2  0
 11 12  1  0
 12 22  2  0
 13 12  1  0
 13 14  2  0
 14 15  1  0
 15 21  2  0
 15 16  1  0
 17 16  1  1
 18 17  1  0
 19 17  1  0
 19 20  2  0
 22 21  1  0
 23 24  1  0
 25 24  1  6
 25 26  1  0
 26 19  1  0
 27 25  1  0
 28 27  2  0
 29 27  1  0
M  END
$$$$
