HYS.pdb
     RDKit          3D

 29 30  0  0  1  0  0  0  0  0999 V2000
   10.8155  -14.9540   19.9908 N   0  0  0  0  0  0  0  0  0  0  0  0
    9.8172  -14.6711   20.9702 C   0  0  1  0  0  0  0  0  0  0  0  0
    8.5017  -15.3107   20.5384 C   0  0  0  0  0  0  0  0  0  0  0  0
    7.8867  -14.4440   19.4992 C   0  0  0  0  0  0  0  0  0  0  0  0
    8.4334  -13.3312   18.9168 C   0  0  0  0  0  0  0  0  0  0  0  0
    7.5405  -12.8323   18.0155 N   0  0  0  0  0  0  0  0  0  0  0  0
    6.4649  -13.6111   18.0333 C   0  0  0  0  0  0  0  0  0  0  0  0
    6.6597  -14.5932   18.9285 N   0  0  0  0  0  0  0  0  0  0  0  0
   10.1914  -15.1129   22.3368 C   0  0  0  0  0  0  0  0  0  0  0  0
   11.2407  -15.7858   22.4688 O   0  0  0  0  0  0  0  0  0  0  0  0
   10.7338  -15.5341   31.0014 O   0  0  0  0  0  0  0  0  0  0  0  0
   10.2871  -15.2424   29.7106 C   0  0  0  0  0  0  0  0  0  0  0  0
   10.6499  -14.0887   29.0471 C   0  0  0  0  0  0  0  0  0  0  0  0
   10.1956  -13.8239   27.7737 C   0  0  0  0  0  0  0  0  0  0  0  0
    9.3546  -14.7051   27.1042 C   0  0  0  0  0  0  0  0  0  0  0  0
    8.8861  -14.3854   25.7299 C   0  0  0  0  0  0  0  0  0  0  0  0
    9.7354  -15.1072   24.7511 C   0  0  2  0  0  0  0  0  0  0  0  0
    9.3365  -14.7451   23.4092 N   0  0  0  0  0  0  0  0  0  0  0  0
    9.7646  -16.5601   24.8683 C   0  0  0  0  0  0  0  0  0  0  0  0
    8.7539  -17.2248   24.5425 O   0  0  0  0  0  0  0  0  0  0  0  0
    9.0046  -15.8508   27.7845 C   0  0  0  0  0  0  0  0  0  0  0  0
    9.4591  -16.1177   29.0610 C   0  0  0  0  0  0  0  0  0  0  0  0
   11.5545  -20.7663   24.4808 O   0  0  0  0  0  0  0  0  0  0  0  0
   11.5703  -19.3965   24.2795 C   0  0  0  0  0  0  0  0  0  0  0  0
   10.8359  -18.7429   25.4299 C   0  0  2  0  0  0  0  0  0  0  0  0
   10.8813  -17.3059   25.3368 N   0  0  0  0  0  0  0  0  0  0  0  0
   11.4471  -19.1536   26.7083 C   0  0  0  0  0  0  0  0  0  0  0  0
   11.5032  -20.3671   27.0112 O   0  0  0  0  0  0  0  0  0  0  0  0
   11.9579  -18.1818   27.5694 O   0  0  0  0  0  0  0  0  0  0  0  0
  2  1  1  6
  2  9  1  0
  3  2  1  0
  3  4  1  0
  4  5  2  0
  4  8  1  0
  5  6  1  0
  6  7  1  0
  8  7  2  0
  9 18  1  0
  9 10  2  0
 11 12  1  0
 12 22  2  0
 13 12  1  0
 13 14  2  0
 14 15  1  0
 15 21  2  0
 15 16  1  0
 17 16  1  1
 18 17  1  0
 19 17  1  0
 19 20  2  0
 22 21  1  0
 23 24  1  0
 25 24  1  6
 25 26  1  0
 26 19  1  0
 27 25  1  0
 28 27  2  0
 29 27  1  0
M  END
$$$$
