HYS.pdb
     RDKit          3D

 29 30  0  0  1  0  0  0  0  0999 V2000
    8.3080  -16.2743   20.9086 N   0  0  0  0  0  0  0  0  0  0  0  0
    8.8530  -15.0526   21.4048 C   0  0  1  0  0  0  0  0  0  0  0  0
    8.0193  -13.8876   20.8819 C   0  0  0  0  0  0  0  0  0  0  0  0
    8.1230  -13.8751   19.3991 C   0  0  0  0  0  0  0  0  0  0  0  0
    8.8051  -12.9763   18.6225 C   0  0  0  0  0  0  0  0  0  0  0  0
    8.6434  -13.3251   17.3146 N   0  0  0  0  0  0  0  0  0  0  0  0
    7.8814  -14.4119   17.2737 C   0  0  0  0  0  0  0  0  0  0  0  0
    7.5575  -14.7578   18.5304 N   0  0  0  0  0  0  0  0  0  0  0  0
    8.9460  -15.0080   22.8855 C   0  0  0  0  0  0  0  0  0  0  0  0
    9.6477  -14.1069   23.4020 O   0  0  0  0  0  0  0  0  0  0  0  0
    6.6378  -10.4441   27.1998 O   0  0  0  0  0  0  0  0  0  0  0  0
    6.7930  -11.7896   26.8585 C   0  0  0  0  0  0  0  0  0  0  0  0
    7.9748  -12.4712   27.0626 C   0  0  0  0  0  0  0  0  0  0  0  0
    8.1026  -13.7988   26.7171 C   0  0  0  0  0  0  0  0  0  0  0  0
    7.0497  -14.5068   26.1497 C   0  0  0  0  0  0  0  0  0  0  0  0
    7.2252  -15.9389   25.7914 C   0  0  0  0  0  0  0  0  0  0  0  0
    8.4955  -16.0961   25.0419 C   0  0  2  0  0  0  0  0  0  0  0  0
    8.2335  -15.9896   23.6237 N   0  0  0  0  0  0  0  0  0  0  0  0
    9.2520  -17.3152   25.3006 C   0  0  0  0  0  0  0  0  0  0  0  0
    8.8005  -18.4156   24.9072 O   0  0  0  0  0  0  0  0  0  0  0  0
    5.8788  -13.8075   25.9545 C   0  0  0  0  0  0  0  0  0  0  0  0
    5.7490  -12.4766   26.3002 C   0  0  0  0  0  0  0  0  0  0  0  0
   13.2060  -17.5186   26.0947 O   0  0  0  0  0  0  0  0  0  0  0  0
   12.5382  -18.6760   25.7317 C   0  0  0  0  0  0  0  0  0  0  0  0
   11.1373  -18.6094   26.3000 C   0  0  2  0  0  0  0  0  0  0  0  0
   10.4985  -17.3571   25.9842 N   0  0  0  0  0  0  0  0  0  0  0  0
   11.1875  -18.7581   27.7669 C   0  0  0  0  0  0  0  0  0  0  0  0
   10.7197  -17.8585   28.5013 O   0  0  0  0  0  0  0  0  0  0  0  0
   11.7578  -19.9041   28.3223 O   0  0  0  0  0  0  0  0  0  0  0  0
  2  1  1  1
  2  9  1  0
  3  2  1  0
  3  4  1  0
  4  5  2  0
  4  8  1  0
  5  6  1  0
  6  7  1  0
  8  7  2  0
  9 18  1  0
  9 10  2  0
 11 12  1  0
 12 22  2  0
 13 12  1  0
 13 14  2  0
 14 15  1  0
 15 21  2  0
 15 16  1  0
 17 16  1  1
 18 17  1  0
 19 17  1  0
 19 20  2  0
 22 21  1  0
 23 24  1  0
 25 24  1  1
 25 26  1  0
 26 19  1  0
 27 25  1  0
 28 27  2  0
 29 27  1  0
M  END
$$$$
