HYS.pdb
     RDKit          3D

 29 30  0  0  1  0  0  0  0  0999 V2000
   10.6986  -17.0509   19.2200 N   0  0  0  0  0  0  0  0  0  0  0  0
    9.6888  -17.4228   20.1569 C   0  0  1  0  0  0  0  0  0  0  0  0
    9.8246  -18.9092   20.4704 C   0  0  0  0  0  0  0  0  0  0  0  0
    9.4166  -19.6744   19.2632 C   0  0  0  0  0  0  0  0  0  0  0  0
    9.0451  -19.1678   18.0459 C   0  0  0  0  0  0  0  0  0  0  0  0
    8.7489  -20.2087   17.2169 N   0  0  0  0  0  0  0  0  0  0  0  0
    8.9299  -21.3352   17.8962 C   0  0  0  0  0  0  0  0  0  0  0  0
    9.3350  -21.0276   19.1393 N   0  0  0  0  0  0  0  0  0  0  0  0
    9.7184  -16.6189   21.4042 C   0  0  0  0  0  0  0  0  0  0  0  0
   10.8301  -16.2041   21.8082 O   0  0  0  0  0  0  0  0  0  0  0  0
    7.1247  -11.5997   28.0275 O   0  0  0  0  0  0  0  0  0  0  0  0
    7.1332  -12.3904   26.8761 C   0  0  0  0  0  0  0  0  0  0  0  0
    7.4610  -11.8843   25.6355 C   0  0  0  0  0  0  0  0  0  0  0  0
    7.4620  -12.6852   24.5146 C   0  0  0  0  0  0  0  0  0  0  0  0
    7.1337  -14.0340   24.5848 C   0  0  0  0  0  0  0  0  0  0  0  0
    7.1472  -14.8669   23.3534 C   0  0  0  0  0  0  0  0  0  0  0  0
    8.4890  -15.4808   23.2014 C   0  0  2  0  0  0  0  0  0  0  0  0
    8.4845  -16.3704   22.0614 N   0  0  0  0  0  0  0  0  0  0  0  0
    9.0102  -16.1908   24.3632 C   0  0  0  0  0  0  0  0  0  0  0  0
    8.6007  -17.3483   24.6126 O   0  0  0  0  0  0  0  0  0  0  0  0
    6.8096  -14.5192   25.8328 C   0  0  0  0  0  0  0  0  0  0  0  0
    6.8082  -13.7176   26.9575 C   0  0  0  0  0  0  0  0  0  0  0  0
   12.5929  -16.8832   27.4550 O   0  0  0  0  0  0  0  0  0  0  0  0
   12.0740  -16.1195   26.4232 C   0  0  0  0  0  0  0  0  0  0  0  0
   10.6175  -16.4913   26.2484 C   0  0  2  0  0  0  0  0  0  0  0  0
    9.9749  -15.6595   25.2631 N   0  0  0  0  0  0  0  0  0  0  0  0
    9.9072  -16.3387   27.5323 C   0  0  0  0  0  0  0  0  0  0  0  0
    9.0332  -15.4514   27.6598 O   0  0  0  0  0  0  0  0  0  0  0  0
   10.2180  -17.1880   28.5949 O   0  0  0  0  0  0  0  0  0  0  0  0
  2  1  1  6
  2  9  1  0
  3  2  1  0
  3  4  1  0
  4  5  2  0
  4  8  1  0
  5  6  1  0
  6  7  1  0
  8  7  2  0
  9 18  1  0
  9 10  2  0
 11 12  1  0
 12 22  2  0
 13 12  1  0
 13 14  2  0
 14 15  1  0
 15 21  2  0
 15 16  1  0
 17 16  1  1
 18 17  1  0
 19 17  1  0
 19 20  2  0
 22 21  1  0
 23 24  1  0
 25 24  1  1
 25 26  1  0
 26 19  1  0
 27 25  1  0
 28 27  2  0
 29 27  1  0
M  END
$$$$
