HYS.pdb
     RDKit          3D

 29 30  0  0  1  0  0  0  0  0999 V2000
   10.4386  -13.3842   20.3656 N   0  0  0  0  0  0  0  0  0  0  0  0
    9.3510  -14.1418   20.8937 C   0  0  1  0  0  0  0  0  0  0  0  0
    9.0831  -15.3318   19.9783 C   0  0  0  0  0  0  0  0  0  0  0  0
    8.6288  -14.8089   18.6631 C   0  0  0  0  0  0  0  0  0  0  0  0
    8.5734  -13.4994   18.2650 C   0  0  0  0  0  0  0  0  0  0  0  0
    8.0991  -13.4557   16.9877 N   0  0  0  0  0  0  0  0  0  0  0  0
    7.8643  -14.7031   16.5972 C   0  0  0  0  0  0  0  0  0  0  0  0
    8.1807  -15.5354   17.6026 N   0  0  0  0  0  0  0  0  0  0  0  0
    9.5717  -14.5936   22.2902 C   0  0  0  0  0  0  0  0  0  0  0  0
   10.7364  -14.5321   22.7493 O   0  0  0  0  0  0  0  0  0  0  0  0
    6.5911  -10.1980   27.3411 O   0  0  0  0  0  0  0  0  0  0  0  0
    6.7653  -11.4692   26.7891 C   0  0  0  0  0  0  0  0  0  0  0  0
    5.8978  -11.9926   25.8530 C   0  0  0  0  0  0  0  0  0  0  0  0
    6.0916  -13.2496   25.3235 C   0  0  0  0  0  0  0  0  0  0  0  0
    7.1664  -14.0426   25.7083 C   0  0  0  0  0  0  0  0  0  0  0  0
    7.3432  -15.3936   25.1135 C   0  0  0  0  0  0  0  0  0  0  0  0
    8.6438  -15.4404   24.4018 C   0  0  2  0  0  0  0  0  0  0  0  0
    8.4485  -15.0674   23.0183 N   0  0  0  0  0  0  0  0  0  0  0  0
    9.3678  -16.7044   24.4612 C   0  0  0  0  0  0  0  0  0  0  0  0
    8.9353  -17.6927   23.8243 O   0  0  0  0  0  0  0  0  0  0  0  0
    8.0204  -13.5011   26.6440 C   0  0  0  0  0  0  0  0  0  0  0  0
    7.8275  -12.2412   27.1758 C   0  0  0  0  0  0  0  0  0  0  0  0
   13.1593  -19.4363   25.4220 O   0  0  0  0  0  0  0  0  0  0  0  0
   12.6650  -18.1458   25.3341 C   0  0  0  0  0  0  0  0  0  0  0  0
   11.1536  -18.2204   25.3219 C   0  0  2  0  0  0  0  0  0  0  0  0
   10.5614  -16.9120   25.2062 N   0  0  0  0  0  0  0  0  0  0  0  0
   10.6758  -18.8471   26.5691 C   0  0  0  0  0  0  0  0  0  0  0  0
    9.9248  -18.2080   27.3403 O   0  0  0  0  0  0  0  0  0  0  0  0
   11.0676  -20.1505   26.8770 O   0  0  0  0  0  0  0  0  0  0  0  0
  2  1  1  6
  2  9  1  0
  3  2  1  0
  3  4  1  0
  4  5  2  0
  4  8  1  0
  5  6  1  0
  6  7  1  0
  8  7  2  0
  9 18  1  0
  9 10  2  0
 11 12  1  0
 12 22  2  0
 13 12  1  0
 13 14  2  0
 14 15  1  0
 15 21  2  0
 15 16  1  0
 17 16  1  6
 18 17  1  0
 19 17  1  0
 19 20  2  0
 22 21  1  0
 23 24  1  0
 25 24  1  1
 25 26  1  0
 26 19  1  0
 27 25  1  0
 28 27  2  0
 29 27  1  0
M  END
$$$$
