HYS.pdb
     RDKit          3D

 29 30  0  0  1  0  0  0  0  0999 V2000
   10.7560  -16.1820   19.5136 N   0  0  0  0  0  0  0  0  0  0  0  0
    9.6951  -16.2289   20.4665 C   0  0  1  0  0  0  0  0  0  0  0  0
    8.8838  -17.5012   20.2451 C   0  0  0  0  0  0  0  0  0  0  0  0
    8.0412  -17.3064   19.0362 C   0  0  0  0  0  0  0  0  0  0  0  0
    8.0221  -16.2181   18.2045 C   0  0  0  0  0  0  0  0  0  0  0  0
    7.1085  -16.4440   17.2182 N   0  0  0  0  0  0  0  0  0  0  0  0
    6.5708  -17.6402   17.4266 C   0  0  0  0  0  0  0  0  0  0  0  0
    7.1263  -18.1759   18.5259 N   0  0  0  0  0  0  0  0  0  0  0  0
   10.1627  -16.1431   21.8725 C   0  0  0  0  0  0  0  0  0  0  0  0
   11.3038  -16.5880   22.1392 O   0  0  0  0  0  0  0  0  0  0  0  0
   10.3753  -14.6593   30.4570 O   0  0  0  0  0  0  0  0  0  0  0  0
    9.9908  -14.6523   29.1142 C   0  0  0  0  0  0  0  0  0  0  0  0
    9.0518  -15.5285   28.6108 C   0  0  0  0  0  0  0  0  0  0  0  0
    8.6896  -15.5014   27.2819 C   0  0  0  0  0  0  0  0  0  0  0  0
    9.2528  -14.5929   26.3933 C   0  0  0  0  0  0  0  0  0  0  0  0
    8.8354  -14.5932   24.9665 C   0  0  0  0  0  0  0  0  0  0  0  0
    9.7265  -15.5012   24.2037 C   0  0  2  0  0  0  0  0  0  0  0  0
    9.2871  -15.5620   22.8274 N   0  0  0  0  0  0  0  0  0  0  0  0
    9.8670  -16.8560   24.7237 C   0  0  0  0  0  0  0  0  0  0  0  0
    8.8708  -17.6154   24.7413 O   0  0  0  0  0  0  0  0  0  0  0  0
   10.1881  -13.7272   26.9165 C   0  0  0  0  0  0  0  0  0  0  0  0
   10.5524  -13.7530   28.2484 C   0  0  0  0  0  0  0  0  0  0  0  0
   13.0781  -19.0372   24.4992 O   0  0  0  0  0  0  0  0  0  0  0  0
   11.9073  -19.6720   24.8783 C   0  0  0  0  0  0  0  0  0  0  0  0
   11.1315  -18.7326   25.7759 C   0  0  2  0  0  0  0  0  0  0  0  0
   11.0800  -17.4011   25.2278 N   0  0  0  0  0  0  0  0  0  0  0  0
   11.7700  -18.6727   27.1045 C   0  0  0  0  0  0  0  0  0  0  0  0
   12.1731  -17.5760   27.5539 O   0  0  0  0  0  0  0  0  0  0  0  0
   11.9182  -19.8435   27.8490 O   0  0  0  0  0  0  0  0  0  0  0  0
  2  1  1  6
  2  9  1  0
  3  2  1  0
  3  4  1  0
  4  5  2  0
  4  8  1  0
  5  6  1  0
  6  7  1  0
  8  7  2  0
  9 18  1  0
  9 10  2  0
 11 12  1  0
 12 22  2  0
 13 12  1  0
 13 14  2  0
 14 15  1  0
 15 21  2  0
 15 16  1  0
 17 16  1  1
 18 17  1  0
 19 17  1  0
 19 20  2  0
 22 21  1  0
 23 24  1  0
 25 24  1  6
 25 26  1  0
 26 19  1  0
 27 25  1  0
 28 27  2  0
 29 27  1  0
M  END
$$$$
