HYS.pdb
     RDKit          3D

 29 30  0  0  1  0  0  0  0  0999 V2000
   10.7406  -15.3352   20.6096 N   0  0  0  0  0  0  0  0  0  0  0  0
    9.7246  -16.1048   21.2508 C   0  0  1  0  0  0  0  0  0  0  0  0
    9.7560  -17.5268   20.7003 C   0  0  0  0  0  0  0  0  0  0  0  0
    9.3316  -17.4797   19.2766 C   0  0  0  0  0  0  0  0  0  0  0  0
    9.0341  -16.3666   18.5357 C   0  0  0  0  0  0  0  0  0  0  0  0
    8.6900  -16.7640   17.2778 N   0  0  0  0  0  0  0  0  0  0  0  0
    8.7699  -18.0888   17.2327 C   0  0  0  0  0  0  0  0  0  0  0  0
    9.1579  -18.5377   18.4376 N   0  0  0  0  0  0  0  0  0  0  0  0
    9.8378  -16.1127   22.7306 C   0  0  0  0  0  0  0  0  0  0  0  0
   10.9699  -15.9200   23.2331 O   0  0  0  0  0  0  0  0  0  0  0  0
    6.9170  -10.5007   26.2725 O   0  0  0  0  0  0  0  0  0  0  0  0
    7.0569  -11.8796   26.0987 C   0  0  0  0  0  0  0  0  0  0  0  0
    8.0990  -12.5917   26.6551 C   0  0  0  0  0  0  0  0  0  0  0  0
    8.2147  -13.9518   26.4688 C   0  0  0  0  0  0  0  0  0  0  0  0
    7.2892  -14.6634   25.7144 C   0  0  0  0  0  0  0  0  0  0  0  0
    7.4467  -16.1310   25.5369 C   0  0  0  0  0  0  0  0  0  0  0  0
    8.7700  -16.4032   24.9243 C   0  0  2  0  0  0  0  0  0  0  0  0
    8.6557  -16.3382   23.4842 N   0  0  0  0  0  0  0  0  0  0  0  0
    9.4100  -17.6581   25.2996 C   0  0  0  0  0  0  0  0  0  0  0  0
    8.9857  -18.7342   24.8183 O   0  0  0  0  0  0  0  0  0  0  0  0
    6.2566  -13.9334   25.1679 C   0  0  0  0  0  0  0  0  0  0  0  0
    6.1392  -12.5698   25.3537 C   0  0  0  0  0  0  0  0  0  0  0  0
   12.4842  -19.0600   24.8040 O   0  0  0  0  0  0  0  0  0  0  0  0
   12.4300  -19.2716   26.1713 C   0  0  0  0  0  0  0  0  0  0  0  0
   11.0049  -19.0448   26.6268 C   0  0  2  0  0  0  0  0  0  0  0  0
   10.5103  -17.7624   26.1947 N   0  0  0  0  0  0  0  0  0  0  0  0
   10.9370  -19.1062   28.0993 C   0  0  0  0  0  0  0  0  0  0  0  0
   11.3084  -20.1411   28.6980 O   0  0  0  0  0  0  0  0  0  0  0  0
   10.4579  -18.0062   28.8116 O   0  0  0  0  0  0  0  0  0  0  0  0
  2  1  1  6
  2  9  1  0
  3  2  1  0
  3  4  1  0
  4  5  2  0
  4  8  1  0
  5  6  1  0
  6  7  1  0
  8  7  2  0
  9 18  1  0
  9 10  2  0
 11 12  1  0
 12 22  2  0
 13 12  1  0
 13 14  2  0
 14 15  1  0
 15 21  2  0
 15 16  1  0
 17 16  1  1
 18 17  1  0
 19 17  1  0
 19 20  2  0
 22 21  1  0
 23 24  1  0
 25 24  1  1
 25 26  1  0
 26 19  1  0
 27 25  1  0
 28 27  2  0
 29 27  1  0
M  END
$$$$
