HYS.pdb
     RDKit          3D

 29 30  0  0  1  0  0  0  0  0999 V2000
   11.1180  -13.7229   19.9833 N   0  0  0  0  0  0  0  0  0  0  0  0
    9.9633  -14.0759   20.7434 C   0  0  1  0  0  0  0  0  0  0  0  0
    9.1542  -15.1099   19.9675 C   0  0  0  0  0  0  0  0  0  0  0  0
    8.5561  -14.4354   18.7857 C   0  0  0  0  0  0  0  0  0  0  0  0
    8.7628  -13.1454   18.3736 C   0  0  0  0  0  0  0  0  0  0  0  0
    8.0256  -12.9281   17.2477 N   0  0  0  0  0  0  0  0  0  0  0  0
    7.3755  -14.0505   16.9630 C   0  0  0  0  0  0  0  0  0  0  0  0
    7.6871  -14.9742   17.8869 N   0  0  0  0  0  0  0  0  0  0  0  0
   10.2841  -14.5745   22.1041 C   0  0  0  0  0  0  0  0  0  0  0  0
   11.3872  -15.1450   22.2746 O   0  0  0  0  0  0  0  0  0  0  0  0
   10.2107  -15.5823   30.7419 O   0  0  0  0  0  0  0  0  0  0  0  0
    9.8447  -15.2304   29.4407 C   0  0  0  0  0  0  0  0  0  0  0  0
    8.9708  -15.9883   28.6892 C   0  0  0  0  0  0  0  0  0  0  0  0
    8.6255  -15.6197   27.4075 C   0  0  0  0  0  0  0  0  0  0  0  0
    9.1411  -14.4715   26.8176 C   0  0  0  0  0  0  0  0  0  0  0  0
    8.7438  -14.1054   25.4325 C   0  0  0  0  0  0  0  0  0  0  0  0
    9.6721  -14.7572   24.4766 C   0  0  2  0  0  0  0  0  0  0  0  0
    9.3205  -14.3736   23.1274 N   0  0  0  0  0  0  0  0  0  0  0  0
    9.7650  -16.2100   24.5546 C   0  0  0  0  0  0  0  0  0  0  0  0
    8.7605  -16.9071   24.2816 O   0  0  0  0  0  0  0  0  0  0  0  0
   10.0117  -13.7292   27.5850 C   0  0  0  0  0  0  0  0  0  0  0  0
   10.3589  -14.0974   28.8701 C   0  0  0  0  0  0  0  0  0  0  0  0
   13.0917  -18.2825   24.0801 O   0  0  0  0  0  0  0  0  0  0  0  0
   11.8965  -18.9797   24.0272 C   0  0  0  0  0  0  0  0  0  0  0  0
   10.9443  -18.3583   25.0258 C   0  0  2  0  0  0  0  0  0  0  0  0
   10.9393  -16.9210   24.9266 N   0  0  0  0  0  0  0  0  0  0  0  0
   11.3422  -18.7366   26.3951 C   0  0  0  0  0  0  0  0  0  0  0  0
   11.6009  -17.8473   27.2375 O   0  0  0  0  0  0  0  0  0  0  0  0
   11.4263  -20.0865   26.7382 O   0  0  0  0  0  0  0  0  0  0  0  0
  2  1  1  6
  2  9  1  0
  3  2  1  0
  3  4  1  0
  4  5  2  0
  4  8  1  0
  5  6  1  0
  6  7  1  0
  8  7  2  0
  9 18  1  0
  9 10  2  0
 11 12  1  0
 12 22  2  0
 13 12  1  0
 13 14  2  0
 14 15  1  0
 15 21  2  0
 15 16  1  0
 17 16  1  1
 18 17  1  0
 19 17  1  0
 19 20  2  0
 22 21  1  0
 23 24  1  0
 25 24  1  6
 25 26  1  0
 26 19  1  0
 27 25  1  0
 28 27  2  0
 29 27  1  0
M  END
$$$$
