HYS.pdb
     RDKit          3D

 29 30  0  0  1  0  0  0  0  0999 V2000
   10.7469  -15.3025   19.0570 N   0  0  0  0  0  0  0  0  0  0  0  0
    9.4525  -14.9772   19.5615 C   0  0  1  0  0  0  0  0  0  0  0  0
    8.4368  -15.9665   18.9997 C   0  0  0  0  0  0  0  0  0  0  0  0
    8.1508  -15.5845   17.5920 C   0  0  0  0  0  0  0  0  0  0  0  0
    8.7039  -14.5504   16.8841 C   0  0  0  0  0  0  0  0  0  0  0  0
    8.1681  -14.5497   15.6305 N   0  0  0  0  0  0  0  0  0  0  0  0
    7.3039  -15.5552   15.5559 C   0  0  0  0  0  0  0  0  0  0  0  0
    7.2822  -16.1923   16.7380 N   0  0  0  0  0  0  0  0  0  0  0  0
    9.3894  -14.9460   21.0441 C   0  0  0  0  0  0  0  0  0  0  0  0
   10.3116  -15.5060   21.6822 O   0  0  0  0  0  0  0  0  0  0  0  0
    7.2604  -12.6377   29.1576 O   0  0  0  0  0  0  0  0  0  0  0  0
    7.2668  -12.7549   27.7658 C   0  0  0  0  0  0  0  0  0  0  0  0
    8.1637  -12.0711   26.9716 C   0  0  0  0  0  0  0  0  0  0  0  0
    8.1496  -12.2037   25.6004 C   0  0  0  0  0  0  0  0  0  0  0  0
    7.2336  -13.0298   24.9596 C   0  0  0  0  0  0  0  0  0  0  0  0
    7.2501  -13.1484   23.4777 C   0  0  0  0  0  0  0  0  0  0  0  0
    8.2896  -14.1307   23.0843 C   0  0  2  0  0  0  0  0  0  0  0  0
    8.2876  -14.2831   21.6463 N   0  0  0  0  0  0  0  0  0  0  0  0
    8.2044  -15.4461   23.7071 C   0  0  0  0  0  0  0  0  0  0  0  0
    7.2704  -16.2185   23.3901 O   0  0  0  0  0  0  0  0  0  0  0  0
    6.3471  -13.7034   25.7710 C   0  0  0  0  0  0  0  0  0  0  0  0
    6.3600  -13.5715   27.1457 C   0  0  0  0  0  0  0  0  0  0  0  0
   10.9757  -17.8680   24.3186 O   0  0  0  0  0  0  0  0  0  0  0  0
    9.6845  -18.3114   24.5502 C   0  0  0  0  0  0  0  0  0  0  0  0
    8.9400  -17.2250   25.2954 C   0  0  2  0  0  0  0  0  0  0  0  0
    9.1237  -15.9379   24.6745 N   0  0  0  0  0  0  0  0  0  0  0  0
    9.4258  -17.1527   26.6865 C   0  0  0  0  0  0  0  0  0  0  0  0
    9.9326  -16.0915   27.1157 O   0  0  0  0  0  0  0  0  0  0  0  0
    9.3148  -18.2721   27.5122 O   0  0  0  0  0  0  0  0  0  0  0  0
  2  1  1  1
  2  9  1  0
  3  2  1  0
  3  4  1  0
  4  5  2  0
  4  8  1  0
  5  6  1  0
  6  7  1  0
  8  7  2  0
  9 18  1  0
  9 10  2  0
 11 12  1  0
 12 22  2  0
 13 12  1  0
 13 14  2  0
 14 15  1  0
 15 21  2  0
 15 16  1  0
 17 16  1  6
 18 17  1  0
 19 17  1  0
 19 20  2  0
 22 21  1  0
 23 24  1  0
 25 24  1  6
 25 26  1  0
 26 19  1  0
 27 25  1  0
 28 27  2  0
 29 27  1  0
M  END
$$$$
