RNA.pdb
     RDKit          3D

 25 24  0  0  1  0  0  0  0  0999 V2000
    8.8678  -12.1781   20.2136 N   0  0  0  0  0  0  0  0  0  0  0  0
    8.1498  -12.8624   19.1697 C   0  0  0  0  0  0  0  0  0  0  0  0
    8.5289  -12.7212   17.9497 N   0  0  0  0  0  0  0  0  0  0  0  0
    7.0383  -13.6857   19.4948 N   0  0  0  0  0  0  0  0  0  0  0  0
    7.1372  -14.5499   20.6753 C   0  0  0  0  0  0  0  0  0  0  0  0
    7.9866  -15.7426   20.3641 C   0  0  0  0  0  0  0  0  0  0  0  0
    8.9158  -16.2007   21.4357 C   0  0  0  0  0  0  0  0  0  0  0  0
    8.4797  -17.4339   22.1574 C   0  0  2  0  0  0  0  0  0  0  0  0
    7.4831  -18.2009   21.4979 N   0  0  0  0  0  0  0  0  0  0  0  0
    8.0175  -17.0742   23.5634 C   0  0  0  0  0  0  0  0  0  0  0  0
    7.0661  -16.2931   23.7498 O   0  0  0  0  0  0  0  0  0  0  0  0
    7.9896  -13.1383   17.1658 N   0  0  0  0  0  0  0  0  0  0  0  0
    6.5862  -19.3337   25.1378 C   0  0  0  0  0  0  0  0  0  0  0  0
    7.3708  -19.6062   26.2789 O   0  0  0  0  0  0  0  0  0  0  0  0
    7.3955  -20.7811   26.7108 C   0  0  0  0  0  0  0  0  0  0  0  0
    8.1213  -18.5361   26.9212 C   0  0  2  0  0  0  0  0  0  0  0  0
    8.4132  -17.3538   26.0685 N   0  0  0  0  0  0  0  0  0  0  0  0
    8.6735  -17.6350   24.6809 C   0  0  0  0  0  0  0  0  0  0  0  0
    9.3422  -16.3594   26.6623 O   0  0  0  0  0  0  0  0  0  0  0  0
   10.4674  -16.7273   27.0615 C   0  0  0  0  0  0  0  0  0  0  0  0
    8.6302  -13.2104   28.4664 C   0  0  1  0  0  0  0  0  0  0  0  0
    9.5580  -14.2010   27.8639 N   0  0  0  0  0  0  0  0  0  0  0  0
    8.9950  -14.9920   26.7959 C   0  0  0  0  0  0  0  0  0  0  0  0
   10.0881  -15.1717   28.9412 O   0  0  0  0  0  0  0  0  0  0  0  0
   11.1062  -14.7326   29.7631 O   0  0  0  0  0  0  0  0  0  0  0  0
  2  1  1  0
  3  2  2  0
  4  2  1  0
  5  4  1  0
  6  5  1  0
  7  6  1  0
  8 10  1  0
  8  9  1  6
  8  7  1  0
 10 17  1  0
 11 10  2  0
 13 12  1  0
 14 13  2  0
 15 13  1  0
 16 15  1  6
 17 16  1  0
 18 16  1  0
 19 18  2  0
 21 20  1  6
 21 23  1  0
 21 22  1  0
 22 18  1  0
 23 24  1  0
 25 23  2  0
M  END
$$$$
