RNA.pdb
     RDKit          3D

 25 24  0  0  1  0  0  0  0  0999 V2000
    8.4253  -12.4494   17.8506 N   0  0  0  0  0  0  0  0  0  0  0  0
    8.7440  -12.8376   19.2001 C   0  0  0  0  0  0  0  0  0  0  0  0
    9.8175  -12.3888   19.7461 N   0  0  0  0  0  0  0  0  0  0  0  0
    7.8733  -13.7046   19.9137 N   0  0  0  0  0  0  0  0  0  0  0  0
    7.5191  -14.9891   19.3016 C   0  0  0  0  0  0  0  0  0  0  0  0
    7.9154  -16.1123   20.2082 C   0  0  0  0  0  0  0  0  0  0  0  0
    9.1848  -16.8214   19.8802 C   0  0  0  0  0  0  0  0  0  0  0  0
    9.5113  -17.9690   20.7794 C   0  0  2  0  0  0  0  0  0  0  0  0
    8.4460  -18.8788   21.0110 N   0  0  0  0  0  0  0  0  0  0  0  0
   10.0528  -17.4495   22.1049 C   0  0  0  0  0  0  0  0  0  0  0  0
   11.2334  -17.0700   22.2153 O   0  0  0  0  0  0  0  0  0  0  0  0
   10.1312  -12.7273   20.6768 N   0  0  0  0  0  0  0  0  0  0  0  0
    8.6585  -14.7686   22.9844 C   0  0  0  0  0  0  0  0  0  0  0  0
    8.1313  -14.8955   24.2873 O   0  0  0  0  0  0  0  0  0  0  0  0
    7.2654  -14.0699   24.6562 C   0  0  0  0  0  0  0  0  0  0  0  0
    8.5964  -15.9629   25.1622 C   0  0  2  0  0  0  0  0  0  0  0  0
    9.5494  -16.9262   24.5509 N   0  0  0  0  0  0  0  0  0  0  0  0
    9.2055  -17.3919   23.2328 C   0  0  0  0  0  0  0  0  0  0  0  0
   10.0342  -17.9979   25.4568 O   0  0  0  0  0  0  0  0  0  0  0  0
    9.2434  -18.8852   25.8419 C   0  0  0  0  0  0  0  0  0  0  0  0
   13.2705  -19.4974   26.5556 C   0  0  2  0  0  0  0  0  0  0  0  0
   11.8308  -19.1657   26.7047 N   0  0  0  0  0  0  0  0  0  0  0  0
   11.3766  -18.0516   25.9075 C   0  0  0  0  0  0  0  0  0  0  0  0
   11.4960  -18.8578   28.1802 O   0  0  0  0  0  0  0  0  0  0  0  0
   11.7709  -19.8284   29.1221 O   0  0  0  0  0  0  0  0  0  0  0  0
  2  1  1  0
  3  2  2  0
  4  2  1  0
  5  4  1  0
  6  5  1  0
  7  6  1  0
  8 10  1  0
  8  9  1  1
  8  7  1  0
 10 17  1  0
 11 10  2  0
 13 12  1  0
 14 13  2  0
 15 13  1  0
 16 15  1  6
 17 16  1  0
 18 16  1  0
 19 18  2  0
 21 20  1  6
 21 23  1  0
 21 22  1  0
 22 18  1  0
 23 24  1  0
 25 23  2  0
M  END
$$$$
