RNA.pdb
     RDKit          3D

 25 24  0  0  1  0  0  0  0  0999 V2000
   10.8912  -17.8240   12.5508 N   0  0  0  0  0  0  0  0  0  0  0  0
   10.0368  -18.7811   13.2046 C   0  0  0  0  0  0  0  0  0  0  0  0
    9.6836  -19.8430   12.5725 N   0  0  0  0  0  0  0  0  0  0  0  0
    9.5971  -18.5474   14.5355 N   0  0  0  0  0  0  0  0  0  0  0  0
   10.1945  -19.3428   15.6128 C   0  0  0  0  0  0  0  0  0  0  0  0
   11.5333  -18.7819   15.9783 C   0  0  0  0  0  0  0  0  0  0  0  0
   11.9633  -18.9453   17.3961 C   0  0  0  0  0  0  0  0  0  0  0  0
   11.4275  -17.9146   18.3355 C   0  0  2  0  0  0  0  0  0  0  0  0
   10.9146  -16.7423   17.7197 N   0  0  0  0  0  0  0  0  0  0  0  0
   12.4927  -17.5443   19.3592 C   0  0  0  0  0  0  0  0  0  0  0  0
   13.1582  -18.4195   19.9435 O   0  0  0  0  0  0  0  0  0  0  0  0
    9.7047  -19.8849   11.5347 N   0  0  0  0  0  0  0  0  0  0  0  0
   14.7502  -13.7336   17.8562 C   0  0  0  0  0  0  0  0  0  0  0  0
   15.1202  -14.5649   18.9351 O   0  0  0  0  0  0  0  0  0  0  0  0
   16.0513  -15.3828   18.7571 C   0  0  0  0  0  0  0  0  0  0  0  0
   14.4246  -14.4589   20.2102 C   0  0  2  0  0  0  0  0  0  0  0  0
   13.6607  -15.6638   20.6281 N   0  0  0  0  0  0  0  0  0  0  0  0
   12.7376  -16.1854   19.6543 C   0  0  0  0  0  0  0  0  0  0  0  0
   13.1137  -15.6192   22.0076 O   0  0  0  0  0  0  0  0  0  0  0  0
   13.8920  -15.4902   22.9764 C   0  0  0  0  0  0  0  0  0  0  0  0
    9.8830  -15.1501   23.8125 C   0  0  2  0  0  0  0  0  0  0  0  0
   11.2406  -15.7232   23.6293 N   0  0  0  0  0  0  0  0  0  0  0  0
   11.7247  -15.7202   22.2696 C   0  0  0  0  0  0  0  0  0  0  0  0
   11.2884  -17.1781   24.1440 O   0  0  0  0  0  0  0  0  0  0  0  0
   11.1481  -17.3892   25.5007 O   0  0  0  0  0  0  0  0  0  0  0  0
  2  1  1  0
  3  2  2  0
  4  2  1  0
  5  4  1  0
  6  5  1  0
  7  6  1  0
  8 10  1  0
  8  9  1  6
  8  7  1  0
 10 17  1  0
 11 10  2  0
 13 12  1  0
 14 13  2  0
 15 13  1  0
 16 15  1  6
 17 16  1  0
 18 16  1  0
 19 18  2  0
 21 20  1  1
 21 23  1  0
 21 22  1  0
 22 18  1  0
 23 24  1  0
 25 23  2  0
M  END
$$$$
