RNA.pdb
     RDKit          3D

 25 24  0  0  1  0  0  0  0  0999 V2000
    8.4691  -11.8158   19.2867 N   0  0  0  0  0  0  0  0  0  0  0  0
    8.7546  -13.2271   19.2704 C   0  0  0  0  0  0  0  0  0  0  0  0
    9.5306  -13.7007   18.3618 N   0  0  0  0  0  0  0  0  0  0  0  0
    8.1833  -14.0783   20.2543 N   0  0  0  0  0  0  0  0  0  0  0  0
    7.2687  -13.4869   21.2362 C   0  0  0  0  0  0  0  0  0  0  0  0
    7.2281  -14.3340   22.4697 C   0  0  0  0  0  0  0  0  0  0  0  0
    6.9075  -15.7774   22.2803 C   0  0  0  0  0  0  0  0  0  0  0  0
    6.8868  -16.5843   23.5374 C   0  0  2  0  0  0  0  0  0  0  0  0
    6.6558  -15.8450   24.7276 N   0  0  0  0  0  0  0  0  0  0  0  0
    8.1776  -17.3833   23.6604 C   0  0  0  0  0  0  0  0  0  0  0  0
    8.5773  -18.1105   22.7322 O   0  0  0  0  0  0  0  0  0  0  0  0
    9.8021  -14.7034   18.3536 N   0  0  0  0  0  0  0  0  0  0  0  0
   13.3609  -17.5871   23.4482 C   0  0  0  0  0  0  0  0  0  0  0  0
   12.4825  -16.5277   23.7611 O   0  0  0  0  0  0  0  0  0  0  0  0
   12.9794  -15.4354   24.1183 C   0  0  0  0  0  0  0  0  0  0  0  0
   11.0422  -16.7214   23.6661 C   0  0  1  0  0  0  0  0  0  0  0  0
   10.3429  -16.9873   24.9507 N   0  0  0  0  0  0  0  0  0  0  0  0
    8.9419  -17.3007   24.8447 C   0  0  0  0  0  0  0  0  0  0  0  0
   10.6639  -16.0453   26.0526 O   0  0  0  0  0  0  0  0  0  0  0  0
   11.8576  -15.7892   26.3176 C   0  0  0  0  0  0  0  0  0  0  0  0
    9.1810  -13.3521   28.0899 C   0  0  2  0  0  0  0  0  0  0  0  0
   10.0113  -14.5740   27.9389 N   0  0  0  0  0  0  0  0  0  0  0  0
    9.6541  -15.4195   26.8251 C   0  0  0  0  0  0  0  0  0  0  0  0
    9.9507  -15.4319   29.2212 O   0  0  0  0  0  0  0  0  0  0  0  0
    9.5234  -16.7391   29.1054 O   0  0  0  0  0  0  0  0  0  0  0  0
  2  1  1  0
  3  2  2  0
  4  2  1  0
  5  4  1  0
  6  5  1  0
  7  6  1  0
  8 10  1  0
  8  9  1  1
  8  7  1  0
 10 17  1  0
 11 10  2  0
 13 12  1  0
 14 13  2  0
 15 13  1  0
 16 15  1  6
 17 16  1  0
 18 16  1  0
 19 18  2  0
 21 20  1  6
 21 23  1  0
 21 22  1  0
 22 18  1  0
 23 24  1  0
 25 23  2  0
M  END
$$$$
