RNA.pdb
     RDKit          3D

 25 24  0  0  1  0  0  0  0  0999 V2000
    8.7060  -12.2604   18.9257 N   0  0  0  0  0  0  0  0  0  0  0  0
    8.3548  -13.2780   17.9694 C   0  0  0  0  0  0  0  0  0  0  0  0
    7.5810  -12.9778   16.9880 N   0  0  0  0  0  0  0  0  0  0  0  0
    8.8659  -14.5958   18.1152 N   0  0  0  0  0  0  0  0  0  0  0  0
    9.0667  -15.1155   19.4716 C   0  0  0  0  0  0  0  0  0  0  0  0
    7.7730  -15.0889   20.2242 C   0  0  0  0  0  0  0  0  0  0  0  0
    7.7979  -15.6185   21.6173 C   0  0  0  0  0  0  0  0  0  0  0  0
    9.1345  -16.0987   22.0807 C   0  0  2  0  0  0  0  0  0  0  0  0
    9.5361  -17.3601   21.5668 N   0  0  0  0  0  0  0  0  0  0  0  0
    9.1785  -16.1163   23.6031 C   0  0  0  0  0  0  0  0  0  0  0  0
    8.8851  -15.1059   24.2688 O   0  0  0  0  0  0  0  0  0  0  0  0
    7.3092  -13.6870   16.2792 N   0  0  0  0  0  0  0  0  0  0  0  0
   12.0124  -19.8317   25.9034 C   0  0  0  0  0  0  0  0  0  0  0  0
   10.7135  -19.6863   25.3709 O   0  0  0  0  0  0  0  0  0  0  0  0
   10.4727  -20.1998   24.2547 C   0  0  0  0  0  0  0  0  0  0  0  0
    9.6975  -18.9544   26.1146 C   0  0  1  0  0  0  0  0  0  0  0  0
    9.4848  -17.5441   25.6954 N   0  0  0  0  0  0  0  0  0  0  0  0
    9.5553  -17.2973   24.2789 C   0  0  0  0  0  0  0  0  0  0  0  0
   10.1895  -16.5270   26.5160 O   0  0  0  0  0  0  0  0  0  0  0  0
   11.4099  -16.3276   26.3376 C   0  0  0  0  0  0  0  0  0  0  0  0
    9.6195  -13.4573   28.3781 C   0  0  2  0  0  0  0  0  0  0  0  0
   10.2496  -14.7993   28.2937 N   0  0  0  0  0  0  0  0  0  0  0  0
    9.5215  -15.7658   27.5071 C   0  0  0  0  0  0  0  0  0  0  0  0
   10.4497  -15.3935   29.7047 O   0  0  0  0  0  0  0  0  0  0  0  0
   11.1677  -14.6537   30.6223 O   0  0  0  0  0  0  0  0  0  0  0  0
  2  1  1  0
  3  2  2  0
  4  2  1  0
  5  4  1  0
  6  5  1  0
  7  6  1  0
  8 10  1  0
  8  9  1  6
  8  7  1  0
 10 17  1  0
 11 10  2  0
 13 12  1  0
 14 13  2  0
 15 13  1  0
 16 15  1  6
 17 16  1  0
 18 16  1  0
 19 18  2  0
 21 20  1  6
 21 23  1  0
 21 22  1  0
 22 18  1  0
 23 24  1  0
 25 23  2  0
M  END
$$$$
