RNA.pdb
     RDKit          3D

 25 24  0  0  1  0  0  0  0  0999 V2000
    7.5172  -15.2143   16.8226 N   0  0  0  0  0  0  0  0  0  0  0  0
    7.7768  -13.8340   16.5050 C   0  0  0  0  0  0  0  0  0  0  0  0
    8.3472  -13.5422   15.3908 N   0  0  0  0  0  0  0  0  0  0  0  0
    7.3993  -12.8125   17.4178 N   0  0  0  0  0  0  0  0  0  0  0  0
    7.7106  -13.0022   18.8381 C   0  0  0  0  0  0  0  0  0  0  0  0
    6.9581  -14.1811   19.3717 C   0  0  0  0  0  0  0  0  0  0  0  0
    7.0569  -14.4306   20.8380 C   0  0  0  0  0  0  0  0  0  0  0  0
    8.3887  -14.9248   21.3005 C   0  0  2  0  0  0  0  0  0  0  0  0
    8.8888  -16.0576   20.6056 N   0  0  0  0  0  0  0  0  0  0  0  0
    8.3446  -15.2066   22.7967 C   0  0  0  0  0  0  0  0  0  0  0  0
    7.3872  -14.8279   23.4967 O   0  0  0  0  0  0  0  0  0  0  0  0
    8.5830  -12.5603   15.1467 N   0  0  0  0  0  0  0  0  0  0  0  0
    6.0114  -16.5069   24.4420 C   0  0  0  0  0  0  0  0  0  0  0  0
    7.0800  -15.9346   25.1647 O   0  0  0  0  0  0  0  0  0  0  0  0
    6.9689  -14.7449   25.5386 C   0  0  0  0  0  0  0  0  0  0  0  0
    8.2698  -16.7228   25.4551 C   0  0  2  0  0  0  0  0  0  0  0  0
    9.5219  -16.2629   24.7988 N   0  0  0  0  0  0  0  0  0  0  0  0
    9.4040  -15.9123   23.4076 C   0  0  0  0  0  0  0  0  0  0  0  0
   10.7321  -17.0631   25.1140 O   0  0  0  0  0  0  0  0  0  0  0  0
   10.6326  -18.0704   25.8462 C   0  0  0  0  0  0  0  0  0  0  0  0
   12.6339  -18.8419   23.5078 C   0  0  2  0  0  0  0  0  0  0  0  0
   13.0166  -17.7416   24.4287 N   0  0  0  0  0  0  0  0  0  0  0  0
   12.0118  -16.7216   24.6100 C   0  0  0  0  0  0  0  0  0  0  0  0
   14.3079  -17.0505   23.9398 O   0  0  0  0  0  0  0  0  0  0  0  0
   15.4609  -17.8061   23.8739 O   0  0  0  0  0  0  0  0  0  0  0  0
  2  1  1  0
  3  2  2  0
  4  2  1  0
  5  4  1  0
  6  5  1  0
  7  6  1  0
  8 10  1  0
  8  9  1  6
  8  7  1  0
 10 17  1  0
 11 10  2  0
 13 12  1  0
 14 13  2  0
 15 13  1  0
 16 15  1  1
 17 16  1  0
 18 16  1  0
 19 18  2  0
 21 20  1  1
 21 23  1  0
 21 22  1  0
 22 18  1  0
 23 24  1  0
 25 23  2  0
M  END
$$$$
