RNA.pdb
     RDKit          3D

 25 24  0  0  1  0  0  0  0  0999 V2000
    9.9733  -13.6066   17.8499 N   0  0  0  0  0  0  0  0  0  0  0  0
    8.7041  -13.2869   17.2494 C   0  0  0  0  0  0  0  0  0  0  0  0
    8.5926  -13.3044   15.9691 N   0  0  0  0  0  0  0  0  0  0  0  0
    7.5920  -12.9606   18.0715 N   0  0  0  0  0  0  0  0  0  0  0  0
    7.7104  -13.1786   19.5167 C   0  0  0  0  0  0  0  0  0  0  0  0
    7.8878  -14.6379   19.7991 C   0  0  0  0  0  0  0  0  0  0  0  0
    7.9157  -15.0437   21.2332 C   0  0  0  0  0  0  0  0  0  0  0  0
    7.9954  -16.5173   21.4653 C   0  0  2  0  0  0  0  0  0  0  0  0
    6.9033  -17.2701   20.9582 N   0  0  0  0  0  0  0  0  0  0  0  0
    8.1785  -16.7976   22.9512 C   0  0  0  0  0  0  0  0  0  0  0  0
    7.2001  -16.9866   23.6976 O   0  0  0  0  0  0  0  0  0  0  0  0
    7.6968  -13.0614   15.5025 N   0  0  0  0  0  0  0  0  0  0  0  0
   11.2081  -19.9758   23.5760 C   0  0  0  0  0  0  0  0  0  0  0  0
   10.5041  -19.4238   24.6676 O   0  0  0  0  0  0  0  0  0  0  0  0
    9.5966  -20.1090   25.1915 C   0  0  0  0  0  0  0  0  0  0  0  0
   10.8388  -18.0924   25.1539 C   0  0  2  0  0  0  0  0  0  0  0  0
    9.8287  -17.0359   24.8826 N   0  0  0  0  0  0  0  0  0  0  0  0
    9.4789  -16.8484   23.4989 C   0  0  0  0  0  0  0  0  0  0  0  0
   10.0248  -15.7668   25.6278 O   0  0  0  0  0  0  0  0  0  0  0  0
   10.9709  -15.0107   25.3209 C   0  0  0  0  0  0  0  0  0  0  0  0
    8.3031  -13.2595   27.6169 C   0  0  2  0  0  0  0  0  0  0  0  0
    9.4529  -14.1841   27.4491 N   0  0  0  0  0  0  0  0  0  0  0  0
    9.1691  -15.3772   26.6880 C   0  0  0  0  0  0  0  0  0  0  0  0
   10.0017  -14.6212   28.8245 O   0  0  0  0  0  0  0  0  0  0  0  0
   10.4828  -13.6420   29.6699 O   0  0  0  0  0  0  0  0  0  0  0  0
  2  1  1  0
  3  2  2  0
  4  2  1  0
  5  4  1  0
  6  5  1  0
  7  6  1  0
  8 10  1  0
  8  9  1  1
  8  7  1  0
 10 17  1  0
 11 10  2  0
 13 12  1  0
 14 13  2  0
 15 13  1  0
 16 15  1  1
 17 16  1  0
 18 16  1  0
 19 18  2  0
 21 20  1  6
 21 23  1  0
 21 22  1  0
 22 18  1  0
 23 24  1  0
 25 23  2  0
M  END
$$$$
