RNA.pdb
     RDKit          3D

 25 24  0  0  1  0  0  0  0  0999 V2000
    6.8382  -12.5588   16.2594 N   0  0  0  0  0  0  0  0  0  0  0  0
    7.7785  -13.6268   16.4798 C   0  0  0  0  0  0  0  0  0  0  0  0
    8.8250  -13.7058   15.7378 N   0  0  0  0  0  0  0  0  0  0  0  0
    7.5455  -14.5761   17.5112 N   0  0  0  0  0  0  0  0  0  0  0  0
    8.5235  -14.6715   18.5995 C   0  0  0  0  0  0  0  0  0  0  0  0
    8.1769  -13.6984   19.6829 C   0  0  0  0  0  0  0  0  0  0  0  0
    7.7545  -14.2752   20.9909 C   0  0  0  0  0  0  0  0  0  0  0  0
    8.7619  -15.1711   21.6346 C   0  0  2  0  0  0  0  0  0  0  0  0
    8.8718  -16.4669   21.0643 N   0  0  0  0  0  0  0  0  0  0  0  0
    8.4791  -15.2790   23.1273 C   0  0  0  0  0  0  0  0  0  0  0  0
    8.2027  -14.2725   23.8061 O   0  0  0  0  0  0  0  0  0  0  0  0
    9.5868  -14.3794   15.9499 N   0  0  0  0  0  0  0  0  0  0  0  0
    5.6119  -18.2607   24.0864 C   0  0  0  0  0  0  0  0  0  0  0  0
    6.8916  -18.7896   24.3593 O   0  0  0  0  0  0  0  0  0  0  0  0
    7.2838  -19.7652   23.6798 C   0  0  0  0  0  0  0  0  0  0  0  0
    7.7156  -18.2029   25.4071 C   0  0  2  0  0  0  0  0  0  0  0  0
    8.2208  -16.8314   25.1357 N   0  0  0  0  0  0  0  0  0  0  0  0
    8.5267  -16.5406   23.7594 C   0  0  0  0  0  0  0  0  0  0  0  0
    9.2389  -16.3310   26.0937 O   0  0  0  0  0  0  0  0  0  0  0  0
   10.4237  -16.7137   25.9910 C   0  0  0  0  0  0  0  0  0  0  0  0
    9.5788  -13.6706   28.7377 C   0  0  2  0  0  0  0  0  0  0  0  0
    9.9477  -14.8997   27.9904 N   0  0  0  0  0  0  0  0  0  0  0  0
    8.9121  -15.4257   27.1337 C   0  0  0  0  0  0  0  0  0  0  0  0
   10.3683  -16.0206   28.9654 O   0  0  0  0  0  0  0  0  0  0  0  0
   11.4495  -15.7879   29.7911 O   0  0  0  0  0  0  0  0  0  0  0  0
  2  1  1  0
  3  2  2  0
  4  2  1  0
  5  4  1  0
  6  5  1  0
  7  6  1  0
  8 10  1  0
  8  9  1  6
  8  7  1  0
 10 17  1  0
 11 10  2  0
 13 12  1  0
 14 13  2  0
 15 13  1  0
 16 15  1  6
 17 16  1  0
 18 16  1  0
 19 18  2  0
 21 20  1  6
 21 23  1  0
 21 22  1  0
 22 18  1  0
 23 24  1  0
 25 23  2  0
M  END
$$$$
