YIE.pdb
     RDKit          3D

 30 30  0  0  1  0  0  0  0  0999 V2000
    5.9603  -14.9645   15.2990 O   0  0  0  0  0  0  0  0  0  0  0  0
    6.4356  -14.9795   16.6080 C   0  0  0  0  0  0  0  0  0  0  0  0
    6.7433  -13.7688   17.1941 C   0  0  0  0  0  0  0  0  0  0  0  0
    7.2100  -13.7682   18.4745 C   0  0  0  0  0  0  0  0  0  0  0  0
    7.3656  -14.9553   19.1544 C   0  0  0  0  0  0  0  0  0  0  0  0
    7.8741  -15.0033   20.5332 C   0  0  0  0  0  0  0  0  0  0  0  0
    7.9716  -13.6438   21.1894 C   0  0  2  0  0  0  0  0  0  0  0  0
    8.9651  -12.9066   20.4112 N   0  0  0  0  0  0  0  0  0  0  0  0
    8.3990  -13.8316   22.5841 C   0  0  0  0  0  0  0  0  0  0  0  0
    9.6234  -13.9710   22.8422 O   0  0  0  0  0  0  0  0  0  0  0  0
    7.0582  -16.1892   18.5749 C   0  0  0  0  0  0  0  0  0  0  0  0
    6.5900  -16.1709   17.2859 C   0  0  0  0  0  0  0  0  0  0  0  0
    5.4934  -11.4589   26.3847 C   0  0  0  0  0  0  0  0  0  0  0  0
    6.6589  -11.9941   25.6152 C   0  0  0  0  0  0  0  0  0  0  0  0
    6.9371  -13.4543   25.9409 C   0  0  2  0  0  0  0  0  0  0  0  0
    7.1927  -13.5287   27.4116 C   0  0  0  0  0  0  0  0  0  0  0  0
    8.0484  -13.9976   25.0762 C   0  0  2  0  0  0  0  0  0  0  0  0
    7.5371  -13.8713   23.6963 N   0  0  0  0  0  0  0  0  0  0  0  0
    8.4035  -15.3991   25.3565 C   0  0  0  0  0  0  0  0  0  0  0  0
    7.4991  -16.2949   25.2840 O   0  0  0  0  0  0  0  0  0  0  0  0
    9.6899  -15.8479   25.7038 N   0  0  0  0  0  0  0  0  0  0  0  0
    9.9851  -17.3084   25.9180 C   0  0  1  0  0  0  0  0  0  0  0  0
   11.3556  -17.5547   25.4022 C   0  0  0  0  0  0  0  0  0  0  0  0
   11.9366  -18.8769   25.6736 C   0  0  0  0  0  0  0  0  0  0  0  0
   13.2928  -19.1771   25.2085 C   0  0  0  0  0  0  0  0  0  0  0  0
   13.9818  -18.3881   24.4671 O   0  0  0  0  0  0  0  0  0  0  0  0
    9.8408  -17.4919   27.3457 C   0  0  0  0  0  0  0  0  0  0  0  0
    9.5841  -18.7077   27.9299 O   0  0  0  0  0  0  0  0  0  0  0  0
   13.9511  -20.3722   25.5522 O   0  0  0  0  0  0  0  0  0  0  0  0
    9.9386  -16.5208   28.1355 O   0  0  0  0  0  0  0  0  0  0  0  0
  2  3  2  0
  2  1  1  0
  4  3  1  0
  5  4  2  0
  6  5  1  0
  7  6  1  0
  7  9  1  0
  7  8  1  6
  9 10  2  0
 11  5  1  0
 11 12  2  0
 12  2  1  0
 13 14  1  0
 15 16  1  1
 15 14  1  0
 17 15  1  0
 18  9  1  0
 17 18  1  6
 19 21  1  0
 19 17  1  0
 20 19  2  0
 22 27  1  0
 22 21  1  0
 22 23  1  1
 24 23  1  0
 25 24  1  0
 26 25  2  0
 27 28  1  0
 29 25  1  0
 30 27  2  0
M  END
$$$$
