YIE.pdb
     RDKit          3D

 30 30  0  0  1  0  0  0  0  0999 V2000
    7.6362  -22.3558   30.9019 O   0  0  0  0  0  0  0  0  0  0  0  0
    7.6321  -21.6639   29.6933 C   0  0  0  0  0  0  0  0  0  0  0  0
    8.1870  -20.4006   29.6738 C   0  0  0  0  0  0  0  0  0  0  0  0
    8.1895  -19.7115   28.4982 C   0  0  0  0  0  0  0  0  0  0  0  0
    7.6476  -20.2752   27.3649 C   0  0  0  0  0  0  0  0  0  0  0  0
    7.6203  -19.5654   26.0776 C   0  0  0  0  0  0  0  0  0  0  0  0
    6.3209  -18.8361   25.8165 C   0  0  2  0  0  0  0  0  0  0  0  0
    5.4935  -19.7741   25.0602 N   0  0  0  0  0  0  0  0  0  0  0  0
    6.6181  -17.6217   25.0420 C   0  0  0  0  0  0  0  0  0  0  0  0
    6.7462  -17.7014   23.7920 O   0  0  0  0  0  0  0  0  0  0  0  0
    7.0823  -21.5532   27.3684 C   0  0  0  0  0  0  0  0  0  0  0  0
    7.0883  -22.2321   28.5600 C   0  0  0  0  0  0  0  0  0  0  0  0
    5.6286  -12.7771   27.0393 C   0  0  0  0  0  0  0  0  0  0  0  0
    5.8741  -13.7057   25.8928 C   0  0  0  0  0  0  0  0  0  0  0  0
    7.3489  -14.0482   25.7401 C   0  0  2  0  0  0  0  0  0  0  0  0
    8.0282  -12.8188   25.2293 C   0  0  0  0  0  0  0  0  0  0  0  0
    7.5315  -15.2762   24.8820 C   0  0  2  0  0  0  0  0  0  0  0  0
    6.7782  -16.3336   25.5864 N   0  0  0  0  0  0  0  0  0  0  0  0
    8.9343  -15.6883   24.7053 C   0  0  0  0  0  0  0  0  0  0  0  0
    9.5533  -16.2189   25.6855 O   0  0  0  0  0  0  0  0  0  0  0  0
    9.6696  -15.5462   23.5154 N   0  0  0  0  0  0  0  0  0  0  0  0
   10.8872  -16.3858   23.2350 C   0  0  1  0  0  0  0  0  0  0  0  0
   10.8653  -16.7126   21.7867 C   0  0  0  0  0  0  0  0  0  0  0  0
   12.1577  -16.7049   21.0874 C   0  0  0  0  0  0  0  0  0  0  0  0
   12.2180  -17.1079   19.6804 C   0  0  0  0  0  0  0  0  0  0  0  0
   13.3144  -17.2964   19.0405 O   0  0  0  0  0  0  0  0  0  0  0  0
   11.9945  -15.5491   23.6432 C   0  0  0  0  0  0  0  0  0  0  0  0
   11.8880  -14.1936   23.8345 O   0  0  0  0  0  0  0  0  0  0  0  0
   11.0563  -17.3261   18.9172 O   0  0  0  0  0  0  0  0  0  0  0  0
   13.1352  -16.0362   23.8387 O   0  0  0  0  0  0  0  0  0  0  0  0
  2  3  2  0
  2  1  1  0
  4  3  1  0
  5  4  2  0
  6  5  1  0
  7  6  1  0
  7  9  1  0
  7  8  1  6
  9 10  2  0
 11  5  1  0
 11 12  2  0
 12  2  1  0
 13 14  1  0
 15 16  1  6
 15 14  1  0
 17 15  1  0
 18  9  1  0
 17 18  1  1
 19 21  1  0
 19 17  1  0
 20 19  2  0
 22 27  1  0
 22 21  1  0
 22 23  1  6
 24 23  1  0
 25 24  1  0
 26 25  2  0
 27 28  1  0
 29 25  1  0
 30 27  2  0
M  END
$$$$
