YIE.pdb
     RDKit          3D

 30 30  0  0  1  0  0  0  0  0999 V2000
   11.1373  -14.3030   31.5039 O   0  0  0  0  0  0  0  0  0  0  0  0
   10.7288  -15.1098   30.4448 C   0  0  0  0  0  0  0  0  0  0  0  0
   10.4165  -14.4934   29.2504 C   0  0  0  0  0  0  0  0  0  0  0  0
   10.0147  -15.2703   28.2054 C   0  0  0  0  0  0  0  0  0  0  0  0
    9.9273  -16.6364   28.3527 C   0  0  0  0  0  0  0  0  0  0  0  0
    9.4902  -17.5126   27.2559 C   0  0  0  0  0  0  0  0  0  0  0  0
    7.9865  -17.6130   27.1247 C   0  0  2  0  0  0  0  0  0  0  0  0
    7.6905  -19.0443   27.1271 N   0  0  0  0  0  0  0  0  0  0  0  0
    7.5875  -16.9743   25.8613 C   0  0  0  0  0  0  0  0  0  0  0  0
    6.9326  -17.6360   25.0138 O   0  0  0  0  0  0  0  0  0  0  0  0
   10.2403  -17.2754   29.5554 C   0  0  0  0  0  0  0  0  0  0  0  0
   10.6426  -16.4782   30.5963 C   0  0  0  0  0  0  0  0  0  0  0  0
    6.6461  -11.7773   26.1409 C   0  0  0  0  0  0  0  0  0  0  0  0
    6.4219  -13.1746   25.6570 C   0  0  0  0  0  0  0  0  0  0  0  0
    7.3772  -13.5509   24.5338 C   0  0  2  0  0  0  0  0  0  0  0  0
    7.0260  -12.6932   23.3613 C   0  0  0  0  0  0  0  0  0  0  0  0
    7.3381  -15.0359   24.2672 C   0  0  2  0  0  0  0  0  0  0  0  0
    7.8794  -15.6460   25.4986 N   0  0  0  0  0  0  0  0  0  0  0  0
    8.1309  -15.4629   23.1018 C   0  0  0  0  0  0  0  0  0  0  0  0
    7.6440  -15.3160   21.9326 O   0  0  0  0  0  0  0  0  0  0  0  0
    9.4151  -16.0313   23.1684 N   0  0  0  0  0  0  0  0  0  0  0  0
   10.1179  -16.5397   21.9381 C   0  0  1  0  0  0  0  0  0  0  0  0
   10.8876  -15.4011   21.3760 C   0  0  0  0  0  0  0  0  0  0  0  0
   11.8527  -15.7157   20.3134 C   0  0  0  0  0  0  0  0  0  0  0  0
   12.6056  -14.6307   19.6796 C   0  0  0  0  0  0  0  0  0  0  0  0
   12.0564  -13.6034   19.1412 O   0  0  0  0  0  0  0  0  0  0  0  0
   10.9331  -17.6319   22.4233 C   0  0  0  0  0  0  0  0  0  0  0  0
   11.5728  -18.5231   21.5975 O   0  0  0  0  0  0  0  0  0  0  0  0
   14.0113  -14.6352   19.6193 O   0  0  0  0  0  0  0  0  0  0  0  0
   11.0904  -17.8241   23.6541 O   0  0  0  0  0  0  0  0  0  0  0  0
  2  3  2  0
  2  1  1  0
  4  3  1  0
  5  4  2  0
  6  5  1  0
  7  6  1  0
  7  9  1  0
  7  8  1  6
  9 10  2  0
 11  5  1  0
 11 12  2  0
 12  2  1  0
 13 14  1  0
 15 16  1  6
 15 14  1  0
 17 15  1  0
 18  9  1  0
 17 18  1  1
 19 21  1  0
 19 17  1  0
 20 19  2  0
 22 27  1  0
 22 21  1  0
 22 23  1  1
 24 23  1  0
 25 24  1  0
 26 25  2  0
 27 28  1  0
 29 25  1  0
 30 27  2  0
M  END
$$$$
