YIE.pdb
     RDKit          3D

 30 30  0  0  1  0  0  0  0  0999 V2000
    7.6999  -14.7227   14.6614 O   0  0  0  0  0  0  0  0  0  0  0  0
    8.0238  -14.5168   16.0002 C   0  0  0  0  0  0  0  0  0  0  0  0
    7.6654  -13.3125   16.5704 C   0  0  0  0  0  0  0  0  0  0  0  0
    7.9764  -13.0969   17.8796 C   0  0  0  0  0  0  0  0  0  0  0  0
    8.6328  -14.0670   18.6033 C   0  0  0  0  0  0  0  0  0  0  0  0
    8.9962  -13.8746   20.0150 C   0  0  0  0  0  0  0  0  0  0  0  0
    8.1359  -14.6670   20.9743 C   0  0  2  0  0  0  0  0  0  0  0  0
    6.7733  -14.1806   20.7676 N   0  0  0  0  0  0  0  0  0  0  0  0
    8.6074  -14.4073   22.3430 C   0  0  0  0  0  0  0  0  0  0  0  0
    9.6849  -13.7797   22.5172 O   0  0  0  0  0  0  0  0  0  0  0  0
    9.0021  -15.2915   18.0403 C   0  0  0  0  0  0  0  0  0  0  0  0
    8.6813  -15.4913   16.7220 C   0  0  0  0  0  0  0  0  0  0  0  0
    7.1663  -12.2406   27.5703 C   0  0  0  0  0  0  0  0  0  0  0  0
    8.0607  -13.2427   26.9124 C   0  0  0  0  0  0  0  0  0  0  0  0
    7.5634  -13.6310   25.5277 C   0  0  2  0  0  0  0  0  0  0  0  0
    6.1741  -14.1551   25.6978 C   0  0  0  0  0  0  0  0  0  0  0  0
    8.5228  -14.5841   24.8575 C   0  0  2  0  0  0  0  0  0  0  0  0
    7.9436  -14.8087   23.5175 N   0  0  0  0  0  0  0  0  0  0  0  0
    8.6880  -15.8690   25.5579 C   0  0  0  0  0  0  0  0  0  0  0  0
    7.6812  -16.6412   25.6834 O   0  0  0  0  0  0  0  0  0  0  0  0
    9.8939  -16.3324   26.1127 N   0  0  0  0  0  0  0  0  0  0  0  0
   10.0519  -17.7539   26.5821 C   0  0  1  0  0  0  0  0  0  0  0  0
   11.3923  -18.2119   26.1367 C   0  0  0  0  0  0  0  0  0  0  0  0
   11.8815  -19.4760   26.7042 C   0  0  0  0  0  0  0  0  0  0  0  0
   13.2332  -19.9368   26.3781 C   0  0  0  0  0  0  0  0  0  0  0  0
   14.2583  -19.7153   27.1177 O   0  0  0  0  0  0  0  0  0  0  0  0
    9.8940  -17.6712   28.0177 C   0  0  0  0  0  0  0  0  0  0  0  0
    9.5086  -18.7327   28.7987 O   0  0  0  0  0  0  0  0  0  0  0  0
   13.5082  -20.6735   25.2113 O   0  0  0  0  0  0  0  0  0  0  0  0
   10.1002  -16.5945   28.6298 O   0  0  0  0  0  0  0  0  0  0  0  0
  2  3  2  0
  2  1  1  0
  4  3  1  0
  5  4  2  0
  6  5  1  0
  7  6  1  0
  7  9  1  0
  7  8  1  1
  9 10  2  0
 11  5  1  0
 11 12  2  0
 12  2  1  0
 13 14  1  0
 15 16  1  1
 15 14  1  0
 17 15  1  0
 18  9  1  0
 17 18  1  6
 19 21  1  0
 19 17  1  0
 20 19  2  0
 22 27  1  0
 22 21  1  0
 22 23  1  1
 24 23  1  0
 25 24  1  0
 26 25  2  0
 27 28  1  0
 29 25  1  0
 30 27  2  0
M  END
$$$$
