YIE.pdb
     RDKit          3D

 30 30  0  0  1  0  0  0  0  0999 V2000
    6.7128  -14.0065   15.6323 O   0  0  0  0  0  0  0  0  0  0  0  0
    6.9496  -14.2877   16.9756 C   0  0  0  0  0  0  0  0  0  0  0  0
    7.0687  -15.6123   17.3437 C   0  0  0  0  0  0  0  0  0  0  0  0
    7.3000  -15.9026   18.6549 C   0  0  0  0  0  0  0  0  0  0  0  0
    7.4099  -14.8878   19.5790 C   0  0  0  0  0  0  0  0  0  0  0  0
    7.6502  -15.1543   21.0049 C   0  0  0  0  0  0  0  0  0  0  0  0
    8.8267  -14.3916   21.5728 C   0  0  2  0  0  0  0  0  0  0  0  0
    9.9804  -14.8081   20.7780 N   0  0  0  0  0  0  0  0  0  0  0  0
    8.9772  -14.7584   22.9891 C   0  0  0  0  0  0  0  0  0  0  0  0
    9.9578  -15.4637   23.3443 O   0  0  0  0  0  0  0  0  0  0  0  0
    7.2921  -13.5420   19.2219 C   0  0  0  0  0  0  0  0  0  0  0  0
    7.0594  -13.2683   17.8983 C   0  0  0  0  0  0  0  0  0  0  0  0
    6.1907  -11.4242   26.1655 C   0  0  0  0  0  0  0  0  0  0  0  0
    7.3198  -12.1955   25.5596 C   0  0  0  0  0  0  0  0  0  0  0  0
    7.4360  -13.5949   26.1459 C   0  0  2  0  0  0  0  0  0  0  0  0
    7.6427  -13.4321   27.6172 C   0  0  0  0  0  0  0  0  0  0  0  0
    8.5077  -14.3886   25.4393 C   0  0  2  0  0  0  0  0  0  0  0  0
    8.0968  -14.3815   24.0206 N   0  0  0  0  0  0  0  0  0  0  0  0
    8.6488  -15.7746   25.9170 C   0  0  0  0  0  0  0  0  0  0  0  0
    7.6243  -16.5334   25.9311 O   0  0  0  0  0  0  0  0  0  0  0  0
    9.8494  -16.3505   26.3684 N   0  0  0  0  0  0  0  0  0  0  0  0
    9.9108  -17.7781   26.8418 C   0  0  1  0  0  0  0  0  0  0  0  0
   11.2462  -18.3046   26.4619 C   0  0  0  0  0  0  0  0  0  0  0  0
   11.5842  -18.2805   25.0320 C   0  0  0  0  0  0  0  0  0  0  0  0
   12.8887  -18.7806   24.5915 C   0  0  0  0  0  0  0  0  0  0  0  0
   13.7887  -19.2227   25.3924 O   0  0  0  0  0  0  0  0  0  0  0  0
    9.6868  -17.6869   28.2681 C   0  0  0  0  0  0  0  0  0  0  0  0
    9.3924  -18.7705   29.0583 O   0  0  0  0  0  0  0  0  0  0  0  0
   13.2527  -18.8175   23.2329 O   0  0  0  0  0  0  0  0  0  0  0  0
    9.7454  -16.5824   28.8624 O   0  0  0  0  0  0  0  0  0  0  0  0
  2  3  2  0
  2  1  1  0
  4  3  1  0
  5  4  2  0
  6  5  1  0
  7  6  1  0
  7  9  1  0
  7  8  1  6
  9 10  2  0
 11  5  1  0
 11 12  2  0
 12  2  1  0
 13 14  1  0
 15 16  1  1
 15 14  1  0
 17 15  1  0
 18  9  1  0
 17 18  1  6
 19 21  1  0
 19 17  1  0
 20 19  2  0
 22 27  1  0
 22 21  1  0
 22 23  1  1
 24 23  1  0
 25 24  1  0
 26 25  2  0
 27 28  1  0
 29 25  1  0
 30 27  2  0
M  END
$$$$
