YIE.pdb
     RDKit          3D

 30 30  0  0  1  0  0  0  0  0999 V2000
    7.3678  -14.3702   15.5009 O   0  0  0  0  0  0  0  0  0  0  0  0
    7.5964  -14.2216   16.8666 C   0  0  0  0  0  0  0  0  0  0  0  0
    7.6731  -15.3659   17.6339 C   0  0  0  0  0  0  0  0  0  0  0  0
    7.8958  -15.2358   18.9720 C   0  0  0  0  0  0  0  0  0  0  0  0
    8.0389  -13.9856   19.5309 C   0  0  0  0  0  0  0  0  0  0  0  0
    8.2714  -13.7970   20.9704 C   0  0  0  0  0  0  0  0  0  0  0  0
    8.4024  -15.0947   21.7369 C   0  0  2  0  0  0  0  0  0  0  0  0
    7.0744  -15.7041   21.6997 N   0  0  0  0  0  0  0  0  0  0  0  0
    8.8218  -14.7811   23.1113 C   0  0  0  0  0  0  0  0  0  0  0  0
    9.9623  -14.2871   23.3122 O   0  0  0  0  0  0  0  0  0  0  0  0
    7.9641  -12.8176   18.7675 C   0  0  0  0  0  0  0  0  0  0  0  0
    7.7394  -12.9673   17.4228 C   0  0  0  0  0  0  0  0  0  0  0  0
    6.0743  -11.9660   26.1027 C   0  0  0  0  0  0  0  0  0  0  0  0
    7.3028  -12.6617   25.6092 C   0  0  0  0  0  0  0  0  0  0  0  0
    7.5476  -13.9752   26.3375 C   0  0  2  0  0  0  0  0  0  0  0  0
    7.8844  -13.6297   27.7520 C   0  0  0  0  0  0  0  0  0  0  0  0
    8.5875  -14.8029   25.6224 C   0  0  2  0  0  0  0  0  0  0  0  0
    8.0400  -14.9888   24.2632 N   0  0  0  0  0  0  0  0  0  0  0  0
    8.8515  -16.1119   26.2436 C   0  0  0  0  0  0  0  0  0  0  0  0
    7.8737  -16.8957   26.4787 O   0  0  0  0  0  0  0  0  0  0  0  0
   10.1240  -16.5866   26.6071 N   0  0  0  0  0  0  0  0  0  0  0  0
   10.3291  -17.9920   27.1061 C   0  0  1  0  0  0  0  0  0  0  0  0
   11.5230  -18.5311   26.4070 C   0  0  0  0  0  0  0  0  0  0  0  0
   11.9923  -19.8586   26.8277 C   0  0  0  0  0  0  0  0  0  0  0  0
   13.1869  -20.4318   26.2031 C   0  0  0  0  0  0  0  0  0  0  0  0
   13.8371  -19.8619   25.2547 O   0  0  0  0  0  0  0  0  0  0  0  0
   10.4907  -17.8389   28.5355 C   0  0  0  0  0  0  0  0  0  0  0  0
   10.9038  -16.6719   29.1294 O   0  0  0  0  0  0  0  0  0  0  0  0
   13.7198  -21.6690   26.6095 O   0  0  0  0  0  0  0  0  0  0  0  0
   10.2620  -18.7939   29.3179 O   0  0  0  0  0  0  0  0  0  0  0  0
  2  3  2  0
  2  1  1  0
  4  3  1  0
  5  4  2  0
  6  5  1  0
  7  6  1  0
  7  9  1  0
  7  8  1  1
  9 10  2  0
 11  5  1  0
 11 12  2  0
 12  2  1  0
 13 14  1  0
 15 16  1  1
 15 14  1  0
 17 15  1  0
 18  9  1  0
 17 18  1  6
 19 21  1  0
 19 17  1  0
 20 19  2  0
 22 27  1  0
 22 21  1  0
 22 23  1  6
 24 23  1  0
 25 24  1  0
 26 25  2  0
 27 28  1  0
 29 25  1  0
 30 27  2  0
M  END
$$$$
