YIE.pdb
     RDKit          3D

 30 30  0  0  1  0  0  0  0  0999 V2000
    2.2067  -22.8606   22.7105 O   0  0  0  0  0  0  0  0  0  0  0  0
    3.1529  -21.9166   23.1018 C   0  0  0  0  0  0  0  0  0  0  0  0
    2.6936  -20.7129   23.5962 C   0  0  0  0  0  0  0  0  0  0  0  0
    3.6081  -19.7793   23.9825 C   0  0  0  0  0  0  0  0  0  0  0  0
    4.9549  -20.0450   23.8762 C   0  0  0  0  0  0  0  0  0  0  0  0
    5.9767  -19.0647   24.2722 C   0  0  0  0  0  0  0  0  0  0  0  0
    5.9050  -17.7689   23.4948 C   0  0  2  0  0  0  0  0  0  0  0  0
    6.0470  -18.1494   22.0908 N   0  0  0  0  0  0  0  0  0  0  0  0
    7.0049  -16.8997   23.9397 C   0  0  0  0  0  0  0  0  0  0  0  0
    8.1116  -16.9477   23.3415 O   0  0  0  0  0  0  0  0  0  0  0  0
    5.4355  -21.2588   23.3780 C   0  0  0  0  0  0  0  0  0  0  0  0
    4.5013  -22.1866   22.9940 C   0  0  0  0  0  0  0  0  0  0  0  0
    5.5753  -12.5018   26.2830 C   0  0  0  0  0  0  0  0  0  0  0  0
    6.4824  -13.3230   25.4229 C   0  0  0  0  0  0  0  0  0  0  0  0
    7.5300  -14.0640   26.2409 C   0  0  2  0  0  0  0  0  0  0  0  0
    8.5270  -13.0458   26.6916 C   0  0  0  0  0  0  0  0  0  0  0  0
    8.1105  -15.2160   25.4575 C   0  0  2  0  0  0  0  0  0  0  0  0
    6.9333  -15.9872   25.0090 N   0  0  0  0  0  0  0  0  0  0  0  0
    9.0149  -16.0812   26.2336 C   0  0  0  0  0  0  0  0  0  0  0  0
    9.2163  -15.8217   27.4656 O   0  0  0  0  0  0  0  0  0  0  0  0
    9.6920  -17.2014   25.7203 N   0  0  0  0  0  0  0  0  0  0  0  0
   11.1947  -17.2497   25.6463 C   0  0  1  0  0  0  0  0  0  0  0  0
   11.6210  -16.1470   24.7478 C   0  0  0  0  0  0  0  0  0  0  0  0
   13.0602  -15.8545   24.6966 C   0  0  0  0  0  0  0  0  0  0  0  0
   13.8387  -16.2704   23.5276 C   0  0  0  0  0  0  0  0  0  0  0  0
   13.3177  -16.5524   22.3892 O   0  0  0  0  0  0  0  0  0  0  0  0
   11.6208  -17.1006   27.0207 C   0  0  0  0  0  0  0  0  0  0  0  0
   12.5347  -17.9293   27.6235 O   0  0  0  0  0  0  0  0  0  0  0  0
   15.2402  -16.3877   23.5688 O   0  0  0  0  0  0  0  0  0  0  0  0
   11.1560  -16.1872   27.7462 O   0  0  0  0  0  0  0  0  0  0  0  0
  2  3  2  0
  2  1  1  0
  4  3  1  0
  5  4  2  0
  6  5  1  0
  7  6  1  0
  7  9  1  0
  7  8  1  6
  9 10  2  0
 11  5  1  0
 11 12  2  0
 12  2  1  0
 13 14  1  0
 15 16  1  6
 15 14  1  0
 17 15  1  0
 18  9  1  0
 17 18  1  1
 19 21  1  0
 19 17  1  0
 20 19  2  0
 22 27  1  0
 22 21  1  0
 22 23  1  6
 24 23  1  0
 25 24  1  0
 26 25  2  0
 27 28  1  0
 29 25  1  0
 30 27  2  0
M  END
$$$$
