VIQ.pdb
     RDKit          3D

 25 24  0  0  1  0  0  0  0  0999 V2000
   13.9264  -11.5182  -10.4235 C   0  0  0  0  0  0  0  0  0  0  0  0
   13.7414  -10.7636   -9.1385 C   0  0  2  0  0  0  0  0  0  0  0  0
   12.3613  -11.0088   -8.6025 C   0  0  0  0  0  0  0  0  0  0  0  0
   14.0475   -9.2947   -9.2588 C   0  0  2  0  0  0  0  0  0  0  0  0
   13.0369   -8.7125  -10.1227 N   0  0  0  0  0  0  0  0  0  0  0  0
   15.4109   -9.0442   -9.7955 C   0  0  0  0  0  0  0  0  0  0  0  0
   16.4494   -9.2618   -9.1485 O   0  0  0  0  0  0  0  0  0  0  0  0
   18.6841   -9.9249  -14.5125 C   0  0  0  0  0  0  0  0  0  0  0  0
   18.4416   -8.7647  -13.5262 C   0  0  0  0  0  0  0  0  0  0  0  0
   17.2226   -9.0999  -12.7244 C   0  0  2  0  0  0  0  0  0  0  0  0
   16.0814   -9.3920  -13.6779 C   0  0  0  0  0  0  0  0  0  0  0  0
   16.8621   -8.1072  -11.6536 C   0  0  2  0  0  0  0  0  0  0  0  0
   15.5469   -8.5304  -11.1129 N   0  0  0  0  0  0  0  0  0  0  0  0
   16.7027   -6.7452  -12.1887 C   0  0  0  0  0  0  0  0  0  0  0  0
   15.6379   -6.4470  -12.7996 O   0  0  0  0  0  0  0  0  0  0  0  0
   16.4752   -2.3158   -8.5619 N   0  0  0  0  0  0  0  0  0  0  0  0
   16.3393   -1.5811   -9.7620 C   0  0  0  0  0  0  0  0  0  0  0  0
   15.9871   -0.3840   -9.7044 O   0  0  0  0  0  0  0  0  0  0  0  0
   16.6026   -2.1922  -11.0796 C   0  0  0  0  0  0  0  0  0  0  0  0
   16.9244   -3.6651  -10.9200 C   0  0  0  0  0  0  0  0  0  0  0  0
   17.2754   -4.2934  -12.2545 C   0  0  2  0  0  0  0  0  0  0  0  0
   17.6502   -5.6932  -12.0844 N   0  0  0  0  0  0  0  0  0  0  0  0
   18.3810   -3.4904  -12.8198 C   0  0  0  0  0  0  0  0  0  0  0  0
   19.5612   -3.8720  -12.7358 O   0  0  0  0  0  0  0  0  0  0  0  0
   18.0745   -2.2966  -13.4491 O   0  0  0  0  0  0  0  0  0  0  0  0
  2  1  1  6
  2  3  1  0
  4  2  1  0
  4  6  1  0
  4  5  1  6
  6  7  2  0
  9  8  1  0
 10  9  1  0
 10 11  1  6
 12 10  1  0
 13  6  1  0
 12 13  1  6
 14 15  2  0
 14 12  1  0
 16 17  1  0
 17 18  2  0
 19 17  1  0
 19 20  1  0
 21 20  1  1
 21 22  1  0
 22 14  1  0
 23 21  1  0
 23 25  1  0
 24 23  2  0
M  END
$$$$
