VIQ.pdb
     RDKit          3D

 25 24  0  0  1  0  0  0  0  0999 V2000
   29.5719  -14.9047  -20.5993 C   0  0  0  0  0  0  0  0  0  0  0  0
   31.0274  -15.2261  -20.7814 C   0  0  2  0  0  0  0  0  0  0  0  0
   31.2164  -16.7146  -20.8117 C   0  0  0  0  0  0  0  0  0  0  0  0
   31.9172  -14.5646  -19.7633 C   0  0  2  0  0  0  0  0  0  0  0  0
   31.6126  -15.1573  -18.4739 N   0  0  0  0  0  0  0  0  0  0  0  0
   31.7326  -13.0902  -19.7251 C   0  0  0  0  0  0  0  0  0  0  0  0
   31.9309  -12.3523  -20.7052 O   0  0  0  0  0  0  0  0  0  0  0  0
   28.5856   -8.7607  -19.0210 C   0  0  0  0  0  0  0  0  0  0  0  0
   29.4005   -9.2943  -17.8256 C   0  0  0  0  0  0  0  0  0  0  0  0
   29.7330  -10.7264  -18.1080 C   0  0  2  0  0  0  0  0  0  0  0  0
   29.1538  -11.5849  -17.0015 C   0  0  0  0  0  0  0  0  0  0  0  0
   31.1847  -11.0096  -18.3809 C   0  0  2  0  0  0  0  0  0  0  0  0
   31.3086  -12.4820  -18.5134 N   0  0  0  0  0  0  0  0  0  0  0  0
   32.0518  -10.5913  -17.2673 C   0  0  0  0  0  0  0  0  0  0  0  0
   31.6601  -10.7788  -16.0811 O   0  0  0  0  0  0  0  0  0  0  0  0
   37.6213  -11.9805  -15.7839 N   0  0  0  0  0  0  0  0  0  0  0  0
   37.4146  -11.3045  -17.0082 C   0  0  0  0  0  0  0  0  0  0  0  0
   38.2426  -11.4541  -17.9315 O   0  0  0  0  0  0  0  0  0  0  0  0
   36.2467  -10.4277  -17.2225 C   0  0  0  0  0  0  0  0  0  0  0  0
   35.3012  -10.5149  -16.0407 C   0  0  0  0  0  0  0  0  0  0  0  0
   34.1139   -9.5898  -16.2239 C   0  0  2  0  0  0  0  0  0  0  0  0
   33.3280   -9.9815  -17.3892 N   0  0  0  0  0  0  0  0  0  0  0  0
   34.6624   -8.2235  -16.3615 C   0  0  0  0  0  0  0  0  0  0  0  0
   34.6057   -7.6138  -17.4434 O   0  0  0  0  0  0  0  0  0  0  0  0
   35.2446   -7.6317  -15.2542 O   0  0  0  0  0  0  0  0  0  0  0  0
  2  1  1  1
  2  3  1  0
  4  2  1  0
  4  6  1  0
  4  5  1  1
  6  7  2  0
  9  8  1  0
 10  9  1  0
 10 11  1  1
 12 10  1  0
 13  6  1  0
 12 13  1  1
 14 15  2  0
 14 12  1  0
 16 17  1  0
 17 18  2  0
 19 17  1  0
 19 20  1  0
 21 20  1  6
 21 22  1  0
 22 14  1  0
 23 21  1  0
 23 25  1  0
 24 23  2  0
M  END
$$$$
