VIQ.pdb
     RDKit          3D

 25 24  0  0  1  0  0  0  0  0999 V2000
   28.9167  -21.8379  -15.3735 C   0  0  0  0  0  0  0  0  0  0  0  0
   28.0541  -21.4250  -16.5313 C   0  0  2  0  0  0  0  0  0  0  0  0
   28.8632  -20.6133  -17.5002 C   0  0  0  0  0  0  0  0  0  0  0  0
   26.7941  -20.7149  -16.1141 C   0  0  2  0  0  0  0  0  0  0  0  0
   27.1715  -19.3790  -15.6904 N   0  0  0  0  0  0  0  0  0  0  0  0
   26.0753  -21.4314  -15.0282 C   0  0  0  0  0  0  0  0  0  0  0  0
   25.7102  -22.6160  -15.1176 O   0  0  0  0  0  0  0  0  0  0  0  0
   25.6687  -20.9686   -8.9987 C   0  0  0  0  0  0  0  0  0  0  0  0
   24.8610  -21.4394  -10.2249 C   0  0  0  0  0  0  0  0  0  0  0  0
   25.5463  -20.9131  -11.4474 C   0  0  2  0  0  0  0  0  0  0  0  0
   25.6837  -19.4096  -11.3157 C   0  0  0  0  0  0  0  0  0  0  0  0
   24.9461  -21.3418  -12.7581 C   0  0  2  0  0  0  0  0  0  0  0  0
   25.7851  -20.7384  -13.8226 N   0  0  0  0  0  0  0  0  0  0  0  0
   23.5756  -20.8346  -12.9345 C   0  0  0  0  0  0  0  0  0  0  0  0
   23.4053  -19.6199  -13.2370 O   0  0  0  0  0  0  0  0  0  0  0  0
   21.3758  -19.5825  -16.8221 N   0  0  0  0  0  0  0  0  0  0  0  0
   20.0414  -19.8444  -16.4354 C   0  0  0  0  0  0  0  0  0  0  0  0
   19.1133  -19.2293  -17.0019 O   0  0  0  0  0  0  0  0  0  0  0  0
   19.7178  -20.8249  -15.3806 C   0  0  0  0  0  0  0  0  0  0  0  0
   20.9898  -21.4162  -14.8056 C   0  0  0  0  0  0  0  0  0  0  0  0
   21.1038  -21.1244  -13.3221 C   0  0  2  0  0  0  0  0  0  0  0  0
   22.3830  -21.5929  -12.7996 N   0  0  0  0  0  0  0  0  0  0  0  0
   19.9607  -21.8001  -12.6715 C   0  0  0  0  0  0  0  0  0  0  0  0
   19.9488  -23.0328  -12.5110 O   0  0  0  0  0  0  0  0  0  0  0  0
   18.8959  -21.0279  -12.2410 O   0  0  0  0  0  0  0  0  0  0  0  0
  2  1  1  1
  2  3  1  0
  4  2  1  0
  4  6  1  0
  4  5  1  1
  6  7  2  0
  9  8  1  0
 10  9  1  0
 10 11  1  1
 12 10  1  0
 13  6  1  0
 12 13  1  6
 14 15  2  0
 14 12  1  0
 16 17  1  0
 17 18  2  0
 19 17  1  0
 19 20  1  0
 21 20  1  6
 21 22  1  0
 22 14  1  0
 23 21  1  0
 23 25  1  0
 24 23  2  0
M  END
$$$$
