VIQ.pdb
     RDKit          3D

 25 24  0  0  1  0  0  0  0  0999 V2000
   28.6885  -20.7671  -15.6422 C   0  0  0  0  0  0  0  0  0  0  0  0
   28.3734  -19.5342  -14.8451 C   0  0  2  0  0  0  0  0  0  0  0  0
   29.0085  -19.6330  -13.4890 C   0  0  0  0  0  0  0  0  0  0  0  0
   26.8997  -19.2394  -14.7581 C   0  0  2  0  0  0  0  0  0  0  0  0
   26.7582  -17.9070  -14.2004 N   0  0  0  0  0  0  0  0  0  0  0  0
   26.1719  -20.2388  -13.9329 C   0  0  0  0  0  0  0  0  0  0  0  0
   26.0860  -21.4410  -14.2358 O   0  0  0  0  0  0  0  0  0  0  0  0
   26.7098  -20.4087   -8.6474 C   0  0  0  0  0  0  0  0  0  0  0  0
   26.4927  -20.8309  -10.1145 C   0  0  0  0  0  0  0  0  0  0  0  0
   25.0848  -20.4797  -10.4827 C   0  0  2  0  0  0  0  0  0  0  0  0
   24.1463  -21.1434   -9.4951 C   0  0  0  0  0  0  0  0  0  0  0  0
   24.7116  -20.7319  -11.9178 C   0  0  2  0  0  0  0  0  0  0  0  0
   25.5383  -19.8107  -12.7357 N   0  0  0  0  0  0  0  0  0  0  0  0
   23.2994  -20.4171  -12.1886 C   0  0  0  0  0  0  0  0  0  0  0  0
   22.8553  -19.2755  -11.8798 O   0  0  0  0  0  0  0  0  0  0  0  0
   19.9366  -21.1599  -17.1877 N   0  0  0  0  0  0  0  0  0  0  0  0
   18.9921  -20.6110  -16.2903 C   0  0  0  0  0  0  0  0  0  0  0  0
   17.8957  -20.2090  -16.7339 O   0  0  0  0  0  0  0  0  0  0  0  0
   19.2685  -20.5012  -14.8446 C   0  0  0  0  0  0  0  0  0  0  0  0
   20.6971  -20.9148  -14.5506 C   0  0  0  0  0  0  0  0  0  0  0  0
   20.9810  -20.8715  -13.0618 C   0  0  2  0  0  0  0  0  0  0  0  0
   22.3510  -21.2896  -12.7842 N   0  0  0  0  0  0  0  0  0  0  0  0
   19.9908  -21.7616  -12.4186 C   0  0  0  0  0  0  0  0  0  0  0  0
   20.2587  -22.9505  -12.1731 O   0  0  0  0  0  0  0  0  0  0  0  0
   18.7504  -21.2418  -12.0922 O   0  0  0  0  0  0  0  0  0  0  0  0
  2  1  1  1
  2  3  1  0
  4  2  1  0
  4  6  1  0
  4  5  1  1
  6  7  2  0
  9  8  1  0
 10  9  1  0
 10 11  1  1
 12 10  1  0
 13  6  1  0
 12 13  1  6
 14 15  2  0
 14 12  1  0
 16 17  1  0
 17 18  2  0
 19 17  1  0
 19 20  1  0
 21 20  1  6
 21 22  1  0
 22 14  1  0
 23 21  1  0
 23 25  1  0
 24 23  2  0
M  END
$$$$
