VIQ.pdb
     RDKit          3D

 25 24  0  0  1  0  0  0  0  0999 V2000
   30.7334  -20.6057  -18.2157 C   0  0  0  0  0  0  0  0  0  0  0  0
   30.3188  -22.0490  -18.2249 C   0  0  2  0  0  0  0  0  0  0  0  0
   30.6314  -22.6561  -19.5613 C   0  0  0  0  0  0  0  0  0  0  0  0
   28.8812  -22.2601  -17.8313 C   0  0  2  0  0  0  0  0  0  0  0  0
   28.0747  -22.0664  -19.0223 N   0  0  0  0  0  0  0  0  0  0  0  0
   28.4521  -21.3399  -16.7458 C   0  0  0  0  0  0  0  0  0  0  0  0
   28.9625  -21.3365  -15.6127 O   0  0  0  0  0  0  0  0  0  0  0  0
   27.7325  -16.2331  -17.7867 C   0  0  0  0  0  0  0  0  0  0  0  0
   28.0694  -17.5181  -17.0037 C   0  0  0  0  0  0  0  0  0  0  0  0
   26.7762  -18.1430  -16.5818 C   0  0  2  0  0  0  0  0  0  0  0  0
   26.0153  -17.1501  -15.7263 C   0  0  0  0  0  0  0  0  0  0  0  0
   26.8929  -19.5033  -15.9508 C   0  0  2  0  0  0  0  0  0  0  0  0
   27.4070  -20.4130  -17.0039 N   0  0  0  0  0  0  0  0  0  0  0  0
   25.5888  -20.0267  -15.5124 C   0  0  0  0  0  0  0  0  0  0  0  0
   24.7436  -20.3759  -16.3840 O   0  0  0  0  0  0  0  0  0  0  0  0
   24.1964  -24.5125  -12.7119 N   0  0  0  0  0  0  0  0  0  0  0  0
   22.9925  -23.7717  -12.7387 C   0  0  0  0  0  0  0  0  0  0  0  0
   21.9887  -24.2645  -13.2954 O   0  0  0  0  0  0  0  0  0  0  0  0
   22.8922  -22.4324  -12.1262 C   0  0  0  0  0  0  0  0  0  0  0  0
   24.1167  -21.6063  -12.4675 C   0  0  0  0  0  0  0  0  0  0  0  0
   23.9614  -20.9348  -13.8180 C   0  0  2  0  0  0  0  0  0  0  0  0
   25.1665  -20.1898  -14.1668 N   0  0  0  0  0  0  0  0  0  0  0  0
   22.7778  -20.0543  -13.7164 C   0  0  0  0  0  0  0  0  0  0  0  0
   22.8824  -18.8788  -13.3257 O   0  0  0  0  0  0  0  0  0  0  0  0
   21.5415  -20.5677  -14.0674 O   0  0  0  0  0  0  0  0  0  0  0  0
  2  1  1  6
  2  3  1  0
  4  2  1  0
  4  6  1  0
  4  5  1  6
  6  7  2  0
  9  8  1  0
 10  9  1  0
 10 11  1  1
 12 10  1  0
 13  6  1  0
 12 13  1  6
 14 15  2  0
 14 12  1  0
 16 17  1  0
 17 18  2  0
 19 17  1  0
 19 20  1  0
 21 20  1  1
 21 22  1  0
 22 14  1  0
 23 21  1  0
 23 25  1  0
 24 23  2  0
M  END
$$$$
