VIQ.pdb
     RDKit          3D

 25 24  0  0  1  0  0  0  0  0999 V2000
   19.4845  -14.8827  -16.1702 C   0  0  0  0  0  0  0  0  0  0  0  0
   18.3908  -14.0859  -16.8213 C   0  0  2  0  0  0  0  0  0  0  0  0
   17.7669  -14.8907  -17.9237 C   0  0  0  0  0  0  0  0  0  0  0  0
   18.8412  -12.7306  -17.2971 C   0  0  2  0  0  0  0  0  0  0  0  0
   19.6727  -12.9387  -18.4683 N   0  0  0  0  0  0  0  0  0  0  0  0
   19.5818  -11.9815  -16.2484 C   0  0  0  0  0  0  0  0  0  0  0  0
   19.1404  -11.7974  -15.1013 O   0  0  0  0  0  0  0  0  0  0  0  0
   24.6704  -12.9539  -15.3381 C   0  0  0  0  0  0  0  0  0  0  0  0
   23.1992  -12.5532  -15.1085 C   0  0  0  0  0  0  0  0  0  0  0  0
   23.0310  -11.1487  -15.5988 C   0  0  2  0  0  0  0  0  0  0  0  0
   24.0068  -10.2572  -14.8574 C   0  0  0  0  0  0  0  0  0  0  0  0
   21.6210  -10.6256  -15.5854 C   0  0  2  0  0  0  0  0  0  0  0  0
   20.8591  -11.4440  -16.5605 N   0  0  0  0  0  0  0  0  0  0  0  0
   21.5436   -9.2240  -16.0286 C   0  0  0  0  0  0  0  0  0  0  0  0
   21.6965   -8.9590  -17.2543 O   0  0  0  0  0  0  0  0  0  0  0  0
   17.4242   -6.7362  -18.0755 N   0  0  0  0  0  0  0  0  0  0  0  0
   18.0959   -5.5132  -17.8477 C   0  0  0  0  0  0  0  0  0  0  0  0
   17.6312   -4.4642  -18.3417 O   0  0  0  0  0  0  0  0  0  0  0  0
   19.3308   -5.4450  -17.0421 C   0  0  0  0  0  0  0  0  0  0  0  0
   19.7478   -6.8346  -16.6020 C   0  0  0  0  0  0  0  0  0  0  0  0
   20.9963   -6.7821  -15.7434 C   0  0  2  0  0  0  0  0  0  0  0  0
   21.3035   -8.0993  -15.1962 N   0  0  0  0  0  0  0  0  0  0  0  0
   20.7337   -5.7895  -14.6793 C   0  0  0  0  0  0  0  0  0  0  0  0
   20.3527   -6.1431  -13.5500 O   0  0  0  0  0  0  0  0  0  0  0  0
   20.9217   -4.4488  -14.9665 O   0  0  0  0  0  0  0  0  0  0  0  0
  2  1  1  6
  2  3  1  0
  4  2  1  0
  4  6  1  0
  4  5  1  6
  6  7  2  0
  9  8  1  0
 10  9  1  0
 10 11  1  1
 12 10  1  0
 13  6  1  0
 12 13  1  6
 14 15  2  0
 14 12  1  0
 16 17  1  0
 17 18  2  0
 19 17  1  0
 19 20  1  0
 21 20  1  6
 21 22  1  0
 22 14  1  0
 23 21  1  0
 23 25  1  0
 24 23  2  0
M  END
$$$$
