VIQ.pdb
     RDKit          3D

 25 24  0  0  1  0  0  0  0  0999 V2000
   19.6312  -14.7772  -18.7235 C   0  0  0  0  0  0  0  0  0  0  0  0
   21.0142  -14.4218  -19.1882 C   0  0  2  0  0  0  0  0  0  0  0  0
   21.8800  -15.6475  -19.1823 C   0  0  0  0  0  0  0  0  0  0  0  0
   21.6328  -13.2899  -18.4121 C   0  0  2  0  0  0  0  0  0  0  0  0
   22.1281  -13.8420  -17.1646 N   0  0  0  0  0  0  0  0  0  0  0  0
   20.6693  -12.1870  -18.1576 C   0  0  0  0  0  0  0  0  0  0  0  0
   20.0483  -11.6016  -19.0609 O   0  0  0  0  0  0  0  0  0  0  0  0
   17.1300  -13.1450  -15.4738 C   0  0  0  0  0  0  0  0  0  0  0  0
   17.3954  -11.8670  -16.2947 C   0  0  0  0  0  0  0  0  0  0  0  0
   18.4850  -11.1053  -15.6063 C   0  0  2  0  0  0  0  0  0  0  0  0
   17.8549  -10.0164  -14.7615 C   0  0  0  0  0  0  0  0  0  0  0  0
   19.5839  -10.6014  -16.5010 C   0  0  2  0  0  0  0  0  0  0  0  0
   20.4380  -11.7721  -16.8188 N   0  0  0  0  0  0  0  0  0  0  0  0
   20.4332   -9.6034  -15.8305 C   0  0  0  0  0  0  0  0  0  0  0  0
   21.0562   -9.9332  -14.7822 O   0  0  0  0  0  0  0  0  0  0  0  0
   23.9381   -2.9927  -15.9494 N   0  0  0  0  0  0  0  0  0  0  0  0
   23.1501   -4.0579  -16.4424 C   0  0  0  0  0  0  0  0  0  0  0  0
   22.7868   -4.0417  -17.6375 O   0  0  0  0  0  0  0  0  0  0  0  0
   22.7464   -5.1870  -15.5817 C   0  0  0  0  0  0  0  0  0  0  0  0
   21.8674   -6.1492  -16.3563 C   0  0  0  0  0  0  0  0  0  0  0  0
   21.4585   -7.3275  -15.4942 C   0  0  2  0  0  0  0  0  0  0  0  0
   20.6366   -8.2636  -16.2538 N   0  0  0  0  0  0  0  0  0  0  0  0
   20.7305   -6.7682  -14.3350 C   0  0  0  0  0  0  0  0  0  0  0  0
   19.5250   -6.4746  -14.4135 O   0  0  0  0  0  0  0  0  0  0  0  0
   21.4219   -6.5763  -13.1517 O   0  0  0  0  0  0  0  0  0  0  0  0
  2  1  1  1
  2  3  1  0
  4  2  1  0
  4  6  1  0
  4  5  1  1
  6  7  2  0
  9  8  1  0
 10  9  1  0
 10 11  1  6
 12 10  1  0
 13  6  1  0
 12 13  1  1
 14 15  2  0
 14 12  1  0
 16 17  1  0
 17 18  2  0
 19 17  1  0
 19 20  1  0
 21 20  1  6
 21 22  1  0
 22 14  1  0
 23 21  1  0
 23 25  1  0
 24 23  2  0
M  END
$$$$
