VIQ.pdb
     RDKit          3D

 25 24  0  0  1  0  0  0  0  0999 V2000
   22.7072  -21.2619  -18.3730 C   0  0  0  0  0  0  0  0  0  0  0  0
   22.5298  -19.8474  -17.9012 C   0  0  2  0  0  0  0  0  0  0  0  0
   23.5932  -18.9765  -18.5037 C   0  0  0  0  0  0  0  0  0  0  0  0
   22.4778  -19.7197  -16.4022 C   0  0  2  0  0  0  0  0  0  0  0  0
   22.4516  -18.3025  -16.0904 N   0  0  0  0  0  0  0  0  0  0  0  0
   23.6285  -20.3866  -15.7385 C   0  0  0  0  0  0  0  0  0  0  0  0
   23.7779  -21.6200  -15.7089 O   0  0  0  0  0  0  0  0  0  0  0  0
   28.6556  -19.3658  -16.6396 C   0  0  0  0  0  0  0  0  0  0  0  0
   27.3165  -20.0296  -16.2604 C   0  0  0  0  0  0  0  0  0  0  0  0
   26.9941  -19.6274  -14.8549 C   0  0  2  0  0  0  0  0  0  0  0  0
   28.1971  -19.9181  -13.9803 C   0  0  0  0  0  0  0  0  0  0  0  0
   25.7106  -20.1841  -14.3031 C   0  0  2  0  0  0  0  0  0  0  0  0
   24.6138  -19.5849  -15.1026 N   0  0  0  0  0  0  0  0  0  0  0  0
   25.4955  -19.7988  -12.8988 C   0  0  0  0  0  0  0  0  0  0  0  0
   25.6844  -18.5975  -12.5566 O   0  0  0  0  0  0  0  0  0  0  0  0
   20.9734  -20.9616   -9.2253 N   0  0  0  0  0  0  0  0  0  0  0  0
   21.1858  -20.3856  -10.4988 C   0  0  0  0  0  0  0  0  0  0  0  0
   20.1997  -20.1326  -11.2227 O   0  0  0  0  0  0  0  0  0  0  0  0
   22.5414  -20.0759  -10.9937 C   0  0  0  0  0  0  0  0  0  0  0  0
   23.5753  -20.4118   -9.9370 C   0  0  0  0  0  0  0  0  0  0  0  0
   24.9814  -20.2123  -10.4681 C   0  0  2  0  0  0  0  0  0  0  0  0
   25.0803  -20.6634  -11.8521 N   0  0  0  0  0  0  0  0  0  0  0  0
   25.8806  -20.9727   -9.5738 C   0  0  0  0  0  0  0  0  0  0  0  0
   26.5035  -21.9678   -9.9829 O   0  0  0  0  0  0  0  0  0  0  0  0
   26.0169  -20.5522   -8.2623 O   0  0  0  0  0  0  0  0  0  0  0  0
  2  1  1  1
  2  3  1  0
  4  2  1  0
  4  6  1  0
  4  5  1  6
  6  7  2  0
  9  8  1  0
 10  9  1  0
 10 11  1  1
 12 10  1  0
 13  6  1  0
 12 13  1  6
 14 15  2  0
 14 12  1  0
 16 17  1  0
 17 18  2  0
 19 17  1  0
 19 20  1  0
 21 20  1  1
 21 22  1  0
 22 14  1  0
 23 21  1  0
 23 25  1  0
 24 23  2  0
M  END
$$$$
