VIQ.pdb
     RDKit          3D

 25 24  0  0  1  0  0  0  0  0999 V2000
   18.6834  -13.4244  -15.0559 C   0  0  0  0  0  0  0  0  0  0  0  0
   17.5844  -12.4376  -15.3265 C   0  0  2  0  0  0  0  0  0  0  0  0
   16.4759  -13.1102  -16.0821 C   0  0  0  0  0  0  0  0  0  0  0  0
   18.0605  -11.1874  -16.0167 C   0  0  2  0  0  0  0  0  0  0  0  0
   18.5013  -11.5693  -17.3457 N   0  0  0  0  0  0  0  0  0  0  0  0
   19.1539  -10.5118  -15.2700 C   0  0  0  0  0  0  0  0  0  0  0  0
   19.0551  -10.1657  -14.0805 O   0  0  0  0  0  0  0  0  0  0  0  0
   24.1437  -12.2959  -15.6429 C   0  0  0  0  0  0  0  0  0  0  0  0
   22.8596  -11.6626  -15.0704 C   0  0  0  0  0  0  0  0  0  0  0  0
   22.7511  -10.2773  -15.6276 C   0  0  2  0  0  0  0  0  0  0  0  0
   24.0160   -9.5169  -15.2837 C   0  0  0  0  0  0  0  0  0  0  0  0
   21.4947   -9.5336  -15.2665 C   0  0  2  0  0  0  0  0  0  0  0  0
   20.3781  -10.2427  -15.9385 N   0  0  0  0  0  0  0  0  0  0  0  0
   21.5045   -8.1494  -15.7671 C   0  0  0  0  0  0  0  0  0  0  0  0
   21.3306   -7.9422  -17.0011 O   0  0  0  0  0  0  0  0  0  0  0  0
   17.4393   -4.7003  -16.3742 N   0  0  0  0  0  0  0  0  0  0  0  0
   18.4195   -3.7048  -16.5907 C   0  0  0  0  0  0  0  0  0  0  0  0
   18.0622   -2.5802  -17.0007 O   0  0  0  0  0  0  0  0  0  0  0  0
   19.8522   -3.9605  -16.3448 C   0  0  0  0  0  0  0  0  0  0  0  0
   20.0537   -5.3761  -15.8410 C   0  0  0  0  0  0  0  0  0  0  0  0
   21.5143   -5.6416  -15.5328 C   0  0  2  0  0  0  0  0  0  0  0  0
   21.6916   -6.9812  -14.9824 N   0  0  0  0  0  0  0  0  0  0  0  0
   21.9410   -4.5928  -14.5817 C   0  0  0  0  0  0  0  0  0  0  0  0
   22.0035   -4.8188  -13.3608 O   0  0  0  0  0  0  0  0  0  0  0  0
   22.2723   -3.3451  -15.0804 O   0  0  0  0  0  0  0  0  0  0  0  0
  2  1  1  6
  2  3  1  0
  4  2  1  0
  4  6  1  0
  4  5  1  6
  6  7  2  0
  9  8  1  0
 10  9  1  0
 10 11  1  1
 12 10  1  0
 13  6  1  0
 12 13  1  6
 14 15  2  0
 14 12  1  0
 16 17  1  0
 17 18  2  0
 19 17  1  0
 19 20  1  0
 21 20  1  1
 21 22  1  0
 22 14  1  0
 23 21  1  0
 23 25  1  0
 24 23  2  0
M  END
$$$$
