LEM.pdb
     RDKit          3D

 26 25  0  0  1  0  0  0  0  0999 V2000
   13.7345  -10.5509  -14.0170 C   0  0  0  0  0  0  0  0  0  0  0  0
   14.3996  -10.7795  -15.3503 C   0  0  1  0  0  0  0  0  0  0  0  0
   13.7550   -9.8588  -16.3668 C   0  0  0  0  0  0  0  0  0  0  0  0
   15.8668  -10.4773  -15.2720 C   0  0  0  0  0  0  0  0  0  0  0  0
   16.5845  -10.6271  -16.5835 C   0  0  2  0  0  0  0  0  0  0  0  0
   16.9841  -11.9904  -16.7704 N   0  0  0  0  0  0  0  0  0  0  0  0
   17.7721   -9.7621  -16.5741 C   0  0  0  0  0  0  0  0  0  0  0  0
   18.8645  -10.2410  -16.1219 O   0  0  0  0  0  0  0  0  0  0  0  0
   17.7972   -8.4034  -17.0397 N   0  0  0  0  0  0  0  0  0  0  0  0
   19.0161   -7.6692  -17.0379 C   0  0  1  0  0  0  0  0  0  0  0  0
   19.0752   -6.6600  -18.1200 C   0  0  0  0  0  0  0  0  0  0  0  0
   20.3069   -5.8751  -18.3107 C   0  0  0  0  0  0  0  0  0  0  0  0
   20.8275   -5.7840  -19.6879 C   0  0  0  0  0  0  0  0  0  0  0  0
   22.0723   -5.7928  -19.9628 O   0  0  0  0  0  0  0  0  0  0  0  0
   19.3661   -7.1247  -15.7001 C   0  0  0  0  0  0  0  0  0  0  0  0
   18.4869   -6.6510  -14.9353 O   0  0  0  0  0  0  0  0  0  0  0  0
   19.9685   -5.6824  -20.7726 O   0  0  0  0  0  0  0  0  0  0  0  0
   22.8097   -9.2177  -10.3723 C   0  0  0  0  0  0  0  0  0  0  0  0
   22.9443   -9.7721  -12.1025 S   0  0  0  0  0  0  0  0  0  0  0  0
   21.6248   -8.9776  -13.1100 C   0  0  0  0  0  0  0  0  0  0  0  0
   21.9845   -7.5285  -13.1883 C   0  0  0  0  0  0  0  0  0  0  0  0
   20.9934   -6.6446  -13.8667 C   0  0  2  0  0  0  0  0  0  0  0  0
   20.7078   -7.1156  -15.2274 N   0  0  0  0  0  0  0  0  0  0  0  0
   21.5003   -5.2695  -13.9604 C   0  0  0  0  0  0  0  0  0  0  0  0
   21.6038   -4.4997  -12.7855 O   0  0  0  0  0  0  0  0  0  0  0  0
   21.8597   -4.7052  -15.0285 O   0  0  0  0  0  0  0  0  0  0  0  0
  2  1  1  1
  2  3  1  0
  4  5  1  0
  4  2  1  0
  5  6  1  1
  7  8  2  0
  7  5  1  0
  9  7  1  0
 10  9  1  0
 10 11  1  6
 12 13  1  0
 12 11  1  0
 13 14  2  0
 13 17  1  0
 15 23  1  0
 15 10  1  0
 16 15  2  0
 19 20  1  0
 19 18  1  0
 20 21  1  0
 22 21  1  6
 22 24  1  0
 22 23  1  0
 24 25  1  0
 26 24  2  0
M  END
$$$$
