LEM.pdb
     RDKit          3D

 26 25  0  0  1  0  0  0  0  0999 V2000
   28.1000  -16.3190  -18.5114 C   0  0  0  0  0  0  0  0  0  0  0  0
   27.9428  -17.6940  -17.9137 C   0  0  1  0  0  0  0  0  0  0  0  0
   28.9174  -18.6264  -18.6044 C   0  0  0  0  0  0  0  0  0  0  0  0
   28.2390  -17.6721  -16.4433 C   0  0  0  0  0  0  0  0  0  0  0  0
   28.1680  -19.0250  -15.7935 C   0  0  2  0  0  0  0  0  0  0  0  0
   27.8444  -20.0216  -16.7709 N   0  0  0  0  0  0  0  0  0  0  0  0
   27.1287  -18.9970  -14.7553 C   0  0  0  0  0  0  0  0  0  0  0  0
   27.2210  -18.1219  -13.8319 O   0  0  0  0  0  0  0  0  0  0  0  0
   26.0046  -19.8897  -14.7000 N   0  0  0  0  0  0  0  0  0  0  0  0
   25.0637  -19.7899  -13.6373 C   0  0  1  0  0  0  0  0  0  0  0  0
   23.6968  -20.1852  -14.0472 C   0  0  0  0  0  0  0  0  0  0  0  0
   22.8741  -19.2432  -14.8254 C   0  0  0  0  0  0  0  0  0  0  0  0
   21.4287  -19.2274  -14.5314 C   0  0  0  0  0  0  0  0  0  0  0  0
   20.7450  -20.2875  -14.3468 O   0  0  0  0  0  0  0  0  0  0  0  0
   25.5228  -20.4526  -12.3887 C   0  0  0  0  0  0  0  0  0  0  0  0
   26.0447  -21.5969  -12.4084 O   0  0  0  0  0  0  0  0  0  0  0  0
   20.7299  -18.0324  -14.4397 O   0  0  0  0  0  0  0  0  0  0  0  0
   28.4281  -19.6041   -5.1587 C   0  0  0  0  0  0  0  0  0  0  0  0
   27.8437  -18.9517   -6.7563 S   0  0  0  0  0  0  0  0  0  0  0  0
   26.9651  -20.2785   -7.6810 C   0  0  0  0  0  0  0  0  0  0  0  0
   26.6032  -19.6856   -9.0049 C   0  0  0  0  0  0  0  0  0  0  0  0
   25.7872  -20.5487   -9.9067 C   0  0  2  0  0  0  0  0  0  0  0  0
   25.3922  -19.8228  -11.1199 N   0  0  0  0  0  0  0  0  0  0  0  0
   24.5642  -20.9994   -9.2300 C   0  0  0  0  0  0  0  0  0  0  0  0
   24.6750  -21.8849   -8.1403 O   0  0  0  0  0  0  0  0  0  0  0  0
   23.3951  -20.6529   -9.5485 O   0  0  0  0  0  0  0  0  0  0  0  0
  2  1  1  6
  2  3  1  0
  4  5  1  0
  4  2  1  0
  5  6  1  6
  7  8  2  0
  7  5  1  0
  9  7  1  0
 10  9  1  0
 10 11  1  6
 12 13  1  0
 12 11  1  0
 13 14  2  0
 13 17  1  0
 15 23  1  0
 15 10  1  0
 16 15  2  0
 19 20  1  0
 19 18  1  0
 20 21  1  0
 22 21  1  1
 22 24  1  0
 22 23  1  0
 24 25  1  0
 26 24  2  0
M  END
$$$$
