LEM.pdb
     RDKit          3D

 26 25  0  0  1  0  0  0  0  0999 V2000
   15.0175   -9.5724  -10.6779 C   0  0  0  0  0  0  0  0  0  0  0  0
   15.6388  -10.2535  -11.8706 C   0  0  1  0  0  0  0  0  0  0  0  0
   16.1072  -11.6293  -11.4415 C   0  0  0  0  0  0  0  0  0  0  0  0
   14.6408  -10.3966  -12.9814 C   0  0  0  0  0  0  0  0  0  0  0  0
   14.0805   -9.0877  -13.4614 C   0  0  2  0  0  0  0  0  0  0  0  0
   13.1084   -9.3181  -14.4887 N   0  0  0  0  0  0  0  0  0  0  0  0
   15.1786   -8.2710  -13.9961 C   0  0  0  0  0  0  0  0  0  0  0  0
   15.8373   -8.7217  -14.9912 O   0  0  0  0  0  0  0  0  0  0  0  0
   15.5718   -6.9902  -13.4779 N   0  0  0  0  0  0  0  0  0  0  0  0
   16.5467   -6.2109  -14.1612 C   0  0  1  0  0  0  0  0  0  0  0  0
   16.1333   -4.7987  -14.3274 C   0  0  0  0  0  0  0  0  0  0  0  0
   17.0306   -3.8592  -15.0214 C   0  0  0  0  0  0  0  0  0  0  0  0
   16.5434   -2.4764  -15.1847 C   0  0  0  0  0  0  0  0  0  0  0  0
   15.4158   -2.0796  -14.7417 O   0  0  0  0  0  0  0  0  0  0  0  0
   17.9141   -6.3660  -13.6000 C   0  0  0  0  0  0  0  0  0  0  0  0
   18.0962   -6.6602  -12.3906 O   0  0  0  0  0  0  0  0  0  0  0  0
   17.3057   -1.5218  -15.8423 O   0  0  0  0  0  0  0  0  0  0  0  0
   24.5215  -10.0362  -13.8547 C   0  0  0  0  0  0  0  0  0  0  0  0
   22.8179   -9.6229  -14.3506 S   0  0  0  0  0  0  0  0  0  0  0  0
   22.3762   -7.9543  -13.7119 C   0  0  0  0  0  0  0  0  0  0  0  0
   20.9677   -7.7073  -14.1481 C   0  0  0  0  0  0  0  0  0  0  0  0
   20.4033   -6.3693  -13.8087 C   0  0  2  0  0  0  0  0  0  0  0  0
   19.0739   -6.1887  -14.4044 N   0  0  0  0  0  0  0  0  0  0  0  0
   21.2727   -5.2957  -14.3069 C   0  0  0  0  0  0  0  0  0  0  0  0
   22.4643   -5.0066  -13.6139 O   0  0  0  0  0  0  0  0  0  0  0  0
   21.0382   -4.5935  -15.3269 O   0  0  0  0  0  0  0  0  0  0  0  0
  2  1  1  1
  2  3  1  0
  4  5  1  0
  4  2  1  0
  5  6  1  6
  7  8  2  0
  7  5  1  0
  9  7  1  0
 10  9  1  0
 10 11  1  1
 12 13  1  0
 12 11  1  0
 13 14  2  0
 13 17  1  0
 15 23  1  0
 15 10  1  0
 16 15  2  0
 19 20  1  0
 19 18  1  0
 20 21  1  0
 22 21  1  6
 22 24  1  0
 22 23  1  0
 24 25  1  0
 26 24  2  0
M  END
$$$$
