LEM.pdb
     RDKit          3D

 26 25  0  0  1  0  0  0  0  0999 V2000
   18.5696  -16.1097  -18.2369 C   0  0  0  0  0  0  0  0  0  0  0  0
   17.8902  -15.2989  -17.1628 C   0  0  1  0  0  0  0  0  0  0  0  0
   17.8253  -16.1387  -15.9032 C   0  0  0  0  0  0  0  0  0  0  0  0
   18.6585  -14.0422  -16.8786 C   0  0  0  0  0  0  0  0  0  0  0  0
   17.9782  -13.1275  -15.8998 C   0  0  2  0  0  0  0  0  0  0  0  0
   16.5565  -13.2108  -16.0581 N   0  0  0  0  0  0  0  0  0  0  0  0
   18.4224  -11.7500  -16.1524 C   0  0  0  0  0  0  0  0  0  0  0  0
   19.5136  -11.5746  -16.7893 O   0  0  0  0  0  0  0  0  0  0  0  0
   17.7144  -10.5729  -15.7320 N   0  0  0  0  0  0  0  0  0  0  0  0
   18.2607   -9.2828  -15.9805 C   0  0  1  0  0  0  0  0  0  0  0  0
   17.2936   -8.1934  -15.7145 C   0  0  0  0  0  0  0  0  0  0  0  0
   17.6834   -6.7986  -15.9829 C   0  0  0  0  0  0  0  0  0  0  0  0
   16.7008   -5.7567  -15.6291 C   0  0  0  0  0  0  0  0  0  0  0  0
   15.5660   -6.0185  -15.1106 O   0  0  0  0  0  0  0  0  0  0  0  0
   19.5812   -9.0746  -15.3311 C   0  0  0  0  0  0  0  0  0  0  0  0
   19.7703   -9.3680  -14.1226 O   0  0  0  0  0  0  0  0  0  0  0  0
   16.9710   -4.4138  -15.8487 O   0  0  0  0  0  0  0  0  0  0  0  0
   27.1530   -9.9644  -15.1089 C   0  0  0  0  0  0  0  0  0  0  0  0
   25.4715  -10.2053  -15.7674 S   0  0  0  0  0  0  0  0  0  0  0  0
   24.3451   -8.9298  -15.0661 C   0  0  0  0  0  0  0  0  0  0  0  0
   22.9925   -9.2200  -15.6333 C   0  0  0  0  0  0  0  0  0  0  0  0
   21.9284   -8.2200  -15.3307 C   0  0  2  0  0  0  0  0  0  0  0  0
   20.6863   -8.5355  -16.0465 N   0  0  0  0  0  0  0  0  0  0  0  0
   22.3518   -6.8718  -15.7305 C   0  0  0  0  0  0  0  0  0  0  0  0
   23.3458   -6.2180  -14.9767 O   0  0  0  0  0  0  0  0  0  0  0  0
   21.8907   -6.2340  -16.7149 O   0  0  0  0  0  0  0  0  0  0  0  0
  2  1  1  6
  2  3  1  0
  4  5  1  0
  4  2  1  0
  5  6  1  6
  7  8  2  0
  7  5  1  0
  9  7  1  0
 10  9  1  0
 10 11  1  1
 12 13  1  0
 12 11  1  0
 13 14  2  0
 13 17  1  0
 15 23  1  0
 15 10  1  0
 16 15  2  0
 19 20  1  0
 19 18  1  0
 20 21  1  0
 22 21  1  6
 22 24  1  0
 22 23  1  0
 24 25  1  0
 26 24  2  0
M  END
$$$$
