LEM.pdb
     RDKit          3D

 26 25  0  0  1  0  0  0  0  0999 V2000
   26.0976  -13.8554  -18.7895 C   0  0  0  0  0  0  0  0  0  0  0  0
   25.8901  -13.2523  -17.4236 C   0  0  1  0  0  0  0  0  0  0  0  0
   27.2426  -13.1169  -16.7536 C   0  0  0  0  0  0  0  0  0  0  0  0
   25.2551  -11.8974  -17.5309 C   0  0  0  0  0  0  0  0  0  0  0  0
   24.9641  -11.2605  -16.2015 C   0  0  2  0  0  0  0  0  0  0  0  0
   24.3946  -12.2267  -15.3096 N   0  0  0  0  0  0  0  0  0  0  0  0
   24.0156  -10.1568  -16.4036 C   0  0  0  0  0  0  0  0  0  0  0  0
   24.3305   -9.2324  -17.2242 O   0  0  0  0  0  0  0  0  0  0  0  0
   22.7471  -10.0376  -15.7400 N   0  0  0  0  0  0  0  0  0  0  0  0
   21.8788   -8.9529  -16.0465 C   0  0  1  0  0  0  0  0  0  0  0  0
   20.4508   -9.3448  -16.0341 C   0  0  0  0  0  0  0  0  0  0  0  0
   19.7700   -9.5563  -14.7452 C   0  0  0  0  0  0  0  0  0  0  0  0
   18.3455   -9.9352  -14.8032 C   0  0  0  0  0  0  0  0  0  0  0  0
   17.9510  -11.1202  -15.0592 O   0  0  0  0  0  0  0  0  0  0  0  0
   22.1655   -7.7334  -15.2469 C   0  0  0  0  0  0  0  0  0  0  0  0
   22.5760   -7.8097  -14.0603 O   0  0  0  0  0  0  0  0  0  0  0  0
   17.3461   -8.9999  -14.5769 O   0  0  0  0  0  0  0  0  0  0  0  0
   23.6399    0.0588  -15.8000 C   0  0  0  0  0  0  0  0  0  0  0  0
   23.0775   -1.5176  -16.5195 S   0  0  0  0  0  0  0  0  0  0  0  0
   22.9674   -2.7948  -15.1989 C   0  0  0  0  0  0  0  0  0  0  0  0
   22.6054   -4.0701  -15.8903 C   0  0  0  0  0  0  0  0  0  0  0  0
   22.4144   -5.2591  -15.0107 C   0  0  2  0  0  0  0  0  0  0  0  0
   21.9885   -6.4295  -15.7876 N   0  0  0  0  0  0  0  0  0  0  0  0
   21.3900   -4.9943  -13.9922 C   0  0  0  0  0  0  0  0  0  0  0  0
   20.1005   -5.5334  -14.1661 O   0  0  0  0  0  0  0  0  0  0  0  0
   21.5705   -4.3092  -12.9499 O   0  0  0  0  0  0  0  0  0  0  0  0
  2  1  1  6
  2  3  1  0
  4  5  1  0
  4  2  1  0
  5  6  1  1
  7  8  2  0
  7  5  1  0
  9  7  1  0
 10  9  1  0
 10 11  1  1
 12 13  1  0
 12 11  1  0
 13 14  2  0
 13 17  1  0
 15 23  1  0
 15 10  1  0
 16 15  2  0
 19 20  1  0
 19 18  1  0
 20 21  1  0
 22 21  1  6
 22 24  1  0
 22 23  1  0
 24 25  1  0
 26 24  2  0
M  END
$$$$
