LEM.pdb
     RDKit          3D

 26 25  0  0  1  0  0  0  0  0999 V2000
   17.6881  -13.6962    3.4511 C   0  0  0  0  0  0  0  0  0  0  0  0
   18.0087  -14.9428    2.6665 C   0  0  1  0  0  0  0  0  0  0  0  0
   19.4059  -14.7998    2.0974 C   0  0  0  0  0  0  0  0  0  0  0  0
   17.9573  -16.1549    3.5488 C   0  0  0  0  0  0  0  0  0  0  0  0
   18.3013  -17.4334    2.8382 C   0  0  2  0  0  0  0  0  0  0  0  0
   17.6208  -17.4921    1.5785 N   0  0  0  0  0  0  0  0  0  0  0  0
   17.8859  -18.5666    3.6762 C   0  0  0  0  0  0  0  0  0  0  0  0
   18.2376  -18.5718    4.9023 O   0  0  0  0  0  0  0  0  0  0  0  0
   17.1061  -19.6813    3.2150 N   0  0  0  0  0  0  0  0  0  0  0  0
   16.8443  -20.7786    4.0822 C   0  0  1  0  0  0  0  0  0  0  0  0
   15.8725  -21.7382    3.5099 C   0  0  0  0  0  0  0  0  0  0  0  0
   16.3544  -22.8201    2.6342 C   0  0  0  0  0  0  0  0  0  0  0  0
   15.3269  -23.6827    2.0209 C   0  0  0  0  0  0  0  0  0  0  0  0
   15.4384  -24.9504    1.9445 O   0  0  0  0  0  0  0  0  0  0  0  0
   18.0811  -21.4230    4.5958 C   0  0  0  0  0  0  0  0  0  0  0  0
   19.1075  -21.5361    3.8774 O   0  0  0  0  0  0  0  0  0  0  0  0
   14.1655  -23.1437    1.4867 O   0  0  0  0  0  0  0  0  0  0  0  0
   22.2041  -19.1775    7.3895 C   0  0  0  0  0  0  0  0  0  0  0  0
   22.2551  -20.5440    8.5934 S   0  0  0  0  0  0  0  0  0  0  0  0
   21.4163  -22.0217    7.8862 C   0  0  0  0  0  0  0  0  0  0  0  0
   20.1905  -21.5091    7.2007 C   0  0  0  0  0  0  0  0  0  0  0  0
   19.4216  -22.5075    6.4032 C   0  0  2  0  0  0  0  0  0  0  0  0
   18.1578  -21.9387    5.9194 N   0  0  0  0  0  0  0  0  0  0  0  0
   19.1050  -23.6898    7.2147 C   0  0  0  0  0  0  0  0  0  0  0  0
   17.8086  -23.8228    7.7488 O   0  0  0  0  0  0  0  0  0  0  0  0
   19.9141  -24.6189    7.4806 O   0  0  0  0  0  0  0  0  0  0  0  0
  2  1  1  1
  2  3  1  0
  4  5  1  0
  4  2  1  0
  5  6  1  6
  7  8  2  0
  7  5  1  0
  9  7  1  0
 10  9  1  0
 10 11  1  6
 12 13  1  0
 12 11  1  0
 13 14  2  0
 13 17  1  0
 15 23  1  0
 15 10  1  0
 16 15  2  0
 19 20  1  0
 19 18  1  0
 20 21  1  0
 22 21  1  1
 22 24  1  0
 22 23  1  0
 24 25  1  0
 26 24  2  0
M  END
$$$$
