LEM.pdb
     RDKit          3D

 26 25  0  0  1  0  0  0  0  0999 V2000
   29.9839  -19.1569  -13.2838 C   0  0  0  0  0  0  0  0  0  0  0  0
   28.9924  -20.1996  -13.7334 C   0  0  1  0  0  0  0  0  0  0  0  0
   29.3730  -21.5220  -13.0989 C   0  0  0  0  0  0  0  0  0  0  0  0
   27.6021  -19.8304  -13.3077 C   0  0  0  0  0  0  0  0  0  0  0  0
   26.5581  -20.8258  -13.7284 C   0  0  2  0  0  0  0  0  0  0  0  0
   26.7805  -21.2245  -15.0866 N   0  0  0  0  0  0  0  0  0  0  0  0
   25.2337  -20.2009  -13.6086 C   0  0  0  0  0  0  0  0  0  0  0  0
   24.8924  -19.7210  -12.4771 O   0  0  0  0  0  0  0  0  0  0  0  0
   24.2833  -20.0884  -14.6799 N   0  0  0  0  0  0  0  0  0  0  0  0
   23.0066  -19.5056  -14.4451 C   0  0  1  0  0  0  0  0  0  0  0  0
   22.3311  -19.0900  -15.6956 C   0  0  0  0  0  0  0  0  0  0  0  0
   21.0068  -18.4491  -15.6238 C   0  0  0  0  0  0  0  0  0  0  0  0
   20.8011  -17.2577  -16.4690 C   0  0  0  0  0  0  0  0  0  0  0  0
   20.6177  -17.3222  -17.7289 O   0  0  0  0  0  0  0  0  0  0  0  0
   22.1474  -20.3257  -13.5519 C   0  0  0  0  0  0  0  0  0  0  0  0
   21.8981  -21.5315  -13.8090 O   0  0  0  0  0  0  0  0  0  0  0  0
   20.7973  -15.9832  -15.9208 O   0  0  0  0  0  0  0  0  0  0  0  0
   22.9911  -20.2212   -7.7683 C   0  0  0  0  0  0  0  0  0  0  0  0
   21.5701  -21.3373   -7.5351 S   0  0  0  0  0  0  0  0  0  0  0  0
   20.5576  -21.3773   -9.0716 C   0  0  0  0  0  0  0  0  0  0  0  0
   21.4018  -20.7532  -10.1360 C   0  0  0  0  0  0  0  0  0  0  0  0
   20.7793  -20.6493  -11.4871 C   0  0  2  0  0  0  0  0  0  0  0  0
   21.5708  -19.7837  -12.3697 N   0  0  0  0  0  0  0  0  0  0  0  0
   19.4260  -20.0863  -11.3951 C   0  0  0  0  0  0  0  0  0  0  0  0
   18.3956  -20.8746  -10.8467 O   0  0  0  0  0  0  0  0  0  0  0  0
   19.0996  -18.9294  -11.7739 O   0  0  0  0  0  0  0  0  0  0  0  0
  2  1  1  1
  2  3  1  0
  4  5  1  0
  4  2  1  0
  5  6  1  6
  7  8  2  0
  7  5  1  0
  9  7  1  0
 10  9  1  0
 10 11  1  6
 12 13  1  0
 12 11  1  0
 13 14  2  0
 13 17  1  0
 15 23  1  0
 15 10  1  0
 16 15  2  0
 19 20  1  0
 19 18  1  0
 20 21  1  0
 22 21  1  1
 22 24  1  0
 22 23  1  0
 24 25  1  0
 26 24  2  0
M  END
$$$$
