LEM.pdb
     RDKit          3D

 26 25  0  0  1  0  0  0  0  0999 V2000
   29.9944  -15.0017  -19.0227 C   0  0  0  0  0  0  0  0  0  0  0  0
   29.3729  -16.3749  -19.0413 C   0  0  1  0  0  0  0  0  0  0  0  0
   30.4851  -17.4009  -18.9578 C   0  0  0  0  0  0  0  0  0  0  0  0
   28.4467  -16.5558  -17.8752 C   0  0  0  0  0  0  0  0  0  0  0  0
   27.9582  -17.9666  -17.7059 C   0  0  2  0  0  0  0  0  0  0  0  0
   27.5697  -18.5061  -18.9752 N   0  0  0  0  0  0  0  0  0  0  0  0
   26.8029  -17.9611  -16.7981 C   0  0  0  0  0  0  0  0  0  0  0  0
   26.9782  -17.5601  -15.6000 O   0  0  0  0  0  0  0  0  0  0  0  0
   25.4769  -18.3780  -17.1606 N   0  0  0  0  0  0  0  0  0  0  0  0
   24.4194  -18.3038  -16.2114 C   0  0  1  0  0  0  0  0  0  0  0  0
   23.1186  -17.9652  -16.8327 C   0  0  0  0  0  0  0  0  0  0  0  0
   21.9040  -17.9392  -15.9997 C   0  0  0  0  0  0  0  0  0  0  0  0
   20.6491  -17.5508  -16.6707 C   0  0  0  0  0  0  0  0  0  0  0  0
   20.4449  -17.7234  -17.9173 O   0  0  0  0  0  0  0  0  0  0  0  0
   24.3575  -19.4874  -15.3148 C   0  0  0  0  0  0  0  0  0  0  0  0
   24.3494  -20.6581  -15.7751 O   0  0  0  0  0  0  0  0  0  0  0  0
   19.6093  -16.9668  -15.9619 O   0  0  0  0  0  0  0  0  0  0  0  0
   25.1188  -20.5321   -8.0036 C   0  0  0  0  0  0  0  0  0  0  0  0
   26.2007  -20.8560   -9.4333 S   0  0  0  0  0  0  0  0  0  0  0  0
   25.1892  -21.4527  -10.8504 C   0  0  0  0  0  0  0  0  0  0  0  0
   25.1723  -20.3343  -11.8425 C   0  0  0  0  0  0  0  0  0  0  0  0
   24.3272  -20.5466  -13.0527 C   0  0  2  0  0  0  0  0  0  0  0  0
   24.3050  -19.3482  -13.9000 N   0  0  0  0  0  0  0  0  0  0  0  0
   22.9433  -20.8590  -12.6733 C   0  0  0  0  0  0  0  0  0  0  0  0
   22.5668  -22.2073  -12.5182 O   0  0  0  0  0  0  0  0  0  0  0  0
   22.0414  -20.0026  -12.4692 O   0  0  0  0  0  0  0  0  0  0  0  0
  2  1  1  1
  2  3  1  0
  4  5  1  0
  4  2  1  0
  5  6  1  6
  7  8  2  0
  7  5  1  0
  9  7  1  0
 10  9  1  0
 10 11  1  6
 12 13  1  0
 12 11  1  0
 13 14  2  0
 13 17  1  0
 15 23  1  0
 15 10  1  0
 16 15  2  0
 19 20  1  0
 19 18  1  0
 20 21  1  0
 22 21  1  1
 22 24  1  0
 22 23  1  0
 24 25  1  0
 26 24  2  0
M  END
$$$$
