ASN.pdb
     RDKit          3D

 20 19  0  0  1  0  0  0  0  0999 V2000
    8.0196  -12.8927   18.4957 C   0  0  0  0  0  0  0  0  0  0  0  0
    8.6334  -14.1986   18.9814 C   0  0  2  0  0  0  0  0  0  0  0  0
    7.6799  -15.2663   18.8264 N   0  0  0  0  0  0  0  0  0  0  0  0
    8.9746  -13.9676   20.4109 C   0  0  0  0  0  0  0  0  0  0  0  0
    9.9488  -13.2436   20.6993 O   0  0  0  0  0  0  0  0  0  0  0  0
    6.6725  -15.8346   23.4687 O   0  0  0  0  0  0  0  0  0  0  0  0
    7.2798  -14.6144   23.7041 C   0  0  0  0  0  0  0  0  0  0  0  0
    8.4999  -14.4501   22.8418 C   0  0  2  0  0  0  0  0  0  0  0  0
    8.2187  -14.5503   21.4322 N   0  0  0  0  0  0  0  0  0  0  0  0
    9.6089  -15.3193   23.2691 C   0  0  0  0  0  0  0  0  0  0  0  0
    9.9228  -15.3136   24.4881 O   0  0  0  0  0  0  0  0  0  0  0  0
    9.4242  -19.3206   21.0454 N   0  0  0  0  0  0  0  0  0  0  0  0
   10.1818  -19.1070   22.2222 C   0  0  0  0  0  0  0  0  0  0  0  0
    9.8131  -19.5542   23.3265 O   0  0  0  0  0  0  0  0  0  0  0  0
   11.4309  -18.3329   22.1017 C   0  0  0  0  0  0  0  0  0  0  0  0
   11.4259  -17.0431   22.8698 C   0  0  2  0  0  0  0  0  0  0  0  0
   10.3470  -16.1568   22.4206 N   0  0  0  0  0  0  0  0  0  0  0  0
   12.7407  -16.3797   22.7158 C   0  0  0  0  0  0  0  0  0  0  0  0
   13.9034  -16.9236   23.2114 O   0  0  0  0  0  0  0  0  0  0  0  0
   12.7834  -15.2869   22.1110 O   0  0  0  0  0  0  0  0  0  0  0  0
  2  1  1  1
  2  4  1  0
  2  3  1  0
  4  5  2  0
  8  7  1  1
  7  6  1  0
  9  4  1  0
  9  8  1  0
 10  8  1  0
 10 11  2  0
 12 13  1  0
 13 15  1  0
 13 14  2  0
 16 15  1  6
 16 17  1  0
 16 18  1  0
 17 10  1  0
 18 19  1  0
 20 18  2  0
M  END
$$$$
