ASN.pdb
     RDKit          3D

 20 19  0  0  1  0  0  0  0  0999 V2000
    2.0736  -24.8254   24.0349 C   0  0  0  0  0  0  0  0  0  0  0  0
    2.2942  -23.3322   24.2348 C   0  0  2  0  0  0  0  0  0  0  0  0
    1.6142  -22.6013   23.1972 N   0  0  0  0  0  0  0  0  0  0  0  0
    3.7678  -23.1382   24.1706 C   0  0  0  0  0  0  0  0  0  0  0  0
    4.4924  -23.6513   25.0470 O   0  0  0  0  0  0  0  0  0  0  0  0
    5.6869  -20.5560   21.2119 O   0  0  0  0  0  0  0  0  0  0  0  0
    6.1538  -21.8054   21.5782 C   0  0  0  0  0  0  0  0  0  0  0  0
    5.7580  -22.1301   22.9914 C   0  0  2  0  0  0  0  0  0  0  0  0
    4.3488  -22.3898   23.1427 N   0  0  0  0  0  0  0  0  0  0  0  0
    6.2662  -21.1412   23.9566 C   0  0  0  0  0  0  0  0  0  0  0  0
    5.5407  -20.1450   24.2133 O   0  0  0  0  0  0  0  0  0  0  0  0
    7.0878  -18.5404   28.2770 N   0  0  0  0  0  0  0  0  0  0  0  0
    7.3613  -19.9247   28.1620 C   0  0  0  0  0  0  0  0  0  0  0  0
    7.9349  -20.5551   29.0725 O   0  0  0  0  0  0  0  0  0  0  0  0
    6.9439  -20.6047   26.9220 C   0  0  0  0  0  0  0  0  0  0  0  0
    7.8786  -20.3944   25.7664 C   0  0  2  0  0  0  0  0  0  0  0  0
    7.5014  -21.2218   24.6155 N   0  0  0  0  0  0  0  0  0  0  0  0
    9.2615  -20.7028   26.1964 C   0  0  0  0  0  0  0  0  0  0  0  0
    9.6875  -21.9877   26.4435 O   0  0  0  0  0  0  0  0  0  0  0  0
   10.0620  -19.7534   26.3358 O   0  0  0  0  0  0  0  0  0  0  0  0
  2  1  1  6
  2  4  1  0
  2  3  1  0
  4  5  2  0
  8  7  1  6
  7  6  1  0
  9  4  1  0
  9  8  1  0
 10  8  1  0
 10 11  2  0
 12 13  1  0
 13 15  1  0
 13 14  2  0
 16 15  1  1
 16 17  1  0
 16 18  1  0
 17 10  1  0
 18 19  1  0
 20 18  2  0
M  END
$$$$
