ASN.pdb
     RDKit          3D

 20 19  0  0  1  0  0  0  0  0999 V2000
    7.8090  -20.5723   21.0875 C   0  0  0  0  0  0  0  0  0  0  0  0
    7.7974  -19.0557   20.9536 C   0  0  2  0  0  0  0  0  0  0  0  0
    8.5727  -18.6673   19.8041 N   0  0  0  0  0  0  0  0  0  0  0  0
    8.3908  -18.5426   22.2176 C   0  0  0  0  0  0  0  0  0  0  0  0
    9.6288  -18.4165   22.3068 O   0  0  0  0  0  0  0  0  0  0  0  0
    5.8755  -17.7298   25.5430 O   0  0  0  0  0  0  0  0  0  0  0  0
    7.0112  -16.9638   25.3517 C   0  0  0  0  0  0  0  0  0  0  0  0
    8.0497  -17.7316   24.5827 C   0  0  2  0  0  0  0  0  0  0  0  0
    7.5800  -18.2008   23.3038 N   0  0  0  0  0  0  0  0  0  0  0  0
    8.6731  -18.7934   25.3900 C   0  0  0  0  0  0  0  0  0  0  0  0
    8.3075  -19.9799   25.1823 O   0  0  0  0  0  0  0  0  0  0  0  0
   13.4688  -21.4291   27.3176 N   0  0  0  0  0  0  0  0  0  0  0  0
   12.0553  -21.3520   27.3017 C   0  0  0  0  0  0  0  0  0  0  0  0
   11.3490  -22.1803   27.9102 O   0  0  0  0  0  0  0  0  0  0  0  0
   11.4378  -20.2528   26.5370 C   0  0  0  0  0  0  0  0  0  0  0  0
   10.2310  -19.6524   27.1977 C   0  0  2  0  0  0  0  0  0  0  0  0
    9.6468  -18.5859   26.3775 N   0  0  0  0  0  0  0  0  0  0  0  0
   10.6138  -19.1321   28.5301 C   0  0  0  0  0  0  0  0  0  0  0  0
   11.0230  -17.8327   28.7243 O   0  0  0  0  0  0  0  0  0  0  0  0
   10.5584  -19.9104   29.5062 O   0  0  0  0  0  0  0  0  0  0  0  0
  2  1  1  1
  2  4  1  0
  2  3  1  0
  4  5  2  0
  8  7  1  1
  7  6  1  0
  9  4  1  0
  9  8  1  0
 10  8  1  0
 10 11  2  0
 12 13  1  0
 13 15  1  0
 13 14  2  0
 16 15  1  6
 16 17  1  0
 16 18  1  0
 17 10  1  0
 18 19  1  0
 20 18  2  0
M  END
$$$$
