ASN.pdb
     RDKit          3D

 20 19  0  0  1  0  0  0  0  0999 V2000
    8.3578  -11.8254   19.7672 C   0  0  0  0  0  0  0  0  0  0  0  0
    8.1845  -12.9198   18.7230 C   0  0  2  0  0  0  0  0  0  0  0  0
    6.8232  -12.9272   18.2539 N   0  0  0  0  0  0  0  0  0  0  0  0
    8.5352  -14.1879   19.4172 C   0  0  0  0  0  0  0  0  0  0  0  0
    7.6348  -14.8578   19.9621 O   0  0  0  0  0  0  0  0  0  0  0  0
   11.8793  -16.6180   18.4846 O   0  0  0  0  0  0  0  0  0  0  0  0
   10.6840  -16.9255   19.1092 C   0  0  0  0  0  0  0  0  0  0  0  0
   10.3051  -15.8546   20.0934 C   0  0  2  0  0  0  0  0  0  0  0  0
    9.8581  -14.6369   19.4661 N   0  0  0  0  0  0  0  0  0  0  0  0
   11.3504  -15.6288   21.1055 C   0  0  0  0  0  0  0  0  0  0  0  0
   11.5048  -14.4568   21.5383 O   0  0  0  0  0  0  0  0  0  0  0  0
   13.0127  -17.2520   25.7018 N   0  0  0  0  0  0  0  0  0  0  0  0
   11.6493  -17.1887   25.3256 C   0  0  0  0  0  0  0  0  0  0  0  0
   10.7340  -17.3296   26.1608 O   0  0  0  0  0  0  0  0  0  0  0  0
   11.3415  -16.9493   23.9036 C   0  0  0  0  0  0  0  0  0  0  0  0
   12.5538  -16.7357   23.0444 C   0  0  2  0  0  0  0  0  0  0  0  0
   12.1921  -16.6213   21.6275 N   0  0  0  0  0  0  0  0  0  0  0  0
   13.4998  -17.8561   23.2499 C   0  0  0  0  0  0  0  0  0  0  0  0
   14.8050  -17.6572   23.6375 O   0  0  0  0  0  0  0  0  0  0  0  0
   13.0859  -19.0202   23.0624 O   0  0  0  0  0  0  0  0  0  0  0  0
  2  1  1  1
  2  4  1  0
  2  3  1  0
  4  5  2  0
  8  7  1  6
  7  6  1  0
  9  4  1  0
  9  8  1  0
 10  8  1  0
 10 11  2  0
 12 13  1  0
 13 15  1  0
 13 14  2  0
 16 15  1  1
 16 17  1  0
 16 18  1  0
 17 10  1  0
 18 19  1  0
 20 18  2  0
M  END
$$$$
