ASN.pdb
     RDKit          3D

 20 19  0  0  1  0  0  0  0  0999 V2000
    7.8276  -15.8043   16.4700 C   0  0  0  0  0  0  0  0  0  0  0  0
    7.5108  -14.3939   16.9483 C   0  0  2  0  0  0  0  0  0  0  0  0
    7.6989  -13.4640   15.8653 N   0  0  0  0  0  0  0  0  0  0  0  0
    8.4554  -14.1346   18.0679 C   0  0  0  0  0  0  0  0  0  0  0  0
    9.6156  -13.7520   17.8151 O   0  0  0  0  0  0  0  0  0  0  0  0
    7.5842  -15.4503   22.0192 O   0  0  0  0  0  0  0  0  0  0  0  0
    8.1464  -14.1977   21.8514 C   0  0  0  0  0  0  0  0  0  0  0  0
    8.8981  -14.1195   20.5522 C   0  0  2  0  0  0  0  0  0  0  0  0
    8.0596  -14.3139   19.3966 N   0  0  0  0  0  0  0  0  0  0  0  0
   10.0940  -14.9783   20.5445 C   0  0  0  0  0  0  0  0  0  0  0  0
   10.0420  -16.0511   19.8879 O   0  0  0  0  0  0  0  0  0  0  0  0
   12.6917  -15.0830   18.5068 N   0  0  0  0  0  0  0  0  0  0  0  0
   13.7418  -14.5623   19.3008 C   0  0  0  0  0  0  0  0  0  0  0  0
   14.6764  -13.9064   18.7993 O   0  0  0  0  0  0  0  0  0  0  0  0
   13.6968  -14.8215   20.7517 C   0  0  0  0  0  0  0  0  0  0  0  0
   12.4726  -15.5650   21.2011 C   0  0  2  0  0  0  0  0  0  0  0  0
   11.2924  -14.6941   21.2148 N   0  0  0  0  0  0  0  0  0  0  0  0
   12.7145  -16.1328   22.5470 C   0  0  0  0  0  0  0  0  0  0  0  0
   13.6392  -17.1265   22.7726 O   0  0  0  0  0  0  0  0  0  0  0  0
   12.0492  -15.6846   23.5052 O   0  0  0  0  0  0  0  0  0  0  0  0
  2  1  1  6
  2  4  1  0
  2  3  1  0
  4  5  2  0
  8  7  1  1
  7  6  1  0
  9  4  1  0
  9  8  1  0
 10  8  1  0
 10 11  2  0
 12 13  1  0
 13 15  1  0
 13 14  2  0
 16 15  1  1
 16 17  1  0
 16 18  1  0
 17 10  1  0
 18 19  1  0
 20 18  2  0
M  END
$$$$
