ASN.pdb
     RDKit          3D

 20 19  0  0  1  0  0  0  0  0999 V2000
   10.5430  -19.7483   18.7623 C   0  0  0  0  0  0  0  0  0  0  0  0
   10.5359  -18.2816   18.3538 C   0  0  2  0  0  0  0  0  0  0  0  0
   11.3070  -18.1128   17.1497 N   0  0  0  0  0  0  0  0  0  0  0  0
   11.1368  -17.5488   19.5006 C   0  0  0  0  0  0  0  0  0  0  0  0
   12.3603  -17.3050   19.4989 O   0  0  0  0  0  0  0  0  0  0  0  0
    8.8152  -16.4802   22.9823 O   0  0  0  0  0  0  0  0  0  0  0  0
    9.7069  -15.6022   22.3931 C   0  0  0  0  0  0  0  0  0  0  0  0
   10.8096  -16.3489   21.6962 C   0  0  2  0  0  0  0  0  0  0  0  0
   10.3491  -17.1311   20.5772 N   0  0  0  0  0  0  0  0  0  0  0  0
   11.6417  -17.1220   22.6332 C   0  0  0  0  0  0  0  0  0  0  0  0
   11.4544  -18.3652   22.6959 O   0  0  0  0  0  0  0  0  0  0  0  0
   16.0300  -15.4304   23.0136 N   0  0  0  0  0  0  0  0  0  0  0  0
   15.5775  -16.7049   23.4323 C   0  0  0  0  0  0  0  0  0  0  0  0
   15.8527  -17.7387   22.7914 O   0  0  0  0  0  0  0  0  0  0  0  0
   14.7637  -16.7735   24.6599 C   0  0  0  0  0  0  0  0  0  0  0  0
   13.3939  -17.3516   24.4525 C   0  0  2  0  0  0  0  0  0  0  0  0
   12.6310  -16.5796   23.4659 N   0  0  0  0  0  0  0  0  0  0  0  0
   12.6792  -17.3876   25.7488 C   0  0  0  0  0  0  0  0  0  0  0  0
   13.1324  -18.1224   26.8203 O   0  0  0  0  0  0  0  0  0  0  0  0
   11.6279  -16.7216   25.8620 O   0  0  0  0  0  0  0  0  0  0  0  0
  2  1  1  1
  2  4  1  0
  2  3  1  0
  4  5  2  0
  8  7  1  1
  7  6  1  0
  9  4  1  0
  9  8  1  0
 10  8  1  0
 10 11  2  0
 12 13  1  0
 13 15  1  0
 13 14  2  0
 16 15  1  1
 16 17  1  0
 16 18  1  0
 17 10  1  0
 18 19  1  0
 20 18  2  0
M  END
$$$$
