ASN.pdb
     RDKit          3D

 20 19  0  0  1  0  0  0  0  0999 V2000
    9.2593  -13.8941   16.3958 C   0  0  0  0  0  0  0  0  0  0  0  0
    7.7950  -14.2281   16.6458 C   0  0  2  0  0  0  0  0  0  0  0  0
    6.9852  -13.0651   16.3916 N   0  0  0  0  0  0  0  0  0  0  0  0
    7.7232  -14.6491   18.0708 C   0  0  0  0  0  0  0  0  0  0  0  0
    7.8023  -13.7872   18.9694 O   0  0  0  0  0  0  0  0  0  0  0  0
    7.6715  -18.8100   19.2470 O   0  0  0  0  0  0  0  0  0  0  0  0
    6.8062  -17.8811   19.7963 C   0  0  0  0  0  0  0  0  0  0  0  0
    7.4046  -16.5030   19.7528 C   0  0  2  0  0  0  0  0  0  0  0  0
    7.5683  -15.9952   18.4143 N   0  0  0  0  0  0  0  0  0  0  0  0
    8.6315  -16.3994   20.5601 C   0  0  0  0  0  0  0  0  0  0  0  0
    9.7250  -16.2641   19.9513 O   0  0  0  0  0  0  0  0  0  0  0  0
   12.0848  -16.1506   24.4140 N   0  0  0  0  0  0  0  0  0  0  0  0
   10.8249  -16.1315   25.0597 C   0  0  0  0  0  0  0  0  0  0  0  0
   10.7274  -16.0271   26.2986 O   0  0  0  0  0  0  0  0  0  0  0  0
    9.6209  -16.2400   24.2155 C   0  0  0  0  0  0  0  0  0  0  0  0
    9.9134  -16.3637   22.7483 C   0  0  2  0  0  0  0  0  0  0  0  0
    8.6782  -16.4403   21.9610 N   0  0  0  0  0  0  0  0  0  0  0  0
   10.7508  -17.5630   22.5183 C   0  0  0  0  0  0  0  0  0  0  0  0
   10.2167  -18.8273   22.4200 O   0  0  0  0  0  0  0  0  0  0  0  0
   11.9862  -17.4086   22.4102 O   0  0  0  0  0  0  0  0  0  0  0  0
  2  1  1  1
  2  4  1  0
  2  3  1  0
  4  5  2  0
  8  7  1  6
  7  6  1  0
  9  4  1  0
  9  8  1  0
 10  8  1  0
 10 11  2  0
 12 13  1  0
 13 15  1  0
 13 14  2  0
 16 15  1  1
 16 17  1  0
 16 18  1  0
 17 10  1  0
 18 19  1  0
 20 18  2  0
M  END
$$$$
