ASN.pdb
     RDKit          3D

 20 19  0  0  1  0  0  0  0  0999 V2000
    7.2026  -19.1567   18.5594 C   0  0  0  0  0  0  0  0  0  0  0  0
    7.4239  -17.7637   17.9860 C   0  0  2  0  0  0  0  0  0  0  0  0
    8.0942  -17.8663   16.7159 N   0  0  0  0  0  0  0  0  0  0  0  0
    8.2552  -17.0494   18.9919 C   0  0  0  0  0  0  0  0  0  0  0  0
    9.4897  -17.2292   19.0060 O   0  0  0  0  0  0  0  0  0  0  0  0
    6.4490  -14.9527   22.2273 O   0  0  0  0  0  0  0  0  0  0  0  0
    7.5371  -14.3831   21.5910 C   0  0  0  0  0  0  0  0  0  0  0  0
    8.3799  -15.4367   20.9287 C   0  0  2  0  0  0  0  0  0  0  0  0
    7.6712  -16.1815   19.9191 N   0  0  0  0  0  0  0  0  0  0  0  0
    9.0652  -16.3007   21.9043 C   0  0  0  0  0  0  0  0  0  0  0  0
    8.5760  -17.4394   22.1252 O   0  0  0  0  0  0  0  0  0  0  0  0
   13.6573  -16.6309   21.3044 N   0  0  0  0  0  0  0  0  0  0  0  0
   12.7987  -17.4105   22.1164 C   0  0  0  0  0  0  0  0  0  0  0  0
   12.4138  -18.5424   21.7615 O   0  0  0  0  0  0  0  0  0  0  0  0
   12.3692  -16.8386   23.4058 C   0  0  0  0  0  0  0  0  0  0  0  0
   10.8806  -16.8173   23.5984 C   0  0  2  0  0  0  0  0  0  0  0  0
   10.2255  -15.9532   22.6107 N   0  0  0  0  0  0  0  0  0  0  0  0
   10.5740  -16.3599   24.9729 C   0  0  0  0  0  0  0  0  0  0  0  0
   10.9735  -17.0589   26.0888 O   0  0  0  0  0  0  0  0  0  0  0  0
    9.9292  -15.2985   25.1119 O   0  0  0  0  0  0  0  0  0  0  0  0
  2  1  1  1
  2  4  1  0
  2  3  1  0
  4  5  2  0
  8  7  1  1
  7  6  1  0
  9  4  1  0
  9  8  1  0
 10  8  1  0
 10 11  2  0
 12 13  1  0
 13 15  1  0
 13 14  2  0
 16 15  1  6
 16 17  1  0
 16 18  1  0
 17 10  1  0
 18 19  1  0
 20 18  2  0
M  END
$$$$
