ASN.pdb
     RDKit          3D

 20 19  0  0  1  0  0  0  0  0999 V2000
   14.9701  -19.4255   17.6249 C   0  0  0  0  0  0  0  0  0  0  0  0
   13.5961  -19.0552   17.0834 C   0  0  2  0  0  0  0  0  0  0  0  0
   13.7325  -18.4990   15.7624 N   0  0  0  0  0  0  0  0  0  0  0  0
   13.0464  -18.0625   18.0454 C   0  0  0  0  0  0  0  0  0  0  0  0
   13.6100  -16.9570   18.1748 O   0  0  0  0  0  0  0  0  0  0  0  0
    9.5873  -18.9612   20.4677 O   0  0  0  0  0  0  0  0  0  0  0  0
    9.8024  -17.7172   19.9028 C   0  0  0  0  0  0  0  0  0  0  0  0
   11.2727  -17.4545   19.7343 C   0  0  2  0  0  0  0  0  0  0  0  0
   11.9088  -18.3526   18.8042 N   0  0  0  0  0  0  0  0  0  0  0  0
   11.9780  -17.3698   21.0239 C   0  0  0  0  0  0  0  0  0  0  0  0
   12.9770  -18.1161   21.1967 O   0  0  0  0  0  0  0  0  0  0  0  0
    9.5498  -14.6153   25.2695 N   0  0  0  0  0  0  0  0  0  0  0  0
   10.1772  -15.5417   24.4019 C   0  0  0  0  0  0  0  0  0  0  0  0
    9.5162  -16.3588   23.7305 O   0  0  0  0  0  0  0  0  0  0  0  0
   11.6488  -15.5110   24.3154 C   0  0  0  0  0  0  0  0  0  0  0  0
   12.2293  -16.5628   23.4152 C   0  0  2  0  0  0  0  0  0  0  0  0
   11.6224  -16.5194   22.0806 N   0  0  0  0  0  0  0  0  0  0  0  0
   12.0320  -17.8944   24.0322 C   0  0  0  0  0  0  0  0  0  0  0  0
   12.9446  -18.4466   24.9014 O   0  0  0  0  0  0  0  0  0  0  0  0
   10.9947  -18.5298   23.7460 O   0  0  0  0  0  0  0  0  0  0  0  0
  2  1  1  1
  2  4  1  0
  2  3  1  0
  4  5  2  0
  8  7  1  1
  7  6  1  0
  9  4  1  0
  9  8  1  0
 10  8  1  0
 10 11  2  0
 12 13  1  0
 13 15  1  0
 13 14  2  0
 16 15  1  1
 16 17  1  0
 16 18  1  0
 17 10  1  0
 18 19  1  0
 20 18  2  0
M  END
$$$$
