ASN.pdb
     RDKit          3D

 20 19  0  0  1  0  0  0  0  0999 V2000
    8.6095  -17.1068   14.9498 C   0  0  0  0  0  0  0  0  0  0  0  0
    8.6096  -15.5980   14.7456 C   0  0  2  0  0  0  0  0  0  0  0  0
    9.2325  -15.2820   13.4866 N   0  0  0  0  0  0  0  0  0  0  0  0
    9.3755  -15.0436   15.8941 C   0  0  0  0  0  0  0  0  0  0  0  0
   10.6226  -15.0491   15.8592 O   0  0  0  0  0  0  0  0  0  0  0  0
    7.4557  -13.9097   19.5642 O   0  0  0  0  0  0  0  0  0  0  0  0
    8.4029  -13.0858   18.9835 C   0  0  0  0  0  0  0  0  0  0  0  0
    9.3537  -13.8815   18.1339 C   0  0  2  0  0  0  0  0  0  0  0  0
    8.7164  -14.5178   17.0091 N   0  0  0  0  0  0  0  0  0  0  0  0
   10.1734  -14.8100   18.9300 C   0  0  0  0  0  0  0  0  0  0  0  0
    9.8970  -16.0367   18.8693 O   0  0  0  0  0  0  0  0  0  0  0  0
   14.5328  -13.6676   18.9921 N   0  0  0  0  0  0  0  0  0  0  0  0
   14.2339  -14.9086   19.6044 C   0  0  0  0  0  0  0  0  0  0  0  0
   14.6544  -15.9857   19.1371 O   0  0  0  0  0  0  0  0  0  0  0  0
   13.4028  -14.8890   20.8223 C   0  0  0  0  0  0  0  0  0  0  0  0
   11.9942  -15.3614   20.6074 C   0  0  2  0  0  0  0  0  0  0  0  0
   11.2427  -14.4336   19.7553 N   0  0  0  0  0  0  0  0  0  0  0  0
   11.3271  -15.5166   21.9202 C   0  0  0  0  0  0  0  0  0  0  0  0
   11.7463  -16.4341   22.8561 O   0  0  0  0  0  0  0  0  0  0  0  0
   10.3496  -14.7814   22.1764 O   0  0  0  0  0  0  0  0  0  0  0  0
  2  1  1  1
  2  4  1  0
  2  3  1  0
  4  5  2  0
  8  7  1  1
  7  6  1  0
  9  4  1  0
  9  8  1  0
 10  8  1  0
 10 11  2  0
 12 13  1  0
 13 15  1  0
 13 14  2  0
 16 15  1  1
 16 17  1  0
 16 18  1  0
 17 10  1  0
 18 19  1  0
 20 18  2  0
M  END
$$$$
