ASN.pdb
     RDKit          3D

 20 19  0  0  1  0  0  0  0  0999 V2000
    9.7527  -20.0964   19.6047 C   0  0  0  0  0  0  0  0  0  0  0  0
    9.3032  -18.6873   19.2437 C   0  0  2  0  0  0  0  0  0  0  0  0
    9.3255  -18.5259   17.8131 N   0  0  0  0  0  0  0  0  0  0  0  0
   10.2708  -17.7791   19.9161 C   0  0  0  0  0  0  0  0  0  0  0  0
   11.4238  -17.6613   19.4541 O   0  0  0  0  0  0  0  0  0  0  0  0
    9.2478  -15.7456   23.5655 O   0  0  0  0  0  0  0  0  0  0  0  0
    9.9673  -15.1172   22.5652 C   0  0  0  0  0  0  0  0  0  0  0  0
   10.7434  -16.1184   21.7563 C   0  0  2  0  0  0  0  0  0  0  0  0
    9.9047  -17.0579   21.0562 N   0  0  0  0  0  0  0  0  0  0  0  0
   11.8049  -16.7704   22.5411 C   0  0  0  0  0  0  0  0  0  0  0  0
   11.5710  -17.9166   23.0062 O   0  0  0  0  0  0  0  0  0  0  0  0
   16.3414  -15.8930   20.8952 N   0  0  0  0  0  0  0  0  0  0  0  0
   15.9010  -16.8706   21.8197 C   0  0  0  0  0  0  0  0  0  0  0  0
   15.8655  -18.0814   21.5227 O   0  0  0  0  0  0  0  0  0  0  0  0
   15.4818  -16.4099   23.1562 C   0  0  0  0  0  0  0  0  0  0  0  0
   14.1208  -16.8909   23.5683 C   0  0  2  0  0  0  0  0  0  0  0  0
   13.0621  -16.2122   22.8132 N   0  0  0  0  0  0  0  0  0  0  0  0
   13.9455  -16.6692   25.0218 C   0  0  0  0  0  0  0  0  0  0  0  0
   14.4959  -17.5047   25.9665 O   0  0  0  0  0  0  0  0  0  0  0  0
   13.2721  -15.6837   25.3918 O   0  0  0  0  0  0  0  0  0  0  0  0
  2  1  1  6
  2  4  1  0
  2  3  1  0
  4  5  2  0
  8  7  1  1
  7  6  1  0
  9  4  1  0
  9  8  1  0
 10  8  1  0
 10 11  2  0
 12 13  1  0
 13 15  1  0
 13 14  2  0
 16 15  1  6
 16 17  1  0
 16 18  1  0
 17 10  1  0
 18 19  1  0
 20 18  2  0
M  END
$$$$
