ASN.pdb
     RDKit          3D

 20 19  0  0  1  0  0  0  0  0999 V2000
    7.8096  -11.9629   19.2078 C   0  0  0  0  0  0  0  0  0  0  0  0
    8.4057  -13.2985   18.7845 C   0  0  2  0  0  0  0  0  0  0  0  0
    7.3468  -14.2416   18.5353 N   0  0  0  0  0  0  0  0  0  0  0  0
    9.2675  -13.7245   19.9199 C   0  0  0  0  0  0  0  0  0  0  0  0
   10.2303  -13.0083   20.2611 O   0  0  0  0  0  0  0  0  0  0  0  0
    7.8547  -16.5498   22.3331 O   0  0  0  0  0  0  0  0  0  0  0  0
    9.2327  -16.6677   22.3176 C   0  0  0  0  0  0  0  0  0  0  0  0
    9.8608  -15.4963   21.6159 C   0  0  2  0  0  0  0  0  0  0  0  0
    9.0119  -14.9145   20.6073 N   0  0  0  0  0  0  0  0  0  0  0  0
   11.2143  -15.7993   21.1219 C   0  0  0  0  0  0  0  0  0  0  0  0
   11.3692  -15.9347   19.8800 O   0  0  0  0  0  0  0  0  0  0  0  0
   16.2676  -13.9223   19.9516 N   0  0  0  0  0  0  0  0  0  0  0  0
   15.4581  -15.0838   19.9559 C   0  0  0  0  0  0  0  0  0  0  0  0
   15.8705  -16.1691   19.5006 O   0  0  0  0  0  0  0  0  0  0  0  0
   14.1004  -14.9703   20.5198 C   0  0  0  0  0  0  0  0  0  0  0  0
   13.7142  -16.1117   21.4152 C   0  0  2  0  0  0  0  0  0  0  0  0
   12.3503  -15.9501   21.9301 N   0  0  0  0  0  0  0  0  0  0  0  0
   14.6829  -16.2042   22.5312 C   0  0  0  0  0  0  0  0  0  0  0  0
   14.3103  -16.0429   23.8460 O   0  0  0  0  0  0  0  0  0  0  0  0
   15.8793  -16.4386   22.2567 O   0  0  0  0  0  0  0  0  0  0  0  0
  2  1  1  1
  2  4  1  0
  2  3  1  0
  4  5  2  0
  8  7  1  6
  7  6  1  0
  9  4  1  0
  9  8  1  0
 10  8  1  0
 10 11  2  0
 12 13  1  0
 13 15  1  0
 13 14  2  0
 16 15  1  6
 16 17  1  0
 16 18  1  0
 17 10  1  0
 18 19  1  0
 20 18  2  0
M  END
$$$$
