WRF.pdb
     RDKit          3D

 37 39  0  0  1  0  0  0  0  0999 V2000
   19.0839  -12.9843  -15.5892 N   0  0  0  0  0  0  0  0  0  0  0  0
   19.1575  -11.6927  -16.1590 C   0  0  1  0  0  0  0  0  0  0  0  0
   17.8524  -11.0918  -16.6158 C   0  0  0  0  0  0  0  0  0  0  0  0
   17.3542  -11.8002  -17.8100 C   0  0  0  0  0  0  0  0  0  0  0  0
   17.0449  -13.1569  -17.8733 C   0  0  0  0  0  0  0  0  0  0  0  0
   16.6012  -13.4576  -19.0997 N   0  0  0  0  0  0  0  0  0  0  0  0
   16.6030  -12.3536  -19.8576 C   0  0  0  0  0  0  0  0  0  0  0  0
   16.2468  -12.1356  -21.1829 C   0  0  0  0  0  0  0  0  0  0  0  0
   16.3733  -10.8652  -21.6771 C   0  0  0  0  0  0  0  0  0  0  0  0
   16.8395   -9.8105  -20.9032 C   0  0  0  0  0  0  0  0  0  0  0  0
   17.1887  -10.0370  -19.5942 C   0  0  0  0  0  0  0  0  0  0  0  0
   17.0732  -11.3048  -19.0630 C   0  0  0  0  0  0  0  0  0  0  0  0
   19.8669  -10.7105  -15.2864 C   0  0  0  0  0  0  0  0  0  0  0  0
   19.7552  -10.8361  -14.0232 O   0  0  0  0  0  0  0  0  0  0  0  0
   24.7975  -12.9383  -14.8450 N   0  0  0  0  0  0  0  0  0  0  0  0
   25.1700  -12.4903  -16.1320 C   0  0  0  0  0  0  0  0  0  0  0  0
   25.3572  -13.3635  -17.0764 N   0  0  0  0  0  0  0  0  0  0  0  0
   25.3356  -11.1124  -16.3880 N   0  0  0  0  0  0  0  0  0  0  0  0
   24.7970  -10.1314  -15.4863 C   0  0  0  0  0  0  0  0  0  0  0  0
   23.3210  -10.0118  -15.7205 C   0  0  0  0  0  0  0  0  0  0  0  0
   22.7319   -8.8955  -14.9064 C   0  0  0  0  0  0  0  0  0  0  0  0
   21.2780   -8.6878  -15.1400 C   0  0  2  0  0  0  0  0  0  0  0  0
   20.6228   -9.6981  -15.9117 N   0  0  0  0  0  0  0  0  0  0  0  0
   21.0351   -7.3597  -15.8203 C   0  0  0  0  0  0  0  0  0  0  0  0
   21.7218   -6.9417  -16.7773 O   0  0  0  0  0  0  0  0  0  0  0  0
   25.5830  -13.0775  -18.0384 N   0  0  0  0  0  0  0  0  0  0  0  0
   19.9779   -6.4974  -15.3864 C   0  0  1  0  0  0  0  0  0  0  0  0
   19.7358   -5.1915  -15.9649 C   0  0  0  0  0  0  0  0  0  0  0  0
   18.9071   -5.2755  -17.2212 C   0  0  0  0  0  0  0  0  0  0  0  0
   17.5946   -5.8853  -17.0123 C   0  0  0  0  0  0  0  0  0  0  0  0
   17.2929   -6.8723  -16.1218 C   0  0  0  0  0  0  0  0  0  0  0  0
   16.0365   -7.4018  -15.9764 C   0  0  0  0  0  0  0  0  0  0  0  0
   15.0154   -6.9017  -16.7839 C   0  0  0  0  0  0  0  0  0  0  0  0
   15.2719   -5.9131  -17.6896 C   0  0  0  0  0  0  0  0  0  0  0  0
   16.5392   -5.4146  -17.8010 C   0  0  0  0  0  0  0  0  0  0  0  0
   19.1802   -4.2417  -14.9701 O   0  0  0  0  0  0  0  0  0  0  0  0
   19.0437   -3.0470  -15.2952 O   0  0  0  0  0  0  0  0  0  0  0  0
  2 13  1  0
  2  1  1  1
  3  2  1  0
  4  3  1  0
  4  5  2  0
  6  5  1  0
  7 12  2  0
  7  6  1  0
  8  7  1  0
  9 10  1  0
  9  8  2  0
 10 11  2  0
 11 12  1  0
 12  4  1  0
 13 14  2  0
 16 15  1  0
 16 18  1  0
 17 16  2  0
 19 18  1  0
 19 20  1  0
 21 20  1  0
 22 21  1  6
 23 22  1  0
 23 13  1  0
 24 25  2  0
 24 22  1  0
 26 24  1  0
 27 35  1  0
 27 26  1  0
 27 28  1  6
 29 28  1  0
 30 29  2  0
 31 30  1  0
 32 31  2  0
 32 33  1  0
 33 34  2  0
 34 29  1  0
 35 37  1  0
 36 35  2  0
M  END
$$$$
