WRF.pdb
     RDKit          3D

 37 39  0  0  1  0  0  0  0  0999 V2000
   25.1138  -11.0341  -19.0980 N   0  0  0  0  0  0  0  0  0  0  0  0
   24.4799  -11.1114  -17.8369 C   0  0  1  0  0  0  0  0  0  0  0  0
   25.3144  -10.7105  -16.6470 C   0  0  0  0  0  0  0  0  0  0  0  0
   26.5255  -11.5490  -16.5669 C   0  0  0  0  0  0  0  0  0  0  0  0
   27.8292  -11.1062  -16.7775 C   0  0  0  0  0  0  0  0  0  0  0  0
   28.6808  -12.1241  -16.6038 N   0  0  0  0  0  0  0  0  0  0  0  0
   27.9952  -13.2295  -16.2860 C   0  0  0  0  0  0  0  0  0  0  0  0
   28.4026  -14.5303  -16.0162 C   0  0  0  0  0  0  0  0  0  0  0  0
   27.4355  -15.4548  -15.7259 C   0  0  0  0  0  0  0  0  0  0  0  0
   26.0851  -15.1320  -15.6953 C   0  0  0  0  0  0  0  0  0  0  0  0
   25.6933  -13.8431  -15.9634 C   0  0  0  0  0  0  0  0  0  0  0  0
   26.6412  -12.8855  -16.2590 C   0  0  0  0  0  0  0  0  0  0  0  0
   23.1816  -10.3753  -17.7914 C   0  0  0  0  0  0  0  0  0  0  0  0
   23.0208   -9.3877  -18.5806 O   0  0  0  0  0  0  0  0  0  0  0  0
   14.8550  -12.8248  -17.5991 N   0  0  0  0  0  0  0  0  0  0  0  0
   14.8827  -11.4132  -17.6488 C   0  0  0  0  0  0  0  0  0  0  0  0
   13.7826  -10.7671  -17.8976 N   0  0  0  0  0  0  0  0  0  0  0  0
   16.0892  -10.7147  -17.4301 N   0  0  0  0  0  0  0  0  0  0  0  0
   17.3080  -11.4273  -17.1611 C   0  0  0  0  0  0  0  0  0  0  0  0
   18.4267  -10.4406  -17.0096 C   0  0  0  0  0  0  0  0  0  0  0  0
   19.7555  -11.1362  -16.9297 C   0  0  0  0  0  0  0  0  0  0  0  0
   20.9120  -10.2065  -16.8299 C   0  0  2  0  0  0  0  0  0  0  0  0
   22.2047  -10.8168  -16.8760 N   0  0  0  0  0  0  0  0  0  0  0  0
   20.8315   -9.3954  -15.5567 C   0  0  0  0  0  0  0  0  0  0  0  0
   20.9989   -9.8841  -14.4185 O   0  0  0  0  0  0  0  0  0  0  0  0
   13.7579   -9.7394  -17.9371 N   0  0  0  0  0  0  0  0  0  0  0  0
   20.5520   -7.9920  -15.5991 C   0  0  1  0  0  0  0  0  0  0  0  0
   20.3634   -7.1877  -14.4091 C   0  0  0  0  0  0  0  0  0  0  0  0
   21.6712   -6.8666  -13.7317 C   0  0  0  0  0  0  0  0  0  0  0  0
   21.5279   -5.9676  -12.5874 C   0  0  0  0  0  0  0  0  0  0  0  0
   21.5568   -4.6051  -12.6195 C   0  0  0  0  0  0  0  0  0  0  0  0
   21.4160   -3.8191  -11.5050 C   0  0  0  0  0  0  0  0  0  0  0  0
   21.2338   -4.4501  -10.2748 C   0  0  0  0  0  0  0  0  0  0  0  0
   21.1983   -5.8124  -10.1954 C   0  0  0  0  0  0  0  0  0  0  0  0
   21.3430   -6.5569  -11.3320 C   0  0  0  0  0  0  0  0  0  0  0  0
   19.5442   -5.9816  -14.6822 O   0  0  0  0  0  0  0  0  0  0  0  0
   19.5004   -5.5394  -15.8459 O   0  0  0  0  0  0  0  0  0  0  0  0
  2 13  1  0
  2  1  1  6
  3  2  1  0
  4  3  1  0
  4  5  2  0
  6  5  1  0
  7 12  2  0
  7  6  1  0
  8  7  1  0
  9 10  1  0
  9  8  2  0
 10 11  2  0
 11 12  1  0
 12  4  1  0
 13 14  2  0
 16 15  1  0
 16 18  1  0
 17 16  2  0
 19 18  1  0
 19 20  1  0
 21 20  1  0
 22 21  1  1
 23 22  1  0
 23 13  1  0
 24 25  2  0
 24 22  1  0
 26 24  1  0
 27 35  1  0
 27 26  1  0
 27 28  1  6
 29 28  1  0
 30 29  2  0
 31 30  1  0
 32 31  2  0
 32 33  1  0
 33 34  2  0
 34 29  1  0
 35 37  1  0
 36 35  2  0
M  END
$$$$
