WRF.pdb
     RDKit          3D

 37 39  0  0  1  0  0  0  0  0999 V2000
   38.6021   -1.2179  -10.5874 N   0  0  0  0  0  0  0  0  0  0  0  0
   37.8157   -2.3751  -10.7893 C   0  0  1  0  0  0  0  0  0  0  0  0
   36.4096   -2.1462  -11.2826 C   0  0  0  0  0  0  0  0  0  0  0  0
   35.6079   -1.4705  -10.2449 C   0  0  0  0  0  0  0  0  0  0  0  0
   35.3598   -0.1014  -10.1806 C   0  0  0  0  0  0  0  0  0  0  0  0
   34.5806    0.1627   -9.1249 N   0  0  0  0  0  0  0  0  0  0  0  0
   34.2997   -0.9776   -8.4817 C   0  0  0  0  0  0  0  0  0  0  0  0
   33.5488   -1.2415   -7.3427 C   0  0  0  0  0  0  0  0  0  0  0  0
   33.4583   -2.5421   -6.9250 C   0  0  0  0  0  0  0  0  0  0  0  0
   34.0855   -3.5831   -7.5970 C   0  0  0  0  0  0  0  0  0  0  0  0
   34.8252   -3.3111   -8.7220 C   0  0  0  0  0  0  0  0  0  0  0  0
   34.9372   -2.0119   -9.1718 C   0  0  0  0  0  0  0  0  0  0  0  0
   38.4805   -3.3857  -11.6646 C   0  0  0  0  0  0  0  0  0  0  0  0
   38.9550   -2.9966  -12.7814 O   0  0  0  0  0  0  0  0  0  0  0  0
   40.9552  -10.5585   -7.9536 N   0  0  0  0  0  0  0  0  0  0  0  0
   40.2169   -9.5339   -7.3203 C   0  0  0  0  0  0  0  0  0  0  0  0
   40.0042   -9.6059   -6.0401 N   0  0  0  0  0  0  0  0  0  0  0  0
   39.7183   -8.4463   -8.0688 N   0  0  0  0  0  0  0  0  0  0  0  0
   40.0188   -8.3234   -9.4688 C   0  0  0  0  0  0  0  0  0  0  0  0
   39.2803   -7.1428  -10.0244 C   0  0  0  0  0  0  0  0  0  0  0  0
   39.6138   -6.9279  -11.4731 C   0  0  0  0  0  0  0  0  0  0  0  0
   38.8898   -5.7848  -12.0901 C   0  0  2  0  0  0  0  0  0  0  0  0
   38.5463   -4.7163  -11.2036 N   0  0  0  0  0  0  0  0  0  0  0  0
   37.6168   -6.2596  -12.7531 C   0  0  0  0  0  0  0  0  0  0  0  0
   36.5340   -6.3958  -12.1440 O   0  0  0  0  0  0  0  0  0  0  0  0
   39.6109   -8.8146   -5.5134 N   0  0  0  0  0  0  0  0  0  0  0  0
   37.5944   -6.5837  -14.1474 C   0  0  1  0  0  0  0  0  0  0  0  0
   36.4078   -7.0591  -14.8290 C   0  0  0  0  0  0  0  0  0  0  0  0
   35.6042   -5.9282  -15.4184 C   0  0  0  0  0  0  0  0  0  0  0  0
   34.5219   -6.3781  -16.2928 C   0  0  0  0  0  0  0  0  0  0  0  0
   33.2891   -6.8073  -15.9001 C   0  0  0  0  0  0  0  0  0  0  0  0
   32.3166   -7.2173  -16.7754 C   0  0  0  0  0  0  0  0  0  0  0  0
   32.6074   -7.1924  -18.1391 C   0  0  0  0  0  0  0  0  0  0  0  0
   33.8290   -6.7699  -18.5777 C   0  0  0  0  0  0  0  0  0  0  0  0
   34.7688   -6.3701  -17.6700 C   0  0  0  0  0  0  0  0  0  0  0  0
   36.7265   -8.1170  -15.8188 O   0  0  0  0  0  0  0  0  0  0  0  0
   37.8471   -8.1092  -16.3626 O   0  0  0  0  0  0  0  0  0  0  0  0
  2 13  1  0
  2  1  1  6
  3  2  1  0
  4  3  1  0
  4  5  2  0
  6  5  1  0
  7 12  2  0
  7  6  1  0
  8  7  1  0
  9 10  1  0
  9  8  2  0
 10 11  2  0
 11 12  1  0
 12  4  1  0
 13 14  2  0
 16 15  1  0
 16 18  1  0
 17 16  2  0
 19 18  1  0
 19 20  1  0
 21 20  1  0
 22 21  1  1
 23 22  1  0
 23 13  1  0
 24 25  2  0
 24 22  1  0
 26 24  1  0
 27 35  1  0
 27 26  1  0
 27 28  1  6
 29 28  1  0
 30 29  2  0
 31 30  1  0
 32 31  2  0
 32 33  1  0
 33 34  2  0
 34 29  1  0
 35 37  1  0
 36 35  2  0
M  END
$$$$
