WRF.pdb
     RDKit          3D

 37 39  0  0  1  0  0  0  0  0999 V2000
   24.2022  -20.6750  -15.1802 N   0  0  0  0  0  0  0  0  0  0  0  0
   24.9265  -19.9356  -14.2173 C   0  0  1  0  0  0  0  0  0  0  0  0
   24.1510  -18.8845  -13.4645 C   0  0  0  0  0  0  0  0  0  0  0  0
   23.8207  -17.7568  -14.3563 C   0  0  0  0  0  0  0  0  0  0  0  0
   24.7176  -16.7863  -14.7965 C   0  0  0  0  0  0  0  0  0  0  0  0
   24.0863  -15.9290  -15.6077 N   0  0  0  0  0  0  0  0  0  0  0  0
   22.8022  -16.2899  -15.7253 C   0  0  0  0  0  0  0  0  0  0  0  0
   21.7426  -15.7367  -16.4338 C   0  0  0  0  0  0  0  0  0  0  0  0
   20.5224  -16.3503  -16.3397 C   0  0  0  0  0  0  0  0  0  0  0  0
   20.3210  -17.4882  -15.5695 C   0  0  0  0  0  0  0  0  0  0  0  0
   21.3754  -18.0270  -14.8733 C   0  0  0  0  0  0  0  0  0  0  0  0
   22.6193  -17.4351  -14.9458 C   0  0  0  0  0  0  0  0  0  0  0  0
   25.6480  -20.8026  -13.2390 C   0  0  0  0  0  0  0  0  0  0  0  0
   24.9683  -21.6401  -12.5603 O   0  0  0  0  0  0  0  0  0  0  0  0
   32.5108  -24.9193  -11.0977 N   0  0  0  0  0  0  0  0  0  0  0  0
   32.9176  -23.5802  -11.2902 C   0  0  0  0  0  0  0  0  0  0  0  0
   34.1292  -23.3386  -11.6943 N   0  0  0  0  0  0  0  0  0  0  0  0
   32.0191  -22.5193  -11.0476 N   0  0  0  0  0  0  0  0  0  0  0  0
   30.6077  -22.7673  -10.9378 C   0  0  0  0  0  0  0  0  0  0  0  0
   29.8964  -21.4615  -10.7461 C   0  0  0  0  0  0  0  0  0  0  0  0
   29.2187  -21.0227  -12.0127 C   0  0  0  0  0  0  0  0  0  0  0  0
   27.7338  -21.0598  -11.9401 C   0  0  2  0  0  0  0  0  0  0  0  0
   27.0440  -20.6453  -13.1224 N   0  0  0  0  0  0  0  0  0  0  0  0
   27.2378  -20.2062  -10.7951 C   0  0  0  0  0  0  0  0  0  0  0  0
   27.4884  -18.9864  -10.6883 O   0  0  0  0  0  0  0  0  0  0  0  0
   34.4556  -22.3805  -11.8778 N   0  0  0  0  0  0  0  0  0  0  0  0
   26.4365  -20.7730   -9.7529 C   0  0  1  0  0  0  0  0  0  0  0  0
   26.8790  -20.8629   -8.3764 C   0  0  0  0  0  0  0  0  0  0  0  0
   27.6149  -19.6227   -7.9380 C   0  0  0  0  0  0  0  0  0  0  0  0
   27.8499  -19.5652   -6.4958 C   0  0  0  0  0  0  0  0  0  0  0  0
   28.8023  -20.2513   -5.8027 C   0  0  0  0  0  0  0  0  0  0  0  0
   28.9690  -20.1515   -4.4454 C   0  0  0  0  0  0  0  0  0  0  0  0
   28.1174  -19.3021   -3.7397 C   0  0  0  0  0  0  0  0  0  0  0  0
   27.1493  -18.5953   -4.3928 C   0  0  0  0  0  0  0  0  0  0  0  0
   27.0187  -18.7254   -5.7467 C   0  0  0  0  0  0  0  0  0  0  0  0
   25.7689  -21.2279   -7.4627 O   0  0  0  0  0  0  0  0  0  0  0  0
   26.0447  -21.6147   -6.3112 O   0  0  0  0  0  0  0  0  0  0  0  0
  2 13  1  0
  2  1  1  1
  3  2  1  0
  4  3  1  0
  4  5  2  0
  6  5  1  0
  7 12  2  0
  7  6  1  0
  8  7  1  0
  9 10  1  0
  9  8  2  0
 10 11  2  0
 11 12  1  0
 12  4  1  0
 13 14  2  0
 16 15  1  0
 16 18  1  0
 17 16  2  0
 19 18  1  0
 19 20  1  0
 21 20  1  0
 22 21  1  6
 23 22  1  0
 23 13  1  0
 24 25  2  0
 24 22  1  0
 26 24  1  0
 27 35  1  0
 27 26  1  0
 27 28  1  1
 29 28  1  0
 30 29  2  0
 31 30  1  0
 32 31  2  0
 32 33  1  0
 33 34  2  0
 34 29  1  0
 35 37  1  0
 36 35  2  0
M  END
$$$$
