WRF.pdb
     RDKit          3D

 37 39  0  0  1  0  0  0  0  0999 V2000
   27.2097  -22.3839  -11.5467 N   0  0  0  0  0  0  0  0  0  0  0  0
   26.4544  -21.3280  -10.9873 C   0  0  1  0  0  0  0  0  0  0  0  0
   27.2392  -20.1458  -10.4779 C   0  0  0  0  0  0  0  0  0  0  0  0
   28.2749  -20.5918   -9.5270 C   0  0  0  0  0  0  0  0  0  0  0  0
   29.4021  -21.3419   -9.8543 C   0  0  0  0  0  0  0  0  0  0  0  0
   30.1362  -21.5490   -8.7546 N   0  0  0  0  0  0  0  0  0  0  0  0
   29.5419  -20.9665   -7.7055 C   0  0  0  0  0  0  0  0  0  0  0  0
   29.8889  -20.8959   -6.3619 C   0  0  0  0  0  0  0  0  0  0  0  0
   29.0485  -20.2177   -5.5205 C   0  0  0  0  0  0  0  0  0  0  0  0
   27.8817  -19.6112   -5.9667 C   0  0  0  0  0  0  0  0  0  0  0  0
   27.5482  -19.6869   -7.2971 C   0  0  0  0  0  0  0  0  0  0  0  0
   28.3724  -20.3617   -8.1735 C   0  0  0  0  0  0  0  0  0  0  0  0
   25.3735  -20.8405  -11.8949 C   0  0  0  0  0  0  0  0  0  0  0  0
   25.6132  -19.8249  -12.6263 O   0  0  0  0  0  0  0  0  0  0  0  0
   25.2442  -25.5096  -15.6046 N   0  0  0  0  0  0  0  0  0  0  0  0
   24.0680  -25.0069  -16.2045 C   0  0  0  0  0  0  0  0  0  0  0  0
   23.1156  -25.8333  -16.5200 N   0  0  0  0  0  0  0  0  0  0  0  0
   23.9297  -23.6253  -16.4567 N   0  0  0  0  0  0  0  0  0  0  0  0
   24.8607  -22.6835  -15.8984 C   0  0  0  0  0  0  0  0  0  0  0  0
   24.5465  -22.4898  -14.4453 C   0  0  0  0  0  0  0  0  0  0  0  0
   23.4412  -21.4900  -14.2586 C   0  0  0  0  0  0  0  0  0  0  0  0
   23.1188  -21.2143  -12.8332 C   0  0  2  0  0  0  0  0  0  0  0  0
   24.1463  -21.5343  -11.8913 N   0  0  0  0  0  0  0  0  0  0  0  0
   21.8684  -21.9567  -12.4197 C   0  0  0  0  0  0  0  0  0  0  0  0
   21.7999  -23.2028  -12.3507 O   0  0  0  0  0  0  0  0  0  0  0  0
   22.2470  -25.5101  -16.9663 N   0  0  0  0  0  0  0  0  0  0  0  0
   20.6735  -21.2456  -12.0793 C   0  0  1  0  0  0  0  0  0  0  0  0
   19.4422  -21.9066  -11.6977 C   0  0  0  0  0  0  0  0  0  0  0  0
   18.8902  -21.3678  -10.4027 C   0  0  0  0  0  0  0  0  0  0  0  0
   17.6303  -21.9932  -10.0028 C   0  0  0  0  0  0  0  0  0  0  0  0
   16.3761  -21.5524  -10.3040 C   0  0  0  0  0  0  0  0  0  0  0  0
   15.2323  -22.1886   -9.8955 C   0  0  0  0  0  0  0  0  0  0  0  0
   15.3626  -23.3480   -9.1315 C   0  0  0  0  0  0  0  0  0  0  0  0
   16.5991  -23.8260   -8.8062 C   0  0  0  0  0  0  0  0  0  0  0  0
   17.7124  -23.1597   -9.2346 C   0  0  0  0  0  0  0  0  0  0  0  0
   18.4468  -21.8965  -12.7974 O   0  0  0  0  0  0  0  0  0  0  0  0
   17.6507  -22.8498  -12.8923 O   0  0  0  0  0  0  0  0  0  0  0  0
  2 13  1  0
  2  1  1  6
  3  2  1  0
  4  3  1  0
  4  5  2  0
  6  5  1  0
  7 12  2  0
  7  6  1  0
  8  7  1  0
  9 10  1  0
  9  8  2  0
 10 11  2  0
 11 12  1  0
 12  4  1  0
 13 14  2  0
 16 15  1  0
 16 18  1  0
 17 16  2  0
 19 18  1  0
 19 20  1  0
 21 20  1  0
 22 21  1  6
 23 22  1  0
 23 13  1  0
 24 25  2  0
 24 22  1  0
 26 24  1  0
 27 35  1  0
 27 26  1  0
 27 28  1  6
 29 28  1  0
 30 29  2  0
 31 30  1  0
 32 31  2  0
 32 33  1  0
 33 34  2  0
 34 29  1  0
 35 37  1  0
 36 35  2  0
M  END
$$$$
