WRF.pdb
     RDKit          3D

 37 39  0  0  1  0  0  0  0  0999 V2000
   24.4872  -19.2064  -17.9468 N   0  0  0  0  0  0  0  0  0  0  0  0
   25.0294  -19.3760  -16.6524 C   0  0  1  0  0  0  0  0  0  0  0  0
   24.7183  -18.2906  -15.6533 C   0  0  0  0  0  0  0  0  0  0  0  0
   25.0144  -16.9655  -16.2300 C   0  0  0  0  0  0  0  0  0  0  0  0
   24.1023  -15.9213  -16.3640 C   0  0  0  0  0  0  0  0  0  0  0  0
   24.7130  -14.8608  -16.9057 N   0  0  0  0  0  0  0  0  0  0  0  0
   25.9978  -15.1573  -17.1391 C   0  0  0  0  0  0  0  0  0  0  0  0
   27.0378  -14.4163  -17.6869 C   0  0  0  0  0  0  0  0  0  0  0  0
   28.2609  -15.0207  -17.8012 C   0  0  0  0  0  0  0  0  0  0  0  0
   28.4837  -16.3290  -17.3921 C   0  0  0  0  0  0  0  0  0  0  0  0
   27.4486  -17.0524  -16.8517 C   0  0  0  0  0  0  0  0  0  0  0  0
   26.2029  -16.4747  -16.7209 C   0  0  0  0  0  0  0  0  0  0  0  0
   24.6971  -20.7015  -16.0507 C   0  0  0  0  0  0  0  0  0  0  0  0
   23.9483  -21.4928  -16.7119 O   0  0  0  0  0  0  0  0  0  0  0  0
   29.1049  -25.7644  -16.3715 N   0  0  0  0  0  0  0  0  0  0  0  0
   30.0017  -24.8096  -15.8424 C   0  0  0  0  0  0  0  0  0  0  0  0
   31.0587  -25.2187  -15.2059 N   0  0  0  0  0  0  0  0  0  0  0  0
   29.7529  -23.4300  -16.0043 N   0  0  0  0  0  0  0  0  0  0  0  0
   28.5575  -22.9747  -16.6596 C   0  0  0  0  0  0  0  0  0  0  0  0
   27.6999  -22.2533  -15.6637 C   0  0  0  0  0  0  0  0  0  0  0  0
   26.4897  -23.0659  -15.3016 C   0  0  0  0  0  0  0  0  0  0  0  0
   25.5338  -22.3520  -14.4137 C   0  0  2  0  0  0  0  0  0  0  0  0
   25.2331  -21.0032  -14.7823 N   0  0  0  0  0  0  0  0  0  0  0  0
   26.0428  -22.3372  -12.9902 C   0  0  0  0  0  0  0  0  0  0  0  0
   26.4108  -23.3646  -12.3810 O   0  0  0  0  0  0  0  0  0  0  0  0
   31.6976  -24.5594  -14.7419 N   0  0  0  0  0  0  0  0  0  0  0  0
   26.1283  -21.1112  -12.2559 C   0  0  1  0  0  0  0  0  0  0  0  0
   25.1121  -20.6794  -11.3182 C   0  0  0  0  0  0  0  0  0  0  0  0
   25.5923  -19.5467  -10.4473 C   0  0  0  0  0  0  0  0  0  0  0  0
   26.7008  -19.9183   -9.5689 C   0  0  0  0  0  0  0  0  0  0  0  0
   27.9912  -20.1449   -9.9453 C   0  0  0  0  0  0  0  0  0  0  0  0
   28.9854  -20.4919   -9.0672 C   0  0  0  0  0  0  0  0  0  0  0  0
   28.6556  -20.6187   -7.7181 C   0  0  0  0  0  0  0  0  0  0  0  0
   27.3758  -20.4010   -7.2961 C   0  0  0  0  0  0  0  0  0  0  0  0
   26.4163  -20.0571   -8.2061 C   0  0  0  0  0  0  0  0  0  0  0  0
   23.8270  -20.3805  -11.9961 O   0  0  0  0  0  0  0  0  0  0  0  0
   22.8027  -20.9881  -11.6309 O   0  0  0  0  0  0  0  0  0  0  0  0
  2 13  1  0
  2  1  1  6
  3  2  1  0
  4  3  1  0
  4  5  2  0
  6  5  1  0
  7 12  2  0
  7  6  1  0
  8  7  1  0
  9 10  1  0
  9  8  2  0
 10 11  2  0
 11 12  1  0
 12  4  1  0
 13 14  2  0
 16 15  1  0
 16 18  1  0
 17 16  2  0
 19 18  1  0
 19 20  1  0
 21 20  1  0
 22 21  1  6
 23 22  1  0
 23 13  1  0
 24 25  2  0
 24 22  1  0
 26 24  1  0
 27 35  1  0
 27 26  1  0
 27 28  1  1
 29 28  1  0
 30 29  2  0
 31 30  1  0
 32 31  2  0
 32 33  1  0
 33 34  2  0
 34 29  1  0
 35 37  1  0
 36 35  2  0
M  END
$$$$
