WRF.pdb
     RDKit          3D

 37 39  0  0  1  0  0  0  0  0999 V2000
   24.4009  -17.8605  -15.4880 N   0  0  0  0  0  0  0  0  0  0  0  0
   25.4481  -18.3740  -14.6894 C   0  0  1  0  0  0  0  0  0  0  0  0
   26.2343  -17.3636  -13.8931 C   0  0  0  0  0  0  0  0  0  0  0  0
   26.8218  -16.3512  -14.7908 C   0  0  0  0  0  0  0  0  0  0  0  0
   26.5346  -14.9884  -14.7683 C   0  0  0  0  0  0  0  0  0  0  0  0
   27.2602  -14.3630  -15.7030 N   0  0  0  0  0  0  0  0  0  0  0  0
   28.0203  -15.2563  -16.3490 C   0  0  0  0  0  0  0  0  0  0  0  0
   28.9299  -15.1220  -17.3909 C   0  0  0  0  0  0  0  0  0  0  0  0
   29.5525  -16.2537  -17.8445 C   0  0  0  0  0  0  0  0  0  0  0  0
   29.3028  -17.5071  -17.3010 C   0  0  0  0  0  0  0  0  0  0  0  0
   28.4018  -17.6285  -16.2712 C   0  0  0  0  0  0  0  0  0  0  0  0
   27.7566  -16.5089  -15.7887 C   0  0  0  0  0  0  0  0  0  0  0  0
   25.0028  -19.4711  -13.7797 C   0  0  0  0  0  0  0  0  0  0  0  0
   24.0101  -19.2512  -13.0114 O   0  0  0  0  0  0  0  0  0  0  0  0
   27.2486  -25.4528  -16.2404 N   0  0  0  0  0  0  0  0  0  0  0  0
   27.3634  -24.3436  -17.1076 C   0  0  0  0  0  0  0  0  0  0  0  0
   27.2902  -24.5337  -18.3914 N   0  0  0  0  0  0  0  0  0  0  0  0
   27.5542  -23.0463  -16.5859 N   0  0  0  0  0  0  0  0  0  0  0  0
   27.4427  -22.8025  -15.1739 C   0  0  0  0  0  0  0  0  0  0  0  0
   26.1045  -23.2847  -14.6998 C   0  0  0  0  0  0  0  0  0  0  0  0
   25.9460  -23.0753  -13.2210 C   0  0  0  0  0  0  0  0  0  0  0  0
   25.4608  -21.7171  -12.8580 C   0  0  2  0  0  0  0  0  0  0  0  0
   25.7073  -20.6913  -13.8236 N   0  0  0  0  0  0  0  0  0  0  0  0
   26.0678  -21.2705  -11.5474 C   0  0  0  0  0  0  0  0  0  0  0  0
   27.2972  -21.1298  -11.3717 O   0  0  0  0  0  0  0  0  0  0  0  0
   27.4158  -23.7612  -19.0590 N   0  0  0  0  0  0  0  0  0  0  0  0
   25.2381  -20.9806  -10.4173 C   0  0  1  0  0  0  0  0  0  0  0  0
   25.7077  -21.0665   -9.0496 C   0  0  0  0  0  0  0  0  0  0  0  0
   26.8618  -20.1325   -8.7894 C   0  0  0  0  0  0  0  0  0  0  0  0
   27.2715  -20.0913   -7.3862 C   0  0  0  0  0  0  0  0  0  0  0  0
   26.5202  -19.6547   -6.3360 C   0  0  0  0  0  0  0  0  0  0  0  0
   26.9670  -19.6425   -5.0397 C   0  0  0  0  0  0  0  0  0  0  0  0
   28.2591  -20.1018   -4.7859 C   0  0  0  0  0  0  0  0  0  0  0  0
   29.0469  -20.5484   -5.8073 C   0  0  0  0  0  0  0  0  0  0  0  0
   28.5609  -20.5428   -7.0842 C   0  0  0  0  0  0  0  0  0  0  0  0
   24.6016  -20.9017   -8.0750 O   0  0  0  0  0  0  0  0  0  0  0  0
   23.6120  -20.2203   -8.4031 O   0  0  0  0  0  0  0  0  0  0  0  0
  2 13  1  0
  2  1  1  1
  3  2  1  0
  4  3  1  0
  4  5  2  0
  6  5  1  0
  7 12  2  0
  7  6  1  0
  8  7  1  0
  9 10  1  0
  9  8  2  0
 10 11  2  0
 11 12  1  0
 12  4  1  0
 13 14  2  0
 16 15  1  0
 16 18  1  0
 17 16  2  0
 19 18  1  0
 19 20  1  0
 21 20  1  0
 22 21  1  6
 23 22  1  0
 23 13  1  0
 24 25  2  0
 24 22  1  0
 26 24  1  0
 27 35  1  0
 27 26  1  0
 27 28  1  1
 29 28  1  0
 30 29  2  0
 31 30  1  0
 32 31  2  0
 32 33  1  0
 33 34  2  0
 34 29  1  0
 35 37  1  0
 36 35  2  0
M  END
$$$$
