WRF.pdb
     RDKit          3D

 37 39  0  0  1  0  0  0  0  0999 V2000
   28.3215  -21.9084  -14.0427 N   0  0  0  0  0  0  0  0  0  0  0  0
   27.1521  -21.6047  -13.3088 C   0  0  1  0  0  0  0  0  0  0  0  0
   27.2271  -20.3988  -12.4070 C   0  0  0  0  0  0  0  0  0  0  0  0
   28.2323  -20.6139  -11.3490 C   0  0  0  0  0  0  0  0  0  0  0  0
   29.6131  -20.5895  -11.5305 C   0  0  0  0  0  0  0  0  0  0  0  0
   30.2220  -20.8013  -10.3576 N   0  0  0  0  0  0  0  0  0  0  0  0
   29.3005  -20.9668   -9.4003 C   0  0  0  0  0  0  0  0  0  0  0  0
   29.4104  -21.2165   -8.0378 C   0  0  0  0  0  0  0  0  0  0  0  0
   28.2534  -21.3457   -7.3173 C   0  0  0  0  0  0  0  0  0  0  0  0
   26.9985  -21.2362   -7.9019 C   0  0  0  0  0  0  0  0  0  0  0  0
   26.9014  -20.9891   -9.2496 C   0  0  0  0  0  0  0  0  0  0  0  0
   28.0466  -20.8524  -10.0062 C   0  0  0  0  0  0  0  0  0  0  0  0
   25.9366  -21.4948  -14.1690 C   0  0  0  0  0  0  0  0  0  0  0  0
   25.9295  -20.6172  -15.0929 O   0  0  0  0  0  0  0  0  0  0  0  0
   26.0058  -25.3630  -17.4932 N   0  0  0  0  0  0  0  0  0  0  0  0
   26.0880  -26.4209  -16.5604 C   0  0  0  0  0  0  0  0  0  0  0  0
   27.2197  -27.0410  -16.4048 N   0  0  0  0  0  0  0  0  0  0  0  0
   24.9557  -26.7979  -15.8071 N   0  0  0  0  0  0  0  0  0  0  0  0
   23.7533  -26.0119  -15.8515 C   0  0  0  0  0  0  0  0  0  0  0  0
   23.8955  -24.8495  -14.9152 C   0  0  0  0  0  0  0  0  0  0  0  0
   23.4898  -23.5654  -15.5803 C   0  0  0  0  0  0  0  0  0  0  0  0
   23.6922  -22.3619  -14.7303 C   0  0  2  0  0  0  0  0  0  0  0  0
   24.8635  -22.3715  -13.9096 N   0  0  0  0  0  0  0  0  0  0  0  0
   22.4996  -22.1445  -13.8271 C   0  0  0  0  0  0  0  0  0  0  0  0
   22.2420  -22.8694  -12.8421 O   0  0  0  0  0  0  0  0  0  0  0  0
   27.3188  -27.8253  -15.7466 N   0  0  0  0  0  0  0  0  0  0  0  0
   21.5864  -21.0682  -14.0665 C   0  0  2  0  0  0  0  0  0  0  0  0
   20.4614  -20.7793  -13.2008 C   0  0  0  0  0  0  0  0  0  0  0  0
   20.3541  -19.3089  -12.8865 C   0  0  0  0  0  0  0  0  0  0  0  0
   20.3259  -18.4604  -14.0771 C   0  0  0  0  0  0  0  0  0  0  0  0
   21.4067  -17.9838  -14.7574 C   0  0  0  0  0  0  0  0  0  0  0  0
   21.3096  -17.1894  -15.8708 C   0  0  0  0  0  0  0  0  0  0  0  0
   20.0360  -16.8531  -16.3287 C   0  0  0  0  0  0  0  0  0  0  0  0
   18.9253  -17.3081  -15.6785 C   0  0  0  0  0  0  0  0  0  0  0  0
   19.0688  -18.0975  -14.5726 C   0  0  0  0  0  0  0  0  0  0  0  0
   19.1980  -21.3496  -13.7287 O   0  0  0  0  0  0  0  0  0  0  0  0
   19.1686  -21.7480  -14.9085 O   0  0  0  0  0  0  0  0  0  0  0  0
  2 13  1  0
  2  1  1  6
  3  2  1  0
  4  3  1  0
  4  5  2  0
  6  5  1  0
  7 12  2  0
  7  6  1  0
  8  7  1  0
  9 10  1  0
  9  8  2  0
 10 11  2  0
 11 12  1  0
 12  4  1  0
 13 14  2  0
 16 15  1  0
 16 18  1  0
 17 16  2  0
 19 18  1  0
 19 20  1  0
 21 20  1  0
 22 21  1  1
 23 22  1  0
 23 13  1  0
 24 25  2  0
 24 22  1  0
 26 24  1  0
 27 35  1  0
 27 26  1  0
 27 28  1  1
 29 28  1  0
 30 29  2  0
 31 30  1  0
 32 31  2  0
 32 33  1  0
 33 34  2  0
 34 29  1  0
 35 37  1  0
 36 35  2  0
M  END
$$$$
