RYC.pdb
     RDKit          3D

 30 30  0  0  1  0  0  0  0  0999 V2000
    9.0099  -13.9262   14.7539 N   0  0  0  0  0  0  0  0  0  0  0  0
    8.0359  -13.7494   15.8052 C   0  0  0  0  0  0  0  0  0  0  0  0
    6.7839  -13.8522   15.5289 N   0  0  0  0  0  0  0  0  0  0  0  0
    8.4213  -13.4670   17.1309 N   0  0  0  0  0  0  0  0  0  0  0  0
    8.6650  -14.5248   18.0870 C   0  0  0  0  0  0  0  0  0  0  0  0
    7.3025  -15.0511   18.5155 C   0  0  0  0  0  0  0  0  0  0  0  0
    7.3566  -15.4129   19.9595 C   0  0  0  0  0  0  0  0  0  0  0  0
    8.6481  -15.0718   20.6512 C   0  0  2  0  0  0  0  0  0  0  0  0
    9.7152  -15.9234   20.1691 N   0  0  0  0  0  0  0  0  0  0  0  0
    8.4724  -15.3206   22.1284 C   0  0  0  0  0  0  0  0  0  0  0  0
    7.3772  -14.9588   22.6420 O   0  0  0  0  0  0  0  0  0  0  0  0
    5.9984  -13.7543   16.1789 O   0  0  0  0  0  0  0  0  0  0  0  0
   10.5160  -17.5772   30.4654 C   0  0  0  0  0  0  0  0  0  0  0  0
   10.4944  -17.4052   29.0857 C   0  0  0  0  0  0  0  0  0  0  0  0
   11.3308  -16.4835   28.4821 C   0  0  0  0  0  0  0  0  0  0  0  0
   11.3073  -16.3157   27.1246 C   0  0  0  0  0  0  0  0  0  0  0  0
   10.4504  -17.0583   26.3103 C   0  0  0  0  0  0  0  0  0  0  0  0
   10.4180  -16.8058   24.8751 C   0  0  1  0  0  0  0  0  0  0  0  0
    9.2177  -16.1019   24.3692 N   0  0  0  0  0  0  0  0  0  0  0  0
    9.4745  -15.9252   22.9035 C   0  0  0  0  0  0  0  0  0  0  0  0
    9.0231  -14.7683   24.9497 O   0  0  0  0  0  0  0  0  0  0  0  0
    9.9183  -13.8476   24.7830 C   0  0  0  0  0  0  0  0  0  0  0  0
    9.6244  -17.9688   26.9018 C   0  0  0  0  0  0  0  0  0  0  0  0
    9.6536  -18.1308   28.2644 N   0  0  0  0  0  0  0  0  0  0  0  0
    7.9215  -14.3139   25.7072 C   0  0  2  0  0  0  0  0  0  0  0  0
    7.9328  -13.0644   26.4292 C   0  0  0  0  0  0  0  0  0  0  0  0
    6.5166  -12.5489   26.6634 S   0  0  0  0  0  0  0  0  0  0  0  0
    5.7978  -12.2880   25.0158 C   0  0  0  0  0  0  0  0  0  0  0  0
    8.5168  -13.2405   27.7535 O   0  0  0  0  0  0  0  0  0  0  0  0
    8.7634  -14.3972   28.1775 O   0  0  0  0  0  0  0  0  0  0  0  0
  1  2  1  0
  2  3  2  0
  4  2  1  0
  4  5  1  0
  6  5  1  0
  7  8  1  0
  7  6  1  0
  8 10  1  0
  8  9  1  6
 10 11  2  0
 12 13  1  0
 13 23  2  0
 13 14  1  0
 14 15  2  0
 15 16  1  0
 16 17  1  0
 18 17  1  6
 19 18  1  0
 19 10  1  0
 20 21  2  0
 20 18  1  0
 22 16  2  0
 23 22  1  0
 24 20  1  0
 25 28  1  0
 25 24  1  0
 25 26  1  6
 27 26  1  0
 28 30  1  0
 29 28  2  0
M  END
$$$$
