RYC.pdb
     RDKit          3D

 30 30  0  0  1  0  0  0  0  0999 V2000
   15.9051  -19.7300   22.8818 N   0  0  0  0  0  0  0  0  0  0  0  0
   14.7671  -18.8507   22.7511 C   0  0  0  0  0  0  0  0  0  0  0  0
   14.8175  -17.6729   23.2657 N   0  0  0  0  0  0  0  0  0  0  0  0
   13.5985  -19.2492   22.0718 N   0  0  0  0  0  0  0  0  0  0  0  0
   13.4425  -19.0347   20.6498 C   0  0  0  0  0  0  0  0  0  0  0  0
   12.4519  -17.8908   20.4849 C   0  0  0  0  0  0  0  0  0  0  0  0
   11.0877  -18.3797   20.8298 C   0  0  0  0  0  0  0  0  0  0  0  0
    9.9682  -17.4397   20.4748 C   0  0  2  0  0  0  0  0  0  0  0  0
   10.2434  -16.7864   19.2124 N   0  0  0  0  0  0  0  0  0  0  0  0
    9.8812  -16.3829   21.5475 C   0  0  0  0  0  0  0  0  0  0  0  0
   10.7087  -15.4315   21.4801 O   0  0  0  0  0  0  0  0  0  0  0  0
   14.0789  -16.9634   23.2568 O   0  0  0  0  0  0  0  0  0  0  0  0
    5.6205  -10.9657   27.1022 C   0  0  0  0  0  0  0  0  0  0  0  0
    6.0524  -11.9701   26.2428 C   0  0  0  0  0  0  0  0  0  0  0  0
    6.7872  -11.6569   25.1134 C   0  0  0  0  0  0  0  0  0  0  0  0
    7.2104  -12.6467   24.2692 C   0  0  0  0  0  0  0  0  0  0  0  0
    6.9204  -13.9902   24.5136 C   0  0  0  0  0  0  0  0  0  0  0  0
    7.3421  -15.0060   23.5570 C   0  0  1  0  0  0  0  0  0  0  0  0
    8.7985  -15.2636   23.4870 N   0  0  0  0  0  0  0  0  0  0  0  0
    8.9284  -16.4465   22.5763 C   0  0  0  0  0  0  0  0  0  0  0  0
    9.3994  -15.6271   24.7755 O   0  0  0  0  0  0  0  0  0  0  0  0
    9.5119  -16.8719   25.1144 C   0  0  0  0  0  0  0  0  0  0  0  0
    6.1966  -14.3032   25.6267 C   0  0  0  0  0  0  0  0  0  0  0  0
    5.7751  -13.3043   26.4684 N   0  0  0  0  0  0  0  0  0  0  0  0
    9.9142  -14.7550   25.7594 C   0  0  2  0  0  0  0  0  0  0  0  0
   10.4855  -15.2259   26.9981 C   0  0  0  0  0  0  0  0  0  0  0  0
   10.5083  -14.1225   28.0508 S   0  0  0  0  0  0  0  0  0  0  0  0
   11.2697  -14.8535   29.5290 C   0  0  0  0  0  0  0  0  0  0  0  0
    9.6761  -16.2989   27.5631 O   0  0  0  0  0  0  0  0  0  0  0  0
    8.4322  -16.1545   27.6646 O   0  0  0  0  0  0  0  0  0  0  0  0
  1  2  1  0
  2  3  2  0
  4  2  1  0
  4  5  1  0
  6  5  1  0
  7  8  1  0
  7  6  1  0
  8 10  1  0
  8  9  1  6
 10 11  2  0
 12 13  1  0
 13 23  2  0
 13 14  1  0
 14 15  2  0
 15 16  1  0
 16 17  1  0
 18 17  1  6
 19 18  1  0
 19 10  1  0
 20 21  2  0
 20 18  1  0
 22 16  2  0
 23 22  1  0
 24 20  1  0
 25 28  1  0
 25 24  1  0
 25 26  1  6
 27 26  1  0
 28 30  1  0
 29 28  2  0
M  END
$$$$
