RYC.pdb
     RDKit          3D

 30 30  0  0  1  0  0  0  0  0999 V2000
    9.4893  -21.1533   18.6337 N   0  0  0  0  0  0  0  0  0  0  0  0
    8.2447  -21.7936   18.2787 C   0  0  0  0  0  0  0  0  0  0  0  0
    8.2493  -23.0315   17.9294 N   0  0  0  0  0  0  0  0  0  0  0  0
    7.0203  -21.0965   18.3054 N   0  0  0  0  0  0  0  0  0  0  0  0
    6.6755  -20.2195   19.4028 C   0  0  0  0  0  0  0  0  0  0  0  0
    6.6754  -21.0731   20.6630 C   0  0  0  0  0  0  0  0  0  0  0  0
    6.3043  -20.2186   21.8254 C   0  0  0  0  0  0  0  0  0  0  0  0
    7.3286  -19.1847   22.2057 C   0  0  2  0  0  0  0  0  0  0  0  0
    8.6208  -19.8077   22.4018 N   0  0  0  0  0  0  0  0  0  0  0  0
    6.9024  -18.5548   23.5082 C   0  0  0  0  0  0  0  0  0  0  0  0
    5.6837  -18.2443   23.6204 O   0  0  0  0  0  0  0  0  0  0  0  0
    7.4381  -23.6059   17.6822 O   0  0  0  0  0  0  0  0  0  0  0  0
    6.3151  -23.0896   28.9360 C   0  0  0  0  0  0  0  0  0  0  0  0
    6.7813  -21.8782   28.4372 C   0  0  0  0  0  0  0  0  0  0  0  0
    6.0833  -20.7079   28.6757 C   0  0  0  0  0  0  0  0  0  0  0  0
    6.5436  -19.5175   28.1834 C   0  0  0  0  0  0  0  0  0  0  0  0
    7.7183  -19.4413   27.4329 C   0  0  0  0  0  0  0  0  0  0  0  0
    8.1406  -18.1606   26.8796 C   0  0  2  0  0  0  0  0  0  0  0  0
    7.3072  -17.6250   25.7794 N   0  0  0  0  0  0  0  0  0  0  0  0
    7.8116  -18.3206   24.5517 C   0  0  0  0  0  0  0  0  0  0  0  0
    7.4617  -16.1812   25.5667 O   0  0  0  0  0  0  0  0  0  0  0  0
    8.5585  -15.7098   25.0651 C   0  0  0  0  0  0  0  0  0  0  0  0
    8.4098  -20.5931   27.1960 C   0  0  0  0  0  0  0  0  0  0  0  0
    7.9411  -21.7836   27.6929 N   0  0  0  0  0  0  0  0  0  0  0  0
    6.5186  -15.1669   25.8416 C   0  0  2  0  0  0  0  0  0  0  0  0
    6.8447  -13.7622   25.7872 C   0  0  0  0  0  0  0  0  0  0  0  0
    5.6048  -12.8988   25.9951 S   0  0  0  0  0  0  0  0  0  0  0  0
    6.1516  -11.1780   25.7970 C   0  0  0  0  0  0  0  0  0  0  0  0
    7.7635  -13.4053   26.8615 O   0  0  0  0  0  0  0  0  0  0  0  0
    8.4041  -12.3261   26.8015 O   0  0  0  0  0  0  0  0  0  0  0  0
  1  2  1  0
  2  3  2  0
  4  2  1  0
  4  5  1  0
  6  5  1  0
  7  8  1  0
  7  6  1  0
  8 10  1  0
  8  9  1  1
 10 11  2  0
 12 13  1  0
 13 23  2  0
 13 14  1  0
 14 15  2  0
 15 16  1  0
 16 17  1  0
 18 17  1  1
 19 18  1  0
 19 10  1  0
 20 21  2  0
 20 18  1  0
 22 16  2  0
 23 22  1  0
 24 20  1  0
 25 28  1  0
 25 24  1  0
 25 26  1  1
 27 26  1  0
 28 30  1  0
 29 28  2  0
M  END
$$$$
