RYC.pdb
     RDKit          3D

 30 30  0  0  1  0  0  0  0  0999 V2000
    9.4678  -15.1470   16.3904 N   0  0  0  0  0  0  0  0  0  0  0  0
    8.7007  -14.0000   15.9648 C   0  0  0  0  0  0  0  0  0  0  0  0
    8.4347  -13.8473   14.7156 N   0  0  0  0  0  0  0  0  0  0  0  0
    8.2333  -13.0401   16.8845 N   0  0  0  0  0  0  0  0  0  0  0  0
    8.4964  -13.1624   18.3015 C   0  0  0  0  0  0  0  0  0  0  0  0
    7.5001  -14.1758   18.8467 C   0  0  0  0  0  0  0  0  0  0  0  0
    7.6756  -14.2804   20.3222 C   0  0  0  0  0  0  0  0  0  0  0  0
    8.2522  -15.5843   20.8019 C   0  0  2  0  0  0  0  0  0  0  0  0
    7.2377  -16.6172   20.7855 N   0  0  0  0  0  0  0  0  0  0  0  0
    8.7188  -15.3993   22.2242 C   0  0  0  0  0  0  0  0  0  0  0  0
    9.6537  -14.5724   22.4154 O   0  0  0  0  0  0  0  0  0  0  0  0
    7.9316  -13.0672   14.2827 O   0  0  0  0  0  0  0  0  0  0  0  0
    6.0619  -10.4800   26.6460 C   0  0  0  0  0  0  0  0  0  0  0  0
    6.4183  -11.7971   26.3779 C   0  0  0  0  0  0  0  0  0  0  0  0
    7.3291  -12.4541   27.1857 C   0  0  0  0  0  0  0  0  0  0  0  0
    7.6785  -13.7497   26.9196 C   0  0  0  0  0  0  0  0  0  0  0  0
    7.1361  -14.4464   25.8383 C   0  0  0  0  0  0  0  0  0  0  0  0
    7.5804  -15.8062   25.5586 C   0  0  2  0  0  0  0  0  0  0  0  0
    8.7452  -15.9327   24.6535 N   0  0  0  0  0  0  0  0  0  0  0  0
    8.1464  -16.1093   23.2913 C   0  0  0  0  0  0  0  0  0  0  0  0
    9.5834  -17.1062   24.9256 O   0  0  0  0  0  0  0  0  0  0  0  0
    9.0456  -18.2785   25.0425 C   0  0  0  0  0  0  0  0  0  0  0  0
    6.2371  -13.8022   25.0397 C   0  0  0  0  0  0  0  0  0  0  0  0
    5.8921  -12.5021   25.3130 N   0  0  0  0  0  0  0  0  0  0  0  0
   10.9865  -17.1423   25.0796 C   0  0  1  0  0  0  0  0  0  0  0  0
   11.7201  -18.3711   25.2646 C   0  0  0  0  0  0  0  0  0  0  0  0
   13.0791  -18.3124   24.5746 S   0  0  0  0  0  0  0  0  0  0  0  0
   13.1551  -16.6954   23.7508 C   0  0  0  0  0  0  0  0  0  0  0  0
   12.0001  -18.5955   26.6777 O   0  0  0  0  0  0  0  0  0  0  0  0
   11.6785  -17.7237   27.5233 O   0  0  0  0  0  0  0  0  0  0  0  0
  1  2  1  0
  2  3  2  0
  4  2  1  0
  4  5  1  0
  6  5  1  0
  7  8  1  0
  7  6  1  0
  8 10  1  0
  8  9  1  1
 10 11  2  0
 12 13  1  0
 13 23  2  0
 13 14  1  0
 14 15  2  0
 15 16  1  0
 16 17  1  0
 18 17  1  6
 19 18  1  0
 19 10  1  0
 20 21  2  0
 20 18  1  0
 22 16  2  0
 23 22  1  0
 24 20  1  0
 25 28  1  0
 25 24  1  0
 25 26  1  6
 27 26  1  0
 28 30  1  0
 29 28  2  0
M  END
$$$$
