RYC.pdb
     RDKit          3D

 30 30  0  0  1  0  0  0  0  0999 V2000
    9.0413  -16.0021   15.7428 N   0  0  0  0  0  0  0  0  0  0  0  0
    8.3350  -14.7590   15.5405 C   0  0  0  0  0  0  0  0  0  0  0  0
    7.8364  -14.4978   14.3839 N   0  0  0  0  0  0  0  0  0  0  0  0
    8.1758  -13.8210   16.5800 N   0  0  0  0  0  0  0  0  0  0  0  0
    8.0717  -14.2367   17.9615 C   0  0  0  0  0  0  0  0  0  0  0  0
    8.0722  -15.7588   17.9627 C   0  0  0  0  0  0  0  0  0  0  0  0
    8.6131  -16.2408   19.2642 C   0  0  0  0  0  0  0  0  0  0  0  0
    9.8478  -15.5264   19.7420 C   0  0  2  0  0  0  0  0  0  0  0  0
   11.0261  -16.3193   19.4606 N   0  0  0  0  0  0  0  0  0  0  0  0
    9.7412  -15.3473   21.2358 C   0  0  0  0  0  0  0  0  0  0  0  0
   10.6565  -15.8592   21.9389 O   0  0  0  0  0  0  0  0  0  0  0  0
    7.3425  -13.6456   14.1030 O   0  0  0  0  0  0  0  0  0  0  0  0
    6.7504  -11.8025   28.8776 C   0  0  0  0  0  0  0  0  0  0  0  0
    6.9739  -12.2117   27.5675 C   0  0  0  0  0  0  0  0  0  0  0  0
    8.0018  -11.6567   26.8265 C   0  0  0  0  0  0  0  0  0  0  0  0
    8.2192  -12.0605   25.5377 C   0  0  0  0  0  0  0  0  0  0  0  0
    7.4229  -13.0340   24.9318 C   0  0  0  0  0  0  0  0  0  0  0  0
    7.6545  -13.3922   23.5380 C   0  0  1  0  0  0  0  0  0  0  0  0
    8.7631  -14.3417   23.2897 N   0  0  0  0  0  0  0  0  0  0  0  0
    8.6774  -14.6462   21.8250 C   0  0  0  0  0  0  0  0  0  0  0  0
    8.6316  -15.6103   24.0155 O   0  0  0  0  0  0  0  0  0  0  0  0
    7.7423  -16.4793   23.6537 C   0  0  0  0  0  0  0  0  0  0  0  0
    6.4086  -13.5842   25.6594 C   0  0  0  0  0  0  0  0  0  0  0  0
    6.1966  -13.1732   26.9517 N   0  0  0  0  0  0  0  0  0  0  0  0
    9.3932  -16.0507   25.1199 C   0  0  2  0  0  0  0  0  0  0  0  0
    9.1769  -17.3268   25.7582 C   0  0  0  0  0  0  0  0  0  0  0  0
   10.0508  -18.4109   25.1359 S   0  0  0  0  0  0  0  0  0  0  0  0
   11.7032  -17.6798   24.9508 C   0  0  0  0  0  0  0  0  0  0  0  0
    9.5549  -17.2691   27.1651 O   0  0  0  0  0  0  0  0  0  0  0  0
   10.0145  -16.2025   27.6442 O   0  0  0  0  0  0  0  0  0  0  0  0
  1  2  1  0
  2  3  2  0
  4  2  1  0
  4  5  1  0
  6  5  1  0
  7  8  1  0
  7  6  1  0
  8 10  1  0
  8  9  1  1
 10 11  2  0
 12 13  1  0
 13 23  2  0
 13 14  1  0
 14 15  2  0
 15 16  1  0
 16 17  1  0
 18 17  1  6
 19 18  1  0
 19 10  1  0
 20 21  2  0
 20 18  1  0
 22 16  2  0
 23 22  1  0
 24 20  1  0
 25 28  1  0
 25 24  1  0
 25 26  1  6
 27 26  1  0
 28 30  1  0
 29 28  2  0
M  END
$$$$
