RYC.pdb
     RDKit          3D

 30 30  0  0  1  0  0  0  0  0999 V2000
    4.9803  -20.7458   17.6002 N   0  0  0  0  0  0  0  0  0  0  0  0
    5.6536  -20.7539   18.8776 C   0  0  0  0  0  0  0  0  0  0  0  0
    5.6503  -21.8277   19.5856 N   0  0  0  0  0  0  0  0  0  0  0  0
    6.3176  -19.6130   19.3710 N   0  0  0  0  0  0  0  0  0  0  0  0
    7.2455  -18.8664   18.5501 C   0  0  0  0  0  0  0  0  0  0  0  0
    8.5503  -18.7817   19.3293 C   0  0  0  0  0  0  0  0  0  0  0  0
    9.2679  -17.5369   18.9362 C   0  0  0  0  0  0  0  0  0  0  0  0
    8.4542  -16.2759   19.0392 C   0  0  2  0  0  0  0  0  0  0  0  0
    8.8156  -15.3581   17.9793 N   0  0  0  0  0  0  0  0  0  0  0  0
    8.7648  -15.6204   20.3616 C   0  0  0  0  0  0  0  0  0  0  0  0
    9.9056  -15.0933   20.4836 O   0  0  0  0  0  0  0  0  0  0  0  0
    6.1241  -21.9778   20.4812 O   0  0  0  0  0  0  0  0  0  0  0  0
    7.1109  -12.0157   28.2915 C   0  0  0  0  0  0  0  0  0  0  0  0
    7.0709  -12.5271   26.9990 C   0  0  0  0  0  0  0  0  0  0  0  0
    6.4190  -13.7189   26.7376 C   0  0  0  0  0  0  0  0  0  0  0  0
    6.3815  -14.2202   25.4654 C   0  0  0  0  0  0  0  0  0  0  0  0
    6.9911  -13.5565   24.3992 C   0  0  0  0  0  0  0  0  0  0  0  0
    6.9755  -14.1562   23.0708 C   0  0  1  0  0  0  0  0  0  0  0  0
    8.2123  -14.8619   22.6651 N   0  0  0  0  0  0  0  0  0  0  0  0
    7.8350  -15.5935   21.4129 C   0  0  0  0  0  0  0  0  0  0  0  0
    8.6740  -15.8576   23.6392 O   0  0  0  0  0  0  0  0  0  0  0  0
    7.9949  -16.9430   23.8338 C   0  0  0  0  0  0  0  0  0  0  0  0
    7.6344  -12.3806   24.6527 C   0  0  0  0  0  0  0  0  0  0  0  0
    7.6681  -11.8845   25.9320 N   0  0  0  0  0  0  0  0  0  0  0  0
    9.8347  -15.8006   24.4411 C   0  0  2  0  0  0  0  0  0  0  0  0
   10.2557  -16.8936   25.2840 C   0  0  0  0  0  0  0  0  0  0  0  0
   11.7767  -16.9815   25.3562 S   0  0  0  0  0  0  0  0  0  0  0  0
   12.3329  -17.4451   23.6903 C   0  0  0  0  0  0  0  0  0  0  0  0
    9.8029  -16.6902   26.6549 O   0  0  0  0  0  0  0  0  0  0  0  0
    9.1921  -15.6355   26.9599 O   0  0  0  0  0  0  0  0  0  0  0  0
  1  2  1  0
  2  3  2  0
  4  2  1  0
  4  5  1  0
  6  5  1  0
  7  8  1  0
  7  6  1  0
  8 10  1  0
  8  9  1  6
 10 11  2  0
 12 13  1  0
 13 23  2  0
 13 14  1  0
 14 15  2  0
 15 16  1  0
 16 17  1  0
 18 17  1  6
 19 18  1  0
 19 10  1  0
 20 21  2  0
 20 18  1  0
 22 16  2  0
 23 22  1  0
 24 20  1  0
 25 28  1  0
 25 24  1  0
 25 26  1  6
 27 26  1  0
 28 30  1  0
 29 28  2  0
M  END
$$$$
