RYC.pdb
     RDKit          3D

 30 30  0  0  1  0  0  0  0  0999 V2000
    8.7977  -15.0193   16.1354 N   0  0  0  0  0  0  0  0  0  0  0  0
    7.7610  -14.0523   16.4100 C   0  0  0  0  0  0  0  0  0  0  0  0
    7.9524  -12.8180   16.1030 N   0  0  0  0  0  0  0  0  0  0  0  0
    6.5403  -14.4258   17.0067 N   0  0  0  0  0  0  0  0  0  0  0  0
    6.5033  -15.1621   18.2512 C   0  0  0  0  0  0  0  0  0  0  0  0
    7.7440  -16.0434   18.2764 C   0  0  0  0  0  0  0  0  0  0  0  0
    8.4744  -15.8132   19.5541 C   0  0  0  0  0  0  0  0  0  0  0  0
    7.7815  -16.3336   20.7838 C   0  0  2  0  0  0  0  0  0  0  0  0
    6.3938  -15.9206   20.7899 N   0  0  0  0  0  0  0  0  0  0  0  0
    8.4590  -15.7406   21.9939 C   0  0  0  0  0  0  0  0  0  0  0  0
    8.5282  -14.4811   22.0496 O   0  0  0  0  0  0  0  0  0  0  0  0
    7.2925  -12.0435   16.2199 O   0  0  0  0  0  0  0  0  0  0  0  0
   11.1570  -14.2767   30.1960 C   0  0  0  0  0  0  0  0  0  0  0  0
   10.6170  -14.6778   28.9789 C   0  0  0  0  0  0  0  0  0  0  0  0
   10.2274  -13.7375   28.0422 C   0  0  0  0  0  0  0  0  0  0  0  0
    9.6959  -14.1346   26.8458 C   0  0  0  0  0  0  0  0  0  0  0  0
    9.5299  -15.4845   26.5310 C   0  0  0  0  0  0  0  0  0  0  0  0
    8.9063  -15.8606   25.2683 C   0  0  1  0  0  0  0  0  0  0  0  0
    9.7975  -15.8755   24.0860 N   0  0  0  0  0  0  0  0  0  0  0  0
    8.9908  -16.5441   23.0147 C   0  0  0  0  0  0  0  0  0  0  0  0
   11.0220  -16.6617   24.2757 O   0  0  0  0  0  0  0  0  0  0  0  0
   10.9873  -17.9534   24.1902 C   0  0  0  0  0  0  0  0  0  0  0  0
    9.9135  -16.4149   27.4519 C   0  0  0  0  0  0  0  0  0  0  0  0
   10.4454  -16.0084   28.6502 N   0  0  0  0  0  0  0  0  0  0  0  0
   12.3200  -16.1772   24.5478 C   0  0  2  0  0  0  0  0  0  0  0  0
   13.4767  -17.0377   24.6127 C   0  0  0  0  0  0  0  0  0  0  0  0
   14.6507  -16.4443   23.8406 S   0  0  0  0  0  0  0  0  0  0  0  0
   14.6925  -14.6793   24.2678 C   0  0  0  0  0  0  0  0  0  0  0  0
   13.9360  -17.1796   25.9891 O   0  0  0  0  0  0  0  0  0  0  0  0
   13.3512  -16.5551   26.9093 O   0  0  0  0  0  0  0  0  0  0  0  0
  1  2  1  0
  2  3  2  0
  4  2  1  0
  4  5  1  0
  6  5  1  0
  7  8  1  0
  7  6  1  0
  8 10  1  0
  8  9  1  6
 10 11  2  0
 12 13  1  0
 13 23  2  0
 13 14  1  0
 14 15  2  0
 15 16  1  0
 16 17  1  0
 18 17  1  6
 19 18  1  0
 19 10  1  0
 20 21  2  0
 20 18  1  0
 22 16  2  0
 23 22  1  0
 24 20  1  0
 25 28  1  0
 25 24  1  0
 25 26  1  6
 27 26  1  0
 28 30  1  0
 29 28  2  0
M  END
$$$$
