HGN.pdb
     RDKit          3D

 23 23  0  0  1  0  0  0  0  0999 V2000
    7.5771  -16.8488   21.3856 N   0  0  0  0  0  0  0  0  0  0  0  0
    8.3511  -17.0895   20.1954 C   0  0  1  0  0  0  0  0  0  0  0  0
    7.7709  -16.2484   19.0790 C   0  0  0  0  0  0  0  0  0  0  0  0
    7.7550  -14.8206   19.5346 C   0  0  0  0  0  0  0  0  0  0  0  0
    7.9127  -14.3309   20.8160 C   0  0  0  0  0  0  0  0  0  0  0  0
    7.8320  -12.9919   20.7870 N   0  0  0  0  0  0  0  0  0  0  0  0
    7.6256  -12.6099   19.5125 C   0  0  0  0  0  0  0  0  0  0  0  0
    7.5798  -13.7224   18.7584 N   0  0  0  0  0  0  0  0  0  0  0  0
    9.7636  -16.7850   20.4561 C   0  0  0  0  0  0  0  0  0  0  0  0
   10.6752  -17.0587   19.6013 O   0  0  0  0  0  0  0  0  0  0  0  0
   10.2301  -16.1739   21.6530 N   0  0  0  0  0  0  0  0  0  0  0  0
   11.5975  -15.8331   21.8870 C   0  0  0  0  0  0  0  0  0  0  0  0
   12.1823  -16.4899   23.0613 C   0  0  0  0  0  0  0  0  0  0  0  0
   13.3520  -16.2016   23.4126 O   0  0  0  0  0  0  0  0  0  0  0  0
   11.4476  -18.9506   28.1597 N   0  0  0  0  0  0  0  0  0  0  0  0
   11.3081  -19.5642   26.8903 C   0  0  0  0  0  0  0  0  0  0  0  0
   11.5820  -20.7813   26.7830 O   0  0  0  0  0  0  0  0  0  0  0  0
   10.8537  -18.8314   25.6866 C   0  0  0  0  0  0  0  0  0  0  0  0
   11.9722  -18.1089   24.9809 C   0  0  2  0  0  0  0  0  0  0  0  0
   11.4313  -17.4457   23.7967 N   0  0  0  0  0  0  0  0  0  0  0  0
   13.0882  -19.0205   24.6466 C   0  0  0  0  0  0  0  0  0  0  0  0
   14.0594  -19.1544   25.3922 O   0  0  0  0  0  0  0  0  0  0  0  0
   13.0244  -19.7332   23.4637 O   0  0  0  0  0  0  0  0  0  0  0  0
  2  1  1  1
  2  9  1  0
  2  3  1  0
  4  3  1  0
  5  4  2  0
  6  5  1  0
  7  6  1  0
  7  8  2  0
  8  4  1  0
  9 11  1  0
 10  9  2  0
 11 12  1  0
 12 13  1  0
 13 14  2  0
 13 20  1  0
 16 15  1  0
 17 16  2  0
 18 16  1  0
 19 21  1  0
 19 18  1  6
 20 19  1  0
 21 23  1  0
 22 21  2  0
M  END
$$$$
