HGN.pdb
     RDKit          3D

 23 23  0  0  1  0  0  0  0  0999 V2000
    7.9649  -14.7349   22.5336 N   0  0  0  0  0  0  0  0  0  0  0  0
    6.7943  -15.2112   21.8433 C   0  0  1  0  0  0  0  0  0  0  0  0
    7.1676  -15.4539   20.3969 C   0  0  0  0  0  0  0  0  0  0  0  0
    7.8863  -14.2389   19.8934 C   0  0  0  0  0  0  0  0  0  0  0  0
    7.6807  -12.9188   20.2425 C   0  0  0  0  0  0  0  0  0  0  0  0
    8.5382  -12.1455   19.5591 N   0  0  0  0  0  0  0  0  0  0  0  0
    9.2917  -12.9415   18.7771 C   0  0  0  0  0  0  0  0  0  0  0  0
    8.8919  -14.2088   18.9840 N   0  0  0  0  0  0  0  0  0  0  0  0
    6.2887  -16.4197   22.5064 C   0  0  0  0  0  0  0  0  0  0  0  0
    5.2024  -16.9826   22.1324 O   0  0  0  0  0  0  0  0  0  0  0  0
    6.9467  -17.0545   23.5962 N   0  0  0  0  0  0  0  0  0  0  0  0
    6.4042  -18.1672   24.3091 C   0  0  0  0  0  0  0  0  0  0  0  0
    7.3170  -18.7383   25.3056 C   0  0  0  0  0  0  0  0  0  0  0  0
    6.8842  -19.5790   26.1306 O   0  0  0  0  0  0  0  0  0  0  0  0
   11.9533  -20.4834   27.1234 N   0  0  0  0  0  0  0  0  0  0  0  0
   12.1620  -19.5027   26.1225 C   0  0  0  0  0  0  0  0  0  0  0  0
   13.3356  -19.2654   25.7558 O   0  0  0  0  0  0  0  0  0  0  0  0
   11.0560  -18.7468   25.4918 C   0  0  0  0  0  0  0  0  0  0  0  0
    9.7001  -19.1378   26.0206 C   0  0  2  0  0  0  0  0  0  0  0  0
    8.6813  -18.3436   25.3379 N   0  0  0  0  0  0  0  0  0  0  0  0
    9.6236  -18.9949   27.4909 C   0  0  0  0  0  0  0  0  0  0  0  0
    8.9631  -18.0999   28.0202 O   0  0  0  0  0  0  0  0  0  0  0  0
   10.3164  -19.8965   28.2771 O   0  0  0  0  0  0  0  0  0  0  0  0
  2  1  1  1
  2  9  1  0
  2  3  1  0
  4  3  1  0
  5  4  2  0
  6  5  1  0
  7  6  1  0
  7  8  2  0
  8  4  1  0
  9 11  1  0
 10  9  2  0
 11 12  1  0
 12 13  1  0
 13 14  2  0
 13 20  1  0
 16 15  1  0
 17 16  2  0
 18 16  1  0
 19 21  1  0
 19 18  1  6
 20 19  1  0
 21 23  1  0
 22 21  2  0
M  END
$$$$
