HGN.pdb
     RDKit          3D

 23 23  0  0  1  0  0  0  0  0999 V2000
    7.6553  -15.8721   19.2680 N   0  0  0  0  0  0  0  0  0  0  0  0
    8.0524  -14.4916   19.3694 C   0  0  1  0  0  0  0  0  0  0  0  0
    7.2545  -13.6973   18.3581 C   0  0  0  0  0  0  0  0  0  0  0  0
    7.7869  -14.0164   16.9938 C   0  0  0  0  0  0  0  0  0  0  0  0
    8.9687  -14.6500   16.6646 C   0  0  0  0  0  0  0  0  0  0  0  0
    9.0627  -14.7370   15.3290 N   0  0  0  0  0  0  0  0  0  0  0  0
    7.9649  -14.1721   14.7919 C   0  0  0  0  0  0  0  0  0  0  0  0
    7.1956  -13.7372   15.8056 N   0  0  0  0  0  0  0  0  0  0  0  0
    7.8492  -14.0201   20.7451 C   0  0  0  0  0  0  0  0  0  0  0  0
    8.6036  -13.1264   21.2636 O   0  0  0  0  0  0  0  0  0  0  0  0
    6.8207  -14.5043   21.6003 N   0  0  0  0  0  0  0  0  0  0  0  0
    6.6153  -14.0373   22.9346 C   0  0  0  0  0  0  0  0  0  0  0  0
    7.2413  -14.8767   23.9622 C   0  0  0  0  0  0  0  0  0  0  0  0
    7.0128  -14.6443   25.1740 O   0  0  0  0  0  0  0  0  0  0  0  0
    7.3035  -19.0554   26.6655 N   0  0  0  0  0  0  0  0  0  0  0  0
    7.0660  -18.5117   25.3790 C   0  0  0  0  0  0  0  0  0  0  0  0
    5.8838  -18.2744   25.0409 O   0  0  0  0  0  0  0  0  0  0  0  0
    8.1516  -18.2119   24.4177 C   0  0  0  0  0  0  0  0  0  0  0  0
    8.7156  -16.8241   24.5818 C   0  0  2  0  0  0  0  0  0  0  0  0
    8.1002  -15.9453   23.5900 N   0  0  0  0  0  0  0  0  0  0  0  0
   10.1919  -16.8184   24.4898 C   0  0  0  0  0  0  0  0  0  0  0  0
   10.7802  -16.2569   23.5647 O   0  0  0  0  0  0  0  0  0  0  0  0
   10.9156  -17.4642   25.4750 O   0  0  0  0  0  0  0  0  0  0  0  0
  2  1  1  1
  2  9  1  0
  2  3  1  0
  4  3  1  0
  5  4  2  0
  6  5  1  0
  7  6  1  0
  7  8  2  0
  8  4  1  0
  9 11  1  0
 10  9  2  0
 11 12  1  0
 12 13  1  0
 13 14  2  0
 13 20  1  0
 16 15  1  0
 17 16  2  0
 18 16  1  0
 19 21  1  0
 19 18  1  6
 20 19  1  0
 21 23  1  0
 22 21  2  0
M  END
$$$$
