HGN.pdb
     RDKit          3D

 23 23  0  0  1  0  0  0  0  0999 V2000
   10.1320  -16.8363   19.5045 N   0  0  0  0  0  0  0  0  0  0  0  0
    9.1261  -15.9939   20.0981 C   0  0  1  0  0  0  0  0  0  0  0  0
    7.9206  -15.9852   19.1833 C   0  0  0  0  0  0  0  0  0  0  0  0
    7.9145  -14.6856   18.4367 C   0  0  0  0  0  0  0  0  0  0  0  0
    8.8574  -13.6774   18.4690 C   0  0  0  0  0  0  0  0  0  0  0  0
    8.4688  -12.6868   17.6516 N   0  0  0  0  0  0  0  0  0  0  0  0
    7.2947  -13.0374   17.0937 C   0  0  0  0  0  0  0  0  0  0  0  0
    6.9639  -14.2495   17.5733 N   0  0  0  0  0  0  0  0  0  0  0  0
    8.8085  -16.4807   21.4464 C   0  0  0  0  0  0  0  0  0  0  0  0
    8.4959  -17.7028   21.6594 O   0  0  0  0  0  0  0  0  0  0  0  0
    8.8203  -15.6557   22.6052 N   0  0  0  0  0  0  0  0  0  0  0  0
    8.4239  -16.1059   23.9017 C   0  0  0  0  0  0  0  0  0  0  0  0
    9.5224  -16.1681   24.8721 C   0  0  0  0  0  0  0  0  0  0  0  0
   10.6998  -15.9675   24.4870 O   0  0  0  0  0  0  0  0  0  0  0  0
   11.8992  -15.2401   29.4066 N   0  0  0  0  0  0  0  0  0  0  0  0
   10.6552  -14.6001   29.1828 C   0  0  0  0  0  0  0  0  0  0  0  0
   10.3604  -13.6071   29.8864 O   0  0  0  0  0  0  0  0  0  0  0  0
    9.6894  -15.0524   28.1556 C   0  0  0  0  0  0  0  0  0  0  0  0
   10.2276  -16.1634   27.2914 C   0  0  2  0  0  0  0  0  0  0  0  0
    9.2571  -16.4533   26.2383 N   0  0  0  0  0  0  0  0  0  0  0  0
   10.5595  -17.3651   28.0876 C   0  0  0  0  0  0  0  0  0  0  0  0
    9.7726  -18.3065   28.1965 O   0  0  0  0  0  0  0  0  0  0  0  0
   11.7880  -17.4177   28.7196 O   0  0  0  0  0  0  0  0  0  0  0  0
  2  1  1  6
  2  9  1  0
  2  3  1  0
  4  3  1  0
  5  4  2  0
  6  5  1  0
  7  6  1  0
  7  8  2  0
  8  4  1  0
  9 11  1  0
 10  9  2  0
 11 12  1  0
 12 13  1  0
 13 14  2  0
 13 20  1  0
 16 15  1  0
 17 16  2  0
 18 16  1  0
 19 21  1  0
 19 18  1  1
 20 19  1  0
 21 23  1  0
 22 21  2  0
M  END
$$$$
