HGN.pdb
     RDKit          3D

 23 23  0  0  1  0  0  0  0  0999 V2000
   13.0324  -20.1556   24.1835 N   0  0  0  0  0  0  0  0  0  0  0  0
   11.8467  -20.9065   23.8609 C   0  0  1  0  0  0  0  0  0  0  0  0
   12.2394  -22.0232   22.9180 C   0  0  0  0  0  0  0  0  0  0  0  0
   12.8123  -21.4039   21.6792 C   0  0  0  0  0  0  0  0  0  0  0  0
   12.1903  -20.5619   20.7788 C   0  0  0  0  0  0  0  0  0  0  0  0
   13.0595  -20.2361   19.8100 N   0  0  0  0  0  0  0  0  0  0  0  0
   14.2287  -20.8515   20.0689 C   0  0  0  0  0  0  0  0  0  0  0  0
   14.0727  -21.5576   21.2027 N   0  0  0  0  0  0  0  0  0  0  0  0
   11.2260  -21.4022   25.0958 C   0  0  0  0  0  0  0  0  0  0  0  0
   10.1320  -22.0650   25.0746 O   0  0  0  0  0  0  0  0  0  0  0  0
   11.7740  -21.1937   26.3920 N   0  0  0  0  0  0  0  0  0  0  0  0
   11.2087  -21.7351   27.5870 C   0  0  0  0  0  0  0  0  0  0  0  0
   12.0141  -21.4936   28.7892 C   0  0  0  0  0  0  0  0  0  0  0  0
   12.3614  -20.3222   29.0758 O   0  0  0  0  0  0  0  0  0  0  0  0
    9.8030  -23.1236   31.7714 N   0  0  0  0  0  0  0  0  0  0  0  0
   10.9902  -22.4809   32.2011 C   0  0  0  0  0  0  0  0  0  0  0  0
   10.8929  -21.3781   32.7864 O   0  0  0  0  0  0  0  0  0  0  0  0
   12.3389  -23.0540   31.9892 C   0  0  0  0  0  0  0  0  0  0  0  0
   13.1032  -22.3671   30.8870 C   0  0  2  0  0  0  0  0  0  0  0  0
   12.3990  -22.5766   29.6241 N   0  0  0  0  0  0  0  0  0  0  0  0
   14.5072  -22.8286   30.8239 C   0  0  0  0  0  0  0  0  0  0  0  0
   14.9204  -23.5168   29.8896 O   0  0  0  0  0  0  0  0  0  0  0  0
   15.3648  -22.4701   31.8472 O   0  0  0  0  0  0  0  0  0  0  0  0
  2  1  1  1
  2  9  1  0
  2  3  1  0
  4  3  1  0
  5  4  2  0
  6  5  1  0
  7  6  1  0
  7  8  2  0
  8  4  1  0
  9 11  1  0
 10  9  2  0
 11 12  1  0
 12 13  1  0
 13 14  2  0
 13 20  1  0
 16 15  1  0
 17 16  2  0
 18 16  1  0
 19 21  1  0
 19 18  1  1
 20 19  1  0
 21 23  1  0
 22 21  2  0
M  END
$$$$
