HGN.pdb
     RDKit          3D

 23 23  0  0  1  0  0  0  0  0999 V2000
    6.0762  -15.9490   20.5757 N   0  0  0  0  0  0  0  0  0  0  0  0
    7.3803  -15.8491   21.1782 C   0  0  1  0  0  0  0  0  0  0  0  0
    7.7996  -14.3952   21.1534 C   0  0  0  0  0  0  0  0  0  0  0  0
    7.8839  -13.9614   19.7213 C   0  0  0  0  0  0  0  0  0  0  0  0
    7.2902  -12.8673   19.1237 C   0  0  0  0  0  0  0  0  0  0  0  0
    7.6219  -12.8434   17.8238 N   0  0  0  0  0  0  0  0  0  0  0  0
    8.4173  -13.9004   17.5727 C   0  0  0  0  0  0  0  0  0  0  0  0
    8.5724  -14.5740   18.7263 N   0  0  0  0  0  0  0  0  0  0  0  0
    7.3386  -16.4017   22.5380 C   0  0  0  0  0  0  0  0  0  0  0  0
    6.5167  -15.9609   23.4136 O   0  0  0  0  0  0  0  0  0  0  0  0
    8.1879  -17.4499   22.9890 N   0  0  0  0  0  0  0  0  0  0  0  0
    8.3229  -17.8246   24.3609 C   0  0  0  0  0  0  0  0  0  0  0  0
    9.2455  -16.9751   25.1221 C   0  0  0  0  0  0  0  0  0  0  0  0
    9.6908  -15.9239   24.6011 O   0  0  0  0  0  0  0  0  0  0  0  0
   11.2780  -14.2537   28.9382 N   0  0  0  0  0  0  0  0  0  0  0  0
    9.9795  -14.1478   28.3815 C   0  0  0  0  0  0  0  0  0  0  0  0
    9.3096  -13.1176   28.6226 O   0  0  0  0  0  0  0  0  0  0  0  0
    9.3800  -15.1994   27.5287 C   0  0  0  0  0  0  0  0  0  0  0  0
   10.2828  -16.3916   27.3433 C   0  0  2  0  0  0  0  0  0  0  0  0
    9.6332  -17.3384   26.4397 N   0  0  0  0  0  0  0  0  0  0  0  0
   10.6411  -17.0138   28.6366 C   0  0  0  0  0  0  0  0  0  0  0  0
    9.9787  -17.9345   29.1169 O   0  0  0  0  0  0  0  0  0  0  0  0
   11.7504  -16.5386   29.3110 O   0  0  0  0  0  0  0  0  0  0  0  0
  2  1  1  1
  2  9  1  0
  2  3  1  0
  4  3  1  0
  5  4  2  0
  6  5  1  0
  7  6  1  0
  7  8  2  0
  8  4  1  0
  9 11  1  0
 10  9  2  0
 11 12  1  0
 12 13  1  0
 13 14  2  0
 13 20  1  0
 16 15  1  0
 17 16  2  0
 18 16  1  0
 19 21  1  0
 19 18  1  1
 20 19  1  0
 21 23  1  0
 22 21  2  0
M  END
$$$$
