HGN.pdb
     RDKit          3D

 23 23  0  0  1  0  0  0  0  0999 V2000
    9.9489  -14.8750   16.1621 N   0  0  0  0  0  0  0  0  0  0  0  0
   10.9236  -15.9349   16.1761 C   0  0  1  0  0  0  0  0  0  0  0  0
   11.2302  -16.3108   14.7426 C   0  0  0  0  0  0  0  0  0  0  0  0
    9.9991  -16.0621   13.9247 C   0  0  0  0  0  0  0  0  0  0  0  0
    8.7230  -15.7746   14.3672 C   0  0  0  0  0  0  0  0  0  0  0  0
    7.9147  -15.6230   13.3071 N   0  0  0  0  0  0  0  0  0  0  0  0
    8.6449  -15.8072   12.1910 C   0  0  0  0  0  0  0  0  0  0  0  0
    9.9070  -16.0730   12.5717 N   0  0  0  0  0  0  0  0  0  0  0  0
   12.1162  -15.4981   16.9128 C   0  0  0  0  0  0  0  0  0  0  0  0
   13.1595  -16.2341   16.9924 O   0  0  0  0  0  0  0  0  0  0  0  0
   12.2130  -14.2486   17.5859 N   0  0  0  0  0  0  0  0  0  0  0  0
   13.3939  -13.7968   18.2508 C   0  0  0  0  0  0  0  0  0  0  0  0
   13.5463  -14.3180   19.6137 C   0  0  0  0  0  0  0  0  0  0  0  0
   14.5471  -13.9865   20.2942 O   0  0  0  0  0  0  0  0  0  0  0  0
   10.4576  -15.9708   24.5353 N   0  0  0  0  0  0  0  0  0  0  0  0
   11.6163  -15.8008   23.7379 C   0  0  0  0  0  0  0  0  0  0  0  0
   12.7259  -16.1189   24.2232 O   0  0  0  0  0  0  0  0  0  0  0  0
   11.5737  -15.2645   22.3584 C   0  0  0  0  0  0  0  0  0  0  0  0
   12.7054  -15.7645   21.4981 C   0  0  2  0  0  0  0  0  0  0  0  0
   12.5689  -15.1919   20.1608 N   0  0  0  0  0  0  0  0  0  0  0  0
   12.7584  -17.2424   21.4673 C   0  0  0  0  0  0  0  0  0  0  0  0
   13.1982  -17.8938   22.4158 O   0  0  0  0  0  0  0  0  0  0  0  0
   12.2989  -17.8944   20.3381 O   0  0  0  0  0  0  0  0  0  0  0  0
  2  1  1  6
  2  9  1  0
  2  3  1  0
  4  3  1  0
  5  4  2  0
  6  5  1  0
  7  6  1  0
  7  8  2  0
  8  4  1  0
  9 11  1  0
 10  9  2  0
 11 12  1  0
 12 13  1  0
 13 14  2  0
 13 20  1  0
 16 15  1  0
 17 16  2  0
 18 16  1  0
 19 21  1  0
 19 18  1  1
 20 19  1  0
 21 23  1  0
 22 21  2  0
M  END
$$$$
