LPE.pdb
     RDKit          3D

 25 25  0  0  1  0  0  0  0  0999 V2000
   22.9667   -6.2931  -12.6802 C   0  0  0  0  0  0  0  0  0  0  0  0
   22.5973   -5.8100  -14.0472 C   0  0  2  0  0  0  0  0  0  0  0  0
   22.2250   -4.3446  -14.0644 C   0  0  0  0  0  0  0  0  0  0  0  0
   21.5512   -6.6872  -14.6993 C   0  0  0  0  0  0  0  0  0  0  0  0
   22.2821   -7.5713  -15.6932 C   0  0  2  0  0  0  0  0  0  0  0  0
   22.7734   -6.6850  -16.7408 N   0  0  0  0  0  0  0  0  0  0  0  0
   21.4030   -8.5851  -16.2960 C   0  0  0  0  0  0  0  0  0  0  0  0
   20.7466   -8.2930  -17.3472 O   0  0  0  0  0  0  0  0  0  0  0  0
   21.2785   -9.8802  -15.7207 N   0  0  0  0  0  0  0  0  0  0  0  0
   21.9199  -10.3183  -14.5063 C   0  0  0  0  0  0  0  0  0  0  0  0
   22.2270  -11.7950  -14.7862 C   0  0  0  0  0  0  0  0  0  0  0  0
   21.3840  -12.1703  -15.9632 C   0  0  0  0  0  0  0  0  0  0  0  0
   20.5009  -11.0004  -16.2041 C   0  0  1  0  0  0  0  0  0  0  0  0
   19.2172  -11.0238  -15.4630 C   0  0  0  0  0  0  0  0  0  0  0  0
   19.2130  -10.7857  -14.2425 O   0  0  0  0  0  0  0  0  0  0  0  0
   18.0345  -11.3120  -16.1486 N   0  0  0  0  0  0  0  0  0  0  0  0
   16.7583  -11.3220  -15.4172 C   0  0  1  0  0  0  0  0  0  0  0  0
   16.0035  -10.1471  -15.9789 C   0  0  0  0  0  0  0  0  0  0  0  0
   16.1106   -9.8907  -17.4360 C   0  0  0  0  0  0  0  0  0  0  0  0
   15.2469   -8.7976  -17.8799 C   0  0  0  0  0  0  0  0  0  0  0  0
   14.5675   -8.1648  -17.0087 O   0  0  0  0  0  0  0  0  0  0  0  0
   16.0480  -12.5734  -15.4761 C   0  0  0  0  0  0  0  0  0  0  0  0
   16.5122  -13.5267  -16.1914 O   0  0  0  0  0  0  0  0  0  0  0  0
   15.1445   -8.4336  -19.1945 O   0  0  0  0  0  0  0  0  0  0  0  0
   14.8677  -12.8697  -14.8023 O   0  0  0  0  0  0  0  0  0  0  0  0
  2  1  1  1
  3  2  1  0
  4  2  1  0
  4  5  1  0
  5  6  1  6
  7  5  1  0
  7  8  2  0
  9  7  1  0
 10  9  1  0
 11 12  1  0
 11 10  1  0
 12 13  1  0
 13  9  1  0
 13 14  1  1
 14 16  1  0
 15 14  2  0
 17 16  1  0
 17 22  1  0
 17 18  1  6
 19 18  1  0
 20 19  1  0
 21 20  2  0
 22 23  2  0
 22 25  1  0
 24 20  1  0
M  END
$$$$
