LPE.pdb
     RDKit          3D

 25 25  0  0  1  0  0  0  0  0999 V2000
   22.5664  -12.6582  -19.3855 C   0  0  0  0  0  0  0  0  0  0  0  0
   21.3896  -11.7870  -19.6931 C   0  0  2  0  0  0  0  0  0  0  0  0
   21.4996  -11.1180  -21.0446 C   0  0  0  0  0  0  0  0  0  0  0  0
   21.0972  -10.8076  -18.5775 C   0  0  0  0  0  0  0  0  0  0  0  0
   20.6810  -11.6313  -17.3726 C   0  0  2  0  0  0  0  0  0  0  0  0
   19.4385  -12.2964  -17.7447 N   0  0  0  0  0  0  0  0  0  0  0  0
   20.4430  -10.8027  -16.1806 C   0  0  0  0  0  0  0  0  0  0  0  0
   19.2550  -10.4369  -15.9048 O   0  0  0  0  0  0  0  0  0  0  0  0
   21.5190  -10.4077  -15.3380 N   0  0  0  0  0  0  0  0  0  0  0  0
   22.8980  -10.7899  -15.5121 C   0  0  0  0  0  0  0  0  0  0  0  0
   23.4096  -10.9189  -14.0717 C   0  0  0  0  0  0  0  0  0  0  0  0
   22.4028  -10.2164  -13.2174 C   0  0  0  0  0  0  0  0  0  0  0  0
   21.4708   -9.5578  -14.1682 C   0  0  1  0  0  0  0  0  0  0  0  0
   21.8617   -8.1877  -14.5782 C   0  0  0  0  0  0  0  0  0  0  0  0
   22.6620   -8.0372  -15.5179 O   0  0  0  0  0  0  0  0  0  0  0  0
   21.3238   -7.0897  -13.9023 N   0  0  0  0  0  0  0  0  0  0  0  0
   21.6071   -5.7308  -14.3888 C   0  0  1  0  0  0  0  0  0  0  0  0
   20.2516   -5.1724  -14.7299 C   0  0  0  0  0  0  0  0  0  0  0  0
   20.1856   -3.7764  -15.2271 C   0  0  0  0  0  0  0  0  0  0  0  0
   18.8315   -3.3789  -15.6098 C   0  0  0  0  0  0  0  0  0  0  0  0
   17.8920   -4.2314  -15.5011 O   0  0  0  0  0  0  0  0  0  0  0  0
   22.3767   -4.9213  -13.4796 C   0  0  0  0  0  0  0  0  0  0  0  0
   22.3508   -5.1838  -12.2282 O   0  0  0  0  0  0  0  0  0  0  0  0
   18.5413   -2.1272  -16.0790 O   0  0  0  0  0  0  0  0  0  0  0  0
   23.1852   -3.8465  -13.8347 O   0  0  0  0  0  0  0  0  0  0  0  0
  2  1  1  1
  3  2  1  0
  4  2  1  0
  4  5  1  0
  5  6  1  6
  7  5  1  0
  7  8  2  0
  9  7  1  0
 10  9  1  0
 11 12  1  0
 11 10  1  0
 12 13  1  0
 13  9  1  0
 13 14  1  6
 14 16  1  0
 15 14  2  0
 17 16  1  0
 17 22  1  0
 17 18  1  1
 19 18  1  0
 20 19  1  0
 21 20  2  0
 22 23  2  0
 22 25  1  0
 24 20  1  0
M  END
$$$$
