LPE.pdb
     RDKit          3D

 25 25  0  0  1  0  0  0  0  0999 V2000
   22.4698  -13.1746  -21.0107 C   0  0  0  0  0  0  0  0  0  0  0  0
   21.1383  -12.5358  -20.7710 C   0  0  2  0  0  0  0  0  0  0  0  0
   20.5691  -11.8944  -22.0164 C   0  0  0  0  0  0  0  0  0  0  0  0
   21.1615  -11.5947  -19.5865 C   0  0  0  0  0  0  0  0  0  0  0  0
   21.4356  -12.4452  -18.3597 C   0  0  2  0  0  0  0  0  0  0  0  0
   20.3240  -13.3825  -18.2585 N   0  0  0  0  0  0  0  0  0  0  0  0
   21.5032  -11.6466  -17.1261 C   0  0  0  0  0  0  0  0  0  0  0  0
   20.4423  -11.4603  -16.4471 O   0  0  0  0  0  0  0  0  0  0  0  0
   22.7333  -11.0833  -16.6862 N   0  0  0  0  0  0  0  0  0  0  0  0
   23.9992  -11.2129  -17.3635 C   0  0  0  0  0  0  0  0  0  0  0  0
   25.0082  -11.2756  -16.2098 C   0  0  0  0  0  0  0  0  0  0  0  0
   24.2785  -10.7773  -15.0031 C   0  0  0  0  0  0  0  0  0  0  0  0
   22.9753  -10.2764  -15.5100 C   0  0  1  0  0  0  0  0  0  0  0  0
   22.9704   -8.8517  -15.9200 C   0  0  0  0  0  0  0  0  0  0  0  0
   23.0132   -8.5648  -17.1291 O   0  0  0  0  0  0  0  0  0  0  0  0
   22.9173   -7.8564  -14.9411 N   0  0  0  0  0  0  0  0  0  0  0  0
   22.3034   -6.5586  -15.2613 C   0  0  1  0  0  0  0  0  0  0  0  0
   20.9178   -6.9130  -15.7302 C   0  0  0  0  0  0  0  0  0  0  0  0
   19.9657   -5.8016  -15.9719 C   0  0  0  0  0  0  0  0  0  0  0  0
   18.6397   -6.2729  -16.3690 C   0  0  0  0  0  0  0  0  0  0  0  0
   17.6661   -6.1019  -15.5665 O   0  0  0  0  0  0  0  0  0  0  0  0
   22.3453   -5.5992  -14.1880 C   0  0  0  0  0  0  0  0  0  0  0  0
   22.5374   -4.3636  -14.4566 O   0  0  0  0  0  0  0  0  0  0  0  0
   18.4110   -6.8889  -17.5687 O   0  0  0  0  0  0  0  0  0  0  0  0
   22.1829   -5.8851  -12.8364 O   0  0  0  0  0  0  0  0  0  0  0  0
  2  1  1  6
  3  2  1  0
  4  2  1  0
  4  5  1  0
  5  6  1  1
  7  5  1  0
  7  8  2  0
  9  7  1  0
 10  9  1  0
 11 12  1  0
 11 10  1  0
 12 13  1  0
 13  9  1  0
 13 14  1  6
 14 16  1  0
 15 14  2  0
 17 16  1  0
 17 22  1  0
 17 18  1  1
 19 18  1  0
 20 19  1  0
 21 20  2  0
 22 23  2  0
 22 25  1  0
 24 20  1  0
M  END
$$$$
