LPE.pdb
     RDKit          3D

 25 25  0  0  1  0  0  0  0  0999 V2000
   21.7583  -12.4850  -19.7346 C   0  0  0  0  0  0  0  0  0  0  0  0
   20.5496  -11.6214  -19.9127 C   0  0  2  0  0  0  0  0  0  0  0  0
   20.5002  -10.9650  -21.2740 C   0  0  0  0  0  0  0  0  0  0  0  0
   20.3825  -10.6325  -18.7799 C   0  0  0  0  0  0  0  0  0  0  0  0
   20.2152  -11.4479  -17.5108 C   0  0  2  0  0  0  0  0  0  0  0  0
   18.9326  -12.1296  -17.6320 N   0  0  0  0  0  0  0  0  0  0  0  0
   20.2003  -10.6095  -16.3021 C   0  0  0  0  0  0  0  0  0  0  0  0
   19.0831  -10.2459  -15.8115 O   0  0  0  0  0  0  0  0  0  0  0  0
   21.4130  -10.2029  -15.6794 N   0  0  0  0  0  0  0  0  0  0  0  0
   22.7383  -10.4789  -16.1750 C   0  0  0  0  0  0  0  0  0  0  0  0
   23.5577  -10.6730  -14.8928 C   0  0  0  0  0  0  0  0  0  0  0  0
   22.7275  -10.1004  -13.7883 C   0  0  0  0  0  0  0  0  0  0  0  0
   21.5786   -9.4412  -14.4605 C   0  0  1  0  0  0  0  0  0  0  0  0
   21.8012   -8.0230  -14.8305 C   0  0  0  0  0  0  0  0  0  0  0  0
   22.4200   -7.7550  -15.8752 O   0  0  0  0  0  0  0  0  0  0  0  0
   21.3113   -7.0124  -13.9996 N   0  0  0  0  0  0  0  0  0  0  0  0
   21.4258   -5.6084  -14.4232 C   0  0  1  0  0  0  0  0  0  0  0  0
   20.0313   -5.0632  -14.2701 C   0  0  0  0  0  0  0  0  0  0  0  0
   19.8152   -3.6266  -14.5695 C   0  0  0  0  0  0  0  0  0  0  0  0
   18.4030   -3.2496  -14.5292 C   0  0  0  0  0  0  0  0  0  0  0  0
   17.5394   -4.1475  -14.2661 O   0  0  0  0  0  0  0  0  0  0  0  0
   22.4414   -4.8583  -13.7302 C   0  0  0  0  0  0  0  0  0  0  0  0
   22.6939   -5.1251  -12.5051 O   0  0  0  0  0  0  0  0  0  0  0  0
   17.9801   -1.9700  -14.7638 O   0  0  0  0  0  0  0  0  0  0  0  0
   23.2142   -3.8396  -14.2778 O   0  0  0  0  0  0  0  0  0  0  0  0
  2  1  1  1
  3  2  1  0
  4  2  1  0
  4  5  1  0
  5  6  1  6
  7  5  1  0
  7  8  2  0
  9  7  1  0
 10  9  1  0
 11 12  1  0
 11 10  1  0
 12 13  1  0
 13  9  1  0
 13 14  1  6
 14 16  1  0
 15 14  2  0
 17 16  1  0
 17 22  1  0
 17 18  1  1
 19 18  1  0
 20 19  1  0
 21 20  2  0
 22 23  2  0
 22 25  1  0
 24 20  1  0
M  END
$$$$
