LPE.pdb
     RDKit          3D

 25 25  0  0  1  0  0  0  0  0999 V2000
   27.9662  -18.9067  -13.3593 C   0  0  0  0  0  0  0  0  0  0  0  0
   26.5411  -19.3396  -13.5016 C   0  0  2  0  0  0  0  0  0  0  0  0
   25.7038  -18.3395  -14.2665 C   0  0  0  0  0  0  0  0  0  0  0  0
   25.9258  -19.7238  -12.1738 C   0  0  0  0  0  0  0  0  0  0  0  0
   26.7468  -20.8794  -11.6314 C   0  0  2  0  0  0  0  0  0  0  0  0
   26.7468  -21.9011  -12.6709 N   0  0  0  0  0  0  0  0  0  0  0  0
   26.1736  -21.4471  -10.4012 C   0  0  0  0  0  0  0  0  0  0  0  0
   25.5155  -22.5351  -10.4664 O   0  0  0  0  0  0  0  0  0  0  0  0
   26.3454  -20.7976   -9.1472 N   0  0  0  0  0  0  0  0  0  0  0  0
   27.0305  -19.5458   -8.9434 C   0  0  0  0  0  0  0  0  0  0  0  0
   27.6945  -19.7297   -7.5729 C   0  0  0  0  0  0  0  0  0  0  0  0
   27.0088  -20.8995   -6.9417 C   0  0  0  0  0  0  0  0  0  0  0  0
   25.8786  -21.2290   -7.8475 C   0  0  1  0  0  0  0  0  0  0  0  0
   24.6132  -20.5151   -7.5525 C   0  0  0  0  0  0  0  0  0  0  0  0
   24.2982  -19.5246   -8.2350 O   0  0  0  0  0  0  0  0  0  0  0  0
   23.7965  -20.9678   -6.5134 N   0  0  0  0  0  0  0  0  0  0  0  0
   22.3346  -20.8818   -6.6522 C   0  0  1  0  0  0  0  0  0  0  0  0
   22.0223  -21.7815   -7.8177 C   0  0  0  0  0  0  0  0  0  0  0  0
   20.6066  -21.8883   -8.2472 C   0  0  0  0  0  0  0  0  0  0  0  0
   20.0393  -23.2114   -7.9913 C   0  0  0  0  0  0  0  0  0  0  0  0
   20.8189  -24.2181   -7.9838 O   0  0  0  0  0  0  0  0  0  0  0  0
   21.6034  -21.1850   -5.4490 C   0  0  0  0  0  0  0  0  0  0  0  0
   21.9879  -22.1531   -4.7069 O   0  0  0  0  0  0  0  0  0  0  0  0
   18.7047  -23.4034   -7.7608 O   0  0  0  0  0  0  0  0  0  0  0  0
   20.4835  -20.5024   -4.9856 O   0  0  0  0  0  0  0  0  0  0  0  0
  2  1  1  1
  3  2  1  0
  4  2  1  0
  4  5  1  0
  5  6  1  6
  7  5  1  0
  7  8  2  0
  9  7  1  0
 10  9  1  0
 11 12  1  0
 11 10  1  0
 12 13  1  0
 13  9  1  0
 13 14  1  1
 14 16  1  0
 15 14  2  0
 17 16  1  0
 17 22  1  0
 17 18  1  6
 19 18  1  0
 20 19  1  0
 21 20  2  0
 22 23  2  0
 22 25  1  0
 24 20  1  0
M  END
$$$$
