LPE.pdb
     RDKit          3D

 25 25  0  0  1  0  0  0  0  0999 V2000
   18.1546  -11.7374  -20.4140 C   0  0  0  0  0  0  0  0  0  0  0  0
   19.5074  -11.7520  -19.7751 C   0  0  2  0  0  0  0  0  0  0  0  0
   20.0456  -13.1524  -19.5866 C   0  0  0  0  0  0  0  0  0  0  0  0
   19.5469  -10.9338  -18.5031 C   0  0  0  0  0  0  0  0  0  0  0  0
   20.0636  -11.8518  -17.4105 C   0  0  2  0  0  0  0  0  0  0  0  0
   18.9824  -12.7845  -17.1183 N   0  0  0  0  0  0  0  0  0  0  0  0
   20.4124  -11.1219  -16.1817 C   0  0  0  0  0  0  0  0  0  0  0  0
   19.5239  -10.9530  -15.2855 O   0  0  0  0  0  0  0  0  0  0  0  0
   21.7234  -10.6058  -15.9851 N   0  0  0  0  0  0  0  0  0  0  0  0
   22.8364  -10.7927  -16.8820 C   0  0  0  0  0  0  0  0  0  0  0  0
   24.0380  -10.8871  -15.9332 C   0  0  0  0  0  0  0  0  0  0  0  0
   23.5638  -10.3493  -14.6206 C   0  0  0  0  0  0  0  0  0  0  0  0
   22.2096   -9.7998  -14.8864 C   0  0  1  0  0  0  0  0  0  0  0  0
   22.1842   -8.3795  -15.3108 C   0  0  0  0  0  0  0  0  0  0  0  0
   21.9736   -8.1033  -16.5048 O   0  0  0  0  0  0  0  0  0  0  0  0
   22.3965   -7.3762  -14.3621 N   0  0  0  0  0  0  0  0  0  0  0  0
   21.9815   -5.9973  -14.6620 C   0  0  1  0  0  0  0  0  0  0  0  0
   20.5175   -6.1171  -14.9903 C   0  0  0  0  0  0  0  0  0  0  0  0
   19.7518   -4.8637  -15.1973 C   0  0  0  0  0  0  0  0  0  0  0  0
   18.3515   -5.1096  -15.5386 C   0  0  0  0  0  0  0  0  0  0  0  0
   17.4655   -4.9370  -14.6405 O   0  0  0  0  0  0  0  0  0  0  0  0
   22.2868   -5.0449  -13.6257 C   0  0  0  0  0  0  0  0  0  0  0  0
   22.5600   -3.8364  -13.9432 O   0  0  0  0  0  0  0  0  0  0  0  0
   17.9627   -5.5172  -16.7851 O   0  0  0  0  0  0  0  0  0  0  0  0
   22.3075   -5.3094  -12.2602 O   0  0  0  0  0  0  0  0  0  0  0  0
  2  1  1  1
  3  2  1  0
  4  2  1  0
  4  5  1  0
  5  6  1  1
  7  5  1  0
  7  8  2  0
  9  7  1  0
 10  9  1  0
 11 12  1  0
 11 10  1  0
 12 13  1  0
 13  9  1  0
 13 14  1  6
 14 16  1  0
 15 14  2  0
 17 16  1  0
 17 22  1  0
 17 18  1  1
 19 18  1  0
 20 19  1  0
 21 20  2  0
 22 23  2  0
 22 25  1  0
 24 20  1  0
M  END
$$$$
