LPE.pdb
     RDKit          3D

 25 25  0  0  1  0  0  0  0  0999 V2000
   20.9051  -12.5089  -20.0970 C   0  0  0  0  0  0  0  0  0  0  0  0
   19.6901  -11.6573  -19.9051 C   0  0  2  0  0  0  0  0  0  0  0  0
   19.2865  -10.9282  -21.1668 C   0  0  0  0  0  0  0  0  0  0  0  0
   19.8219  -10.7349  -18.7131 C   0  0  0  0  0  0  0  0  0  0  0  0
   20.0377  -11.6200  -17.4991 C   0  0  2  0  0  0  0  0  0  0  0  0
   18.7900  -12.3464  -17.2989 N   0  0  0  0  0  0  0  0  0  0  0  0
   20.3416  -10.8454  -16.2859 C   0  0  0  0  0  0  0  0  0  0  0  0
   19.3876  -10.4820  -15.5251 O   0  0  0  0  0  0  0  0  0  0  0  0
   21.6815  -10.4999  -15.9556 N   0  0  0  0  0  0  0  0  0  0  0  0
   22.8454  -10.8314  -16.7389 C   0  0  0  0  0  0  0  0  0  0  0  0
   23.9246  -11.0739  -15.6761 C   0  0  0  0  0  0  0  0  0  0  0  0
   23.3942  -10.4741  -14.4128 C   0  0  0  0  0  0  0  0  0  0  0  0
   22.1545   -9.7575  -14.8075 C   0  0  1  0  0  0  0  0  0  0  0  0
   22.3526   -8.3475  -15.2206 C   0  0  0  0  0  0  0  0  0  0  0  0
   22.5321   -8.0835  -16.4224 O   0  0  0  0  0  0  0  0  0  0  0  0
   22.3336   -7.3401  -14.2529 N   0  0  0  0  0  0  0  0  0  0  0  0
   22.2175   -5.9352  -14.6732 C   0  0  1  0  0  0  0  0  0  0  0  0
   20.9170   -5.8838  -15.4291 C   0  0  0  0  0  0  0  0  0  0  0  0
   19.6598   -5.9492  -14.6447 C   0  0  0  0  0  0  0  0  0  0  0  0
   18.4672   -5.8303  -15.4823 C   0  0  0  0  0  0  0  0  0  0  0  0
   18.4098   -4.8828  -16.3308 O   0  0  0  0  0  0  0  0  0  0  0  0
   22.3238   -4.9817  -13.5991 C   0  0  0  0  0  0  0  0  0  0  0  0
   22.4939   -3.7438  -13.8720 O   0  0  0  0  0  0  0  0  0  0  0  0
   17.4152   -6.6993  -15.3852 O   0  0  0  0  0  0  0  0  0  0  0  0
   22.2486   -5.2760  -12.2417 O   0  0  0  0  0  0  0  0  0  0  0  0
  2  1  1  6
  3  2  1  0
  4  2  1  0
  4  5  1  0
  5  6  1  1
  7  5  1  0
  7  8  2  0
  9  7  1  0
 10  9  1  0
 11 12  1  0
 11 10  1  0
 12 13  1  0
 13  9  1  0
 13 14  1  6
 14 16  1  0
 15 14  2  0
 17 16  1  0
 17 22  1  0
 17 18  1  1
 19 18  1  0
 20 19  1  0
 21 20  2  0
 22 23  2  0
 22 25  1  0
 24 20  1  0
M  END
$$$$
