LPE.pdb
     RDKit          3D

 25 25  0  0  1  0  0  0  0  0999 V2000
   22.7145  -13.3759  -14.9983 C   0  0  0  0  0  0  0  0  0  0  0  0
   23.4774  -12.2611  -15.6415 C   0  0  2  0  0  0  0  0  0  0  0  0
   24.8282  -12.0360  -15.0004 C   0  0  0  0  0  0  0  0  0  0  0  0
   22.6588  -10.9928  -15.7421 C   0  0  0  0  0  0  0  0  0  0  0  0
   21.7021  -11.1828  -16.9049 C   0  0  2  0  0  0  0  0  0  0  0  0
   22.5320  -11.4237  -18.0787 N   0  0  0  0  0  0  0  0  0  0  0  0
   20.8658   -9.9964  -17.1443 C   0  0  0  0  0  0  0  0  0  0  0  0
   21.2850   -9.0893  -17.9333 O   0  0  0  0  0  0  0  0  0  0  0  0
   19.6020   -9.8522  -16.5075 N   0  0  0  0  0  0  0  0  0  0  0  0
   19.0111  -10.8053  -15.6016 C   0  0  0  0  0  0  0  0  0  0  0  0
   17.5123  -10.6982  -15.9103 C   0  0  0  0  0  0  0  0  0  0  0  0
   17.3432   -9.4212  -16.6703 C   0  0  0  0  0  0  0  0  0  0  0  0
   18.6683   -8.7524  -16.6160 C   0  0  1  0  0  0  0  0  0  0  0  0
   18.8703   -7.8601  -15.4495 C   0  0  0  0  0  0  0  0  0  0  0  0
   19.5501   -8.2582  -14.4874 O   0  0  0  0  0  0  0  0  0  0  0  0
   18.2940   -6.5874  -15.4515 N   0  0  0  0  0  0  0  0  0  0  0  0
   18.7979   -5.5635  -14.5233 C   0  0  1  0  0  0  0  0  0  0  0  0
   20.2414   -5.3919  -14.9136 C   0  0  0  0  0  0  0  0  0  0  0  0
   21.0490   -4.4062  -14.1545 C   0  0  0  0  0  0  0  0  0  0  0  0
   22.4156   -4.2889  -14.6612 C   0  0  0  0  0  0  0  0  0  0  0  0
   23.2781   -5.1505  -14.2942 O   0  0  0  0  0  0  0  0  0  0  0  0
   18.0322   -4.3438  -14.5096 C   0  0  0  0  0  0  0  0  0  0  0  0
   17.4202   -3.9738  -15.5699 O   0  0  0  0  0  0  0  0  0  0  0  0
   22.7970   -3.2886  -15.5128 O   0  0  0  0  0  0  0  0  0  0  0  0
   17.8742   -3.4965  -13.4177 O   0  0  0  0  0  0  0  0  0  0  0  0
  2  1  1  1
  3  2  1  0
  4  2  1  0
  4  5  1  0
  5  6  1  6
  7  5  1  0
  7  8  2  0
  9  7  1  0
 10  9  1  0
 11 12  1  0
 11 10  1  0
 12 13  1  0
 13  9  1  0
 13 14  1  1
 14 16  1  0
 15 14  2  0
 17 16  1  0
 17 22  1  0
 17 18  1  6
 19 18  1  0
 20 19  1  0
 21 20  2  0
 22 23  2  0
 22 25  1  0
 24 20  1  0
M  END
$$$$
