RAH.pdb
     RDKit          3D

 27 27  0  0  1  0  0  0  0  0999 V2000
   29.6182  -13.6479  -18.3340 N   0  0  0  0  0  0  0  0  0  0  0  0
   29.4916  -15.0402  -18.1083 C   0  0  0  0  0  0  0  0  0  0  0  0
   30.4560  -15.8817  -18.2704 N   0  0  0  0  0  0  0  0  0  0  0  0
   28.2350  -15.5992  -17.6719 N   0  0  0  0  0  0  0  0  0  0  0  0
   27.0443  -14.7794  -17.6076 C   0  0  0  0  0  0  0  0  0  0  0  0
   27.0234  -14.0251  -16.3030 C   0  0  0  0  0  0  0  0  0  0  0  0
   25.7710  -13.2328  -16.2083 C   0  0  0  0  0  0  0  0  0  0  0  0
   25.3638  -12.5203  -17.4726 C   0  0  2  0  0  0  0  0  0  0  0  0
   25.8957  -11.1529  -17.3334 N   0  0  0  0  0  0  0  0  0  0  0  0
   23.9138  -12.4491  -17.6690 C   0  0  0  0  0  0  0  0  0  0  0  0
   23.1659  -11.9972  -16.7463 O   0  0  0  0  0  0  0  0  0  0  0  0
   30.2474  -16.8756  -18.0271 C   0  0  0  0  0  0  0  0  0  0  0  0
   21.5988  -12.8772  -20.5567 C   0  0  1  0  0  0  0  0  0  0  0  0
   21.8271  -12.8640  -19.0446 N   0  0  0  0  0  0  0  0  0  0  0  0
   23.2513  -12.8566  -18.8449 C   0  0  0  0  0  0  0  0  0  0  0  0
   21.1332  -13.9951  -18.3902 O   0  0  0  0  0  0  0  0  0  0  0  0
   19.8857  -14.0131  -18.5095 N   0  0  0  0  0  0  0  0  0  0  0  0
   21.7605  -15.0114  -17.6709 C   0  0  1  0  0  0  0  0  0  0  0  0
   21.1709  -16.1605  -17.0319 C   0  0  0  0  0  0  0  0  0  0  0  0
   22.2897  -17.0347  -16.5336 C   0  0  0  0  0  0  0  0  0  0  0  0
   21.8890  -18.2725  -15.8854 C   0  0  0  0  0  0  0  0  0  0  0  0
   20.6119  -18.7039  -15.6149 N   0  0  0  0  0  0  0  0  0  0  0  0
   20.6748  -19.9167  -14.9891 C   0  0  0  0  0  0  0  0  0  0  0  0
   21.9847  -20.2317  -14.8742 N   0  0  0  0  0  0  0  0  0  0  0  0
   22.7029  -19.2304  -15.4193 C   0  0  0  0  0  0  0  0  0  0  0  0
   20.1749  -15.8321  -15.9834 O   0  0  0  0  0  0  0  0  0  0  0  0
   20.1321  -14.6486  -15.2817 O   0  0  0  0  0  0  0  0  0  0  0  0
  2  1  1  0
  2  4  1  0
  3  2  2  0
  5  4  1  0
  6  5  1  0
  7  6  1  0
  8  9  1  1
  8  7  1  0
 10 11  2  0
 10  8  1  0
 13 12  1  6
 13 14  1  0
 13 15  1  0
 14 10  1  0
 15 17  1  0
 16 15  2  0
 17 18  1  0
 18 25  1  0
 18 19  1  1
 20 19  1  0
 21 20  2  0
 22 21  1  0
 23 22  1  0
 23 24  2  0
 24 20  1  0
 25 27  2  0
 25 26  1  0
M  END
$$$$
