RAH.pdb
     RDKit          3D

 27 27  0  0  1  0  0  0  0  0999 V2000
   36.8167   -8.6279   -6.6781 N   0  0  0  0  0  0  0  0  0  0  0  0
   37.8663   -9.5786   -6.6749 C   0  0  0  0  0  0  0  0  0  0  0  0
   38.2992  -10.1625   -5.6091 N   0  0  0  0  0  0  0  0  0  0  0  0
   38.5212   -9.9493   -7.9061 N   0  0  0  0  0  0  0  0  0  0  0  0
   38.1922   -9.2828   -9.1476 C   0  0  0  0  0  0  0  0  0  0  0  0
   39.3274   -8.3751   -9.5467 C   0  0  0  0  0  0  0  0  0  0  0  0
   38.9675   -7.6489  -10.7910 C   0  0  0  0  0  0  0  0  0  0  0  0
   38.9053   -8.4970  -12.0354 C   0  0  2  0  0  0  0  0  0  0  0  0
   40.3057   -8.8443  -12.3362 N   0  0  0  0  0  0  0  0  0  0  0  0
   38.3273   -7.8073  -13.1914 C   0  0  0  0  0  0  0  0  0  0  0  0
   38.9998   -6.9240  -13.8098 O   0  0  0  0  0  0  0  0  0  0  0  0
   39.1412  -10.7694   -5.7246 C   0  0  0  0  0  0  0  0  0  0  0  0
   35.0762   -8.0287  -15.0485 C   0  0  1  0  0  0  0  0  0  0  0  0
   36.3849   -7.3012  -14.7372 N   0  0  0  0  0  0  0  0  0  0  0  0
   37.0338   -8.0518  -13.6962 C   0  0  0  0  0  0  0  0  0  0  0  0
   36.1386   -5.8833  -14.3932 O   0  0  0  0  0  0  0  0  0  0  0  0
   36.0930   -5.6185  -13.1690 N   0  0  0  0  0  0  0  0  0  0  0  0
   35.9594   -4.8546  -15.3170 C   0  0  1  0  0  0  0  0  0  0  0  0
   35.7357   -3.4522  -15.0730 C   0  0  0  0  0  0  0  0  0  0  0  0
   36.8143   -2.9693  -14.1416 C   0  0  0  0  0  0  0  0  0  0  0  0
   36.4609   -2.9164  -12.7327 C   0  0  0  0  0  0  0  0  0  0  0  0
   35.2047   -2.9861  -12.1784 N   0  0  0  0  0  0  0  0  0  0  0  0
   35.3114   -2.8912  -10.8197 C   0  0  0  0  0  0  0  0  0  0  0  0
   36.6276   -2.7636  -10.5374 N   0  0  0  0  0  0  0  0  0  0  0  0
   37.3064   -2.7806  -11.7011 C   0  0  0  0  0  0  0  0  0  0  0  0
   35.6138   -2.6305  -16.3015 O   0  0  0  0  0  0  0  0  0  0  0  0
   35.7748   -3.1038  -17.5840 O   0  0  0  0  0  0  0  0  0  0  0  0
  2  1  1  0
  2  4  1  0
  3  2  2  0
  5  4  1  0
  6  5  1  0
  7  6  1  0
  8  9  1  6
  8  7  1  0
 10 11  2  0
 10  8  1  0
 13 12  1  6
 13 14  1  0
 13 15  1  0
 14 10  1  0
 15 17  1  0
 16 15  2  0
 17 18  1  0
 18 25  1  0
 18 19  1  1
 20 19  1  0
 21 20  2  0
 22 21  1  0
 23 22  1  0
 23 24  2  0
 24 20  1  0
 25 27  2  0
 25 26  1  0
M  END
$$$$
