RAH.pdb
     RDKit          3D

 27 27  0  0  1  0  0  0  0  0999 V2000
   23.1834  -19.8775  -11.9442 N   0  0  0  0  0  0  0  0  0  0  0  0
   23.5470  -20.6263  -10.7985 C   0  0  0  0  0  0  0  0  0  0  0  0
   22.7131  -20.9765   -9.8786 N   0  0  0  0  0  0  0  0  0  0  0  0
   24.9137  -21.0453  -10.6020 N   0  0  0  0  0  0  0  0  0  0  0  0
   25.9105  -20.8185  -11.6261 C   0  0  0  0  0  0  0  0  0  0  0  0
   26.1689  -22.1041  -12.3692 C   0  0  0  0  0  0  0  0  0  0  0  0
   26.1083  -21.8523  -13.8314 C   0  0  0  0  0  0  0  0  0  0  0  0
   27.1680  -20.9248  -14.3687 C   0  0  2  0  0  0  0  0  0  0  0  0
   27.8726  -20.4138  -13.1793 N   0  0  0  0  0  0  0  0  0  0  0  0
   26.6315  -19.7921  -15.1270 C   0  0  0  0  0  0  0  0  0  0  0  0
   26.1513  -18.7856  -14.5176 O   0  0  0  0  0  0  0  0  0  0  0  0
   23.1165  -21.4780   -9.0561 C   0  0  0  0  0  0  0  0  0  0  0  0
   26.5522  -18.7674  -18.7137 C   0  0  1  0  0  0  0  0  0  0  0  0
   25.9493  -18.7017  -17.3098 N   0  0  0  0  0  0  0  0  0  0  0  0
   26.6022  -19.7222  -16.5349 C   0  0  0  0  0  0  0  0  0  0  0  0
   24.4760  -18.8301  -17.3551 O   0  0  0  0  0  0  0  0  0  0  0  0
   24.0303  -20.0014  -17.3740 N   0  0  0  0  0  0  0  0  0  0  0  0
   23.5794  -17.7627  -17.3774 C   0  0  1  0  0  0  0  0  0  0  0  0
   22.2276  -17.7097  -16.8812 C   0  0  0  0  0  0  0  0  0  0  0  0
   22.2436  -18.1775  -15.4511 C   0  0  0  0  0  0  0  0  0  0  0  0
   21.9882  -19.5931  -15.2423 C   0  0  0  0  0  0  0  0  0  0  0  0
   21.7395  -20.5515  -16.1961 N   0  0  0  0  0  0  0  0  0  0  0  0
   21.5451  -21.7545  -15.5785 C   0  0  0  0  0  0  0  0  0  0  0  0
   21.6734  -21.5389  -14.2498 N   0  0  0  0  0  0  0  0  0  0  0  0
   21.9404  -20.2314  -14.0643 C   0  0  0  0  0  0  0  0  0  0  0  0
   21.5629  -16.3959  -17.0587 O   0  0  0  0  0  0  0  0  0  0  0  0
   20.2047  -16.2120  -17.1853 O   0  0  0  0  0  0  0  0  0  0  0  0
  2  1  1  0
  2  4  1  0
  3  2  2  0
  5  4  1  0
  6  5  1  0
  7  6  1  0
  8  9  1  1
  8  7  1  0
 10 11  2  0
 10  8  1  0
 13 12  1  1
 13 14  1  0
 13 15  1  0
 14 10  1  0
 15 17  1  0
 16 15  2  0
 17 18  1  0
 18 25  1  0
 18 19  1  6
 20 19  1  0
 21 20  2  0
 22 21  1  0
 23 22  1  0
 23 24  2  0
 24 20  1  0
 25 27  2  0
 25 26  1  0
M  END
$$$$
