RAH.pdb
     RDKit          3D

 27 27  0  0  1  0  0  0  0  0999 V2000
   27.1061  -14.0091  -19.4447 N   0  0  0  0  0  0  0  0  0  0  0  0
   26.8971  -15.1099  -20.3109 C   0  0  0  0  0  0  0  0  0  0  0  0
   27.8067  -15.5902  -21.0894 N   0  0  0  0  0  0  0  0  0  0  0  0
   25.6129  -15.7658  -20.3632 N   0  0  0  0  0  0  0  0  0  0  0  0
   24.5287  -15.3370  -19.5061 C   0  0  0  0  0  0  0  0  0  0  0  0
   24.7602  -15.8504  -18.1081 C   0  0  0  0  0  0  0  0  0  0  0  0
   23.7823  -16.9265  -17.8068 C   0  0  0  0  0  0  0  0  0  0  0  0
   24.3721  -18.1892  -17.2327 C   0  0  2  0  0  0  0  0  0  0  0  0
   24.9349  -18.9119  -18.3873 N   0  0  0  0  0  0  0  0  0  0  0  0
   23.3911  -19.0486  -16.5657 C   0  0  0  0  0  0  0  0  0  0  0  0
   22.5970  -19.7641  -17.2530 O   0  0  0  0  0  0  0  0  0  0  0  0
   27.5224  -16.3964  -21.6893 C   0  0  0  0  0  0  0  0  0  0  0  0
   22.6088  -19.9009  -13.0007 C   0  0  2  0  0  0  0  0  0  0  0  0
   22.2288  -19.9009  -14.4821 N   0  0  0  0  0  0  0  0  0  0  0  0
   23.2485  -19.1528  -15.1669 C   0  0  0  0  0  0  0  0  0  0  0  0
   20.8600  -19.3758  -14.6819 O   0  0  0  0  0  0  0  0  0  0  0  0
   20.7832  -18.1953  -15.0961 N   0  0  0  0  0  0  0  0  0  0  0  0
   19.6860  -20.0897  -14.4457 C   0  0  1  0  0  0  0  0  0  0  0  0
   18.3218  -19.6789  -14.6614 C   0  0  0  0  0  0  0  0  0  0  0  0
   18.2075  -19.1880  -16.0792 C   0  0  0  0  0  0  0  0  0  0  0  0
   18.4208  -17.7640  -16.2781 C   0  0  0  0  0  0  0  0  0  0  0  0
   18.7125  -16.8170  -15.3250 N   0  0  0  0  0  0  0  0  0  0  0  0
   18.8274  -15.5973  -15.9297 C   0  0  0  0  0  0  0  0  0  0  0  0
   18.6075  -15.7913  -17.2497 N   0  0  0  0  0  0  0  0  0  0  0  0
   18.3640  -17.1023  -17.4427 C   0  0  0  0  0  0  0  0  0  0  0  0
   17.3121  -20.7089  -14.3167 O   0  0  0  0  0  0  0  0  0  0  0  0
   16.0943  -20.4514  -13.7291 O   0  0  0  0  0  0  0  0  0  0  0  0
  2  1  1  0
  2  4  1  0
  3  2  2  0
  5  4  1  0
  6  5  1  0
  7  6  1  0
  8  9  1  6
  8  7  1  0
 10 11  2  0
 10  8  1  0
 13 12  1  6
 13 14  1  0
 13 15  1  0
 14 10  1  0
 15 17  1  0
 16 15  2  0
 17 18  1  0
 18 25  1  0
 18 19  1  1
 20 19  1  0
 21 20  2  0
 22 21  1  0
 23 22  1  0
 23 24  2  0
 24 20  1  0
 25 27  2  0
 25 26  1  0
M  END
$$$$
