RAH.pdb
     RDKit          3D

 27 27  0  0  1  0  0  0  0  0999 V2000
   20.6310  -20.4528  -12.0825 N   0  0  0  0  0  0  0  0  0  0  0  0
   21.2760  -21.3932  -11.2428 C   0  0  0  0  0  0  0  0  0  0  0  0
   20.6630  -22.0919  -10.3482 N   0  0  0  0  0  0  0  0  0  0  0  0
   22.6967  -21.6196  -11.3542 N   0  0  0  0  0  0  0  0  0  0  0  0
   23.4902  -20.8786  -12.3109 C   0  0  0  0  0  0  0  0  0  0  0  0
   24.9480  -21.2091  -12.1177 C   0  0  0  0  0  0  0  0  0  0  0  0
   25.7771  -20.2965  -12.9452 C   0  0  0  0  0  0  0  0  0  0  0  0
   26.5812  -20.9650  -14.0307 C   0  0  2  0  0  0  0  0  0  0  0  0
   27.9101  -21.1994  -13.4379 N   0  0  0  0  0  0  0  0  0  0  0  0
   26.7359  -20.1494  -15.2378 C   0  0  0  0  0  0  0  0  0  0  0  0
   27.5835  -19.2030  -15.2646 O   0  0  0  0  0  0  0  0  0  0  0  0
   21.2469  -22.7744   -9.8154 C   0  0  0  0  0  0  0  0  0  0  0  0
   26.3769  -20.5165  -18.7623 C   0  0  1  0  0  0  0  0  0  0  0  0
   26.1070  -19.5414  -17.6154 N   0  0  0  0  0  0  0  0  0  0  0  0
   25.9924  -20.3345  -16.4212 C   0  0  0  0  0  0  0  0  0  0  0  0
   24.9215  -18.7018  -17.8967 O   0  0  0  0  0  0  0  0  0  0  0  0
   23.8122  -19.2104  -17.6113 N   0  0  0  0  0  0  0  0  0  0  0  0
   24.9598  -17.4195  -18.4426 C   0  0  1  0  0  0  0  0  0  0  0  0
   23.8661  -16.5201  -18.7099 C   0  0  0  0  0  0  0  0  0  0  0  0
   24.4045  -15.1156  -18.6672 C   0  0  0  0  0  0  0  0  0  0  0  0
   24.9290  -14.6744  -17.3854 C   0  0  0  0  0  0  0  0  0  0  0  0
   24.5069  -15.0480  -16.1314 N   0  0  0  0  0  0  0  0  0  0  0  0
   25.2600  -14.3971  -15.1957 C   0  0  0  0  0  0  0  0  0  0  0  0
   26.1425  -13.6254  -15.8697 N   0  0  0  0  0  0  0  0  0  0  0  0
   25.9296  -13.8042  -17.1880 C   0  0  0  0  0  0  0  0  0  0  0  0
   23.1178  -16.8213  -19.9542 O   0  0  0  0  0  0  0  0  0  0  0  0
   23.4486  -17.8116  -20.8512 O   0  0  0  0  0  0  0  0  0  0  0  0
  2  1  1  0
  2  4  1  0
  3  2  2  0
  5  4  1  0
  6  5  1  0
  7  6  1  0
  8  9  1  1
  8  7  1  0
 10 11  2  0
 10  8  1  0
 13 12  1  1
 13 14  1  0
 13 15  1  0
 14 10  1  0
 15 17  1  0
 16 15  2  0
 17 18  1  0
 18 25  1  0
 18 19  1  6
 20 19  1  0
 21 20  2  0
 22 21  1  0
 23 22  1  0
 23 24  2  0
 24 20  1  0
 25 27  2  0
 25 26  1  0
M  END
$$$$
