RAH.pdb
     RDKit          3D

 27 27  0  0  1  0  0  0  0  0999 V2000
   47.8387  -15.2134   -9.2741 N   0  0  0  0  0  0  0  0  0  0  0  0
   47.7934  -14.8225   -7.9137 C   0  0  0  0  0  0  0  0  0  0  0  0
   48.6786  -15.1667   -7.0407 N   0  0  0  0  0  0  0  0  0  0  0  0
   46.7178  -13.9932   -7.4265 N   0  0  0  0  0  0  0  0  0  0  0  0
   45.6575  -13.5625   -8.3121 C   0  0  0  0  0  0  0  0  0  0  0  0
   44.7845  -12.5608   -7.6007 C   0  0  0  0  0  0  0  0  0  0  0  0
   43.7811  -12.0153   -8.5498 C   0  0  0  0  0  0  0  0  0  0  0  0
   42.4199  -12.6594   -8.4870 C   0  0  2  0  0  0  0  0  0  0  0  0
   42.4774  -13.7776   -9.4455 N   0  0  0  0  0  0  0  0  0  0  0  0
   41.3249  -11.7633   -8.8667 C   0  0  0  0  0  0  0  0  0  0  0  0
   41.1561  -11.4417  -10.0845 O   0  0  0  0  0  0  0  0  0  0  0  0
   48.5520  -14.7818   -6.0782 C   0  0  0  0  0  0  0  0  0  0  0  0
   38.6096   -9.9789   -6.9885 C   0  0  1  0  0  0  0  0  0  0  0  0
   39.3952  -10.2316   -8.2761 N   0  0  0  0  0  0  0  0  0  0  0  0
   40.4045  -11.2049   -7.9563 C   0  0  0  0  0  0  0  0  0  0  0  0
   39.9308   -8.9689   -8.8310 O   0  0  0  0  0  0  0  0  0  0  0  0
   41.1799   -8.8691   -8.8543 N   0  0  0  0  0  0  0  0  0  0  0  0
   39.1569   -7.9150   -9.3149 C   0  0  1  0  0  0  0  0  0  0  0  0
   39.5900   -6.6451   -9.8405 C   0  0  0  0  0  0  0  0  0  0  0  0
   40.6250   -6.9140  -10.8992 C   0  0  0  0  0  0  0  0  0  0  0  0
   41.1805   -5.7430  -11.5571 C   0  0  0  0  0  0  0  0  0  0  0  0
   42.1503   -4.8926  -11.0810 N   0  0  0  0  0  0  0  0  0  0  0  0
   42.3794   -3.9151  -12.0074 C   0  0  0  0  0  0  0  0  0  0  0  0
   41.5546   -4.1614  -13.0502 N   0  0  0  0  0  0  0  0  0  0  0  0
   40.8391   -5.2663  -12.7628 C   0  0  0  0  0  0  0  0  0  0  0  0
   38.4881   -5.7704  -10.3096 O   0  0  0  0  0  0  0  0  0  0  0  0
   38.6334   -4.4536  -10.6830 O   0  0  0  0  0  0  0  0  0  0  0  0
  2  1  1  0
  2  4  1  0
  3  2  2  0
  5  4  1  0
  6  5  1  0
  7  6  1  0
  8  9  1  6
  8  7  1  0
 10 11  2  0
 10  8  1  0
 13 12  1  6
 13 14  1  0
 13 15  1  0
 14 10  1  0
 15 17  1  0
 16 15  2  0
 17 18  1  0
 18 25  1  0
 18 19  1  1
 20 19  1  0
 21 20  2  0
 22 21  1  0
 23 22  1  0
 23 24  2  0
 24 20  1  0
 25 27  2  0
 25 26  1  0
M  END
$$$$
