RAH.pdb
     RDKit          3D

 27 27  0  0  1  0  0  0  0  0999 V2000
   19.3395  -17.3521  -13.8137 N   0  0  0  0  0  0  0  0  0  0  0  0
   18.8766  -18.2146  -14.8372 C   0  0  0  0  0  0  0  0  0  0  0  0
   18.3156  -19.3544  -14.6126 N   0  0  0  0  0  0  0  0  0  0  0  0
   19.0168  -17.8443  -16.2247 N   0  0  0  0  0  0  0  0  0  0  0  0
   19.3778  -16.4931  -16.5960 C   0  0  0  0  0  0  0  0  0  0  0  0
   18.1906  -15.5848  -16.4034 C   0  0  0  0  0  0  0  0  0  0  0  0
   18.5736  -14.1901  -16.7397 C   0  0  0  0  0  0  0  0  0  0  0  0
   18.0295  -13.6710  -18.0460 C   0  0  2  0  0  0  0  0  0  0  0  0
   18.7556  -14.4163  -19.0899 N   0  0  0  0  0  0  0  0  0  0  0  0
   18.2469  -12.2364  -18.2474 C   0  0  0  0  0  0  0  0  0  0  0  0
   19.3754  -11.8117  -18.6487 O   0  0  0  0  0  0  0  0  0  0  0  0
   18.0389  -19.9067  -15.4546 C   0  0  0  0  0  0  0  0  0  0  0  0
   16.0566   -9.2006  -18.1156 C   0  0  1  0  0  0  0  0  0  0  0  0
   17.4446   -9.8334  -18.2250 N   0  0  0  0  0  0  0  0  0  0  0  0
   17.2682  -11.2465  -18.0243 C   0  0  0  0  0  0  0  0  0  0  0  0
   18.3938   -9.2048  -17.2798 O   0  0  0  0  0  0  0  0  0  0  0  0
   18.4092   -9.6841  -16.1219 N   0  0  0  0  0  0  0  0  0  0  0  0
   19.2460   -8.1450  -17.5868 C   0  0  2  0  0  0  0  0  0  0  0  0
   20.1156   -7.4035  -16.7091 C   0  0  0  0  0  0  0  0  0  0  0  0
   21.0600   -6.6035  -17.5649 C   0  0  0  0  0  0  0  0  0  0  0  0
   21.9702   -5.7212  -16.8536 C   0  0  0  0  0  0  0  0  0  0  0  0
   23.2982   -5.9359  -16.5700 N   0  0  0  0  0  0  0  0  0  0  0  0
   23.7851   -4.8627  -15.8788 C   0  0  0  0  0  0  0  0  0  0  0  0
   22.7619   -3.9902  -15.7368 N   0  0  0  0  0  0  0  0  0  0  0  0
   21.6756   -4.5228  -16.3299 C   0  0  0  0  0  0  0  0  0  0  0  0
   19.4067   -6.5831  -15.6973 O   0  0  0  0  0  0  0  0  0  0  0  0
   19.8469   -6.3666  -14.4112 O   0  0  0  0  0  0  0  0  0  0  0  0
  2  1  1  0
  2  4  1  0
  3  2  2  0
  5  4  1  0
  6  5  1  0
  7  6  1  0
  8  9  1  6
  8  7  1  0
 10 11  2  0
 10  8  1  0
 13 12  1  6
 13 14  1  0
 13 15  1  0
 14 10  1  0
 15 17  1  0
 16 15  2  0
 17 18  1  0
 18 25  1  0
 18 19  1  1
 20 19  1  0
 21 20  2  0
 22 21  1  0
 23 22  1  0
 23 24  2  0
 24 20  1  0
 25 27  2  0
 25 26  1  0
M  END
$$$$
