RAH.pdb
     RDKit          3D

 27 27  0  0  1  0  0  0  0  0999 V2000
   29.7548  -18.5186  -16.8450 N   0  0  0  0  0  0  0  0  0  0  0  0
   29.4933  -19.4295  -17.8974 C   0  0  0  0  0  0  0  0  0  0  0  0
   30.2982  -19.6315  -18.8850 N   0  0  0  0  0  0  0  0  0  0  0  0
   28.2726  -20.1987  -17.9124 N   0  0  0  0  0  0  0  0  0  0  0  0
   27.5317  -20.4328  -16.6917 C   0  0  0  0  0  0  0  0  0  0  0  0
   26.2924  -21.2327  -17.0017 C   0  0  0  0  0  0  0  0  0  0  0  0
   25.4943  -21.4107  -15.7621 C   0  0  0  0  0  0  0  0  0  0  0  0
   26.0566  -22.3979  -14.7716 C   0  0  2  0  0  0  0  0  0  0  0  0
   25.9055  -23.7165  -15.4126 N   0  0  0  0  0  0  0  0  0  0  0  0
   25.3531  -22.4102  -13.4866 C   0  0  0  0  0  0  0  0  0  0  0  0
   24.2031  -22.9428  -13.3933 O   0  0  0  0  0  0  0  0  0  0  0  0
   29.9414  -20.2411  -19.6543 C   0  0  0  0  0  0  0  0  0  0  0  0
   26.0743  -20.8193  -10.1648 C   0  0  1  0  0  0  0  0  0  0  0  0
   25.0835  -21.3592  -11.1972 N   0  0  0  0  0  0  0  0  0  0  0  0
   25.8668  -21.8579  -12.2955 C   0  0  0  0  0  0  0  0  0  0  0  0
   24.0970  -20.3257  -11.5816 O   0  0  0  0  0  0  0  0  0  0  0  0
   24.5662  -19.2981  -12.1244 N   0  0  0  0  0  0  0  0  0  0  0  0
   22.7201  -20.4200  -11.3839 C   0  0  1  0  0  0  0  0  0  0  0  0
   21.6533  -19.9286  -12.2187 C   0  0  0  0  0  0  0  0  0  0  0  0
   21.9033  -20.4166  -13.6200 C   0  0  0  0  0  0  0  0  0  0  0  0
   20.9349  -20.0000  -14.6206 C   0  0  0  0  0  0  0  0  0  0  0  0
   19.8372  -19.1916  -14.4421 N   0  0  0  0  0  0  0  0  0  0  0  0
   19.1863  -19.0544  -15.6353 C   0  0  0  0  0  0  0  0  0  0  0  0
   19.8794  -19.7750  -16.5457 N   0  0  0  0  0  0  0  0  0  0  0  0
   20.9301  -20.3384  -15.9179 C   0  0  0  0  0  0  0  0  0  0  0  0
   20.2929  -20.2486  -11.7227 O   0  0  0  0  0  0  0  0  0  0  0  0
   19.2151  -19.3939  -11.7748 O   0  0  0  0  0  0  0  0  0  0  0  0
  2  1  1  0
  2  4  1  0
  3  2  2  0
  5  4  1  0
  6  5  1  0
  7  6  1  0
  8  9  1  6
  8  7  1  0
 10 11  2  0
 10  8  1  0
 13 12  1  1
 13 14  1  0
 13 15  1  0
 14 10  1  0
 15 17  1  0
 16 15  2  0
 17 18  1  0
 18 25  1  0
 18 19  1  1
 20 19  1  0
 21 20  2  0
 22 21  1  0
 23 22  1  0
 23 24  2  0
 24 20  1  0
 25 27  2  0
 25 26  1  0
M  END
$$$$
