RAH.pdb
     RDKit          3D

 27 27  0  0  1  0  0  0  0  0999 V2000
   16.4352  -21.4715  -12.1681 N   0  0  0  0  0  0  0  0  0  0  0  0
   15.8817  -21.4457  -13.4714 C   0  0  0  0  0  0  0  0  0  0  0  0
   14.7740  -22.0254  -13.7896 N   0  0  0  0  0  0  0  0  0  0  0  0
   16.5552  -20.7459  -14.5384 N   0  0  0  0  0  0  0  0  0  0  0  0
   17.8677  -20.1723  -14.3329 C   0  0  0  0  0  0  0  0  0  0  0  0
   18.8551  -21.2712  -14.0341 C   0  0  0  0  0  0  0  0  0  0  0  0
   20.2036  -20.6840  -13.8295 C   0  0  0  0  0  0  0  0  0  0  0  0
   20.9640  -20.3646  -15.0911 C   0  0  2  0  0  0  0  0  0  0  0  0
   21.0940  -21.6506  -15.7993 N   0  0  0  0  0  0  0  0  0  0  0  0
   22.3011  -19.8162  -14.8513 C   0  0  0  0  0  0  0  0  0  0  0  0
   22.4492  -18.7968  -14.1073 O   0  0  0  0  0  0  0  0  0  0  0  0
   14.5129  -21.9993  -14.8004 C   0  0  0  0  0  0  0  0  0  0  0  0
   25.7702  -20.7389  -15.9407 C   0  0  1  0  0  0  0  0  0  0  0  0
   24.7877  -19.7385  -15.3303 N   0  0  0  0  0  0  0  0  0  0  0  0
   23.4866  -20.3471  -15.3996 C   0  0  0  0  0  0  0  0  0  0  0  0
   24.8749  -18.4249  -16.0058 O   0  0  0  0  0  0  0  0  0  0  0  0
   24.2057  -18.3071  -17.0590 N   0  0  0  0  0  0  0  0  0  0  0  0
   25.6315  -17.3429  -15.5582 C   0  0  1  0  0  0  0  0  0  0  0  0
   25.7706  -16.0347  -16.1463 C   0  0  0  0  0  0  0  0  0  0  0  0
   26.3673  -15.1241  -15.1075 C   0  0  0  0  0  0  0  0  0  0  0  0
   26.6700  -13.7718  -15.5458 C   0  0  0  0  0  0  0  0  0  0  0  0
   26.5221  -13.2444  -16.8069 N   0  0  0  0  0  0  0  0  0  0  0  0
   26.9284  -11.9401  -16.7947 C   0  0  0  0  0  0  0  0  0  0  0  0
   27.3251  -11.6644  -15.5318 N   0  0  0  0  0  0  0  0  0  0  0  0
   27.1629  -12.7787  -14.7919 C   0  0  0  0  0  0  0  0  0  0  0  0
   26.5101  -16.0184  -17.4316 O   0  0  0  0  0  0  0  0  0  0  0  0
   26.1995  -15.2189  -18.5081 O   0  0  0  0  0  0  0  0  0  0  0  0
  2  1  1  0
  2  4  1  0
  3  2  2  0
  5  4  1  0
  6  5  1  0
  7  6  1  0
  8  9  1  6
  8  7  1  0
 10 11  2  0
 10  8  1  0
 13 12  1  1
 13 14  1  0
 13 15  1  0
 14 10  1  0
 15 17  1  0
 16 15  2  0
 17 18  1  0
 18 25  1  0
 18 19  1  6
 20 19  1  0
 21 20  2  0
 22 21  1  0
 23 22  1  0
 23 24  2  0
 24 20  1  0
 25 27  2  0
 25 26  1  0
M  END
$$$$
