RAH.pdb
     RDKit          3D

 27 27  0  0  1  0  0  0  0  0999 V2000
   26.6686  -20.5708   -8.9140 N   0  0  0  0  0  0  0  0  0  0  0  0
   25.3917  -21.1060   -8.6166 C   0  0  0  0  0  0  0  0  0  0  0  0
   24.8330  -21.0212   -7.4569 N   0  0  0  0  0  0  0  0  0  0  0  0
   24.6323  -21.7940   -9.6325 N   0  0  0  0  0  0  0  0  0  0  0  0
   25.0038  -21.6938  -11.0275 C   0  0  0  0  0  0  0  0  0  0  0  0
   24.7320  -20.2957  -11.5206 C   0  0  0  0  0  0  0  0  0  0  0  0
   25.1414  -20.1836  -12.9437 C   0  0  0  0  0  0  0  0  0  0  0  0
   24.1876  -20.7960  -13.9373 C   0  0  2  0  0  0  0  0  0  0  0  0
   24.8321  -22.0490  -14.3693 N   0  0  0  0  0  0  0  0  0  0  0  0
   23.9417  -19.9575  -15.1131 C   0  0  0  0  0  0  0  0  0  0  0  0
   24.8304  -19.8452  -16.0144 O   0  0  0  0  0  0  0  0  0  0  0  0
   23.8629  -21.4010   -7.3828 C   0  0  0  0  0  0  0  0  0  0  0  0
   21.0254  -18.1367  -16.5517 C   0  0  1  0  0  0  0  0  0  0  0  0
   22.5396  -18.2766  -16.3888 N   0  0  0  0  0  0  0  0  0  0  0  0
   22.7521  -19.2350  -15.3377 C   0  0  0  0  0  0  0  0  0  0  0  0
   23.1736  -16.9626  -16.1428 O   0  0  0  0  0  0  0  0  0  0  0  0
   23.0193  -16.4887  -14.9928 N   0  0  0  0  0  0  0  0  0  0  0  0
   23.9094  -16.2402  -17.0811 C   0  0  1  0  0  0  0  0  0  0  0  0
   24.5579  -14.9624  -16.9291 C   0  0  0  0  0  0  0  0  0  0  0  0
   26.0338  -15.1674  -17.1384 C   0  0  0  0  0  0  0  0  0  0  0  0
   26.6811  -16.1006  -16.2313 C   0  0  0  0  0  0  0  0  0  0  0  0
   26.7577  -16.0236  -14.8607 N   0  0  0  0  0  0  0  0  0  0  0  0
   27.4600  -17.0980  -14.3929 C   0  0  0  0  0  0  0  0  0  0  0  0
   27.8149  -17.8342  -15.4701 N   0  0  0  0  0  0  0  0  0  0  0  0
   27.3377  -17.2193  -16.5699 C   0  0  0  0  0  0  0  0  0  0  0  0
   23.9916  -13.8855  -17.7769 O   0  0  0  0  0  0  0  0  0  0  0  0
   24.0996  -12.5386  -17.5145 O   0  0  0  0  0  0  0  0  0  0  0  0
  2  1  1  0
  2  4  1  0
  3  2  2  0
  5  4  1  0
  6  5  1  0
  7  6  1  0
  8  9  1  6
  8  7  1  0
 10 11  2  0
 10  8  1  0
 13 12  1  6
 13 14  1  0
 13 15  1  0
 14 10  1  0
 15 17  1  0
 16 15  2  0
 17 18  1  0
 18 25  1  0
 18 19  1  1
 20 19  1  0
 21 20  2  0
 22 21  1  0
 23 22  1  0
 23 24  2  0
 24 20  1  0
 25 27  2  0
 25 26  1  0
M  END
$$$$
