RAH.pdb
     RDKit          3D

 27 27  0  0  1  0  0  0  0  0999 V2000
   26.6253  -18.1140  -14.2631 N   0  0  0  0  0  0  0  0  0  0  0  0
   26.0546  -18.3715  -15.5333 C   0  0  0  0  0  0  0  0  0  0  0  0
   26.1404  -19.5073  -16.1391 N   0  0  0  0  0  0  0  0  0  0  0  0
   25.3265  -17.3393  -16.2309 N   0  0  0  0  0  0  0  0  0  0  0  0
   25.1015  -16.0492  -15.6154 C   0  0  0  0  0  0  0  0  0  0  0  0
   23.6456  -15.6799  -15.7406 C   0  0  0  0  0  0  0  0  0  0  0  0
   23.3880  -14.4203  -14.9975 C   0  0  0  0  0  0  0  0  0  0  0  0
   23.4784  -13.1595  -15.8184 C   0  0  2  0  0  0  0  0  0  0  0  0
   23.9853  -13.5906  -17.1334 N   0  0  0  0  0  0  0  0  0  0  0  0
   24.3907  -12.1573  -15.2622 C   0  0  0  0  0  0  0  0  0  0  0  0
   24.1413  -11.6212  -14.1373 O   0  0  0  0  0  0  0  0  0  0  0  0
   25.7634  -19.5412  -17.1124 C   0  0  0  0  0  0  0  0  0  0  0  0
   27.7993  -10.8996  -16.0524 C   0  0  2  0  0  0  0  0  0  0  0  0
   26.4187  -10.6497  -15.4440 N   0  0  0  0  0  0  0  0  0  0  0  0
   25.5713  -11.7198  -15.8967 C   0  0  0  0  0  0  0  0  0  0  0  0
   25.9200   -9.2999  -15.7885 O   0  0  0  0  0  0  0  0  0  0  0  0
   26.6150   -8.3403  -15.3797 N   0  0  0  0  0  0  0  0  0  0  0  0
   24.7609   -9.0362  -16.5170 C   0  0  1  0  0  0  0  0  0  0  0  0
   24.1918   -7.7620  -16.8763 C   0  0  0  0  0  0  0  0  0  0  0  0
   23.6571   -7.8757  -18.2783 C   0  0  0  0  0  0  0  0  0  0  0  0
   23.0599   -6.6712  -18.8306 C   0  0  0  0  0  0  0  0  0  0  0  0
   23.3669   -5.3659  -18.5269 N   0  0  0  0  0  0  0  0  0  0  0  0
   22.5681   -4.5376  -19.2632 C   0  0  0  0  0  0  0  0  0  0  0  0
   21.7721   -5.3285  -20.0177 N   0  0  0  0  0  0  0  0  0  0  0  0
   22.0812   -6.6112  -19.7450 C   0  0  0  0  0  0  0  0  0  0  0  0
   23.1925   -7.2452  -15.9101 O   0  0  0  0  0  0  0  0  0  0  0  0
   22.9363   -5.9125  -15.6803 O   0  0  0  0  0  0  0  0  0  0  0  0
  2  1  1  0
  2  4  1  0
  3  2  2  0
  5  4  1  0
  6  5  1  0
  7  6  1  0
  8  9  1  6
  8  7  1  0
 10 11  2  0
 10  8  1  0
 13 12  1  1
 13 14  1  0
 13 15  1  0
 14 10  1  0
 15 17  1  0
 16 15  2  0
 17 18  1  0
 18 25  1  0
 18 19  1  1
 20 19  1  0
 21 20  2  0
 22 21  1  0
 23 22  1  0
 23 24  2  0
 24 20  1  0
 25 27  2  0
 25 26  1  0
M  END
$$$$
