RAH.pdb
     RDKit          3D

 27 27  0  0  1  0  0  0  0  0999 V2000
   18.6544  -13.9351  -16.8331 N   0  0  0  0  0  0  0  0  0  0  0  0
   19.6801  -13.6255  -15.9070 C   0  0  0  0  0  0  0  0  0  0  0  0
   19.9770  -12.4238  -15.5436 N   0  0  0  0  0  0  0  0  0  0  0  0
   20.4662  -14.6768  -15.3078 N   0  0  0  0  0  0  0  0  0  0  0  0
   20.1599  -16.0672  -15.5661 C   0  0  0  0  0  0  0  0  0  0  0  0
   21.1894  -16.9413  -14.8969 C   0  0  0  0  0  0  0  0  0  0  0  0
   20.9644  -18.3572  -15.2836 C   0  0  0  0  0  0  0  0  0  0  0  0
   21.8962  -19.3544  -14.6438 C   0  0  2  0  0  0  0  0  0  0  0  0
   22.6238  -19.9767  -15.7642 N   0  0  0  0  0  0  0  0  0  0  0  0
   21.2088  -20.4008  -13.8832 C   0  0  0  0  0  0  0  0  0  0  0  0
   20.8097  -21.4567  -14.4667 O   0  0  0  0  0  0  0  0  0  0  0  0
   20.7063  -12.3326  -14.8017 C   0  0  0  0  0  0  0  0  0  0  0  0
   20.3128  -20.9168  -10.2818 C   0  0  1  0  0  0  0  0  0  0  0  0
   20.1034  -21.2371  -11.7625 N   0  0  0  0  0  0  0  0  0  0  0  0
   20.9422  -20.3315  -12.5005 C   0  0  0  0  0  0  0  0  0  0  0  0
   18.6712  -21.1639  -12.1270 O   0  0  0  0  0  0  0  0  0  0  0  0
   18.2002  -20.0102  -12.2608 N   0  0  0  0  0  0  0  0  0  0  0  0
   17.8380  -22.2641  -12.3249 C   0  0  1  0  0  0  0  0  0  0  0  0
   16.4453  -22.2859  -12.6939 C   0  0  0  0  0  0  0  0  0  0  0  0
   16.2879  -23.2479  -13.8403 C   0  0  0  0  0  0  0  0  0  0  0  0
   16.8243  -22.8080  -15.1176 C   0  0  0  0  0  0  0  0  0  0  0  0
   17.2302  -21.5418  -15.4671 N   0  0  0  0  0  0  0  0  0  0  0  0
   17.6624  -21.5546  -16.7631 C   0  0  0  0  0  0  0  0  0  0  0  0
   17.5236  -22.8229  -17.2107 N   0  0  0  0  0  0  0  0  0  0  0  0
   17.0173  -23.5654  -16.2068 C   0  0  0  0  0  0  0  0  0  0  0  0
   15.5196  -22.5616  -11.5686 O   0  0  0  0  0  0  0  0  0  0  0  0
   15.9084  -22.7945  -10.2689 O   0  0  0  0  0  0  0  0  0  0  0  0
  2  1  1  0
  2  4  1  0
  3  2  2  0
  5  4  1  0
  6  5  1  0
  7  6  1  0
  8  9  1  6
  8  7  1  0
 10 11  2  0
 10  8  1  0
 13 12  1  1
 13 14  1  0
 13 15  1  0
 14 10  1  0
 15 17  1  0
 16 15  2  0
 17 18  1  0
 18 25  1  0
 18 19  1  1
 20 19  1  0
 21 20  2  0
 22 21  1  0
 23 22  1  0
 23 24  2  0
 24 20  1  0
 25 27  2  0
 25 26  1  0
M  END
$$$$
