RAH.pdb
     RDKit          3D

 27 27  0  0  1  0  0  0  0  0999 V2000
   43.7938   -9.3137   -1.7081 N   0  0  0  0  0  0  0  0  0  0  0  0
   44.5784   -8.5402   -2.5979 C   0  0  0  0  0  0  0  0  0  0  0  0
   45.0977   -7.4007   -2.2877 N   0  0  0  0  0  0  0  0  0  0  0  0
   44.8411   -9.0082   -3.9373 N   0  0  0  0  0  0  0  0  0  0  0  0
   44.5051  -10.3608   -4.3265 C   0  0  0  0  0  0  0  0  0  0  0  0
   45.0271  -10.6284   -5.7149 C   0  0  0  0  0  0  0  0  0  0  0  0
   44.0367  -10.1578   -6.7162 C   0  0  0  0  0  0  0  0  0  0  0  0
   43.1363  -11.2263   -7.2815 C   0  0  2  0  0  0  0  0  0  0  0  0
   43.9025  -11.8327   -8.3848 N   0  0  0  0  0  0  0  0  0  0  0  0
   41.8694  -10.7126   -7.8081 C   0  0  0  0  0  0  0  0  0  0  0  0
   41.8348  -10.1389   -8.9415 O   0  0  0  0  0  0  0  0  0  0  0  0
   45.6509   -6.9264   -3.0358 C   0  0  0  0  0  0  0  0  0  0  0  0
   38.3026  -10.7715   -6.6619 C   0  0  1  0  0  0  0  0  0  0  0  0
   39.4011  -10.1991   -7.5589 N   0  0  0  0  0  0  0  0  0  0  0  0
   40.6343  -10.8055   -7.1348 C   0  0  0  0  0  0  0  0  0  0  0  0
   39.4104   -8.7202   -7.5136 O   0  0  0  0  0  0  0  0  0  0  0  0
   40.0307   -8.2073   -6.5529 N   0  0  0  0  0  0  0  0  0  0  0  0
   38.7914   -7.8867   -8.4441 C   0  0  1  0  0  0  0  0  0  0  0  0
   38.7682   -6.4466   -8.4900 C   0  0  0  0  0  0  0  0  0  0  0  0
   38.4944   -6.0358   -9.9114 C   0  0  0  0  0  0  0  0  0  0  0  0
   39.5907   -6.2180  -10.8483 C   0  0  0  0  0  0  0  0  0  0  0  0
   40.8701   -6.6390  -10.5727 N   0  0  0  0  0  0  0  0  0  0  0  0
   41.5894   -6.6675  -11.7339 C   0  0  0  0  0  0  0  0  0  0  0  0
   40.7573   -6.2658  -12.7211 N   0  0  0  0  0  0  0  0  0  0  0  0
   39.5568   -5.9989  -12.1705 C   0  0  0  0  0  0  0  0  0  0  0  0
   37.8461   -5.8193   -7.5126 O   0  0  0  0  0  0  0  0  0  0  0  0
   37.9218   -4.5128   -7.0859 O   0  0  0  0  0  0  0  0  0  0  0  0
  2  1  1  0
  2  4  1  0
  3  2  2  0
  5  4  1  0
  6  5  1  0
  7  6  1  0
  8  9  1  6
  8  7  1  0
 10 11  2  0
 10  8  1  0
 13 12  1  6
 13 14  1  0
 13 15  1  0
 14 10  1  0
 15 17  1  0
 16 15  2  0
 17 18  1  0
 18 25  1  0
 18 19  1  1
 20 19  1  0
 21 20  2  0
 22 21  1  0
 23 22  1  0
 23 24  2  0
 24 20  1  0
 25 27  2  0
 25 26  1  0
M  END
$$$$
