RAH.pdb
     RDKit          3D

 27 27  0  0  1  0  0  0  0  0999 V2000
   28.3751  -17.5336  -19.1727 N   0  0  0  0  0  0  0  0  0  0  0  0
   27.2485  -17.2759  -19.9912 C   0  0  0  0  0  0  0  0  0  0  0  0
   27.0214  -17.8823  -21.1070 N   0  0  0  0  0  0  0  0  0  0  0  0
   26.2707  -16.2895  -19.6002 N   0  0  0  0  0  0  0  0  0  0  0  0
   26.3163  -15.6843  -18.2866 C   0  0  0  0  0  0  0  0  0  0  0  0
   24.9591  -15.7863  -17.6391 C   0  0  0  0  0  0  0  0  0  0  0  0
   24.9648  -15.0395  -16.3555 C   0  0  0  0  0  0  0  0  0  0  0  0
   23.6499  -15.0169  -15.6189 C   0  0  2  0  0  0  0  0  0  0  0  0
   22.7567  -15.8941  -16.3967 N   0  0  0  0  0  0  0  0  0  0  0  0
   23.0474  -13.6847  -15.5279 C   0  0  0  0  0  0  0  0  0  0  0  0
   22.2135  -13.2997  -16.4061 O   0  0  0  0  0  0  0  0  0  0  0  0
   26.1324  -17.6333  -21.5952 C   0  0  0  0  0  0  0  0  0  0  0  0
   23.3280  -10.8275  -13.1108 C   0  0  1  0  0  0  0  0  0  0  0  0
   22.7817  -11.4284  -14.4067 N   0  0  0  0  0  0  0  0  0  0  0  0
   23.3267  -12.7557  -14.5049 C   0  0  0  0  0  0  0  0  0  0  0  0
   23.0894  -10.5637  -15.5673 O   0  0  0  0  0  0  0  0  0  0  0  0
   23.8154  -11.0750  -16.4517 N   0  0  0  0  0  0  0  0  0  0  0  0
   22.6363   -9.2558  -15.7338 C   0  0  1  0  0  0  0  0  0  0  0  0
   22.8401   -8.3657  -16.8486 C   0  0  0  0  0  0  0  0  0  0  0  0
   22.4159   -9.0886  -18.0982 C   0  0  0  0  0  0  0  0  0  0  0  0
   22.5392   -8.3406  -19.3384 C   0  0  0  0  0  0  0  0  0  0  0  0
   23.6033   -8.3266  -20.2088 N   0  0  0  0  0  0  0  0  0  0  0  0
   23.3178   -7.4867  -21.2478 C   0  0  0  0  0  0  0  0  0  0  0  0
   22.0831   -6.9851  -21.0192 N   0  0  0  0  0  0  0  0  0  0  0  0
   21.6280   -7.5098  -19.8646 C   0  0  0  0  0  0  0  0  0  0  0  0
   22.1979   -7.0379  -16.6953 O   0  0  0  0  0  0  0  0  0  0  0  0
   22.7172   -5.8535  -17.1666 O   0  0  0  0  0  0  0  0  0  0  0  0
  2  1  1  0
  2  4  1  0
  3  2  2  0
  5  4  1  0
  6  5  1  0
  7  6  1  0
  8  9  1  6
  8  7  1  0
 10 11  2  0
 10  8  1  0
 13 12  1  1
 13 14  1  0
 13 15  1  0
 14 10  1  0
 15 17  1  0
 16 15  2  0
 17 18  1  0
 18 25  1  0
 18 19  1  1
 20 19  1  0
 21 20  2  0
 22 21  1  0
 23 22  1  0
 23 24  2  0
 24 20  1  0
 25 27  2  0
 25 26  1  0
M  END
$$$$
