RAH.pdb
     RDKit          3D

 27 27  0  0  1  0  0  0  0  0999 V2000
   19.6683  -14.9541  -17.5014 N   0  0  0  0  0  0  0  0  0  0  0  0
   20.8562  -15.6467  -17.8402 C   0  0  0  0  0  0  0  0  0  0  0  0
   20.8840  -16.8848  -18.2016 N   0  0  0  0  0  0  0  0  0  0  0  0
   22.1326  -14.9752  -17.7947 N   0  0  0  0  0  0  0  0  0  0  0  0
   22.2172  -13.5713  -17.4545 C   0  0  0  0  0  0  0  0  0  0  0  0
   23.6589  -13.1330  -17.4844 C   0  0  0  0  0  0  0  0  0  0  0  0
   23.7474  -11.6948  -17.1256 C   0  0  0  0  0  0  0  0  0  0  0  0
   25.1362  -11.1095  -17.1531 C   0  0  2  0  0  0  0  0  0  0  0  0
   25.8406  -11.7338  -16.0190 N   0  0  0  0  0  0  0  0  0  0  0  0
   25.1665   -9.6541  -16.9890 C   0  0  0  0  0  0  0  0  0  0  0  0
   25.0141   -9.1379  -15.8379 O   0  0  0  0  0  0  0  0  0  0  0  0
   21.8275  -17.2876  -18.3974 C   0  0  0  0  0  0  0  0  0  0  0  0
   25.8476   -6.7589  -19.2686 C   0  0  1  0  0  0  0  0  0  0  0  0
   25.3765   -7.3076  -17.9211 N   0  0  0  0  0  0  0  0  0  0  0  0
   25.3589   -8.7403  -18.0453 C   0  0  0  0  0  0  0  0  0  0  0  0
   24.0752   -6.7210  -17.5314 O   0  0  0  0  0  0  0  0  0  0  0  0
   23.0786   -7.4703  -17.6581 N   0  0  0  0  0  0  0  0  0  0  0  0
   23.8934   -5.4264  -17.0470 C   0  0  1  0  0  0  0  0  0  0  0  0
   22.6630   -4.7462  -16.7307 C   0  0  0  0  0  0  0  0  0  0  0  0
   21.8781   -5.6258  -15.7956 C   0  0  0  0  0  0  0  0  0  0  0  0
   20.6042   -5.0935  -15.3412 C   0  0  0  0  0  0  0  0  0  0  0  0
   20.0436   -3.8768  -15.6506 N   0  0  0  0  0  0  0  0  0  0  0  0
   18.8420   -3.7644  -15.0103 C   0  0  0  0  0  0  0  0  0  0  0  0
   18.6624   -4.9065  -14.3091 N   0  0  0  0  0  0  0  0  0  0  0  0
   19.7333   -5.6966  -14.5194 C   0  0  0  0  0  0  0  0  0  0  0  0
   22.8423   -3.3651  -16.2213 O   0  0  0  0  0  0  0  0  0  0  0  0
   24.0582   -2.7689  -15.9748 O   0  0  0  0  0  0  0  0  0  0  0  0
  2  1  1  0
  2  4  1  0
  3  2  2  0
  5  4  1  0
  6  5  1  0
  7  6  1  0
  8  9  1  1
  8  7  1  0
 10 11  2  0
 10  8  1  0
 13 12  1  1
 13 14  1  0
 13 15  1  0
 14 10  1  0
 15 17  1  0
 16 15  2  0
 17 18  1  0
 18 25  1  0
 18 19  1  6
 20 19  1  0
 21 20  2  0
 22 21  1  0
 23 22  1  0
 23 24  2  0
 24 20  1  0
 25 27  2  0
 25 26  1  0
M  END
$$$$
