DVC.pdb
     RDKit          3D

 22 21  0  0  1  0  0  0  0  0999 V2000
   17.5607  -12.3471  -17.2879 N   0  0  0  0  0  0  0  0  0  0  0  0
   17.4291  -11.5016  -16.1231 C   0  0  1  0  0  0  0  0  0  0  0  0
   17.9567  -12.2194  -14.9221 C   0  0  0  0  0  0  0  0  0  0  0  0
   17.0780  -13.3887  -14.6609 C   0  0  0  0  0  0  0  0  0  0  0  0
   15.8283  -13.2889  -14.6543 O   0  0  0  0  0  0  0  0  0  0  0  0
   18.0986  -10.2048  -16.3718 C   0  0  0  0  0  0  0  0  0  0  0  0
   19.1670  -10.2586  -17.0531 O   0  0  0  0  0  0  0  0  0  0  0  0
   17.6717  -14.6120  -14.4208 O   0  0  0  0  0  0  0  0  0  0  0  0
   16.5830   -7.2405  -18.1639 C   0  0  0  0  0  0  0  0  0  0  0  0
   17.2158   -6.7876  -16.8899 C   0  0  1  0  0  0  0  0  0  0  0  0
   16.1711   -6.4723  -15.8494 C   0  0  0  0  0  0  0  0  0  0  0  0
   18.2566   -7.7472  -16.4162 C   0  0  2  0  0  0  0  0  0  0  0  0
   17.6136   -8.9630  -15.8995 N   0  0  0  0  0  0  0  0  0  0  0  0
   18.9971   -7.1487  -15.2936 C   0  0  0  0  0  0  0  0  0  0  0  0
   18.5147   -7.3719  -14.1135 O   0  0  0  0  0  0  0  0  0  0  0  0
   20.1542   -6.3872  -15.4385 N   0  0  0  0  0  0  0  0  0  0  0  0
   20.7865   -5.8834  -14.2134 C   0  0  1  0  0  0  0  0  0  0  0  0
   21.9437   -6.8508  -13.9394 C   0  0  0  0  0  0  0  0  0  0  0  0
   22.9179   -6.1407  -12.5883 S   0  0  0  0  0  0  0  0  0  0  0  0
   21.2990   -4.5448  -14.4608 C   0  0  0  0  0  0  0  0  0  0  0  0
   21.5994   -3.6835  -13.4152 O   0  0  0  0  0  0  0  0  0  0  0  0
   21.4858   -4.1252  -15.6209 O   0  0  0  0  0  0  0  0  0  0  0  0
  2  1  1  6
  3  2  1  0
  3  4  1  0
  4  8  1  0
  5  4  2  0
  6  2  1  0
  6  7  2  0
 10  9  1  6
 10 12  1  0
 11 10  1  0
 12 14  1  0
 12 13  1  1
 13  6  1  0
 14 15  2  0
 16 14  1  0
 16 17  1  0
 17 20  1  0
 18 19  1  0
 17 18  1  6
 20 22  2  0
 20 21  1  0
M  END
$$$$
