DVC.pdb
     RDKit          3D

 22 21  0  0  1  0  0  0  0  0999 V2000
   18.8457  -10.8563  -18.0566 N   0  0  0  0  0  0  0  0  0  0  0  0
   17.8110  -10.2024  -17.2879 C   0  0  1  0  0  0  0  0  0  0  0  0
   17.0014  -11.2301  -16.5636 C   0  0  0  0  0  0  0  0  0  0  0  0
   16.4140  -12.1492  -17.5724 C   0  0  0  0  0  0  0  0  0  0  0  0
   15.8910  -11.7243  -18.6296 O   0  0  0  0  0  0  0  0  0  0  0  0
   18.4202   -9.1961  -16.3890 C   0  0  0  0  0  0  0  0  0  0  0  0
   17.6600   -8.7330  -15.4855 O   0  0  0  0  0  0  0  0  0  0  0  0
   16.4545  -13.5065  -17.3222 O   0  0  0  0  0  0  0  0  0  0  0  0
   22.2909   -7.9157  -16.8645 C   0  0  0  0  0  0  0  0  0  0  0  0
   21.6678   -7.6002  -15.5450 C   0  0  1  0  0  0  0  0  0  0  0  0
   22.1968   -6.3002  -14.9942 C   0  0  0  0  0  0  0  0  0  0  0  0
   20.1774   -7.6570  -15.6082 C   0  0  2  0  0  0  0  0  0  0  0  0
   19.7586   -8.7514  -16.4944 N   0  0  0  0  0  0  0  0  0  0  0  0
   19.6666   -6.4107  -16.2020 C   0  0  0  0  0  0  0  0  0  0  0  0
   19.5649   -6.3979  -17.4922 O   0  0  0  0  0  0  0  0  0  0  0  0
   19.2952   -5.2889  -15.4647 N   0  0  0  0  0  0  0  0  0  0  0  0
   18.7556   -4.1435  -16.2073 C   0  0  1  0  0  0  0  0  0  0  0  0
   17.3209   -4.5463  -16.5669 C   0  0  0  0  0  0  0  0  0  0  0  0
   16.5088   -3.0712  -17.2327 S   0  0  0  0  0  0  0  0  0  0  0  0
   18.7469   -2.9772  -15.3383 C   0  0  0  0  0  0  0  0  0  0  0  0
   18.9932   -1.7056  -15.8362 O   0  0  0  0  0  0  0  0  0  0  0  0
   18.5180   -3.0798  -14.1160 O   0  0  0  0  0  0  0  0  0  0  0  0
  2  1  1  1
  3  2  1  0
  3  4  1  0
  4  8  1  0
  5  4  2  0
  6  2  1  0
  6  7  2  0
 10  9  1  6
 10 12  1  0
 11 10  1  0
 12 14  1  0
 12 13  1  6
 13  6  1  0
 14 15  2  0
 16 14  1  0
 16 17  1  0
 17 20  1  0
 18 19  1  0
 17 18  1  1
 20 22  2  0
 20 21  1  0
M  END
$$$$
