DVC.pdb
     RDKit          3D

 22 21  0  0  1  0  0  0  0  0999 V2000
   29.3163  -35.2334   -4.1649 N   0  0  0  0  0  0  0  0  0  0  0  0
   28.3644  -35.5922   -3.1381 C   0  0  1  0  0  0  0  0  0  0  0  0
   28.9248  -36.6976   -2.3013 C   0  0  0  0  0  0  0  0  0  0  0  0
   28.1817  -37.9429   -2.6247 C   0  0  0  0  0  0  0  0  0  0  0  0
   27.2823  -37.9690   -3.4976 O   0  0  0  0  0  0  0  0  0  0  0  0
   28.0018  -34.3899   -2.3542 C   0  0  0  0  0  0  0  0  0  0  0  0
   28.9730  -33.6749   -1.9617 O   0  0  0  0  0  0  0  0  0  0  0  0
   28.5043  -39.0947   -1.9348 O   0  0  0  0  0  0  0  0  0  0  0  0
   25.6219  -31.5744   -3.3860 C   0  0  0  0  0  0  0  0  0  0  0  0
   25.3141  -32.0179   -1.9941 C   0  0  1  0  0  0  0  0  0  0  0  0
   24.0271  -32.8022   -1.9486 C   0  0  0  0  0  0  0  0  0  0  0  0
   26.4681  -32.7317   -1.3719 C   0  0  2  0  0  0  0  0  0  0  0  0
   26.6722  -34.0241   -2.0401 N   0  0  0  0  0  0  0  0  0  0  0  0
   26.1574  -33.0264    0.0364 C   0  0  0  0  0  0  0  0  0  0  0  0
   25.5935  -34.1686    0.2652 O   0  0  0  0  0  0  0  0  0  0  0  0
   26.4387  -32.1660    1.0950 N   0  0  0  0  0  0  0  0  0  0  0  0
   26.0116  -32.5853    2.4352 C   0  0  1  0  0  0  0  0  0  0  0  0
   26.9894  -31.8977    3.3948 C   0  0  0  0  0  0  0  0  0  0  0  0
   28.6176  -32.6373    3.1103 S   0  0  0  0  0  0  0  0  0  0  0  0
   24.6577  -32.1092    2.6715 C   0  0  0  0  0  0  0  0  0  0  0  0
   23.9901  -32.3927    3.8544 O   0  0  0  0  0  0  0  0  0  0  0  0
   24.0503  -31.4299    1.8191 O   0  0  0  0  0  0  0  0  0  0  0  0
  2  1  1  6
  3  2  1  0
  3  4  1  0
  4  8  1  0
  5  4  2  0
  6  2  1  0
  6  7  2  0
 10  9  1  6
 10 12  1  0
 11 10  1  0
 12 14  1  0
 12 13  1  6
 13  6  1  0
 14 15  2  0
 16 14  1  0
 16 17  1  0
 17 20  1  0
 18 19  1  0
 17 18  1  1
 20 22  2  0
 20 21  1  0
M  END
$$$$
