DVC.pdb
     RDKit          3D

 22 21  0  0  1  0  0  0  0  0999 V2000
   20.6140  -11.2295  -17.8478 N   0  0  0  0  0  0  0  0  0  0  0  0
   21.5493  -10.1909  -17.4796 C   0  0  1  0  0  0  0  0  0  0  0  0
   22.2313   -9.6746  -18.7062 C   0  0  0  0  0  0  0  0  0  0  0  0
   23.0324  -10.7820  -19.2888 C   0  0  0  0  0  0  0  0  0  0  0  0
   22.9814  -11.0648  -20.5092 O   0  0  0  0  0  0  0  0  0  0  0  0
   20.8462   -9.1376  -16.7129 C   0  0  0  0  0  0  0  0  0  0  0  0
   19.6986   -8.8146  -17.1457 O   0  0  0  0  0  0  0  0  0  0  0  0
   23.8510  -11.5094  -18.4478 O   0  0  0  0  0  0  0  0  0  0  0  0
   19.4321   -9.0952  -13.1948 C   0  0  0  0  0  0  0  0  0  0  0  0
   20.4229   -7.9975  -13.3999 C   0  0  1  0  0  0  0  0  0  0  0  0
   21.7594   -8.3567  -12.8016 C   0  0  0  0  0  0  0  0  0  0  0  0
   20.5038   -7.5844  -14.8321 C   0  0  2  0  0  0  0  0  0  0  0  0
   21.3817   -8.5056  -15.5665 N   0  0  0  0  0  0  0  0  0  0  0  0
   21.1193   -6.2502  -14.9209 C   0  0  0  0  0  0  0  0  0  0  0  0
   22.4085   -6.2127  -14.8141 O   0  0  0  0  0  0  0  0  0  0  0  0
   20.4036   -5.0711  -15.1143 N   0  0  0  0  0  0  0  0  0  0  0  0
   21.1675   -3.8183  -15.1523 C   0  0  1  0  0  0  0  0  0  0  0  0
   20.8143   -3.1809  -16.5009 C   0  0  0  0  0  0  0  0  0  0  0  0
   21.5209   -1.5137  -16.4990 S   0  0  0  0  0  0  0  0  0  0  0  0
   20.7279   -2.9621  -14.0617 C   0  0  0  0  0  0  0  0  0  0  0  0
   19.4184   -2.9932  -13.6039 O   0  0  0  0  0  0  0  0  0  0  0  0
   21.5126   -2.1706  -13.5008 O   0  0  0  0  0  0  0  0  0  0  0  0
  2  1  1  6
  3  2  1  0
  3  4  1  0
  4  8  1  0
  5  4  2  0
  6  2  1  0
  6  7  2  0
 10  9  1  6
 10 12  1  0
 11 10  1  0
 12 14  1  0
 12 13  1  6
 13  6  1  0
 14 15  2  0
 16 14  1  0
 16 17  1  0
 17 20  1  0
 18 19  1  0
 17 18  1  6
 20 22  2  0
 20 21  1  0
M  END
$$$$
