DVC.pdb
     RDKit          3D

 22 21  0  0  1  0  0  0  0  0999 V2000
   18.0987  -14.7733  -16.7124 N   0  0  0  0  0  0  0  0  0  0  0  0
   17.7051  -13.3826  -16.7097 C   0  0  1  0  0  0  0  0  0  0  0  0
   16.4630  -13.2163  -15.8938 C   0  0  0  0  0  0  0  0  0  0  0  0
   15.3525  -13.9074  -16.5985 C   0  0  0  0  0  0  0  0  0  0  0  0
   14.8157  -14.9409  -16.1343 O   0  0  0  0  0  0  0  0  0  0  0  0
   18.8327  -12.5477  -16.2372 C   0  0  0  0  0  0  0  0  0  0  0  0
   19.4851  -13.0096  -15.2526 O   0  0  0  0  0  0  0  0  0  0  0  0
   14.9120  -13.3825  -17.7973 O   0  0  0  0  0  0  0  0  0  0  0  0
   21.8876  -11.6582  -17.9775 C   0  0  0  0  0  0  0  0  0  0  0  0
   21.3579  -10.3874  -17.4003 C   0  0  1  0  0  0  0  0  0  0  0  0
   20.8074   -9.4910  -18.4805 C   0  0  0  0  0  0  0  0  0  0  0  0
   20.3931  -10.6427  -16.2901 C   0  0  2  0  0  0  0  0  0  0  0  0
   19.1943  -11.3092  -16.8166 N   0  0  0  0  0  0  0  0  0  0  0  0
   19.9505   -9.3583  -15.7235 C   0  0  0  0  0  0  0  0  0  0  0  0
   19.0133   -8.7456  -16.3726 O   0  0  0  0  0  0  0  0  0  0  0  0
   20.4709   -8.7970  -14.5599 N   0  0  0  0  0  0  0  0  0  0  0  0
   19.9564   -7.4824  -14.1580 C   0  0  1  0  0  0  0  0  0  0  0  0
   19.8791   -7.5391  -12.6281 C   0  0  0  0  0  0  0  0  0  0  0  0
   18.5188   -8.6581  -12.2085 S   0  0  0  0  0  0  0  0  0  0  0  0
   20.8995   -6.4567  -14.5755 C   0  0  0  0  0  0  0  0  0  0  0  0
   22.0933   -6.7869  -15.2009 O   0  0  0  0  0  0  0  0  0  0  0  0
   20.6677   -5.2455  -14.3857 O   0  0  0  0  0  0  0  0  0  0  0  0
  2  1  1  1
  3  2  1  0
  3  4  1  0
  4  8  1  0
  5  4  2  0
  6  2  1  0
  6  7  2  0
 10  9  1  6
 10 12  1  0
 11 10  1  0
 12 14  1  0
 12 13  1  6
 13  6  1  0
 14 15  2  0
 16 14  1  0
 16 17  1  0
 17 20  1  0
 18 19  1  0
 17 18  1  1
 20 22  2  0
 20 21  1  0
M  END
$$$$
