DVC.pdb
     RDKit          3D

 22 21  0  0  1  0  0  0  0  0999 V2000
   13.6004  -11.4565  -12.6409 N   0  0  0  0  0  0  0  0  0  0  0  0
   15.0144  -11.2895  -12.3925 C   0  0  1  0  0  0  0  0  0  0  0  0
   15.7908  -11.7835  -13.5713 C   0  0  0  0  0  0  0  0  0  0  0  0
   15.7553  -13.2688  -13.5569 C   0  0  0  0  0  0  0  0  0  0  0  0
   14.6756  -13.9047  -13.5164 O   0  0  0  0  0  0  0  0  0  0  0  0
   15.2966   -9.8758  -12.0558 C   0  0  0  0  0  0  0  0  0  0  0  0
   14.7812   -9.0123  -12.8287 O   0  0  0  0  0  0  0  0  0  0  0  0
   16.9550  -13.9517  -13.5899 O   0  0  0  0  0  0  0  0  0  0  0  0
   16.5322   -6.4118   -8.8555 C   0  0  0  0  0  0  0  0  0  0  0  0
   16.0176   -7.7602   -9.2372 C   0  0  1  0  0  0  0  0  0  0  0  0
   14.6030   -7.9559   -8.7535 C   0  0  0  0  0  0  0  0  0  0  0  0
   16.1898   -8.0266  -10.6959 C   0  0  2  0  0  0  0  0  0  0  0  0
   16.0842   -9.4692  -10.9537 N   0  0  0  0  0  0  0  0  0  0  0  0
   17.5425   -7.6194  -11.1097 C   0  0  0  0  0  0  0  0  0  0  0  0
   18.5089   -8.3885  -10.7230 O   0  0  0  0  0  0  0  0  0  0  0  0
   17.8180   -6.4894  -11.8760 N   0  0  0  0  0  0  0  0  0  0  0  0
   19.1988   -6.3114  -12.3408 C   0  0  1  0  0  0  0  0  0  0  0  0
   19.4826   -7.5380  -13.2152 C   0  0  0  0  0  0  0  0  0  0  0  0
   21.1651   -7.3513  -13.8580 S   0  0  0  0  0  0  0  0  0  0  0  0
   19.2774   -5.0974  -13.1380 C   0  0  0  0  0  0  0  0  0  0  0  0
   20.4492   -4.3577  -13.2111 O   0  0  0  0  0  0  0  0  0  0  0  0
   18.2946   -4.6794  -13.7832 O   0  0  0  0  0  0  0  0  0  0  0  0
  2  1  1  6
  3  2  1  0
  3  4  1  0
  4  8  1  0
  5  4  2  0
  6  2  1  0
  6  7  2  0
 10  9  1  6
 10 12  1  0
 11 10  1  0
 12 14  1  0
 12 13  1  1
 13  6  1  0
 14 15  2  0
 16 14  1  0
 16 17  1  0
 17 20  1  0
 18 19  1  0
 17 18  1  6
 20 22  2  0
 20 21  1  0
M  END
$$$$
