DVC.pdb
     RDKit          3D

 22 21  0  0  1  0  0  0  0  0999 V2000
   22.7260  -11.1532  -18.6707 N   0  0  0  0  0  0  0  0  0  0  0  0
   23.0242   -9.9012  -18.0129 C   0  0  1  0  0  0  0  0  0  0  0  0
   23.6890   -8.9744  -18.9801 C   0  0  0  0  0  0  0  0  0  0  0  0
   24.9992   -9.5644  -19.3577 C   0  0  0  0  0  0  0  0  0  0  0  0
   25.7665  -10.0720  -18.5060 O   0  0  0  0  0  0  0  0  0  0  0  0
   21.7869   -9.3428  -17.4222 C   0  0  0  0  0  0  0  0  0  0  0  0
   20.7568   -9.3842  -18.1610 O   0  0  0  0  0  0  0  0  0  0  0  0
   25.3658   -9.5446  -20.6888 O   0  0  0  0  0  0  0  0  0  0  0  0
   19.6452  -10.3452  -14.4523 C   0  0  0  0  0  0  0  0  0  0  0  0
   20.0880   -8.9247  -14.3303 C   0  0  1  0  0  0  0  0  0  0  0  0
   21.2129   -8.7926  -13.3351 C   0  0  0  0  0  0  0  0  0  0  0  0
   20.3978   -8.3245  -15.6616 C   0  0  2  0  0  0  0  0  0  0  0  0
   21.7129   -8.7895  -16.1228 N   0  0  0  0  0  0  0  0  0  0  0  0
   20.4878   -6.8613  -15.5278 C   0  0  0  0  0  0  0  0  0  0  0  0
   21.5613   -6.4089  -14.9640 O   0  0  0  0  0  0  0  0  0  0  0  0
   19.5090   -5.9747  -15.9705 N   0  0  0  0  0  0  0  0  0  0  0  0
   19.7047   -4.5513  -15.6708 C   0  0  1  0  0  0  0  0  0  0  0  0
   20.0069   -3.9001  -17.0252 C   0  0  0  0  0  0  0  0  0  0  0  0
   20.0576   -2.1108  -16.7521 S   0  0  0  0  0  0  0  0  0  0  0  0
   18.4734   -4.0102  -15.1170 C   0  0  0  0  0  0  0  0  0  0  0  0
   18.4837   -2.8964  -14.2894 O   0  0  0  0  0  0  0  0  0  0  0  0
   17.3662   -4.5286  -15.3667 O   0  0  0  0  0  0  0  0  0  0  0  0
  2  1  1  6
  3  2  1  0
  3  4  1  0
  4  8  1  0
  5  4  2  0
  6  2  1  0
  6  7  2  0
 10  9  1  6
 10 12  1  0
 11 10  1  0
 12 14  1  0
 12 13  1  1
 13  6  1  0
 14 15  2  0
 16 14  1  0
 16 17  1  0
 17 20  1  0
 18 19  1  0
 17 18  1  6
 20 22  2  0
 20 21  1  0
M  END
$$$$
