DVC.pdb
     RDKit          3D

 22 21  0  0  1  0  0  0  0  0999 V2000
   19.5438  -13.2572  -17.1310 N   0  0  0  0  0  0  0  0  0  0  0  0
   19.1914  -11.8591  -17.2313 C   0  0  1  0  0  0  0  0  0  0  0  0
   17.7734  -11.6686  -16.7960 C   0  0  0  0  0  0  0  0  0  0  0  0
   16.8898  -12.0143  -17.9393 C   0  0  0  0  0  0  0  0  0  0  0  0
   15.7303  -11.5492  -18.0438 O   0  0  0  0  0  0  0  0  0  0  0  0
   20.1563  -11.0463  -16.4568 C   0  0  0  0  0  0  0  0  0  0  0  0
   20.2897  -11.3647  -15.2364 O   0  0  0  0  0  0  0  0  0  0  0  0
   17.3760  -12.8735  -18.9048 O   0  0  0  0  0  0  0  0  0  0  0  0
   23.7568  -10.2412  -17.3330 C   0  0  0  0  0  0  0  0  0  0  0  0
   23.1106   -8.9927  -16.8307 C   0  0  1  0  0  0  0  0  0  0  0  0
   22.9571   -7.9803  -17.9375 C   0  0  0  0  0  0  0  0  0  0  0  0
   21.8373   -9.2803  -16.1067 C   0  0  2  0  0  0  0  0  0  0  0  0
   20.9024   -9.9755  -17.0019 N   0  0  0  0  0  0  0  0  0  0  0  0
   21.1957   -8.0115  -15.7253 C   0  0  0  0  0  0  0  0  0  0  0  0
   20.4279   -7.4741  -16.6179 O   0  0  0  0  0  0  0  0  0  0  0  0
   21.3662   -7.3901  -14.4905 N   0  0  0  0  0  0  0  0  0  0  0  0
   20.7878   -6.0514  -14.3249 C   0  0  1  0  0  0  0  0  0  0  0  0
   19.4603   -6.2823  -13.5938 C   0  0  0  0  0  0  0  0  0  0  0  0
   19.8318   -7.2692  -12.1219 S   0  0  0  0  0  0  0  0  0  0  0  0
   21.6800   -5.2480  -13.5038 C   0  0  0  0  0  0  0  0  0  0  0  0
   22.8386   -5.7848  -12.9608 O   0  0  0  0  0  0  0  0  0  0  0  0
   21.4344   -4.0493  -13.2596 O   0  0  0  0  0  0  0  0  0  0  0  0
  2  1  1  1
  3  2  1  0
  3  4  1  0
  4  8  1  0
  5  4  2  0
  6  2  1  0
  6  7  2  0
 10  9  1  6
 10 12  1  0
 11 10  1  0
 12 14  1  0
 12 13  1  6
 13  6  1  0
 14 15  2  0
 16 14  1  0
 16 17  1  0
 17 20  1  0
 18 19  1  0
 17 18  1  1
 20 22  2  0
 20 21  1  0
M  END
$$$$
