DVC.pdb
     RDKit          3D

 22 21  0  0  1  0  0  0  0  0999 V2000
   19.0018  -12.1338  -16.9547 N   0  0  0  0  0  0  0  0  0  0  0  0
   20.1140  -11.2116  -16.9156 C   0  0  1  0  0  0  0  0  0  0  0  0
   20.6292  -10.9907  -18.3020 C   0  0  0  0  0  0  0  0  0  0  0  0
   21.2047  -12.2708  -18.7893 C   0  0  0  0  0  0  0  0  0  0  0  0
   20.6922  -12.9074  -19.7400 O   0  0  0  0  0  0  0  0  0  0  0  0
   19.7001   -9.9619  -16.2383 C   0  0  0  0  0  0  0  0  0  0  0  0
   18.6011   -9.4627  -16.6274 O   0  0  0  0  0  0  0  0  0  0  0  0
   22.3363  -12.7582  -18.1659 O   0  0  0  0  0  0  0  0  0  0  0  0
   18.5623   -9.2151  -12.8694 C   0  0  0  0  0  0  0  0  0  0  0  0
   19.6972   -8.2910  -13.1639 C   0  0  1  0  0  0  0  0  0  0  0  0
   20.9476   -8.7223  -12.4402 C   0  0  0  0  0  0  0  0  0  0  0  0
   19.8937   -8.1048  -14.6319 C   0  0  2  0  0  0  0  0  0  0  0  0
   20.4504   -9.3314  -15.2186 N   0  0  0  0  0  0  0  0  0  0  0  0
   20.8824   -7.0384  -14.8603 C   0  0  0  0  0  0  0  0  0  0  0  0
   22.1156   -7.3479  -14.6188 O   0  0  0  0  0  0  0  0  0  0  0  0
   20.5628   -5.7609  -15.3142 N   0  0  0  0  0  0  0  0  0  0  0  0
   21.6650   -4.8026  -15.4593 C   0  0  1  0  0  0  0  0  0  0  0  0
   21.3689   -4.0545  -16.7641 C   0  0  0  0  0  0  0  0  0  0  0  0
   21.5280   -5.2553  -18.1100 S   0  0  0  0  0  0  0  0  0  0  0  0
   21.6417   -3.8800  -14.3350 C   0  0  0  0  0  0  0  0  0  0  0  0
   22.7458   -3.1015  -14.0186 O   0  0  0  0  0  0  0  0  0  0  0  0
   20.6288   -3.7571  -13.6169 O   0  0  0  0  0  0  0  0  0  0  0  0
  2  1  1  6
  3  2  1  0
  3  4  1  0
  4  8  1  0
  5  4  2  0
  6  2  1  0
  6  7  2  0
 10  9  1  6
 10 12  1  0
 11 10  1  0
 12 14  1  0
 12 13  1  1
 13  6  1  0
 14 15  2  0
 16 14  1  0
 16 17  1  0
 17 20  1  0
 18 19  1  0
 17 18  1  6
 20 22  2  0
 20 21  1  0
M  END
$$$$
