NLV.pdb
     RDKit          3D

 24 23  0  0  1  0  0  0  0  0999 V2000
    9.7444  -15.7003   18.0682 N   0  0  0  0  0  0  0  0  0  0  0  0
    8.5995  -15.3457   18.8248 C   0  0  0  0  0  0  0  0  0  0  0  0
    7.4827  -15.4194   18.2652 O   0  0  0  0  0  0  0  0  0  0  0  0
    8.7418  -14.9092   20.2180 C   0  0  0  0  0  0  0  0  0  0  0  0
    8.1341  -15.9157   21.1828 C   0  0  2  0  0  0  0  0  0  0  0  0
    6.7025  -15.8869   21.0722 N   0  0  0  0  0  0  0  0  0  0  0  0
    8.5987  -15.5425   22.5473 C   0  0  0  0  0  0  0  0  0  0  0  0
    9.8637  -15.4042   22.6703 O   0  0  0  0  0  0  0  0  0  0  0  0
    8.2727  -12.0825   25.7116 C   0  0  0  0  0  0  0  0  0  0  0  0
    7.0216  -12.9500   25.4523 C   0  0  2  0  0  0  0  0  0  0  0  0
    5.9647  -12.3381   26.3369 C   0  0  0  0  0  0  0  0  0  0  0  0
    7.3533  -14.3358   25.8294 C   0  0  0  0  0  0  0  0  0  0  0  0
    8.2280  -15.1249   24.9375 C   0  0  2  0  0  0  0  0  0  0  0  0
    7.7106  -15.3545   23.6285 N   0  0  0  0  0  0  0  0  0  0  0  0
    8.7509  -16.3964   25.4833 C   0  0  0  0  0  0  0  0  0  0  0  0
    7.9672  -17.3973   25.6433 O   0  0  0  0  0  0  0  0  0  0  0  0
   12.6087  -19.2940   26.3406 C   0  0  0  0  0  0  0  0  0  0  0  0
   12.0170  -18.0329   25.7593 C   0  0  1  0  0  0  0  0  0  0  0  0
   11.9893  -18.0256   24.2572 C   0  0  0  0  0  0  0  0  0  0  0  0
   10.6378  -17.8062   26.3506 C   0  0  2  0  0  0  0  0  0  0  0  0
   10.1247  -16.5507   25.8410 N   0  0  0  0  0  0  0  0  0  0  0  0
   10.6535  -17.8152   27.8157 C   0  0  0  0  0  0  0  0  0  0  0  0
   10.6361  -19.0211   28.4938 O   0  0  0  0  0  0  0  0  0  0  0  0
   10.6824  -16.7389   28.4998 O   0  0  0  0  0  0  0  0  0  0  0  0
  1  2  1  0
  2  3  2  0
  4  2  1  0
  4  5  1  0
  5  6  1  1
  7  8  2  0
  7  5  1  0
 10  9  1  1
 10 11  1  0
 10 12  1  0
 13 12  1  1
 13 14  1  0
 14  7  1  0
 15 13  1  0
 16 15  2  0
 18 17  1  6
 19 18  1  0
 20 18  1  0
 20 21  1  1
 21 15  1  0
 22 20  1  0
 23 22  1  0
 24 22  2  0
M  END
$$$$
