NLV.pdb
     RDKit          3D

 24 23  0  0  1  0  0  0  0  0999 V2000
   12.4218  -19.0060   19.9372 N   0  0  0  0  0  0  0  0  0  0  0  0
   11.1743  -18.7678   20.5665 C   0  0  0  0  0  0  0  0  0  0  0  0
   10.1847  -19.4234   20.1706 O   0  0  0  0  0  0  0  0  0  0  0  0
   11.0691  -17.7800   21.6458 C   0  0  0  0  0  0  0  0  0  0  0  0
    9.9579  -16.7767   21.3776 C   0  0  2  0  0  0  0  0  0  0  0  0
   10.2819  -15.9961   20.2166 N   0  0  0  0  0  0  0  0  0  0  0  0
    9.8288  -15.9365   22.6001 C   0  0  0  0  0  0  0  0  0  0  0  0
   10.8781  -15.2797   22.9197 O   0  0  0  0  0  0  0  0  0  0  0  0
    5.6093  -13.1569   26.0524 C   0  0  0  0  0  0  0  0  0  0  0  0
    7.1147  -13.4242   25.8344 C   0  0  2  0  0  0  0  0  0  0  0  0
    7.6659  -12.0834   25.4191 C   0  0  0  0  0  0  0  0  0  0  0  0
    7.2383  -14.4467   24.7799 C   0  0  0  0  0  0  0  0  0  0  0  0
    8.5711  -15.0186   24.4976 C   0  0  2  0  0  0  0  0  0  0  0  0
    8.6369  -15.8675   23.3535 N   0  0  0  0  0  0  0  0  0  0  0  0
    9.2601  -15.6751   25.6301 C   0  0  0  0  0  0  0  0  0  0  0  0
    9.4070  -16.9478   25.6420 O   0  0  0  0  0  0  0  0  0  0  0  0
   11.2293  -13.2426   28.3230 C   0  0  0  0  0  0  0  0  0  0  0  0
   10.7510  -14.5540   28.8974 C   0  0  1  0  0  0  0  0  0  0  0  0
    9.5147  -14.4193   29.7403 C   0  0  0  0  0  0  0  0  0  0  0  0
   10.5614  -15.5556   27.7731 C   0  0  2  0  0  0  0  0  0  0  0  0
    9.7797  -14.9253   26.7286 N   0  0  0  0  0  0  0  0  0  0  0  0
    9.9274  -16.7938   28.2335 C   0  0  0  0  0  0  0  0  0  0  0  0
   10.6905  -17.7615   28.8625 O   0  0  0  0  0  0  0  0  0  0  0  0
    8.6817  -17.0173   28.0741 O   0  0  0  0  0  0  0  0  0  0  0  0
  1  2  1  0
  2  3  2  0
  4  2  1  0
  4  5  1  0
  5  6  1  6
  7  8  2  0
  7  5  1  0
 10  9  1  6
 10 11  1  0
 10 12  1  0
 13 12  1  1
 13 14  1  0
 14  7  1  0
 15 13  1  0
 16 15  2  0
 18 17  1  6
 19 18  1  0
 20 18  1  0
 20 21  1  6
 21 15  1  0
 22 20  1  0
 23 22  1  0
 24 22  2  0
M  END
$$$$
