NLV.pdb
     RDKit          3D

 24 23  0  0  1  0  0  0  0  0999 V2000
   10.5848  -19.7421   20.2451 N   0  0  0  0  0  0  0  0  0  0  0  0
    9.8533  -19.6401   21.4548 C   0  0  0  0  0  0  0  0  0  0  0  0
    9.0641  -20.5680   21.7413 O   0  0  0  0  0  0  0  0  0  0  0  0
   10.0313  -18.4755   22.3287 C   0  0  0  0  0  0  0  0  0  0  0  0
    8.9447  -17.4359   22.1011 C   0  0  2  0  0  0  0  0  0  0  0  0
    8.9786  -16.9929   20.7355 N   0  0  0  0  0  0  0  0  0  0  0  0
    9.2018  -16.3242   23.0577 C   0  0  0  0  0  0  0  0  0  0  0  0
   10.3347  -15.7467   22.9258 O   0  0  0  0  0  0  0  0  0  0  0  0
    7.1129  -12.1748   24.4228 C   0  0  0  0  0  0  0  0  0  0  0  0
    6.4143  -13.4767   24.8726 C   0  0  2  0  0  0  0  0  0  0  0  0
    5.2702  -12.9981   25.7305 C   0  0  0  0  0  0  0  0  0  0  0  0
    7.3995  -14.2754   25.6238 C   0  0  0  0  0  0  0  0  0  0  0  0
    8.5599  -14.8354   24.9006 C   0  0  2  0  0  0  0  0  0  0  0  0
    8.2658  -15.9337   24.0397 N   0  0  0  0  0  0  0  0  0  0  0  0
    9.7497  -15.1625   25.7164 C   0  0  0  0  0  0  0  0  0  0  0  0
   10.8015  -14.4349   25.6391 O   0  0  0  0  0  0  0  0  0  0  0  0
   10.7848  -15.1390   30.0134 C   0  0  0  0  0  0  0  0  0  0  0  0
   10.0241  -15.1426   28.7097 C   0  0  1  0  0  0  0  0  0  0  0  0
   10.0485  -13.8175   28.0023 C   0  0  0  0  0  0  0  0  0  0  0  0
   10.5438  -16.2631   27.8279 C   0  0  2  0  0  0  0  0  0  0  0  0
    9.7654  -16.2794   26.6060 N   0  0  0  0  0  0  0  0  0  0  0  0
   10.5001  -17.5644   28.4999 C   0  0  0  0  0  0  0  0  0  0  0  0
   11.5884  -17.9901   29.2406 O   0  0  0  0  0  0  0  0  0  0  0  0
    9.4831  -18.3310   28.4269 O   0  0  0  0  0  0  0  0  0  0  0  0
  1  2  1  0
  2  3  2  0
  4  2  1  0
  4  5  1  0
  5  6  1  6
  7  8  2  0
  7  5  1  0
 10  9  1  1
 10 11  1  0
 10 12  1  0
 13 12  1  1
 13 14  1  0
 14  7  1  0
 15 13  1  0
 16 15  2  0
 18 17  1  1
 19 18  1  0
 20 18  1  0
 20 21  1  6
 21 15  1  0
 22 20  1  0
 23 22  1  0
 24 22  2  0
M  END
$$$$
