NLV.pdb
     RDKit          3D

 24 23  0  0  1  0  0  0  0  0999 V2000
    7.1029  -20.1173   21.6822 N   0  0  0  0  0  0  0  0  0  0  0  0
    8.4618  -19.7221   21.6022 C   0  0  0  0  0  0  0  0  0  0  0  0
    9.2186  -20.3783   20.8522 O   0  0  0  0  0  0  0  0  0  0  0  0
    8.9443  -18.5771   22.3818 C   0  0  0  0  0  0  0  0  0  0  0  0
    8.3441  -17.2710   21.8848 C   0  0  2  0  0  0  0  0  0  0  0  0
    8.7483  -17.0398   20.5262 N   0  0  0  0  0  0  0  0  0  0  0  0
    8.8204  -16.1988   22.8017 C   0  0  0  0  0  0  0  0  0  0  0  0
    9.9899  -15.7488   22.5481 O   0  0  0  0  0  0  0  0  0  0  0  0
    7.2833  -11.8270   24.5285 C   0  0  0  0  0  0  0  0  0  0  0  0
    6.5712  -13.1386   24.9259 C   0  0  2  0  0  0  0  0  0  0  0  0
    5.4835  -12.6906   25.8696 C   0  0  0  0  0  0  0  0  0  0  0  0
    7.5688  -14.0099   25.5727 C   0  0  0  0  0  0  0  0  0  0  0  0
    8.5661  -14.6978   24.7270 C   0  0  2  0  0  0  0  0  0  0  0  0
    8.0408  -15.7125   23.8734 N   0  0  0  0  0  0  0  0  0  0  0  0
    9.7686  -15.2161   25.4150 C   0  0  0  0  0  0  0  0  0  0  0  0
   10.9356  -14.8561   25.0276 O   0  0  0  0  0  0  0  0  0  0  0  0
    9.2330  -14.4728   28.7724 C   0  0  0  0  0  0  0  0  0  0  0  0
   10.6230  -14.7484   28.2523 C   0  0  1  0  0  0  0  0  0  0  0  0
   11.6887  -14.6179   29.3030 C   0  0  0  0  0  0  0  0  0  0  0  0
   10.6494  -16.1126   27.5877 C   0  0  2  0  0  0  0  0  0  0  0  0
    9.6717  -16.1173   26.5185 N   0  0  0  0  0  0  0  0  0  0  0  0
   10.3977  -17.1985   28.5388 C   0  0  0  0  0  0  0  0  0  0  0  0
    9.2483  -17.9595   28.4215 O   0  0  0  0  0  0  0  0  0  0  0  0
   11.2088  -17.4727   29.4844 O   0  0  0  0  0  0  0  0  0  0  0  0
  1  2  1  0
  2  3  2  0
  4  2  1  0
  4  5  1  0
  5  6  1  6
  7  8  2  0
  7  5  1  0
 10  9  1  1
 10 11  1  0
 10 12  1  0
 13 12  1  1
 13 14  1  0
 14  7  1  0
 15 13  1  0
 16 15  2  0
 18 17  1  1
 19 18  1  0
 20 18  1  0
 20 21  1  6
 21 15  1  0
 22 20  1  0
 23 22  1  0
 24 22  2  0
M  END
$$$$
