NLV.pdb
     RDKit          3D

 24 23  0  0  1  0  0  0  0  0999 V2000
    7.1947  -12.8239   18.8037 N   0  0  0  0  0  0  0  0  0  0  0  0
    8.1858  -13.6888   19.3315 C   0  0  0  0  0  0  0  0  0  0  0  0
    8.7735  -14.4580   18.5385 O   0  0  0  0  0  0  0  0  0  0  0  0
    8.4975  -13.6663   20.7648 C   0  0  0  0  0  0  0  0  0  0  0  0
    8.3794  -15.0508   21.3832 C   0  0  2  0  0  0  0  0  0  0  0  0
    7.0537  -15.5618   21.1736 N   0  0  0  0  0  0  0  0  0  0  0  0
    8.7032  -14.9082   22.8295 C   0  0  0  0  0  0  0  0  0  0  0  0
    9.8809  -14.4793   23.0815 O   0  0  0  0  0  0  0  0  0  0  0  0
    8.2872  -12.1128   26.1191 C   0  0  0  0  0  0  0  0  0  0  0  0
    7.0402  -12.9351   25.7265 C   0  0  2  0  0  0  0  0  0  0  0  0
    5.9277  -12.3181   26.5364 C   0  0  0  0  0  0  0  0  0  0  0  0
    7.3006  -14.3404   26.0867 C   0  0  0  0  0  0  0  0  0  0  0  0
    8.1826  -15.1452   25.2165 C   0  0  2  0  0  0  0  0  0  0  0  0
    7.7802  -15.2225   23.8504 N   0  0  0  0  0  0  0  0  0  0  0  0
    8.5265  -16.5005   25.6992 C   0  0  0  0  0  0  0  0  0  0  0  0
    7.6400  -17.2192   26.2815 O   0  0  0  0  0  0  0  0  0  0  0  0
   10.8168  -19.0321   23.7382 C   0  0  0  0  0  0  0  0  0  0  0  0
   11.2916  -18.9257   25.1671 C   0  0  1  0  0  0  0  0  0  0  0  0
   12.5607  -18.1357   25.3156 C   0  0  0  0  0  0  0  0  0  0  0  0
   10.1739  -18.3656   26.0274 C   0  0  2  0  0  0  0  0  0  0  0  0
    9.8352  -17.0467   25.5322 N   0  0  0  0  0  0  0  0  0  0  0  0
   10.5351  -18.3206   27.4468 C   0  0  0  0  0  0  0  0  0  0  0  0
   10.4709  -19.4747   28.2071 O   0  0  0  0  0  0  0  0  0  0  0  0
   10.9111  -17.2430   28.0165 O   0  0  0  0  0  0  0  0  0  0  0  0
  1  2  1  0
  2  3  2  0
  4  2  1  0
  4  5  1  0
  5  6  1  1
  7  8  2  0
  7  5  1  0
 10  9  1  1
 10 11  1  0
 10 12  1  0
 13 12  1  1
 13 14  1  0
 14  7  1  0
 15 13  1  0
 16 15  2  0
 18 17  1  6
 19 18  1  0
 20 18  1  0
 20 21  1  6
 21 15  1  0
 22 20  1  0
 23 22  1  0
 24 22  2  0
M  END
$$$$
