NLV.pdb
     RDKit          3D

 24 23  0  0  1  0  0  0  0  0999 V2000
   12.4068  -19.9298   19.4273 N   0  0  0  0  0  0  0  0  0  0  0  0
   11.2410  -19.5792   20.1532 C   0  0  0  0  0  0  0  0  0  0  0  0
   10.5257  -20.5063   20.5945 O   0  0  0  0  0  0  0  0  0  0  0  0
   10.9027  -18.1683   20.3692 C   0  0  0  0  0  0  0  0  0  0  0  0
   10.2573  -17.9512   21.7291 C   0  0  2  0  0  0  0  0  0  0  0  0
    9.0216  -18.6796   21.7990 N   0  0  0  0  0  0  0  0  0  0  0  0
   10.0527  -16.4842   21.8822 C   0  0  0  0  0  0  0  0  0  0  0  0
   11.1252  -15.7925   21.9580 O   0  0  0  0  0  0  0  0  0  0  0  0
    8.3485  -12.5264   19.7872 C   0  0  0  0  0  0  0  0  0  0  0  0
    7.3453  -13.6482   20.1341 C   0  0  2  0  0  0  0  0  0  0  0  0
    6.0131  -13.0929   19.6970 C   0  0  0  0  0  0  0  0  0  0  0  0
    7.4208  -13.8809   21.5877 C   0  0  0  0  0  0  0  0  0  0  0  0
    8.6446  -14.4913   22.1469 C   0  0  2  0  0  0  0  0  0  0  0  0
    8.7704  -15.8968   21.9399 N   0  0  0  0  0  0  0  0  0  0  0  0
    8.9504  -14.1790   23.5600 C   0  0  0  0  0  0  0  0  0  0  0  0
    9.4550  -13.0434   23.8723 O   0  0  0  0  0  0  0  0  0  0  0  0
    7.6447  -13.2021   27.6391 C   0  0  0  0  0  0  0  0  0  0  0  0
    7.6585  -13.6321   26.1923 C   0  0  1  0  0  0  0  0  0  0  0  0
    7.8515  -12.4915   25.2338 C   0  0  0  0  0  0  0  0  0  0  0  0
    8.7047  -14.7145   25.9999 C   0  0  2  0  0  0  0  0  0  0  0  0
    8.6947  -15.1151   24.6075 N   0  0  0  0  0  0  0  0  0  0  0  0
    8.4838  -15.8634   26.8821 C   0  0  0  0  0  0  0  0  0  0  0  0
    8.8269  -15.7763   28.2196 O   0  0  0  0  0  0  0  0  0  0  0  0
    7.9807  -16.9564   26.4584 O   0  0  0  0  0  0  0  0  0  0  0  0
  1  2  1  0
  2  3  2  0
  4  2  1  0
  4  5  1  0
  5  6  1  6
  7  8  2  0
  7  5  1  0
 10  9  1  1
 10 11  1  0
 10 12  1  0
 13 12  1  1
 13 14  1  0
 14  7  1  0
 15 13  1  0
 16 15  2  0
 18 17  1  1
 19 18  1  0
 20 18  1  0
 20 21  1  6
 21 15  1  0
 22 20  1  0
 23 22  1  0
 24 22  2  0
M  END
$$$$
