NLV.pdb
     RDKit          3D

 24 23  0  0  1  0  0  0  0  0999 V2000
    9.3747  -19.3223   19.6496 N   0  0  0  0  0  0  0  0  0  0  0  0
    9.5164  -19.4806   21.0510 C   0  0  0  0  0  0  0  0  0  0  0  0
    9.3779  -20.6297   21.5269 O   0  0  0  0  0  0  0  0  0  0  0  0
    9.8164  -18.3211   21.8980 C   0  0  0  0  0  0  0  0  0  0  0  0
    9.0570  -17.0851   21.4411 C   0  0  2  0  0  0  0  0  0  0  0  0
    9.5937  -16.6229   20.1918 N   0  0  0  0  0  0  0  0  0  0  0  0
    9.1944  -16.0688   22.5206 C   0  0  0  0  0  0  0  0  0  0  0  0
   10.2720  -15.3818   22.4843 O   0  0  0  0  0  0  0  0  0  0  0  0
    5.8554  -13.0194   26.6877 C   0  0  0  0  0  0  0  0  0  0  0  0
    7.2605  -13.2508   26.0900 C   0  0  2  0  0  0  0  0  0  0  0  0
    7.5626  -11.9651   25.3621 C   0  0  0  0  0  0  0  0  0  0  0  0
    7.1762  -14.4141   25.1886 C   0  0  0  0  0  0  0  0  0  0  0  0
    8.4074  -14.8884   24.5236 C   0  0  2  0  0  0  0  0  0  0  0  0
    8.2093  -15.8751   23.5131 N   0  0  0  0  0  0  0  0  0  0  0  0
    9.5125  -15.3151   25.4095 C   0  0  0  0  0  0  0  0  0  0  0  0
   10.6612  -15.5935   24.9150 O   0  0  0  0  0  0  0  0  0  0  0  0
   11.2771  -13.5044   27.8771 C   0  0  0  0  0  0  0  0  0  0  0  0
   10.7163  -14.6751   28.6474 C   0  0  1  0  0  0  0  0  0  0  0  0
    9.5090  -14.3237   29.4696 C   0  0  0  0  0  0  0  0  0  0  0  0
   10.4339  -15.8178   27.6895 C   0  0  2  0  0  0  0  0  0  0  0  0
    9.3409  -15.4260   26.8227 N   0  0  0  0  0  0  0  0  0  0  0  0
   10.1302  -17.0681   28.3908 C   0  0  0  0  0  0  0  0  0  0  0  0
   11.1343  -17.7329   29.0722 O   0  0  0  0  0  0  0  0  0  0  0  0
    8.9595  -17.5746   28.3968 O   0  0  0  0  0  0  0  0  0  0  0  0
  1  2  1  0
  2  3  2  0
  4  2  1  0
  4  5  1  0
  5  6  1  6
  7  8  2  0
  7  5  1  0
 10  9  1  6
 10 11  1  0
 10 12  1  0
 13 12  1  1
 13 14  1  0
 14  7  1  0
 15 13  1  0
 16 15  2  0
 18 17  1  6
 19 18  1  0
 20 18  1  0
 20 21  1  1
 21 15  1  0
 22 20  1  0
 23 22  1  0
 24 22  2  0
M  END
$$$$
