DKM.pdb
     RDKit          3D

 26 25  0  0  1  0  0  0  0  0999 V2000
   12.4148  -15.9672   18.8764 N   0  0  0  0  0  0  0  0  0  0  0  0
   12.9421  -15.0882   19.8915 C   0  0  1  0  0  0  0  0  0  0  0  0
   13.8141  -14.0418   19.2792 C   0  0  0  0  0  0  0  0  0  0  0  0
   14.9354  -14.7035   18.5750 C   0  0  0  0  0  0  0  0  0  0  0  0
   15.6360  -15.5501   19.1776 O   0  0  0  0  0  0  0  0  0  0  0  0
   11.8351  -14.5526   20.6866 C   0  0  0  0  0  0  0  0  0  0  0  0
   12.0571  -13.7878   21.6540 O   0  0  0  0  0  0  0  0  0  0  0  0
   15.2495  -14.4218   17.2539 O   0  0  0  0  0  0  0  0  0  0  0  0
   10.5049  -14.9107   20.3473 N   0  0  0  0  0  0  0  0  0  0  0  0
    9.3433  -14.3459   20.9709 C   0  0  1  0  0  0  0  0  0  0  0  0
    8.1939  -14.3005   19.9646 C   0  0  0  0  0  0  0  0  0  0  0  0
    8.6286  -13.7653   18.6447 C   0  0  0  0  0  0  0  0  0  0  0  0
    7.5502  -13.9756   17.6184 C   0  0  0  0  0  0  0  0  0  0  0  0
    8.0052  -13.5607   16.2585 C   0  0  0  0  0  0  0  0  0  0  0  0
    6.9543  -13.7974   15.2747 N   0  0  0  0  0  0  0  0  0  0  0  0
    8.8857  -15.2588   22.0477 C   0  0  0  0  0  0  0  0  0  0  0  0
    9.4630  -16.3770   22.1676 O   0  0  0  0  0  0  0  0  0  0  0  0
    6.2876  -11.7819   28.6810 C   0  0  0  0  0  0  0  0  0  0  0  0
    6.1594  -12.1620   26.9386 S   0  0  0  0  0  0  0  0  0  0  0  0
    7.2908  -13.3814   26.3182 C   0  0  0  0  0  0  0  0  0  0  0  0
    7.2145  -13.6868   24.8649 C   0  0  0  0  0  0  0  0  0  0  0  0
    8.1231  -14.7517   24.3571 C   0  0  2  0  0  0  0  0  0  0  0  0
    7.8335  -14.8903   22.9162 N   0  0  0  0  0  0  0  0  0  0  0  0
    7.8609  -16.0665   25.0172 C   0  0  0  0  0  0  0  0  0  0  0  0
    8.5745  -16.4142   26.1533 O   0  0  0  0  0  0  0  0  0  0  0  0
    7.0146  -16.8569   24.5686 O   0  0  0  0  0  0  0  0  0  0  0  0
  2  1  1  6
  2  3  1  0
  3  4  1  0
  4  8  1  0
  5  4  2  0
  6  2  1  0
  7  6  2  0
  9  6  1  0
 10 11  1  6
 10  9  1  0
 11 12  1  0
 12 13  1  0
 14 13  1  0
 14 15  1  0
 16 10  1  0
 17 16  2  0
 19 20  1  0
 19 18  1  0
 22 21  1  1
 21 20  1  0
 22 23  1  0
 23 16  1  0
 24 22  1  0
 24 25  1  0
 26 24  2  0
M  END
$$$$
