DKM.pdb
     RDKit          3D

 26 25  0  0  1  0  0  0  0  0999 V2000
    9.2036  -15.4574   18.4950 N   0  0  0  0  0  0  0  0  0  0  0  0
    8.4919  -14.3461   19.0776 C   0  0  1  0  0  0  0  0  0  0  0  0
    7.5887  -13.7142   18.0700 C   0  0  0  0  0  0  0  0  0  0  0  0
    8.2929  -13.6469   16.7697 C   0  0  0  0  0  0  0  0  0  0  0  0
    9.4143  -14.1913   16.6402 O   0  0  0  0  0  0  0  0  0  0  0  0
    7.8091  -14.7955   20.2926 C   0  0  0  0  0  0  0  0  0  0  0  0
    7.0476  -14.0222   20.9188 O   0  0  0  0  0  0  0  0  0  0  0  0
    7.7556  -12.9959   15.6694 O   0  0  0  0  0  0  0  0  0  0  0  0
    8.0206  -16.1207   20.7533 N   0  0  0  0  0  0  0  0  0  0  0  0
    7.4425  -16.6490   21.9548 C   0  0  1  0  0  0  0  0  0  0  0  0
    7.6478  -18.1628   21.9983 C   0  0  0  0  0  0  0  0  0  0  0  0
    7.0142  -18.7778   23.1974 C   0  0  0  0  0  0  0  0  0  0  0  0
    7.2596  -20.2609   23.2114 C   0  0  0  0  0  0  0  0  0  0  0  0
    6.6779  -20.8971   24.4301 C   0  0  0  0  0  0  0  0  0  0  0  0
    6.8779  -22.3418   24.3964 N   0  0  0  0  0  0  0  0  0  0  0  0
    8.1916  -16.1181   23.1207 C   0  0  0  0  0  0  0  0  0  0  0  0
    9.4533  -16.0797   23.0523 O   0  0  0  0  0  0  0  0  0  0  0  0
    6.6033  -10.8047   27.7470 C   0  0  0  0  0  0  0  0  0  0  0  0
    6.3873  -11.3029   26.0435 S   0  0  0  0  0  0  0  0  0  0  0  0
    7.5431  -12.5006   25.4258 C   0  0  0  0  0  0  0  0  0  0  0  0
    7.3434  -13.9088   25.8598 C   0  0  0  0  0  0  0  0  0  0  0  0
    8.2787  -14.9210   25.2959 C   0  0  2  0  0  0  0  0  0  0  0  0
    7.5150  -15.6678   24.2769 N   0  0  0  0  0  0  0  0  0  0  0  0
    8.7434  -15.8879   26.3363 C   0  0  0  0  0  0  0  0  0  0  0  0
    8.3029  -17.2013   26.2928 O   0  0  0  0  0  0  0  0  0  0  0  0
    9.5182  -15.5392   27.2419 O   0  0  0  0  0  0  0  0  0  0  0  0
  2  1  1  6
  2  3  1  0
  3  4  1  0
  4  8  1  0
  5  4  2  0
  6  2  1  0
  7  6  2  0
  9  6  1  0
 10 11  1  6
 10  9  1  0
 11 12  1  0
 12 13  1  0
 14 13  1  0
 14 15  1  0
 16 10  1  0
 17 16  2  0
 19 20  1  0
 19 18  1  0
 22 21  1  1
 21 20  1  0
 22 23  1  0
 23 16  1  0
 24 22  1  0
 24 25  1  0
 26 24  2  0
M  END
$$$$
