DKM.pdb
     RDKit          3D

 26 25  0  0  1  0  0  0  0  0999 V2000
    6.6868  -20.1729   21.3983 N   0  0  0  0  0  0  0  0  0  0  0  0
    6.9091  -19.4907   22.6498 C   0  0  1  0  0  0  0  0  0  0  0  0
    7.5308  -20.4120   23.6472 C   0  0  0  0  0  0  0  0  0  0  0  0
    6.5195  -20.7668   24.6683 C   0  0  0  0  0  0  0  0  0  0  0  0
    5.3403  -20.3611   24.5439 O   0  0  0  0  0  0  0  0  0  0  0  0
    7.6800  -18.2705   22.4025 C   0  0  0  0  0  0  0  0  0  0  0  0
    8.9167  -18.3265   22.2085 O   0  0  0  0  0  0  0  0  0  0  0  0
    6.8264  -21.5427   25.7761 O   0  0  0  0  0  0  0  0  0  0  0  0
    7.0081  -17.0210   22.3851 N   0  0  0  0  0  0  0  0  0  0  0  0
    7.6653  -15.7652   22.1658 C   0  0  1  0  0  0  0  0  0  0  0  0
    6.7230  -14.8177   21.4242 C   0  0  0  0  0  0  0  0  0  0  0  0
    7.4022  -13.5536   21.0261 C   0  0  0  0  0  0  0  0  0  0  0  0
    7.6782  -13.5555   19.5483 C   0  0  0  0  0  0  0  0  0  0  0  0
    8.4406  -12.3402   19.1358 C   0  0  0  0  0  0  0  0  0  0  0  0
    8.5594  -12.2813   17.6830 N   0  0  0  0  0  0  0  0  0  0  0  0
    7.9167  -15.1202   23.4784 C   0  0  0  0  0  0  0  0  0  0  0  0
    7.2503  -14.0872   23.7732 O   0  0  0  0  0  0  0  0  0  0  0  0
    7.0405  -10.9548   25.9797 C   0  0  0  0  0  0  0  0  0  0  0  0
    7.2082  -12.4409   26.9595 S   0  0  0  0  0  0  0  0  0  0  0  0
    6.7561  -13.9604   26.1604 C   0  0  0  0  0  0  0  0  0  0  0  0
    7.6729  -15.1154   26.3517 C   0  0  0  0  0  0  0  0  0  0  0  0
    9.0115  -15.0201   25.7063 C   0  0  2  0  0  0  0  0  0  0  0  0
    8.8746  -15.6445   24.3756 N   0  0  0  0  0  0  0  0  0  0  0  0
   10.0519  -15.7711   26.4723 C   0  0  0  0  0  0  0  0  0  0  0  0
   10.6016  -16.9217   25.9293 O   0  0  0  0  0  0  0  0  0  0  0  0
   10.4360  -15.3855   27.5886 O   0  0  0  0  0  0  0  0  0  0  0  0
  2  1  1  6
  2  3  1  0
  3  4  1  0
  4  8  1  0
  5  4  2  0
  6  2  1  0
  7  6  2  0
  9  6  1  0
 10 11  1  6
 10  9  1  0
 11 12  1  0
 12 13  1  0
 14 13  1  0
 14 15  1  0
 16 10  1  0
 17 16  2  0
 19 20  1  0
 19 18  1  0
 22 21  1  1
 21 20  1  0
 22 23  1  0
 23 16  1  0
 24 22  1  0
 24 25  1  0
 26 24  2  0
M  END
$$$$
