DKM.pdb
     RDKit          3D

 26 25  0  0  1  0  0  0  0  0999 V2000
   10.1436  -16.9761   19.1531 N   0  0  0  0  0  0  0  0  0  0  0  0
   10.5738  -17.2671   20.4990 C   0  0  1  0  0  0  0  0  0  0  0  0
   12.0057  -16.8869   20.6866 C   0  0  0  0  0  0  0  0  0  0  0  0
   12.8463  -17.7370   19.8136 C   0  0  0  0  0  0  0  0  0  0  0  0
   12.6107  -18.9648   19.7269 O   0  0  0  0  0  0  0  0  0  0  0  0
    9.6575  -16.6281   21.4458 C   0  0  0  0  0  0  0  0  0  0  0  0
    9.4224  -15.3994   21.3748 O   0  0  0  0  0  0  0  0  0  0  0  0
   13.9017  -17.2239   19.0746 O   0  0  0  0  0  0  0  0  0  0  0  0
    9.0373  -17.4192   22.4472 N   0  0  0  0  0  0  0  0  0  0  0  0
    7.9726  -16.9519   23.2868 C   0  0  1  0  0  0  0  0  0  0  0  0
    6.8716  -18.0098   23.3528 C   0  0  0  0  0  0  0  0  0  0  0  0
    6.1805  -18.1783   22.0446 C   0  0  0  0  0  0  0  0  0  0  0  0
    5.2105  -19.3248   22.1136 C   0  0  0  0  0  0  0  0  0  0  0  0
    4.5843  -19.5883   20.7844 C   0  0  0  0  0  0  0  0  0  0  0  0
    3.5775  -20.6385   20.8940 N   0  0  0  0  0  0  0  0  0  0  0  0
    8.4784  -16.8252   24.6763 C   0  0  0  0  0  0  0  0  0  0  0  0
    8.1242  -17.6955   25.5220 O   0  0  0  0  0  0  0  0  0  0  0  0
    6.4170  -10.5577   25.9798 C   0  0  0  0  0  0  0  0  0  0  0  0
    6.9356  -12.0185   26.8708 S   0  0  0  0  0  0  0  0  0  0  0  0
    7.7462  -13.2736   25.9118 C   0  0  0  0  0  0  0  0  0  0  0  0
    7.9174  -14.6023   26.5571 C   0  0  0  0  0  0  0  0  0  0  0  0
    9.2558  -15.2417   26.4256 C   0  0  2  0  0  0  0  0  0  0  0  0
    9.3323  -15.7615   25.0460 N   0  0  0  0  0  0  0  0  0  0  0  0
    9.4180  -16.3891   27.3692 C   0  0  0  0  0  0  0  0  0  0  0  0
    8.9640  -17.6456   27.0003 O   0  0  0  0  0  0  0  0  0  0  0  0
    9.9525  -16.2409   28.4803 O   0  0  0  0  0  0  0  0  0  0  0  0
  2  1  1  6
  2  3  1  0
  3  4  1  0
  4  8  1  0
  5  4  2  0
  6  2  1  0
  7  6  2  0
  9  6  1  0
 10 11  1  1
 10  9  1  0
 11 12  1  0
 12 13  1  0
 14 13  1  0
 14 15  1  0
 16 10  1  0
 17 16  2  0
 19 20  1  0
 19 18  1  0
 22 21  1  6
 21 20  1  0
 22 23  1  0
 23 16  1  0
 24 22  1  0
 24 25  1  0
 26 24  2  0
M  END
$$$$
