DKM.pdb
     RDKit          3D

 26 25  0  0  1  0  0  0  0  0999 V2000
   12.8493  -16.7195   19.7107 N   0  0  0  0  0  0  0  0  0  0  0  0
   12.5774  -15.3386   20.0274 C   0  0  1  0  0  0  0  0  0  0  0  0
   12.7762  -14.4749   18.8254 C   0  0  0  0  0  0  0  0  0  0  0  0
   14.2164  -14.4515   18.4842 C   0  0  0  0  0  0  0  0  0  0  0  0
   15.0317  -15.1003   19.1805 O   0  0  0  0  0  0  0  0  0  0  0  0
   11.2437  -15.2349   20.6231 C   0  0  0  0  0  0  0  0  0  0  0  0
   10.7583  -14.1154   20.9079 O   0  0  0  0  0  0  0  0  0  0  0  0
   14.7107  -13.7298   17.4081 O   0  0  0  0  0  0  0  0  0  0  0  0
   10.5058  -16.4204   20.8743 N   0  0  0  0  0  0  0  0  0  0  0  0
    9.2828  -16.4549   21.6228 C   0  0  1  0  0  0  0  0  0  0  0  0
    8.5091  -17.7275   21.2797 C   0  0  0  0  0  0  0  0  0  0  0  0
    7.2289  -17.8228   22.0344 C   0  0  0  0  0  0  0  0  0  0  0  0
    6.4629  -19.0432   21.6053 C   0  0  0  0  0  0  0  0  0  0  0  0
    5.1768  -19.1688   22.3527 C   0  0  0  0  0  0  0  0  0  0  0  0
    4.4005  -20.2955   21.8466 N   0  0  0  0  0  0  0  0  0  0  0  0
    9.6075  -16.5707   23.0662 C   0  0  0  0  0  0  0  0  0  0  0  0
   10.7981  -16.8461   23.3900 O   0  0  0  0  0  0  0  0  0  0  0  0
    5.8695  -11.6451   27.4264 C   0  0  0  0  0  0  0  0  0  0  0  0
    7.2229  -11.9661   26.3029 S   0  0  0  0  0  0  0  0  0  0  0  0
    7.9996  -13.5560   26.4472 C   0  0  0  0  0  0  0  0  0  0  0  0
    8.0361  -14.3964   25.2210 C   0  0  0  0  0  0  0  0  0  0  0  0
    8.9488  -15.5728   25.2439 C   0  0  2  0  0  0  0  0  0  0  0  0
    8.6144  -16.3790   24.0534 N   0  0  0  0  0  0  0  0  0  0  0  0
    8.7354  -16.4175   26.4580 C   0  0  0  0  0  0  0  0  0  0  0  0
    8.1545  -17.6688   26.3254 O   0  0  0  0  0  0  0  0  0  0  0  0
    9.0683  -16.0214   27.5870 O   0  0  0  0  0  0  0  0  0  0  0  0
  2  1  1  6
  2  3  1  0
  3  4  1  0
  4  8  1  0
  5  4  2  0
  6  2  1  0
  7  6  2  0
  9  6  1  0
 10 11  1  6
 10  9  1  0
 11 12  1  0
 12 13  1  0
 14 13  1  0
 14 15  1  0
 16 10  1  0
 17 16  2  0
 19 20  1  0
 19 18  1  0
 22 21  1  1
 21 20  1  0
 22 23  1  0
 23 16  1  0
 24 22  1  0
 24 25  1  0
 26 24  2  0
M  END
$$$$
