DKM.pdb
     RDKit          3D

 26 25  0  0  1  0  0  0  0  0999 V2000
   11.7719  -16.8425   19.7879 N   0  0  0  0  0  0  0  0  0  0  0  0
   11.8405  -15.6415   20.5842 C   0  0  1  0  0  0  0  0  0  0  0  0
   11.9233  -14.4346   19.7086 C   0  0  0  0  0  0  0  0  0  0  0  0
   13.1620  -14.5110   18.9019 C   0  0  0  0  0  0  0  0  0  0  0  0
   13.0922  -14.7652   17.6767 O   0  0  0  0  0  0  0  0  0  0  0  0
   10.7171  -15.6218   21.5234 C   0  0  0  0  0  0  0  0  0  0  0  0
   10.3587  -14.5507   22.0658 O   0  0  0  0  0  0  0  0  0  0  0  0
   14.4185  -14.3098   19.4534 O   0  0  0  0  0  0  0  0  0  0  0  0
   10.0376  -16.8333   21.8123 N   0  0  0  0  0  0  0  0  0  0  0  0
    8.8491  -16.9099   22.6115 C   0  0  1  0  0  0  0  0  0  0  0  0
    8.1052  -18.2077   22.2984 C   0  0  0  0  0  0  0  0  0  0  0  0
    6.8590  -18.3445   23.1020 C   0  0  0  0  0  0  0  0  0  0  0  0
    6.1845  -19.6527   22.7956 C   0  0  0  0  0  0  0  0  0  0  0  0
    4.9183  -19.8065   23.5711 C   0  0  0  0  0  0  0  0  0  0  0  0
    4.3822  -21.1538   23.4105 N   0  0  0  0  0  0  0  0  0  0  0  0
    9.2380  -17.0158   24.0397 C   0  0  0  0  0  0  0  0  0  0  0  0
    9.2202  -18.1585   24.5800 O   0  0  0  0  0  0  0  0  0  0  0  0
    6.4680  -11.0164   26.2818 C   0  0  0  0  0  0  0  0  0  0  0  0
    6.4849  -12.7753   26.6024 S   0  0  0  0  0  0  0  0  0  0  0  0
    7.9142  -13.6610   26.0329 C   0  0  0  0  0  0  0  0  0  0  0  0
    7.9301  -15.1289   26.2702 C   0  0  0  0  0  0  0  0  0  0  0  0
    9.2570  -15.8018   26.2072 C   0  0  2  0  0  0  0  0  0  0  0  0
    9.6179  -15.8718   24.7775 N   0  0  0  0  0  0  0  0  0  0  0  0
    9.1991  -17.1948   26.7454 C   0  0  0  0  0  0  0  0  0  0  0  0
    9.4958  -17.4237   28.0797 O   0  0  0  0  0  0  0  0  0  0  0  0
    8.8899  -18.1547   26.0208 O   0  0  0  0  0  0  0  0  0  0  0  0
  2  1  1  6
  2  3  1  0
  3  4  1  0
  4  8  1  0
  5  4  2  0
  6  2  1  0
  7  6  2  0
  9  6  1  0
 10 11  1  6
 10  9  1  0
 11 12  1  0
 12 13  1  0
 14 13  1  0
 14 15  1  0
 16 10  1  0
 17 16  2  0
 19 20  1  0
 19 18  1  0
 22 21  1  6
 21 20  1  0
 22 23  1  0
 23 16  1  0
 24 22  1  0
 24 25  1  0
 26 24  2  0
M  END
$$$$
