HDK.pdb
     RDKit          3D

 28 28  0  0  1  0  0  0  0  0999 V2000
    9.7673  -15.6738   19.8741 N   0  0  0  0  0  0  0  0  0  0  0  0
    9.0250  -14.8259   20.7875 C   0  0  1  0  0  0  0  0  0  0  0  0
    7.6031  -14.7498   20.2540 C   0  0  0  0  0  0  0  0  0  0  0  0
    7.6675  -14.3300   18.8288 C   0  0  0  0  0  0  0  0  0  0  0  0
    8.1279  -13.1063   18.3715 C   0  0  0  0  0  0  0  0  0  0  0  0
    8.0447  -13.0699   17.0423 N   0  0  0  0  0  0  0  0  0  0  0  0
    7.5394  -14.2530   16.6677 C   0  0  0  0  0  0  0  0  0  0  0  0
    7.3054  -15.0270   17.7333 N   0  0  0  0  0  0  0  0  0  0  0  0
    9.0053  -15.4208   22.1604 C   0  0  0  0  0  0  0  0  0  0  0  0
    8.2646  -14.9682   23.0648 O   0  0  0  0  0  0  0  0  0  0  0  0
    9.8402  -16.5237   22.4585 N   0  0  0  0  0  0  0  0  0  0  0  0
    9.9326  -17.1549   23.7568 C   0  0  1  0  0  0  0  0  0  0  0  0
   10.7552  -18.4138   23.6921 C   0  0  0  0  0  0  0  0  0  0  0  0
   10.2811  -19.3598   22.6826 C   0  0  0  0  0  0  0  0  0  0  0  0
    9.2323  -20.0142   22.8267 O   0  0  0  0  0  0  0  0  0  0  0  0
   10.5365  -16.2832   24.7701 C   0  0  0  0  0  0  0  0  0  0  0  0
   11.7018  -15.8716   24.6415 O   0  0  0  0  0  0  0  0  0  0  0  0
   11.0231  -19.5357   21.5247 O   0  0  0  0  0  0  0  0  0  0  0  0
    9.7754  -15.9190   25.8922 N   0  0  0  0  0  0  0  0  0  0  0  0
   10.3584  -15.0001   26.9556 C   0  0  1  0  0  0  0  0  0  0  0  0
    9.5673  -13.7730   26.7472 C   0  0  0  0  0  0  0  0  0  0  0  0
    8.1321  -13.6771   26.9386 C   0  0  0  0  0  0  0  0  0  0  0  0
    7.4054  -12.4086   26.7148 C   0  0  0  0  0  0  0  0  0  0  0  0
    5.9237  -12.6785   27.0629 C   0  0  0  0  0  0  0  0  0  0  0  0
    5.1897  -11.4586   26.9179 N   0  0  0  0  0  0  0  0  0  0  0  0
   10.1532  -15.7702   28.1921 C   0  0  0  0  0  0  0  0  0  0  0  0
    9.4693  -16.9614   28.2882 O   0  0  0  0  0  0  0  0  0  0  0  0
   10.6176  -15.3592   29.3279 O   0  0  0  0  0  0  0  0  0  0  0  0
  2  1  1  6
  2  3  1  0
  4  3  1  0
  4  5  2  0
  6  5  1  0
  7  8  2  0
  7  6  1  0
  8  4  1  0
  9  2  1  0
 10  9  2  0
 11  9  1  0
 12 11  1  0
 13 14  1  0
 12 13  1  6
 14 15  2  0
 16 12  1  0
 16 19  1  0
 17 16  2  0
 18 14  1  0
 20 19  1  0
 20 21  1  1
 21 22  1  0
 23 22  1  0
 24 25  1  0
 24 23  1  0
 26 20  1  0
 26 27  1  0
 28 26  2  0
M  END
$$$$
