HDK.pdb
     RDKit          3D

 28 28  0  0  1  0  0  0  0  0999 V2000
    8.9676  -14.0624   21.2796 N   0  0  0  0  0  0  0  0  0  0  0  0
    8.0887  -15.2104   21.3973 C   0  0  1  0  0  0  0  0  0  0  0  0
    8.0090  -15.8421   20.0164 C   0  0  0  0  0  0  0  0  0  0  0  0
    7.8847  -14.7488   19.0160 C   0  0  0  0  0  0  0  0  0  0  0  0
    8.0469  -13.3983   19.2772 C   0  0  0  0  0  0  0  0  0  0  0  0
    7.8651  -12.7046   18.1543 N   0  0  0  0  0  0  0  0  0  0  0  0
    7.5923  -13.6046   17.1999 C   0  0  0  0  0  0  0  0  0  0  0  0
    7.5998  -14.8445   17.7019 N   0  0  0  0  0  0  0  0  0  0  0  0
    8.6493  -16.2061   22.3634 C   0  0  0  0  0  0  0  0  0  0  0  0
    8.0689  -17.2910   22.6036 O   0  0  0  0  0  0  0  0  0  0  0  0
    9.8659  -15.9277   23.0302 N   0  0  0  0  0  0  0  0  0  0  0  0
   10.4992  -16.8119   23.9840 C   0  0  1  0  0  0  0  0  0  0  0  0
   11.8740  -16.3210   24.3508 C   0  0  0  0  0  0  0  0  0  0  0  0
   12.8349  -16.4275   23.2537 C   0  0  0  0  0  0  0  0  0  0  0  0
   12.6643  -17.2023   22.2946 O   0  0  0  0  0  0  0  0  0  0  0  0
    9.7321  -16.9495   25.2265 C   0  0  0  0  0  0  0  0  0  0  0  0
    9.3510  -15.9463   25.8526 O   0  0  0  0  0  0  0  0  0  0  0  0
   13.9756  -15.6399   23.2798 O   0  0  0  0  0  0  0  0  0  0  0  0
    9.4335  -18.2370   25.7002 N   0  0  0  0  0  0  0  0  0  0  0  0
    8.6214  -18.4222   26.9736 C   0  0  1  0  0  0  0  0  0  0  0  0
    7.9946  -19.7351   26.7320 C   0  0  0  0  0  0  0  0  0  0  0  0
    7.2858  -20.5057   27.7368 C   0  0  0  0  0  0  0  0  0  0  0  0
    6.7068  -21.8311   27.4284 C   0  0  0  0  0  0  0  0  0  0  0  0
    5.9717  -22.3021   28.7040 C   0  0  0  0  0  0  0  0  0  0  0  0
    5.3919  -23.5856   28.4508 N   0  0  0  0  0  0  0  0  0  0  0  0
    9.6444  -18.3117   28.0249 C   0  0  0  0  0  0  0  0  0  0  0  0
   11.0018  -18.4465   27.8374 O   0  0  0  0  0  0  0  0  0  0  0  0
    9.3238  -18.0752   29.2562 O   0  0  0  0  0  0  0  0  0  0  0  0
  2  1  1  6
  2  3  1  0
  4  3  1  0
  4  5  2  0
  6  5  1  0
  7  8  2  0
  7  6  1  0
  8  4  1  0
  9  2  1  0
 10  9  2  0
 11  9  1  0
 12 11  1  0
 13 14  1  0
 12 13  1  1
 14 15  2  0
 16 12  1  0
 16 19  1  0
 17 16  2  0
 18 14  1  0
 20 19  1  0
 20 21  1  6
 21 22  1  0
 23 22  1  0
 24 25  1  0
 24 23  1  0
 26 20  1  0
 26 27  1  0
 28 26  2  0
M  END
$$$$
