HDK.pdb
     RDKit          3D

 28 28  0  0  1  0  0  0  0  0999 V2000
    8.8225  -17.2204   18.9399 N   0  0  0  0  0  0  0  0  0  0  0  0
    9.0241  -16.1334   19.8790 C   0  0  1  0  0  0  0  0  0  0  0  0
    7.7705  -15.2741   19.8274 C   0  0  0  0  0  0  0  0  0  0  0  0
    7.7549  -14.5598   18.5231 C   0  0  0  0  0  0  0  0  0  0  0  0
    8.7135  -14.6786   17.5303 C   0  0  0  0  0  0  0  0  0  0  0  0
    8.3847  -13.8989   16.5012 N   0  0  0  0  0  0  0  0  0  0  0  0
    7.2362  -13.2979   16.8405 C   0  0  0  0  0  0  0  0  0  0  0  0
    6.8408  -13.6849   18.0584 N   0  0  0  0  0  0  0  0  0  0  0  0
    9.2022  -16.6628   21.2672 C   0  0  0  0  0  0  0  0  0  0  0  0
    8.2223  -16.9228   22.0047 O   0  0  0  0  0  0  0  0  0  0  0  0
   10.5058  -16.8801   21.7727 N   0  0  0  0  0  0  0  0  0  0  0  0
   10.7983  -17.3913   23.0940 C   0  0  1  0  0  0  0  0  0  0  0  0
   12.1997  -17.9355   23.1685 C   0  0  0  0  0  0  0  0  0  0  0  0
   13.2087  -16.9954   22.6819 C   0  0  0  0  0  0  0  0  0  0  0  0
   13.8106  -16.2151   23.4422 O   0  0  0  0  0  0  0  0  0  0  0  0
   10.6631  -16.3719   24.1398 C   0  0  0  0  0  0  0  0  0  0  0  0
   11.3429  -15.3325   24.1059 O   0  0  0  0  0  0  0  0  0  0  0  0
   13.5071  -16.9700   21.3282 O   0  0  0  0  0  0  0  0  0  0  0  0
    9.7503  -16.5887   25.1843 N   0  0  0  0  0  0  0  0  0  0  0  0
    9.6578  -15.6089   26.3448 C   0  0  1  0  0  0  0  0  0  0  0  0
    8.3275  -15.0136   26.1193 C   0  0  0  0  0  0  0  0  0  0  0  0
    7.7070  -14.0324   26.9899 C   0  0  0  0  0  0  0  0  0  0  0  0
    7.0478  -12.8247   26.4476 C   0  0  0  0  0  0  0  0  0  0  0  0
    6.5228  -12.0230   27.6605 C   0  0  0  0  0  0  0  0  0  0  0  0
    5.8572  -10.8505   27.1809 N   0  0  0  0  0  0  0  0  0  0  0  0
    9.8523  -16.4789   27.5150 C   0  0  0  0  0  0  0  0  0  0  0  0
   10.2850  -16.0663   28.7553 O   0  0  0  0  0  0  0  0  0  0  0  0
    9.6253  -17.7515   27.4547 O   0  0  0  0  0  0  0  0  0  0  0  0
  2  1  1  6
  2  3  1  0
  4  3  1  0
  4  5  2  0
  6  5  1  0
  7  8  2  0
  7  6  1  0
  8  4  1  0
  9  2  1  0
 10  9  2  0
 11  9  1  0
 12 11  1  0
 13 14  1  0
 12 13  1  6
 14 15  2  0
 16 12  1  0
 16 19  1  0
 17 16  2  0
 18 14  1  0
 20 19  1  0
 20 21  1  1
 21 22  1  0
 23 22  1  0
 24 25  1  0
 24 23  1  0
 26 20  1  0
 26 27  1  0
 28 26  2  0
M  END
$$$$
