HDK.pdb
     RDKit          3D

 28 28  0  0  1  0  0  0  0  0999 V2000
    9.8819  -14.9523   19.1146 N   0  0  0  0  0  0  0  0  0  0  0  0
    8.6931  -14.7858   19.9290 C   0  0  1  0  0  0  0  0  0  0  0  0
    7.5198  -15.2720   19.0927 C   0  0  0  0  0  0  0  0  0  0  0  0
    7.6668  -14.7120   17.7229 C   0  0  0  0  0  0  0  0  0  0  0  0
    8.2781  -13.5097   17.4076 C   0  0  0  0  0  0  0  0  0  0  0  0
    8.2313  -13.3208   16.0896 N   0  0  0  0  0  0  0  0  0  0  0  0
    7.5999  -14.3881   15.5820 C   0  0  0  0  0  0  0  0  0  0  0  0
    7.2516  -15.2389   16.5537 N   0  0  0  0  0  0  0  0  0  0  0  0
    8.7872  -15.6112   21.1735 C   0  0  0  0  0  0  0  0  0  0  0  0
    7.8112  -15.7509   21.9477 O   0  0  0  0  0  0  0  0  0  0  0  0
   10.0045  -16.2562   21.4965 N   0  0  0  0  0  0  0  0  0  0  0  0
   10.2336  -17.0177   22.7049 C   0  0  1  0  0  0  0  0  0  0  0  0
   11.5341  -17.7721   22.6339 C   0  0  0  0  0  0  0  0  0  0  0  0
   11.5562  -18.7826   21.5770 C   0  0  0  0  0  0  0  0  0  0  0  0
   10.5482  -19.4456   21.2711 O   0  0  0  0  0  0  0  0  0  0  0  0
   10.2745  -16.1772   23.9062 C   0  0  0  0  0  0  0  0  0  0  0  0
   11.2170  -15.3911   24.1002 O   0  0  0  0  0  0  0  0  0  0  0  0
   12.7388  -19.0121   20.8905 O   0  0  0  0  0  0  0  0  0  0  0  0
    9.2287  -16.2742   24.8379 N   0  0  0  0  0  0  0  0  0  0  0  0
    9.1905  -15.3602   26.0538 C   0  0  1  0  0  0  0  0  0  0  0  0
    7.8461  -14.7664   25.9308 C   0  0  0  0  0  0  0  0  0  0  0  0
    7.5074  -13.4097   26.3186 C   0  0  0  0  0  0  0  0  0  0  0  0
    6.1243  -12.8973   26.2110 C   0  0  0  0  0  0  0  0  0  0  0  0
    6.1722  -11.4037   26.6062 C   0  0  0  0  0  0  0  0  0  0  0  0
    4.8478  -10.8670   26.5292 N   0  0  0  0  0  0  0  0  0  0  0  0
    9.4518  -16.2909   27.1626 C   0  0  0  0  0  0  0  0  0  0  0  0
    9.5793  -17.6570   27.0470 O   0  0  0  0  0  0  0  0  0  0  0  0
    9.5797  -15.8711   28.3801 O   0  0  0  0  0  0  0  0  0  0  0  0
  2  1  1  6
  2  3  1  0
  4  3  1  0
  4  5  2  0
  6  5  1  0
  7  8  2  0
  7  6  1  0
  8  4  1  0
  9  2  1  0
 10  9  2  0
 11  9  1  0
 12 11  1  0
 13 14  1  0
 12 13  1  6
 14 15  2  0
 16 12  1  0
 16 19  1  0
 17 16  2  0
 18 14  1  0
 20 19  1  0
 20 21  1  1
 21 22  1  0
 23 22  1  0
 24 25  1  0
 24 23  1  0
 26 20  1  0
 26 27  1  0
 28 26  2  0
M  END
$$$$
