HDK.pdb
     RDKit          3D

 28 28  0  0  1  0  0  0  0  0999 V2000
    9.7970  -16.3902   17.2901 N   0  0  0  0  0  0  0  0  0  0  0  0
   10.4264  -15.2617   17.9492 C   0  0  1  0  0  0  0  0  0  0  0  0
    9.5632  -14.9235   19.1546 C   0  0  0  0  0  0  0  0  0  0  0  0
    8.4755  -14.0158   18.7022 C   0  0  0  0  0  0  0  0  0  0  0  0
    8.3257  -13.5187   17.4181 C   0  0  0  0  0  0  0  0  0  0  0  0
    7.2463  -12.7393   17.3677 N   0  0  0  0  0  0  0  0  0  0  0  0
    6.7238  -12.7453   18.6016 C   0  0  0  0  0  0  0  0  0  0  0  0
    7.4530  -13.5110   19.4210 N   0  0  0  0  0  0  0  0  0  0  0  0
   11.8021  -15.6232   18.4138 C   0  0  0  0  0  0  0  0  0  0  0  0
   12.0560  -16.7441   18.9144 O   0  0  0  0  0  0  0  0  0  0  0  0
   12.8532  -14.6838   18.2904 N   0  0  0  0  0  0  0  0  0  0  0  0
   14.2140  -14.9143   18.7235 C   0  0  1  0  0  0  0  0  0  0  0  0
   15.1684  -13.9695   18.0437 C   0  0  0  0  0  0  0  0  0  0  0  0
   16.5713  -14.2563   18.3404 C   0  0  0  0  0  0  0  0  0  0  0  0
   16.9182  -15.2360   19.0252 O   0  0  0  0  0  0  0  0  0  0  0  0
   14.3845  -14.7502   20.1710 C   0  0  0  0  0  0  0  0  0  0  0  0
   14.5671  -13.6253   20.6660 O   0  0  0  0  0  0  0  0  0  0  0  0
   17.5505  -13.4098   17.8435 O   0  0  0  0  0  0  0  0  0  0  0  0
   14.3382  -15.8876   20.9927 N   0  0  0  0  0  0  0  0  0  0  0  0
   14.4218  -15.7511   22.5059 C   0  0  1  0  0  0  0  0  0  0  0  0
   13.4004  -16.7207   22.9436 C   0  0  0  0  0  0  0  0  0  0  0  0
   13.1510  -17.0852   24.3259 C   0  0  0  0  0  0  0  0  0  0  0  0
   12.0977  -18.0570   24.6912 C   0  0  0  0  0  0  0  0  0  0  0  0
   12.0592  -18.1103   26.2355 C   0  0  0  0  0  0  0  0  0  0  0  0
   10.9857  -18.9670   26.6375 N   0  0  0  0  0  0  0  0  0  0  0  0
   15.8372  -16.0468   22.7766 C   0  0  0  0  0  0  0  0  0  0  0  0
   16.6592  -16.8163   21.9843 O   0  0  0  0  0  0  0  0  0  0  0  0
   16.4329  -15.5878   23.8298 O   0  0  0  0  0  0  0  0  0  0  0  0
  2  1  1  1
  2  3  1  0
  4  3  1  0
  4  5  2  0
  6  5  1  0
  7  8  2  0
  7  6  1  0
  8  4  1  0
  9  2  1  0
 10  9  2  0
 11  9  1  0
 12 11  1  0
 13 14  1  0
 12 13  1  6
 14 15  2  0
 16 12  1  0
 16 19  1  0
 17 16  2  0
 18 14  1  0
 20 19  1  0
 20 21  1  1
 21 22  1  0
 23 22  1  0
 24 25  1  0
 24 23  1  0
 26 20  1  0
 26 27  1  0
 28 26  2  0
M  END
$$$$
