HDK.pdb
     RDKit          3D

 28 28  0  0  1  0  0  0  0  0999 V2000
    9.8334  -15.7118   18.3507 N   0  0  0  0  0  0  0  0  0  0  0  0
    8.8008  -15.0414   19.1178 C   0  0  1  0  0  0  0  0  0  0  0  0
    7.4844  -15.3104   18.4058 C   0  0  0  0  0  0  0  0  0  0  0  0
    7.5862  -14.7632   17.0268 C   0  0  0  0  0  0  0  0  0  0  0  0
    7.8775  -13.4482   16.7035 C   0  0  0  0  0  0  0  0  0  0  0  0
    7.8881  -13.3094   15.3784 N   0  0  0  0  0  0  0  0  0  0  0  0
    7.6078  -14.5188   14.8744 C   0  0  0  0  0  0  0  0  0  0  0  0
    7.4224  -15.4094   15.8552 N   0  0  0  0  0  0  0  0  0  0  0  0
    8.7326  -15.5953   20.5062 C   0  0  0  0  0  0  0  0  0  0  0  0
    7.7883  -15.3162   21.2821 O   0  0  0  0  0  0  0  0  0  0  0  0
    9.7548  -16.4582   20.9677 N   0  0  0  0  0  0  0  0  0  0  0  0
    9.7703  -17.0881   22.2698 C   0  0  1  0  0  0  0  0  0  0  0  0
   10.8295  -18.1549   22.3452 C   0  0  0  0  0  0  0  0  0  0  0  0
   10.6003  -19.2601   21.4154 C   0  0  0  0  0  0  0  0  0  0  0  0
    9.5557  -19.9366   21.4327 O   0  0  0  0  0  0  0  0  0  0  0  0
   10.0218  -16.1369   23.3576 C   0  0  0  0  0  0  0  0  0  0  0  0
   11.0909  -15.5064   23.4160 O   0  0  0  0  0  0  0  0  0  0  0  0
   11.5782  -19.5672   20.4816 O   0  0  0  0  0  0  0  0  0  0  0  0
    9.0328  -15.9484   24.3361 N   0  0  0  0  0  0  0  0  0  0  0  0
    9.2734  -15.0052   25.5056 C   0  0  1  0  0  0  0  0  0  0  0  0
    8.0546  -14.1758   25.4676 C   0  0  0  0  0  0  0  0  0  0  0  0
    7.7973  -13.0508   26.3473 C   0  0  0  0  0  0  0  0  0  0  0  0
    6.5326  -12.2875   26.2767 C   0  0  0  0  0  0  0  0  0  0  0  0
    6.6084  -11.2003   27.3728 C   0  0  0  0  0  0  0  0  0  0  0  0
    5.3643  -10.4937   27.4037 N   0  0  0  0  0  0  0  0  0  0  0  0
    9.4608  -15.9327   26.6319 C   0  0  0  0  0  0  0  0  0  0  0  0
   10.0812  -15.6293   27.8231 O   0  0  0  0  0  0  0  0  0  0  0  0
    9.0415  -17.1557   26.5758 O   0  0  0  0  0  0  0  0  0  0  0  0
  2  1  1  6
  2  3  1  0
  4  3  1  0
  4  5  2  0
  6  5  1  0
  7  8  2  0
  7  6  1  0
  8  4  1  0
  9  2  1  0
 10  9  2  0
 11  9  1  0
 12 11  1  0
 13 14  1  0
 12 13  1  6
 14 15  2  0
 16 12  1  0
 16 19  1  0
 17 16  2  0
 18 14  1  0
 20 19  1  0
 20 21  1  1
 21 22  1  0
 23 22  1  0
 24 25  1  0
 24 23  1  0
 26 20  1  0
 26 27  1  0
 28 26  2  0
M  END
$$$$
