HDK.pdb
     RDKit          3D

 28 28  0  0  1  0  0  0  0  0999 V2000
    9.8755  -15.7915   18.2343 N   0  0  0  0  0  0  0  0  0  0  0  0
    8.8330  -15.1133   18.9809 C   0  0  1  0  0  0  0  0  0  0  0  0
    7.5329  -15.3507   18.2287 C   0  0  0  0  0  0  0  0  0  0  0  0
    7.6536  -14.7169   16.8887 C   0  0  0  0  0  0  0  0  0  0  0  0
    8.1939  -13.4666   16.6368 C   0  0  0  0  0  0  0  0  0  0  0  0
    8.1428  -13.2170   15.3291 N   0  0  0  0  0  0  0  0  0  0  0  0
    7.5788  -14.2938   14.7655 C   0  0  0  0  0  0  0  0  0  0  0  0
    7.2766  -15.2100   15.6921 N   0  0  0  0  0  0  0  0  0  0  0  0
    8.7162  -15.6836   20.3594 C   0  0  0  0  0  0  0  0  0  0  0  0
    7.7750  -15.3694   21.1256 O   0  0  0  0  0  0  0  0  0  0  0  0
    9.6874  -16.6027   20.8224 N   0  0  0  0  0  0  0  0  0  0  0  0
    9.6908  -17.1971   22.1412 C   0  0  1  0  0  0  0  0  0  0  0  0
   10.7031  -18.3071   22.2346 C   0  0  0  0  0  0  0  0  0  0  0  0
   10.3036  -19.5128   21.5098 C   0  0  0  0  0  0  0  0  0  0  0  0
    9.1267  -19.9174   21.4919 O   0  0  0  0  0  0  0  0  0  0  0  0
    9.9968  -16.2288   23.1995 C   0  0  0  0  0  0  0  0  0  0  0  0
   10.9858  -15.4819   23.1110 O   0  0  0  0  0  0  0  0  0  0  0  0
   11.2664  -20.2317   20.8180 O   0  0  0  0  0  0  0  0  0  0  0  0
    9.1522  -16.1577   24.3187 N   0  0  0  0  0  0  0  0  0  0  0  0
    9.4208  -15.1493   25.4260 C   0  0  1  0  0  0  0  0  0  0  0  0
    8.1362  -14.4270   25.4814 C   0  0  0  0  0  0  0  0  0  0  0  0
    7.8729  -13.2806   26.3311 C   0  0  0  0  0  0  0  0  0  0  0  0
    6.5490  -12.6218   26.3525 C   0  0  0  0  0  0  0  0  0  0  0  0
    6.6138  -11.5305   27.4453 C   0  0  0  0  0  0  0  0  0  0  0  0
    5.3475  -10.8666   27.5050 N   0  0  0  0  0  0  0  0  0  0  0  0
    9.7958  -16.0096   26.5588 C   0  0  0  0  0  0  0  0  0  0  0  0
    9.8176  -17.3862   26.5447 O   0  0  0  0  0  0  0  0  0  0  0  0
   10.1410  -15.5088   27.7011 O   0  0  0  0  0  0  0  0  0  0  0  0
  2  1  1  6
  2  3  1  0
  4  3  1  0
  4  5  2  0
  6  5  1  0
  7  8  2  0
  7  6  1  0
  8  4  1  0
  9  2  1  0
 10  9  2  0
 11  9  1  0
 12 11  1  0
 13 14  1  0
 12 13  1  6
 14 15  2  0
 16 12  1  0
 16 19  1  0
 17 16  2  0
 18 14  1  0
 20 19  1  0
 20 21  1  1
 21 22  1  0
 23 22  1  0
 24 25  1  0
 24 23  1  0
 26 20  1  0
 26 27  1  0
 28 26  2  0
M  END
$$$$
