HDK.pdb
     RDKit          3D

 28 28  0  0  1  0  0  0  0  0999 V2000
   10.2033  -15.2015   18.9110 N   0  0  0  0  0  0  0  0  0  0  0  0
    9.1353  -14.7704   19.7928 C   0  0  1  0  0  0  0  0  0  0  0  0
    7.8306  -15.0227   19.0536 C   0  0  0  0  0  0  0  0  0  0  0  0
    7.9593  -14.4551   17.6850 C   0  0  0  0  0  0  0  0  0  0  0  0
    8.2023  -13.1245   17.3864 C   0  0  0  0  0  0  0  0  0  0  0  0
    8.2565  -12.9697   16.0642 N   0  0  0  0  0  0  0  0  0  0  0  0
    8.0508  -14.1846   15.5377 C   0  0  0  0  0  0  0  0  0  0  0  0
    7.8693  -15.0941   16.5016 N   0  0  0  0  0  0  0  0  0  0  0  0
    9.1455  -15.5655   21.0604 C   0  0  0  0  0  0  0  0  0  0  0  0
    8.1695  -15.5651   21.8472 O   0  0  0  0  0  0  0  0  0  0  0  0
   10.2808  -16.3426   21.3914 N   0  0  0  0  0  0  0  0  0  0  0  0
   10.4485  -17.0606   22.6359 C   0  0  1  0  0  0  0  0  0  0  0  0
   11.7180  -17.8694   22.6302 C   0  0  0  0  0  0  0  0  0  0  0  0
   11.7413  -18.8964   21.5894 C   0  0  0  0  0  0  0  0  0  0  0  0
   10.8656  -19.7769   21.5058 O   0  0  0  0  0  0  0  0  0  0  0  0
   10.4950  -16.1721   23.8020 C   0  0  0  0  0  0  0  0  0  0  0  0
   11.3425  -15.2666   23.8777 O   0  0  0  0  0  0  0  0  0  0  0  0
   12.7727  -18.8917   20.6629 O   0  0  0  0  0  0  0  0  0  0  0  0
    9.5641  -16.3605   24.8359 N   0  0  0  0  0  0  0  0  0  0  0  0
    9.5052  -15.3920   26.0080 C   0  0  1  0  0  0  0  0  0  0  0  0
    8.2032  -14.7375   25.7811 C   0  0  0  0  0  0  0  0  0  0  0  0
    7.7173  -13.5917   26.5273 C   0  0  0  0  0  0  0  0  0  0  0  0
    6.3802  -13.0135   26.2722 C   0  0  0  0  0  0  0  0  0  0  0  0
    6.2225  -11.8168   27.2378 C   0  0  0  0  0  0  0  0  0  0  0  0
    4.9234  -11.2462   27.0514 N   0  0  0  0  0  0  0  0  0  0  0  0
    9.6537  -16.2839   27.1684 C   0  0  0  0  0  0  0  0  0  0  0  0
   10.0199  -15.8921   28.4365 O   0  0  0  0  0  0  0  0  0  0  0  0
    9.4468  -17.5577   27.0712 O   0  0  0  0  0  0  0  0  0  0  0  0
  2  1  1  6
  2  3  1  0
  4  3  1  0
  4  5  2  0
  6  5  1  0
  7  8  2  0
  7  6  1  0
  8  4  1  0
  9  2  1  0
 10  9  2  0
 11  9  1  0
 12 11  1  0
 13 14  1  0
 12 13  1  6
 14 15  2  0
 16 12  1  0
 16 19  1  0
 17 16  2  0
 18 14  1  0
 20 19  1  0
 20 21  1  1
 21 22  1  0
 23 22  1  0
 24 25  1  0
 24 23  1  0
 26 20  1  0
 26 27  1  0
 28 26  2  0
M  END
$$$$
