HDK.pdb
     RDKit          3D

 28 28  0  0  1  0  0  0  0  0999 V2000
    9.7289  -14.9694   19.2018 N   0  0  0  0  0  0  0  0  0  0  0  0
    8.4006  -15.0115   19.7831 C   0  0  1  0  0  0  0  0  0  0  0  0
    7.4985  -15.6860   18.7615 C   0  0  0  0  0  0  0  0  0  0  0  0
    7.5374  -14.8825   17.5107 C   0  0  0  0  0  0  0  0  0  0  0  0
    8.3846  -13.8138   17.2682 C   0  0  0  0  0  0  0  0  0  0  0  0
    8.1487  -13.3288   16.0499 N   0  0  0  0  0  0  0  0  0  0  0  0
    7.1676  -14.0807   15.5326 C   0  0  0  0  0  0  0  0  0  0  0  0
    6.7859  -15.0241   16.4007 N   0  0  0  0  0  0  0  0  0  0  0  0
    8.4032  -15.8151   21.0454 C   0  0  0  0  0  0  0  0  0  0  0  0
    7.3518  -16.0272   21.6944 O   0  0  0  0  0  0  0  0  0  0  0  0
    9.6179  -16.3554   21.5299 N   0  0  0  0  0  0  0  0  0  0  0  0
    9.7595  -17.0570   22.7870 C   0  0  1  0  0  0  0  0  0  0  0  0
   10.9118  -18.0245   22.7429 C   0  0  0  0  0  0  0  0  0  0  0  0
   11.1253  -18.7233   24.0096 C   0  0  0  0  0  0  0  0  0  0  0  0
   10.2777  -19.4962   24.4925 O   0  0  0  0  0  0  0  0  0  0  0  0
    9.9840  -16.1526   23.9197 C   0  0  0  0  0  0  0  0  0  0  0  0
   10.9845  -15.4168   23.9569 O   0  0  0  0  0  0  0  0  0  0  0  0
   12.3113  -18.5199   24.6984 O   0  0  0  0  0  0  0  0  0  0  0  0
    9.0479  -16.1303   24.9658 N   0  0  0  0  0  0  0  0  0  0  0  0
    9.2605  -15.2290   26.1732 C   0  0  1  0  0  0  0  0  0  0  0  0
    7.9261  -14.6186   26.3207 C   0  0  0  0  0  0  0  0  0  0  0  0
    7.6851  -13.1967   26.4818 C   0  0  0  0  0  0  0  0  0  0  0  0
    6.3165  -12.6565   26.6301 C   0  0  0  0  0  0  0  0  0  0  0  0
    6.4553  -11.1213   26.7463 C   0  0  0  0  0  0  0  0  0  0  0  0
    5.1612  -10.5618   26.9910 N   0  0  0  0  0  0  0  0  0  0  0  0
    9.7213  -16.1745   27.2016 C   0  0  0  0  0  0  0  0  0  0  0  0
   10.4343  -15.8422   28.3316 O   0  0  0  0  0  0  0  0  0  0  0  0
    9.4826  -17.4430   27.1076 O   0  0  0  0  0  0  0  0  0  0  0  0
  2  1  1  6
  2  3  1  0
  4  3  1  0
  4  5  2  0
  6  5  1  0
  7  8  2  0
  7  6  1  0
  8  4  1  0
  9  2  1  0
 10  9  2  0
 11  9  1  0
 12 11  1  0
 13 14  1  0
 12 13  1  6
 14 15  2  0
 16 12  1  0
 16 19  1  0
 17 16  2  0
 18 14  1  0
 20 19  1  0
 20 21  1  1
 21 22  1  0
 23 22  1  0
 24 25  1  0
 24 23  1  0
 26 20  1  0
 26 27  1  0
 28 26  2  0
M  END
$$$$
