DRM.pdb
     RDKit          3D

 28 27  0  0  1  0  0  0  0  0999 V2000
   12.2959  -16.1622   18.7454 N   0  0  0  0  0  0  0  0  0  0  0  0
   13.2428  -15.6104   19.6920 C   0  0  1  0  0  0  0  0  0  0  0  0
   13.8275  -14.3155   19.1434 C   0  0  0  0  0  0  0  0  0  0  0  0
   14.7512  -14.5831   18.0149 C   0  0  0  0  0  0  0  0  0  0  0  0
   15.4409  -13.6452   17.5655 O   0  0  0  0  0  0  0  0  0  0  0  0
   12.4806  -15.3266   20.9582 C   0  0  0  0  0  0  0  0  0  0  0  0
   13.0405  -14.7959   21.9421 O   0  0  0  0  0  0  0  0  0  0  0  0
   14.8898  -15.8413   17.4247 O   0  0  0  0  0  0  0  0  0  0  0  0
    8.2156  -14.5448   16.5447 N   0  0  0  0  0  0  0  0  0  0  0  0
    8.0241  -13.9102   17.8306 C   0  0  0  0  0  0  0  0  0  0  0  0
    8.4156  -12.7314   17.9934 N   0  0  0  0  0  0  0  0  0  0  0  0
    7.4012  -14.6406   18.8785 N   0  0  0  0  0  0  0  0  0  0  0  0
    7.0825  -14.1836   20.1773 C   0  0  0  0  0  0  0  0  0  0  0  0
    8.1908  -14.0439   21.1489 C   0  0  0  0  0  0  0  0  0  0  0  0
    8.7038  -15.4330   21.5818 C   0  0  0  0  0  0  0  0  0  0  0  0
   10.1598  -15.3417   22.0155 C   0  0  2  0  0  0  0  0  0  0  0  0
   11.1183  -15.6707   21.0172 N   0  0  0  0  0  0  0  0  0  0  0  0
   10.3344  -15.9846   23.3195 C   0  0  0  0  0  0  0  0  0  0  0  0
   10.8601  -17.1378   23.4227 O   0  0  0  0  0  0  0  0  0  0  0  0
    8.4931  -12.0585   18.7219 C   0  0  0  0  0  0  0  0  0  0  0  0
   11.3531  -12.9828   29.4298 S   0  0  0  0  0  0  0  0  0  0  0  0
   10.1647  -14.3303   29.5995 C   0  0  0  0  0  0  0  0  0  0  0  0
   10.4154  -15.5809   28.3022 C   0  0  0  0  0  0  0  0  0  0  0  0
   10.0607  -15.0324   26.9643 C   0  0  2  0  0  0  0  0  0  0  0  0
   10.2584  -16.0045   25.8517 N   0  0  0  0  0  0  0  0  0  0  0  0
    9.9442  -15.3963   24.5556 C   0  0  0  0  0  0  0  0  0  0  0  0
    9.3680  -17.1673   26.0144 O   0  0  0  0  0  0  0  0  0  0  0  0
    9.6494  -18.3014   26.7609 O   0  0  0  0  0  0  0  0  0  0  0  0
  2  1  1  6
  2  3  1  0
  3  4  1  0
  4  5  2  0
  4  8  1  0
  6  2  1  0
  7  6  2  0
  9 10  1  0
 10 12  1  0
 11 10  2  0
 12 13  1  0
 13 14  1  0
 14 15  1  0
 16 15  1  6
 16 17  1  0
 17  6  1  0
 18 19  2  0
 18 16  1  0
 21 20  1  0
 22 21  1  0
 23 22  1  0
 24 23  1  6
 24 25  1  0
 25 18  1  0
 26 27  1  0
 26 24  1  0
 28 26  2  0
M  END
$$$$
