DRM.pdb
     RDKit          3D

 28 27  0  0  1  0  0  0  0  0999 V2000
   12.1625  -18.4149   20.2726 N   0  0  0  0  0  0  0  0  0  0  0  0
   10.9835  -18.6119   21.0901 C   0  0  1  0  0  0  0  0  0  0  0  0
   11.2391  -19.7145   22.1092 C   0  0  0  0  0  0  0  0  0  0  0  0
   11.3363  -21.0387   21.4493 C   0  0  0  0  0  0  0  0  0  0  0  0
   12.2198  -21.8358   21.8254 O   0  0  0  0  0  0  0  0  0  0  0  0
   10.7235  -17.3124   21.8032 C   0  0  0  0  0  0  0  0  0  0  0  0
   11.6632  -16.6414   22.2827 O   0  0  0  0  0  0  0  0  0  0  0  0
   10.4827  -21.4426   20.4203 O   0  0  0  0  0  0  0  0  0  0  0  0
    8.7505  -14.3015   16.6773 N   0  0  0  0  0  0  0  0  0  0  0  0
    8.0424  -13.6198   17.7387 C   0  0  0  0  0  0  0  0  0  0  0  0
    8.4349  -12.4879   18.1049 N   0  0  0  0  0  0  0  0  0  0  0  0
    6.9223  -14.2523   18.3429 N   0  0  0  0  0  0  0  0  0  0  0  0
    6.7823  -14.6553   19.6903 C   0  0  0  0  0  0  0  0  0  0  0  0
    7.9583  -14.5097   20.5778 C   0  0  0  0  0  0  0  0  0  0  0  0
    7.6509  -15.0857   21.9756 C   0  0  0  0  0  0  0  0  0  0  0  0
    8.9076  -15.6979   22.5777 C   0  0  2  0  0  0  0  0  0  0  0  0
    9.3967  -16.8619   21.9224 N   0  0  0  0  0  0  0  0  0  0  0  0
    8.7755  -15.7802   24.0337 C   0  0  0  0  0  0  0  0  0  0  0  0
    7.8040  -16.3964   24.5754 O   0  0  0  0  0  0  0  0  0  0  0  0
    8.2320  -11.8120   18.8060 C   0  0  0  0  0  0  0  0  0  0  0  0
    6.3049  -10.6383   26.5723 S   0  0  0  0  0  0  0  0  0  0  0  0
    6.4773  -12.3698   27.0508 C   0  0  0  0  0  0  0  0  0  0  0  0
    7.9863  -13.0915   26.3350 C   0  0  0  0  0  0  0  0  0  0  0  0
    8.0847  -14.5407   26.6615 C   0  0  2  0  0  0  0  0  0  0  0  0
    9.4307  -15.1210   26.3905 N   0  0  0  0  0  0  0  0  0  0  0  0
    9.6944  -15.1962   24.9506 C   0  0  0  0  0  0  0  0  0  0  0  0
    9.5209  -16.4925   26.9218 O   0  0  0  0  0  0  0  0  0  0  0  0
    9.7719  -16.8317   28.2426 O   0  0  0  0  0  0  0  0  0  0  0  0
  2  1  1  6
  2  3  1  0
  3  4  1  0
  4  5  2  0
  4  8  1  0
  6  2  1  0
  7  6  2  0
  9 10  1  0
 10 12  1  0
 11 10  2  0
 12 13  1  0
 13 14  1  0
 14 15  1  0
 16 15  1  6
 16 17  1  0
 17  6  1  0
 18 19  2  0
 18 16  1  0
 21 20  1  0
 22 21  1  0
 23 22  1  0
 24 23  1  1
 24 25  1  0
 25 18  1  0
 26 27  1  0
 26 24  1  0
 28 26  2  0
M  END
$$$$
