DRM.pdb
     RDKit          3D

 28 27  0  0  1  0  0  0  0  0999 V2000
    9.1091  -18.0996   18.9981 N   0  0  0  0  0  0  0  0  0  0  0  0
    8.6735  -16.7185   19.0095 C   0  0  1  0  0  0  0  0  0  0  0  0
    7.5657  -16.5171   17.9840 C   0  0  0  0  0  0  0  0  0  0  0  0
    8.0751  -16.7060   16.6044 C   0  0  0  0  0  0  0  0  0  0  0  0
    7.7029  -17.7055   15.9565 O   0  0  0  0  0  0  0  0  0  0  0  0
    8.1439  -16.4383   20.3901 C   0  0  0  0  0  0  0  0  0  0  0  0
    7.6140  -15.3401   20.6663 O   0  0  0  0  0  0  0  0  0  0  0  0
    8.9569  -15.8153   15.9883 O   0  0  0  0  0  0  0  0  0  0  0  0
    5.6107  -23.4621   24.5947 N   0  0  0  0  0  0  0  0  0  0  0  0
    4.8420  -22.8526   23.5314 C   0  0  0  0  0  0  0  0  0  0  0  0
    3.8705  -23.4769   23.0459 N   0  0  0  0  0  0  0  0  0  0  0  0
    5.2104  -21.5633   23.0606 N   0  0  0  0  0  0  0  0  0  0  0  0
    6.2942  -20.7650   23.4913 C   0  0  0  0  0  0  0  0  0  0  0  0
    6.4607  -19.4343   22.8639 C   0  0  0  0  0  0  0  0  0  0  0  0
    7.7059  -18.7239   23.4337 C   0  0  0  0  0  0  0  0  0  0  0  0
    7.9014  -17.3793   22.7480 C   0  0  2  0  0  0  0  0  0  0  0  0
    8.2559  -17.4391   21.3717 N   0  0  0  0  0  0  0  0  0  0  0  0
    8.7169  -16.5022   23.5905 C   0  0  0  0  0  0  0  0  0  0  0  0
    9.4623  -15.6052   23.0838 O   0  0  0  0  0  0  0  0  0  0  0  0
    3.1736  -23.3575   22.3462 C   0  0  0  0  0  0  0  0  0  0  0  0
    5.8542  -12.0811   26.8531 S   0  0  0  0  0  0  0  0  0  0  0  0
    7.4906  -11.7067   26.1907 C   0  0  0  0  0  0  0  0  0  0  0  0
    8.6379  -13.0883   26.4822 C   0  0  0  0  0  0  0  0  0  0  0  0
    8.2852  -14.2564   25.6292 C   0  0  1  0  0  0  0  0  0  0  0  0
    9.1677  -15.4382   25.8450 N   0  0  0  0  0  0  0  0  0  0  0  0
    8.7502  -16.5696   25.0120 C   0  0  0  0  0  0  0  0  0  0  0  0
    9.1042  -15.8838   27.2482 O   0  0  0  0  0  0  0  0  0  0  0  0
    9.7279  -15.2647   28.3208 O   0  0  0  0  0  0  0  0  0  0  0  0
  2  1  1  1
  2  3  1  0
  3  4  1  0
  4  5  2  0
  4  8  1  0
  6  2  1  0
  7  6  2  0
  9 10  1  0
 10 12  1  0
 11 10  2  0
 12 13  1  0
 13 14  1  0
 14 15  1  0
 16 15  1  1
 16 17  1  0
 17  6  1  0
 18 19  2  0
 18 16  1  0
 21 20  1  0
 22 21  1  0
 23 22  1  0
 24 23  1  6
 24 25  1  0
 25 18  1  0
 26 27  1  0
 26 24  1  0
 28 26  2  0
M  END
$$$$
