DRM.pdb
     RDKit          3D

 28 27  0  0  1  0  0  0  0  0999 V2000
   12.4008  -16.4313   19.2278 N   0  0  0  0  0  0  0  0  0  0  0  0
   13.2394  -15.6505   20.1133 C   0  0  1  0  0  0  0  0  0  0  0  0
   13.6809  -14.3719   19.4135 C   0  0  0  0  0  0  0  0  0  0  0  0
   14.8648  -14.6152   18.5546 C   0  0  0  0  0  0  0  0  0  0  0  0
   15.7752  -15.3555   18.9794 O   0  0  0  0  0  0  0  0  0  0  0  0
   12.4042  -15.3075   21.3172 C   0  0  0  0  0  0  0  0  0  0  0  0
   12.8615  -14.5946   22.2368 O   0  0  0  0  0  0  0  0  0  0  0  0
   15.0140  -14.0538   17.2845 O   0  0  0  0  0  0  0  0  0  0  0  0
    6.8181  -12.2291   18.9905 N   0  0  0  0  0  0  0  0  0  0  0  0
    7.9747  -13.0265   18.6448 C   0  0  0  0  0  0  0  0  0  0  0  0
    9.0336  -12.4499   18.3049 N   0  0  0  0  0  0  0  0  0  0  0  0
    7.8799  -14.4436   18.6945 N   0  0  0  0  0  0  0  0  0  0  0  0
    8.3680  -15.3059   19.7022 C   0  0  0  0  0  0  0  0  0  0  0  0
    8.1204  -14.9266   21.1117 C   0  0  0  0  0  0  0  0  0  0  0  0
    8.7001  -15.9925   22.0645 C   0  0  0  0  0  0  0  0  0  0  0  0
   10.1348  -15.6419   22.4319 C   0  0  2  0  0  0  0  0  0  0  0  0
   11.0912  -15.8059   21.3918 N   0  0  0  0  0  0  0  0  0  0  0  0
   10.4777  -16.2318   23.7275 C   0  0  0  0  0  0  0  0  0  0  0  0
   11.1455  -17.3111   23.8063 O   0  0  0  0  0  0  0  0  0  0  0  0
    9.9541  -12.6817   18.0076 C   0  0  0  0  0  0  0  0  0  0  0  0
    9.3510  -13.2444   29.3949 S   0  0  0  0  0  0  0  0  0  0  0  0
   10.3484  -14.6098   30.0256 C   0  0  0  0  0  0  0  0  0  0  0  0
   10.6834  -15.8256   28.7144 C   0  0  0  0  0  0  0  0  0  0  0  0
   10.3099  -15.2800   27.3805 C   0  0  1  0  0  0  0  0  0  0  0  0
   10.5491  -16.2335   26.2599 N   0  0  0  0  0  0  0  0  0  0  0  0
   10.1071  -15.6691   24.9814 C   0  0  0  0  0  0  0  0  0  0  0  0
    9.7931  -17.4808   26.4698 O   0  0  0  0  0  0  0  0  0  0  0  0
   10.2124  -18.5604   27.2323 O   0  0  0  0  0  0  0  0  0  0  0  0
  2  1  1  6
  2  3  1  0
  3  4  1  0
  4  5  2  0
  4  8  1  0
  6  2  1  0
  7  6  2  0
  9 10  1  0
 10 12  1  0
 11 10  2  0
 12 13  1  0
 13 14  1  0
 14 15  1  0
 16 15  1  6
 16 17  1  0
 17  6  1  0
 18 19  2  0
 18 16  1  0
 21 20  1  0
 22 21  1  0
 23 22  1  0
 24 23  1  6
 24 25  1  0
 25 18  1  0
 26 27  1  0
 26 24  1  0
 28 26  2  0
M  END
$$$$
