DRM.pdb
     RDKit          3D

 28 27  0  0  1  0  0  0  0  0999 V2000
   13.1360  -16.7558   19.2540 N   0  0  0  0  0  0  0  0  0  0  0  0
   13.6240  -15.5791   19.9427 C   0  0  1  0  0  0  0  0  0  0  0  0
   13.9421  -14.4837   18.9334 C   0  0  0  0  0  0  0  0  0  0  0  0
   15.2963  -14.6658   18.3577 C   0  0  0  0  0  0  0  0  0  0  0  0
   15.4544  -14.5110   17.1295 O   0  0  0  0  0  0  0  0  0  0  0  0
   12.5220  -15.1201   20.8591 C   0  0  0  0  0  0  0  0  0  0  0  0
   12.6913  -14.1576   21.6388 O   0  0  0  0  0  0  0  0  0  0  0  0
   16.4125  -15.0042   19.1258 O   0  0  0  0  0  0  0  0  0  0  0  0
    7.9500  -12.8264   17.0660 N   0  0  0  0  0  0  0  0  0  0  0  0
    8.5300  -13.2309   18.3282 C   0  0  0  0  0  0  0  0  0  0  0  0
    9.7768  -13.2844   18.4373 N   0  0  0  0  0  0  0  0  0  0  0  0
    7.6716  -13.5621   19.4114 N   0  0  0  0  0  0  0  0  0  0  0  0
    7.2894  -14.8514   19.8460 C   0  0  0  0  0  0  0  0  0  0  0  0
    7.6888  -15.2641   21.2105 C   0  0  0  0  0  0  0  0  0  0  0  0
    8.8639  -16.2618   21.1475 C   0  0  0  0  0  0  0  0  0  0  0  0
   10.1417  -15.5978   21.6402 C   0  0  2  0  0  0  0  0  0  0  0  0
   11.2895  -15.7966   20.8239 N   0  0  0  0  0  0  0  0  0  0  0  0
   10.3137  -15.8458   23.0731 C   0  0  0  0  0  0  0  0  0  0  0  0
   11.1778  -16.6747   23.5012 O   0  0  0  0  0  0  0  0  0  0  0  0
   10.4651  -13.4121   19.1439 C   0  0  0  0  0  0  0  0  0  0  0  0
    6.7579  -12.8859   27.7841 S   0  0  0  0  0  0  0  0  0  0  0  0
    8.1421  -13.5151   28.7561 C   0  0  0  0  0  0  0  0  0  0  0  0
    9.0920  -14.7440   27.8087 C   0  0  0  0  0  0  0  0  0  0  0  0
    9.0183  -14.4577   26.3496 C   0  0  1  0  0  0  0  0  0  0  0  0
    9.8157  -15.4030   25.5173 N   0  0  0  0  0  0  0  0  0  0  0  0
    9.5533  -15.2015   24.0893 C   0  0  0  0  0  0  0  0  0  0  0  0
    9.4611  -16.7980   25.8326 O   0  0  0  0  0  0  0  0  0  0  0  0
   10.0887  -17.5970   26.7762 O   0  0  0  0  0  0  0  0  0  0  0  0
  2  1  1  6
  2  3  1  0
  3  4  1  0
  4  5  2  0
  4  8  1  0
  6  2  1  0
  7  6  2  0
  9 10  1  0
 10 12  1  0
 11 10  2  0
 12 13  1  0
 13 14  1  0
 14 15  1  0
 16 15  1  6
 16 17  1  0
 17  6  1  0
 18 19  2  0
 18 16  1  0
 21 20  1  0
 22 21  1  0
 23 22  1  0
 24 23  1  6
 24 25  1  0
 25 18  1  0
 26 27  1  0
 26 24  1  0
 28 26  2  0
M  END
$$$$
