DRM.pdb
     RDKit          3D

 28 27  0  0  1  0  0  0  0  0999 V2000
   10.4310  -16.8807   18.0693 N   0  0  0  0  0  0  0  0  0  0  0  0
   10.4631  -17.8056   19.1832 C   0  0  1  0  0  0  0  0  0  0  0  0
   11.8825  -17.9146   19.7242 C   0  0  0  0  0  0  0  0  0  0  0  0
   12.7849  -18.5458   18.7313 C   0  0  0  0  0  0  0  0  0  0  0  0
   13.4247  -17.8145   17.9483 O   0  0  0  0  0  0  0  0  0  0  0  0
    9.5572  -17.2430   20.2451 C   0  0  0  0  0  0  0  0  0  0  0  0
    9.2719  -16.0260   20.2700 O   0  0  0  0  0  0  0  0  0  0  0  0
   12.9565  -19.9280   18.6270 O   0  0  0  0  0  0  0  0  0  0  0  0
    7.3738  -21.8936   23.4093 N   0  0  0  0  0  0  0  0  0  0  0  0
    7.0261  -21.7246   24.8034 C   0  0  0  0  0  0  0  0  0  0  0  0
    7.4722  -22.5370   25.6461 N   0  0  0  0  0  0  0  0  0  0  0  0
    6.1834  -20.6446   25.1820 N   0  0  0  0  0  0  0  0  0  0  0  0
    5.5177  -19.7315   24.3332 C   0  0  0  0  0  0  0  0  0  0  0  0
    6.2890  -18.5728   23.8290 C   0  0  0  0  0  0  0  0  0  0  0  0
    7.2999  -19.0265   22.7555 C   0  0  0  0  0  0  0  0  0  0  0  0
    8.1022  -17.8342   22.2545 C   0  0  2  0  0  0  0  0  0  0  0  0
    9.0331  -18.1148   21.2162 N   0  0  0  0  0  0  0  0  0  0  0  0
    8.6098  -17.0605   23.3893 C   0  0  0  0  0  0  0  0  0  0  0  0
    9.7246  -17.3395   23.9337 O   0  0  0  0  0  0  0  0  0  0  0  0
    7.4086  -22.7195   26.6219 C   0  0  0  0  0  0  0  0  0  0  0  0
    5.5262  -11.9238   25.9944 S   0  0  0  0  0  0  0  0  0  0  0  0
    6.7491  -12.1891   27.2946 C   0  0  0  0  0  0  0  0  0  0  0  0
    7.9645  -13.4465   26.7926 C   0  0  0  0  0  0  0  0  0  0  0  0
    7.5091  -14.1621   25.5690 C   0  0  1  0  0  0  0  0  0  0  0  0
    8.4892  -15.1678   25.0691 N   0  0  0  0  0  0  0  0  0  0  0  0
    7.9237  -15.9573   23.9711 C   0  0  0  0  0  0  0  0  0  0  0  0
    8.8561  -16.1114   26.1398 O   0  0  0  0  0  0  0  0  0  0  0  0
   10.0094  -16.0527   26.9073 O   0  0  0  0  0  0  0  0  0  0  0  0
  2  1  1  6
  2  3  1  0
  3  4  1  0
  4  5  2  0
  4  8  1  0
  6  2  1  0
  7  6  2  0
  9 10  1  0
 10 12  1  0
 11 10  2  0
 12 13  1  0
 13 14  1  0
 14 15  1  0
 16 15  1  1
 16 17  1  0
 17  6  1  0
 18 19  2  0
 18 16  1  0
 21 20  1  0
 22 21  1  0
 23 22  1  0
 24 23  1  6
 24 25  1  0
 25 18  1  0
 26 27  1  0
 26 24  1  0
 28 26  2  0
M  END
$$$$
