DRM.pdb
     RDKit          3D

 28 27  0  0  1  0  0  0  0  0999 V2000
   11.5717  -16.6622   19.7405 N   0  0  0  0  0  0  0  0  0  0  0  0
   11.2126  -15.3663   20.2778 C   0  0  1  0  0  0  0  0  0  0  0  0
   10.6794  -14.4744   19.1643 C   0  0  0  0  0  0  0  0  0  0  0  0
   11.7287  -14.1974   18.1540 C   0  0  0  0  0  0  0  0  0  0  0  0
   12.8708  -14.6699   18.3266 O   0  0  0  0  0  0  0  0  0  0  0  0
   10.1339  -15.6005   21.3007 C   0  0  0  0  0  0  0  0  0  0  0  0
    9.0836  -14.9223   21.2963 O   0  0  0  0  0  0  0  0  0  0  0  0
   11.5022  -13.4288   17.0101 O   0  0  0  0  0  0  0  0  0  0  0  0
    5.7410  -21.5385   21.6917 N   0  0  0  0  0  0  0  0  0  0  0  0
    6.0215  -21.1012   23.0419 C   0  0  0  0  0  0  0  0  0  0  0  0
    5.0796  -21.0156   23.8634 N   0  0  0  0  0  0  0  0  0  0  0  0
    7.3570  -20.7749   23.4019 N   0  0  0  0  0  0  0  0  0  0  0  0
    7.8067  -20.1866   24.6056 C   0  0  0  0  0  0  0  0  0  0  0  0
    8.1785  -18.7539   24.5745 C   0  0  0  0  0  0  0  0  0  0  0  0
    9.1630  -18.4795   23.4189 C   0  0  0  0  0  0  0  0  0  0  0  0
    9.4667  -16.9907   23.3321 C   0  0  2  0  0  0  0  0  0  0  0  0
   10.3280  -16.6020   22.2687 N   0  0  0  0  0  0  0  0  0  0  0  0
    9.7993  -16.4699   24.6597 C   0  0  0  0  0  0  0  0  0  0  0  0
   10.7952  -16.9144   25.3135 O   0  0  0  0  0  0  0  0  0  0  0  0
    4.9167  -20.6919   24.7897 C   0  0  0  0  0  0  0  0  0  0  0  0
    4.9505  -12.1940   26.5992 S   0  0  0  0  0  0  0  0  0  0  0  0
    6.6242  -12.0322   27.2544 C   0  0  0  0  0  0  0  0  0  0  0  0
    7.7679  -13.1531   26.3909 C   0  0  0  0  0  0  0  0  0  0  0  0
    8.1528  -14.2930   27.2678 C   0  0  2  0  0  0  0  0  0  0  0  0
    9.2823  -15.1027   26.7289 N   0  0  0  0  0  0  0  0  0  0  0  0
    9.0614  -15.4485   25.3217 C   0  0  0  0  0  0  0  0  0  0  0  0
    9.4148  -16.3680   27.4725 O   0  0  0  0  0  0  0  0  0  0  0  0
   10.2082  -16.5671   28.5921 O   0  0  0  0  0  0  0  0  0  0  0  0
  2  1  1  6
  2  3  1  0
  3  4  1  0
  4  5  2  0
  4  8  1  0
  6  2  1  0
  7  6  2  0
  9 10  1  0
 10 12  1  0
 11 10  2  0
 12 13  1  0
 13 14  1  0
 14 15  1  0
 16 15  1  1
 16 17  1  0
 17  6  1  0
 18 19  2  0
 18 16  1  0
 21 20  1  0
 22 21  1  0
 23 22  1  0
 24 23  1  6
 24 25  1  0
 25 18  1  0
 26 27  1  0
 26 24  1  0
 28 26  2  0
M  END
$$$$
