DRM.pdb
     RDKit          3D

 28 27  0  0  1  0  0  0  0  0999 V2000
   13.3470  -17.0764   19.1662 N   0  0  0  0  0  0  0  0  0  0  0  0
   14.0855  -16.7771   20.3754 C   0  0  1  0  0  0  0  0  0  0  0  0
   15.0818  -15.6564   20.1090 C   0  0  0  0  0  0  0  0  0  0  0  0
   16.1638  -16.1090   19.2019 C   0  0  0  0  0  0  0  0  0  0  0  0
   16.1077  -15.7976   17.9948 O   0  0  0  0  0  0  0  0  0  0  0  0
   13.0805  -16.3290   21.4021 C   0  0  0  0  0  0  0  0  0  0  0  0
   13.4423  -15.7390   22.4433 O   0  0  0  0  0  0  0  0  0  0  0  0
   17.2512  -16.8721   19.6331 O   0  0  0  0  0  0  0  0  0  0  0  0
    7.2915  -11.9736   19.6544 N   0  0  0  0  0  0  0  0  0  0  0  0
    7.9173  -13.1654   19.1243 C   0  0  0  0  0  0  0  0  0  0  0  0
    8.2543  -13.1923   17.9181 N   0  0  0  0  0  0  0  0  0  0  0  0
    8.1299  -14.2776   19.9831 N   0  0  0  0  0  0  0  0  0  0  0  0
    7.7946  -14.3870   21.3517 C   0  0  0  0  0  0  0  0  0  0  0  0
    8.1319  -15.6515   22.0438 C   0  0  0  0  0  0  0  0  0  0  0  0
    9.2354  -16.4070   21.2747 C   0  0  0  0  0  0  0  0  0  0  0  0
   10.5897  -16.1579   21.9228 C   0  0  2  0  0  0  0  0  0  0  0  0
   11.7177  -16.5869   21.1697 N   0  0  0  0  0  0  0  0  0  0  0  0
   10.5543  -16.5673   23.3283 C   0  0  0  0  0  0  0  0  0  0  0  0
   10.9071  -17.7357   23.6855 O   0  0  0  0  0  0  0  0  0  0  0  0
    8.7163  -13.7993   17.2796 C   0  0  0  0  0  0  0  0  0  0  0  0
   10.3199  -13.9791   30.8639 S   0  0  0  0  0  0  0  0  0  0  0  0
    9.9145  -13.6871   29.1298 C   0  0  0  0  0  0  0  0  0  0  0  0
   10.2377  -15.1731   28.1310 C   0  0  0  0  0  0  0  0  0  0  0  0
   10.1205  -14.8687   26.6784 C   0  0  1  0  0  0  0  0  0  0  0  0
   10.3823  -16.0453   25.8014 N   0  0  0  0  0  0  0  0  0  0  0  0
   10.1349  -15.7213   24.3935 C   0  0  0  0  0  0  0  0  0  0  0  0
    9.4902  -17.1639   26.1541 O   0  0  0  0  0  0  0  0  0  0  0  0
    8.3846  -17.5754   25.4255 O   0  0  0  0  0  0  0  0  0  0  0  0
  2  1  1  6
  2  3  1  0
  3  4  1  0
  4  5  2  0
  4  8  1  0
  6  2  1  0
  7  6  2  0
  9 10  1  0
 10 12  1  0
 11 10  2  0
 12 13  1  0
 13 14  1  0
 14 15  1  0
 16 15  1  6
 16 17  1  0
 17  6  1  0
 18 19  2  0
 18 16  1  0
 21 20  1  0
 22 21  1  0
 23 22  1  0
 24 23  1  6
 24 25  1  0
 25 18  1  0
 26 27  1  0
 26 24  1  0
 28 26  2  0
M  END
$$$$
