IFS.pdb
     RDKit          3D

 26 26  0  0  1  0  0  0  0  0999 V2000
    7.6290  -12.4189   18.3273 C   0  0  0  0  0  0  0  0  0  0  0  0
    7.1745  -13.5459   19.2153 C   0  0  0  0  0  0  0  0  0  0  0  0
    7.9608  -13.5863   20.4900 C   0  0  2  0  0  0  0  0  0  0  0  0
    9.4506  -13.6962   20.1600 C   0  0  0  0  0  0  0  0  0  0  0  0
    7.5712  -14.6971   21.4326 C   0  0  2  0  0  0  0  0  0  0  0  0
    6.0971  -14.6258   21.5942 N   0  0  0  0  0  0  0  0  0  0  0  0
    8.1126  -14.6439   22.7779 C   0  0  0  0  0  0  0  0  0  0  0  0
    8.5356  -13.5595   23.2478 O   0  0  0  0  0  0  0  0  0  0  0  0
    8.1810  -15.7855   23.6050 N   0  0  0  0  0  0  0  0  0  0  0  0
    8.7549  -15.8766   24.9063 C   0  0  1  0  0  0  0  0  0  0  0  0
    7.8005  -15.6777   26.0719 C   0  0  0  0  0  0  0  0  0  0  0  0
    7.4090  -14.2571   26.2688 C   0  0  0  0  0  0  0  0  0  0  0  0
    6.1081  -13.8472   25.9256 C   0  0  0  0  0  0  0  0  0  0  0  0
    5.6943  -12.5449   26.0681 C   0  0  0  0  0  0  0  0  0  0  0  0
    6.5313  -11.5700   26.5550 C   0  0  0  0  0  0  0  0  0  0  0  0
    7.8077  -11.9462   26.8969 C   0  0  0  0  0  0  0  0  0  0  0  0
    8.2337  -13.2744   26.7526 C   0  0  0  0  0  0  0  0  0  0  0  0
    9.5614  -17.0978   25.1337 C   0  0  0  0  0  0  0  0  0  0  0  0
    9.0471  -18.2386   25.0150 O   0  0  0  0  0  0  0  0  0  0  0  0
   13.2622  -17.7164   24.0588 O   0  0  0  0  0  0  0  0  0  0  0  0
   13.1722  -18.0553   25.4051 C   0  0  0  0  0  0  0  0  0  0  0  0
   11.7196  -18.2355   25.7881 C   0  0  2  0  0  0  0  0  0  0  0  0
   10.9428  -17.0468   25.4940 N   0  0  0  0  0  0  0  0  0  0  0  0
   11.5705  -18.5681   27.2242 C   0  0  0  0  0  0  0  0  0  0  0  0
   10.9021  -17.8210   27.9930 O   0  0  0  0  0  0  0  0  0  0  0  0
   12.1579  -19.7012   27.7553 O   0  0  0  0  0  0  0  0  0  0  0  0
  2  1  1  0
  3  2  1  0
  3  4  1  6
  5  3  1  0
  5  6  1  1
  7  9  1  0
  7  5  1  0
  8  7  2  0
 10 11  1  1
 10  9  1  0
 12 17  2  0
 12 11  1  0
 13 12  1  0
 14 15  1  0
 14 13  2  0
 15 16  2  0
 16 17  1  0
 18 10  1  0
 18 19  2  0
 20 21  1  0
 22 21  1  1
 22 24  1  0
 22 23  1  0
 23 18  1  0
 24 26  1  0
 25 24  2  0
M  END
$$$$
