IFS.pdb
     RDKit          3D

 26 26  0  0  1  0  0  0  0  0999 V2000
    7.1590  -11.8799   19.1550 C   0  0  0  0  0  0  0  0  0  0  0  0
    7.4247  -13.3274   19.4701 C   0  0  0  0  0  0  0  0  0  0  0  0
    8.0519  -13.4845   20.8217 C   0  0  2  0  0  0  0  0  0  0  0  0
    9.3823  -12.7298   20.8509 C   0  0  0  0  0  0  0  0  0  0  0  0
    8.2751  -14.9139   21.2474 C   0  0  2  0  0  0  0  0  0  0  0  0
    6.9465  -15.5764   21.2408 N   0  0  0  0  0  0  0  0  0  0  0  0
    8.8115  -15.1321   22.5780 C   0  0  0  0  0  0  0  0  0  0  0  0
    9.9723  -14.7491   22.8635 O   0  0  0  0  0  0  0  0  0  0  0  0
    8.0645  -15.7670   23.5934 N   0  0  0  0  0  0  0  0  0  0  0  0
    8.4530  -15.9781   24.9482 C   0  0  1  0  0  0  0  0  0  0  0  0
    7.4021  -15.6654   26.0002 C   0  0  0  0  0  0  0  0  0  0  0  0
    7.1675  -14.2078   26.1745 C   0  0  0  0  0  0  0  0  0  0  0  0
    8.1709  -13.4136   26.7584 C   0  0  0  0  0  0  0  0  0  0  0  0
    8.0050  -12.0650   26.9618 C   0  0  0  0  0  0  0  0  0  0  0  0
    6.8467  -11.4176   26.6048 C   0  0  0  0  0  0  0  0  0  0  0  0
    5.8516  -12.1726   26.0327 C   0  0  0  0  0  0  0  0  0  0  0  0
    6.0172  -13.5493   25.8238 C   0  0  0  0  0  0  0  0  0  0  0  0
    9.0345  -17.3138   25.2155 C   0  0  0  0  0  0  0  0  0  0  0  0
    8.3231  -18.3483   25.1532 O   0  0  0  0  0  0  0  0  0  0  0  0
   12.5171  -18.0337   24.0809 O   0  0  0  0  0  0  0  0  0  0  0  0
   12.4157  -18.8560   25.1983 C   0  0  0  0  0  0  0  0  0  0  0  0
   11.0039  -18.8060   25.7400 C   0  0  2  0  0  0  0  0  0  0  0  0
   10.4106  -17.4961   25.5526 N   0  0  0  0  0  0  0  0  0  0  0  0
   10.9580  -19.1568   27.1789 C   0  0  0  0  0  0  0  0  0  0  0  0
   10.4806  -18.3487   28.0246 O   0  0  0  0  0  0  0  0  0  0  0  0
   11.4355  -20.3737   27.6286 O   0  0  0  0  0  0  0  0  0  0  0  0
  2  1  1  0
  3  2  1  0
  3  4  1  6
  5  3  1  0
  5  6  1  1
  7  9  1  0
  7  5  1  0
  8  7  2  0
 10 11  1  1
 10  9  1  0
 12 17  2  0
 12 11  1  0
 13 12  1  0
 14 15  1  0
 14 13  2  0
 15 16  2  0
 16 17  1  0
 18 10  1  0
 18 19  2  0
 20 21  1  0
 22 21  1  1
 22 24  1  0
 22 23  1  0
 23 18  1  0
 24 26  1  0
 25 24  2  0
M  END
$$$$
