IFS.pdb
     RDKit          3D

 26 26  0  0  1  0  0  0  0  0999 V2000
   10.3923  -21.4337   20.6599 C   0  0  0  0  0  0  0  0  0  0  0  0
    9.7031  -20.1561   20.2623 C   0  0  0  0  0  0  0  0  0  0  0  0
    9.9197  -19.0800   21.2821 C   0  0  2  0  0  0  0  0  0  0  0  0
    9.4739  -19.5887   22.6542 C   0  0  0  0  0  0  0  0  0  0  0  0
    9.2228  -17.7778   20.9777 C   0  0  2  0  0  0  0  0  0  0  0  0
    9.8172  -17.2561   19.7213 N   0  0  0  0  0  0  0  0  0  0  0  0
    9.3651  -16.7083   21.9482 C   0  0  0  0  0  0  0  0  0  0  0  0
   10.4905  -16.1969   22.1665 O   0  0  0  0  0  0  0  0  0  0  0  0
    8.2650  -16.2006   22.6722 N   0  0  0  0  0  0  0  0  0  0  0  0
    8.2991  -15.3058   23.7809 C   0  0  1  0  0  0  0  0  0  0  0  0
    7.0864  -14.4059   23.9495 C   0  0  0  0  0  0  0  0  0  0  0  0
    7.1615  -13.5476   25.1611 C   0  0  0  0  0  0  0  0  0  0  0  0
    6.4339  -13.9108   26.3088 C   0  0  0  0  0  0  0  0  0  0  0  0
    6.4495  -13.1484   27.4516 C   0  0  0  0  0  0  0  0  0  0  0  0
    7.1787  -11.9868   27.5352 C   0  0  0  0  0  0  0  0  0  0  0  0
    7.8976  -11.6109   26.4264 C   0  0  0  0  0  0  0  0  0  0  0  0
    7.8839  -12.3863   25.2582 C   0  0  0  0  0  0  0  0  0  0  0  0
    8.6174  -15.9502   25.0759 C   0  0  0  0  0  0  0  0  0  0  0  0
    7.8252  -16.7775   25.5936 O   0  0  0  0  0  0  0  0  0  0  0  0
   12.4253  -16.2746   26.1230 O   0  0  0  0  0  0  0  0  0  0  0  0
   11.5335  -17.1223   26.7720 C   0  0  0  0  0  0  0  0  0  0  0  0
   10.2142  -16.4109   26.9781 C   0  0  2  0  0  0  0  0  0  0  0  0
    9.8202  -15.6717   25.7943 N   0  0  0  0  0  0  0  0  0  0  0  0
   10.2681  -15.4833   28.1323 C   0  0  0  0  0  0  0  0  0  0  0  0
    9.9821  -14.2609   27.9910 O   0  0  0  0  0  0  0  0  0  0  0  0
   10.6318  -15.9327   29.3880 O   0  0  0  0  0  0  0  0  0  0  0  0
  2  1  1  0
  3  2  1  0
  3  4  1  1
  5  3  1  0
  5  6  1  6
  7  9  1  0
  7  5  1  0
  8  7  2  0
 10 11  1  1
 10  9  1  0
 12 17  2  0
 12 11  1  0
 13 12  1  0
 14 15  1  0
 14 13  2  0
 15 16  2  0
 16 17  1  0
 18 10  1  0
 18 19  2  0
 20 21  1  0
 22 21  1  6
 22 24  1  0
 22 23  1  0
 23 18  1  0
 24 26  1  0
 25 24  2  0
M  END
$$$$
