IFS.pdb
     RDKit          3D

 26 26  0  0  1  0  0  0  0  0999 V2000
    7.3999  -16.9562   18.8603 C   0  0  0  0  0  0  0  0  0  0  0  0
    8.0865  -15.7254   19.3884 C   0  0  0  0  0  0  0  0  0  0  0  0
    7.0931  -14.6867   19.8117 C   0  0  2  0  0  0  0  0  0  0  0  0
    6.3002  -14.2198   18.5895 C   0  0  0  0  0  0  0  0  0  0  0  0
    7.6934  -13.4914   20.5083 C   0  0  2  0  0  0  0  0  0  0  0  0
    8.6390  -12.8660   19.5497 N   0  0  0  0  0  0  0  0  0  0  0  0
    8.4681  -13.7451   21.7088 C   0  0  0  0  0  0  0  0  0  0  0  0
    9.7154  -13.8710   21.6428 O   0  0  0  0  0  0  0  0  0  0  0  0
    7.8668  -13.8537   22.9811 N   0  0  0  0  0  0  0  0  0  0  0  0
    8.4927  -14.2365   24.2028 C   0  0  1  0  0  0  0  0  0  0  0  0
    7.7469  -13.8752   25.4764 C   0  0  0  0  0  0  0  0  0  0  0  0
    8.5228  -14.1701   26.7098 C   0  0  0  0  0  0  0  0  0  0  0  0
    9.2692  -13.1436   27.3160 C   0  0  0  0  0  0  0  0  0  0  0  0
   10.0198  -13.3599   28.4462 C   0  0  0  0  0  0  0  0  0  0  0  0
   10.0820  -14.5942   29.0470 C   0  0  0  0  0  0  0  0  0  0  0  0
    9.3613  -15.6132   28.4728 C   0  0  0  0  0  0  0  0  0  0  0  0
    8.5943  -15.3963   27.3191 C   0  0  0  0  0  0  0  0  0  0  0  0
    8.9026  -15.6586   24.2593 C   0  0  0  0  0  0  0  0  0  0  0  0
    8.0533  -16.5772   24.1380 O   0  0  0  0  0  0  0  0  0  0  0  0
   12.4142  -16.9792   22.9333 O   0  0  0  0  0  0  0  0  0  0  0  0
   11.3571  -17.8463   23.1899 C   0  0  0  0  0  0  0  0  0  0  0  0
   10.6731  -17.4467   24.4789 C   0  0  2  0  0  0  0  0  0  0  0  0
   10.2610  -16.0567   24.4513 N   0  0  0  0  0  0  0  0  0  0  0  0
   11.5486  -17.6687   25.6535 C   0  0  0  0  0  0  0  0  0  0  0  0
   11.8633  -16.7099   26.4135 O   0  0  0  0  0  0  0  0  0  0  0  0
   12.0405  -18.9275   25.9446 O   0  0  0  0  0  0  0  0  0  0  0  0
  2  1  1  0
  3  2  1  0
  3  4  1  6
  5  3  1  0
  5  6  1  6
  7  9  1  0
  7  5  1  0
  8  7  2  0
 10 11  1  1
 10  9  1  0
 12 17  2  0
 12 11  1  0
 13 12  1  0
 14 15  1  0
 14 13  2  0
 15 16  2  0
 16 17  1  0
 18 10  1  0
 18 19  2  0
 20 21  1  0
 22 21  1  6
 22 24  1  0
 22 23  1  0
 23 18  1  0
 24 26  1  0
 25 24  2  0
M  END
$$$$
