IFS.pdb
     RDKit          3D

 26 26  0  0  1  0  0  0  0  0999 V2000
    8.3990  -13.8537   17.3275 C   0  0  0  0  0  0  0  0  0  0  0  0
    7.4576  -13.9499   18.4978 C   0  0  0  0  0  0  0  0  0  0  0  0
    8.2055  -14.0246   19.7939 C   0  0  2  0  0  0  0  0  0  0  0  0
    9.2875  -15.1012   19.6903 C   0  0  0  0  0  0  0  0  0  0  0  0
    7.3430  -14.2930   21.0015 C   0  0  2  0  0  0  0  0  0  0  0  0
    6.3299  -13.2091   21.0550 N   0  0  0  0  0  0  0  0  0  0  0  0
    7.9958  -14.2791   22.2974 C   0  0  0  0  0  0  0  0  0  0  0  0
    8.5693  -13.2401   22.7064 O   0  0  0  0  0  0  0  0  0  0  0  0
    8.0099  -15.4093   23.1428 N   0  0  0  0  0  0  0  0  0  0  0  0
    8.6427  -15.5296   24.4141 C   0  0  1  0  0  0  0  0  0  0  0  0
    7.7237  -15.4874   25.6235 C   0  0  0  0  0  0  0  0  0  0  0  0
    7.3469  -14.1055   26.0213 C   0  0  0  0  0  0  0  0  0  0  0  0
    6.0190  -13.6761   25.8460 C   0  0  0  0  0  0  0  0  0  0  0  0
    5.6154  -12.4055   26.1780 C   0  0  0  0  0  0  0  0  0  0  0  0
    6.4896  -11.4831   26.7006 C   0  0  0  0  0  0  0  0  0  0  0  0
    7.7927  -11.8792   26.8808 C   0  0  0  0  0  0  0  0  0  0  0  0
    8.2084  -13.1751   26.5429 C   0  0  0  0  0  0  0  0  0  0  0  0
    9.5592  -16.6869   24.5327 C   0  0  0  0  0  0  0  0  0  0  0  0
    9.1239  -17.8628   24.4444 O   0  0  0  0  0  0  0  0  0  0  0  0
   14.1494  -18.3206   24.8955 O   0  0  0  0  0  0  0  0  0  0  0  0
   13.3118  -17.2228   24.7260 C   0  0  0  0  0  0  0  0  0  0  0  0
   11.8686  -17.6610   24.8460 C   0  0  2  0  0  0  0  0  0  0  0  0
   10.9626  -16.5328   24.7501 N   0  0  0  0  0  0  0  0  0  0  0  0
   11.6188  -18.3756   26.1197 C   0  0  0  0  0  0  0  0  0  0  0  0
   12.1409  -19.5049   26.3386 O   0  0  0  0  0  0  0  0  0  0  0  0
   10.8102  -17.8244   27.0962 O   0  0  0  0  0  0  0  0  0  0  0  0
  2  1  1  0
  3  2  1  0
  3  4  1  6
  5  3  1  0
  5  6  1  1
  7  9  1  0
  7  5  1  0
  8  7  2  0
 10 11  1  1
 10  9  1  0
 12 17  2  0
 12 11  1  0
 13 12  1  0
 14 15  1  0
 14 13  2  0
 15 16  2  0
 16 17  1  0
 18 10  1  0
 18 19  2  0
 20 21  1  0
 22 21  1  1
 22 24  1  0
 22 23  1  0
 23 18  1  0
 24 26  1  0
 25 24  2  0
M  END
$$$$
