IFS.pdb
     RDKit          3D

 26 26  0  0  1  0  0  0  0  0999 V2000
    6.6614  -12.2613   18.4105 C   0  0  0  0  0  0  0  0  0  0  0  0
    7.2406  -13.5904   18.8145 C   0  0  0  0  0  0  0  0  0  0  0  0
    7.8791  -13.5177   20.1679 C   0  0  2  0  0  0  0  0  0  0  0  0
    9.0582  -12.5442   20.1174 C   0  0  0  0  0  0  0  0  0  0  0  0
    8.3451  -14.8440   20.7139 C   0  0  2  0  0  0  0  0  0  0  0  0
    7.1313  -15.6735   20.9206 N   0  0  0  0  0  0  0  0  0  0  0  0
    9.0285  -14.8295   21.9940 C   0  0  0  0  0  0  0  0  0  0  0  0
   10.2238  -14.4537   22.0694 O   0  0  0  0  0  0  0  0  0  0  0  0
    8.3907  -15.2239   23.1897 N   0  0  0  0  0  0  0  0  0  0  0  0
    8.9527  -15.2553   24.4990 C   0  0  1  0  0  0  0  0  0  0  0  0
    8.0134  -14.8932   25.6371 C   0  0  0  0  0  0  0  0  0  0  0  0
    8.7126  -14.7219   26.9379 C   0  0  0  0  0  0  0  0  0  0  0  0
    9.0539  -13.4281   27.3714 C   0  0  0  0  0  0  0  0  0  0  0  0
    9.7161  -13.2084   28.5549 C   0  0  0  0  0  0  0  0  0  0  0  0
   10.0819  -14.2436   29.3811 C   0  0  0  0  0  0  0  0  0  0  0  0
    9.7596  -15.5171   28.9788 C   0  0  0  0  0  0  0  0  0  0  0  0
    9.0840  -15.7453   27.7714 C   0  0  0  0  0  0  0  0  0  0  0  0
    9.6629  -16.5126   24.8284 C   0  0  0  0  0  0  0  0  0  0  0  0
    9.0307  -17.5900   24.9676 O   0  0  0  0  0  0  0  0  0  0  0  0
   13.7937  -16.7096   24.5232 O   0  0  0  0  0  0  0  0  0  0  0  0
   13.0433  -17.8640   24.3241 C   0  0  0  0  0  0  0  0  0  0  0  0
   11.7980  -17.8152   25.1820 C   0  0  2  0  0  0  0  0  0  0  0  0
   11.0797  -16.5683   25.0027 N   0  0  0  0  0  0  0  0  0  0  0  0
   12.1172  -17.9877   26.6186 C   0  0  0  0  0  0  0  0  0  0  0  0
   11.8127  -17.0944   27.4585 O   0  0  0  0  0  0  0  0  0  0  0  0
   12.7541  -19.1276   27.0725 O   0  0  0  0  0  0  0  0  0  0  0  0
  2  1  1  0
  3  2  1  0
  3  4  1  6
  5  3  1  0
  5  6  1  1
  7  9  1  0
  7  5  1  0
  8  7  2  0
 10 11  1  1
 10  9  1  0
 12 17  2  0
 12 11  1  0
 13 12  1  0
 14 15  1  0
 14 13  2  0
 15 16  2  0
 16 17  1  0
 18 10  1  0
 18 19  2  0
 20 21  1  0
 22 21  1  6
 22 24  1  0
 22 23  1  0
 23 18  1  0
 24 26  1  0
 25 24  2  0
M  END
$$$$
