IFS.pdb
     RDKit          3D

 26 26  0  0  1  0  0  0  0  0999 V2000
    7.6412  -16.4092   17.3279 C   0  0  0  0  0  0  0  0  0  0  0  0
    7.3289  -15.2840   18.2774 C   0  0  0  0  0  0  0  0  0  0  0  0
    7.9807  -15.4983   19.6093 C   0  0  2  0  0  0  0  0  0  0  0  0
    7.6641  -16.9109   20.1041 C   0  0  0  0  0  0  0  0  0  0  0  0
    7.5915  -14.4960   20.6668 C   0  0  2  0  0  0  0  0  0  0  0  0
    7.9753  -13.1575   20.1517 N   0  0  0  0  0  0  0  0  0  0  0  0
    8.2376  -14.6144   21.9607 C   0  0  0  0  0  0  0  0  0  0  0  0
    9.4192  -14.2204   22.1169 O   0  0  0  0  0  0  0  0  0  0  0  0
    7.5776  -15.1617   23.0819 N   0  0  0  0  0  0  0  0  0  0  0  0
    8.1088  -15.3486   24.3910 C   0  0  1  0  0  0  0  0  0  0  0  0
    7.1624  -15.0557   25.5432 C   0  0  0  0  0  0  0  0  0  0  0  0
    7.0998  -13.6123   25.8935 C   0  0  0  0  0  0  0  0  0  0  0  0
    5.8479  -12.9757   25.9703 C   0  0  0  0  0  0  0  0  0  0  0  0
    5.7278  -11.6407   26.2717 C   0  0  0  0  0  0  0  0  0  0  0  0
    6.8272  -10.8532   26.5150 C   0  0  0  0  0  0  0  0  0  0  0  0
    8.0615  -11.4525   26.4454 C   0  0  0  0  0  0  0  0  0  0  0  0
    8.1881  -12.8148   26.1378 C   0  0  0  0  0  0  0  0  0  0  0  0
    8.7532  -16.6647   24.6062 C   0  0  0  0  0  0  0  0  0  0  0  0
    8.0664  -17.7164   24.6526 O   0  0  0  0  0  0  0  0  0  0  0  0
   12.9172  -17.0509   24.6242 O   0  0  0  0  0  0  0  0  0  0  0  0
   12.1471  -18.1389   24.2260 C   0  0  0  0  0  0  0  0  0  0  0  0
   10.8078  -18.0983   24.9286 C   0  0  2  0  0  0  0  0  0  0  0  0
   10.1650  -16.8081   24.7698 N   0  0  0  0  0  0  0  0  0  0  0  0
   10.9396  -18.3987   26.3735 C   0  0  0  0  0  0  0  0  0  0  0  0
   10.5743  -17.5580   27.2429 O   0  0  0  0  0  0  0  0  0  0  0  0
   11.4643  -19.6033   26.8033 O   0  0  0  0  0  0  0  0  0  0  0  0
  2  1  1  0
  3  2  1  0
  3  4  1  1
  5  3  1  0
  5  6  1  6
  7  9  1  0
  7  5  1  0
  8  7  2  0
 10 11  1  1
 10  9  1  0
 12 17  2  0
 12 11  1  0
 13 12  1  0
 14 15  1  0
 14 13  2  0
 15 16  2  0
 16 17  1  0
 18 10  1  0
 18 19  2  0
 20 21  1  0
 22 21  1  1
 22 24  1  0
 22 23  1  0
 23 18  1  0
 24 26  1  0
 25 24  2  0
M  END
$$$$
