IFS.pdb
     RDKit          3D

 26 26  0  0  1  0  0  0  0  0999 V2000
    7.3326  -12.7950   17.4663 C   0  0  0  0  0  0  0  0  0  0  0  0
    7.7705  -14.0498   18.1726 C   0  0  0  0  0  0  0  0  0  0  0  0
    8.0309  -13.7944   19.6258 C   0  0  2  0  0  0  0  0  0  0  0  0
    9.0398  -12.6527   19.7642 C   0  0  0  0  0  0  0  0  0  0  0  0
    8.5210  -14.9948   20.3959 C   0  0  2  0  0  0  0  0  0  0  0  0
    7.4109  -15.9805   20.4066 N   0  0  0  0  0  0  0  0  0  0  0  0
    8.8718  -14.7894   21.7889 C   0  0  0  0  0  0  0  0  0  0  0  0
    9.9923  -14.3141   22.0963 O   0  0  0  0  0  0  0  0  0  0  0  0
    7.9841  -15.1029   22.8405 N   0  0  0  0  0  0  0  0  0  0  0  0
    8.2007  -14.9212   24.2373 C   0  0  1  0  0  0  0  0  0  0  0  0
    7.0105  -14.4190   25.0373 C   0  0  0  0  0  0  0  0  0  0  0  0
    7.3815  -13.9376   26.3941 C   0  0  0  0  0  0  0  0  0  0  0  0
    7.2349  -12.5737   26.7051 C   0  0  0  0  0  0  0  0  0  0  0  0
    7.5777  -12.0671   27.9353 C   0  0  0  0  0  0  0  0  0  0  0  0
    8.0836  -12.8677   28.9309 C   0  0  0  0  0  0  0  0  0  0  0  0
    8.2362  -14.2040   28.6507 C   0  0  0  0  0  0  0  0  0  0  0  0
    7.8877  -14.7247   27.3962 C   0  0  0  0  0  0  0  0  0  0  0  0
    8.7934  -16.0938   24.9208 C   0  0  0  0  0  0  0  0  0  0  0  0
    8.1087  -17.1258   25.1359 O   0  0  0  0  0  0  0  0  0  0  0  0
   12.7954  -16.5396   24.8999 O   0  0  0  0  0  0  0  0  0  0  0  0
   12.0208  -17.6759   25.1098 C   0  0  0  0  0  0  0  0  0  0  0  0
   10.7817  -17.3084   25.8964 C   0  0  2  0  0  0  0  0  0  0  0  0
   10.1509  -16.1158   25.3647 N   0  0  0  0  0  0  0  0  0  0  0  0
   11.0880  -17.0957   27.3304 C   0  0  0  0  0  0  0  0  0  0  0  0
   10.8307  -15.9916   27.8878 O   0  0  0  0  0  0  0  0  0  0  0  0
   11.6612  -18.0982   28.0902 O   0  0  0  0  0  0  0  0  0  0  0  0
  2  1  1  0
  3  2  1  0
  3  4  1  6
  5  3  1  0
  5  6  1  1
  7  9  1  0
  7  5  1  0
  8  7  2  0
 10 11  1  1
 10  9  1  0
 12 17  2  0
 12 11  1  0
 13 12  1  0
 14 15  1  0
 14 13  2  0
 15 16  2  0
 16 17  1  0
 18 10  1  0
 18 19  2  0
 20 21  1  0
 22 21  1  6
 22 24  1  0
 22 23  1  0
 23 18  1  0
 24 26  1  0
 25 24  2  0
M  END
$$$$
