PDK.pdb
     RDKit          3D

 25 25  0  0  1  0  0  0  0  0999 V2000
   15.0714  -11.5710  -15.3578 N   0  0  0  0  0  0  0  0  0  0  0  0
   15.7744  -11.8908  -16.5488 C   0  0  0  0  0  0  0  0  0  0  0  0
   17.1659  -12.3418  -16.0929 C   0  0  0  0  0  0  0  0  0  0  0  0
   16.9235  -12.7926  -14.6767 C   0  0  0  0  0  0  0  0  0  0  0  0
   15.8425  -11.8485  -14.2058 C   0  0  1  0  0  0  0  0  0  0  0  0
   16.5210  -10.6772  -13.5963 C   0  0  0  0  0  0  0  0  0  0  0  0
   17.2040  -10.9361  -12.5519 O   0  0  0  0  0  0  0  0  0  0  0  0
   16.4560   -9.3533  -14.0839 N   0  0  0  0  0  0  0  0  0  0  0  0
   17.1706   -8.2698  -13.4548 C   0  0  1  0  0  0  0  0  0  0  0  0
   17.8303   -7.3515  -14.4206 C   0  0  0  0  0  0  0  0  0  0  0  0
   18.6101   -6.2973  -13.7329 C   0  0  0  0  0  0  0  0  0  0  0  0
   19.0297   -6.4546  -12.5612 O   0  0  0  0  0  0  0  0  0  0  0  0
   16.2850   -7.6203  -12.4809 C   0  0  0  0  0  0  0  0  0  0  0  0
   15.2896   -6.9973  -12.9244 O   0  0  0  0  0  0  0  0  0  0  0  0
   18.9199   -5.0835  -14.3396 O   0  0  0  0  0  0  0  0  0  0  0  0
   16.4619   -7.6394  -11.0884 N   0  0  0  0  0  0  0  0  0  0  0  0
   15.5428   -6.9345  -10.1487 C   0  0  1  0  0  0  0  0  0  0  0  0
   14.5182   -7.8672   -9.6471 C   0  0  0  0  0  0  0  0  0  0  0  0
   13.5673   -7.3577   -8.6432 C   0  0  0  0  0  0  0  0  0  0  0  0
   12.4717   -8.1893   -8.1370 C   0  0  0  0  0  0  0  0  0  0  0  0
   11.4749   -7.7203   -7.1711 C   0  0  0  0  0  0  0  0  0  0  0  0
   10.5197   -8.6709   -6.6907 N   0  0  0  0  0  0  0  0  0  0  0  0
   16.3995   -6.3670   -9.0598 C   0  0  0  0  0  0  0  0  0  0  0  0
   15.9311   -5.6637   -8.1727 O   0  0  0  0  0  0  0  0  0  0  0  0
   17.7525   -6.6442   -9.0560 O   0  0  0  0  0  0  0  0  0  0  0  0
  1  2  1  0
  3  2  1  0
  4  3  1  0
  5  6  1  6
  5  4  1  0
  5  1  1  0
  6  7  2  0
  8  9  1  0
  8  6  1  0
  9 13  1  0
 10 11  1  0
  9 10  1  6
 11 15  1  0
 12 11  2  0
 13 14  2  0
 13 16  1  0
 16 17  1  0
 17 23  1  0
 17 18  1  1
 19 18  1  0
 20 19  1  0
 21 20  1  0
 22 21  1  0
 23 24  2  0
 23 25  1  0
M  END
$$$$
