PDK.pdb
     RDKit          3D

 25 25  0  0  1  0  0  0  0  0999 V2000
   26.3676  -22.5073  -16.9966 N   0  0  0  0  0  0  0  0  0  0  0  0
   27.5538  -22.9440  -16.3508 C   0  0  0  0  0  0  0  0  0  0  0  0
   27.1023  -24.0044  -15.3412 C   0  0  0  0  0  0  0  0  0  0  0  0
   25.7976  -24.4832  -15.9209 C   0  0  0  0  0  0  0  0  0  0  0  0
   25.2368  -23.2341  -16.5588 C   0  0  1  0  0  0  0  0  0  0  0  0
   24.4024  -22.5576  -15.5341 C   0  0  0  0  0  0  0  0  0  0  0  0
   24.9257  -22.4916  -14.3740 O   0  0  0  0  0  0  0  0  0  0  0  0
   23.1209  -22.0085  -15.7599 N   0  0  0  0  0  0  0  0  0  0  0  0
   22.3653  -21.3712  -14.7096 C   0  0  1  0  0  0  0  0  0  0  0  0
   22.0475  -19.9450  -14.9860 C   0  0  0  0  0  0  0  0  0  0  0  0
   21.3636  -19.3017  -13.8411 C   0  0  0  0  0  0  0  0  0  0  0  0
   20.8190  -18.1772  -13.9536 O   0  0  0  0  0  0  0  0  0  0  0  0
   21.2110  -22.2149  -14.3772 C   0  0  0  0  0  0  0  0  0  0  0  0
   20.6350  -22.8107  -15.3199 O   0  0  0  0  0  0  0  0  0  0  0  0
   21.2857  -19.9003  -12.5869 O   0  0  0  0  0  0  0  0  0  0  0  0
   20.6972  -22.4099  -13.0854 N   0  0  0  0  0  0  0  0  0  0  0  0
   19.5640  -23.3366  -12.7995 C   0  0  1  0  0  0  0  0  0  0  0  0
   19.6769  -23.8673  -11.4294 C   0  0  0  0  0  0  0  0  0  0  0  0
   18.6177  -24.7799  -10.9638 C   0  0  0  0  0  0  0  0  0  0  0  0
   18.6523  -25.3699   -9.6226 C   0  0  0  0  0  0  0  0  0  0  0  0
   17.6227  -26.2752   -9.1062 C   0  0  0  0  0  0  0  0  0  0  0  0
   17.8020  -26.7985   -7.7868 N   0  0  0  0  0  0  0  0  0  0  0  0
   18.3070  -22.5540  -13.0210 C   0  0  0  0  0  0  0  0  0  0  0  0
   18.2523  -21.3491  -12.8053 O   0  0  0  0  0  0  0  0  0  0  0  0
   17.1805  -23.2078  -13.4804 O   0  0  0  0  0  0  0  0  0  0  0  0
  1  2  1  0
  3  2  1  0
  4  3  1  0
  5  6  1  1
  5  4  1  0
  5  1  1  0
  6  7  2  0
  8  9  1  0
  8  6  1  0
  9 13  1  0
 10 11  1  0
  9 10  1  6
 11 15  1  0
 12 11  2  0
 13 14  2  0
 13 16  1  0
 16 17  1  0
 17 23  1  0
 17 18  1  1
 19 18  1  0
 20 19  1  0
 21 20  1  0
 22 21  1  0
 23 24  2  0
 23 25  1  0
M  END
$$$$
