PDK.pdb
     RDKit          3D

 25 25  0  0  1  0  0  0  0  0999 V2000
   26.8758  -21.2796  -15.0425 N   0  0  0  0  0  0  0  0  0  0  0  0
   27.6684  -20.3438  -15.7574 C   0  0  0  0  0  0  0  0  0  0  0  0
   27.5178  -19.0196  -15.0016 C   0  0  0  0  0  0  0  0  0  0  0  0
   27.1358  -19.4677  -13.6156 C   0  0  0  0  0  0  0  0  0  0  0  0
   26.3119  -20.7059  -13.8799 C   0  0  1  0  0  0  0  0  0  0  0  0
   24.8981  -20.2708  -14.0058 C   0  0  0  0  0  0  0  0  0  0  0  0
   24.4135  -19.7137  -12.9670 O   0  0  0  0  0  0  0  0  0  0  0  0
   24.0957  -20.4316  -15.1568 N   0  0  0  0  0  0  0  0  0  0  0  0
   22.7791  -19.8516  -15.2593 C   0  0  1  0  0  0  0  0  0  0  0  0
   22.5229  -19.1827  -16.5625 C   0  0  0  0  0  0  0  0  0  0  0  0
   23.4906  -18.0923  -16.8211 C   0  0  0  0  0  0  0  0  0  0  0  0
   24.1758  -18.0626  -17.8714 O   0  0  0  0  0  0  0  0  0  0  0  0
   21.7856  -20.8591  -14.8688 C   0  0  0  0  0  0  0  0  0  0  0  0
   22.1744  -22.0475  -14.7584 O   0  0  0  0  0  0  0  0  0  0  0  0
   23.6943  -17.0479  -15.9238 O   0  0  0  0  0  0  0  0  0  0  0  0
   20.4308  -20.6001  -14.6077 N   0  0  0  0  0  0  0  0  0  0  0  0
   19.5145  -21.6175  -14.0160 C   0  0  1  0  0  0  0  0  0  0  0  0
   19.9344  -21.9383  -12.6404 C   0  0  0  0  0  0  0  0  0  0  0  0
   19.0766  -22.8493  -11.8621 C   0  0  0  0  0  0  0  0  0  0  0  0
   19.3756  -23.1730  -10.4643 C   0  0  0  0  0  0  0  0  0  0  0  0
   18.5022  -23.9851   -9.6134 C   0  0  0  0  0  0  0  0  0  0  0  0
   18.8523  -24.1091   -8.2318 N   0  0  0  0  0  0  0  0  0  0  0  0
   18.1347  -21.0404  -14.0860 C   0  0  0  0  0  0  0  0  0  0  0  0
   17.9300  -19.8416  -13.9377 O   0  0  0  0  0  0  0  0  0  0  0  0
   17.0657  -21.8820  -14.3240 O   0  0  0  0  0  0  0  0  0  0  0  0
  1  2  1  0
  3  2  1  0
  4  3  1  0
  5  6  1  6
  5  4  1  0
  5  1  1  0
  6  7  2  0
  8  9  1  0
  8  6  1  0
  9 13  1  0
 10 11  1  0
  9 10  1  6
 11 15  1  0
 12 11  2  0
 13 14  2  0
 13 16  1  0
 16 17  1  0
 17 23  1  0
 17 18  1  1
 19 18  1  0
 20 19  1  0
 21 20  1  0
 22 21  1  0
 23 24  2  0
 23 25  1  0
M  END
$$$$
