PDK.pdb
     RDKit          3D

 25 25  0  0  1  0  0  0  0  0999 V2000
   19.4919  -11.8503  -19.1646 N   0  0  0  0  0  0  0  0  0  0  0  0
   18.1961  -12.2117  -18.7116 C   0  0  0  0  0  0  0  0  0  0  0  0
   17.3043  -11.0047  -19.0203 C   0  0  0  0  0  0  0  0  0  0  0  0
   18.0442  -10.3203  -20.1392 C   0  0  0  0  0  0  0  0  0  0  0  0
   19.4908  -10.5843  -19.7938 C   0  0  1  0  0  0  0  0  0  0  0  0
   19.9515   -9.4532  -18.9498 C   0  0  0  0  0  0  0  0  0  0  0  0
   20.0631   -8.3395  -19.5593 O   0  0  0  0  0  0  0  0  0  0  0  0
   20.2597   -9.5360  -17.5741 N   0  0  0  0  0  0  0  0  0  0  0  0
   20.6212   -8.3745  -16.7992 C   0  0  1  0  0  0  0  0  0  0  0  0
   19.9344   -8.2999  -15.4823 C   0  0  0  0  0  0  0  0  0  0  0  0
   20.2387   -7.0358  -14.7738 C   0  0  0  0  0  0  0  0  0  0  0  0
   21.0465   -7.0028  -13.8147 O   0  0  0  0  0  0  0  0  0  0  0  0
   22.0848   -8.2766  -16.7465 C   0  0  0  0  0  0  0  0  0  0  0  0
   22.5894   -7.5924  -15.8229 O   0  0  0  0  0  0  0  0  0  0  0  0
   19.6526   -5.8236  -15.1267 O   0  0  0  0  0  0  0  0  0  0  0  0
   22.9692   -8.8884  -17.6488 N   0  0  0  0  0  0  0  0  0  0  0  0
   24.4500   -8.8588  -17.4724 C   0  0  1  0  0  0  0  0  0  0  0  0
   24.9849  -10.2317  -17.4484 C   0  0  0  0  0  0  0  0  0  0  0  0
   26.4494  -10.3908  -17.4092 C   0  0  0  0  0  0  0  0  0  0  0  0
   27.0726  -11.7153  -17.3358 C   0  0  0  0  0  0  0  0  0  0  0  0
   28.5178  -11.9284  -17.2250 C   0  0  0  0  0  0  0  0  0  0  0  0
   29.3115  -10.8441  -16.7337 N   0  0  0  0  0  0  0  0  0  0  0  0
   24.9972   -8.0383  -18.5989 C   0  0  0  0  0  0  0  0  0  0  0  0
   24.4605   -8.0176  -19.7001 O   0  0  0  0  0  0  0  0  0  0  0  0
   26.1364   -7.2857  -18.3905 O   0  0  0  0  0  0  0  0  0  0  0  0
  1  2  1  0
  3  2  1  0
  4  3  1  0
  5  6  1  1
  5  4  1  0
  5  1  1  0
  6  7  2  0
  8  9  1  0
  8  6  1  0
  9 13  1  0
 10 11  1  0
  9 10  1  1
 11 15  1  0
 12 11  2  0
 13 14  2  0
 13 16  1  0
 16 17  1  0
 17 23  1  0
 17 18  1  6
 19 18  1  0
 20 19  1  0
 21 20  1  0
 22 21  1  0
 23 24  2  0
 23 25  1  0
M  END
$$$$
