PDK.pdb
     RDKit          3D

 25 25  0  0  1  0  0  0  0  0999 V2000
   30.8254  -31.2267  -18.4890 N   0  0  0  0  0  0  0  0  0  0  0  0
   30.6414  -30.8563  -19.8469 C   0  0  0  0  0  0  0  0  0  0  0  0
   29.7985  -29.5773  -19.8106 C   0  0  0  0  0  0  0  0  0  0  0  0
   30.0844  -29.0279  -18.4379 C   0  0  0  0  0  0  0  0  0  0  0  0
   30.2592  -30.2775  -17.6075 C   0  0  1  0  0  0  0  0  0  0  0  0
   28.9237  -30.6306  -17.0637 C   0  0  0  0  0  0  0  0  0  0  0  0
   28.4309  -29.7776  -16.2552 O   0  0  0  0  0  0  0  0  0  0  0  0
   28.2012  -31.8033  -17.3756 N   0  0  0  0  0  0  0  0  0  0  0  0
   26.8712  -32.0402  -16.8704 C   0  0  1  0  0  0  0  0  0  0  0  0
   25.7956  -31.6681  -17.8274 C   0  0  0  0  0  0  0  0  0  0  0  0
   24.4484  -31.8821  -17.2516 C   0  0  0  0  0  0  0  0  0  0  0  0
   24.2830  -32.0423  -16.0185 O   0  0  0  0  0  0  0  0  0  0  0  0
   26.7984  -33.4115  -16.3517 C   0  0  0  0  0  0  0  0  0  0  0  0
   27.4694  -34.2931  -16.9417 O   0  0  0  0  0  0  0  0  0  0  0  0
   23.2992  -31.9175  -18.0362 O   0  0  0  0  0  0  0  0  0  0  0  0
   26.0363  -33.8182  -15.2452 N   0  0  0  0  0  0  0  0  0  0  0  0
   26.0502  -35.2164  -14.7262 C   0  0  1  0  0  0  0  0  0  0  0  0
   26.3556  -35.2186  -13.2846 C   0  0  0  0  0  0  0  0  0  0  0  0
   26.3281  -36.5154  -12.5852 C   0  0  0  0  0  0  0  0  0  0  0  0
   26.6418  -36.6206  -11.1574 C   0  0  0  0  0  0  0  0  0  0  0  0
   26.7043  -37.8910  -10.4305 C   0  0  0  0  0  0  0  0  0  0  0  0
   26.9429  -37.8367   -9.0209 N   0  0  0  0  0  0  0  0  0  0  0  0
   24.7080  -35.8010  -15.0398 C   0  0  0  0  0  0  0  0  0  0  0  0
   24.5791  -36.9705  -15.3815 O   0  0  0  0  0  0  0  0  0  0  0  0
   23.5868  -35.0005  -14.9411 O   0  0  0  0  0  0  0  0  0  0  0  0
  1  2  1  0
  3  2  1  0
  4  3  1  0
  5  6  1  6
  5  4  1  0
  5  1  1  0
  6  7  2  0
  8  9  1  0
  8  6  1  0
  9 13  1  0
 10 11  1  0
  9 10  1  6
 11 15  1  0
 12 11  2  0
 13 14  2  0
 13 16  1  0
 16 17  1  0
 17 23  1  0
 17 18  1  1
 19 18  1  0
 20 19  1  0
 21 20  1  0
 22 21  1  0
 23 24  2  0
 23 25  1  0
M  END
$$$$
