PDK.pdb
     RDKit          3D

 25 25  0  0  1  0  0  0  0  0999 V2000
   24.5481  -33.9870   -9.0354 N   0  0  0  0  0  0  0  0  0  0  0  0
   24.9619  -32.6611   -9.3280 C   0  0  0  0  0  0  0  0  0  0  0  0
   26.2774  -32.4667   -8.5669 C   0  0  0  0  0  0  0  0  0  0  0  0
   26.7769  -33.8773   -8.3978 C   0  0  0  0  0  0  0  0  0  0  0  0
   25.4993  -34.6677   -8.2414 C   0  0  1  0  0  0  0  0  0  0  0  0
   25.1947  -34.7225   -6.7895 C   0  0  0  0  0  0  0  0  0  0  0  0
   26.0102  -35.4139   -6.0958 O   0  0  0  0  0  0  0  0  0  0  0  0
   24.1035  -34.0827   -6.1613 N   0  0  0  0  0  0  0  0  0  0  0  0
   23.8515  -34.2113   -4.7470 C   0  0  1  0  0  0  0  0  0  0  0  0
   23.5925  -32.9139   -4.0679 C   0  0  0  0  0  0  0  0  0  0  0  0
   24.8308  -32.3322   -3.5018 C   0  0  0  0  0  0  0  0  0  0  0  0
   25.9490  -32.8699   -3.6868 O   0  0  0  0  0  0  0  0  0  0  0  0
   22.8252  -35.2401   -4.5400 C   0  0  0  0  0  0  0  0  0  0  0  0
   22.5088  -35.5168   -3.3572 O   0  0  0  0  0  0  0  0  0  0  0  0
   24.8268  -31.1675   -2.7396 O   0  0  0  0  0  0  0  0  0  0  0  0
   22.1664  -35.9422   -5.5616 N   0  0  0  0  0  0  0  0  0  0  0  0
   21.1072  -36.9566   -5.2899 C   0  0  1  0  0  0  0  0  0  0  0  0
   20.0105  -36.8173   -6.2641 C   0  0  0  0  0  0  0  0  0  0  0  0
   18.9684  -37.8592   -6.2691 C   0  0  0  0  0  0  0  0  0  0  0  0
   17.8719  -37.8388   -7.2415 C   0  0  0  0  0  0  0  0  0  0  0  0
   16.8204  -38.8572   -7.3021 C   0  0  0  0  0  0  0  0  0  0  0  0
   15.7996  -38.6973   -8.2916 N   0  0  0  0  0  0  0  0  0  0  0  0
   21.7743  -38.2957   -5.3487 C   0  0  0  0  0  0  0  0  0  0  0  0
   22.7940  -38.4788   -6.0027 O   0  0  0  0  0  0  0  0  0  0  0  0
   21.2252  -39.3513   -4.6473 O   0  0  0  0  0  0  0  0  0  0  0  0
  1  2  1  0
  3  2  1  0
  4  3  1  0
  5  6  1  1
  5  4  1  0
  5  1  1  0
  6  7  2  0
  8  9  1  0
  8  6  1  0
  9 13  1  0
 10 11  1  0
  9 10  1  6
 11 15  1  0
 12 11  2  0
 13 14  2  0
 13 16  1  0
 16 17  1  0
 17 23  1  0
 17 18  1  6
 19 18  1  0
 20 19  1  0
 21 20  1  0
 22 21  1  0
 23 24  2  0
 23 25  1  0
M  END
$$$$
