PDK.pdb
     RDKit          3D

 25 25  0  0  1  0  0  0  0  0999 V2000
   28.0150  -21.6499  -11.8333 N   0  0  0  0  0  0  0  0  0  0  0  0
   29.3010  -21.6974  -12.4323 C   0  0  0  0  0  0  0  0  0  0  0  0
   29.6644  -20.2401  -12.7354 C   0  0  0  0  0  0  0  0  0  0  0  0
   28.8180  -19.4739  -11.7533 C   0  0  0  0  0  0  0  0  0  0  0  0
   27.5703  -20.3197  -11.6561 C   0  0  1  0  0  0  0  0  0  0  0  0
   26.6242  -19.8219  -12.6862 C   0  0  0  0  0  0  0  0  0  0  0  0
   26.2543  -18.6117  -12.5350 O   0  0  0  0  0  0  0  0  0  0  0  0
   26.1324  -20.5770  -13.7735 N   0  0  0  0  0  0  0  0  0  0  0  0
   25.2572  -20.0067  -14.7681 C   0  0  1  0  0  0  0  0  0  0  0  0
   25.7646  -20.1474  -16.1588 C   0  0  0  0  0  0  0  0  0  0  0  0
   26.8393  -19.1726  -16.4538 C   0  0  0  0  0  0  0  0  0  0  0  0
   26.6318  -17.9364  -16.4028 O   0  0  0  0  0  0  0  0  0  0  0  0
   23.8961  -20.5097  -14.5462 C   0  0  0  0  0  0  0  0  0  0  0  0
   23.2302  -20.8505  -15.5542 O   0  0  0  0  0  0  0  0  0  0  0  0
   28.1283  -19.5663  -16.8012 O   0  0  0  0  0  0  0  0  0  0  0  0
   23.2767  -20.6408  -13.2933 N   0  0  0  0  0  0  0  0  0  0  0  0
   21.9611  -21.3196  -13.1110 C   0  0  1  0  0  0  0  0  0  0  0  0
   21.8085  -21.7615  -11.7135 C   0  0  0  0  0  0  0  0  0  0  0  0
   20.5397  -22.4115  -11.3402 C   0  0  0  0  0  0  0  0  0  0  0  0
   20.2948  -22.8813   -9.9737 C   0  0  0  0  0  0  0  0  0  0  0  0
   19.0864  -23.6028   -9.5667 C   0  0  0  0  0  0  0  0  0  0  0  0
   18.9051  -23.8565   -8.1704 N   0  0  0  0  0  0  0  0  0  0  0  0
   20.9125  -20.3368  -13.5307 C   0  0  0  0  0  0  0  0  0  0  0  0
   21.0318  -19.1366  -13.3150 O   0  0  0  0  0  0  0  0  0  0  0  0
   19.7819  -20.7958  -14.1777 O   0  0  0  0  0  0  0  0  0  0  0  0
  1  2  1  0
  3  2  1  0
  4  3  1  0
  5  6  1  6
  5  4  1  0
  5  1  1  0
  6  7  2  0
  8  9  1  0
  8  6  1  0
  9 13  1  0
 10 11  1  0
  9 10  1  6
 11 15  1  0
 12 11  2  0
 13 14  2  0
 13 16  1  0
 16 17  1  0
 17 23  1  0
 17 18  1  1
 19 18  1  0
 20 19  1  0
 21 20  1  0
 22 21  1  0
 23 24  2  0
 23 25  1  0
M  END
$$$$
