PDK.pdb
     RDKit          3D

 25 25  0  0  1  0  0  0  0  0999 V2000
   22.6555  -10.6196  -16.5032 N   0  0  0  0  0  0  0  0  0  0  0  0
   24.0431  -10.8182  -16.2790 C   0  0  0  0  0  0  0  0  0  0  0  0
   24.2149  -10.8167  -14.7565 C   0  0  0  0  0  0  0  0  0  0  0  0
   22.8453  -11.2054  -14.2655 C   0  0  0  0  0  0  0  0  0  0  0  0
   21.9317  -10.5745  -15.2897 C   0  0  1  0  0  0  0  0  0  0  0  0
   21.5975   -9.2143  -14.7975 C   0  0  0  0  0  0  0  0  0  0  0  0
   20.8691   -9.1858  -13.7522 O   0  0  0  0  0  0  0  0  0  0  0  0
   22.0201   -8.0057  -15.3936 N   0  0  0  0  0  0  0  0  0  0  0  0
   21.6187   -6.7184  -14.8817 C   0  0  1  0  0  0  0  0  0  0  0  0
   22.7588   -5.8698  -14.4441 C   0  0  0  0  0  0  0  0  0  0  0  0
   22.2993   -4.5891  -13.8602 C   0  0  0  0  0  0  0  0  0  0  0  0
   22.0827   -3.5841  -14.5790 O   0  0  0  0  0  0  0  0  0  0  0  0
   20.7056   -6.0895  -15.8437 C   0  0  0  0  0  0  0  0  0  0  0  0
   21.0463   -6.0845  -17.0518 O   0  0  0  0  0  0  0  0  0  0  0  0
   22.0832   -4.4272  -12.4948 O   0  0  0  0  0  0  0  0  0  0  0  0
   19.4776   -5.4909  -15.5206 N   0  0  0  0  0  0  0  0  0  0  0  0
   18.6129   -4.8246  -16.5370 C   0  0  1  0  0  0  0  0  0  0  0  0
   17.2438   -5.3657  -16.4703 C   0  0  0  0  0  0  0  0  0  0  0  0
   16.2143   -4.7162  -17.3009 C   0  0  0  0  0  0  0  0  0  0  0  0
   14.8270   -5.1888  -17.3070 C   0  0  0  0  0  0  0  0  0  0  0  0
   13.7674   -4.5882  -18.1212 C   0  0  0  0  0  0  0  0  0  0  0  0
   12.4778   -5.2069  -18.0913 N   0  0  0  0  0  0  0  0  0  0  0  0
   18.6750   -3.3560  -16.2527 C   0  0  0  0  0  0  0  0  0  0  0  0
   18.7983   -2.9257  -15.1122 O   0  0  0  0  0  0  0  0  0  0  0  0
   18.5912   -2.4639  -17.3038 O   0  0  0  0  0  0  0  0  0  0  0  0
  1  2  1  0
  3  2  1  0
  4  3  1  0
  5  6  1  1
  5  4  1  0
  5  1  1  0
  6  7  2  0
  8  9  1  0
  8  6  1  0
  9 13  1  0
 10 11  1  0
  9 10  1  6
 11 15  1  0
 12 11  2  0
 13 14  2  0
 13 16  1  0
 16 17  1  0
 17 23  1  0
 17 18  1  1
 19 18  1  0
 20 19  1  0
 21 20  1  0
 22 21  1  0
 23 24  2  0
 23 25  1  0
M  END
$$$$
