PAS.pdb
     RDKit          3D

 19 19  0  0  1  0  0  0  0  0999 V2000
   19.4370  -12.3840  -15.5990 N   0  0  0  0  0  0  0  0  0  0  0  0
   18.2054  -12.9477  -16.1268 C   0  0  0  0  0  0  0  0  0  0  0  0
   18.6466  -13.5367  -17.4550 C   0  0  0  0  0  0  0  0  0  0  0  0
   19.5980  -12.4636  -17.9598 C   0  0  0  0  0  0  0  0  0  0  0  0
   20.1818  -11.8890  -16.7130 C   0  0  1  0  0  0  0  0  0  0  0  0
   20.2449  -10.3969  -16.7370 C   0  0  0  0  0  0  0  0  0  0  0  0
   20.9581   -9.8056  -17.5871 O   0  0  0  0  0  0  0  0  0  0  0  0
   18.1265   -7.6129  -15.4019 C   0  0  0  0  0  0  0  0  0  0  0  0
   19.4485   -8.1649  -15.8854 C   0  0  2  0  0  0  0  0  0  0  0  0
   19.5153   -9.5901  -15.8172 N   0  0  0  0  0  0  0  0  0  0  0  0
   20.5259   -7.4901  -15.1324 C   0  0  0  0  0  0  0  0  0  0  0  0
   21.0352   -7.9050  -14.0783 O   0  0  0  0  0  0  0  0  0  0  0  0
   23.6196   -3.7385  -15.2782 O   0  0  0  0  0  0  0  0  0  0  0  0
   22.5376   -4.3425  -15.9196 C   0  0  0  0  0  0  0  0  0  0  0  0
   22.1312   -5.5495  -15.1156 C   0  0  2  0  0  0  0  0  0  0  0  0
   21.0242   -6.2584  -15.6590 N   0  0  0  0  0  0  0  0  0  0  0  0
   21.7990   -5.0875  -13.7501 C   0  0  0  0  0  0  0  0  0  0  0  0
   22.7666   -5.0808  -12.7713 O   0  0  0  0  0  0  0  0  0  0  0  0
   20.6298   -4.7053  -13.5032 O   0  0  0  0  0  0  0  0  0  0  0  0
  1  5  1  0
  1  2  1  0
  2  3  1  0
  4  3  1  0
  5  4  1  0
  6 10  1  0
  5  6  1  6
  7  6  2  0
  9  8  1  1
  9 10  1  0
  9 11  1  0
 11 16  1  0
 12 11  2  0
 14 13  1  0
 15 14  1  6
 15 17  1  0
 16 15  1  0
 17 18  1  0
 19 17  2  0
M  END
$$$$
