PAS.pdb
     RDKit          3D

 19 19  0  0  1  0  0  0  0  0999 V2000
   16.6884  -11.0087  -16.6597 N   0  0  0  0  0  0  0  0  0  0  0  0
   16.8777  -12.0977  -17.6039 C   0  0  0  0  0  0  0  0  0  0  0  0
   17.1107  -13.2931  -16.6970 C   0  0  0  0  0  0  0  0  0  0  0  0
   17.9955  -12.6866  -15.6196 C   0  0  0  0  0  0  0  0  0  0  0  0
   17.5462  -11.2659  -15.5468 C   0  0  1  0  0  0  0  0  0  0  0  0
   18.6843  -10.3015  -15.4713 C   0  0  0  0  0  0  0  0  0  0  0  0
   19.4846  -10.3393  -14.5022 O   0  0  0  0  0  0  0  0  0  0  0  0
   20.3766   -7.9287  -17.8675 C   0  0  0  0  0  0  0  0  0  0  0  0
   20.0374   -8.4346  -16.4835 C   0  0  2  0  0  0  0  0  0  0  0  0
   18.9120   -9.3142  -16.4725 N   0  0  0  0  0  0  0  0  0  0  0  0
   19.8753   -7.2629  -15.5980 C   0  0  0  0  0  0  0  0  0  0  0  0
   18.8148   -6.6438  -15.4115 O   0  0  0  0  0  0  0  0  0  0  0  0
   21.4149   -6.8634  -12.0043 O   0  0  0  0  0  0  0  0  0  0  0  0
   21.9494   -5.8664  -12.8210 C   0  0  0  0  0  0  0  0  0  0  0  0
   21.0372   -5.6939  -14.0071 C   0  0  2  0  0  0  0  0  0  0  0  0
   21.0332   -6.8029  -14.8977 N   0  0  0  0  0  0  0  0  0  0  0  0
   21.4702   -4.4798  -14.7328 C   0  0  0  0  0  0  0  0  0  0  0  0
   21.1660   -3.2339  -14.2330 O   0  0  0  0  0  0  0  0  0  0  0  0
   22.1139   -4.6056  -15.8023 O   0  0  0  0  0  0  0  0  0  0  0  0
  1  5  1  0
  1  2  1  0
  2  3  1  0
  4  3  1  0
  5  4  1  0
  6 10  1  0
  5  6  1  6
  7  6  2  0
  9  8  1  6
  9 10  1  0
  9 11  1  0
 11 16  1  0
 12 11  2  0
 14 13  1  0
 15 14  1  1
 15 17  1  0
 16 15  1  0
 17 18  1  0
 19 17  2  0
M  END
$$$$
