PAS.pdb
     RDKit          3D

 19 19  0  0  1  0  0  0  0  0999 V2000
   20.9258  -11.8015  -18.6036 N   0  0  0  0  0  0  0  0  0  0  0  0
   20.8975  -13.2353  -18.3653 C   0  0  0  0  0  0  0  0  0  0  0  0
   19.4106  -13.5401  -18.3216 C   0  0  0  0  0  0  0  0  0  0  0  0
   18.8806  -12.3469  -17.5426 C   0  0  0  0  0  0  0  0  0  0  0  0
   19.8110  -11.2397  -17.9090 C   0  0  1  0  0  0  0  0  0  0  0  0
   20.2285  -10.4204  -16.7320 C   0  0  0  0  0  0  0  0  0  0  0  0
   19.3686   -9.8117  -16.0457 O   0  0  0  0  0  0  0  0  0  0  0  0
   23.3911   -9.8546  -14.7330 C   0  0  0  0  0  0  0  0  0  0  0  0
   22.0403   -9.4489  -15.2778 C   0  0  2  0  0  0  0  0  0  0  0  0
   21.5919  -10.2925  -16.3397 N   0  0  0  0  0  0  0  0  0  0  0  0
   22.1108   -8.0213  -15.6521 C   0  0  0  0  0  0  0  0  0  0  0  0
   22.5261   -7.5821  -16.7372 O   0  0  0  0  0  0  0  0  0  0  0  0
   19.5382   -5.6088  -16.0530 O   0  0  0  0  0  0  0  0  0  0  0  0
   20.1980   -5.1115  -14.9287 C   0  0  0  0  0  0  0  0  0  0  0  0
   21.5988   -5.6650  -14.9251 C   0  0  2  0  0  0  0  0  0  0  0  0
   21.6647   -7.0658  -14.6873 N   0  0  0  0  0  0  0  0  0  0  0  0
   22.3605   -4.9504  -13.8775 C   0  0  0  0  0  0  0  0  0  0  0  0
   22.6763   -3.6209  -14.0421 O   0  0  0  0  0  0  0  0  0  0  0  0
   22.7100   -5.5730  -12.8458 O   0  0  0  0  0  0  0  0  0  0  0  0
  1  5  1  0
  1  2  1  0
  2  3  1  0
  4  3  1  0
  5  4  1  0
  6 10  1  0
  5  6  1  1
  7  6  2  0
  9  8  1  6
  9 10  1  0
  9 11  1  0
 11 16  1  0
 12 11  2  0
 14 13  1  0
 15 14  1  1
 15 17  1  0
 16 15  1  0
 17 18  1  0
 19 17  2  0
M  END
$$$$
