PAS.pdb
     RDKit          3D

 19 19  0  0  1  0  0  0  0  0999 V2000
   20.2644  -10.7553  -17.7963 N   0  0  0  0  0  0  0  0  0  0  0  0
   20.0120  -11.4577  -19.0438 C   0  0  0  0  0  0  0  0  0  0  0  0
   21.3754  -12.0294  -19.3903 C   0  0  0  0  0  0  0  0  0  0  0  0
   22.2909  -10.8751  -19.0148 C   0  0  0  0  0  0  0  0  0  0  0  0
   21.5830  -10.2123  -17.8812 C   0  0  1  0  0  0  0  0  0  0  0  0
   21.5784   -8.7228  -17.9926 C   0  0  0  0  0  0  0  0  0  0  0  0
   22.6619   -8.0882  -18.0584 O   0  0  0  0  0  0  0  0  0  0  0  0
   19.0894   -6.0135  -18.7714 C   0  0  0  0  0  0  0  0  0  0  0  0
   20.3260   -6.5399  -18.0785 C   0  0  2  0  0  0  0  0  0  0  0  0
   20.3717   -7.9667  -18.0287 N   0  0  0  0  0  0  0  0  0  0  0  0
   20.4073   -5.9033  -16.7476 C   0  0  0  0  0  0  0  0  0  0  0  0
   20.2995   -4.6861  -16.5249 O   0  0  0  0  0  0  0  0  0  0  0  0
   20.4576   -6.7562  -11.9919 O   0  0  0  0  0  0  0  0  0  0  0  0
   20.4641   -7.3620  -13.2488 C   0  0  0  0  0  0  0  0  0  0  0  0
   20.7268   -6.2967  -14.2806 C   0  0  2  0  0  0  0  0  0  0  0  0
   20.6284   -6.7569  -15.6228 N   0  0  0  0  0  0  0  0  0  0  0  0
   22.0860   -5.7649  -14.0398 C   0  0  0  0  0  0  0  0  0  0  0  0
   22.2576   -4.6389  -13.2669 O   0  0  0  0  0  0  0  0  0  0  0  0
   23.0702   -6.3537  -14.5483 O   0  0  0  0  0  0  0  0  0  0  0  0
  1  5  1  0
  1  2  1  0
  2  3  1  0
  4  3  1  0
  5  4  1  0
  6 10  1  0
  5  6  1  6
  7  6  2  0
  9  8  1  1
  9 10  1  0
  9 11  1  0
 11 16  1  0
 12 11  2  0
 14 13  1  0
 15 14  1  1
 15 17  1  0
 16 15  1  0
 17 18  1  0
 19 17  2  0
M  END
$$$$
