PAS.pdb
     RDKit          3D

 19 19  0  0  1  0  0  0  0  0999 V2000
   20.0896  -12.8268  -18.2054 N   0  0  0  0  0  0  0  0  0  0  0  0
   18.8053  -12.7711  -18.8843 C   0  0  0  0  0  0  0  0  0  0  0  0
   19.1068  -11.9211  -20.1059 C   0  0  0  0  0  0  0  0  0  0  0  0
   20.0167  -10.8559  -19.5153 C   0  0  0  0  0  0  0  0  0  0  0  0
   20.7271  -11.5652  -18.4118 C   0  0  1  0  0  0  0  0  0  0  0  0
   20.8054  -10.7559  -17.1588 C   0  0  0  0  0  0  0  0  0  0  0  0
   19.7565  -10.3268  -16.6142 O   0  0  0  0  0  0  0  0  0  0  0  0
   23.3910   -9.9219  -14.5512 C   0  0  0  0  0  0  0  0  0  0  0  0
   22.1683   -9.6041  -15.3820 C   0  0  2  0  0  0  0  0  0  0  0  0
   22.0460  -10.4388  -16.5347 N   0  0  0  0  0  0  0  0  0  0  0  0
   22.1980   -8.1619  -15.7021 C   0  0  0  0  0  0  0  0  0  0  0  0
   22.6787   -7.6641  -16.7335 O   0  0  0  0  0  0  0  0  0  0  0  0
   20.2557   -3.9380  -15.2774 O   0  0  0  0  0  0  0  0  0  0  0  0
   20.1696   -5.3153  -15.0711 C   0  0  0  0  0  0  0  0  0  0  0  0
   21.5678   -5.8537  -14.9164 C   0  0  2  0  0  0  0  0  0  0  0  0
   21.6270   -7.2647  -14.7473 N   0  0  0  0  0  0  0  0  0  0  0  0
   22.1763   -5.1901  -13.7426 C   0  0  0  0  0  0  0  0  0  0  0  0
   22.6494   -3.9020  -13.8486 O   0  0  0  0  0  0  0  0  0  0  0  0
   22.2524   -5.8176  -12.6588 O   0  0  0  0  0  0  0  0  0  0  0  0
  1  5  1  0
  1  2  1  0
  2  3  1  0
  4  3  1  0
  5  4  1  0
  6 10  1  0
  5  6  1  1
  7  6  2  0
  9  8  1  6
  9 10  1  0
  9 11  1  0
 11 16  1  0
 12 11  2  0
 14 13  1  0
 15 14  1  1
 15 17  1  0
 16 15  1  0
 17 18  1  0
 19 17  2  0
M  END
$$$$
