PAS.pdb
     RDKit          3D

 19 19  0  0  1  0  0  0  0  0999 V2000
   21.1926  -11.4296  -18.8793 N   0  0  0  0  0  0  0  0  0  0  0  0
   21.1495  -12.8746  -18.7266 C   0  0  0  0  0  0  0  0  0  0  0  0
   19.6911  -13.1987  -18.9980 C   0  0  0  0  0  0  0  0  0  0  0  0
   18.9896  -12.0568  -18.2801 C   0  0  0  0  0  0  0  0  0  0  0  0
   19.9493  -10.9203  -18.3942 C   0  0  1  0  0  0  0  0  0  0  0  0
   20.1048  -10.1628  -17.1163 C   0  0  0  0  0  0  0  0  0  0  0  0
   19.1033   -9.6447  -16.5600 O   0  0  0  0  0  0  0  0  0  0  0  0
   22.7762   -9.6694  -14.5001 C   0  0  0  0  0  0  0  0  0  0  0  0
   21.5685   -9.2255  -15.2941 C   0  0  2  0  0  0  0  0  0  0  0  0
   21.3686   -9.9952  -16.4808 N   0  0  0  0  0  0  0  0  0  0  0  0
   21.6998   -7.7761  -15.5498 C   0  0  0  0  0  0  0  0  0  0  0  0
   22.2484   -7.2677  -16.5413 O   0  0  0  0  0  0  0  0  0  0  0  0
   19.9465   -3.4536  -14.6155 O   0  0  0  0  0  0  0  0  0  0  0  0
   19.8345   -4.8224  -14.3687 C   0  0  0  0  0  0  0  0  0  0  0  0
   21.1535   -5.4678  -14.7036 C   0  0  2  0  0  0  0  0  0  0  0  0
   21.1510   -6.8845  -14.5769 N   0  0  0  0  0  0  0  0  0  0  0  0
   22.1755   -4.8936  -13.8012 C   0  0  0  0  0  0  0  0  0  0  0  0
   22.9041   -3.7950  -14.1972 O   0  0  0  0  0  0  0  0  0  0  0  0
   22.3640   -5.4217  -12.6789 O   0  0  0  0  0  0  0  0  0  0  0  0
  1  5  1  0
  1  2  1  0
  2  3  1  0
  4  3  1  0
  5  4  1  0
  6 10  1  0
  5  6  1  1
  7  6  2  0
  9  8  1  6
  9 10  1  0
  9 11  1  0
 11 16  1  0
 12 11  2  0
 14 13  1  0
 15 14  1  1
 15 17  1  0
 16 15  1  0
 17 18  1  0
 19 17  2  0
M  END
$$$$
