HFK.pdb
     RDKit          3D

 31 32  0  0  1  0  0  0  0  0999 V2000
    9.5579  -16.8969   19.0844 N   0  0  0  0  0  0  0  0  0  0  0  0
    8.6477  -17.2039   20.1604 C   0  0  1  0  0  0  0  0  0  0  0  0
    8.6983  -18.6874   20.4022 C   0  0  0  0  0  0  0  0  0  0  0  0
    8.1552  -19.3669   19.2042 C   0  0  0  0  0  0  0  0  0  0  0  0
    6.8185  -19.5662   18.9392 C   0  0  0  0  0  0  0  0  0  0  0  0
    6.6703  -20.2142   17.7697 N   0  0  0  0  0  0  0  0  0  0  0  0
    7.8995  -20.4272   17.2915 C   0  0  0  0  0  0  0  0  0  0  0  0
    8.8101  -19.9103   18.1664 N   0  0  0  0  0  0  0  0  0  0  0  0
    8.9148  -16.4072   21.3766 C   0  0  0  0  0  0  0  0  0  0  0  0
   10.1075  -16.2684   21.7475 O   0  0  0  0  0  0  0  0  0  0  0  0
    7.9200  -15.7831   22.1625 N   0  0  0  0  0  0  0  0  0  0  0  0
    8.1321  -15.0534   23.3638 C   0  0  1  0  0  0  0  0  0  0  0  0
    7.0771  -14.0510   23.6912 C   0  0  0  0  0  0  0  0  0  0  0  0
    7.2279  -13.4014   24.9911 C   0  0  0  0  0  0  0  0  0  0  0  0
    6.4710  -13.6916   26.1056 C   0  0  0  0  0  0  0  0  0  0  0  0
    6.6550  -13.0466   27.3122 C   0  0  0  0  0  0  0  0  0  0  0  0
    7.6265  -12.0721   27.4299 C   0  0  0  0  0  0  0  0  0  0  0  0
    8.4055  -11.7628   26.3101 C   0  0  0  0  0  0  0  0  0  0  0  0
    8.1936  -12.4249   25.1282 C   0  0  0  0  0  0  0  0  0  0  0  0
    8.3489  -16.0392   24.4811 C   0  0  0  0  0  0  0  0  0  0  0  0
    7.3610  -16.4639   25.1302 O   0  0  0  0  0  0  0  0  0  0  0  0
    9.6365  -16.5011   24.8204 N   0  0  0  0  0  0  0  0  0  0  0  0
    9.9783  -17.3809   25.9190 C   0  0  1  0  0  0  0  0  0  0  0  0
   11.3322  -17.9604   25.8022 C   0  0  0  0  0  0  0  0  0  0  0  0
   11.7777  -18.9013   26.8513 C   0  0  0  0  0  0  0  0  0  0  0  0
   13.1877  -19.4032   26.6951 C   0  0  0  0  0  0  0  0  0  0  0  0
   13.6002  -20.3139   27.8329 C   0  0  0  0  0  0  0  0  0  0  0  0
   15.0100  -20.6154   27.6472 N   0  0  0  0  0  0  0  0  0  0  0  0
    9.6254  -16.8241   27.2468 C   0  0  0  0  0  0  0  0  0  0  0  0
    8.7677  -17.3457   27.9940 O   0  0  0  0  0  0  0  0  0  0  0  0
   10.2374  -15.6857   27.7277 O   0  0  0  0  0  0  0  0  0  0  0  0
  2  1  1  6
  2  3  1  0
  3  4  1  0
  4  5  2  0
  6  5  1  0
  7  6  1  0
  8  7  2  0
  8  4  1  0
  9  2  1  0
 10  9  2  0
 11  9  1  0
 12 13  1  1
 12 11  1  0
 13 14  1  0
 14 15  2  0
 15 16  1  0
 17 16  2  0
 18 17  1  0
 19 18  2  0
 19 14  1  0
 20 22  1  0
 20 12  1  0
 21 20  2  0
 23 24  1  1
 23 22  1  0
 25 24  1  0
 26 27  1  0
 26 25  1  0
 27 28  1  0
 29 23  1  0
 29 31  1  0
 30 29  2  0
M  END
$$$$
