HFK.pdb
     RDKit          3D

 31 32  0  0  1  0  0  0  0  0999 V2000
   10.0226  -16.9643   19.4286 N   0  0  0  0  0  0  0  0  0  0  0  0
    8.8222  -16.8990   20.2255 C   0  0  1  0  0  0  0  0  0  0  0  0
    8.2921  -18.2978   20.3818 C   0  0  0  0  0  0  0  0  0  0  0  0
    7.6827  -18.7045   19.0953 C   0  0  0  0  0  0  0  0  0  0  0  0
    7.6510  -17.9380   17.9516 C   0  0  0  0  0  0  0  0  0  0  0  0
    7.0238  -18.6041   16.9654 N   0  0  0  0  0  0  0  0  0  0  0  0
    6.6581  -19.7845   17.4731 C   0  0  0  0  0  0  0  0  0  0  0  0
    7.0595  -19.8493   18.7755 N   0  0  0  0  0  0  0  0  0  0  0  0
    9.0326  -16.2095   21.5161 C   0  0  0  0  0  0  0  0  0  0  0  0
   10.1581  -16.3068   22.0666 O   0  0  0  0  0  0  0  0  0  0  0  0
    8.0535  -15.4409   22.1851 N   0  0  0  0  0  0  0  0  0  0  0  0
    8.2078  -14.7897   23.4391 C   0  0  1  0  0  0  0  0  0  0  0  0
    7.1296  -13.8190   23.7862 C   0  0  0  0  0  0  0  0  0  0  0  0
    7.2532  -13.2088   25.1077 C   0  0  0  0  0  0  0  0  0  0  0  0
    8.2959  -12.3993   25.5037 C   0  0  0  0  0  0  0  0  0  0  0  0
    8.3642  -11.8471   26.7670 C   0  0  0  0  0  0  0  0  0  0  0  0
    7.3628  -12.1012   27.6836 C   0  0  0  0  0  0  0  0  0  0  0  0
    6.2956  -12.9204   27.3013 C   0  0  0  0  0  0  0  0  0  0  0  0
    6.2622  -13.4512   26.0374 C   0  0  0  0  0  0  0  0  0  0  0  0
    8.3882  -15.8447   24.4982 C   0  0  0  0  0  0  0  0  0  0  0  0
    7.4317  -16.6096   24.7771 O   0  0  0  0  0  0  0  0  0  0  0  0
    9.6071  -15.9985   25.1888 N   0  0  0  0  0  0  0  0  0  0  0  0
    9.9027  -16.9775   26.2144 C   0  0  1  0  0  0  0  0  0  0  0  0
   10.9492  -17.9412   25.8163 C   0  0  0  0  0  0  0  0  0  0  0  0
   10.5618  -19.3577   25.6497 C   0  0  0  0  0  0  0  0  0  0  0  0
   11.6705  -20.2688   25.1971 C   0  0  0  0  0  0  0  0  0  0  0  0
   11.1746  -21.6682   24.8967 C   0  0  0  0  0  0  0  0  0  0  0  0
   12.3368  -22.4639   24.5379 N   0  0  0  0  0  0  0  0  0  0  0  0
   10.0497  -16.3845   27.5652 C   0  0  0  0  0  0  0  0  0  0  0  0
   10.4199  -15.2035   27.7502 O   0  0  0  0  0  0  0  0  0  0  0  0
    9.7800  -17.1207   28.6997 O   0  0  0  0  0  0  0  0  0  0  0  0
  2  1  1  1
  2  3  1  0
  3  4  1  0
  4  5  2  0
  6  5  1  0
  7  6  1  0
  8  7  2  0
  8  4  1  0
  9  2  1  0
 10  9  2  0
 11  9  1  0
 12 13  1  1
 12 11  1  0
 13 14  1  0
 14 15  2  0
 15 16  1  0
 17 16  2  0
 18 17  1  0
 19 18  2  0
 19 14  1  0
 20 22  1  0
 20 12  1  0
 21 20  2  0
 23 24  1  6
 23 22  1  0
 25 24  1  0
 26 27  1  0
 26 25  1  0
 27 28  1  0
 29 23  1  0
 29 31  1  0
 30 29  2  0
M  END
$$$$
