HFK.pdb
     RDKit          3D

 31 32  0  0  1  0  0  0  0  0999 V2000
    9.6689  -15.4424   20.4003 N   0  0  0  0  0  0  0  0  0  0  0  0
    8.9075  -16.3356   21.2387 C   0  0  1  0  0  0  0  0  0  0  0  0
    9.2585  -17.7463   20.8530 C   0  0  0  0  0  0  0  0  0  0  0  0
    8.8175  -17.9640   19.4566 C   0  0  0  0  0  0  0  0  0  0  0  0
    7.7155  -17.3828   18.8698 C   0  0  0  0  0  0  0  0  0  0  0  0
    7.6004  -17.7931   17.5938 N   0  0  0  0  0  0  0  0  0  0  0  0
    8.6183  -18.6281   17.3669 C   0  0  0  0  0  0  0  0  0  0  0  0
    9.3646  -18.7350   18.5040 N   0  0  0  0  0  0  0  0  0  0  0  0
    9.0956  -16.0629   22.6793 C   0  0  0  0  0  0  0  0  0  0  0  0
   10.2237  -15.6688   23.0684 O   0  0  0  0  0  0  0  0  0  0  0  0
    8.0922  -16.2133   23.6630 N   0  0  0  0  0  0  0  0  0  0  0  0
    8.2579  -16.0500   25.0652 C   0  0  1  0  0  0  0  0  0  0  0  0
    7.0582  -15.5399   25.7902 C   0  0  0  0  0  0  0  0  0  0  0  0
    7.0118  -14.0894   25.9585 C   0  0  0  0  0  0  0  0  0  0  0  0
    5.8882  -13.3136   25.7721 C   0  0  0  0  0  0  0  0  0  0  0  0
    5.8989  -11.9440   25.9448 C   0  0  0  0  0  0  0  0  0  0  0  0
    7.0662  -11.3070   26.3176 C   0  0  0  0  0  0  0  0  0  0  0  0
    8.2178  -12.0767   26.5119 C   0  0  0  0  0  0  0  0  0  0  0  0
    8.1686  -13.4350   26.3308 C   0  0  0  0  0  0  0  0  0  0  0  0
    8.7579  -17.3513   25.6345 C   0  0  0  0  0  0  0  0  0  0  0  0
    7.9703  -18.3246   25.7350 O   0  0  0  0  0  0  0  0  0  0  0  0
   10.0924  -17.5081   26.0600 N   0  0  0  0  0  0  0  0  0  0  0  0
   10.6847  -18.7016   26.6277 C   0  0  1  0  0  0  0  0  0  0  0  0
   11.9932  -19.0427   26.0327 C   0  0  0  0  0  0  0  0  0  0  0  0
   12.1055  -19.0500   24.5591 C   0  0  0  0  0  0  0  0  0  0  0  0
   13.4726  -19.3885   24.0294 C   0  0  0  0  0  0  0  0  0  0  0  0
   13.5446  -19.2799   22.5203 C   0  0  0  0  0  0  0  0  0  0  0  0
   14.9303  -19.5041   22.1429 N   0  0  0  0  0  0  0  0  0  0  0  0
   10.6171  -18.7419   28.1081 C   0  0  0  0  0  0  0  0  0  0  0  0
   10.9519  -19.7467   28.7746 O   0  0  0  0  0  0  0  0  0  0  0  0
   10.1743  -17.6541   28.8309 O   0  0  0  0  0  0  0  0  0  0  0  0
  2  1  1  6
  2  3  1  0
  3  4  1  0
  4  5  2  0
  6  5  1  0
  7  6  1  0
  8  7  2  0
  8  4  1  0
  9  2  1  0
 10  9  2  0
 11  9  1  0
 12 13  1  1
 12 11  1  0
 13 14  1  0
 14 15  2  0
 15 16  1  0
 17 16  2  0
 18 17  1  0
 19 18  2  0
 19 14  1  0
 20 22  1  0
 20 12  1  0
 21 20  2  0
 23 24  1  1
 23 22  1  0
 25 24  1  0
 26 27  1  0
 26 25  1  0
 27 28  1  0
 29 23  1  0
 29 31  1  0
 30 29  2  0
M  END
$$$$
