HFK.pdb
     RDKit          3D

 31 32  0  0  1  0  0  0  0  0999 V2000
   10.0212  -14.2077   20.7302 N   0  0  0  0  0  0  0  0  0  0  0  0
    8.7437  -14.5224   21.3213 C   0  0  1  0  0  0  0  0  0  0  0  0
    8.0641  -15.5378   20.4444 C   0  0  0  0  0  0  0  0  0  0  0  0
    7.9574  -14.9699   19.0813 C   0  0  0  0  0  0  0  0  0  0  0  0
    8.0485  -13.6323   18.7667 C   0  0  0  0  0  0  0  0  0  0  0  0
    7.9083  -13.4584   17.4401 N   0  0  0  0  0  0  0  0  0  0  0  0
    7.7294  -14.6724   16.9117 C   0  0  0  0  0  0  0  0  0  0  0  0
    7.7588  -15.5991   17.9126 N   0  0  0  0  0  0  0  0  0  0  0  0
    8.8595  -14.9553   22.7299 C   0  0  0  0  0  0  0  0  0  0  0  0
    9.9948  -15.2759   23.1629 O   0  0  0  0  0  0  0  0  0  0  0  0
    7.7786  -15.0368   23.6366 N   0  0  0  0  0  0  0  0  0  0  0  0
    7.8598  -15.3808   25.0133 C   0  0  1  0  0  0  0  0  0  0  0  0
    6.6842  -14.9770   25.8380 C   0  0  0  0  0  0  0  0  0  0  0  0
    6.5625  -13.5404   26.0739 C   0  0  0  0  0  0  0  0  0  0  0  0
    5.4058  -12.8120   25.8989 C   0  0  0  0  0  0  0  0  0  0  0  0
    5.3450  -11.4535   26.1367 C   0  0  0  0  0  0  0  0  0  0  0  0
    6.4714  -10.7793   26.5657 C   0  0  0  0  0  0  0  0  0  0  0  0
    7.6556  -11.5007   26.7494 C   0  0  0  0  0  0  0  0  0  0  0  0
    7.6775  -12.8494   26.5030 C   0  0  0  0  0  0  0  0  0  0  0  0
    8.1477  -16.8553   25.1137 C   0  0  0  0  0  0  0  0  0  0  0  0
    7.6616  -17.6389   24.2608 O   0  0  0  0  0  0  0  0  0  0  0  0
    8.9518  -17.3834   26.1438 N   0  0  0  0  0  0  0  0  0  0  0  0
    9.9036  -18.4689   26.0280 C   0  0  1  0  0  0  0  0  0  0  0  0
   10.7098  -18.4078   24.7916 C   0  0  0  0  0  0  0  0  0  0  0  0
   11.7108  -19.4707   24.5619 C   0  0  0  0  0  0  0  0  0  0  0  0
   12.5265  -19.3125   23.3075 C   0  0  0  0  0  0  0  0  0  0  0  0
   13.6276  -20.3479   23.2065 C   0  0  0  0  0  0  0  0  0  0  0  0
   14.4392  -19.9952   22.0535 N   0  0  0  0  0  0  0  0  0  0  0  0
   10.6566  -18.7236   27.2793 C   0  0  0  0  0  0  0  0  0  0  0  0
   11.1969  -19.8235   27.5330 O   0  0  0  0  0  0  0  0  0  0  0  0
   10.7987  -17.7423   28.2378 O   0  0  0  0  0  0  0  0  0  0  0  0
  2  1  1  6
  2  3  1  0
  3  4  1  0
  4  5  2  0
  6  5  1  0
  7  6  1  0
  8  7  2  0
  8  4  1  0
  9  2  1  0
 10  9  2  0
 11  9  1  0
 12 13  1  1
 12 11  1  0
 13 14  1  0
 14 15  2  0
 15 16  1  0
 17 16  2  0
 18 17  1  0
 19 18  2  0
 19 14  1  0
 20 22  1  0
 20 12  1  0
 21 20  2  0
 23 24  1  6
 23 22  1  0
 25 24  1  0
 26 27  1  0
 26 25  1  0
 27 28  1  0
 29 23  1  0
 29 31  1  0
 30 29  2  0
M  END
$$$$
