WGD.pdb
     RDKit          3D

 27 28  0  0  1  0  0  0  0  0999 V2000
   10.8614  -16.2003   21.2833 N   0  0  0  0  0  0  0  0  0  0  0  0
    9.9966  -16.2298   22.4164 C   0  0  1  0  0  0  0  0  0  0  0  0
    8.6330  -16.7059   22.0344 C   0  0  0  0  0  0  0  0  0  0  0  0
    7.9779  -15.8431   21.0247 C   0  0  0  0  0  0  0  0  0  0  0  0
    7.5378  -16.2462   19.7562 C   0  0  0  0  0  0  0  0  0  0  0  0
    7.0228  -15.1898   19.1182 N   0  0  0  0  0  0  0  0  0  0  0  0
    7.0941  -14.0894   19.8982 C   0  0  0  0  0  0  0  0  0  0  0  0
    6.7074  -12.7700   19.7272 C   0  0  0  0  0  0  0  0  0  0  0  0
    6.8985  -11.8463   20.7129 C   0  0  0  0  0  0  0  0  0  0  0  0
    7.4809  -12.2264   21.8909 C   0  0  0  0  0  0  0  0  0  0  0  0
    7.8630  -13.5466   22.0497 C   0  0  0  0  0  0  0  0  0  0  0  0
    7.6872  -14.5051   21.0778 C   0  0  0  0  0  0  0  0  0  0  0  0
   10.6174  -17.1194   23.4401 C   0  0  0  0  0  0  0  0  0  0  0  0
    9.9461  -17.6342   24.3753 O   0  0  0  0  0  0  0  0  0  0  0  0
   12.0300  -17.4092   23.3711 N   0  0  0  0  0  0  0  0  0  0  0  0
   12.5984  -18.2499   24.3539 C   0  0  0  0  0  0  0  0  0  0  0  0
   14.0453  -18.5100   24.0647 C   0  0  0  0  0  0  0  0  0  0  0  0
   14.3554  -19.5975   23.4648 O   0  0  0  0  0  0  0  0  0  0  0  0
   15.0409  -17.5983   24.4401 N   0  0  0  0  0  0  0  0  0  0  0  0
   16.4531  -17.8721   24.4941 C   0  0  1  0  0  0  0  0  0  0  0  0
   17.3734  -16.7070   24.2634 C   0  0  0  0  0  0  0  0  0  0  0  0
   17.0732  -16.1051   22.9421 C   0  0  0  0  0  0  0  0  0  0  0  0
   16.1682  -16.5316   22.1625 O   0  0  0  0  0  0  0  0  0  0  0  0
   16.8643  -18.8171   25.5159 C   0  0  0  0  0  0  0  0  0  0  0  0
   15.9963  -19.1377   26.5472 O   0  0  0  0  0  0  0  0  0  0  0  0
   17.7937  -15.0021   22.4703 O   0  0  0  0  0  0  0  0  0  0  0  0
   17.9793  -19.3542   25.4973 O   0  0  0  0  0  0  0  0  0  0  0  0
  2  1  1  6
  3  2  1  0
  3  4  1  0
  4  5  2  0
  6  5  1  0
  7  6  1  0
  8  7  2  0
  9  8  1  0
 10 11  1  0
 10  9  2  0
 11 12  2  0
 12  7  1  0
 12  4  1  0
 13 15  1  0
 13  2  1  0
 14 13  2  0
 16 15  1  0
 17 19  1  0
 17 16  1  0
 18 17  2  0
 20 19  1  0
 20 21  1  1
 22 21  1  0
 22 26  1  0
 23 22  2  0
 24 25  1  0
 24 20  1  0
 27 24  2  0
M  END
$$$$
