WGD.pdb
     RDKit          3D

 27 28  0  0  1  0  0  0  0  0999 V2000
    7.4485  -17.4428   24.1815 N   0  0  0  0  0  0  0  0  0  0  0  0
    7.5090  -16.5792   23.0486 C   0  0  1  0  0  0  0  0  0  0  0  0
    7.9700  -15.2139   23.4427 C   0  0  0  0  0  0  0  0  0  0  0  0
    7.3251  -14.7173   24.6799 C   0  0  0  0  0  0  0  0  0  0  0  0
    6.5767  -15.4834   25.5845 C   0  0  0  0  0  0  0  0  0  0  0  0
    6.1319  -14.6889   26.5638 N   0  0  0  0  0  0  0  0  0  0  0  0
    6.5461  -13.4190   26.3630 C   0  0  0  0  0  0  0  0  0  0  0  0
    6.3742  -12.2357   27.0629 C   0  0  0  0  0  0  0  0  0  0  0  0
    6.9272  -11.0692   26.6214 C   0  0  0  0  0  0  0  0  0  0  0  0
    7.6642  -11.0649   25.4690 C   0  0  0  0  0  0  0  0  0  0  0  0
    7.8286  -12.2527   24.7788 C   0  0  0  0  0  0  0  0  0  0  0  0
    7.2852  -13.4475   25.1930 C   0  0  0  0  0  0  0  0  0  0  0  0
    8.4300  -17.1989   22.0523 C   0  0  0  0  0  0  0  0  0  0  0  0
    8.8261  -16.5768   21.0294 O   0  0  0  0  0  0  0  0  0  0  0  0
    8.8906  -18.5524   22.2519 N   0  0  0  0  0  0  0  0  0  0  0  0
    9.6436  -19.1701   21.2286 C   0  0  0  0  0  0  0  0  0  0  0  0
   11.0987  -18.8377   21.3589 C   0  0  0  0  0  0  0  0  0  0  0  0
   11.9133  -19.3507   20.5151 O   0  0  0  0  0  0  0  0  0  0  0  0
   11.5676  -17.9943   22.3748 N   0  0  0  0  0  0  0  0  0  0  0  0
   12.9469  -17.6666   22.6244 C   0  0  1  0  0  0  0  0  0  0  0  0
   13.4774  -16.4327   21.9508 C   0  0  0  0  0  0  0  0  0  0  0  0
   14.9445  -16.3616   22.1533 C   0  0  0  0  0  0  0  0  0  0  0  0
   15.7360  -17.3240   21.9171 O   0  0  0  0  0  0  0  0  0  0  0  0
   13.4052  -17.8995   23.9815 C   0  0  0  0  0  0  0  0  0  0  0  0
   12.8542  -17.1781   25.0282 O   0  0  0  0  0  0  0  0  0  0  0  0
   15.5521  -15.1946   22.6301 O   0  0  0  0  0  0  0  0  0  0  0  0
   14.2835  -18.7326   24.2396 O   0  0  0  0  0  0  0  0  0  0  0  0
  2  1  1  1
  3  2  1  0
  3  4  1  0
  4  5  2  0
  6  5  1  0
  7  6  1  0
  8  7  2  0
  9  8  1  0
 10 11  1  0
 10  9  2  0
 11 12  2  0
 12  7  1  0
 12  4  1  0
 13 15  1  0
 13  2  1  0
 14 13  2  0
 16 15  1  0
 17 19  1  0
 17 16  1  0
 18 17  2  0
 20 19  1  0
 20 21  1  1
 22 21  1  0
 22 26  1  0
 23 22  2  0
 24 25  1  0
 24 20  1  0
 27 24  2  0
M  END
$$$$
