WGD.pdb
     RDKit          3D

 27 28  0  0  1  0  0  0  0  0999 V2000
    6.8954  -15.4960   22.2204 N   0  0  0  0  0  0  0  0  0  0  0  0
    8.1646  -15.1351   22.7604 C   0  0  1  0  0  0  0  0  0  0  0  0
    8.3143  -15.6442   24.1569 C   0  0  0  0  0  0  0  0  0  0  0  0
    7.3284  -15.0623   25.0964 C   0  0  0  0  0  0  0  0  0  0  0  0
    6.2576  -15.7419   25.6936 C   0  0  0  0  0  0  0  0  0  0  0  0
    5.5709  -14.8861   26.4579 N   0  0  0  0  0  0  0  0  0  0  0  0
    6.1293  -13.6573   26.4053 C   0  0  0  0  0  0  0  0  0  0  0  0
    5.8247  -12.4429   26.9988 C   0  0  0  0  0  0  0  0  0  0  0  0
    6.5868  -11.3351   26.7679 C   0  0  0  0  0  0  0  0  0  0  0  0
    7.6704  -11.4218   25.9375 C   0  0  0  0  0  0  0  0  0  0  0  0
    7.9642  -12.6398   25.3505 C   0  0  0  0  0  0  0  0  0  0  0  0
    7.2181  -13.7774   25.5591 C   0  0  0  0  0  0  0  0  0  0  0  0
    9.2168  -15.6919   21.8617 C   0  0  0  0  0  0  0  0  0  0  0  0
    9.0690  -15.7450   20.6105 O   0  0  0  0  0  0  0  0  0  0  0  0
   10.4481  -16.1895   22.4276 N   0  0  0  0  0  0  0  0  0  0  0  0
   11.5793  -16.3100   21.5899 C   0  0  0  0  0  0  0  0  0  0  0  0
   12.7743  -16.7723   22.3664 C   0  0  0  0  0  0  0  0  0  0  0  0
   12.6185  -17.0494   23.6064 O   0  0  0  0  0  0  0  0  0  0  0  0
   14.0335  -16.8970   21.7645 N   0  0  0  0  0  0  0  0  0  0  0  0
   15.2412  -17.3199   22.4239 C   0  0  1  0  0  0  0  0  0  0  0  0
   16.4287  -17.5900   21.5438 C   0  0  0  0  0  0  0  0  0  0  0  0
   15.9592  -18.1447   20.2514 C   0  0  0  0  0  0  0  0  0  0  0  0
   15.1724  -19.1346   20.1535 O   0  0  0  0  0  0  0  0  0  0  0  0
   15.5204  -16.6656   23.6888 C   0  0  0  0  0  0  0  0  0  0  0  0
   16.2950  -17.3084   24.6408 O   0  0  0  0  0  0  0  0  0  0  0  0
   16.3717  -17.5897   19.0348 O   0  0  0  0  0  0  0  0  0  0  0  0
   15.0843  -15.5370   23.9498 O   0  0  0  0  0  0  0  0  0  0  0  0
  2  1  1  6
  3  2  1  0
  3  4  1  0
  4  5  2  0
  6  5  1  0
  7  6  1  0
  8  7  2  0
  9  8  1  0
 10 11  1  0
 10  9  2  0
 11 12  2  0
 12  7  1  0
 12  4  1  0
 13 15  1  0
 13  2  1  0
 14 13  2  0
 16 15  1  0
 17 19  1  0
 17 16  1  0
 18 17  2  0
 20 19  1  0
 20 21  1  6
 22 21  1  0
 22 26  1  0
 23 22  2  0
 24 25  1  0
 24 20  1  0
 27 24  2  0
M  END
$$$$
