WGD.pdb
     RDKit          3D

 27 28  0  0  1  0  0  0  0  0999 V2000
    7.1205  -17.8750   24.1280 N   0  0  0  0  0  0  0  0  0  0  0  0
    7.7980  -16.8291   23.4353 C   0  0  1  0  0  0  0  0  0  0  0  0
    8.4441  -15.8844   24.3955 C   0  0  0  0  0  0  0  0  0  0  0  0
    7.4672  -15.1127   25.1977 C   0  0  0  0  0  0  0  0  0  0  0  0
    6.3625  -15.6392   25.8815 C   0  0  0  0  0  0  0  0  0  0  0  0
    5.6977  -14.6391   26.4697 N   0  0  0  0  0  0  0  0  0  0  0  0
    6.3032  -13.4589   26.2151 C   0  0  0  0  0  0  0  0  0  0  0  0
    6.0364  -12.1494   26.5806 C   0  0  0  0  0  0  0  0  0  0  0  0
    6.8435  -11.1265   26.1759 C   0  0  0  0  0  0  0  0  0  0  0  0
    7.9352  -11.3953   25.3967 C   0  0  0  0  0  0  0  0  0  0  0  0
    8.1911  -12.7069   25.0380 C   0  0  0  0  0  0  0  0  0  0  0  0
    7.3991  -13.7635   25.4263 C   0  0  0  0  0  0  0  0  0  0  0  0
    8.8031  -17.4586   22.5307 C   0  0  0  0  0  0  0  0  0  0  0  0
    9.1981  -18.6453   22.6915 O   0  0  0  0  0  0  0  0  0  0  0  0
    9.3498  -16.6979   21.4323 N   0  0  0  0  0  0  0  0  0  0  0  0
   10.2375  -17.3384   20.5393 C   0  0  0  0  0  0  0  0  0  0  0  0
   11.5993  -17.4810   21.1476 C   0  0  0  0  0  0  0  0  0  0  0  0
   12.5329  -17.9801   20.4280 O   0  0  0  0  0  0  0  0  0  0  0  0
   11.8548  -17.0874   22.4679 N   0  0  0  0  0  0  0  0  0  0  0  0
   13.1490  -17.0484   23.0970 C   0  0  1  0  0  0  0  0  0  0  0  0
   13.9843  -15.8259   22.8416 C   0  0  0  0  0  0  0  0  0  0  0  0
   15.3949  -16.1197   23.1915 C   0  0  0  0  0  0  0  0  0  0  0  0
   16.3182  -15.2502   23.1859 O   0  0  0  0  0  0  0  0  0  0  0  0
   13.2018  -17.5872   24.4435 C   0  0  0  0  0  0  0  0  0  0  0  0
   13.7831  -18.8246   24.6682 O   0  0  0  0  0  0  0  0  0  0  0  0
   15.7947  -17.4100   23.5568 O   0  0  0  0  0  0  0  0  0  0  0  0
   12.7391  -16.9703   25.4117 O   0  0  0  0  0  0  0  0  0  0  0  0
  2  1  1  1
  3  2  1  0
  3  4  1  0
  4  5  2  0
  6  5  1  0
  7  6  1  0
  8  7  2  0
  9  8  1  0
 10 11  1  0
 10  9  2  0
 11 12  2  0
 12  7  1  0
 12  4  1  0
 13 15  1  0
 13  2  1  0
 14 13  2  0
 16 15  1  0
 17 19  1  0
 17 16  1  0
 18 17  2  0
 20 19  1  0
 20 21  1  1
 22 21  1  0
 22 26  1  0
 23 22  2  0
 24 25  1  0
 24 20  1  0
 27 24  2  0
M  END
$$$$
