WGD.pdb
     RDKit          3D

 27 28  0  0  1  0  0  0  0  0999 V2000
    7.6996  -17.2871   23.7949 N   0  0  0  0  0  0  0  0  0  0  0  0
    8.5299  -16.1870   23.4297 C   0  0  1  0  0  0  0  0  0  0  0  0
    8.9653  -15.4234   24.6376 C   0  0  0  0  0  0  0  0  0  0  0  0
    7.8324  -14.9518   25.4667 C   0  0  0  0  0  0  0  0  0  0  0  0
    6.8620  -15.7609   26.0740 C   0  0  0  0  0  0  0  0  0  0  0  0
    5.9860  -14.9816   26.7170 N   0  0  0  0  0  0  0  0  0  0  0  0
    6.3201  -13.6809   26.5726 C   0  0  0  0  0  0  0  0  0  0  0  0
    5.7670  -12.4956   27.0295 C   0  0  0  0  0  0  0  0  0  0  0  0
    6.3344  -11.2916   26.7296 C   0  0  0  0  0  0  0  0  0  0  0  0
    7.4683  -11.2510   25.9655 C   0  0  0  0  0  0  0  0  0  0  0  0
    8.0111  -12.4412   25.5149 C   0  0  0  0  0  0  0  0  0  0  0  0
    7.4662  -13.6733   25.7964 C   0  0  0  0  0  0  0  0  0  0  0  0
    9.6981  -16.7285   22.6769 C   0  0  0  0  0  0  0  0  0  0  0  0
   10.2753  -17.7975   23.0151 O   0  0  0  0  0  0  0  0  0  0  0  0
   10.1950  -16.0174   21.5230 N   0  0  0  0  0  0  0  0  0  0  0  0
   11.3411  -16.5135   20.8626 C   0  0  0  0  0  0  0  0  0  0  0  0
   12.5703  -16.3057   21.6936 C   0  0  0  0  0  0  0  0  0  0  0  0
   12.9362  -15.1041   21.9409 O   0  0  0  0  0  0  0  0  0  0  0  0
   13.3101  -17.3882   22.1877 N   0  0  0  0  0  0  0  0  0  0  0  0
   14.5542  -17.2971   22.9062 C   0  0  1  0  0  0  0  0  0  0  0  0
   14.9206  -18.4719   23.7682 C   0  0  0  0  0  0  0  0  0  0  0  0
   13.8530  -18.6878   24.7742 C   0  0  0  0  0  0  0  0  0  0  0  0
   13.2631  -19.7969   24.9488 O   0  0  0  0  0  0  0  0  0  0  0  0
   15.6456  -16.6723   22.1819 C   0  0  0  0  0  0  0  0  0  0  0  0
   15.5478  -16.4888   20.8121 O   0  0  0  0  0  0  0  0  0  0  0  0
   13.4264  -17.6489   25.6090 O   0  0  0  0  0  0  0  0  0  0  0  0
   16.6753  -16.2922   22.7541 O   0  0  0  0  0  0  0  0  0  0  0  0
  2  1  1  1
  3  2  1  0
  3  4  1  0
  4  5  2  0
  6  5  1  0
  7  6  1  0
  8  7  2  0
  9  8  1  0
 10 11  1  0
 10  9  2  0
 11 12  2  0
 12  7  1  0
 12  4  1  0
 13 15  1  0
 13  2  1  0
 14 13  2  0
 16 15  1  0
 17 19  1  0
 17 16  1  0
 18 17  2  0
 20 19  1  0
 20 21  1  6
 22 21  1  0
 22 26  1  0
 23 22  2  0
 24 25  1  0
 24 20  1  0
 27 24  2  0
M  END
$$$$
