WGD.pdb
     RDKit          3D

 27 28  0  0  1  0  0  0  0  0999 V2000
    7.0125  -16.8507   22.8230 N   0  0  0  0  0  0  0  0  0  0  0  0
    7.9558  -15.7918   22.6761 C   0  0  1  0  0  0  0  0  0  0  0  0
    8.4618  -15.3398   24.0072 C   0  0  0  0  0  0  0  0  0  0  0  0
    7.4083  -14.7360   24.8549 C   0  0  0  0  0  0  0  0  0  0  0  0
    6.3025  -15.4051   25.3980 C   0  0  0  0  0  0  0  0  0  0  0  0
    5.5580  -14.5306   26.0830 N   0  0  0  0  0  0  0  0  0  0  0  0
    6.1105  -13.2992   26.0283 C   0  0  0  0  0  0  0  0  0  0  0  0
    5.7568  -12.0687   26.5576 C   0  0  0  0  0  0  0  0  0  0  0  0
    6.5259  -10.9622   26.3437 C   0  0  0  0  0  0  0  0  0  0  0  0
    7.6659  -11.0667   25.5948 C   0  0  0  0  0  0  0  0  0  0  0  0
    8.0084  -12.3007   25.0713 C   0  0  0  0  0  0  0  0  0  0  0  0
    7.2571  -13.4375   25.2652 C   0  0  0  0  0  0  0  0  0  0  0  0
    9.0653  -16.2870   21.8109 C   0  0  0  0  0  0  0  0  0  0  0  0
    9.9469  -15.5148   21.3454 O   0  0  0  0  0  0  0  0  0  0  0  0
    9.1453  -17.6917   21.4877 N   0  0  0  0  0  0  0  0  0  0  0  0
   10.1218  -18.1195   20.5607 C   0  0  0  0  0  0  0  0  0  0  0  0
   11.4959  -17.7268   21.0103 C   0  0  0  0  0  0  0  0  0  0  0  0
   12.2463  -17.1013   20.1830 O   0  0  0  0  0  0  0  0  0  0  0  0
   11.9600  -18.0344   22.2961 N   0  0  0  0  0  0  0  0  0  0  0  0
   13.2566  -17.6985   22.8236 C   0  0  1  0  0  0  0  0  0  0  0  0
   13.8476  -16.3922   22.3745 C   0  0  0  0  0  0  0  0  0  0  0  0
   15.2078  -16.2519   22.9476 C   0  0  0  0  0  0  0  0  0  0  0  0
   15.4989  -16.5341   24.1493 O   0  0  0  0  0  0  0  0  0  0  0  0
   13.4718  -18.0513   24.2148 C   0  0  0  0  0  0  0  0  0  0  0  0
   12.5114  -17.7356   25.1622 O   0  0  0  0  0  0  0  0  0  0  0  0
   16.2745  -15.7866   22.1704 O   0  0  0  0  0  0  0  0  0  0  0  0
   14.4983  -18.6330   24.5892 O   0  0  0  0  0  0  0  0  0  0  0  0
  2  1  1  1
  3  2  1  0
  3  4  1  0
  4  5  2  0
  6  5  1  0
  7  6  1  0
  8  7  2  0
  9  8  1  0
 10 11  1  0
 10  9  2  0
 11 12  2  0
 12  7  1  0
 12  4  1  0
 13 15  1  0
 13  2  1  0
 14 13  2  0
 16 15  1  0
 17 19  1  0
 17 16  1  0
 18 17  2  0
 20 19  1  0
 20 21  1  1
 22 21  1  0
 22 26  1  0
 23 22  2  0
 24 25  1  0
 24 20  1  0
 27 24  2  0
M  END
$$$$
