WGD.pdb
     RDKit          3D

 27 28  0  0  1  0  0  0  0  0999 V2000
    7.9575  -15.7876   22.9494 N   0  0  0  0  0  0  0  0  0  0  0  0
    9.0366  -15.4371   23.8127 C   0  0  1  0  0  0  0  0  0  0  0  0
    8.7177  -15.7797   25.2314 C   0  0  0  0  0  0  0  0  0  0  0  0
    7.4722  -15.1425   25.7173 C   0  0  0  0  0  0  0  0  0  0  0  0
    6.2891  -15.8069   26.0694 C   0  0  0  0  0  0  0  0  0  0  0  0
    5.3744  -14.9024   26.4350 N   0  0  0  0  0  0  0  0  0  0  0  0
    5.8856  -13.6553   26.3465 C   0  0  0  0  0  0  0  0  0  0  0  0
    5.3766  -12.3932   26.6064 C   0  0  0  0  0  0  0  0  0  0  0  0
    6.1402  -11.2760   26.4326 C   0  0  0  0  0  0  0  0  0  0  0  0
    7.4302  -11.4010   25.9948 C   0  0  0  0  0  0  0  0  0  0  0  0
    7.9271  -12.6666   25.7384 C   0  0  0  0  0  0  0  0  0  0  0  0
    7.1864  -13.8152   25.9012 C   0  0  0  0  0  0  0  0  0  0  0  0
   10.2525  -16.1589   23.3379 C   0  0  0  0  0  0  0  0  0  0  0  0
   11.2306  -16.3947   24.0981 O   0  0  0  0  0  0  0  0  0  0  0  0
   10.3263  -16.6076   21.9677 N   0  0  0  0  0  0  0  0  0  0  0  0
   11.4641  -17.3348   21.5528 C   0  0  0  0  0  0  0  0  0  0  0  0
   12.7195  -16.5593   21.8118 C   0  0  0  0  0  0  0  0  0  0  0  0
   12.9472  -15.5223   21.0965 O   0  0  0  0  0  0  0  0  0  0  0  0
   13.6293  -16.9510   22.8029 N   0  0  0  0  0  0  0  0  0  0  0  0
   14.9054  -16.3371   23.0613 C   0  0  1  0  0  0  0  0  0  0  0  0
   15.3028  -16.1931   24.5032 C   0  0  0  0  0  0  0  0  0  0  0  0
   15.3098  -17.5316   25.1410 C   0  0  0  0  0  0  0  0  0  0  0  0
   14.9988  -18.6021   24.5363 O   0  0  0  0  0  0  0  0  0  0  0  0
   15.9669  -16.6989   22.1402 C   0  0  0  0  0  0  0  0  0  0  0  0
   15.8014  -17.7788   21.2882 O   0  0  0  0  0  0  0  0  0  0  0  0
   15.6702  -17.6898   26.4839 O   0  0  0  0  0  0  0  0  0  0  0  0
   17.0299  -16.0668   22.0888 O   0  0  0  0  0  0  0  0  0  0  0  0
  2  1  1  6
  3  2  1  0
  3  4  1  0
  4  5  2  0
  6  5  1  0
  7  6  1  0
  8  7  2  0
  9  8  1  0
 10 11  1  0
 10  9  2  0
 11 12  2  0
 12  7  1  0
 12  4  1  0
 13 15  1  0
 13  2  1  0
 14 13  2  0
 16 15  1  0
 17 19  1  0
 17 16  1  0
 18 17  2  0
 20 19  1  0
 20 21  1  1
 22 21  1  0
 22 26  1  0
 23 22  2  0
 24 25  1  0
 24 20  1  0
 27 24  2  0
M  END
$$$$
