WGD.pdb
     RDKit          3D

 27 28  0  0  1  0  0  0  0  0999 V2000
    8.3268  -17.1401   23.6572 N   0  0  0  0  0  0  0  0  0  0  0  0
    7.9607  -16.2038   22.6463 C   0  0  1  0  0  0  0  0  0  0  0  0
    8.1186  -14.8012   23.1360 C   0  0  0  0  0  0  0  0  0  0  0  0
    7.4257  -14.5528   24.4210 C   0  0  0  0  0  0  0  0  0  0  0  0
    6.5870  -15.4527   25.0932 C   0  0  0  0  0  0  0  0  0  0  0  0
    6.1240  -14.8695   26.2039 N   0  0  0  0  0  0  0  0  0  0  0  0
    6.6121  -13.6149   26.3141 C   0  0  0  0  0  0  0  0  0  0  0  0
    6.4573  -12.6083   27.2534 C   0  0  0  0  0  0  0  0  0  0  0  0
    7.0932  -11.4094   27.1126 C   0  0  0  0  0  0  0  0  0  0  0  0
    7.8978  -11.1950   26.0273 C   0  0  0  0  0  0  0  0  0  0  0  0
    8.0443  -12.2077   25.0961 C   0  0  0  0  0  0  0  0  0  0  0  0
    7.4182  -13.4286   25.2043 C   0  0  0  0  0  0  0  0  0  0  0  0
    8.8168  -16.4640   21.4530 C   0  0  0  0  0  0  0  0  0  0  0  0
    8.7129  -15.7872   20.3941 O   0  0  0  0  0  0  0  0  0  0  0  0
    9.7996  -17.5206   21.4967 N   0  0  0  0  0  0  0  0  0  0  0  0
   11.1422  -17.2110   21.1850 C   0  0  0  0  0  0  0  0  0  0  0  0
   12.0830  -17.8956   22.1288 C   0  0  0  0  0  0  0  0  0  0  0  0
   11.8211  -19.0999   22.4750 O   0  0  0  0  0  0  0  0  0  0  0  0
   13.2183  -17.2447   22.6295 N   0  0  0  0  0  0  0  0  0  0  0  0
   14.5839  -17.6172   22.3674 C   0  0  1  0  0  0  0  0  0  0  0  0
   14.9513  -17.8582   20.9306 C   0  0  0  0  0  0  0  0  0  0  0  0
   16.3526  -18.3380   20.8615 C   0  0  0  0  0  0  0  0  0  0  0  0
   16.7029  -19.5298   21.1172 O   0  0  0  0  0  0  0  0  0  0  0  0
   15.5795  -16.9368   23.1749 C   0  0  0  0  0  0  0  0  0  0  0  0
   15.2183  -15.8297   23.9256 O   0  0  0  0  0  0  0  0  0  0  0  0
   17.3941  -17.4760   20.5002 O   0  0  0  0  0  0  0  0  0  0  0  0
   16.7566  -17.3171   23.2167 O   0  0  0  0  0  0  0  0  0  0  0  0
  2  1  1  1
  3  2  1  0
  3  4  1  0
  4  5  2  0
  6  5  1  0
  7  6  1  0
  8  7  2  0
  9  8  1  0
 10 11  1  0
 10  9  2  0
 11 12  2  0
 12  7  1  0
 12  4  1  0
 13 15  1  0
 13  2  1  0
 14 13  2  0
 16 15  1  0
 17 19  1  0
 17 16  1  0
 18 17  2  0
 20 19  1  0
 20 21  1  6
 22 21  1  0
 22 26  1  0
 23 22  2  0
 24 25  1  0
 24 20  1  0
 27 24  2  0
M  END
$$$$
