WGD.pdb
     RDKit          3D

 27 28  0  0  1  0  0  0  0  0999 V2000
    7.0468  -17.1621   23.1442 N   0  0  0  0  0  0  0  0  0  0  0  0
    8.0233  -16.1331   23.0015 C   0  0  1  0  0  0  0  0  0  0  0  0
    8.5871  -15.7450   24.3294 C   0  0  0  0  0  0  0  0  0  0  0  0
    7.5906  -15.1070   25.2199 C   0  0  0  0  0  0  0  0  0  0  0  0
    6.5453  -15.7589   25.8888 C   0  0  0  0  0  0  0  0  0  0  0  0
    5.8383  -14.8558   26.5763 N   0  0  0  0  0  0  0  0  0  0  0  0
    6.3585  -13.6214   26.4032 C   0  0  0  0  0  0  0  0  0  0  0  0
    6.0213  -12.3662   26.8832 C   0  0  0  0  0  0  0  0  0  0  0  0
    6.7477  -11.2628   26.5420 C   0  0  0  0  0  0  0  0  0  0  0  0
    7.8274  -11.3950   25.7126 C   0  0  0  0  0  0  0  0  0  0  0  0
    8.1541  -12.6535   25.2395 C   0  0  0  0  0  0  0  0  0  0  0  0
    7.4445  -13.7881   25.5613 C   0  0  0  0  0  0  0  0  0  0  0  0
    9.0860  -16.6378   22.0847 C   0  0  0  0  0  0  0  0  0  0  0  0
    9.1596  -17.8510   21.7487 O   0  0  0  0  0  0  0  0  0  0  0  0
   10.0681  -15.7205   21.5575 N   0  0  0  0  0  0  0  0  0  0  0  0
   11.1221  -16.2346   20.7698 C   0  0  0  0  0  0  0  0  0  0  0  0
   12.1533  -16.9044   21.6257 C   0  0  0  0  0  0  0  0  0  0  0  0
   12.4327  -18.1306   21.3868 O   0  0  0  0  0  0  0  0  0  0  0  0
   12.7971  -16.2198   22.6650 N   0  0  0  0  0  0  0  0  0  0  0  0
   13.7430  -16.7911   23.5877 C   0  0  1  0  0  0  0  0  0  0  0  0
   15.0570  -16.0770   23.7320 C   0  0  0  0  0  0  0  0  0  0  0  0
   15.7180  -16.0036   22.4068 C   0  0  0  0  0  0  0  0  0  0  0  0
   15.5560  -16.8645   21.4897 O   0  0  0  0  0  0  0  0  0  0  0  0
   13.1724  -17.3299   24.8084 C   0  0  0  0  0  0  0  0  0  0  0  0
   13.9822  -18.0024   25.7093 O   0  0  0  0  0  0  0  0  0  0  0  0
   16.5816  -14.9497   22.0879 O   0  0  0  0  0  0  0  0  0  0  0  0
   11.9702  -17.2073   25.0763 O   0  0  0  0  0  0  0  0  0  0  0  0
  2  1  1  1
  3  2  1  0
  3  4  1  0
  4  5  2  0
  6  5  1  0
  7  6  1  0
  8  7  2  0
  9  8  1  0
 10 11  1  0
 10  9  2  0
 11 12  2  0
 12  7  1  0
 12  4  1  0
 13 15  1  0
 13  2  1  0
 14 13  2  0
 16 15  1  0
 17 19  1  0
 17 16  1  0
 18 17  2  0
 20 19  1  0
 20 21  1  1
 22 21  1  0
 22 26  1  0
 23 22  2  0
 24 25  1  0
 24 20  1  0
 27 24  2  0
M  END
$$$$
