SWW.pdb
     RDKit          3D

 35 38  0  0  1  0  0  0  0  0999 V2000
   25.5087  -21.7836  -16.4335 O   0  0  0  0  0  0  0  0  0  0  0  0
   26.1716  -22.9815  -16.5728 C   0  0  0  0  0  0  0  0  0  0  0  0
   25.6824  -24.0241  -15.5889 C   0  0  2  0  0  0  0  0  0  0  0  0
   24.7977  -24.9749  -16.1842 N   0  0  0  0  0  0  0  0  0  0  0  0
   25.0649  -23.3906  -14.3937 C   0  0  0  0  0  0  0  0  0  0  0  0
   23.8033  -23.3935  -14.2547 O   0  0  0  0  0  0  0  0  0  0  0  0
   25.8554  -22.7757  -13.3919 N   0  0  0  0  0  0  0  0  0  0  0  0
   25.2842  -22.0925  -12.2774 C   0  0  1  0  0  0  0  0  0  0  0  0
   26.3586  -21.7632  -11.2573 C   0  0  0  0  0  0  0  0  0  0  0  0
   25.8218  -21.2178  -10.0110 C   0  0  0  0  0  0  0  0  0  0  0  0
   24.4656  -20.9995   -9.7687 C   0  0  0  0  0  0  0  0  0  0  0  0
   24.3559  -20.4993   -8.5380 N   0  0  0  0  0  0  0  0  0  0  0  0
   25.5559  -20.3778   -7.9634 C   0  0  0  0  0  0  0  0  0  0  0  0
   25.9775  -19.9214   -6.7205 C   0  0  0  0  0  0  0  0  0  0  0  0
   27.3255  -19.9232   -6.4185 C   0  0  0  0  0  0  0  0  0  0  0  0
   28.2726  -20.3697   -7.3256 C   0  0  0  0  0  0  0  0  0  0  0  0
   27.8369  -20.8162   -8.5467 C   0  0  0  0  0  0  0  0  0  0  0  0
   26.4891  -20.8247   -8.8743 C   0  0  0  0  0  0  0  0  0  0  0  0
   24.6742  -20.7859  -12.6624 C   0  0  0  0  0  0  0  0  0  0  0  0
   24.1008  -20.1501  -11.7464 O   0  0  0  0  0  0  0  0  0  0  0  0
   24.7228  -20.2704  -13.9669 N   0  0  0  0  0  0  0  0  0  0  0  0
   24.3168  -18.9163  -14.2608 C   0  0  1  0  0  0  0  0  0  0  0  0
   25.4664  -17.9707  -14.1470 C   0  0  0  0  0  0  0  0  0  0  0  0
   26.6583  -18.4328  -14.9073 C   0  0  0  0  0  0  0  0  0  0  0  0
   26.8844  -18.3378  -16.2641 C   0  0  0  0  0  0  0  0  0  0  0  0
   28.0730  -18.8697  -16.5452 N   0  0  0  0  0  0  0  0  0  0  0  0
   28.6727  -19.3296  -15.4172 C   0  0  0  0  0  0  0  0  0  0  0  0
   29.8824  -19.9500  -15.1780 C   0  0  0  0  0  0  0  0  0  0  0  0
   30.2204  -20.3068  -13.8901 C   0  0  0  0  0  0  0  0  0  0  0  0
   29.3281  -20.0312  -12.8570 C   0  0  0  0  0  0  0  0  0  0  0  0
   28.1165  -19.4082  -13.1095 C   0  0  0  0  0  0  0  0  0  0  0  0
   27.7886  -19.0566  -14.3925 C   0  0  0  0  0  0  0  0  0  0  0  0
   23.7078  -18.9055  -15.6258 C   0  0  0  0  0  0  0  0  0  0  0  0
   23.6531  -19.9268  -16.3186 O   0  0  0  0  0  0  0  0  0  0  0  0
   23.1762  -17.7349  -16.1712 O   0  0  0  0  0  0  0  0  0  0  0  0
  2  1  1  0
  3  2  1  0
  3  4  1  6
  5  6  2  0
  5  3  1  0
  7  5  1  0
  8  7  1  0
  8  9  1  1
 10 18  1  0
 10  9  1  0
 11 10  2  0
 12 11  1  0
 12 13  1  0
 13 18  2  0
 14 13  1  0
 14 15  2  0
 15 16  1  0
 16 17  2  0
 18 17  1  0
 19 21  1  0
 19  8  1  0
 20 19  2  0
 22 21  1  0
 22 33  1  0
 22 23  1  6
 24 32  1  0
 24 23  1  0
 25 24  2  0
 26 25  1  0
 26 27  1  0
 27 32  2  0
 28 27  1  0
 28 29  2  0
 29 30  1  0
 30 31  2  0
 32 31  1  0
 33 35  1  0
 34 33  2  0
M  END
$$$$
