SWW.pdb
     RDKit          3D

 35 38  0  0  1  0  0  0  0  0999 V2000
   27.0806  -16.9092  -17.1484 O   0  0  0  0  0  0  0  0  0  0  0  0
   26.9446  -18.2434  -17.4572 C   0  0  0  0  0  0  0  0  0  0  0  0
   28.0008  -19.0966  -16.7858 C   0  0  2  0  0  0  0  0  0  0  0  0
   28.7559  -19.8759  -17.7151 N   0  0  0  0  0  0  0  0  0  0  0  0
   27.4085  -19.9523  -15.7236 C   0  0  0  0  0  0  0  0  0  0  0  0
   26.6181  -20.8951  -16.0357 O   0  0  0  0  0  0  0  0  0  0  0  0
   27.7054  -19.7424  -14.3546 N   0  0  0  0  0  0  0  0  0  0  0  0
   26.9832  -20.3870  -13.3066 C   0  0  1  0  0  0  0  0  0  0  0  0
   27.7801  -20.3421  -12.0158 C   0  0  0  0  0  0  0  0  0  0  0  0
   27.0418  -20.8602  -10.8646 C   0  0  0  0  0  0  0  0  0  0  0  0
   26.1863  -21.9610  -10.9106 C   0  0  0  0  0  0  0  0  0  0  0  0
   25.6969  -22.1371   -9.6834 N   0  0  0  0  0  0  0  0  0  0  0  0
   26.1798  -21.2197   -8.8406 C   0  0  0  0  0  0  0  0  0  0  0  0
   25.9890  -20.9728   -7.4866 C   0  0  0  0  0  0  0  0  0  0  0  0
   26.6519  -19.9183   -6.8892 C   0  0  0  0  0  0  0  0  0  0  0  0
   27.5054  -19.0965   -7.6071 C   0  0  0  0  0  0  0  0  0  0  0  0
   27.6805  -19.3562   -8.9420 C   0  0  0  0  0  0  0  0  0  0  0  0
   27.0267  -20.4089   -9.5654 C   0  0  0  0  0  0  0  0  0  0  0  0
   25.6870  -19.7098  -13.0085 C   0  0  0  0  0  0  0  0  0  0  0  0
   25.7260  -18.4615  -12.8979 O   0  0  0  0  0  0  0  0  0  0  0  0
   24.4760  -20.4026  -12.8551 N   0  0  0  0  0  0  0  0  0  0  0  0
   23.2588  -19.7239  -12.4776 C   0  0  1  0  0  0  0  0  0  0  0  0
   22.5843  -19.1228  -13.6660 C   0  0  0  0  0  0  0  0  0  0  0  0
   22.1993  -20.1441  -14.6765 C   0  0  0  0  0  0  0  0  0  0  0  0
   21.2939  -21.1743  -14.5344 C   0  0  0  0  0  0  0  0  0  0  0  0
   21.2369  -21.8632  -15.6732 N   0  0  0  0  0  0  0  0  0  0  0  0
   22.0798  -21.3350  -16.5973 C   0  0  0  0  0  0  0  0  0  0  0  0
   22.3822  -21.6737  -17.9008 C   0  0  0  0  0  0  0  0  0  0  0  0
   23.3045  -20.9259  -18.6010 C   0  0  0  0  0  0  0  0  0  0  0  0
   23.9115  -19.8415  -17.9724 C   0  0  0  0  0  0  0  0  0  0  0  0
   23.6000  -19.5114  -16.6632 C   0  0  0  0  0  0  0  0  0  0  0  0
   22.6819  -20.2599  -15.9746 C   0  0  0  0  0  0  0  0  0  0  0  0
   22.3854  -20.7079  -11.7684 C   0  0  0  0  0  0  0  0  0  0  0  0
   22.5815  -21.9248  -11.8504 O   0  0  0  0  0  0  0  0  0  0  0  0
   21.3101  -20.2861  -10.9835 O   0  0  0  0  0  0  0  0  0  0  0  0
  2  1  1  0
  3  2  1  0
  3  4  1  6
  5  6  2  0
  5  3  1  0
  7  5  1  0
  8  7  1  0
  8  9  1  1
 10 18  1  0
 10  9  1  0
 11 10  2  0
 12 11  1  0
 12 13  1  0
 13 18  2  0
 14 13  1  0
 14 15  2  0
 15 16  1  0
 16 17  2  0
 18 17  1  0
 19 21  1  0
 19  8  1  0
 20 19  2  0
 22 21  1  0
 22 33  1  0
 22 23  1  6
 24 32  1  0
 24 23  1  0
 25 24  2  0
 26 25  1  0
 26 27  1  0
 27 32  2  0
 28 27  1  0
 28 29  2  0
 29 30  1  0
 30 31  2  0
 32 31  1  0
 33 35  1  0
 34 33  2  0
M  END
$$$$
