SWW.pdb
     RDKit          3D

 35 38  0  0  1  0  0  0  0  0999 V2000
   26.7071  -19.7625  -16.1823 O   0  0  0  0  0  0  0  0  0  0  0  0
   27.9095  -19.5863  -15.5365 C   0  0  0  0  0  0  0  0  0  0  0  0
   28.3696  -20.8449  -14.8303 C   0  0  2  0  0  0  0  0  0  0  0  0
   28.7308  -21.8879  -15.7373 N   0  0  0  0  0  0  0  0  0  0  0  0
   27.3563  -21.3140  -13.8483 C   0  0  0  0  0  0  0  0  0  0  0  0
   26.7036  -22.3796  -14.0702 O   0  0  0  0  0  0  0  0  0  0  0  0
   27.0952  -20.5956  -12.6557 N   0  0  0  0  0  0  0  0  0  0  0  0
   26.0942  -20.9983  -11.7224 C   0  0  1  0  0  0  0  0  0  0  0  0
   26.2973  -20.2884  -10.3965 C   0  0  0  0  0  0  0  0  0  0  0  0
   27.4941  -20.7324   -9.6828 C   0  0  0  0  0  0  0  0  0  0  0  0
   28.4982  -21.5197  -10.2464 C   0  0  0  0  0  0  0  0  0  0  0  0
   29.4211  -21.7221   -9.3061 N   0  0  0  0  0  0  0  0  0  0  0  0
   29.0810  -21.1161   -8.1650 C   0  0  0  0  0  0  0  0  0  0  0  0
   29.6852  -21.0216   -6.9173 C   0  0  0  0  0  0  0  0  0  0  0  0
   29.0647  -20.3004   -5.9158 C   0  0  0  0  0  0  0  0  0  0  0  0
   27.8506  -19.6659   -6.1229 C   0  0  0  0  0  0  0  0  0  0  0  0
   27.2703  -19.7708   -7.3609 C   0  0  0  0  0  0  0  0  0  0  0  0
   27.8730  -20.4890   -8.3831 C   0  0  0  0  0  0  0  0  0  0  0  0
   24.7180  -20.6354  -12.1718 C   0  0  0  0  0  0  0  0  0  0  0  0
   24.5721  -19.4787  -12.6329 O   0  0  0  0  0  0  0  0  0  0  0  0
   23.6280  -21.5164  -12.0958 N   0  0  0  0  0  0  0  0  0  0  0  0
   22.3246  -21.1523  -12.5991 C   0  0  1  0  0  0  0  0  0  0  0  0
   21.9410  -21.9977  -13.7681 C   0  0  0  0  0  0  0  0  0  0  0  0
   20.6450  -21.5819  -14.3679 C   0  0  0  0  0  0  0  0  0  0  0  0
   20.1833  -20.2996  -14.5771 C   0  0  0  0  0  0  0  0  0  0  0  0
   18.9764  -20.3581  -15.1381 N   0  0  0  0  0  0  0  0  0  0  0  0
   18.5935  -21.6478  -15.3213 C   0  0  0  0  0  0  0  0  0  0  0  0
   17.4588  -22.2285  -15.8510 C   0  0  0  0  0  0  0  0  0  0  0  0
   17.3595  -23.6024  -15.9033 C   0  0  0  0  0  0  0  0  0  0  0  0
   18.4120  -24.3744  -15.4175 C   0  0  0  0  0  0  0  0  0  0  0  0
   19.5459  -23.7798  -14.8877 C   0  0  0  0  0  0  0  0  0  0  0  0
   19.6365  -22.4135  -14.8399 C   0  0  0  0  0  0  0  0  0  0  0  0
   21.3488  -21.2675  -11.4727 C   0  0  0  0  0  0  0  0  0  0  0  0
   21.4845  -22.1130  -10.5823 O   0  0  0  0  0  0  0  0  0  0  0  0
   20.2424  -20.4199  -11.3849 O   0  0  0  0  0  0  0  0  0  0  0  0
  2  1  1  0
  3  2  1  0
  3  4  1  6
  5  6  2  0
  5  3  1  0
  7  5  1  0
  8  7  1  0
  8  9  1  1
 10 18  1  0
 10  9  1  0
 11 10  2  0
 12 11  1  0
 12 13  1  0
 13 18  2  0
 14 13  1  0
 14 15  2  0
 15 16  1  0
 16 17  2  0
 18 17  1  0
 19 21  1  0
 19  8  1  0
 20 19  2  0
 22 21  1  0
 22 33  1  0
 22 23  1  6
 24 32  1  0
 24 23  1  0
 25 24  2  0
 26 25  1  0
 26 27  1  0
 27 32  2  0
 28 27  1  0
 28 29  2  0
 29 30  1  0
 30 31  2  0
 32 31  1  0
 33 35  1  0
 34 33  2  0
M  END
$$$$
