SWW.pdb
     RDKit          3D

 35 38  0  0  1  0  0  0  0  0999 V2000
   27.5334  -18.9590  -15.5360 O   0  0  0  0  0  0  0  0  0  0  0  0
   28.4077  -18.8535  -14.4784 C   0  0  0  0  0  0  0  0  0  0  0  0
   28.8181  -20.2077  -13.9382 C   0  0  2  0  0  0  0  0  0  0  0  0
   29.2671  -21.0988  -14.9607 N   0  0  0  0  0  0  0  0  0  0  0  0
   27.7289  -20.8202  -13.1322 C   0  0  0  0  0  0  0  0  0  0  0  0
   27.0886  -21.8180  -13.5852 O   0  0  0  0  0  0  0  0  0  0  0  0
   27.3807  -20.3147  -11.8555 N   0  0  0  0  0  0  0  0  0  0  0  0
   26.2824  -20.8267  -11.1025 C   0  0  1  0  0  0  0  0  0  0  0  0
   26.2994  -20.2560   -9.6962 C   0  0  0  0  0  0  0  0  0  0  0  0
   27.5207  -20.5774   -8.9588 C   0  0  0  0  0  0  0  0  0  0  0  0
   28.5303  -21.4129   -9.4369 C   0  0  0  0  0  0  0  0  0  0  0  0
   29.4771  -21.4702   -8.5004 N   0  0  0  0  0  0  0  0  0  0  0  0
   29.1476  -20.7243   -7.4420 C   0  0  0  0  0  0  0  0  0  0  0  0
   29.7757  -20.4527   -6.2327 C   0  0  0  0  0  0  0  0  0  0  0  0
   29.1603  -19.6167   -5.3212 C   0  0  0  0  0  0  0  0  0  0  0  0
   27.9281  -19.0395   -5.5816 C   0  0  0  0  0  0  0  0  0  0  0  0
   27.3243  -19.3197   -6.7804 C   0  0  0  0  0  0  0  0  0  0  0  0
   27.9213  -20.1557   -7.7124 C   0  0  0  0  0  0  0  0  0  0  0  0
   24.9637  -20.4384  -11.6835 C   0  0  0  0  0  0  0  0  0  0  0  0
   24.8760  -19.2693  -12.1280 O   0  0  0  0  0  0  0  0  0  0  0  0
   23.8647  -21.3093  -11.7438 N   0  0  0  0  0  0  0  0  0  0  0  0
   22.6599  -20.9586  -12.4582 C   0  0  1  0  0  0  0  0  0  0  0  0
   22.4459  -21.8573  -13.6308 C   0  0  0  0  0  0  0  0  0  0  0  0
   21.2220  -21.5053  -14.3993 C   0  0  0  0  0  0  0  0  0  0  0  0
   20.9681  -20.3447  -15.0990 C   0  0  0  0  0  0  0  0  0  0  0  0
   19.7568  -20.4240  -15.6479 N   0  0  0  0  0  0  0  0  0  0  0  0
   19.1683  -21.6095  -15.3446 C   0  0  0  0  0  0  0  0  0  0  0  0
   17.9452  -22.1641  -15.6632 C   0  0  0  0  0  0  0  0  0  0  0  0
   17.6257  -23.4205  -15.1947 C   0  0  0  0  0  0  0  0  0  0  0  0
   18.5499  -24.1026  -14.4072 C   0  0  0  0  0  0  0  0  0  0  0  0
   19.7745  -23.5353  -14.0937 C   0  0  0  0  0  0  0  0  0  0  0  0
   20.0842  -22.2861  -14.5638 C   0  0  0  0  0  0  0  0  0  0  0  0
   21.5214  -21.0091  -11.4910 C   0  0  0  0  0  0  0  0  0  0  0  0
   21.5354  -21.7638  -10.5131 O   0  0  0  0  0  0  0  0  0  0  0  0
   20.3944  -20.2015  -11.6580 O   0  0  0  0  0  0  0  0  0  0  0  0
  2  1  1  0
  3  2  1  0
  3  4  1  6
  5  6  2  0
  5  3  1  0
  7  5  1  0
  8  7  1  0
  8  9  1  1
 10 18  1  0
 10  9  1  0
 11 10  2  0
 12 11  1  0
 12 13  1  0
 13 18  2  0
 14 13  1  0
 14 15  2  0
 15 16  1  0
 16 17  2  0
 18 17  1  0
 19 21  1  0
 19  8  1  0
 20 19  2  0
 22 21  1  0
 22 33  1  0
 22 23  1  6
 24 32  1  0
 24 23  1  0
 25 24  2  0
 26 25  1  0
 26 27  1  0
 27 32  2  0
 28 27  1  0
 28 29  2  0
 29 30  1  0
 30 31  2  0
 32 31  1  0
 33 35  1  0
 34 33  2  0
M  END
$$$$
