SWW.pdb
     RDKit          3D

 35 38  0  0  1  0  0  0  0  0999 V2000
   26.0247  -18.6456  -14.4537 O   0  0  0  0  0  0  0  0  0  0  0  0
   26.3466  -19.7009  -15.2762 C   0  0  0  0  0  0  0  0  0  0  0  0
   27.2191  -20.7242  -14.5791 C   0  0  2  0  0  0  0  0  0  0  0  0
   27.4867  -21.8687  -15.3913 N   0  0  0  0  0  0  0  0  0  0  0  0
   26.6437  -21.1197  -13.2663 C   0  0  0  0  0  0  0  0  0  0  0  0
   25.7564  -22.0255  -13.2096 O   0  0  0  0  0  0  0  0  0  0  0  0
   27.0633  -20.5060  -12.0605 N   0  0  0  0  0  0  0  0  0  0  0  0
   26.5200  -20.8620  -10.7904 C   0  0  1  0  0  0  0  0  0  0  0  0
   27.4372  -20.3908   -9.6768 C   0  0  0  0  0  0  0  0  0  0  0  0
   26.9208  -20.6867   -8.3410 C   0  0  0  0  0  0  0  0  0  0  0  0
   25.7873  -21.4601   -8.0905 C   0  0  0  0  0  0  0  0  0  0  0  0
   25.6246  -21.5124   -6.7685 N   0  0  0  0  0  0  0  0  0  0  0  0
   26.5811  -20.8213   -6.1420 C   0  0  0  0  0  0  0  0  0  0  0  0
   26.8566  -20.5704   -4.8034 C   0  0  0  0  0  0  0  0  0  0  0  0
   27.9521  -19.7980   -4.4693 C   0  0  0  0  0  0  0  0  0  0  0  0
   28.7870  -19.2642   -5.4375 C   0  0  0  0  0  0  0  0  0  0  0  0
   28.4985  -19.5229   -6.7528 C   0  0  0  0  0  0  0  0  0  0  0  0
   27.4047  -20.2955   -7.1143 C   0  0  0  0  0  0  0  0  0  0  0  0
   25.2009  -20.2128  -10.5333 C   0  0  0  0  0  0  0  0  0  0  0  0
   25.2155  -18.9684  -10.3809 O   0  0  0  0  0  0  0  0  0  0  0  0
   23.9947  -20.9268  -10.4606 N   0  0  0  0  0  0  0  0  0  0  0  0
   22.7282  -20.2562  -10.2843 C   0  0  1  0  0  0  0  0  0  0  0  0
   22.4728  -19.2845  -11.3884 C   0  0  0  0  0  0  0  0  0  0  0  0
   22.3513  -19.9501  -12.7130 C   0  0  0  0  0  0  0  0  0  0  0  0
   22.1092  -21.2829  -12.9701 C   0  0  0  0  0  0  0  0  0  0  0  0
   22.0736  -21.4720  -14.2883 N   0  0  0  0  0  0  0  0  0  0  0  0
   22.2852  -20.3039  -14.9474 C   0  0  0  0  0  0  0  0  0  0  0  0
   22.3437  -19.9737  -16.2863 C   0  0  0  0  0  0  0  0  0  0  0  0
   22.5803  -18.6665  -16.6544 C   0  0  0  0  0  0  0  0  0  0  0  0
   22.7554  -17.7065  -15.6608 C   0  0  0  0  0  0  0  0  0  0  0  0
   22.6947  -18.0502  -14.3199 C   0  0  0  0  0  0  0  0  0  0  0  0
   22.4588  -19.3518  -13.9628 C   0  0  0  0  0  0  0  0  0  0  0  0
   21.6639  -21.3017  -10.1929 C   0  0  0  0  0  0  0  0  0  0  0  0
   21.8820  -22.4769  -10.5051 O   0  0  0  0  0  0  0  0  0  0  0  0
   20.3776  -20.9873   -9.7493 O   0  0  0  0  0  0  0  0  0  0  0  0
  2  1  1  0
  3  2  1  0
  3  4  1  6
  5  6  2  0
  5  3  1  0
  7  5  1  0
  8  7  1  0
  8  9  1  1
 10 18  1  0
 10  9  1  0
 11 10  2  0
 12 11  1  0
 12 13  1  0
 13 18  2  0
 14 13  1  0
 14 15  2  0
 15 16  1  0
 16 17  2  0
 18 17  1  0
 19 21  1  0
 19  8  1  0
 20 19  2  0
 22 21  1  0
 22 33  1  0
 22 23  1  6
 24 32  1  0
 24 23  1  0
 25 24  2  0
 26 25  1  0
 26 27  1  0
 27 32  2  0
 28 27  1  0
 28 29  2  0
 29 30  1  0
 30 31  2  0
 32 31  1  0
 33 35  1  0
 34 33  2  0
M  END
$$$$
