SWW.pdb
     RDKit          3D

 35 38  0  0  1  0  0  0  0  0999 V2000
   26.8718  -18.0837  -15.2798 O   0  0  0  0  0  0  0  0  0  0  0  0
   27.8226  -18.2323  -14.2961 C   0  0  0  0  0  0  0  0  0  0  0  0
   28.1662  -19.6863  -14.0473 C   0  0  2  0  0  0  0  0  0  0  0  0
   28.5884  -20.3657  -15.2311 N   0  0  0  0  0  0  0  0  0  0  0  0
   27.0410  -20.4021  -13.3896 C   0  0  0  0  0  0  0  0  0  0  0  0
   26.4500  -21.3478  -13.9955 O   0  0  0  0  0  0  0  0  0  0  0  0
   26.6038  -20.0537  -12.0880 N   0  0  0  0  0  0  0  0  0  0  0  0
   25.6123  -20.8025  -11.3870 C   0  0  1  0  0  0  0  0  0  0  0  0
   25.7233  -20.5514   -9.8943 C   0  0  0  0  0  0  0  0  0  0  0  0
   27.0844  -20.7097   -9.3833 C   0  0  0  0  0  0  0  0  0  0  0  0
   28.1202  -21.3269  -10.0846 C   0  0  0  0  0  0  0  0  0  0  0  0
   29.2052  -21.2857   -9.3114 N   0  0  0  0  0  0  0  0  0  0  0  0
   28.9411  -20.6804   -8.1500 C   0  0  0  0  0  0  0  0  0  0  0  0
   29.7088  -20.3886   -7.0293 C   0  0  0  0  0  0  0  0  0  0  0  0
   29.1281  -19.7333   -5.9608 C   0  0  0  0  0  0  0  0  0  0  0  0
   27.7946  -19.3577   -5.9767 C   0  0  0  0  0  0  0  0  0  0  0  0
   27.0536  -19.6545   -7.0916 C   0  0  0  0  0  0  0  0  0  0  0  0
   27.6131  -20.3116   -8.1775 C   0  0  0  0  0  0  0  0  0  0  0  0
   24.2247  -20.4032  -11.7648 C   0  0  0  0  0  0  0  0  0  0  0  0
   24.0062  -19.1716  -11.8517 O   0  0  0  0  0  0  0  0  0  0  0  0
   23.2003  -21.3294  -12.0153 N   0  0  0  0  0  0  0  0  0  0  0  0
   21.8911  -20.9086  -12.4556 C   0  0  1  0  0  0  0  0  0  0  0  0
   21.5926  -21.4175  -13.8269 C   0  0  0  0  0  0  0  0  0  0  0  0
   22.4017  -20.7368  -14.8730 C   0  0  0  0  0  0  0  0  0  0  0  0
   23.6750  -21.0541  -15.2964 C   0  0  0  0  0  0  0  0  0  0  0  0
   24.0410  -20.2004  -16.2513 N   0  0  0  0  0  0  0  0  0  0  0  0
   23.0531  -19.3021  -16.4976 C   0  0  0  0  0  0  0  0  0  0  0  0
   22.9405  -18.2401  -17.3721 C   0  0  0  0  0  0  0  0  0  0  0  0
   21.7814  -17.4943  -17.3901 C   0  0  0  0  0  0  0  0  0  0  0  0
   20.7473  -17.8327  -16.5208 C   0  0  0  0  0  0  0  0  0  0  0  0
   20.8722  -18.9009  -15.6472 C   0  0  0  0  0  0  0  0  0  0  0  0
   22.0276  -19.6371  -15.6360 C   0  0  0  0  0  0  0  0  0  0  0  0
   20.8939  -21.3805  -11.4471 C   0  0  0  0  0  0  0  0  0  0  0  0
   21.2285  -22.0735  -10.4807 O   0  0  0  0  0  0  0  0  0  0  0  0
   19.5408  -21.0543  -11.5607 O   0  0  0  0  0  0  0  0  0  0  0  0
  2  1  1  0
  3  2  1  0
  3  4  1  6
  5  6  2  0
  5  3  1  0
  7  5  1  0
  8  7  1  0
  8  9  1  1
 10 18  1  0
 10  9  1  0
 11 10  2  0
 12 11  1  0
 12 13  1  0
 13 18  2  0
 14 13  1  0
 14 15  2  0
 15 16  1  0
 16 17  2  0
 18 17  1  0
 19 21  1  0
 19  8  1  0
 20 19  2  0
 22 21  1  0
 22 33  1  0
 22 23  1  6
 24 32  1  0
 24 23  1  0
 25 24  2  0
 26 25  1  0
 26 27  1  0
 27 32  2  0
 28 27  1  0
 28 29  2  0
 29 30  1  0
 30 31  2  0
 32 31  1  0
 33 35  1  0
 34 33  2  0
M  END
$$$$
