SWW.pdb
     RDKit          3D

 35 38  0  0  1  0  0  0  0  0999 V2000
   31.5464  -24.1369  -12.5048 O   0  0  0  0  0  0  0  0  0  0  0  0
   30.8070  -23.9965  -13.6569 C   0  0  0  0  0  0  0  0  0  0  0  0
   30.9271  -22.6072  -14.2481 C   0  0  2  0  0  0  0  0  0  0  0  0
   32.2778  -22.1454  -14.3069 N   0  0  0  0  0  0  0  0  0  0  0  0
   30.0587  -21.6376  -13.5291 C   0  0  0  0  0  0  0  0  0  0  0  0
   30.5803  -20.7228  -12.8207 O   0  0  0  0  0  0  0  0  0  0  0  0
   28.6464  -21.7068  -13.6135 N   0  0  0  0  0  0  0  0  0  0  0  0
   27.7920  -20.8053  -12.9117 C   0  0  1  0  0  0  0  0  0  0  0  0
   26.6979  -20.2958  -13.8319 C   0  0  0  0  0  0  0  0  0  0  0  0
   27.1762  -19.3200  -14.8105 C   0  0  0  0  0  0  0  0  0  0  0  0
   27.7542  -19.6540  -16.0353 C   0  0  0  0  0  0  0  0  0  0  0  0
   28.0631  -18.5147  -16.6543 N   0  0  0  0  0  0  0  0  0  0  0  0
   27.7227  -17.4591  -15.9094 C   0  0  0  0  0  0  0  0  0  0  0  0
   27.8275  -16.0860  -16.0949 C   0  0  0  0  0  0  0  0  0  0  0  0
   27.3695  -15.2315  -15.1109 C   0  0  0  0  0  0  0  0  0  0  0  0
   26.8061  -15.7089  -13.9388 C   0  0  0  0  0  0  0  0  0  0  0  0
   26.7115  -17.0669  -13.7743 C   0  0  0  0  0  0  0  0  0  0  0  0
   27.1638  -17.9460  -14.7472 C   0  0  0  0  0  0  0  0  0  0  0  0
   27.0904  -21.4595  -11.7684 C   0  0  0  0  0  0  0  0  0  0  0  0
   27.1024  -22.7132  -11.7544 O   0  0  0  0  0  0  0  0  0  0  0  0
   26.4445  -20.7404  -10.7507 N   0  0  0  0  0  0  0  0  0  0  0  0
   25.9515  -21.3917   -9.5601 C   0  0  1  0  0  0  0  0  0  0  0  0
   27.0115  -21.4772   -8.5124 C   0  0  0  0  0  0  0  0  0  0  0  0
   27.1890  -20.1952   -7.7794 C   0  0  0  0  0  0  0  0  0  0  0  0
   26.5565  -18.9927   -8.0143 C   0  0  0  0  0  0  0  0  0  0  0  0
   26.9949  -18.0920   -7.1360 N   0  0  0  0  0  0  0  0  0  0  0  0
   27.9137  -18.6421   -6.3013 C   0  0  0  0  0  0  0  0  0  0  0  0
   28.6482  -18.1411   -5.2455 C   0  0  0  0  0  0  0  0  0  0  0  0
   29.5238  -18.9672   -4.5738 C   0  0  0  0  0  0  0  0  0  0  0  0
   29.6462  -20.2938   -4.9796 C   0  0  0  0  0  0  0  0  0  0  0  0
   28.9036  -20.7852   -6.0412 C   0  0  0  0  0  0  0  0  0  0  0  0
   28.0354  -19.9574   -6.7031 C   0  0  0  0  0  0  0  0  0  0  0  0
   24.7493  -20.6386   -9.0891 C   0  0  0  0  0  0  0  0  0  0  0  0
   24.1259  -20.9804   -8.0789 O   0  0  0  0  0  0  0  0  0  0  0  0
   24.2840  -19.5159   -9.7770 O   0  0  0  0  0  0  0  0  0  0  0  0
  2  1  1  0
  3  2  1  0
  3  4  1  1
  5  6  2  0
  5  3  1  0
  7  5  1  0
  8  7  1  0
  8  9  1  6
 10 18  1  0
 10  9  1  0
 11 10  2  0
 12 11  1  0
 12 13  1  0
 13 18  2  0
 14 13  1  0
 14 15  2  0
 15 16  1  0
 16 17  2  0
 18 17  1  0
 19 21  1  0
 19  8  1  0
 20 19  2  0
 22 21  1  0
 22 33  1  0
 22 23  1  1
 24 32  1  0
 24 23  1  0
 25 24  2  0
 26 25  1  0
 26 27  1  0
 27 32  2  0
 28 27  1  0
 28 29  2  0
 29 30  1  0
 30 31  2  0
 32 31  1  0
 33 35  1  0
 34 33  2  0
M  END
$$$$
