SWW.pdb
     RDKit          3D

 35 38  0  0  1  0  0  0  0  0999 V2000
   26.7266  -18.8081  -14.6465 O   0  0  0  0  0  0  0  0  0  0  0  0
   27.8135  -18.8968  -13.8071 C   0  0  0  0  0  0  0  0  0  0  0  0
   28.0976  -20.3242  -13.3877 C   0  0  2  0  0  0  0  0  0  0  0  0
   28.4115  -21.1738  -14.4926 N   0  0  0  0  0  0  0  0  0  0  0  0
   26.9800  -20.8826  -12.5813 C   0  0  0  0  0  0  0  0  0  0  0  0
   26.1950  -21.7389  -13.0924 O   0  0  0  0  0  0  0  0  0  0  0  0
   26.7636  -20.4805  -11.2404 N   0  0  0  0  0  0  0  0  0  0  0  0
   25.6128  -20.8792  -10.4973 C   0  0  1  0  0  0  0  0  0  0  0  0
   25.7634  -20.4775   -9.0415 C   0  0  0  0  0  0  0  0  0  0  0  0
   27.1073  -20.7130   -8.5150 C   0  0  0  0  0  0  0  0  0  0  0  0
   28.1040  -21.4164   -9.1915 C   0  0  0  0  0  0  0  0  0  0  0  0
   29.1841  -21.4277   -8.4104 N   0  0  0  0  0  0  0  0  0  0  0  0
   28.9534  -20.7758   -7.2672 C   0  0  0  0  0  0  0  0  0  0  0  0
   29.7314  -20.5068   -6.1478 C   0  0  0  0  0  0  0  0  0  0  0  0
   29.1887  -19.7863   -5.1015 C   0  0  0  0  0  0  0  0  0  0  0  0
   27.8837  -19.3229   -5.1384 C   0  0  0  0  0  0  0  0  0  0  0  0
   27.1319  -19.5985   -6.2515 C   0  0  0  0  0  0  0  0  0  0  0  0
   27.6534  -20.3198   -7.3154 C   0  0  0  0  0  0  0  0  0  0  0  0
   24.3666  -20.2124  -10.9768 C   0  0  0  0  0  0  0  0  0  0  0  0
   24.3864  -18.9592  -11.0118 O   0  0  0  0  0  0  0  0  0  0  0  0
   23.2209  -20.9197  -11.3731 N   0  0  0  0  0  0  0  0  0  0  0  0
   22.0736  -20.2472  -11.9355 C   0  0  1  0  0  0  0  0  0  0  0  0
   22.4378  -19.5047  -13.1783 C   0  0  0  0  0  0  0  0  0  0  0  0
   22.7434  -20.4151  -14.3140 C   0  0  0  0  0  0  0  0  0  0  0  0
   22.4642  -21.7615  -14.4166 C   0  0  0  0  0  0  0  0  0  0  0  0
   22.9008  -22.2077  -15.5935 N   0  0  0  0  0  0  0  0  0  0  0  0
   23.4743  -21.2038  -16.3055 C   0  0  0  0  0  0  0  0  0  0  0  0
   24.0645  -21.1494  -17.5520 C   0  0  0  0  0  0  0  0  0  0  0  0
   24.5685  -19.9524  -18.0139 C   0  0  0  0  0  0  0  0  0  0  0  0
   24.4691  -18.8217  -17.2069 C   0  0  0  0  0  0  0  0  0  0  0  0
   23.8747  -18.8888  -15.9571 C   0  0  0  0  0  0  0  0  0  0  0  0
   23.3761  -20.0825  -15.5059 C   0  0  0  0  0  0  0  0  0  0  0  0
   21.0139  -21.2729  -12.1788 C   0  0  0  0  0  0  0  0  0  0  0  0
   19.8578  -20.9522  -12.4735 O   0  0  0  0  0  0  0  0  0  0  0  0
   21.2925  -22.6378  -12.0812 O   0  0  0  0  0  0  0  0  0  0  0  0
  2  1  1  0
  3  2  1  0
  3  4  1  6
  5  6  2  0
  5  3  1  0
  7  5  1  0
  8  7  1  0
  8  9  1  1
 10 18  1  0
 10  9  1  0
 11 10  2  0
 12 11  1  0
 12 13  1  0
 13 18  2  0
 14 13  1  0
 14 15  2  0
 15 16  1  0
 16 17  2  0
 18 17  1  0
 19 21  1  0
 19  8  1  0
 20 19  2  0
 22 21  1  0
 22 33  1  0
 22 23  1  6
 24 32  1  0
 24 23  1  0
 25 24  2  0
 26 25  1  0
 26 27  1  0
 27 32  2  0
 28 27  1  0
 28 29  2  0
 29 30  1  0
 30 31  2  0
 32 31  1  0
 33 35  1  0
 34 33  2  0
M  END
$$$$
