SWW.pdb
     RDKit          3D

 35 38  0  0  1  0  0  0  0  0999 V2000
   30.0313  -21.6431  -15.6700 O   0  0  0  0  0  0  0  0  0  0  0  0
   29.0487  -21.1586  -16.5029 C   0  0  0  0  0  0  0  0  0  0  0  0
   28.7105  -19.7120  -16.2076 C   0  0  2  0  0  0  0  0  0  0  0  0
   29.8701  -18.8872  -16.0805 N   0  0  0  0  0  0  0  0  0  0  0  0
   27.8348  -19.5956  -15.0114 C   0  0  0  0  0  0  0  0  0  0  0  0
   28.2141  -18.9119  -14.0116 O   0  0  0  0  0  0  0  0  0  0  0  0
   26.5721  -20.2350  -14.9551 N   0  0  0  0  0  0  0  0  0  0  0  0
   25.6673  -20.0494  -13.8678 C   0  0  1  0  0  0  0  0  0  0  0  0
   24.2641  -20.4575  -14.2776 C   0  0  0  0  0  0  0  0  0  0  0  0
   23.2539  -20.1390  -13.2692 C   0  0  0  0  0  0  0  0  0  0  0  0
   22.9403  -18.8452  -12.8526 C   0  0  0  0  0  0  0  0  0  0  0  0
   21.9819  -18.9444  -11.9315 N   0  0  0  0  0  0  0  0  0  0  0  0
   21.6515  -20.2218  -11.7218 C   0  0  0  0  0  0  0  0  0  0  0  0
   20.7331  -20.8457  -10.8863 C   0  0  0  0  0  0  0  0  0  0  0  0
   20.6262  -22.2228  -10.9037 C   0  0  0  0  0  0  0  0  0  0  0  0
   21.4137  -23.0022  -11.7354 C   0  0  0  0  0  0  0  0  0  0  0  0
   22.3140  -22.3681  -12.5524 C   0  0  0  0  0  0  0  0  0  0  0  0
   22.4406  -20.9868  -12.5538 C   0  0  0  0  0  0  0  0  0  0  0  0
   26.0108  -20.8994  -12.6901 C   0  0  0  0  0  0  0  0  0  0  0  0
   26.4695  -22.0385  -12.9431 O   0  0  0  0  0  0  0  0  0  0  0  0
   25.8417  -20.4767  -11.3624 N   0  0  0  0  0  0  0  0  0  0  0  0
   26.0704  -21.3680  -10.2497 C   0  0  1  0  0  0  0  0  0  0  0  0
   27.4514  -21.2098   -9.7054 C   0  0  0  0  0  0  0  0  0  0  0  0
   27.5236  -20.1835   -8.6313 C   0  0  0  0  0  0  0  0  0  0  0  0
   26.8556  -18.9791   -8.5669 C   0  0  0  0  0  0  0  0  0  0  0  0
   27.1950  -18.3532   -7.4409 N   0  0  0  0  0  0  0  0  0  0  0  0
   28.0801  -19.0949   -6.7268 C   0  0  0  0  0  0  0  0  0  0  0  0
   28.7207  -18.8954   -5.5205 C   0  0  0  0  0  0  0  0  0  0  0  0
   29.5857  -19.8567   -5.0430 C   0  0  0  0  0  0  0  0  0  0  0  0
   29.7929  -21.0112   -5.7938 C   0  0  0  0  0  0  0  0  0  0  0  0
   29.1443  -21.2000   -7.0036 C   0  0  0  0  0  0  0  0  0  0  0  0
   28.2860  -20.2396   -7.4707 C   0  0  0  0  0  0  0  0  0  0  0  0
   25.0215  -21.0958   -9.2203 C   0  0  0  0  0  0  0  0  0  0  0  0
   24.3389  -20.0666   -9.2476 O   0  0  0  0  0  0  0  0  0  0  0  0
   24.7734  -21.9990   -8.1844 O   0  0  0  0  0  0  0  0  0  0  0  0
  2  1  1  0
  3  2  1  0
  3  4  1  1
  5  6  2  0
  5  3  1  0
  7  5  1  0
  8  7  1  0
  8  9  1  6
 10 18  1  0
 10  9  1  0
 11 10  2  0
 12 11  1  0
 12 13  1  0
 13 18  2  0
 14 13  1  0
 14 15  2  0
 15 16  1  0
 16 17  2  0
 18 17  1  0
 19 21  1  0
 19  8  1  0
 20 19  2  0
 22 21  1  0
 22 33  1  0
 22 23  1  1
 24 32  1  0
 24 23  1  0
 25 24  2  0
 26 25  1  0
 26 27  1  0
 27 32  2  0
 28 27  1  0
 28 29  2  0
 29 30  1  0
 30 31  2  0
 32 31  1  0
 33 35  1  0
 34 33  2  0
M  END
$$$$
