SWW.pdb
     RDKit          3D

 35 38  0  0  1  0  0  0  0  0999 V2000
   27.8483  -25.7645  -16.8432 O   0  0  0  0  0  0  0  0  0  0  0  0
   28.1340  -24.8229  -17.8052 C   0  0  0  0  0  0  0  0  0  0  0  0
   29.3106  -23.9502  -17.4201 C   0  0  2  0  0  0  0  0  0  0  0  0
   30.4565  -24.7077  -17.0273 N   0  0  0  0  0  0  0  0  0  0  0  0
   28.9324  -22.9658  -16.3718 C   0  0  0  0  0  0  0  0  0  0  0  0
   29.5282  -22.9719  -15.2512 O   0  0  0  0  0  0  0  0  0  0  0  0
   27.9118  -22.0082  -16.5912 N   0  0  0  0  0  0  0  0  0  0  0  0
   27.6020  -20.9881  -15.6432 C   0  0  1  0  0  0  0  0  0  0  0  0
   27.3296  -19.6757  -16.3551 C   0  0  0  0  0  0  0  0  0  0  0  0
   27.0137  -18.5791  -15.4407 C   0  0  0  0  0  0  0  0  0  0  0  0
   27.8413  -18.1622  -14.3981 C   0  0  0  0  0  0  0  0  0  0  0  0
   27.2312  -17.1475  -13.7860 N   0  0  0  0  0  0  0  0  0  0  0  0
   26.0575  -16.8771  -14.3644 C   0  0  0  0  0  0  0  0  0  0  0  0
   25.0638  -15.9386  -14.1148 C   0  0  0  0  0  0  0  0  0  0  0  0
   23.9383  -15.9127  -14.9153 C   0  0  0  0  0  0  0  0  0  0  0  0
   23.7729  -16.8016  -15.9650 C   0  0  0  0  0  0  0  0  0  0  0  0
   24.7645  -17.7202  -16.1954 C   0  0  0  0  0  0  0  0  0  0  0  0
   25.9042  -17.7667  -15.4062 C   0  0  0  0  0  0  0  0  0  0  0  0
   26.3663  -21.2922  -14.8633 C   0  0  0  0  0  0  0  0  0  0  0  0
   25.4011  -21.7591  -15.5132 O   0  0  0  0  0  0  0  0  0  0  0  0
   26.2593  -21.0791  -13.4801 N   0  0  0  0  0  0  0  0  0  0  0  0
   25.0840  -21.4777  -12.7421 C   0  0  1  0  0  0  0  0  0  0  0  0
   25.4395  -21.9377  -11.3671 C   0  0  0  0  0  0  0  0  0  0  0  0
   26.1663  -20.8975  -10.5912 C   0  0  0  0  0  0  0  0  0  0  0  0
   25.6287  -19.8773   -9.8353 C   0  0  0  0  0  0  0  0  0  0  0  0
   26.6188  -19.1642   -9.3006 N   0  0  0  0  0  0  0  0  0  0  0  0
   27.8257  -19.6659   -9.6684 C   0  0  0  0  0  0  0  0  0  0  0  0
   29.1258  -19.2966   -9.3879 C   0  0  0  0  0  0  0  0  0  0  0  0
   30.1689  -20.0223   -9.9223 C   0  0  0  0  0  0  0  0  0  0  0  0
   29.8835  -21.1156  -10.7363 C   0  0  0  0  0  0  0  0  0  0  0  0
   28.5742  -21.4764  -11.0110 C   0  0  0  0  0  0  0  0  0  0  0  0
   27.5433  -20.7499  -10.4755 C   0  0  0  0  0  0  0  0  0  0  0  0
   24.1381  -20.3206  -12.7251 C   0  0  0  0  0  0  0  0  0  0  0  0
   24.5175  -19.1704  -12.9683 O   0  0  0  0  0  0  0  0  0  0  0  0
   22.7842  -20.4976  -12.4319 O   0  0  0  0  0  0  0  0  0  0  0  0
  2  1  1  0
  3  2  1  0
  3  4  1  1
  5  6  2  0
  5  3  1  0
  7  5  1  0
  8  7  1  0
  8  9  1  6
 10 18  1  0
 10  9  1  0
 11 10  2  0
 12 11  1  0
 12 13  1  0
 13 18  2  0
 14 13  1  0
 14 15  2  0
 15 16  1  0
 16 17  2  0
 18 17  1  0
 19 21  1  0
 19  8  1  0
 20 19  2  0
 22 21  1  0
 22 33  1  0
 22 23  1  1
 24 32  1  0
 24 23  1  0
 25 24  2  0
 26 25  1  0
 26 27  1  0
 27 32  2  0
 28 27  1  0
 28 29  2  0
 29 30  1  0
 30 31  2  0
 32 31  1  0
 33 35  1  0
 34 33  2  0
M  END
$$$$
