HWH.pdb
     RDKit          3D

 35 38  0  0  1  0  0  0  0  0999 V2000
   31.3035  -31.0615  -17.9316 N   0  0  0  0  0  0  0  0  0  0  0  0
   32.0505  -31.7044  -16.8635 C   0  0  1  0  0  0  0  0  0  0  0  0
   31.6554  -33.1747  -16.9103 C   0  0  0  0  0  0  0  0  0  0  0  0
   30.2765  -33.2952  -16.3968 C   0  0  0  0  0  0  0  0  0  0  0  0
   29.8970  -32.9096  -15.1166 C   0  0  0  0  0  0  0  0  0  0  0  0
   28.5696  -33.1802  -15.0419 N   0  0  0  0  0  0  0  0  0  0  0  0
   28.1207  -33.6982  -16.1765 C   0  0  0  0  0  0  0  0  0  0  0  0
   29.1789  -33.7659  -17.0068 N   0  0  0  0  0  0  0  0  0  0  0  0
   33.5083  -31.6550  -17.1392 C   0  0  0  0  0  0  0  0  0  0  0  0
   33.8723  -31.5938  -18.3379 O   0  0  0  0  0  0  0  0  0  0  0  0
   34.4924  -31.6731  -16.1410 N   0  0  0  0  0  0  0  0  0  0  0  0
   35.9289  -31.4346  -16.3958 C   0  0  1  0  0  0  0  0  0  0  0  0
   36.5364  -30.7640  -15.2117 C   0  0  0  0  0  0  0  0  0  0  0  0
   37.9032  -30.2938  -15.4375 C   0  0  0  0  0  0  0  0  0  0  0  0
   38.3076  -29.0988  -15.9902 C   0  0  0  0  0  0  0  0  0  0  0  0
   39.6437  -29.0398  -16.0592 N   0  0  0  0  0  0  0  0  0  0  0  0
   40.1691  -30.1688  -15.5658 C   0  0  0  0  0  0  0  0  0  0  0  0
   41.4721  -30.5542  -15.4334 C   0  0  0  0  0  0  0  0  0  0  0  0
   41.7490  -31.7821  -14.8881 C   0  0  0  0  0  0  0  0  0  0  0  0
   40.6896  -32.5875  -14.4907 C   0  0  0  0  0  0  0  0  0  0  0  0
   39.3890  -32.1774  -14.6340 C   0  0  0  0  0  0  0  0  0  0  0  0
   39.0857  -30.9658  -15.1713 C   0  0  0  0  0  0  0  0  0  0  0  0
   36.5588  -32.7036  -16.8201 C   0  0  0  0  0  0  0  0  0  0  0  0
   36.2331  -33.7778  -16.1719 O   0  0  0  0  0  0  0  0  0  0  0  0
   37.4797  -32.8676  -17.8702 N   0  0  0  0  0  0  0  0  0  0  0  0
   38.0164  -34.1645  -18.2598 C   0  0  1  0  0  0  0  0  0  0  0  0
   37.9469  -34.3494  -19.7571 C   0  0  0  0  0  0  0  0  0  0  0  0
   36.5627  -34.6791  -20.1431 C   0  0  0  0  0  0  0  0  0  0  0  0
   35.7881  -35.7087  -19.5952 C   0  0  0  0  0  0  0  0  0  0  0  0
   34.5868  -35.7047  -20.1960 N   0  0  0  0  0  0  0  0  0  0  0  0
   34.5714  -34.7264  -21.0901 C   0  0  0  0  0  0  0  0  0  0  0  0
   35.7575  -34.1118  -21.0572 N   0  0  0  0  0  0  0  0  0  0  0  0
   39.4030  -34.3037  -17.8134 C   0  0  0  0  0  0  0  0  0  0  0  0
   40.1792  -33.3030  -17.9196 O   0  0  0  0  0  0  0  0  0  0  0  0
   39.9278  -35.4771  -17.2717 O   0  0  0  0  0  0  0  0  0  0  0  0
  2  1  1  6
  3  2  1  0
  3  4  1  0
  4  5  2  0
  5  6  1  0
  7  6  1  0
  8  4  1  0
  8  7  2  0
  9 10  2  0
  9  2  1  0
 11  9  1  0
 12 23  1  0
 12 11  1  0
 12 13  1  1
 14 13  1  0
 15 14  2  0
 16 15  1  0
 17 16  1  0
 17 22  2  0
 18 19  2  0
 18 17  1  0
 19 20  1  0
 20 21  2  0
 22 21  1  0
 22 14  1  0
 23 25  1  0
 24 23  2  0
 25 26  1  0
 26 27  1  6
 27 28  1  0
 28 29  2  0
 28 32  1  0
 29 30  1  0
 30 31  1  0
 32 31  2  0
 33 35  1  0
 33 26  1  0
 34 33  2  0
M  END
$$$$
