HWH.pdb
     RDKit          3D

 35 38  0  0  1  0  0  0  0  0999 V2000
   24.9326  -39.1943  -13.8439 N   0  0  0  0  0  0  0  0  0  0  0  0
   23.7908  -38.2959  -13.8091 C   0  0  1  0  0  0  0  0  0  0  0  0
   22.5858  -39.1715  -13.4908 C   0  0  0  0  0  0  0  0  0  0  0  0
   21.6572  -39.1071  -14.6368 C   0  0  0  0  0  0  0  0  0  0  0  0
   21.7472  -39.9394  -15.7463 C   0  0  0  0  0  0  0  0  0  0  0  0
   20.7261  -39.5640  -16.5569 N   0  0  0  0  0  0  0  0  0  0  0  0
   20.0289  -38.5713  -16.0224 C   0  0  0  0  0  0  0  0  0  0  0  0
   20.6090  -38.2954  -14.8388 N   0  0  0  0  0  0  0  0  0  0  0  0
   23.9148  -37.3327  -12.6863 C   0  0  0  0  0  0  0  0  0  0  0  0
   24.6211  -37.6693  -11.7060 O   0  0  0  0  0  0  0  0  0  0  0  0
   23.2905  -36.0778  -12.6619 N   0  0  0  0  0  0  0  0  0  0  0  0
   23.4311  -35.1090  -11.5542 C   0  0  1  0  0  0  0  0  0  0  0  0
   23.5621  -33.7340  -12.1136 C   0  0  0  0  0  0  0  0  0  0  0  0
   23.8362  -32.7108  -11.1045 C   0  0  0  0  0  0  0  0  0  0  0  0
   24.8796  -32.6645  -10.2067 C   0  0  0  0  0  0  0  0  0  0  0  0
   24.7774  -31.5850   -9.4208 N   0  0  0  0  0  0  0  0  0  0  0  0
   23.6857  -30.8860   -9.7578 C   0  0  0  0  0  0  0  0  0  0  0  0
   23.1816  -29.7279   -9.2393 C   0  0  0  0  0  0  0  0  0  0  0  0
   22.0285  -29.2092   -9.7712 C   0  0  0  0  0  0  0  0  0  0  0  0
   21.4171  -29.8845  -10.8196 C   0  0  0  0  0  0  0  0  0  0  0  0
   21.9434  -31.0463  -11.3231 C   0  0  0  0  0  0  0  0  0  0  0  0
   23.0848  -31.5829  -10.8151 C   0  0  0  0  0  0  0  0  0  0  0  0
   22.3290  -35.3179  -10.5904 C   0  0  0  0  0  0  0  0  0  0  0  0
   21.1169  -35.2096  -11.0369 O   0  0  0  0  0  0  0  0  0  0  0  0
   22.4621  -35.6319   -9.2261 N   0  0  0  0  0  0  0  0  0  0  0  0
   21.8127  -34.8686   -8.1691 C   0  0  1  0  0  0  0  0  0  0  0  0
   22.5824  -33.6052   -7.8650 C   0  0  0  0  0  0  0  0  0  0  0  0
   23.6339  -33.9022   -6.8750 C   0  0  0  0  0  0  0  0  0  0  0  0
   23.8771  -35.1538   -6.2965 C   0  0  0  0  0  0  0  0  0  0  0  0
   24.9079  -35.0363   -5.4434 N   0  0  0  0  0  0  0  0  0  0  0  0
   25.3204  -33.7768   -5.4594 C   0  0  0  0  0  0  0  0  0  0  0  0
   24.5552  -33.0975   -6.3187 N   0  0  0  0  0  0  0  0  0  0  0  0
   20.4413  -34.5268   -8.5481 C   0  0  0  0  0  0  0  0  0  0  0  0
   19.4988  -34.8162   -7.7461 O   0  0  0  0  0  0  0  0  0  0  0  0
   20.1034  -33.8952   -9.7450 O   0  0  0  0  0  0  0  0  0  0  0  0
  2  1  1  1
  3  2  1  0
  3  4  1  0
  4  5  2  0
  5  6  1  0
  7  6  1  0
  8  4  1  0
  8  7  2  0
  9 10  2  0
  9  2  1  0
 11  9  1  0
 12 23  1  0
 12 11  1  0
 12 13  1  6
 14 13  1  0
 15 14  2  0
 16 15  1  0
 17 16  1  0
 17 22  2  0
 18 19  2  0
 18 17  1  0
 19 20  1  0
 20 21  2  0
 22 21  1  0
 22 14  1  0
 23 25  1  0
 24 23  2  0
 25 26  1  0
 26 27  1  6
 27 28  1  0
 28 29  2  0
 28 32  1  0
 29 30  1  0
 30 31  1  0
 32 31  2  0
 33 35  1  0
 33 26  1  0
 34 33  2  0
M  END
$$$$
