HWH.pdb
     RDKit          3D

 35 38  0  0  1  0  0  0  0  0999 V2000
   32.6175  -31.3195  -18.4875 N   0  0  0  0  0  0  0  0  0  0  0  0
   32.3957  -30.3469  -17.4307 C   0  0  1  0  0  0  0  0  0  0  0  0
   32.9082  -29.0203  -17.9761 C   0  0  0  0  0  0  0  0  0  0  0  0
   34.3839  -29.0527  -17.9481 C   0  0  0  0  0  0  0  0  0  0  0  0
   35.1203  -30.1519  -17.5222 C   0  0  0  0  0  0  0  0  0  0  0  0
   36.4192  -29.7812  -17.6491 N   0  0  0  0  0  0  0  0  0  0  0  0
   36.5222  -28.5456  -18.1179 C   0  0  0  0  0  0  0  0  0  0  0  0
   35.2633  -28.1033  -18.2997 N   0  0  0  0  0  0  0  0  0  0  0  0
   30.9436  -30.1631  -17.1827 C   0  0  0  0  0  0  0  0  0  0  0  0
   30.6050  -29.4011  -16.2459 O   0  0  0  0  0  0  0  0  0  0  0  0
   29.9384  -30.7899  -17.9322 N   0  0  0  0  0  0  0  0  0  0  0  0
   28.4922  -30.5849  -17.7050 C   0  0  1  0  0  0  0  0  0  0  0  0
   27.9624  -29.6316  -18.7206 C   0  0  0  0  0  0  0  0  0  0  0  0
   28.2802  -28.2320  -18.4374 C   0  0  0  0  0  0  0  0  0  0  0  0
   29.3582  -27.5007  -18.8848 C   0  0  0  0  0  0  0  0  0  0  0  0
   29.3226  -26.2573  -18.3887 N   0  0  0  0  0  0  0  0  0  0  0  0
   28.2429  -26.1157  -17.6088 C   0  0  0  0  0  0  0  0  0  0  0  0
   27.7988  -25.0367  -16.8999 C   0  0  0  0  0  0  0  0  0  0  0  0
   26.6450  -25.1530  -16.1673 C   0  0  0  0  0  0  0  0  0  0  0  0
   25.9715  -26.3677  -16.1755 C   0  0  0  0  0  0  0  0  0  0  0  0
   26.4380  -27.4370  -16.8961 C   0  0  0  0  0  0  0  0  0  0  0  0
   27.5788  -27.3499  -17.6308 C   0  0  0  0  0  0  0  0  0  0  0  0
   27.8247  -31.9029  -17.6381 C   0  0  0  0  0  0  0  0  0  0  0  0
   28.2271  -32.8184  -18.4627 O   0  0  0  0  0  0  0  0  0  0  0  0
   26.7918  -32.2712  -16.7577 N   0  0  0  0  0  0  0  0  0  0  0  0
   26.2159  -33.6087  -16.7252 C   0  0  1  0  0  0  0  0  0  0  0  0
   26.8528  -34.4442  -15.6402 C   0  0  0  0  0  0  0  0  0  0  0  0
   26.4114  -33.9500  -14.3231 C   0  0  0  0  0  0  0  0  0  0  0  0
   26.0278  -32.6349  -14.0338 C   0  0  0  0  0  0  0  0  0  0  0  0
   25.6939  -32.5640  -12.7347 N   0  0  0  0  0  0  0  0  0  0  0  0
   25.8492  -33.7660  -12.1984 C   0  0  0  0  0  0  0  0  0  0  0  0
   26.2796  -34.5967  -13.1525 N   0  0  0  0  0  0  0  0  0  0  0  0
   24.7705  -33.5424  -16.5068 C   0  0  0  0  0  0  0  0  0  0  0  0
   24.2228  -32.4000  -16.4050 O   0  0  0  0  0  0  0  0  0  0  0  0
   23.9505  -34.6662  -16.4051 O   0  0  0  0  0  0  0  0  0  0  0  0
  2  1  1  6
  3  2  1  0
  3  4  1  0
  4  5  2  0
  5  6  1  0
  7  6  1  0
  8  4  1  0
  8  7  2  0
  9 10  2  0
  9  2  1  0
 11  9  1  0
 12 23  1  0
 12 11  1  0
 12 13  1  6
 14 13  1  0
 15 14  2  0
 16 15  1  0
 17 16  1  0
 17 22  2  0
 18 19  2  0
 18 17  1  0
 19 20  1  0
 20 21  2  0
 22 21  1  0
 22 14  1  0
 23 25  1  0
 24 23  2  0
 25 26  1  0
 26 27  1  1
 27 28  1  0
 28 29  2  0
 28 32  1  0
 29 30  1  0
 30 31  1  0
 32 31  2  0
 33 35  1  0
 33 26  1  0
 34 33  2  0
M  END
$$$$
