HWH.pdb
     RDKit          3D

 35 38  0  0  1  0  0  0  0  0999 V2000
   29.3641  -27.0715  -18.1824 N   0  0  0  0  0  0  0  0  0  0  0  0
   28.5570  -27.4831  -17.0460 C   0  0  1  0  0  0  0  0  0  0  0  0
   27.1658  -26.9180  -17.3013 C   0  0  0  0  0  0  0  0  0  0  0  0
   27.2155  -25.4595  -17.0774 C   0  0  0  0  0  0  0  0  0  0  0  0
   27.2653  -24.5257  -18.1057 C   0  0  0  0  0  0  0  0  0  0  0  0
   27.3002  -23.3179  -17.4886 N   0  0  0  0  0  0  0  0  0  0  0  0
   27.2753  -23.4517  -16.1700 C   0  0  0  0  0  0  0  0  0  0  0  0
   27.2231  -24.7748  -15.9244 N   0  0  0  0  0  0  0  0  0  0  0  0
   28.4083  -28.9598  -17.0152 C   0  0  0  0  0  0  0  0  0  0  0  0
   28.3723  -29.5643  -18.1135 O   0  0  0  0  0  0  0  0  0  0  0  0
   28.3066  -29.7096  -15.8350 N   0  0  0  0  0  0  0  0  0  0  0  0
   28.0733  -31.1689  -15.8036 C   0  0  1  0  0  0  0  0  0  0  0  0
   28.4376  -31.6990  -14.4592 C   0  0  0  0  0  0  0  0  0  0  0  0
   28.2272  -33.1397  -14.3169 C   0  0  0  0  0  0  0  0  0  0  0  0
   28.8989  -34.1608  -14.9520 C   0  0  0  0  0  0  0  0  0  0  0  0
   28.4036  -35.3499  -14.5860 N   0  0  0  0  0  0  0  0  0  0  0  0
   27.4046  -35.1704  -13.7119 C   0  0  0  0  0  0  0  0  0  0  0  0
   26.6122  -36.0814  -13.0747 C   0  0  0  0  0  0  0  0  0  0  0  0
   25.6439  -35.6316  -12.2136 C   0  0  0  0  0  0  0  0  0  0  0  0
   25.5071  -34.2626  -12.0232 C   0  0  0  0  0  0  0  0  0  0  0  0
   26.3158  -33.3674  -12.6751 C   0  0  0  0  0  0  0  0  0  0  0  0
   27.2834  -33.7854  -13.5340 C   0  0  0  0  0  0  0  0  0  0  0  0
   26.6943  -31.4451  -16.2609 C   0  0  0  0  0  0  0  0  0  0  0  0
   25.8252  -30.4903  -16.1471 O   0  0  0  0  0  0  0  0  0  0  0  0
   26.2256  -32.6479  -16.8189 N   0  0  0  0  0  0  0  0  0  0  0  0
   25.1172  -32.7062  -17.7621 C   0  0  1  0  0  0  0  0  0  0  0  0
   25.1909  -31.5682  -18.7524 C   0  0  0  0  0  0  0  0  0  0  0  0
   23.9885  -31.5867  -19.6054 C   0  0  0  0  0  0  0  0  0  0  0  0
   22.7631  -30.9831  -19.2982 C   0  0  0  0  0  0  0  0  0  0  0  0
   21.9090  -31.2133  -20.3090 N   0  0  0  0  0  0  0  0  0  0  0  0
   22.5375  -31.9290  -21.2307 C   0  0  0  0  0  0  0  0  0  0  0  0
   23.7850  -32.1523  -20.8073 N   0  0  0  0  0  0  0  0  0  0  0  0
   25.1184  -33.9810  -18.4807 C   0  0  0  0  0  0  0  0  0  0  0  0
   26.2130  -34.4015  -18.9708 O   0  0  0  0  0  0  0  0  0  0  0  0
   23.9821  -34.7700  -18.6595 O   0  0  0  0  0  0  0  0  0  0  0  0
  2  1  1  6
  3  2  1  0
  3  4  1  0
  4  5  2  0
  5  6  1  0
  7  6  1  0
  8  4  1  0
  8  7  2  0
  9 10  2  0
  9  2  1  0
 11  9  1  0
 12 23  1  0
 12 11  1  0
 12 13  1  1
 14 13  1  0
 15 14  2  0
 16 15  1  0
 17 16  1  0
 17 22  2  0
 18 19  2  0
 18 17  1  0
 19 20  1  0
 20 21  2  0
 22 21  1  0
 22 14  1  0
 23 25  1  0
 24 23  2  0
 25 26  1  0
 26 27  1  6
 27 28  1  0
 28 29  2  0
 28 32  1  0
 29 30  1  0
 30 31  1  0
 32 31  2  0
 33 35  1  0
 33 26  1  0
 34 33  2  0
M  END
$$$$
