HWH.pdb
     RDKit          3D

 35 38  0  0  1  0  0  0  0  0999 V2000
   22.7910  -13.8602  -17.7230 N   0  0  0  0  0  0  0  0  0  0  0  0
   22.4030  -12.4937  -18.0299 C   0  0  1  0  0  0  0  0  0  0  0  0
   20.8899  -12.4462  -17.8615 C   0  0  0  0  0  0  0  0  0  0  0  0
   20.2799  -13.1703  -18.9944 C   0  0  0  0  0  0  0  0  0  0  0  0
   19.7999  -12.5432  -20.1381 C   0  0  0  0  0  0  0  0  0  0  0  0
   19.3275  -13.5447  -20.9219 N   0  0  0  0  0  0  0  0  0  0  0  0
   19.4855  -14.7251  -20.3396 C   0  0  0  0  0  0  0  0  0  0  0  0
   20.0733  -14.4859  -19.1519 N   0  0  0  0  0  0  0  0  0  0  0  0
   22.9639  -11.5515  -17.0293 C   0  0  0  0  0  0  0  0  0  0  0  0
   23.0833  -11.9589  -15.8491 O   0  0  0  0  0  0  0  0  0  0  0  0
   23.3641  -10.2418  -17.3289 N   0  0  0  0  0  0  0  0  0  0  0  0
   24.0303   -9.3425  -16.3632 C   0  0  1  0  0  0  0  0  0  0  0  0
   25.3627   -8.9428  -16.8977 C   0  0  0  0  0  0  0  0  0  0  0  0
   26.2463  -10.0732  -17.1836 C   0  0  0  0  0  0  0  0  0  0  0  0
   26.6064  -10.5770  -18.4138 C   0  0  0  0  0  0  0  0  0  0  0  0
   27.4107  -11.6383  -18.2713 N   0  0  0  0  0  0  0  0  0  0  0  0
   27.6128  -11.8768  -16.9689 C   0  0  0  0  0  0  0  0  0  0  0  0
   28.3529  -12.8433  -16.3509 C   0  0  0  0  0  0  0  0  0  0  0  0
   28.3963  -12.8713  -14.9801 C   0  0  0  0  0  0  0  0  0  0  0  0
   27.6833  -11.9121  -14.2725 C   0  0  0  0  0  0  0  0  0  0  0  0
   26.9472  -10.9512  -14.9166 C   0  0  0  0  0  0  0  0  0  0  0  0
   26.8864  -10.9000  -16.2740 C   0  0  0  0  0  0  0  0  0  0  0  0
   23.1082   -8.2384  -16.0198 C   0  0  0  0  0  0  0  0  0  0  0  0
   23.5669   -7.2910  -15.2634 O   0  0  0  0  0  0  0  0  0  0  0  0
   21.7726   -8.1058  -16.4395 N   0  0  0  0  0  0  0  0  0  0  0  0
   20.9014   -7.0300  -15.9864 C   0  0  1  0  0  0  0  0  0  0  0  0
   20.2589   -6.3262  -17.1581 C   0  0  0  0  0  0  0  0  0  0  0  0
   21.2692   -5.4988  -17.8425 C   0  0  0  0  0  0  0  0  0  0  0  0
   22.0270   -4.4823  -17.2485 C   0  0  0  0  0  0  0  0  0  0  0  0
   22.8362   -3.9532  -18.1810 N   0  0  0  0  0  0  0  0  0  0  0  0
   22.6229   -4.5866  -19.3256 C   0  0  0  0  0  0  0  0  0  0  0  0
   21.6826   -5.5136  -19.1211 N   0  0  0  0  0  0  0  0  0  0  0  0
   19.8616   -7.5487  -15.0970 C   0  0  0  0  0  0  0  0  0  0  0  0
   19.4774   -8.7509  -15.2472 O   0  0  0  0  0  0  0  0  0  0  0  0
   19.2635   -6.7983  -14.0847 O   0  0  0  0  0  0  0  0  0  0  0  0
  2  1  1  1
  3  2  1  0
  3  4  1  0
  4  5  2  0
  5  6  1  0
  7  6  1  0
  8  4  1  0
  8  7  2  0
  9 10  2  0
  9  2  1  0
 11  9  1  0
 12 23  1  0
 12 11  1  0
 12 13  1  6
 14 13  1  0
 15 14  2  0
 16 15  1  0
 17 16  1  0
 17 22  2  0
 18 19  2  0
 18 17  1  0
 19 20  1  0
 20 21  2  0
 22 21  1  0
 22 14  1  0
 23 25  1  0
 24 23  2  0
 25 26  1  0
 26 27  1  6
 27 28  1  0
 28 29  2  0
 28 32  1  0
 29 30  1  0
 30 31  1  0
 32 31  2  0
 33 35  1  0
 33 26  1  0
 34 33  2  0
M  END
$$$$
