CGW.pdb
     RDKit          3D

 25 26  0  0  1  0  0  0  0  0999 V2000
   26.3247  -19.7986  -16.4577 N   0  0  0  0  0  0  0  0  0  0  0  0
   26.4745  -21.1912  -16.1629 C   0  0  1  0  0  0  0  0  0  0  0  0
   27.2317  -21.9284  -17.2575 C   0  0  0  0  0  0  0  0  0  0  0  0
   26.1471  -22.0391  -18.7138 S   0  0  0  0  0  0  0  0  0  0  0  0
   27.0993  -21.3870  -14.8349 C   0  0  0  0  0  0  0  0  0  0  0  0
   27.3442  -22.5371  -14.3674 O   0  0  0  0  0  0  0  0  0  0  0  0
   27.4405  -20.2512  -14.0446 N   0  0  0  0  0  0  0  0  0  0  0  0
   27.9127  -20.4678  -12.7016 C   0  0  0  0  0  0  0  0  0  0  0  0
   26.8319  -20.8472  -11.7486 C   0  0  0  0  0  0  0  0  0  0  0  0
   25.6826  -21.0965  -12.2128 O   0  0  0  0  0  0  0  0  0  0  0  0
   27.0144  -20.9404  -10.3605 N   0  0  0  0  0  0  0  0  0  0  0  0
   25.9278  -21.3661   -9.4787 C   0  0  1  0  0  0  0  0  0  0  0  0
   26.4139  -21.6317   -8.1098 C   0  0  0  0  0  0  0  0  0  0  0  0
   26.9285  -20.4351   -7.4374 C   0  0  0  0  0  0  0  0  0  0  0  0
   26.7620  -19.1109   -7.8534 C   0  0  0  0  0  0  0  0  0  0  0  0
   27.4023  -18.2763   -7.0147 N   0  0  0  0  0  0  0  0  0  0  0  0
   27.9888  -18.9867   -6.0559 C   0  0  0  0  0  0  0  0  0  0  0  0
   28.7346  -18.5574   -4.9723 C   0  0  0  0  0  0  0  0  0  0  0  0
   29.2273  -19.4916   -4.0822 C   0  0  0  0  0  0  0  0  0  0  0  0
   28.9557  -20.8245   -4.3089 C   0  0  0  0  0  0  0  0  0  0  0  0
   28.2113  -21.2324   -5.3947 C   0  0  0  0  0  0  0  0  0  0  0  0
   27.7046  -20.3185   -6.3046 C   0  0  0  0  0  0  0  0  0  0  0  0
   24.8168  -20.4150   -9.5326 C   0  0  0  0  0  0  0  0  0  0  0  0
   23.7030  -20.7129   -9.0474 O   0  0  0  0  0  0  0  0  0  0  0  0
   25.0229  -19.1541  -10.1440 O   0  0  0  0  0  0  0  0  0  0  0  0
  2  1  1  6
  3  2  1  0
  4  3  1  0
  5  2  1  0
  5  6  2  0
  7  5  1  0
  8  7  1  0
  8  9  1  0
  9 10  2  0
 11  9  1  0
 11 12  1  0
 12 13  1  1
 13 14  1  0
 14 15  2  0
 14 22  1  0
 15 16  1  0
 16 17  1  0
 17 18  2  0
 19 18  1  0
 20 19  2  0
 21 22  2  0
 21 20  1  0
 22 17  1  0
 23 25  1  0
 23 12  1  0
 24 23  2  0
M  END
$$$$
