CGW.pdb
     RDKit          3D

 25 26  0  0  1  0  0  0  0  0999 V2000
   24.0249  -18.6645  -13.3436 N   0  0  0  0  0  0  0  0  0  0  0  0
   24.0120  -20.0675  -13.6265 C   0  0  1  0  0  0  0  0  0  0  0  0
   23.1655  -20.3962  -14.8472 C   0  0  0  0  0  0  0  0  0  0  0  0
   21.4473  -20.6235  -14.2944 S   0  0  0  0  0  0  0  0  0  0  0  0
   25.3898  -20.5944  -13.7550 C   0  0  0  0  0  0  0  0  0  0  0  0
   26.0088  -20.6030  -14.8586 O   0  0  0  0  0  0  0  0  0  0  0  0
   26.0532  -21.1141  -12.6058 N   0  0  0  0  0  0  0  0  0  0  0  0
   27.4575  -20.8398  -12.4427 C   0  0  0  0  0  0  0  0  0  0  0  0
   28.0347  -21.4275  -11.2011 C   0  0  0  0  0  0  0  0  0  0  0  0
   29.2913  -21.4209  -11.0619 O   0  0  0  0  0  0  0  0  0  0  0  0
   27.2628  -21.9937  -10.1752 N   0  0  0  0  0  0  0  0  0  0  0  0
   27.0180  -21.2758   -8.9246 C   0  0  1  0  0  0  0  0  0  0  0  0
   28.0456  -20.2431   -8.6830 C   0  0  0  0  0  0  0  0  0  0  0  0
   27.9720  -19.6580   -7.3409 C   0  0  0  0  0  0  0  0  0  0  0  0
   27.1295  -18.6204   -6.9311 C   0  0  0  0  0  0  0  0  0  0  0  0
   27.3612  -18.3158   -5.6413 N   0  0  0  0  0  0  0  0  0  0  0  0
   28.3220  -19.1062   -5.1721 C   0  0  0  0  0  0  0  0  0  0  0  0
   28.8713  -19.1676   -3.9036 C   0  0  0  0  0  0  0  0  0  0  0  0
   29.8541  -20.1018   -3.6406 C   0  0  0  0  0  0  0  0  0  0  0  0
   30.2530  -20.9423   -4.6584 C   0  0  0  0  0  0  0  0  0  0  0  0
   29.6942  -20.8652   -5.9159 C   0  0  0  0  0  0  0  0  0  0  0  0
   28.7071  -19.9381   -6.2094 C   0  0  0  0  0  0  0  0  0  0  0  0
   25.6484  -20.7614   -8.8845 C   0  0  0  0  0  0  0  0  0  0  0  0
   25.1185  -20.2878   -9.9138 O   0  0  0  0  0  0  0  0  0  0  0  0
   24.9344  -20.8074   -7.6621 O   0  0  0  0  0  0  0  0  0  0  0  0
  2  1  1  6
  3  2  1  0
  4  3  1  0
  5  2  1  0
  5  6  2  0
  7  5  1  0
  8  7  1  0
  8  9  1  0
  9 10  2  0
 11  9  1  0
 11 12  1  0
 12 13  1  6
 13 14  1  0
 14 15  2  0
 14 22  1  0
 15 16  1  0
 16 17  1  0
 17 18  2  0
 19 18  1  0
 20 19  2  0
 21 22  2  0
 21 20  1  0
 22 17  1  0
 23 25  1  0
 23 12  1  0
 24 23  2  0
M  END
$$$$
