CGW.pdb
     RDKit          3D

 25 26  0  0  1  0  0  0  0  0999 V2000
   25.8233  -18.5264  -17.8044 N   0  0  0  0  0  0  0  0  0  0  0  0
   26.9837  -17.9390  -17.2070 C   0  0  1  0  0  0  0  0  0  0  0  0
   27.0264  -16.4310  -17.4043 C   0  0  0  0  0  0  0  0  0  0  0  0
   27.1705  -16.1017  -19.1876 S   0  0  0  0  0  0  0  0  0  0  0  0
   27.0883  -18.3095  -15.7773 C   0  0  0  0  0  0  0  0  0  0  0  0
   26.0838  -18.3207  -15.0079 O   0  0  0  0  0  0  0  0  0  0  0  0
   28.3569  -18.6664  -15.2350 N   0  0  0  0  0  0  0  0  0  0  0  0
   28.4383  -18.9823  -13.8324 C   0  0  0  0  0  0  0  0  0  0  0  0
   27.6551  -20.1915  -13.4521 C   0  0  0  0  0  0  0  0  0  0  0  0
   28.0244  -21.3127  -13.9050 O   0  0  0  0  0  0  0  0  0  0  0  0
   26.5251  -20.1584  -12.6210 N   0  0  0  0  0  0  0  0  0  0  0  0
   25.8046  -21.3819  -12.2698 C   0  0  1  0  0  0  0  0  0  0  0  0
   26.3986  -22.0400  -11.0888 C   0  0  0  0  0  0  0  0  0  0  0  0
   26.3702  -21.2027   -9.8858 C   0  0  0  0  0  0  0  0  0  0  0  0
   25.3147  -20.3893   -9.4635 C   0  0  0  0  0  0  0  0  0  0  0  0
   25.6538  -19.7356   -8.3375 N   0  0  0  0  0  0  0  0  0  0  0  0
   26.8904  -20.0783   -7.9896 C   0  0  0  0  0  0  0  0  0  0  0  0
   27.6424  -19.6765   -6.8998 C   0  0  0  0  0  0  0  0  0  0  0  0
   28.9114  -20.1948   -6.7302 C   0  0  0  0  0  0  0  0  0  0  0  0
   29.3835  -21.0979   -7.6593 C   0  0  0  0  0  0  0  0  0  0  0  0
   28.6194  -21.4852   -8.7389 C   0  0  0  0  0  0  0  0  0  0  0  0
   27.3434  -20.9820   -8.9354 C   0  0  0  0  0  0  0  0  0  0  0  0
   24.3717  -21.1162  -12.1348 C   0  0  0  0  0  0  0  0  0  0  0  0
   23.5565  -22.0615  -12.0539 O   0  0  0  0  0  0  0  0  0  0  0  0
   23.9240  -19.7729  -12.0990 O   0  0  0  0  0  0  0  0  0  0  0  0
  2  1  1  1
  3  2  1  0
  4  3  1  0
  5  2  1  0
  5  6  2  0
  7  5  1  0
  8  7  1  0
  8  9  1  0
  9 10  2  0
 11  9  1  0
 11 12  1  0
 12 13  1  1
 13 14  1  0
 14 15  2  0
 14 22  1  0
 15 16  1  0
 16 17  1  0
 17 18  2  0
 19 18  1  0
 20 19  2  0
 21 22  2  0
 21 20  1  0
 22 17  1  0
 23 25  1  0
 23 12  1  0
 24 23  2  0
M  END
$$$$
