CGW.pdb
     RDKit          3D

 25 26  0  0  1  0  0  0  0  0999 V2000
   22.0048   -7.3331  -23.6750 N   0  0  0  0  0  0  0  0  0  0  0  0
   21.9501   -8.4201  -22.7456 C   0  0  1  0  0  0  0  0  0  0  0  0
   22.7300   -9.6308  -23.2363 C   0  0  0  0  0  0  0  0  0  0  0  0
   21.7269  -10.4703  -24.5007 S   0  0  0  0  0  0  0  0  0  0  0  0
   22.3934   -7.9893  -21.4002 C   0  0  0  0  0  0  0  0  0  0  0  0
   22.8876   -6.8440  -21.1871 O   0  0  0  0  0  0  0  0  0  0  0  0
   22.2666   -8.8845  -20.2986 N   0  0  0  0  0  0  0  0  0  0  0  0
   22.7271   -8.4493  -19.0055 C   0  0  0  0  0  0  0  0  0  0  0  0
   22.5033   -9.4547  -17.9287 C   0  0  0  0  0  0  0  0  0  0  0  0
   21.8592  -10.5049  -18.2127 O   0  0  0  0  0  0  0  0  0  0  0  0
   22.9637   -9.3019  -16.6121 N   0  0  0  0  0  0  0  0  0  0  0  0
   22.5920  -10.2506  -15.5628 C   0  0  1  0  0  0  0  0  0  0  0  0
   23.2560   -9.9305  -14.2833 C   0  0  0  0  0  0  0  0  0  0  0  0
   22.7250   -8.7233  -13.6432 C   0  0  0  0  0  0  0  0  0  0  0  0
   21.8775   -8.6752  -12.5325 C   0  0  0  0  0  0  0  0  0  0  0  0
   21.5619   -7.3996  -12.2438 N   0  0  0  0  0  0  0  0  0  0  0  0
   22.1631   -6.5938  -13.1140 C   0  0  0  0  0  0  0  0  0  0  0  0
   22.1451   -5.2125  -13.1935 C   0  0  0  0  0  0  0  0  0  0  0  0
   22.8787   -4.5859  -14.1820 C   0  0  0  0  0  0  0  0  0  0  0  0
   23.6049   -5.3656  -15.0574 C   0  0  0  0  0  0  0  0  0  0  0  0
   23.6095   -6.7405  -14.9624 C   0  0  0  0  0  0  0  0  0  0  0  0
   22.8830   -7.3969  -13.9818 C   0  0  0  0  0  0  0  0  0  0  0  0
   21.1362  -10.3592  -15.4574 C   0  0  0  0  0  0  0  0  0  0  0  0
   20.4011   -9.4235  -15.8429 O   0  0  0  0  0  0  0  0  0  0  0  0
   20.5746  -11.5390  -14.9108 O   0  0  0  0  0  0  0  0  0  0  0  0
  2  1  1  6
  3  2  1  0
  4  3  1  0
  5  2  1  0
  5  6  2  0
  7  5  1  0
  8  7  1  0
  8  9  1  0
  9 10  2  0
 11  9  1  0
 11 12  1  0
 12 13  1  1
 13 14  1  0
 14 15  2  0
 14 22  1  0
 15 16  1  0
 16 17  1  0
 17 18  2  0
 19 18  1  0
 20 19  2  0
 21 22  2  0
 21 20  1  0
 22 17  1  0
 23 25  1  0
 23 12  1  0
 24 23  2  0
M  END
$$$$
