CGW.pdb
     RDKit          3D

 25 26  0  0  1  0  0  0  0  0999 V2000
   28.6872  -20.7293  -17.3912 N   0  0  0  0  0  0  0  0  0  0  0  0
   27.8962  -19.5374  -17.4371 C   0  0  1  0  0  0  0  0  0  0  0  0
   26.6657  -19.7021  -18.3166 C   0  0  0  0  0  0  0  0  0  0  0  0
   27.2024  -20.4011  -19.9081 S   0  0  0  0  0  0  0  0  0  0  0  0
   27.5401  -19.0854  -16.0728 C   0  0  0  0  0  0  0  0  0  0  0  0
   26.7858  -18.0905  -15.8669 O   0  0  0  0  0  0  0  0  0  0  0  0
   28.0579  -19.7840  -14.9437 N   0  0  0  0  0  0  0  0  0  0  0  0
   27.6959  -19.3239  -13.6281 C   0  0  0  0  0  0  0  0  0  0  0  0
   26.7573  -20.2385  -12.9191 C   0  0  0  0  0  0  0  0  0  0  0  0
   26.5828  -21.4000  -13.3870 O   0  0  0  0  0  0  0  0  0  0  0  0
   26.0497  -19.8836  -11.7606 N   0  0  0  0  0  0  0  0  0  0  0  0
   25.1648  -20.8356  -11.0898 C   0  0  1  0  0  0  0  0  0  0  0  0
   25.2948  -20.7535   -9.6211 C   0  0  0  0  0  0  0  0  0  0  0  0
   26.6836  -20.8344   -9.1588 C   0  0  0  0  0  0  0  0  0  0  0  0
   27.7416  -21.4729   -9.8122 C   0  0  0  0  0  0  0  0  0  0  0  0
   28.8654  -21.3786   -9.0785 N   0  0  0  0  0  0  0  0  0  0  0  0
   28.6030  -20.7038   -7.9633 C   0  0  0  0  0  0  0  0  0  0  0  0
   29.4502  -20.3482   -6.9287 C   0  0  0  0  0  0  0  0  0  0  0  0
   28.9497  -19.6136   -5.8715 C   0  0  0  0  0  0  0  0  0  0  0  0
   27.6166  -19.2610   -5.8873 C   0  0  0  0  0  0  0  0  0  0  0  0
   26.7883  -19.6254   -6.9268 C   0  0  0  0  0  0  0  0  0  0  0  0
   27.2619  -20.3626   -8.0004 C   0  0  0  0  0  0  0  0  0  0  0  0
   23.7892  -20.6856  -11.5664 C   0  0  0  0  0  0  0  0  0  0  0  0
   22.8737  -21.3955  -11.0946 O   0  0  0  0  0  0  0  0  0  0  0  0
   23.5124  -19.7257  -12.5705 O   0  0  0  0  0  0  0  0  0  0  0  0
  2  1  1  1
  3  2  1  0
  4  3  1  0
  5  2  1  0
  5  6  2  0
  7  5  1  0
  8  7  1  0
  8  9  1  0
  9 10  2  0
 11  9  1  0
 11 12  1  0
 12 13  1  1
 13 14  1  0
 14 15  2  0
 14 22  1  0
 15 16  1  0
 16 17  1  0
 17 18  2  0
 19 18  1  0
 20 19  2  0
 21 22  2  0
 21 20  1  0
 22 17  1  0
 23 25  1  0
 23 12  1  0
 24 23  2  0
M  END
$$$$
