CGW.pdb
     RDKit          3D

 25 26  0  0  1  0  0  0  0  0999 V2000
   23.4391  -20.5400  -15.8994 N   0  0  0  0  0  0  0  0  0  0  0  0
   24.6747  -19.8218  -15.9778 C   0  0  1  0  0  0  0  0  0  0  0  0
   24.5456  -18.5523  -16.8064 C   0  0  0  0  0  0  0  0  0  0  0  0
   25.4917  -18.7858  -18.3427 S   0  0  0  0  0  0  0  0  0  0  0  0
   25.2123  -19.5439  -14.6266 C   0  0  0  0  0  0  0  0  0  0  0  0
   24.6225  -18.7780  -13.8100 O   0  0  0  0  0  0  0  0  0  0  0  0
   26.4353  -20.1512  -14.2185 N   0  0  0  0  0  0  0  0  0  0  0  0
   26.9549  -19.8356  -12.9131 C   0  0  0  0  0  0  0  0  0  0  0  0
   26.3333  -20.6348  -11.8199 C   0  0  0  0  0  0  0  0  0  0  0  0
   25.4467  -21.4827  -12.1259 O   0  0  0  0  0  0  0  0  0  0  0  0
   26.6723  -20.4983  -10.4652 N   0  0  0  0  0  0  0  0  0  0  0  0
   26.0262  -21.3111   -9.4351 C   0  0  1  0  0  0  0  0  0  0  0  0
   26.9439  -21.5929   -8.3130 C   0  0  0  0  0  0  0  0  0  0  0  0
   27.2646  -20.4045   -7.5168 C   0  0  0  0  0  0  0  0  0  0  0  0
   26.8734  -19.0905   -7.7895 C   0  0  0  0  0  0  0  0  0  0  0  0
   27.3810  -18.2535   -6.8664 N   0  0  0  0  0  0  0  0  0  0  0  0
   28.0939  -18.9528   -5.9886 C   0  0  0  0  0  0  0  0  0  0  0  0
   28.7770  -18.5213   -4.8653 C   0  0  0  0  0  0  0  0  0  0  0  0
   29.4333  -19.4486   -4.0796 C   0  0  0  0  0  0  0  0  0  0  0  0
   29.3827  -20.7768   -4.4470 C   0  0  0  0  0  0  0  0  0  0  0  0
   28.6974  -21.1869   -5.5703 C   0  0  0  0  0  0  0  0  0  0  0  0
   28.0302  -20.2797   -6.3779 C   0  0  0  0  0  0  0  0  0  0  0  0
   24.7597  -20.7066   -9.0197 C   0  0  0  0  0  0  0  0  0  0  0  0
   24.4443  -19.5620   -9.4135 O   0  0  0  0  0  0  0  0  0  0  0  0
   23.8992  -21.4374   -8.1645 O   0  0  0  0  0  0  0  0  0  0  0  0
  2  1  1  1
  3  2  1  0
  4  3  1  0
  5  2  1  0
  5  6  2  0
  7  5  1  0
  8  7  1  0
  8  9  1  0
  9 10  2  0
 11  9  1  0
 11 12  1  0
 12 13  1  1
 13 14  1  0
 14 15  2  0
 14 22  1  0
 15 16  1  0
 16 17  1  0
 17 18  2  0
 19 18  1  0
 20 19  2  0
 21 22  2  0
 21 20  1  0
 22 17  1  0
 23 25  1  0
 23 12  1  0
 24 23  2  0
M  END
$$$$
