CGW.pdb
     RDKit          3D

 25 26  0  0  1  0  0  0  0  0999 V2000
   27.8114  -17.0929  -14.3033 N   0  0  0  0  0  0  0  0  0  0  0  0
   26.8334  -18.1197  -14.4977 C   0  0  1  0  0  0  0  0  0  0  0  0
   26.4207  -18.2464  -15.9566 C   0  0  0  0  0  0  0  0  0  0  0  0
   25.7220  -16.6514  -16.4832 S   0  0  0  0  0  0  0  0  0  0  0  0
   27.3039  -19.4104  -13.9455 C   0  0  0  0  0  0  0  0  0  0  0  0
   28.0138  -20.2135  -14.6181 O   0  0  0  0  0  0  0  0  0  0  0  0
   26.9520  -19.7747  -12.6135 N   0  0  0  0  0  0  0  0  0  0  0  0
   27.6443  -20.8780  -11.9992 C   0  0  0  0  0  0  0  0  0  0  0  0
   27.2549  -21.1035  -10.5788 C   0  0  0  0  0  0  0  0  0  0  0  0
   27.8068  -22.0502   -9.9482 O   0  0  0  0  0  0  0  0  0  0  0  0
   26.3049  -20.3266   -9.8985 N   0  0  0  0  0  0  0  0  0  0  0  0
   25.4022  -20.9215   -8.9133 C   0  0  1  0  0  0  0  0  0  0  0  0
   25.4569  -20.2021   -7.6248 C   0  0  0  0  0  0  0  0  0  0  0  0
   26.8090  -19.7657   -7.2639 C   0  0  0  0  0  0  0  0  0  0  0  0
   27.6707  -18.9936   -8.0483 C   0  0  0  0  0  0  0  0  0  0  0  0
   28.8444  -18.8183   -7.4144 N   0  0  0  0  0  0  0  0  0  0  0  0
   28.8029  -19.4400   -6.2398 C   0  0  0  0  0  0  0  0  0  0  0  0
   29.7649  -19.5146   -5.2481 C   0  0  0  0  0  0  0  0  0  0  0  0
   29.4811  -20.2056   -4.0862 C   0  0  0  0  0  0  0  0  0  0  0  0
   28.2426  -20.7985   -3.9584 C   0  0  0  0  0  0  0  0  0  0  0  0
   27.2977  -20.7135   -4.9581 C   0  0  0  0  0  0  0  0  0  0  0  0
   27.5540  -20.0278   -6.1347 C   0  0  0  0  0  0  0  0  0  0  0  0
   24.0502  -21.0441   -9.4601 C   0  0  0  0  0  0  0  0  0  0  0  0
   23.7693  -20.5488  -10.5738 O   0  0  0  0  0  0  0  0  0  0  0  0
   23.0661  -21.7305   -8.7075 O   0  0  0  0  0  0  0  0  0  0  0  0
  2  1  1  6
  3  2  1  0
  4  3  1  0
  5  2  1  0
  5  6  2  0
  7  5  1  0
  8  7  1  0
  8  9  1  0
  9 10  2  0
 11  9  1  0
 11 12  1  0
 12 13  1  1
 13 14  1  0
 14 15  2  0
 14 22  1  0
 15 16  1  0
 16 17  1  0
 17 18  2  0
 19 18  1  0
 20 19  2  0
 21 22  2  0
 21 20  1  0
 22 17  1  0
 23 25  1  0
 23 12  1  0
 24 23  2  0
M  END
$$$$
