CGW.pdb
     RDKit          3D

 25 26  0  0  1  0  0  0  0  0999 V2000
   25.1415  -19.1855  -14.0948 N   0  0  0  0  0  0  0  0  0  0  0  0
   26.3992  -19.0268  -14.7594 C   0  0  1  0  0  0  0  0  0  0  0  0
   26.3690  -17.8954  -15.7761 C   0  0  0  0  0  0  0  0  0  0  0  0
   25.0533  -18.2565  -16.9795 S   0  0  0  0  0  0  0  0  0  0  0  0
   27.4975  -18.8573  -13.7810 C   0  0  0  0  0  0  0  0  0  0  0  0
   28.5390  -18.1888  -14.0446 O   0  0  0  0  0  0  0  0  0  0  0  0
   27.3926  -19.4630  -12.4953 N   0  0  0  0  0  0  0  0  0  0  0  0
   28.0221  -20.7412  -12.2866 C   0  0  0  0  0  0  0  0  0  0  0  0
   27.9174  -21.2300  -10.8829 C   0  0  0  0  0  0  0  0  0  0  0  0
   28.5518  -22.2757  -10.5626 O   0  0  0  0  0  0  0  0  0  0  0  0
   27.1499  -20.5979   -9.8929 N   0  0  0  0  0  0  0  0  0  0  0  0
   25.9307  -21.2131   -9.3690 C   0  0  1  0  0  0  0  0  0  0  0  0
   25.6305  -20.7417   -8.0022 C   0  0  0  0  0  0  0  0  0  0  0  0
   26.7000  -19.9208   -7.4265 C   0  0  0  0  0  0  0  0  0  0  0  0
   27.1385  -18.6788   -7.8946 C   0  0  0  0  0  0  0  0  0  0  0  0
   28.1631  -18.2348   -7.1440 N   0  0  0  0  0  0  0  0  0  0  0  0
   28.4268  -19.1270   -6.1942 C   0  0  0  0  0  0  0  0  0  0  0  0
   29.3748  -19.0874   -5.1871 C   0  0  0  0  0  0  0  0  0  0  0  0
   29.4454  -20.1338   -4.2882 C   0  0  0  0  0  0  0  0  0  0  0  0
   28.5633  -21.1843   -4.4298 C   0  0  0  0  0  0  0  0  0  0  0  0
   27.6264  -21.2057   -5.4403 C   0  0  0  0  0  0  0  0  0  0  0  0
   27.5323  -20.1709   -6.3570 C   0  0  0  0  0  0  0  0  0  0  0  0
   24.8207  -21.0389  -10.3069 C   0  0  0  0  0  0  0  0  0  0  0  0
   24.9502  -20.3081  -11.3138 O   0  0  0  0  0  0  0  0  0  0  0  0
   23.5988  -21.7094  -10.0550 O   0  0  0  0  0  0  0  0  0  0  0  0
  2  1  1  1
  3  2  1  0
  4  3  1  0
  5  2  1  0
  5  6  2  0
  7  5  1  0
  8  7  1  0
  8  9  1  0
  9 10  2  0
 11  9  1  0
 11 12  1  0
 12 13  1  1
 13 14  1  0
 14 15  2  0
 14 22  1  0
 15 16  1  0
 16 17  1  0
 17 18  2  0
 19 18  1  0
 20 19  2  0
 21 22  2  0
 21 20  1  0
 22 17  1  0
 23 25  1  0
 23 12  1  0
 24 23  2  0
M  END
$$$$
