CGW.pdb
     RDKit          3D

 25 26  0  0  1  0  0  0  0  0999 V2000
   29.2636  -16.9038  -18.3159 N   0  0  0  0  0  0  0  0  0  0  0  0
   28.4414  -18.0216  -17.9649 C   0  0  1  0  0  0  0  0  0  0  0  0
   28.8440  -19.2838  -18.7129 C   0  0  0  0  0  0  0  0  0  0  0  0
   27.6894  -20.6083  -18.2416 S   0  0  0  0  0  0  0  0  0  0  0  0
   28.4303  -18.2312  -16.4993 C   0  0  0  0  0  0  0  0  0  0  0  0
   29.4499  -18.6342  -15.8674 O   0  0  0  0  0  0  0  0  0  0  0  0
   27.2376  -17.9761  -15.7621 N   0  0  0  0  0  0  0  0  0  0  0  0
   27.2403  -18.2308  -14.3448 C   0  0  0  0  0  0  0  0  0  0  0  0
   26.5638  -19.5049  -13.9716 C   0  0  0  0  0  0  0  0  0  0  0  0
   26.0951  -20.2288  -14.8961 O   0  0  0  0  0  0  0  0  0  0  0  0
   26.4121  -19.9482  -12.6490 N   0  0  0  0  0  0  0  0  0  0  0  0
   25.8528  -21.2660  -12.3492 C   0  0  1  0  0  0  0  0  0  0  0  0
   26.5297  -21.8918  -11.1956 C   0  0  0  0  0  0  0  0  0  0  0  0
   26.4456  -21.0894   -9.9717 C   0  0  0  0  0  0  0  0  0  0  0  0
   25.3282  -20.3849   -9.5143 C   0  0  0  0  0  0  0  0  0  0  0  0
   25.6252  -19.7301   -8.3771 N   0  0  0  0  0  0  0  0  0  0  0  0
   26.8932  -19.9678   -8.0553 C   0  0  0  0  0  0  0  0  0  0  0  0
   27.6234  -19.5257   -6.9664 C   0  0  0  0  0  0  0  0  0  0  0  0
   28.9366  -19.9310   -6.8277 C   0  0  0  0  0  0  0  0  0  0  0  0
   29.4730  -20.7654   -7.7857 C   0  0  0  0  0  0  0  0  0  0  0  0
   28.7294  -21.1945   -8.8638 C   0  0  0  0  0  0  0  0  0  0  0  0
   27.4102  -20.8041   -9.0298 C   0  0  0  0  0  0  0  0  0  0  0  0
   24.3984  -21.1887  -12.2051 C   0  0  0  0  0  0  0  0  0  0  0  0
   23.7023  -22.2276  -12.2343 O   0  0  0  0  0  0  0  0  0  0  0  0
   23.7930  -19.9198  -12.0338 O   0  0  0  0  0  0  0  0  0  0  0  0
  2  1  1  1
  3  2  1  0
  4  3  1  0
  5  2  1  0
  5  6  2  0
  7  5  1  0
  8  7  1  0
  8  9  1  0
  9 10  2  0
 11  9  1  0
 11 12  1  0
 12 13  1  1
 13 14  1  0
 14 15  2  0
 14 22  1  0
 15 16  1  0
 16 17  1  0
 17 18  2  0
 19 18  1  0
 20 19  2  0
 21 22  2  0
 21 20  1  0
 22 17  1  0
 23 25  1  0
 23 12  1  0
 24 23  2  0
M  END
$$$$
