CGW.pdb
     RDKit          3D

 25 26  0  0  1  0  0  0  0  0999 V2000
   27.4088  -21.1887  -20.6084 N   0  0  0  0  0  0  0  0  0  0  0  0
   27.5708  -19.7942  -20.8872 C   0  0  1  0  0  0  0  0  0  0  0  0
   26.5848  -19.3034  -21.9368 C   0  0  0  0  0  0  0  0  0  0  0  0
   27.0960  -19.9786  -23.5469 S   0  0  0  0  0  0  0  0  0  0  0  0
   27.4944  -18.9933  -19.6442 C   0  0  0  0  0  0  0  0  0  0  0  0
   26.5428  -18.1910  -19.4158 O   0  0  0  0  0  0  0  0  0  0  0  0
   28.5207  -19.1187  -18.6635 N   0  0  0  0  0  0  0  0  0  0  0  0
   28.3768  -18.3981  -17.4251 C   0  0  0  0  0  0  0  0  0  0  0  0
   27.9673  -19.2619  -16.2822 C   0  0  0  0  0  0  0  0  0  0  0  0
   28.2707  -20.4888  -16.3183 O   0  0  0  0  0  0  0  0  0  0  0  0
   27.2584  -18.7929  -15.1658 N   0  0  0  0  0  0  0  0  0  0  0  0
   26.9799  -19.6623  -14.0230 C   0  0  1  0  0  0  0  0  0  0  0  0
   26.6544  -18.8795  -12.8138 C   0  0  0  0  0  0  0  0  0  0  0  0
   26.3734  -19.7156  -11.6430 C   0  0  0  0  0  0  0  0  0  0  0  0
   27.3167  -20.3270  -10.8120 C   0  0  0  0  0  0  0  0  0  0  0  0
   26.6985  -21.0492   -9.8600 N   0  0  0  0  0  0  0  0  0  0  0  0
   25.3825  -20.9456  -10.0194 C   0  0  0  0  0  0  0  0  0  0  0  0
   24.3582  -21.4958   -9.2693 C   0  0  0  0  0  0  0  0  0  0  0  0
   23.0492  -21.2229   -9.6158 C   0  0  0  0  0  0  0  0  0  0  0  0
   22.8118  -20.4082  -10.7027 C   0  0  0  0  0  0  0  0  0  0  0  0
   23.8459  -19.8701  -11.4380 C   0  0  0  0  0  0  0  0  0  0  0  0
   25.1688  -20.1265  -11.1147 C   0  0  0  0  0  0  0  0  0  0  0  0
   25.9649  -20.6587  -14.3679 C   0  0  0  0  0  0  0  0  0  0  0  0
   24.9496  -20.3298  -15.0203 O   0  0  0  0  0  0  0  0  0  0  0  0
   26.1503  -21.9992  -13.9499 O   0  0  0  0  0  0  0  0  0  0  0  0
  2  1  1  1
  3  2  1  0
  4  3  1  0
  5  2  1  0
  5  6  2  0
  7  5  1  0
  8  7  1  0
  8  9  1  0
  9 10  2  0
 11  9  1  0
 11 12  1  0
 12 13  1  1
 13 14  1  0
 14 15  2  0
 14 22  1  0
 15 16  1  0
 16 17  1  0
 17 18  2  0
 19 18  1  0
 20 19  2  0
 21 22  2  0
 21 20  1  0
 22 17  1  0
 23 25  1  0
 23 12  1  0
 24 23  2  0
M  END
$$$$
