CGW.pdb
     RDKit          3D

 25 26  0  0  1  0  0  0  0  0999 V2000
   29.1202  -21.9375  -18.2056 N   0  0  0  0  0  0  0  0  0  0  0  0
   28.3390  -22.5627  -17.1822 C   0  0  1  0  0  0  0  0  0  0  0  0
   28.9569  -23.8706  -16.7107 C   0  0  0  0  0  0  0  0  0  0  0  0
   28.4924  -25.1706  -17.8955 S   0  0  0  0  0  0  0  0  0  0  0  0
   28.0981  -21.6314  -16.0566 C   0  0  0  0  0  0  0  0  0  0  0  0
   28.9919  -20.8446  -15.6287 O   0  0  0  0  0  0  0  0  0  0  0  0
   26.8217  -21.6104  -15.4231 N   0  0  0  0  0  0  0  0  0  0  0  0
   26.5858  -20.6360  -14.3893 C   0  0  0  0  0  0  0  0  0  0  0  0
   25.8451  -21.1837  -13.2182 C   0  0  0  0  0  0  0  0  0  0  0  0
   25.2532  -22.2934  -13.3478 O   0  0  0  0  0  0  0  0  0  0  0  0
   25.7622  -20.5359  -11.9763 N   0  0  0  0  0  0  0  0  0  0  0  0
   24.8799  -21.0299  -10.9195 C   0  0  1  0  0  0  0  0  0  0  0  0
   25.2281  -20.4484   -9.6075 C   0  0  0  0  0  0  0  0  0  0  0  0
   26.6195  -20.6949   -9.2175 C   0  0  0  0  0  0  0  0  0  0  0  0
   27.5373  -21.5125   -9.8831 C   0  0  0  0  0  0  0  0  0  0  0  0
   28.7078  -21.5327   -9.2200 N   0  0  0  0  0  0  0  0  0  0  0  0
   28.6109  -20.7629   -8.1403 C   0  0  0  0  0  0  0  0  0  0  0  0
   29.5625  -20.4683   -7.1800 C   0  0  0  0  0  0  0  0  0  0  0  0
   29.2345  -19.6095   -6.1491 C   0  0  0  0  0  0  0  0  0  0  0  0
   27.9635  -19.0757   -6.1158 C   0  0  0  0  0  0  0  0  0  0  0  0
   27.0290  -19.3820   -7.0814 C   0  0  0  0  0  0  0  0  0  0  0  0
   27.3290  -20.2405   -8.1270 C   0  0  0  0  0  0  0  0  0  0  0  0
   23.4763  -20.8437  -11.2901 C   0  0  0  0  0  0  0  0  0  0  0  0
   22.5637  -21.3031  -10.5684 O   0  0  0  0  0  0  0  0  0  0  0  0
   23.1691  -20.1370  -12.4785 O   0  0  0  0  0  0  0  0  0  0  0  0
  2  1  1  6
  3  2  1  0
  4  3  1  0
  5  2  1  0
  5  6  2  0
  7  5  1  0
  8  7  1  0
  8  9  1  0
  9 10  2  0
 11  9  1  0
 11 12  1  0
 12 13  1  1
 13 14  1  0
 14 15  2  0
 14 22  1  0
 15 16  1  0
 16 17  1  0
 17 18  2  0
 19 18  1  0
 20 19  2  0
 21 22  2  0
 21 20  1  0
 22 17  1  0
 23 25  1  0
 23 12  1  0
 24 23  2  0
M  END
$$$$
