CGW.pdb
     RDKit          3D

 25 26  0  0  1  0  0  0  0  0999 V2000
   24.2987  -18.6917  -13.4833 N   0  0  0  0  0  0  0  0  0  0  0  0
   24.8391  -18.6986  -14.8086 C   0  0  1  0  0  0  0  0  0  0  0  0
   24.5408  -17.4060  -15.5537 C   0  0  0  0  0  0  0  0  0  0  0  0
   23.2425  -16.5178  -14.6400 S   0  0  0  0  0  0  0  0  0  0  0  0
   26.2888  -18.9989  -14.7878 C   0  0  0  0  0  0  0  0  0  0  0  0
   26.9333  -19.2879  -15.8377 O   0  0  0  0  0  0  0  0  0  0  0  0
   26.9952  -18.9667  -13.5505 N   0  0  0  0  0  0  0  0  0  0  0  0
   28.0901  -19.8830  -13.3624 C   0  0  0  0  0  0  0  0  0  0  0  0
   27.9342  -20.7526  -12.1626 C   0  0  0  0  0  0  0  0  0  0  0  0
   28.8421  -21.5955  -11.9102 O   0  0  0  0  0  0  0  0  0  0  0  0
   26.8327  -20.6938  -11.2954 N   0  0  0  0  0  0  0  0  0  0  0  0
   26.8355  -21.4013  -10.0152 C   0  0  1  0  0  0  0  0  0  0  0  0
   28.0623  -21.1190   -9.2432 C   0  0  0  0  0  0  0  0  0  0  0  0
   27.8194  -20.2997   -8.0522 C   0  0  0  0  0  0  0  0  0  0  0  0
   26.9200  -19.2350   -7.9445 C   0  0  0  0  0  0  0  0  0  0  0  0
   26.9902  -18.6899   -6.7164 N   0  0  0  0  0  0  0  0  0  0  0  0
   27.8977  -19.3456   -5.9993 C   0  0  0  0  0  0  0  0  0  0  0  0
   28.2906  -19.1526   -4.6867 C   0  0  0  0  0  0  0  0  0  0  0  0
   29.2469  -19.9868   -4.1411 C   0  0  0  0  0  0  0  0  0  0  0  0
   29.7769  -20.9858   -4.9303 C   0  0  0  0  0  0  0  0  0  0  0  0
   29.3730  -21.1616   -6.2362 C   0  0  0  0  0  0  0  0  0  0  0  0
   28.4162  -20.3401   -6.8107 C   0  0  0  0  0  0  0  0  0  0  0  0
   25.6017  -21.1334   -9.2749 C   0  0  0  0  0  0  0  0  0  0  0  0
   25.2915  -21.8328   -8.2854 O   0  0  0  0  0  0  0  0  0  0  0  0
   24.7652  -20.0716   -9.6980 O   0  0  0  0  0  0  0  0  0  0  0  0
  2  1  1  1
  3  2  1  0
  4  3  1  0
  5  2  1  0
  5  6  2  0
  7  5  1  0
  8  7  1  0
  8  9  1  0
  9 10  2  0
 11  9  1  0
 11 12  1  0
 12 13  1  1
 13 14  1  0
 14 15  2  0
 14 22  1  0
 15 16  1  0
 16 17  1  0
 17 18  2  0
 19 18  1  0
 20 19  2  0
 21 22  2  0
 21 20  1  0
 22 17  1  0
 23 25  1  0
 23 12  1  0
 24 23  2  0
M  END
$$$$
