KAN.pdb
     RDKit          3D

 23 22  0  0  1  0  0  0  0  0999 V2000
   34.8020   -7.9065  -16.9550 N   0  0  0  0  0  0  0  0  0  0  0  0
   34.1764   -7.5398  -15.6989 C   0  0  1  0  0  0  0  0  0  0  0  0
   35.1723   -6.8050  -14.8638 C   0  0  0  0  0  0  0  0  0  0  0  0
   36.3800   -7.6710  -14.6115 C   0  0  0  0  0  0  0  0  0  0  0  0
   37.4244   -7.0090  -13.7740 C   0  0  0  0  0  0  0  0  0  0  0  0
   38.5568   -7.9433  -13.3784 C   0  0  0  0  0  0  0  0  0  0  0  0
   39.4776   -7.2576  -12.5116 N   0  0  0  0  0  0  0  0  0  0  0  0
   32.9945   -6.7008  -16.0122 C   0  0  0  0  0  0  0  0  0  0  0  0
   32.1837   -6.3639  -15.1135 O   0  0  0  0  0  0  0  0  0  0  0  0
   31.9652   -4.0418  -17.9203 C   0  0  0  0  0  0  0  0  0  0  0  0
   31.5538   -5.4497  -17.6770 C   0  0  2  0  0  0  0  0  0  0  0  0
   32.7055   -6.2317  -17.3236 N   0  0  0  0  0  0  0  0  0  0  0  0
   30.7605   -6.0542  -18.7682 C   0  0  0  0  0  0  0  0  0  0  0  0
   30.1942   -5.2989  -19.6035 O   0  0  0  0  0  0  0  0  0  0  0  0
   28.6298  -10.6597  -17.1347 N   0  0  0  0  0  0  0  0  0  0  0  0
   29.1605  -10.0118  -18.2740 C   0  0  0  0  0  0  0  0  0  0  0  0
   30.2163  -10.4682  -18.7724 O   0  0  0  0  0  0  0  0  0  0  0  0
   28.5290   -8.8274  -18.8999 C   0  0  0  0  0  0  0  0  0  0  0  0
   29.4866   -8.0101  -19.6816 C   0  0  2  0  0  0  0  0  0  0  0  0
   30.5743   -7.4427  -18.9645 N   0  0  0  0  0  0  0  0  0  0  0  0
   28.7239   -6.9685  -20.4266 C   0  0  0  0  0  0  0  0  0  0  0  0
   27.7051   -6.2277  -19.8975 O   0  0  0  0  0  0  0  0  0  0  0  0
   29.0468   -6.7646  -21.6232 O   0  0  0  0  0  0  0  0  0  0  0  0
  2  1  1  6
  2  3  1  0
  4  3  1  0
  5  4  1  0
  5  6  1  0
  7  6  1  0
  8  2  1  0
  8  9  2  0
 11 10  1  6
 11 12  1  0
 12  8  1  0
 13 11  1  0
 14 13  2  0
 16 18  1  0
 16 15  1  0
 17 16  2  0
 19 18  1  1
 19 20  1  0
 19 21  1  0
 20 13  1  0
 21 22  1  0
 23 21  2  0
M  END
$$$$
