KAN.pdb
     RDKit          3D

 23 22  0  0  1  0  0  0  0  0999 V2000
   23.4085  -19.3402  -15.8100 N   0  0  0  0  0  0  0  0  0  0  0  0
   22.1621  -18.9882  -15.1569 C   0  0  1  0  0  0  0  0  0  0  0  0
   21.0475  -19.1377  -16.1390 C   0  0  0  0  0  0  0  0  0  0  0  0
   21.5734  -19.6745  -17.4455 C   0  0  0  0  0  0  0  0  0  0  0  0
   21.5304  -21.1644  -17.5390 C   0  0  0  0  0  0  0  0  0  0  0  0
   21.9267  -21.6910  -18.9091 C   0  0  0  0  0  0  0  0  0  0  0  0
   22.0113  -23.1267  -18.8766 N   0  0  0  0  0  0  0  0  0  0  0  0
   21.9939  -19.8895  -13.9915 C   0  0  0  0  0  0  0  0  0  0  0  0
   22.1993  -21.1247  -14.0939 O   0  0  0  0  0  0  0  0  0  0  0  0
   21.4252  -19.4787  -10.3262 C   0  0  0  0  0  0  0  0  0  0  0  0
   21.3261  -20.2731  -11.5791 C   0  0  2  0  0  0  0  0  0  0  0  0
   21.5964  -19.4257  -12.7069 N   0  0  0  0  0  0  0  0  0  0  0  0
   20.0696  -21.0385  -11.7223 C   0  0  0  0  0  0  0  0  0  0  0  0
   19.1953  -20.6325  -12.5345 O   0  0  0  0  0  0  0  0  0  0  0  0
   15.1088  -22.8310  -12.0360 N   0  0  0  0  0  0  0  0  0  0  0  0
   16.0582  -22.9675  -10.9970 C   0  0  0  0  0  0  0  0  0  0  0  0
   15.8450  -23.8320  -10.1146 O   0  0  0  0  0  0  0  0  0  0  0  0
   17.2838  -22.1411  -10.9059 C   0  0  0  0  0  0  0  0  0  0  0  0
   18.5225  -22.9213  -11.1353 C   0  0  2  0  0  0  0  0  0  0  0  0
   19.7511  -22.2184  -11.0098 N   0  0  0  0  0  0  0  0  0  0  0  0
   18.4174  -23.6007  -12.4579 C   0  0  0  0  0  0  0  0  0  0  0  0
   18.3113  -22.9521  -13.6556 O   0  0  0  0  0  0  0  0  0  0  0  0
   18.4275  -24.8567  -12.4619 O   0  0  0  0  0  0  0  0  0  0  0  0
  2  1  1  6
  2  3  1  0
  4  3  1  0
  5  4  1  0
  5  6  1  0
  7  6  1  0
  8  2  1  0
  8  9  2  0
 11 10  1  1
 11 12  1  0
 12  8  1  0
 13 11  1  0
 14 13  2  0
 16 18  1  0
 16 15  1  0
 17 16  2  0
 19 18  1  6
 19 20  1  0
 19 21  1  0
 20 13  1  0
 21 22  1  0
 23 21  2  0
M  END
$$$$
