KAN.pdb
     RDKit          3D

 23 22  0  0  1  0  0  0  0  0999 V2000
   29.2546  -25.5490  -16.6927 N   0  0  0  0  0  0  0  0  0  0  0  0
   27.9885  -25.1630  -17.2857 C   0  0  1  0  0  0  0  0  0  0  0  0
   27.0083  -26.2715  -17.0870 C   0  0  0  0  0  0  0  0  0  0  0  0
   27.3751  -27.4517  -17.9499 C   0  0  0  0  0  0  0  0  0  0  0  0
   27.2460  -27.1838  -19.4134 C   0  0  0  0  0  0  0  0  0  0  0  0
   27.5327  -28.4039  -20.2740 C   0  0  0  0  0  0  0  0  0  0  0  0
   26.4725  -29.3655  -20.1296 N   0  0  0  0  0  0  0  0  0  0  0  0
   27.5451  -23.9110  -16.6263 C   0  0  0  0  0  0  0  0  0  0  0  0
   27.6494  -23.7626  -15.3831 O   0  0  0  0  0  0  0  0  0  0  0  0
   26.6076  -20.4928  -17.7340 C   0  0  0  0  0  0  0  0  0  0  0  0
   26.5242  -21.5965  -16.7414 C   0  0  2  0  0  0  0  0  0  0  0  0
   26.9836  -22.8175  -17.3420 N   0  0  0  0  0  0  0  0  0  0  0  0
   25.2048  -21.7366  -16.0894 C   0  0  0  0  0  0  0  0  0  0  0  0
   24.4277  -22.6524  -16.4719 O   0  0  0  0  0  0  0  0  0  0  0  0
   20.8123  -21.1560  -13.3716 N   0  0  0  0  0  0  0  0  0  0  0  0
   21.8726  -20.6329  -12.5959 C   0  0  0  0  0  0  0  0  0  0  0  0
   21.6306  -20.3116  -11.4087 O   0  0  0  0  0  0  0  0  0  0  0  0
   23.2457  -20.4497  -13.1199 C   0  0  0  0  0  0  0  0  0  0  0  0
   23.4257  -21.0213  -14.4751 C   0  0  2  0  0  0  0  0  0  0  0  0
   24.7223  -20.9121  -15.0460 N   0  0  0  0  0  0  0  0  0  0  0  0
   22.3853  -20.4466  -15.3746 C   0  0  0  0  0  0  0  0  0  0  0  0
   22.6481  -19.6503  -16.4532 O   0  0  0  0  0  0  0  0  0  0  0  0
   21.1867  -20.7182  -15.1153 O   0  0  0  0  0  0  0  0  0  0  0  0
  2  1  1  1
  2  3  1  0
  4  3  1  0
  5  4  1  0
  5  6  1  0
  7  6  1  0
  8  2  1  0
  8  9  2  0
 11 10  1  6
 11 12  1  0
 12  8  1  0
 13 11  1  0
 14 13  2  0
 16 18  1  0
 16 15  1  0
 17 16  2  0
 19 18  1  1
 19 20  1  0
 19 21  1  0
 20 13  1  0
 21 22  1  0
 23 21  2  0
M  END
$$$$
