KAN.pdb
     RDKit          3D

 23 22  0  0  1  0  0  0  0  0999 V2000
   22.9364  -20.8254  -15.8586 N   0  0  0  0  0  0  0  0  0  0  0  0
   23.7222  -21.2124  -14.7025 C   0  0  1  0  0  0  0  0  0  0  0  0
   24.9778  -20.4048  -14.6842 C   0  0  0  0  0  0  0  0  0  0  0  0
   25.8298  -20.7399  -15.8816 C   0  0  0  0  0  0  0  0  0  0  0  0
   26.5085  -22.0663  -15.7785 C   0  0  0  0  0  0  0  0  0  0  0  0
   27.3591  -22.4007  -16.9935 C   0  0  0  0  0  0  0  0  0  0  0  0
   28.0046  -23.6724  -16.8048 N   0  0  0  0  0  0  0  0  0  0  0  0
   22.8955  -20.9728  -13.4950 C   0  0  0  0  0  0  0  0  0  0  0  0
   23.3630  -21.1581  -12.3437 O   0  0  0  0  0  0  0  0  0  0  0  0
   19.6980  -19.3421  -12.6203 C   0  0  0  0  0  0  0  0  0  0  0  0
   20.6510  -20.4684  -12.4367 C   0  0  2  0  0  0  0  0  0  0  0  0
   21.5463  -20.5269  -13.5582 N   0  0  0  0  0  0  0  0  0  0  0  0
   20.0137  -21.7690  -12.1404 C   0  0  0  0  0  0  0  0  0  0  0  0
   19.8539  -22.5989  -13.0756 O   0  0  0  0  0  0  0  0  0  0  0  0
   18.3893  -25.9769   -7.8321 N   0  0  0  0  0  0  0  0  0  0  0  0
   18.5936  -25.3501   -9.0830 C   0  0  0  0  0  0  0  0  0  0  0  0
   18.3397  -26.0078  -10.1195 O   0  0  0  0  0  0  0  0  0  0  0  0
   19.0900  -23.9617   -9.2218 C   0  0  0  0  0  0  0  0  0  0  0  0
   18.9492  -23.4350  -10.5997 C   0  0  2  0  0  0  0  0  0  0  0  0
   19.5541  -22.1772  -10.8663 N   0  0  0  0  0  0  0  0  0  0  0  0
   17.5029  -23.4304  -10.9605 C   0  0  0  0  0  0  0  0  0  0  0  0
   16.8575  -24.4592  -11.5863 O   0  0  0  0  0  0  0  0  0  0  0  0
   16.8396  -22.4056  -10.6652 O   0  0  0  0  0  0  0  0  0  0  0  0
  2  1  1  6
  2  3  1  0
  4  3  1  0
  5  4  1  0
  5  6  1  0
  7  6  1  0
  8  2  1  0
  8  9  2  0
 11 10  1  6
 11 12  1  0
 12  8  1  0
 13 11  1  0
 14 13  2  0
 16 18  1  0
 16 15  1  0
 17 16  2  0
 19 18  1  1
 19 20  1  0
 19 21  1  0
 20 13  1  0
 21 22  1  0
 23 21  2  0
M  END
$$$$
