KAN.pdb
     RDKit          3D

 23 22  0  0  1  0  0  0  0  0999 V2000
   18.5827  -13.0945  -16.5533 N   0  0  0  0  0  0  0  0  0  0  0  0
   19.7028  -12.3748  -17.1287 C   0  0  1  0  0  0  0  0  0  0  0  0
   19.2044  -11.5371  -18.2596 C   0  0  0  0  0  0  0  0  0  0  0  0
   18.1817  -12.3006  -19.0616 C   0  0  0  0  0  0  0  0  0  0  0  0
   18.7781  -13.3337  -19.9602 C   0  0  0  0  0  0  0  0  0  0  0  0
   17.7401  -14.1014  -20.7632 C   0  0  0  0  0  0  0  0  0  0  0  0
   18.3909  -15.0600  -21.6158 N   0  0  0  0  0  0  0  0  0  0  0  0
   20.3065  -11.5484  -16.0556 C   0  0  0  0  0  0  0  0  0  0  0  0
   19.5875  -10.8773  -15.2739 O   0  0  0  0  0  0  0  0  0  0  0  0
   23.7718  -10.9293  -14.7640 C   0  0  0  0  0  0  0  0  0  0  0  0
   22.3462  -10.5452  -14.9394 C   0  0  2  0  0  0  0  0  0  0  0  0
   21.7105  -11.4615  -15.8445 N   0  0  0  0  0  0  0  0  0  0  0  0
   22.1334   -9.1299  -15.3095 C   0  0  0  0  0  0  0  0  0  0  0  0
   21.9428   -8.8364  -16.5205 O   0  0  0  0  0  0  0  0  0  0  0  0
   19.4692   -4.3804  -16.5310 N   0  0  0  0  0  0  0  0  0  0  0  0
   20.6201   -4.9524  -15.9414 C   0  0  0  0  0  0  0  0  0  0  0  0
   21.6159   -4.2138  -15.7566 O   0  0  0  0  0  0  0  0  0  0  0  0
   20.7005   -6.3744  -15.5353 C   0  0  0  0  0  0  0  0  0  0  0  0
   21.9355   -6.6882  -14.7789 C   0  0  2  0  0  0  0  0  0  0  0  0
   22.1245   -8.0451  -14.4016 N   0  0  0  0  0  0  0  0  0  0  0  0
   22.0134   -5.7799  -13.5996 C   0  0  0  0  0  0  0  0  0  0  0  0
   22.5889   -4.5408  -13.6130 O   0  0  0  0  0  0  0  0  0  0  0  0
   21.5129   -6.1904  -12.5232 O   0  0  0  0  0  0  0  0  0  0  0  0
  2  1  1  1
  2  3  1  0
  4  3  1  0
  5  4  1  0
  5  6  1  0
  7  6  1  0
  8  2  1  0
  8  9  2  0
 11 10  1  6
 11 12  1  0
 12  8  1  0
 13 11  1  0
 14 13  2  0
 16 18  1  0
 16 15  1  0
 17 16  2  0
 19 18  1  1
 19 20  1  0
 19 21  1  0
 20 13  1  0
 21 22  1  0
 23 21  2  0
M  END
$$$$
