KAN.pdb
     RDKit          3D

 23 22  0  0  1  0  0  0  0  0999 V2000
   18.3722  -12.4121  -14.4879 N   0  0  0  0  0  0  0  0  0  0  0  0
   17.5949  -11.5158  -15.3224 C   0  0  1  0  0  0  0  0  0  0  0  0
   16.4049  -12.2541  -15.8401 C   0  0  0  0  0  0  0  0  0  0  0  0
   16.7135  -13.7251  -15.9531 C   0  0  0  0  0  0  0  0  0  0  0  0
   15.5646  -14.5393  -16.4504 C   0  0  0  0  0  0  0  0  0  0  0  0
   15.8661  -16.0283  -16.5100 C   0  0  0  0  0  0  0  0  0  0  0  0
   16.1800  -16.4111  -17.8607 N   0  0  0  0  0  0  0  0  0  0  0  0
   17.2024  -10.3526  -14.4907 C   0  0  0  0  0  0  0  0  0  0  0  0
   16.5494   -9.3977  -14.9809 O   0  0  0  0  0  0  0  0  0  0  0  0
   16.9591   -9.6506  -10.8708 C   0  0  0  0  0  0  0  0  0  0  0  0
   17.1381   -9.1542  -12.2608 C   0  0  2  0  0  0  0  0  0  0  0  0
   17.5326  -10.2421  -13.1115 N   0  0  0  0  0  0  0  0  0  0  0  0
   18.0247   -7.9776  -12.3825 C   0  0  0  0  0  0  0  0  0  0  0  0
   17.7180   -6.9154  -11.7771 O   0  0  0  0  0  0  0  0  0  0  0  0
   22.3800   -4.7212  -12.5352 N   0  0  0  0  0  0  0  0  0  0  0  0
   22.2270   -5.7006  -13.5436 C   0  0  0  0  0  0  0  0  0  0  0  0
   22.7494   -5.4810  -14.6617 O   0  0  0  0  0  0  0  0  0  0  0  0
   21.4828   -6.9645  -13.3388 C   0  0  0  0  0  0  0  0  0  0  0  0
   20.0139   -6.7702  -13.3142 C   0  0  2  0  0  0  0  0  0  0  0  0
   19.2196   -7.9353  -13.1387 N   0  0  0  0  0  0  0  0  0  0  0  0
   19.6141   -6.0187  -14.5378 C   0  0  0  0  0  0  0  0  0  0  0  0
   19.1910   -6.5995  -15.6998 O   0  0  0  0  0  0  0  0  0  0  0  0
   19.6737   -4.7650  -14.4882 O   0  0  0  0  0  0  0  0  0  0  0  0
  2  1  1  1
  2  3  1  0
  4  3  1  0
  5  4  1  0
  5  6  1  0
  7  6  1  0
  8  2  1  0
  8  9  2  0
 11 10  1  1
 11 12  1  0
 12  8  1  0
 13 11  1  0
 14 13  2  0
 16 18  1  0
 16 15  1  0
 17 16  2  0
 19 18  1  6
 19 20  1  0
 19 21  1  0
 20 13  1  0
 21 22  1  0
 23 21  2  0
M  END
$$$$
