KAN.pdb
     RDKit          3D

 23 22  0  0  1  0  0  0  0  0999 V2000
   25.9202  -21.9906  -12.3274 N   0  0  0  0  0  0  0  0  0  0  0  0
   26.2336  -20.6048  -12.6196 C   0  0  1  0  0  0  0  0  0  0  0  0
   27.7166  -20.4570  -12.7079 C   0  0  0  0  0  0  0  0  0  0  0  0
   28.3802  -21.1689  -11.5569 C   0  0  0  0  0  0  0  0  0  0  0  0
   29.8595  -20.9703  -11.5056 C   0  0  0  0  0  0  0  0  0  0  0  0
   30.5114  -21.6286  -10.3001 C   0  0  0  0  0  0  0  0  0  0  0  0
   31.9418  -21.5016  -10.3862 N   0  0  0  0  0  0  0  0  0  0  0  0
   25.5679  -20.2519  -13.8968 C   0  0  0  0  0  0  0  0  0  0  0  0
   25.5917  -19.0747  -14.3351 O   0  0  0  0  0  0  0  0  0  0  0  0
   24.5364  -21.8021  -16.9803 C   0  0  0  0  0  0  0  0  0  0  0  0
   24.1296  -20.8861  -15.8821 C   0  0  2  0  0  0  0  0  0  0  0  0
   24.8719  -21.2024  -14.6939 N   0  0  0  0  0  0  0  0  0  0  0  0
   22.6714  -20.8180  -15.6487 C   0  0  0  0  0  0  0  0  0  0  0  0
   21.9051  -20.5995  -16.6254 O   0  0  0  0  0  0  0  0  0  0  0  0
   19.9251  -20.6326  -10.5117 N   0  0  0  0  0  0  0  0  0  0  0  0
   20.6124  -20.6906  -11.7461 C   0  0  0  0  0  0  0  0  0  0  0  0
   21.6709  -20.0292  -11.8622 O   0  0  0  0  0  0  0  0  0  0  0  0
   20.1409  -21.4921  -12.8988 C   0  0  0  0  0  0  0  0  0  0  0  0
   20.6335  -20.9771  -14.1980 C   0  0  2  0  0  0  0  0  0  0  0  0
   22.0411  -20.9802  -14.3926 N   0  0  0  0  0  0  0  0  0  0  0  0
   20.0567  -19.6207  -14.4203 C   0  0  0  0  0  0  0  0  0  0  0  0
   18.7855  -19.3823  -14.8604 O   0  0  0  0  0  0  0  0  0  0  0  0
   20.7979  -18.6346  -14.1842 O   0  0  0  0  0  0  0  0  0  0  0  0
  2  1  1  6
  2  3  1  0
  4  3  1  0
  5  4  1  0
  5  6  1  0
  7  6  1  0
  8  2  1  0
  8  9  2  0
 11 10  1  6
 11 12  1  0
 12  8  1  0
 13 11  1  0
 14 13  2  0
 16 18  1  0
 16 15  1  0
 17 16  2  0
 19 18  1  1
 19 20  1  0
 19 21  1  0
 20 13  1  0
 21 22  1  0
 23 21  2  0
M  END
$$$$
