KAN.pdb
     RDKit          3D

 23 22  0  0  1  0  0  0  0  0999 V2000
   19.2943  -13.9364  -15.7156 N   0  0  0  0  0  0  0  0  0  0  0  0
   19.1441  -12.8415  -16.6550 C   0  0  1  0  0  0  0  0  0  0  0  0
   17.7136  -12.7632  -17.0753 C   0  0  0  0  0  0  0  0  0  0  0  0
   17.3632  -13.9391  -17.9507 C   0  0  0  0  0  0  0  0  0  0  0  0
   15.9544  -13.9156  -18.4456 C   0  0  0  0  0  0  0  0  0  0  0  0
   15.6052  -15.1110  -19.3179 C   0  0  0  0  0  0  0  0  0  0  0  0
   14.2207  -15.0486  -19.7033 N   0  0  0  0  0  0  0  0  0  0  0  0
   19.5870  -11.6004  -15.9750 C   0  0  0  0  0  0  0  0  0  0  0  0
   18.9360  -11.1223  -15.0127 O   0  0  0  0  0  0  0  0  0  0  0  0
   22.5747   -9.3501  -16.1750 C   0  0  0  0  0  0  0  0  0  0  0  0
   21.1643   -9.6274  -15.7952 C   0  0  2  0  0  0  0  0  0  0  0  0
   20.7537  -10.8829  -16.3591 N   0  0  0  0  0  0  0  0  0  0  0  0
   20.2218   -8.5277  -16.0915 C   0  0  0  0  0  0  0  0  0  0  0  0
   19.3280   -8.7061  -16.9622 O   0  0  0  0  0  0  0  0  0  0  0  0
   16.3433   -5.1035  -16.9788 N   0  0  0  0  0  0  0  0  0  0  0  0
   17.0159   -5.3182  -15.7536 C   0  0  0  0  0  0  0  0  0  0  0  0
   16.8638   -4.4711  -14.8423 O   0  0  0  0  0  0  0  0  0  0  0  0
   17.8849   -6.4906  -15.5014 C   0  0  0  0  0  0  0  0  0  0  0  0
   19.3165   -6.2132  -15.7650 C   0  0  2  0  0  0  0  0  0  0  0  0
   20.2333   -7.2577  -15.4685 N   0  0  0  0  0  0  0  0  0  0  0  0
   19.6904   -4.9481  -15.0711 C   0  0  0  0  0  0  0  0  0  0  0  0
   19.1334   -3.7281  -15.3317 O   0  0  0  0  0  0  0  0  0  0  0  0
   20.5802   -5.0179  -14.1874 O   0  0  0  0  0  0  0  0  0  0  0  0
  2  1  1  1
  2  3  1  0
  4  3  1  0
  5  4  1  0
  5  6  1  0
  7  6  1  0
  8  2  1  0
  8  9  2  0
 11 10  1  6
 11 12  1  0
 12  8  1  0
 13 11  1  0
 14 13  2  0
 16 18  1  0
 16 15  1  0
 17 16  2  0
 19 18  1  1
 19 20  1  0
 19 21  1  0
 20 13  1  0
 21 22  1  0
 23 21  2  0
M  END
$$$$
