EMK.pdb
     RDKit          3D

 27 26  0  0  1  0  0  0  0  0999 V2000
    6.9338  -15.8634   20.0460 N   0  0  0  0  0  0  0  0  0  0  0  0
    8.3502  -16.2069   20.1961 C   0  0  1  0  0  0  0  0  0  0  0  0
    9.1424  -15.7180   19.0055 C   0  0  0  0  0  0  0  0  0  0  0  0
    8.2615  -15.1679   17.8991 C   0  0  0  0  0  0  0  0  0  0  0  0
    8.8097  -15.4330   16.5719 C   0  0  0  0  0  0  0  0  0  0  0  0
    9.8705  -16.0775   16.4423 O   0  0  0  0  0  0  0  0  0  0  0  0
    8.8255  -15.6057   21.4758 C   0  0  0  0  0  0  0  0  0  0  0  0
   10.0597  -15.5008   21.7215 O   0  0  0  0  0  0  0  0  0  0  0  0
    8.1596  -14.9699   15.4411 O   0  0  0  0  0  0  0  0  0  0  0  0
    7.0410  -11.1194   27.6878 C   0  0  0  0  0  0  0  0  0  0  0  0
    6.4191  -12.1094   26.3126 S   0  0  0  0  0  0  0  0  0  0  0  0
    7.7366  -13.1134   25.5750 C   0  0  0  0  0  0  0  0  0  0  0  0
    7.2008  -13.8959   24.3901 C   0  0  0  0  0  0  0  0  0  0  0  0
    8.3129  -14.7657   23.7821 C   0  0  2  0  0  0  0  0  0  0  0  0
    7.9008  -15.1337   22.4533 N   0  0  0  0  0  0  0  0  0  0  0  0
    8.6077  -15.9197   24.6404 C   0  0  0  0  0  0  0  0  0  0  0  0
    7.7650  -16.8545   24.6849 O   0  0  0  0  0  0  0  0  0  0  0  0
    9.8021  -15.9868   25.3981 N   0  0  0  0  0  0  0  0  0  0  0  0
   10.2147  -17.2117   26.1124 C   0  0  1  0  0  0  0  0  0  0  0  0
   11.4417  -17.7621   25.4929 C   0  0  0  0  0  0  0  0  0  0  0  0
   12.0473  -18.9486   26.1265 C   0  0  0  0  0  0  0  0  0  0  0  0
   13.2622  -19.5564   25.5259 C   0  0  0  0  0  0  0  0  0  0  0  0
   13.8197  -20.7414   26.2578 C   0  0  0  0  0  0  0  0  0  0  0  0
   14.8529  -21.4690   25.6032 N   0  0  0  0  0  0  0  0  0  0  0  0
   10.2597  -16.9023   27.5205 C   0  0  0  0  0  0  0  0  0  0  0  0
   10.2200  -17.8468   28.4122 O   0  0  0  0  0  0  0  0  0  0  0  0
   10.3528  -15.6433   28.0952 O   0  0  0  0  0  0  0  0  0  0  0  0
  2  1  1  6
  2  3  1  0
  4  3  1  0
  5  4  1  0
  6  5  2  0
  7  2  1  0
  7  8  2  0
  9  5  1  0
 11 10  1  0
 12 11  1  0
 12 13  1  0
 14 13  1  1
 14 15  1  0
 15  7  1  0
 16 14  1  0
 17 16  2  0
 18 16  1  0
 19 25  1  0
 19 18  1  0
 20 21  1  0
 19 20  1  6
 21 22  1  0
 22 23  1  0
 23 24  1  0
 25 27  1  0
 26 25  2  0
M  END
$$$$
