EMK.pdb
     RDKit          3D

 27 26  0  0  1  0  0  0  0  0999 V2000
    8.3835  -13.0208   19.2233 N   0  0  0  0  0  0  0  0  0  0  0  0
    7.6613  -14.0532   19.9711 C   0  0  1  0  0  0  0  0  0  0  0  0
    7.8583  -15.4071   19.3290 C   0  0  0  0  0  0  0  0  0  0  0  0
    7.6947  -15.3718   17.8208 C   0  0  0  0  0  0  0  0  0  0  0  0
    7.7664  -16.7031   17.2251 C   0  0  0  0  0  0  0  0  0  0  0  0
    7.7294  -16.8449   15.9858 O   0  0  0  0  0  0  0  0  0  0  0  0
    8.1558  -14.0184   21.3779 C   0  0  0  0  0  0  0  0  0  0  0  0
    9.3907  -14.0923   21.6310 O   0  0  0  0  0  0  0  0  0  0  0  0
    7.8739  -17.8245   18.0292 O   0  0  0  0  0  0  0  0  0  0  0  0
    7.9034  -11.4157   28.3564 C   0  0  0  0  0  0  0  0  0  0  0  0
    7.3020  -11.5254   26.6581 S   0  0  0  0  0  0  0  0  0  0  0  0
    7.0548  -13.2503   26.1570 C   0  0  0  0  0  0  0  0  0  0  0  0
    6.5992  -13.3178   24.7108 C   0  0  0  0  0  0  0  0  0  0  0  0
    7.6885  -13.9655   23.8409 C   0  0  2  0  0  0  0  0  0  0  0  0
    7.2491  -13.9002   22.4722 N   0  0  0  0  0  0  0  0  0  0  0  0
    7.9816  -15.3309   24.2936 C   0  0  0  0  0  0  0  0  0  0  0  0
    7.1063  -16.2168   24.1065 O   0  0  0  0  0  0  0  0  0  0  0  0
    9.2098  -15.6499   24.9221 N   0  0  0  0  0  0  0  0  0  0  0  0
    9.5864  -17.0378   25.2578 C   0  0  1  0  0  0  0  0  0  0  0  0
   10.8048  -17.4201   24.5085 C   0  0  0  0  0  0  0  0  0  0  0  0
   10.6716  -17.6161   23.0525 C   0  0  0  0  0  0  0  0  0  0  0  0
   11.8597  -18.0224   22.2591 C   0  0  0  0  0  0  0  0  0  0  0  0
   11.6312  -18.1677   20.7836 C   0  0  0  0  0  0  0  0  0  0  0  0
   12.7728  -18.4588   19.9854 N   0  0  0  0  0  0  0  0  0  0  0  0
    9.6269  -17.1440   26.6957 C   0  0  0  0  0  0  0  0  0  0  0  0
    9.7141  -16.0825   27.4405 O   0  0  0  0  0  0  0  0  0  0  0  0
    9.5753  -18.3083   27.4478 O   0  0  0  0  0  0  0  0  0  0  0  0
  2  1  1  6
  2  3  1  0
  4  3  1  0
  5  4  1  0
  6  5  2  0
  7  2  1  0
  7  8  2  0
  9  5  1  0
 11 10  1  0
 12 11  1  0
 12 13  1  0
 14 13  1  1
 14 15  1  0
 15  7  1  0
 16 14  1  0
 17 16  2  0
 18 16  1  0
 19 25  1  0
 19 18  1  0
 20 21  1  0
 19 20  1  6
 21 22  1  0
 22 23  1  0
 23 24  1  0
 25 27  1  0
 26 25  2  0
M  END
$$$$
