EMK.pdb
     RDKit          3D

 27 26  0  0  1  0  0  0  0  0999 V2000
    9.9317  -15.9012   19.9671 N   0  0  0  0  0  0  0  0  0  0  0  0
    8.8548  -16.2027   20.9138 C   0  0  1  0  0  0  0  0  0  0  0  0
    8.5025  -17.6717   20.8642 C   0  0  0  0  0  0  0  0  0  0  0  0
    8.7279  -18.2843   19.4943 C   0  0  0  0  0  0  0  0  0  0  0  0
    8.4553  -19.7187   19.4780 C   0  0  0  0  0  0  0  0  0  0  0  0
    7.2850  -20.1418   19.5711 O   0  0  0  0  0  0  0  0  0  0  0  0
    9.3142  -15.7779   22.2678 C   0  0  0  0  0  0  0  0  0  0  0  0
   10.4955  -16.0068   22.6509 O   0  0  0  0  0  0  0  0  0  0  0  0
    9.4933  -20.6268   19.3613 O   0  0  0  0  0  0  0  0  0  0  0  0
    5.5137  -11.9978   26.1404 C   0  0  0  0  0  0  0  0  0  0  0  0
    7.1197  -11.9063   26.9593 S   0  0  0  0  0  0  0  0  0  0  0  0
    8.2167  -13.2410   26.4088 C   0  0  0  0  0  0  0  0  0  0  0  0
    7.8121  -13.7178   25.0259 C   0  0  0  0  0  0  0  0  0  0  0  0
    8.8287  -14.7438   24.4999 C   0  0  2  0  0  0  0  0  0  0  0  0
    8.4337  -15.1027   23.1635 N   0  0  0  0  0  0  0  0  0  0  0  0
    8.9319  -15.8948   25.4052 C   0  0  0  0  0  0  0  0  0  0  0  0
    7.9764  -16.7148   25.4309 O   0  0  0  0  0  0  0  0  0  0  0  0
   10.0690  -16.0844   26.2276 N   0  0  0  0  0  0  0  0  0  0  0  0
   10.2326  -17.2761   27.0841 C   0  0  1  0  0  0  0  0  0  0  0  0
   11.1473  -18.2396   26.4304 C   0  0  0  0  0  0  0  0  0  0  0  0
   11.2830  -19.5719   27.0490 C   0  0  0  0  0  0  0  0  0  0  0  0
   12.2286  -20.5558   26.4624 C   0  0  0  0  0  0  0  0  0  0  0  0
   12.2429  -21.9057   27.1165 C   0  0  0  0  0  0  0  0  0  0  0  0
   13.0236  -22.9141   26.4847 N   0  0  0  0  0  0  0  0  0  0  0  0
   10.5803  -16.8189   28.4073 C   0  0  0  0  0  0  0  0  0  0  0  0
   10.7675  -17.6637   29.3768 O   0  0  0  0  0  0  0  0  0  0  0  0
   10.7617  -15.5055   28.8150 O   0  0  0  0  0  0  0  0  0  0  0  0
  2  1  1  6
  2  3  1  0
  4  3  1  0
  5  4  1  0
  6  5  2  0
  7  2  1  0
  7  8  2  0
  9  5  1  0
 11 10  1  0
 12 11  1  0
 12 13  1  0
 14 13  1  1
 14 15  1  0
 15  7  1  0
 16 14  1  0
 17 16  2  0
 18 16  1  0
 19 25  1  0
 19 18  1  0
 20 21  1  0
 19 20  1  6
 21 22  1  0
 22 23  1  0
 23 24  1  0
 25 27  1  0
 26 25  2  0
M  END
$$$$
