EMK.pdb
     RDKit          3D

 27 26  0  0  1  0  0  0  0  0999 V2000
    8.7707  -17.7830   21.0170 N   0  0  0  0  0  0  0  0  0  0  0  0
   10.1307  -17.4535   21.4511 C   0  0  1  0  0  0  0  0  0  0  0  0
   10.9539  -16.9601   20.2835 C   0  0  0  0  0  0  0  0  0  0  0  0
   10.2027  -17.0226   18.9665 C   0  0  0  0  0  0  0  0  0  0  0  0
   11.0033  -16.5304   17.8489 C   0  0  0  0  0  0  0  0  0  0  0  0
   12.1644  -16.1136   18.0371 O   0  0  0  0  0  0  0  0  0  0  0  0
   10.0224  -16.4352   22.5356 C   0  0  0  0  0  0  0  0  0  0  0  0
   11.0525  -15.8653   22.9924 O   0  0  0  0  0  0  0  0  0  0  0  0
   10.4820  -16.5184   16.5667 O   0  0  0  0  0  0  0  0  0  0  0  0
    7.1714  -10.8833   26.2984 C   0  0  0  0  0  0  0  0  0  0  0  0
    7.3691  -12.0295   24.9181 S   0  0  0  0  0  0  0  0  0  0  0  0
    6.9937  -13.7319   25.4166 C   0  0  0  0  0  0  0  0  0  0  0  0
    7.1861  -14.6776   24.2452 C   0  0  0  0  0  0  0  0  0  0  0  0
    8.6313  -15.2005   24.2173 C   0  0  2  0  0  0  0  0  0  0  0  0
    8.7552  -16.0783   23.0838 N   0  0  0  0  0  0  0  0  0  0  0  0
    8.9846  -15.8406   25.4903 C   0  0  0  0  0  0  0  0  0  0  0  0
    8.9317  -15.1434   26.5378 O   0  0  0  0  0  0  0  0  0  0  0  0
    9.3736  -17.2011   25.5468 N   0  0  0  0  0  0  0  0  0  0  0  0
    9.6950  -17.8769   26.8198 C   0  0  1  0  0  0  0  0  0  0  0  0
    9.6776  -19.3445   26.6247 C   0  0  0  0  0  0  0  0  0  0  0  0
    9.9940  -20.1874   27.7932 C   0  0  0  0  0  0  0  0  0  0  0  0
   10.0589  -21.6626   27.6327 C   0  0  0  0  0  0  0  0  0  0  0  0
   10.3285  -22.4369   28.8890 C   0  0  0  0  0  0  0  0  0  0  0  0
    9.2423  -22.5798   29.7974 N   0  0  0  0  0  0  0  0  0  0  0  0
   10.9065  -17.2868   27.3341 C   0  0  0  0  0  0  0  0  0  0  0  0
   11.8203  -16.8321   26.5298 O   0  0  0  0  0  0  0  0  0  0  0  0
   11.2523  -17.1200   28.6670 O   0  0  0  0  0  0  0  0  0  0  0  0
  2  1  1  6
  2  3  1  0
  4  3  1  0
  5  4  1  0
  6  5  2  0
  7  2  1  0
  7  8  2  0
  9  5  1  0
 11 10  1  0
 12 11  1  0
 12 13  1  0
 14 13  1  1
 14 15  1  0
 15  7  1  0
 16 14  1  0
 17 16  2  0
 18 16  1  0
 19 25  1  0
 19 18  1  0
 20 21  1  0
 19 20  1  6
 21 22  1  0
 22 23  1  0
 23 24  1  0
 25 27  1  0
 26 25  2  0
M  END
$$$$
