EMK.pdb
     RDKit          3D

 27 26  0  0  1  0  0  0  0  0999 V2000
    6.6315  -16.0064   21.1027 N   0  0  0  0  0  0  0  0  0  0  0  0
    8.0934  -16.0670   21.0257 C   0  0  1  0  0  0  0  0  0  0  0  0
    8.5980  -15.2277   19.8745 C   0  0  0  0  0  0  0  0  0  0  0  0
    8.0248  -15.6589   18.5373 C   0  0  0  0  0  0  0  0  0  0  0  0
    9.0655  -16.0344   17.5843 C   0  0  0  0  0  0  0  0  0  0  0  0
   10.2505  -16.1560   17.9563 O   0  0  0  0  0  0  0  0  0  0  0  0
    8.6323  -15.6068   22.3383 C   0  0  0  0  0  0  0  0  0  0  0  0
    9.8755  -15.5978   22.5594 O   0  0  0  0  0  0  0  0  0  0  0  0
    8.7497  -16.2576   16.2553 O   0  0  0  0  0  0  0  0  0  0  0  0
    6.6152  -11.5958   27.2718 C   0  0  0  0  0  0  0  0  0  0  0  0
    6.3214  -11.3319   25.5105 S   0  0  0  0  0  0  0  0  0  0  0  0
    7.0472  -12.6623   24.5151 C   0  0  0  0  0  0  0  0  0  0  0  0
    7.2165  -13.9151   25.3549 C   0  0  0  0  0  0  0  0  0  0  0  0
    8.2365  -14.8597   24.6990 C   0  0  2  0  0  0  0  0  0  0  0  0
    7.7596  -15.1650   23.3761 N   0  0  0  0  0  0  0  0  0  0  0  0
    8.4590  -16.0515   25.5268 C   0  0  0  0  0  0  0  0  0  0  0  0
    7.6226  -16.9899   25.4498 O   0  0  0  0  0  0  0  0  0  0  0  0
    9.5786  -16.1504   26.3882 N   0  0  0  0  0  0  0  0  0  0  0  0
    9.9677  -17.4209   27.0325 C   0  0  1  0  0  0  0  0  0  0  0  0
   10.7556  -18.2412   26.0846 C   0  0  0  0  0  0  0  0  0  0  0  0
   11.3076  -19.5139   26.5861 C   0  0  0  0  0  0  0  0  0  0  0  0
   12.1628  -20.3396   25.6956 C   0  0  0  0  0  0  0  0  0  0  0  0
   12.7400  -21.5755   26.3201 C   0  0  0  0  0  0  0  0  0  0  0  0
   13.4358  -22.4645   25.4535 N   0  0  0  0  0  0  0  0  0  0  0  0
   10.5748  -17.0996   28.3009 C   0  0  0  0  0  0  0  0  0  0  0  0
   11.0545  -15.9136   28.5291 O   0  0  0  0  0  0  0  0  0  0  0  0
   10.7218  -17.9427   29.3925 O   0  0  0  0  0  0  0  0  0  0  0  0
  2  1  1  1
  2  3  1  0
  4  3  1  0
  5  4  1  0
  6  5  2  0
  7  2  1  0
  7  8  2  0
  9  5  1  0
 11 10  1  0
 12 11  1  0
 12 13  1  0
 14 13  1  1
 14 15  1  0
 15  7  1  0
 16 14  1  0
 17 16  2  0
 18 16  1  0
 19 25  1  0
 19 18  1  0
 20 21  1  0
 19 20  1  6
 21 22  1  0
 22 23  1  0
 23 24  1  0
 25 27  1  0
 26 25  2  0
M  END
$$$$
