EMK.pdb
     RDKit          3D

 27 26  0  0  1  0  0  0  0  0999 V2000
    9.0304  -15.4832   19.1156 N   0  0  0  0  0  0  0  0  0  0  0  0
    7.9086  -15.5990   20.0508 C   0  0  1  0  0  0  0  0  0  0  0  0
    7.2724  -16.9661   19.9475 C   0  0  0  0  0  0  0  0  0  0  0  0
    8.2785  -18.0614   19.6463 C   0  0  0  0  0  0  0  0  0  0  0  0
    7.6544  -19.3790   19.5654 C   0  0  0  0  0  0  0  0  0  0  0  0
    7.5448  -19.9613   18.4672 O   0  0  0  0  0  0  0  0  0  0  0  0
    8.4336  -15.3228   21.4194 C   0  0  0  0  0  0  0  0  0  0  0  0
    9.5988  -15.6809   21.7492 O   0  0  0  0  0  0  0  0  0  0  0  0
    7.1744  -19.9971   20.7071 O   0  0  0  0  0  0  0  0  0  0  0  0
    6.8832  -11.6127   28.2911 C   0  0  0  0  0  0  0  0  0  0  0  0
    6.3215  -12.0919   26.6440 S   0  0  0  0  0  0  0  0  0  0  0  0
    7.4812  -13.2460   25.8625 C   0  0  0  0  0  0  0  0  0  0  0  0
    7.0329  -13.5651   24.4480 C   0  0  0  0  0  0  0  0  0  0  0  0
    8.1049  -14.3977   23.7267 C   0  0  2  0  0  0  0  0  0  0  0  0
    7.6357  -14.6477   22.3895 N   0  0  0  0  0  0  0  0  0  0  0  0
    8.4115  -15.6233   24.4745 C   0  0  0  0  0  0  0  0  0  0  0  0
    7.5750  -16.5640   24.4372 O   0  0  0  0  0  0  0  0  0  0  0  0
    9.6102  -15.7514   25.2173 N   0  0  0  0  0  0  0  0  0  0  0  0
   10.0248  -17.0291   25.8307 C   0  0  1  0  0  0  0  0  0  0  0  0
   11.3069  -17.4746   25.2391 C   0  0  0  0  0  0  0  0  0  0  0  0
   12.0013  -18.5991   25.8945 C   0  0  0  0  0  0  0  0  0  0  0  0
   12.2256  -19.8581   25.1390 C   0  0  0  0  0  0  0  0  0  0  0  0
   13.5054  -20.5769   25.4488 C   0  0  0  0  0  0  0  0  0  0  0  0
   13.4298  -21.6389   26.3932 N   0  0  0  0  0  0  0  0  0  0  0  0
    9.9728  -16.8637   27.2627 C   0  0  0  0  0  0  0  0  0  0  0  0
   10.0781  -17.8873   28.0563 O   0  0  0  0  0  0  0  0  0  0  0  0
    9.8212  -15.6741   27.9598 O   0  0  0  0  0  0  0  0  0  0  0  0
  2  1  1  6
  2  3  1  0
  4  3  1  0
  5  4  1  0
  6  5  2  0
  7  2  1  0
  7  8  2  0
  9  5  1  0
 11 10  1  0
 12 11  1  0
 12 13  1  0
 14 13  1  1
 14 15  1  0
 15  7  1  0
 16 14  1  0
 17 16  2  0
 18 16  1  0
 19 25  1  0
 19 18  1  0
 20 21  1  0
 19 20  1  6
 21 22  1  0
 22 23  1  0
 23 24  1  0
 25 27  1  0
 26 25  2  0
M  END
$$$$
