EMK.pdb
     RDKit          3D

 27 26  0  0  1  0  0  0  0  0999 V2000
    7.1696  -16.8711   21.2430 N   0  0  0  0  0  0  0  0  0  0  0  0
    8.5995  -17.1610   21.3766 C   0  0  1  0  0  0  0  0  0  0  0  0
    9.3294  -16.8258   20.0963 C   0  0  0  0  0  0  0  0  0  0  0  0
    8.4244  -16.2023   19.0498 C   0  0  0  0  0  0  0  0  0  0  0  0
    9.1154  -15.9792   17.7829 C   0  0  0  0  0  0  0  0  0  0  0  0
   10.3121  -16.3063   17.6483 O   0  0  0  0  0  0  0  0  0  0  0  0
    9.1104  -16.3781   22.5390 C   0  0  0  0  0  0  0  0  0  0  0  0
   10.3472  -16.1692   22.6842 O   0  0  0  0  0  0  0  0  0  0  0  0
    8.4507  -15.3996   16.7161 O   0  0  0  0  0  0  0  0  0  0  0  0
    5.9857  -12.1017   26.6610 C   0  0  0  0  0  0  0  0  0  0  0  0
    6.9623  -11.6458   25.2129 S   0  0  0  0  0  0  0  0  0  0  0  0
    7.5395  -13.1139   24.3189 C   0  0  0  0  0  0  0  0  0  0  0  0
    7.6231  -14.3028   25.2585 C   0  0  0  0  0  0  0  0  0  0  0  0
    8.6835  -15.2984   24.7615 C   0  0  2  0  0  0  0  0  0  0  0  0
    8.2173  -15.8453   23.5148 N   0  0  0  0  0  0  0  0  0  0  0  0
    8.9631  -16.3209   25.7771 C   0  0  0  0  0  0  0  0  0  0  0  0
    8.1163  -17.2384   25.9418 O   0  0  0  0  0  0  0  0  0  0  0  0
   10.1478  -16.2836   26.5520 N   0  0  0  0  0  0  0  0  0  0  0  0
   10.5320  -17.3843   27.4583 C   0  0  1  0  0  0  0  0  0  0  0  0
   11.6305  -18.1705   26.8522 C   0  0  0  0  0  0  0  0  0  0  0  0
   11.9395  -19.4806   27.4556 C   0  0  0  0  0  0  0  0  0  0  0  0
   13.0312  -20.3088   26.8825 C   0  0  0  0  0  0  0  0  0  0  0  0
   13.2239  -21.6529   27.5202 C   0  0  0  0  0  0  0  0  0  0  0  0
   14.2216  -22.4933   26.9513 N   0  0  0  0  0  0  0  0  0  0  0  0
   10.7605  -16.8157   28.7641 C   0  0  0  0  0  0  0  0  0  0  0  0
   10.8766  -15.5308   28.9207 O   0  0  0  0  0  0  0  0  0  0  0  0
   10.8752  -17.5018   29.9641 O   0  0  0  0  0  0  0  0  0  0  0  0
  2  1  1  6
  2  3  1  0
  4  3  1  0
  5  4  1  0
  6  5  2  0
  7  2  1  0
  7  8  2  0
  9  5  1  0
 11 10  1  0
 12 11  1  0
 12 13  1  0
 14 13  1  1
 14 15  1  0
 15  7  1  0
 16 14  1  0
 17 16  2  0
 18 16  1  0
 19 25  1  0
 19 18  1  0
 20 21  1  0
 19 20  1  6
 21 22  1  0
 22 23  1  0
 23 24  1  0
 25 27  1  0
 26 25  2  0
M  END
$$$$
