IDT.pdb
     RDKit          3D

 24 23  0  0  1  0  0  0  0  0999 V2000
   17.5721  -14.3206  -17.3822 C   0  0  0  0  0  0  0  0  0  0  0  0
   17.9823  -12.9684  -17.8724 C   0  0  0  0  0  0  0  0  0  0  0  0
   18.6515  -12.1803  -16.7788 C   0  0  2  0  0  0  0  0  0  0  0  0
   17.6334  -12.0064  -15.6555 C   0  0  0  0  0  0  0  0  0  0  0  0
   18.9434  -10.7672  -17.2827 C   0  0  2  0  0  0  0  0  0  0  0  0
   19.6914  -10.9660  -18.5202 N   0  0  0  0  0  0  0  0  0  0  0  0
   19.8196  -10.0484  -16.3085 C   0  0  0  0  0  0  0  0  0  0  0  0
   19.3758   -9.8201  -15.1437 O   0  0  0  0  0  0  0  0  0  0  0  0
   21.1296   -9.6187  -16.6551 N   0  0  0  0  0  0  0  0  0  0  0  0
   21.9303   -8.8986  -15.6870 C   0  0  1  0  0  0  0  0  0  0  0  0
   23.3146   -9.4597  -15.7241 C   0  0  0  0  0  0  0  0  0  0  0  0
   23.3700  -10.8066  -15.0915 C   0  0  0  0  0  0  0  0  0  0  0  0
   22.8341  -10.8959  -13.9285 O   0  0  0  0  0  0  0  0  0  0  0  0
   21.8557   -7.4357  -15.8633 C   0  0  0  0  0  0  0  0  0  0  0  0
   22.1398   -7.0057  -17.0082 O   0  0  0  0  0  0  0  0  0  0  0  0
   23.9415  -11.9281  -15.6614 O   0  0  0  0  0  0  0  0  0  0  0  0
   19.0729   -5.0367  -14.1605 C   0  0  0  0  0  0  0  0  0  0  0  0
   20.0911   -4.5211  -15.1647 C   0  0  1  0  0  0  0  0  0  0  0  0
   20.0795   -3.1336  -15.2749 O   0  0  0  0  0  0  0  0  0  0  0  0
   21.4402   -5.0965  -14.9323 C   0  0  2  0  0  0  0  0  0  0  0  0
   21.4946   -6.5329  -14.8463 N   0  0  0  0  0  0  0  0  0  0  0  0
   22.2047   -4.4581  -13.8336 C   0  0  0  0  0  0  0  0  0  0  0  0
   22.4847   -3.0778  -13.8857 O   0  0  0  0  0  0  0  0  0  0  0  0
   22.6475   -5.0393  -12.8204 O   0  0  0  0  0  0  0  0  0  0  0  0
  2  1  1  0
  3  4  1  1
  3  2  1  0
  5  3  1  0
  5  6  1  6
  7  8  2  0
  7  5  1  0
  9  7  1  0
 10  9  1  0
 10 11  1  6
 12 11  1  0
 13 12  2  0
 14 10  1  0
 15 14  2  0
 16 12  1  0
 18 17  1  1
 19 18  1  0
 20 18  1  0
 20 21  1  1
 21 14  1  0
 22 20  1  0
 23 22  1  0
 24 22  2  0
M  END
$$$$
