IDT.pdb
     RDKit          3D

 24 23  0  0  1  0  0  0  0  0999 V2000
   18.5214  -18.5742  -20.0839 C   0  0  0  0  0  0  0  0  0  0  0  0
   18.6200  -18.3513  -18.6083 C   0  0  0  0  0  0  0  0  0  0  0  0
   19.9286  -17.7005  -18.2491 C   0  0  2  0  0  0  0  0  0  0  0  0
   21.0200  -18.7548  -18.4100 C   0  0  0  0  0  0  0  0  0  0  0  0
   19.9238  -17.3468  -16.7623 C   0  0  2  0  0  0  0  0  0  0  0  0
   19.4825  -18.5680  -16.0957 N   0  0  0  0  0  0  0  0  0  0  0  0
   18.9206  -16.2714  -16.4963 C   0  0  0  0  0  0  0  0  0  0  0  0
   17.7454  -16.6050  -16.1594 O   0  0  0  0  0  0  0  0  0  0  0  0
   19.2516  -14.8937  -16.6106 N   0  0  0  0  0  0  0  0  0  0  0  0
   18.2173  -13.8908  -16.4650 C   0  0  1  0  0  0  0  0  0  0  0  0
   17.5746  -14.0809  -15.1296 C   0  0  0  0  0  0  0  0  0  0  0  0
   16.4964  -13.0799  -14.9003 C   0  0  0  0  0  0  0  0  0  0  0  0
   15.5030  -13.1385  -15.7111 O   0  0  0  0  0  0  0  0  0  0  0  0
   18.7109  -12.5240  -16.7199 C   0  0  0  0  0  0  0  0  0  0  0  0
   19.5865  -12.0999  -15.9264 O   0  0  0  0  0  0  0  0  0  0  0  0
   16.4989  -12.1257  -13.9008 O   0  0  0  0  0  0  0  0  0  0  0  0
   18.9021  -10.8125  -20.5321 C   0  0  0  0  0  0  0  0  0  0  0  0
   18.3616   -9.8903  -19.4512 C   0  0  1  0  0  0  0  0  0  0  0  0
   17.0119   -9.5970  -19.6231 O   0  0  0  0  0  0  0  0  0  0  0  0
   18.7058  -10.3706  -18.0889 C   0  0  2  0  0  0  0  0  0  0  0  0
   18.2630  -11.7035  -17.7716 N   0  0  0  0  0  0  0  0  0  0  0  0
   18.3860   -9.4188  -16.9975 C   0  0  0  0  0  0  0  0  0  0  0  0
   18.8964   -8.1058  -17.0420 O   0  0  0  0  0  0  0  0  0  0  0  0
   17.6802   -9.6675  -15.9972 O   0  0  0  0  0  0  0  0  0  0  0  0
  2  1  1  0
  3  4  1  1
  3  2  1  0
  5  3  1  0
  5  6  1  1
  7  8  2  0
  7  5  1  0
  9  7  1  0
 10  9  1  0
 10 11  1  1
 12 11  1  0
 13 12  2  0
 14 10  1  0
 15 14  2  0
 16 12  1  0
 18 17  1  6
 19 18  1  0
 20 18  1  0
 20 21  1  1
 21 14  1  0
 22 20  1  0
 23 22  1  0
 24 22  2  0
M  END
$$$$
