IDT.pdb
     RDKit          3D

 24 23  0  0  1  0  0  0  0  0999 V2000
   28.3028  -19.9318   -6.4180 C   0  0  0  0  0  0  0  0  0  0  0  0
   28.4018  -20.8908   -7.5614 C   0  0  0  0  0  0  0  0  0  0  0  0
   27.4676  -20.4989   -8.6743 C   0  0  2  0  0  0  0  0  0  0  0  0
   26.0442  -20.7322   -8.1764 C   0  0  0  0  0  0  0  0  0  0  0  0
   27.6490  -21.4622   -9.8470 C   0  0  2  0  0  0  0  0  0  0  0  0
   29.0678  -21.3740  -10.1784 N   0  0  0  0  0  0  0  0  0  0  0  0
   26.8564  -20.9905  -11.0229 C   0  0  0  0  0  0  0  0  0  0  0  0
   27.0747  -19.8279  -11.4776 O   0  0  0  0  0  0  0  0  0  0  0  0
   25.8714  -21.8095  -11.6391 N   0  0  0  0  0  0  0  0  0  0  0  0
   25.1078  -21.2980  -12.7580 C   0  0  1  0  0  0  0  0  0  0  0  0
   25.7225  -21.8225  -14.0148 C   0  0  0  0  0  0  0  0  0  0  0  0
   25.0809  -21.2286  -15.2202 C   0  0  0  0  0  0  0  0  0  0  0  0
   24.1661  -20.3581  -14.9899 O   0  0  0  0  0  0  0  0  0  0  0  0
   23.6617  -21.5593  -12.6262 C   0  0  0  0  0  0  0  0  0  0  0  0
   23.3459  -22.7029  -12.2154 O   0  0  0  0  0  0  0  0  0  0  0  0
   25.4008  -21.5451  -16.5266 O   0  0  0  0  0  0  0  0  0  0  0  0
   21.1288  -19.9116  -10.4093 C   0  0  0  0  0  0  0  0  0  0  0  0
   20.6024  -19.7894  -11.8302 C   0  0  1  0  0  0  0  0  0  0  0  0
   20.6317  -18.4801  -12.3016 O   0  0  0  0  0  0  0  0  0  0  0  0
   21.2368  -20.7737  -12.7435 C   0  0  2  0  0  0  0  0  0  0  0  0
   22.6567  -20.6219  -12.9282 N   0  0  0  0  0  0  0  0  0  0  0  0
   20.5380  -20.9564  -14.0388 C   0  0  0  0  0  0  0  0  0  0  0  0
   19.2092  -21.4258  -14.0570 O   0  0  0  0  0  0  0  0  0  0  0  0
   21.0232  -20.7284  -15.1671 O   0  0  0  0  0  0  0  0  0  0  0  0
  2  1  1  0
  3  4  1  1
  3  2  1  0
  5  3  1  0
  5  6  1  6
  7  8  2  0
  7  5  1  0
  9  7  1  0
 10  9  1  0
 10 11  1  6
 12 11  1  0
 13 12  2  0
 14 10  1  0
 15 14  2  0
 16 12  1  0
 18 17  1  1
 19 18  1  0
 20 18  1  0
 20 21  1  6
 21 14  1  0
 22 20  1  0
 23 22  1  0
 24 22  2  0
M  END
$$$$
