IDT.pdb
     RDKit          3D

 24 23  0  0  1  0  0  0  0  0999 V2000
   19.0097  -16.0644  -17.3947 C   0  0  0  0  0  0  0  0  0  0  0  0
   17.8384  -15.3593  -16.7883 C   0  0  0  0  0  0  0  0  0  0  0  0
   17.9434  -13.8715  -16.9895 C   0  0  2  0  0  0  0  0  0  0  0  0
   19.1299  -13.3836  -16.1633 C   0  0  0  0  0  0  0  0  0  0  0  0
   16.7181  -13.1929  -16.3779 C   0  0  2  0  0  0  0  0  0  0  0  0
   15.5962  -13.6668  -17.1824 N   0  0  0  0  0  0  0  0  0  0  0  0
   16.8231  -11.7104  -16.5360 C   0  0  0  0  0  0  0  0  0  0  0  0
   16.9880  -11.2321  -17.6978 O   0  0  0  0  0  0  0  0  0  0  0  0
   16.7422  -10.8311  -15.4220 N   0  0  0  0  0  0  0  0  0  0  0  0
   17.0260   -9.4218  -15.5957 C   0  0  1  0  0  0  0  0  0  0  0  0
   15.8273   -8.6508  -15.1473 C   0  0  0  0  0  0  0  0  0  0  0  0
   16.0185   -7.1877  -15.3480 C   0  0  0  0  0  0  0  0  0  0  0  0
   17.1998   -6.8249  -15.6953 O   0  0  0  0  0  0  0  0  0  0  0  0
   18.2923   -9.0142  -14.9577 C   0  0  0  0  0  0  0  0  0  0  0  0
   18.3387   -9.1277  -13.7082 O   0  0  0  0  0  0  0  0  0  0  0  0
   15.0350   -6.2300  -15.1906 O   0  0  0  0  0  0  0  0  0  0  0  0
   21.9806  -10.1775  -15.6882 C   0  0  0  0  0  0  0  0  0  0  0  0
   21.8736   -8.6665  -15.8162 C   0  0  1  0  0  0  0  0  0  0  0  0
   21.9916   -8.2309  -17.1329 O   0  0  0  0  0  0  0  0  0  0  0  0
   20.6822   -8.1327  -15.1086 C   0  0  2  0  0  0  0  0  0  0  0  0
   19.4093   -8.5222  -15.6578 N   0  0  0  0  0  0  0  0  0  0  0  0
   20.7292   -6.6773  -14.8280 C   0  0  0  0  0  0  0  0  0  0  0  0
   21.7835   -6.1467  -14.0577 O   0  0  0  0  0  0  0  0  0  0  0  0
   19.8964   -5.8324  -15.2192 O   0  0  0  0  0  0  0  0  0  0  0  0
  2  1  1  0
  3  4  1  1
  3  2  1  0
  5  3  1  0
  5  6  1  6
  7  8  2  0
  7  5  1  0
  9  7  1  0
 10  9  1  0
 10 11  1  1
 12 11  1  0
 13 12  2  0
 14 10  1  0
 15 14  2  0
 16 12  1  0
 18 17  1  6
 19 18  1  0
 20 18  1  0
 20 21  1  6
 21 14  1  0
 22 20  1  0
 23 22  1  0
 24 22  2  0
M  END
$$$$
