IDT.pdb
     RDKit          3D

 24 23  0  0  1  0  0  0  0  0999 V2000
   12.3802   -9.7418   -8.8298 C   0  0  0  0  0  0  0  0  0  0  0  0
   13.4741  -10.2253   -9.7279 C   0  0  0  0  0  0  0  0  0  0  0  0
   14.3797   -9.0926  -10.1300 C   0  0  2  0  0  0  0  0  0  0  0  0
   13.5570   -8.1352  -10.9873 C   0  0  0  0  0  0  0  0  0  0  0  0
   15.4733   -9.6260  -11.0549 C   0  0  2  0  0  0  0  0  0  0  0  0
   16.3150  -10.4488  -10.1917 N   0  0  0  0  0  0  0  0  0  0  0  0
   16.2952   -8.4937  -11.5802 C   0  0  0  0  0  0  0  0  0  0  0  0
   17.0318   -7.8507  -10.7741 O   0  0  0  0  0  0  0  0  0  0  0  0
   16.2710   -8.1246  -12.9527 N   0  0  0  0  0  0  0  0  0  0  0  0
   16.9991   -6.9541  -13.3960 C   0  0  1  0  0  0  0  0  0  0  0  0
   17.6910   -7.2977  -14.6749 C   0  0  0  0  0  0  0  0  0  0  0  0
   18.7805   -8.2880  -14.4520 C   0  0  0  0  0  0  0  0  0  0  0  0
   19.2913   -8.2954  -13.2744 O   0  0  0  0  0  0  0  0  0  0  0  0
   16.1515   -5.7483  -13.4611 C   0  0  0  0  0  0  0  0  0  0  0  0
   15.1215   -5.8393  -14.1732 O   0  0  0  0  0  0  0  0  0  0  0  0
   19.2573   -9.1705  -15.4023 O   0  0  0  0  0  0  0  0  0  0  0  0
   14.0013   -4.0215  -11.0220 C   0  0  0  0  0  0  0  0  0  0  0  0
   15.0314   -2.9948  -11.4644 C   0  0  1  0  0  0  0  0  0  0  0  0
   15.9619   -2.7068  -10.4701 O   0  0  0  0  0  0  0  0  0  0  0  0
   15.6371   -3.3452  -12.7742 C   0  0  2  0  0  0  0  0  0  0  0  0
   16.4328   -4.5453  -12.7876 N   0  0  0  0  0  0  0  0  0  0  0  0
   16.3328   -2.2257  -13.4540 C   0  0  0  0  0  0  0  0  0  0  0  0
   15.6107   -1.0720  -13.8199 O   0  0  0  0  0  0  0  0  0  0  0  0
   17.5458   -2.1943  -13.7507 O   0  0  0  0  0  0  0  0  0  0  0  0
  2  1  1  0
  3  4  1  6
  3  2  1  0
  5  3  1  0
  5  6  1  1
  7  8  2  0
  7  5  1  0
  9  7  1  0
 10  9  1  0
 10 11  1  6
 12 11  1  0
 13 12  2  0
 14 10  1  0
 15 14  2  0
 16 12  1  0
 18 17  1  1
 19 18  1  0
 20 18  1  0
 20 21  1  1
 21 14  1  0
 22 20  1  0
 23 22  1  0
 24 22  2  0
M  END
$$$$
