IDT.pdb
     RDKit          3D

 24 23  0  0  1  0  0  0  0  0999 V2000
   25.5656  -14.0586  -16.7365 C   0  0  0  0  0  0  0  0  0  0  0  0
   24.1379  -14.0500  -16.2910 C   0  0  0  0  0  0  0  0  0  0  0  0
   23.5044  -12.7081  -16.5420 C   0  0  2  0  0  0  0  0  0  0  0  0
   24.1728  -11.7073  -15.6039 C   0  0  0  0  0  0  0  0  0  0  0  0
   22.0397  -12.7536  -16.1082 C   0  0  2  0  0  0  0  0  0  0  0  0
   21.4148  -13.7028  -17.0241 N   0  0  0  0  0  0  0  0  0  0  0  0
   21.4063  -11.4146  -16.3069 C   0  0  0  0  0  0  0  0  0  0  0  0
   21.1740  -11.0202  -17.4886 O   0  0  0  0  0  0  0  0  0  0  0  0
   21.0600  -10.5798  -15.2097 N   0  0  0  0  0  0  0  0  0  0  0  0
   20.4652   -9.2821  -15.4526 C   0  0  1  0  0  0  0  0  0  0  0  0
   19.0361   -9.3412  -15.0205 C   0  0  0  0  0  0  0  0  0  0  0  0
   18.3513   -8.0364  -15.2350 C   0  0  0  0  0  0  0  0  0  0  0  0
   17.9271   -7.4513  -14.1741 O   0  0  0  0  0  0  0  0  0  0  0  0
   21.2424   -8.1796  -14.8548 C   0  0  0  0  0  0  0  0  0  0  0  0
   21.7356   -8.4067  -13.7228 O   0  0  0  0  0  0  0  0  0  0  0  0
   18.1532   -7.4368  -16.4640 O   0  0  0  0  0  0  0  0  0  0  0  0
   23.8914   -6.0016  -16.9485 C   0  0  0  0  0  0  0  0  0  0  0  0
   22.9986   -5.1093  -16.1013 C   0  0  1  0  0  0  0  0  0  0  0  0
   22.1441   -4.3231  -16.8688 O   0  0  0  0  0  0  0  0  0  0  0  0
   22.3144   -5.8703  -15.0252 C   0  0  2  0  0  0  0  0  0  0  0  0
   21.4492   -6.9316  -15.4708 N   0  0  0  0  0  0  0  0  0  0  0  0
   21.6561   -5.0305  -13.9953 C   0  0  0  0  0  0  0  0  0  0  0  0
   20.2609   -5.1116  -13.8132 O   0  0  0  0  0  0  0  0  0  0  0  0
   22.2321   -4.2218  -13.2372 O   0  0  0  0  0  0  0  0  0  0  0  0
  2  1  1  0
  3  4  1  1
  3  2  1  0
  5  3  1  0
  5  6  1  6
  7  8  2  0
  7  5  1  0
  9  7  1  0
 10  9  1  0
 10 11  1  1
 12 11  1  0
 13 12  2  0
 14 10  1  0
 15 14  2  0
 16 12  1  0
 18 17  1  6
 19 18  1  0
 20 18  1  0
 20 21  1  6
 21 14  1  0
 22 20  1  0
 23 22  1  0
 24 22  2  0
M  END
$$$$
