IDT.pdb
     RDKit          3D

 24 23  0  0  1  0  0  0  0  0999 V2000
   28.3923  -11.8235  -16.1430 C   0  0  0  0  0  0  0  0  0  0  0  0
   26.9717  -12.2872  -16.0824 C   0  0  0  0  0  0  0  0  0  0  0  0
   26.0230  -11.1499  -16.3495 C   0  0  2  0  0  0  0  0  0  0  0  0
   26.1761  -10.1519  -15.2054 C   0  0  0  0  0  0  0  0  0  0  0  0
   24.5854  -11.6596  -16.2521 C   0  0  2  0  0  0  0  0  0  0  0  0
   24.5101  -12.7357  -17.2354 N   0  0  0  0  0  0  0  0  0  0  0  0
   23.6326  -10.5809  -16.6547 C   0  0  0  0  0  0  0  0  0  0  0  0
   23.7397  -10.0743  -17.8113 O   0  0  0  0  0  0  0  0  0  0  0  0
   22.6161  -10.1141  -15.7774 N   0  0  0  0  0  0  0  0  0  0  0  0
   21.7059   -9.0776  -16.2178 C   0  0  1  0  0  0  0  0  0  0  0  0
   20.3105   -9.5699  -16.0106 C   0  0  0  0  0  0  0  0  0  0  0  0
   20.0699  -10.8413  -16.7474 C   0  0  0  0  0  0  0  0  0  0  0  0
   20.2193  -10.7814  -18.0209 O   0  0  0  0  0  0  0  0  0  0  0  0
   21.9934   -7.7688  -15.6005 C   0  0  0  0  0  0  0  0  0  0  0  0
   22.3252   -7.7941  -14.3898 O   0  0  0  0  0  0  0  0  0  0  0  0
   19.7100  -12.0409  -16.1637 O   0  0  0  0  0  0  0  0  0  0  0  0
   23.3814   -3.0513  -15.8600 C   0  0  0  0  0  0  0  0  0  0  0  0
   23.1899   -4.4276  -16.4766 C   0  0  1  0  0  0  0  0  0  0  0  0
   24.3942   -5.0941  -16.6836 O   0  0  0  0  0  0  0  0  0  0  0  0
   22.1759   -5.2276  -15.7438 C   0  0  2  0  0  0  0  0  0  0  0  0
   21.9160   -6.5388  -16.2794 N   0  0  0  0  0  0  0  0  0  0  0  0
   20.9162   -4.5051  -15.4434 C   0  0  0  0  0  0  0  0  0  0  0  0
   19.8598   -4.5227  -16.3763 O   0  0  0  0  0  0  0  0  0  0  0  0
   20.6801   -3.8528  -14.4046 O   0  0  0  0  0  0  0  0  0  0  0  0
  2  1  1  0
  3  4  1  1
  3  2  1  0
  5  3  1  0
  5  6  1  6
  7  8  2  0
  7  5  1  0
  9  7  1  0
 10  9  1  0
 10 11  1  1
 12 11  1  0
 13 12  2  0
 14 10  1  0
 15 14  2  0
 16 12  1  0
 18 17  1  1
 19 18  1  0
 20 18  1  0
 20 21  1  6
 21 14  1  0
 22 20  1  0
 23 22  1  0
 24 22  2  0
M  END
$$$$
