IDT.pdb
     RDKit          3D

 24 23  0  0  1  0  0  0  0  0999 V2000
   29.0377  -21.0232   -9.6479 C   0  0  0  0  0  0  0  0  0  0  0  0
   28.9042  -21.2326  -11.1227 C   0  0  0  0  0  0  0  0  0  0  0  0
   27.5620  -20.7607  -11.6135 C   0  0  2  0  0  0  0  0  0  0  0  0
   26.5192  -21.7555  -11.1123 C   0  0  0  0  0  0  0  0  0  0  0  0
   27.5187  -20.8626  -13.1378 C   0  0  2  0  0  0  0  0  0  0  0  0
   28.5252  -19.9109  -13.5981 N   0  0  0  0  0  0  0  0  0  0  0  0
   26.1826  -20.4215  -13.6416 C   0  0  0  0  0  0  0  0  0  0  0  0
   25.8640  -19.1998  -13.5333 O   0  0  0  0  0  0  0  0  0  0  0  0
   25.2680  -21.3334  -14.2356 N   0  0  0  0  0  0  0  0  0  0  0  0
   23.9756  -20.8634  -14.6888 C   0  0  1  0  0  0  0  0  0  0  0  0
   23.7101  -21.4651  -16.0304 C   0  0  0  0  0  0  0  0  0  0  0  0
   22.4485  -20.9379  -16.6202 C   0  0  0  0  0  0  0  0  0  0  0  0
   21.4820  -21.7783  -16.7052 O   0  0  0  0  0  0  0  0  0  0  0  0
   22.9090  -21.0860  -13.6940 C   0  0  0  0  0  0  0  0  0  0  0  0
   23.1592  -21.9326  -12.8013 O   0  0  0  0  0  0  0  0  0  0  0  0
   22.2607  -19.6430  -17.0643 O   0  0  0  0  0  0  0  0  0  0  0  0
   19.8071  -19.7179  -10.4643 C   0  0  0  0  0  0  0  0  0  0  0  0
   21.0118  -19.8594  -11.3806 C   0  0  1  0  0  0  0  0  0  0  0  0
   22.0931  -20.4714  -10.7532 O   0  0  0  0  0  0  0  0  0  0  0  0
   20.6480  -20.4680  -12.6854 C   0  0  2  0  0  0  0  0  0  0  0  0
   21.6701  -20.4189  -13.6985 N   0  0  0  0  0  0  0  0  0  0  0  0
   19.3323  -20.0428  -13.2216 C   0  0  0  0  0  0  0  0  0  0  0  0
   19.2546  -19.4546  -14.5001 O   0  0  0  0  0  0  0  0  0  0  0  0
   18.2353  -20.1552  -12.6347 O   0  0  0  0  0  0  0  0  0  0  0  0
  2  1  1  0
  3  4  1  1
  3  2  1  0
  5  3  1  0
  5  6  1  6
  7  8  2  0
  7  5  1  0
  9  7  1  0
 10  9  1  0
 10 11  1  6
 12 11  1  0
 13 12  2  0
 14 10  1  0
 15 14  2  0
 16 12  1  0
 18 17  1  1
 19 18  1  0
 20 18  1  0
 20 21  1  6
 21 14  1  0
 22 20  1  0
 23 22  1  0
 24 22  2  0
M  END
$$$$
