IDT.pdb
     RDKit          3D

 24 23  0  0  1  0  0  0  0  0999 V2000
   26.5982  -15.2097  -15.6013 C   0  0  0  0  0  0  0  0  0  0  0  0
   25.1298  -15.1482  -15.3238 C   0  0  0  0  0  0  0  0  0  0  0  0
   24.5419  -13.8560  -15.8233 C   0  0  2  0  0  0  0  0  0  0  0  0
   25.1451  -12.7296  -14.9891 C   0  0  0  0  0  0  0  0  0  0  0  0
   23.0452  -13.8311  -15.5148 C   0  0  2  0  0  0  0  0  0  0  0  0
   22.5055  -14.9886  -16.2214 N   0  0  0  0  0  0  0  0  0  0  0  0
   22.4266  -12.5958  -16.0849 C   0  0  0  0  0  0  0  0  0  0  0  0
   22.4544  -12.4246  -17.3402 O   0  0  0  0  0  0  0  0  0  0  0  0
   21.8118  -11.6163  -15.2583 N   0  0  0  0  0  0  0  0  0  0  0  0
   21.2888  -10.4020  -15.8489 C   0  0  1  0  0  0  0  0  0  0  0  0
   19.8011  -10.5243  -15.9148 C   0  0  0  0  0  0  0  0  0  0  0  0
   19.1811   -9.2926  -16.4766 C   0  0  0  0  0  0  0  0  0  0  0  0
   19.6091   -8.9333  -17.6322 O   0  0  0  0  0  0  0  0  0  0  0  0
   21.7756   -9.1851  -15.1715 C   0  0  0  0  0  0  0  0  0  0  0  0
   22.0286   -9.3024  -13.9473 O   0  0  0  0  0  0  0  0  0  0  0  0
   18.2050   -8.5398  -15.8522 O   0  0  0  0  0  0  0  0  0  0  0  0
   23.2355   -4.3755  -15.4539 C   0  0  0  0  0  0  0  0  0  0  0  0
   22.7755   -5.6363  -16.1679 C   0  0  1  0  0  0  0  0  0  0  0  0
   23.6547   -6.0351  -17.1706 O   0  0  0  0  0  0  0  0  0  0  0  0
   22.4198   -6.7164  -15.2129 C   0  0  2  0  0  0  0  0  0  0  0  0
   21.9626   -7.9448  -15.8090 N   0  0  0  0  0  0  0  0  0  0  0  0
   21.5365   -6.2924  -14.0996 C   0  0  0  0  0  0  0  0  0  0  0  0
   22.1023   -5.8128  -12.9011 O   0  0  0  0  0  0  0  0  0  0  0  0
   20.2876   -6.3159  -14.1107 O   0  0  0  0  0  0  0  0  0  0  0  0
  2  1  1  0
  3  4  1  1
  3  2  1  0
  5  3  1  0
  5  6  1  6
  7  8  2  0
  7  5  1  0
  9  7  1  0
 10  9  1  0
 10 11  1  1
 12 11  1  0
 13 12  2  0
 14 10  1  0
 15 14  2  0
 16 12  1  0
 18 17  1  1
 19 18  1  0
 20 18  1  0
 20 21  1  6
 21 14  1  0
 22 20  1  0
 23 22  1  0
 24 22  2  0
M  END
$$$$
