IDT.pdb
     RDKit          3D

 24 23  0  0  1  0  0  0  0  0999 V2000
   12.7239  -10.0892   -8.1207 C   0  0  0  0  0  0  0  0  0  0  0  0
   12.3203  -10.3127   -9.5433 C   0  0  0  0  0  0  0  0  0  0  0  0
   13.5277  -10.5030  -10.4213 C   0  0  2  0  0  0  0  0  0  0  0  0
   14.3376   -9.2108  -10.3668 C   0  0  0  0  0  0  0  0  0  0  0  0
   13.0770  -10.6371  -11.8755 C   0  0  2  0  0  0  0  0  0  0  0  0
   12.4763  -11.9652  -11.9527 N   0  0  0  0  0  0  0  0  0  0  0  0
   14.2634  -10.5990  -12.7836 C   0  0  0  0  0  0  0  0  0  0  0  0
   14.9135  -11.6686  -12.9813 O   0  0  0  0  0  0  0  0  0  0  0  0
   14.6760   -9.4002  -13.4266 N   0  0  0  0  0  0  0  0  0  0  0  0
   15.7924   -9.4257  -14.3484 C   0  0  1  0  0  0  0  0  0  0  0  0
   15.2713   -9.1121  -15.7132 C   0  0  0  0  0  0  0  0  0  0  0  0
   16.3569   -9.1595  -16.7313 C   0  0  0  0  0  0  0  0  0  0  0  0
   17.1044  -10.2024  -16.6973 O   0  0  0  0  0  0  0  0  0  0  0  0
   16.9129   -8.5729  -13.9080 C   0  0  0  0  0  0  0  0  0  0  0  0
   16.6346   -7.7027  -13.0468 O   0  0  0  0  0  0  0  0  0  0  0  0
   16.5991   -8.1836  -17.6791 O   0  0  0  0  0  0  0  0  0  0  0  0
   21.7655   -7.5593  -13.5460 C   0  0  0  0  0  0  0  0  0  0  0  0
   20.6618   -8.5152  -13.9694 C   0  0  1  0  0  0  0  0  0  0  0  0
   20.6323   -9.6741  -13.1991 O   0  0  0  0  0  0  0  0  0  0  0  0
   19.3484   -7.8316  -14.0813 C   0  0  2  0  0  0  0  0  0  0  0  0
   18.2301   -8.6847  -14.3898 N   0  0  0  0  0  0  0  0  0  0  0  0
   19.3534   -6.6159  -14.9306 C   0  0  0  0  0  0  0  0  0  0  0  0
   19.3063   -5.3420  -14.3295 O   0  0  0  0  0  0  0  0  0  0  0  0
   19.3969   -6.5992  -16.1789 O   0  0  0  0  0  0  0  0  0  0  0  0
  2  1  1  0
  3  4  1  6
  3  2  1  0
  5  3  1  0
  5  6  1  1
  7  8  2  0
  7  5  1  0
  9  7  1  0
 10  9  1  0
 10 11  1  6
 12 11  1  0
 13 12  2  0
 14 10  1  0
 15 14  2  0
 16 12  1  0
 18 17  1  1
 19 18  1  0
 20 18  1  0
 20 21  1  6
 21 14  1  0
 22 20  1  0
 23 22  1  0
 24 22  2  0
M  END
$$$$
