IDT.pdb
     RDKit          3D

 24 23  0  0  1  0  0  0  0  0999 V2000
   31.0985  -20.8531  -11.4699 C   0  0  0  0  0  0  0  0  0  0  0  0
   30.1485  -20.0791  -12.3273 C   0  0  0  0  0  0  0  0  0  0  0  0
   28.8785  -20.8534  -12.5570 C   0  0  2  0  0  0  0  0  0  0  0  0
   29.2372  -22.0766  -13.3958 C   0  0  0  0  0  0  0  0  0  0  0  0
   27.9353  -20.0264  -13.4301 C   0  0  2  0  0  0  0  0  0  0  0  0
   27.9703  -18.6898  -12.8445 N   0  0  0  0  0  0  0  0  0  0  0  0
   26.5421  -20.5563  -13.3213 C   0  0  0  0  0  0  0  0  0  0  0  0
   26.2132  -21.5541  -14.0297 O   0  0  0  0  0  0  0  0  0  0  0  0
   25.5850  -19.9722  -12.4476 N   0  0  0  0  0  0  0  0  0  0  0  0
   24.2527  -20.5328  -12.3617 C   0  0  1  0  0  0  0  0  0  0  0  0
   23.8625  -20.5771  -10.9201 C   0  0  0  0  0  0  0  0  0  0  0  0
   24.8264  -21.3850  -10.1229 C   0  0  0  0  0  0  0  0  0  0  0  0
   25.2708  -22.4438  -10.6966 O   0  0  0  0  0  0  0  0  0  0  0  0
   23.2877  -19.8419  -13.2381 C   0  0  0  0  0  0  0  0  0  0  0  0
   23.3456  -18.5877  -13.2370 O   0  0  0  0  0  0  0  0  0  0  0  0
   25.2584  -21.0739   -8.8478 O   0  0  0  0  0  0  0  0  0  0  0  0
   23.0802  -19.4114  -16.7483 C   0  0  0  0  0  0  0  0  0  0  0  0
   21.7445  -20.0504  -16.4040 C   0  0  1  0  0  0  0  0  0  0  0  0
   21.6393  -21.3569  -16.8722 O   0  0  0  0  0  0  0  0  0  0  0  0
   21.4102  -19.8964  -14.9654 C   0  0  2  0  0  0  0  0  0  0  0  0
   22.3402  -20.4981  -14.0453 N   0  0  0  0  0  0  0  0  0  0  0  0
   20.0084  -20.2315  -14.6161 C   0  0  0  0  0  0  0  0  0  0  0  0
   18.9495  -19.5070  -15.1995 O   0  0  0  0  0  0  0  0  0  0  0  0
   19.6491  -21.1281  -13.8240 O   0  0  0  0  0  0  0  0  0  0  0  0
  2  1  1  0
  3  4  1  6
  3  2  1  0
  5  3  1  0
  5  6  1  1
  7  8  2  0
  7  5  1  0
  9  7  1  0
 10  9  1  0
 10 11  1  1
 12 11  1  0
 13 12  2  0
 14 10  1  0
 15 14  2  0
 16 12  1  0
 18 17  1  1
 19 18  1  0
 20 18  1  0
 20 21  1  1
 21 14  1  0
 22 20  1  0
 23 22  1  0
 24 22  2  0
M  END
$$$$
