IDT.pdb
     RDKit          3D

 24 23  0  0  1  0  0  0  0  0999 V2000
   23.7154    2.1049    0.5956 C   0  0  0  0  0  0  0  0  0  0  0  0
   24.0780    0.9871   -0.3296 C   0  0  0  0  0  0  0  0  0  0  0  0
   24.6346    1.5187   -1.6229 C   0  0  2  0  0  0  0  0  0  0  0  0
   23.4980    2.2345   -2.3470 C   0  0  0  0  0  0  0  0  0  0  0  0
   25.0157    0.3467   -2.5268 C   0  0  2  0  0  0  0  0  0  0  0  0
   26.1487   -0.2820   -1.8547 N   0  0  0  0  0  0  0  0  0  0  0  0
   25.4740    0.8545   -3.8556 C   0  0  0  0  0  0  0  0  0  0  0  0
   26.5834    1.4629   -3.9254 O   0  0  0  0  0  0  0  0  0  0  0  0
   24.7008    0.6714   -5.0343 N   0  0  0  0  0  0  0  0  0  0  0  0
   25.1542    1.2379   -6.2874 C   0  0  1  0  0  0  0  0  0  0  0  0
   25.3549    0.1172   -7.2550 C   0  0  0  0  0  0  0  0  0  0  0  0
   25.7713    0.6240   -8.5917 C   0  0  0  0  0  0  0  0  0  0  0  0
   26.7310    1.4764   -8.5878 O   0  0  0  0  0  0  0  0  0  0  0  0
   24.2755    2.3189   -6.7735 C   0  0  0  0  0  0  0  0  0  0  0  0
   23.0420    2.1220   -6.6472 O   0  0  0  0  0  0  0  0  0  0  0  0
   25.2083    0.2441   -9.7951 O   0  0  0  0  0  0  0  0  0  0  0  0
   25.5213    6.3823   -6.9998 C   0  0  0  0  0  0  0  0  0  0  0  0
   24.0871    5.8786   -7.0144 C   0  0  1  0  0  0  0  0  0  0  0  0
   23.1742    6.8715   -7.3580 O   0  0  0  0  0  0  0  0  0  0  0  0
   23.9457    4.6295   -7.8049 C   0  0  2  0  0  0  0  0  0  0  0  0
   24.7377    3.5159   -7.3508 N   0  0  0  0  0  0  0  0  0  0  0  0
   24.0551    4.8099   -9.2728 C   0  0  0  0  0  0  0  0  0  0  0  0
   23.2551    5.7722   -9.9212 O   0  0  0  0  0  0  0  0  0  0  0  0
   24.8151    4.1711  -10.0309 O   0  0  0  0  0  0  0  0  0  0  0  0
  2  1  1  0
  3  4  1  6
  3  2  1  0
  5  3  1  0
  5  6  1  1
  7  8  2  0
  7  5  1  0
  9  7  1  0
 10  9  1  0
 10 11  1  6
 12 11  1  0
 13 12  2  0
 14 10  1  0
 15 14  2  0
 16 12  1  0
 18 17  1  6
 19 18  1  0
 20 18  1  0
 20 21  1  1
 21 14  1  0
 22 20  1  0
 23 22  1  0
 24 22  2  0
M  END
$$$$
