IDT.pdb
     RDKit          3D

 24 23  0  0  1  0  0  0  0  0999 V2000
   28.0255  -20.6609   -4.7522 C   0  0  0  0  0  0  0  0  0  0  0  0
   26.9935  -20.0611   -5.6532 C   0  0  0  0  0  0  0  0  0  0  0  0
   27.1781  -20.5319   -7.0707 C   0  0  2  0  0  0  0  0  0  0  0  0
   28.5574  -20.0663   -7.5284 C   0  0  0  0  0  0  0  0  0  0  0  0
   26.1845  -19.8051   -7.9764 C   0  0  2  0  0  0  0  0  0  0  0  0
   24.8726  -20.2236   -7.4924 N   0  0  0  0  0  0  0  0  0  0  0  0
   26.3419  -20.2734   -9.3869 C   0  0  0  0  0  0  0  0  0  0  0  0
   27.4171  -20.0048  -10.0013 O   0  0  0  0  0  0  0  0  0  0  0  0
   25.3216  -21.0083  -10.0500 N   0  0  0  0  0  0  0  0  0  0  0  0
   25.4641  -21.3304  -11.4546 C   0  0  1  0  0  0  0  0  0  0  0  0
   24.4203  -22.3405  -11.8048 C   0  0  0  0  0  0  0  0  0  0  0  0
   24.5187  -22.7476  -13.2337 C   0  0  0  0  0  0  0  0  0  0  0  0
   23.6452  -22.2306  -14.0195 O   0  0  0  0  0  0  0  0  0  0  0  0
   25.4717  -20.1316  -12.3147 C   0  0  0  0  0  0  0  0  0  0  0  0
   24.7273  -19.1891  -11.9489 O   0  0  0  0  0  0  0  0  0  0  0  0
   25.4620  -23.6165  -13.7481 O   0  0  0  0  0  0  0  0  0  0  0  0
   27.6472  -17.2780  -15.7386 C   0  0  0  0  0  0  0  0  0  0  0  0
   27.6410  -18.5750  -14.9456 C   0  0  1  0  0  0  0  0  0  0  0  0
   28.6824  -18.6448  -14.0248 O   0  0  0  0  0  0  0  0  0  0  0  0
   26.3043  -18.8655  -14.3678 C   0  0  2  0  0  0  0  0  0  0  0  0
   26.2452  -19.9998  -13.4826 N   0  0  0  0  0  0  0  0  0  0  0  0
   25.1955  -18.8879  -15.3524 C   0  0  0  0  0  0  0  0  0  0  0  0
   25.0453  -19.9945  -16.2122 O   0  0  0  0  0  0  0  0  0  0  0  0
   24.3413  -17.9899  -15.5086 O   0  0  0  0  0  0  0  0  0  0  0  0
  2  1  1  0
  3  4  1  6
  3  2  1  0
  5  3  1  0
  5  6  1  1
  7  8  2  0
  7  5  1  0
  9  7  1  0
 10  9  1  0
 10 11  1  6
 12 11  1  0
 13 12  2  0
 14 10  1  0
 15 14  2  0
 16 12  1  0
 18 17  1  1
 19 18  1  0
 20 18  1  0
 20 21  1  6
 21 14  1  0
 22 20  1  0
 23 22  1  0
 24 22  2  0
M  END
$$$$
