IDT.pdb
     RDKit          3D

 24 23  0  0  1  0  0  0  0  0999 V2000
   28.5682  -21.2298   -7.8618 C   0  0  0  0  0  0  0  0  0  0  0  0
   27.3368  -20.5675   -8.3928 C   0  0  0  0  0  0  0  0  0  0  0  0
   27.1055  -20.9380   -9.8330 C   0  0  2  0  0  0  0  0  0  0  0  0
   28.3325  -20.4883  -10.6209 C   0  0  0  0  0  0  0  0  0  0  0  0
   25.9446  -20.1117  -10.3855 C   0  0  2  0  0  0  0  0  0  0  0  0
   24.7754  -20.5833   -9.6498 N   0  0  0  0  0  0  0  0  0  0  0  0
   25.7469  -20.4142  -11.8357 C   0  0  0  0  0  0  0  0  0  0  0  0
   26.6350  -20.0456  -12.6611 O   0  0  0  0  0  0  0  0  0  0  0  0
   24.5952  -21.1013  -12.3071 N   0  0  0  0  0  0  0  0  0  0  0  0
   24.3879  -21.2656  -13.7307 C   0  0  1  0  0  0  0  0  0  0  0  0
   23.6453  -22.5444  -13.9445 C   0  0  0  0  0  0  0  0  0  0  0  0
   23.3429  -22.7603  -15.3865 C   0  0  0  0  0  0  0  0  0  0  0  0
   24.3488  -23.0592  -16.1258 O   0  0  0  0  0  0  0  0  0  0  0  0
   23.7656  -20.0824  -14.3548 C   0  0  0  0  0  0  0  0  0  0  0  0
   22.8195  -19.5590  -13.7165 O   0  0  0  0  0  0  0  0  0  0  0  0
   22.0882  -22.6638  -15.9573 O   0  0  0  0  0  0  0  0  0  0  0  0
   25.7251  -16.9776  -15.9523 C   0  0  0  0  0  0  0  0  0  0  0  0
   24.6720  -17.5068  -16.9124 C   0  0  1  0  0  0  0  0  0  0  0  0
   25.2274  -18.1079  -18.0383 O   0  0  0  0  0  0  0  0  0  0  0  0
   23.6597  -18.3435  -16.2193 C   0  0  2  0  0  0  0  0  0  0  0  0
   24.1674  -19.5330  -15.5863 N   0  0  0  0  0  0  0  0  0  0  0  0
   22.4429  -18.6310  -17.0169 C   0  0  0  0  0  0  0  0  0  0  0  0
   22.2692  -19.9051  -17.5939 O   0  0  0  0  0  0  0  0  0  0  0  0
   21.5128  -17.8282  -17.2424 O   0  0  0  0  0  0  0  0  0  0  0  0
  2  1  1  0
  3  4  1  6
  3  2  1  0
  5  3  1  0
  5  6  1  1
  7  8  2  0
  7  5  1  0
  9  7  1  0
 10  9  1  0
 10 11  1  1
 12 11  1  0
 13 12  2  0
 14 10  1  0
 15 14  2  0
 16 12  1  0
 18 17  1  1
 19 18  1  0
 20 18  1  0
 20 21  1  6
 21 14  1  0
 22 20  1  0
 23 22  1  0
 24 22  2  0
M  END
$$$$
