DMK.pdb
     RDKit          3D

 26 25  0  0  1  0  0  0  0  0999 V2000
    9.1847  -15.9808   19.2122 N   0  0  0  0  0  0  0  0  0  0  0  0
    8.2212  -16.0270   20.2803 C   0  0  1  0  0  0  0  0  0  0  0  0
    7.6517  -17.4477   20.2893 C   0  0  0  0  0  0  0  0  0  0  0  0
    8.7930  -18.3727   20.1338 C   0  0  0  0  0  0  0  0  0  0  0  0
    9.7157  -18.0738   19.3451 O   0  0  0  0  0  0  0  0  0  0  0  0
    8.8203  -15.6888   21.5960 C   0  0  0  0  0  0  0  0  0  0  0  0
   10.0584  -15.7967   21.7954 O   0  0  0  0  0  0  0  0  0  0  0  0
    8.8620  -19.5542   20.8370 O   0  0  0  0  0  0  0  0  0  0  0  0
    6.7512  -11.3173   27.8648 C   0  0  0  0  0  0  0  0  0  0  0  0
    6.3080  -12.1723   26.3442 S   0  0  0  0  0  0  0  0  0  0  0  0
    7.6813  -13.2605   25.8024 C   0  0  0  0  0  0  0  0  0  0  0  0
    7.3732  -13.9272   24.4977 C   0  0  0  0  0  0  0  0  0  0  0  0
    8.4814  -14.7822   23.9345 C   0  0  2  0  0  0  0  0  0  0  0  0
    7.9635  -15.2383   22.6312 N   0  0  0  0  0  0  0  0  0  0  0  0
    8.7505  -15.9090   24.8144 C   0  0  0  0  0  0  0  0  0  0  0  0
    7.8397  -16.8163   24.8864 O   0  0  0  0  0  0  0  0  0  0  0  0
    9.8800  -16.1654   25.6100 N   0  0  0  0  0  0  0  0  0  0  0  0
   10.0675  -17.4580   26.3169 C   0  0  1  0  0  0  0  0  0  0  0  0
   11.3004  -18.1349   25.7592 C   0  0  0  0  0  0  0  0  0  0  0  0
   11.5604  -19.4421   26.4209 C   0  0  0  0  0  0  0  0  0  0  0  0
   12.8542  -20.0712   25.8877 C   0  0  0  0  0  0  0  0  0  0  0  0
   13.0192  -21.4282   26.5658 C   0  0  0  0  0  0  0  0  0  0  0  0
   14.1874  -22.1033   26.0321 N   0  0  0  0  0  0  0  0  0  0  0  0
   10.2783  -17.1501   27.7293 C   0  0  0  0  0  0  0  0  0  0  0  0
   10.2888  -18.1461   28.6783 O   0  0  0  0  0  0  0  0  0  0  0  0
   10.4531  -15.9733   28.1047 O   0  0  0  0  0  0  0  0  0  0  0  0
  2  1  1  6
  2  3  1  0
  3  4  1  0
  4  8  1  0
  5  4  2  0
  6  2  1  0
  7  6  2  0
  9 10  1  0
 10 11  1  0
 11 12  1  0
 13 12  1  1
 13 15  1  0
 13 14  1  0
 14  6  1  0
 15 16  2  0
 17 18  1  0
 17 15  1  0
 19 20  1  0
 18 19  1  6
 21 20  1  0
 22 21  1  0
 23 22  1  0
 24 18  1  0
 25 24  1  0
 26 24  2  0
M  END
$$$$
