DMK.pdb
     RDKit          3D

 26 25  0  0  1  0  0  0  0  0999 V2000
    7.5713  -16.4957   20.8985 N   0  0  0  0  0  0  0  0  0  0  0  0
    8.9781  -16.5563   21.1963 C   0  0  1  0  0  0  0  0  0  0  0  0
    9.6992  -15.8932   20.0203 C   0  0  0  0  0  0  0  0  0  0  0  0
   10.4397  -16.9566   19.3110 C   0  0  0  0  0  0  0  0  0  0  0  0
   10.1153  -18.1500   19.4936 O   0  0  0  0  0  0  0  0  0  0  0  0
    9.3144  -15.8782   22.4735 C   0  0  0  0  0  0  0  0  0  0  0  0
   10.5040  -15.8026   22.8778 O   0  0  0  0  0  0  0  0  0  0  0  0
   11.4771  -16.6623   18.4552 O   0  0  0  0  0  0  0  0  0  0  0  0
    7.9818  -11.0953   26.2167 C   0  0  0  0  0  0  0  0  0  0  0  0
    6.5793  -12.1188   26.6912 S   0  0  0  0  0  0  0  0  0  0  0  0
    6.9755  -13.8931   26.4492 C   0  0  0  0  0  0  0  0  0  0  0  0
    7.1380  -14.2278   24.9989 C   0  0  0  0  0  0  0  0  0  0  0  0
    8.4478  -14.8805   24.6320 C   0  0  2  0  0  0  0  0  0  0  0  0
    8.2609  -15.3128   23.2345 N   0  0  0  0  0  0  0  0  0  0  0  0
    8.7097  -16.0172   25.5012 C   0  0  0  0  0  0  0  0  0  0  0  0
    7.8006  -16.9277   25.5515 O   0  0  0  0  0  0  0  0  0  0  0  0
    9.8306  -16.2804   26.3068 N   0  0  0  0  0  0  0  0  0  0  0  0
    9.9737  -17.5489   27.0657 C   0  0  1  0  0  0  0  0  0  0  0  0
   10.8627  -18.4833   26.2745 C   0  0  0  0  0  0  0  0  0  0  0  0
   11.0430  -19.7900   26.9631 C   0  0  0  0  0  0  0  0  0  0  0  0
   11.8864  -20.7423   26.1053 C   0  0  0  0  0  0  0  0  0  0  0  0
   12.0562  -22.0398   26.8904 C   0  0  0  0  0  0  0  0  0  0  0  0
   12.8073  -22.9962   26.0988 N   0  0  0  0  0  0  0  0  0  0  0  0
   10.6191  -17.2214   28.3347 C   0  0  0  0  0  0  0  0  0  0  0  0
   10.6796  -18.1396   29.3573 O   0  0  0  0  0  0  0  0  0  0  0  0
   11.1300  -16.0980   28.5173 O   0  0  0  0  0  0  0  0  0  0  0  0
  2  1  1  6
  2  3  1  0
  3  4  1  0
  4  8  1  0
  5  4  2  0
  6  2  1  0
  7  6  2  0
  9 10  1  0
 10 11  1  0
 11 12  1  0
 13 12  1  1
 13 15  1  0
 13 14  1  0
 14  6  1  0
 15 16  2  0
 17 18  1  0
 17 15  1  0
 19 20  1  0
 18 19  1  6
 21 20  1  0
 22 21  1  0
 23 22  1  0
 24 18  1  0
 25 24  1  0
 26 24  2  0
M  END
$$$$
