DMK.pdb
     RDKit          3D

 26 25  0  0  1  0  0  0  0  0999 V2000
    8.4811  -16.2148   20.6337 N   0  0  0  0  0  0  0  0  0  0  0  0
    9.7257  -16.5745   21.2607 C   0  0  1  0  0  0  0  0  0  0  0  0
   10.8357  -16.1466   20.2977 C   0  0  0  0  0  0  0  0  0  0  0  0
   10.6988  -16.9761   19.0829 C   0  0  0  0  0  0  0  0  0  0  0  0
    9.7054  -17.7260   18.9666 O   0  0  0  0  0  0  0  0  0  0  0  0
    9.8973  -15.9286   22.5863 C   0  0  0  0  0  0  0  0  0  0  0  0
   11.0273  -15.5374   22.9794 O   0  0  0  0  0  0  0  0  0  0  0  0
   11.6397  -16.9412   18.0786 O   0  0  0  0  0  0  0  0  0  0  0  0
    6.3340  -11.8920   27.1647 C   0  0  0  0  0  0  0  0  0  0  0  0
    7.6470  -12.1294   25.9566 S   0  0  0  0  0  0  0  0  0  0  0  0
    7.1203  -13.3273   24.6714 C   0  0  0  0  0  0  0  0  0  0  0  0
    7.4356  -14.7357   25.0697 C   0  0  0  0  0  0  0  0  0  0  0  0
    8.8414  -15.1911   24.7651 C   0  0  2  0  0  0  0  0  0  0  0  0
    8.7542  -15.7595   23.4071 N   0  0  0  0  0  0  0  0  0  0  0  0
    9.2694  -16.1953   25.7266 C   0  0  0  0  0  0  0  0  0  0  0  0
    8.4842  -17.2009   25.9001 O   0  0  0  0  0  0  0  0  0  0  0  0
   10.4373  -16.2378   26.5070 N   0  0  0  0  0  0  0  0  0  0  0  0
   10.7785  -17.4125   27.3492 C   0  0  1  0  0  0  0  0  0  0  0  0
   12.2418  -17.7390   27.1463 C   0  0  0  0  0  0  0  0  0  0  0  0
   12.6853  -18.8572   28.0222 C   0  0  0  0  0  0  0  0  0  0  0  0
   13.8033  -19.6628   27.3477 C   0  0  0  0  0  0  0  0  0  0  0  0
   14.1800  -20.8036   28.2886 C   0  0  0  0  0  0  0  0  0  0  0  0
   15.1288  -21.6850   27.6341 N   0  0  0  0  0  0  0  0  0  0  0  0
   10.5545  -17.0252   28.7399 C   0  0  0  0  0  0  0  0  0  0  0  0
   10.5801  -17.9597   29.7492 O   0  0  0  0  0  0  0  0  0  0  0  0
   10.3342  -15.8348   29.0411 O   0  0  0  0  0  0  0  0  0  0  0  0
  2  1  1  6
  2  3  1  0
  3  4  1  0
  4  8  1  0
  5  4  2  0
  6  2  1  0
  7  6  2  0
  9 10  1  0
 10 11  1  0
 11 12  1  0
 13 12  1  1
 13 15  1  0
 13 14  1  0
 14  6  1  0
 15 16  2  0
 17 18  1  0
 17 15  1  0
 19 20  1  0
 18 19  1  1
 21 20  1  0
 22 21  1  0
 23 22  1  0
 24 18  1  0
 25 24  1  0
 26 24  2  0
M  END
$$$$
