DMK.pdb
     RDKit          3D

 26 25  0  0  1  0  0  0  0  0999 V2000
    9.0609  -16.6199   20.4428 N   0  0  0  0  0  0  0  0  0  0  0  0
   10.2053  -16.8682   21.2797 C   0  0  1  0  0  0  0  0  0  0  0  0
   11.4279  -16.3823   20.4975 C   0  0  0  0  0  0  0  0  0  0  0  0
   11.4208  -17.0887   19.2000 C   0  0  0  0  0  0  0  0  0  0  0  0
   10.5442  -17.9530   18.9823 O   0  0  0  0  0  0  0  0  0  0  0  0
   10.1068  -16.1775   22.5901 C   0  0  0  0  0  0  0  0  0  0  0  0
   11.1014  -16.0887   23.3565 O   0  0  0  0  0  0  0  0  0  0  0  0
   12.3566  -16.8162   18.2278 O   0  0  0  0  0  0  0  0  0  0  0  0
    6.8856  -11.3267   27.1286 C   0  0  0  0  0  0  0  0  0  0  0  0
    7.6101  -12.2069   25.7356 S   0  0  0  0  0  0  0  0  0  0  0  0
    6.7431  -13.8011   25.4696 C   0  0  0  0  0  0  0  0  0  0  0  0
    7.2234  -14.4883   24.2291 C   0  0  0  0  0  0  0  0  0  0  0  0
    8.6631  -14.9386   24.2593 C   0  0  2  0  0  0  0  0  0  0  0  0
    8.8607  -15.6151   22.9639 N   0  0  0  0  0  0  0  0  0  0  0  0
    8.8855  -15.8543   25.3676 C   0  0  0  0  0  0  0  0  0  0  0  0
    8.1160  -16.8848   25.4291 O   0  0  0  0  0  0  0  0  0  0  0  0
    9.8366  -15.7859   26.3998 N   0  0  0  0  0  0  0  0  0  0  0  0
   10.0662  -16.9172   27.3343 C   0  0  1  0  0  0  0  0  0  0  0  0
   11.2389  -17.7276   26.8272 C   0  0  0  0  0  0  0  0  0  0  0  0
   11.5577  -18.8647   27.7325 C   0  0  0  0  0  0  0  0  0  0  0  0
   12.7996  -19.6183   27.2387 C   0  0  0  0  0  0  0  0  0  0  0  0
   13.1153  -20.7049   28.2625 C   0  0  0  0  0  0  0  0  0  0  0  0
   14.1848  -21.5501   27.7653 N   0  0  0  0  0  0  0  0  0  0  0  0
   10.3989  -16.3408   28.6349 C   0  0  0  0  0  0  0  0  0  0  0  0
   10.4798  -17.1286   29.7598 O   0  0  0  0  0  0  0  0  0  0  0  0
   10.6167  -15.1181   28.7519 O   0  0  0  0  0  0  0  0  0  0  0  0
  2  1  1  6
  2  3  1  0
  3  4  1  0
  4  8  1  0
  5  4  2  0
  6  2  1  0
  7  6  2  0
  9 10  1  0
 10 11  1  0
 11 12  1  0
 13 12  1  6
 13 15  1  0
 13 14  1  0
 14  6  1  0
 15 16  2  0
 17 18  1  0
 17 15  1  0
 19 20  1  0
 18 19  1  6
 21 20  1  0
 22 21  1  0
 23 22  1  0
 24 18  1  0
 25 24  1  0
 26 24  2  0
M  END
$$$$
