DMK.pdb
     RDKit          3D

 26 25  0  0  1  0  0  0  0  0999 V2000
    9.7370  -15.9032   19.5400 N   0  0  0  0  0  0  0  0  0  0  0  0
    8.8025  -16.4138   20.5083 C   0  0  1  0  0  0  0  0  0  0  0  0
    8.9438  -17.9377   20.4853 C   0  0  0  0  0  0  0  0  0  0  0  0
    8.4009  -18.4036   19.1929 C   0  0  0  0  0  0  0  0  0  0  0  0
    9.1907  -18.7937   18.3059 O   0  0  0  0  0  0  0  0  0  0  0  0
    9.0531  -15.8798   21.8707 C   0  0  0  0  0  0  0  0  0  0  0  0
   10.2083  -15.8849   22.3705 O   0  0  0  0  0  0  0  0  0  0  0  0
    7.0468  -18.4174   18.9448 O   0  0  0  0  0  0  0  0  0  0  0  0
    7.3335  -11.6220   27.6068 C   0  0  0  0  0  0  0  0  0  0  0  0
    7.7016  -12.3921   26.0221 S   0  0  0  0  0  0  0  0  0  0  0  0
    6.5868  -13.8198   25.7340 C   0  0  0  0  0  0  0  0  0  0  0  0
    6.7257  -14.3543   24.3423 C   0  0  0  0  0  0  0  0  0  0  0  0
    8.1097  -14.8249   23.9690 C   0  0  2  0  0  0  0  0  0  0  0  0
    7.9568  -15.3598   22.6032 N   0  0  0  0  0  0  0  0  0  0  0  0
    8.5600  -15.8581   24.8887 C   0  0  0  0  0  0  0  0  0  0  0  0
    7.7968  -16.8867   25.0207 O   0  0  0  0  0  0  0  0  0  0  0  0
    9.7290  -15.9073   25.6670 N   0  0  0  0  0  0  0  0  0  0  0  0
   10.0990  -17.1100   26.4558 C   0  0  1  0  0  0  0  0  0  0  0  0
   11.5549  -17.4268   26.1925 C   0  0  0  0  0  0  0  0  0  0  0  0
   12.0457  -18.5320   27.0595 C   0  0  0  0  0  0  0  0  0  0  0  0
   12.4454  -19.7476   26.2130 C   0  0  0  0  0  0  0  0  0  0  0  0
   12.8928  -20.8479   27.1710 C   0  0  0  0  0  0  0  0  0  0  0  0
   13.2588  -22.0333   26.4184 N   0  0  0  0  0  0  0  0  0  0  0  0
    9.9219  -16.7717   27.8659 C   0  0  0  0  0  0  0  0  0  0  0  0
    9.8227  -17.7542   28.8238 O   0  0  0  0  0  0  0  0  0  0  0  0
    9.8563  -15.5806   28.2309 O   0  0  0  0  0  0  0  0  0  0  0  0
  2  1  1  6
  2  3  1  0
  3  4  1  0
  4  8  1  0
  5  4  2  0
  6  2  1  0
  7  6  2  0
  9 10  1  0
 10 11  1  0
 11 12  1  0
 13 12  1  1
 13 15  1  0
 13 14  1  0
 14  6  1  0
 15 16  2  0
 17 18  1  0
 17 15  1  0
 19 20  1  0
 18 19  1  1
 21 20  1  0
 22 21  1  0
 23 22  1  0
 24 18  1  0
 25 24  1  0
 26 24  2  0
M  END
$$$$
