DMK.pdb
     RDKit          3D

 26 25  0  0  1  0  0  0  0  0999 V2000
    7.0761  -16.2011   20.0883 N   0  0  0  0  0  0  0  0  0  0  0  0
    8.4267  -16.6122   20.3679 C   0  0  1  0  0  0  0  0  0  0  0  0
    9.2489  -16.2764   19.1213 C   0  0  0  0  0  0  0  0  0  0  0  0
    8.6159  -16.9749   17.9838 C   0  0  0  0  0  0  0  0  0  0  0  0
    8.6748  -18.2223   17.9265 O   0  0  0  0  0  0  0  0  0  0  0  0
    8.9851  -15.9384   21.5672 C   0  0  0  0  0  0  0  0  0  0  0  0
   10.2215  -15.9462   21.8028 O   0  0  0  0  0  0  0  0  0  0  0  0
    7.9642  -16.2832   16.9878 O   0  0  0  0  0  0  0  0  0  0  0  0
    6.6666  -10.8898   27.2374 C   0  0  0  0  0  0  0  0  0  0  0  0
    6.3144  -11.8202   25.7373 S   0  0  0  0  0  0  0  0  0  0  0  0
    7.6286  -13.0637   25.4363 C   0  0  0  0  0  0  0  0  0  0  0  0
    7.4296  -13.7698   24.1311 C   0  0  0  0  0  0  0  0  0  0  0  0
    8.5324  -14.7223   23.7402 C   0  0  2  0  0  0  0  0  0  0  0  0
    8.0910  -15.2806   22.4486 N   0  0  0  0  0  0  0  0  0  0  0  0
    8.6781  -15.7684   24.7404 C   0  0  0  0  0  0  0  0  0  0  0  0
    7.6973  -16.5941   24.8602 O   0  0  0  0  0  0  0  0  0  0  0  0
    9.7521  -16.0231   25.6102 N   0  0  0  0  0  0  0  0  0  0  0  0
    9.8884  -17.3118   26.3357 C   0  0  1  0  0  0  0  0  0  0  0  0
   10.9937  -18.1140   25.6845 C   0  0  0  0  0  0  0  0  0  0  0  0
   11.2125  -19.4145   26.3737 C   0  0  0  0  0  0  0  0  0  0  0  0
   12.3886  -20.1709   25.7421 C   0  0  0  0  0  0  0  0  0  0  0  0
   12.4934  -21.5237   26.4404 C   0  0  0  0  0  0  0  0  0  0  0  0
   13.5338  -22.3183   25.8147 N   0  0  0  0  0  0  0  0  0  0  0  0
   10.2633  -16.9942   27.7115 C   0  0  0  0  0  0  0  0  0  0  0  0
   10.6236  -15.7161   28.0711 O   0  0  0  0  0  0  0  0  0  0  0  0
   10.2646  -17.8790   28.5909 O   0  0  0  0  0  0  0  0  0  0  0  0
  2  1  1  6
  2  3  1  0
  3  4  1  0
  4  8  1  0
  5  4  2  0
  6  2  1  0
  7  6  2  0
  9 10  1  0
 10 11  1  0
 11 12  1  0
 13 12  1  1
 13 15  1  0
 13 14  1  0
 14  6  1  0
 15 16  2  0
 17 18  1  0
 17 15  1  0
 19 20  1  0
 18 19  1  6
 21 20  1  0
 22 21  1  0
 23 22  1  0
 24 18  1  0
 25 24  1  0
 26 24  2  0
M  END
$$$$
