PEH.pdb
     RDKit          3D

 27 28  0  0  1  0  0  0  0  0999 V2000
    9.4370  -14.2058   18.9399 N   0  0  0  0  0  0  0  0  0  0  0  0
    8.8686  -13.6968   17.7316 C   0  0  0  0  0  0  0  0  0  0  0  0
    7.6066  -12.9490   18.0508 C   0  0  0  0  0  0  0  0  0  0  0  0
    7.3219  -13.2963   19.4728 C   0  0  0  0  0  0  0  0  0  0  0  0
    8.6400  -13.7180   20.0273 C   0  0  1  0  0  0  0  0  0  0  0  0
    8.3877  -14.7984   21.0482 C   0  0  0  0  0  0  0  0  0  0  0  0
    7.5238  -14.6706   21.9507 O   0  0  0  0  0  0  0  0  0  0  0  0
    9.1268  -16.0133   21.0263 N   0  0  0  0  0  0  0  0  0  0  0  0
    8.9440  -17.0872   22.0061 C   0  0  1  0  0  0  0  0  0  0  0  0
    9.7363  -18.2853   21.6434 C   0  0  0  0  0  0  0  0  0  0  0  0
    9.6449  -19.4510   22.5817 C   0  0  0  0  0  0  0  0  0  0  0  0
   10.4852  -20.5865   22.0848 C   0  0  0  0  0  0  0  0  0  0  0  0
   10.0366  -21.2805   21.1496 O   0  0  0  0  0  0  0  0  0  0  0  0
    9.2774  -16.6147   23.3633 C   0  0  0  0  0  0  0  0  0  0  0  0
   10.3719  -16.0343   23.5477 O   0  0  0  0  0  0  0  0  0  0  0  0
   11.7035  -20.8500   22.6413 O   0  0  0  0  0  0  0  0  0  0  0  0
    8.4438  -16.7719   24.4774 N   0  0  0  0  0  0  0  0  0  0  0  0
    8.9117  -16.3162   25.7832 C   0  0  1  0  0  0  0  0  0  0  0  0
    7.7897  -15.8255   26.6309 C   0  0  0  0  0  0  0  0  0  0  0  0
    7.3027  -14.5262   26.1461 C   0  0  0  0  0  0  0  0  0  0  0  0
    7.9656  -13.7313   25.2042 C   0  0  0  0  0  0  0  0  0  0  0  0
    7.2540  -12.6173   24.9846 N   0  0  0  0  0  0  0  0  0  0  0  0
    6.1586  -12.6670   25.7499 C   0  0  0  0  0  0  0  0  0  0  0  0
    6.1969  -13.8337   26.4542 N   0  0  0  0  0  0  0  0  0  0  0  0
    9.6370  -17.4015   26.4775 C   0  0  0  0  0  0  0  0  0  0  0  0
    9.7697  -18.5180   25.9644 O   0  0  0  0  0  0  0  0  0  0  0  0
   10.1818  -17.1396   27.7504 O   0  0  0  0  0  0  0  0  0  0  0  0
  1  2  1  0
  1  5  1  0
  2  3  1  0
  3  4  1  0
  5  4  1  0
  5  6  1  1
  6  7  2  0
  8  6  1  0
  9  8  1  0
  9 10  1  6
 11 10  1  0
 12 11  1  0
 12 13  2  0
 14  9  1  0
 15 14  2  0
 16 12  1  0
 17 14  1  0
 18 25  1  0
 18 17  1  0
 19 20  1  0
 18 19  1  1
 20 21  2  0
 22 21  1  0
 23 22  1  0
 24 23  2  0
 24 20  1  0
 25 27  1  0
 26 25  2  0
M  END
$$$$
