PEH.pdb
     RDKit          3D

 27 28  0  0  1  0  0  0  0  0999 V2000
    9.3433  -14.3062   18.9128 N   0  0  0  0  0  0  0  0  0  0  0  0
    8.6935  -13.8437   17.7270 C   0  0  0  0  0  0  0  0  0  0  0  0
    7.5197  -12.9870   18.1038 C   0  0  0  0  0  0  0  0  0  0  0  0
    7.3537  -13.2126   19.5685 C   0  0  0  0  0  0  0  0  0  0  0  0
    8.6897  -13.6877   20.0289 C   0  0  1  0  0  0  0  0  0  0  0  0
    8.4693  -14.6732   21.1485 C   0  0  0  0  0  0  0  0  0  0  0  0
    7.7005  -14.4249   22.1100 O   0  0  0  0  0  0  0  0  0  0  0  0
    9.1311  -15.9320   21.1566 N   0  0  0  0  0  0  0  0  0  0  0  0
    8.8343  -16.9938   22.1215 C   0  0  1  0  0  0  0  0  0  0  0  0
    9.4668  -18.2730   21.7235 C   0  0  0  0  0  0  0  0  0  0  0  0
    9.2442  -19.4377   22.6408 C   0  0  0  0  0  0  0  0  0  0  0  0
    9.9279  -20.6586   22.1076 C   0  0  0  0  0  0  0  0  0  0  0  0
   10.5470  -20.5580   21.0287 O   0  0  0  0  0  0  0  0  0  0  0  0
    9.2465  -16.5919   23.4798 C   0  0  0  0  0  0  0  0  0  0  0  0
   10.3700  -16.0608   23.6365 O   0  0  0  0  0  0  0  0  0  0  0  0
    9.8726  -21.8425   22.7850 O   0  0  0  0  0  0  0  0  0  0  0  0
    8.4582  -16.7649   24.6242 N   0  0  0  0  0  0  0  0  0  0  0  0
    9.0067  -16.3950   25.9258 C   0  0  1  0  0  0  0  0  0  0  0  0
    7.9624  -15.8281   26.8236 C   0  0  0  0  0  0  0  0  0  0  0  0
    7.4969  -14.5273   26.3219 C   0  0  0  0  0  0  0  0  0  0  0  0
    8.3333  -13.5278   25.8121 C   0  0  0  0  0  0  0  0  0  0  0  0
    7.5916  -12.4746   25.4427 N   0  0  0  0  0  0  0  0  0  0  0  0
    6.3101  -12.7603   25.6958 C   0  0  0  0  0  0  0  0  0  0  0  0
    6.2621  -14.0132   26.2315 N   0  0  0  0  0  0  0  0  0  0  0  0
    9.6476  -17.5640   26.5652 C   0  0  0  0  0  0  0  0  0  0  0  0
    9.6947  -18.6618   25.9995 O   0  0  0  0  0  0  0  0  0  0  0  0
   10.2110  -17.4048   27.8469 O   0  0  0  0  0  0  0  0  0  0  0  0
  1  2  1  0
  1  5  1  0
  2  3  1  0
  3  4  1  0
  5  4  1  0
  5  6  1  1
  6  7  2  0
  8  6  1  0
  9  8  1  0
  9 10  1  6
 11 10  1  0
 12 11  1  0
 12 13  2  0
 14  9  1  0
 15 14  2  0
 16 12  1  0
 17 14  1  0
 18 25  1  0
 18 17  1  0
 19 20  1  0
 18 19  1  1
 20 21  2  0
 22 21  1  0
 23 22  1  0
 24 23  2  0
 24 20  1  0
 25 27  1  0
 26 25  2  0
M  END
$$$$
