PEH.pdb
     RDKit          3D

 27 28  0  0  1  0  0  0  0  0999 V2000
    9.4081  -14.4812   19.0380 N   0  0  0  0  0  0  0  0  0  0  0  0
    8.8056  -14.1637   17.7817 C   0  0  0  0  0  0  0  0  0  0  0  0
    7.6580  -13.2216   18.0033 C   0  0  0  0  0  0  0  0  0  0  0  0
    7.4483  -13.2368   19.4796 C   0  0  0  0  0  0  0  0  0  0  0  0
    8.7531  -13.6915   20.0394 C   0  0  1  0  0  0  0  0  0  0  0  0
    8.4671  -14.5044   21.2766 C   0  0  0  0  0  0  0  0  0  0  0  0
    7.7014  -14.0897   22.1814 O   0  0  0  0  0  0  0  0  0  0  0  0
    9.0606  -15.7830   21.4658 N   0  0  0  0  0  0  0  0  0  0  0  0
    8.9939  -16.5252   22.7272 C   0  0  1  0  0  0  0  0  0  0  0  0
    9.1290  -17.9829   22.5001 C   0  0  0  0  0  0  0  0  0  0  0  0
   10.2348  -18.4126   21.5835 C   0  0  0  0  0  0  0  0  0  0  0  0
   10.2978  -19.9069   21.5084 C   0  0  0  0  0  0  0  0  0  0  0  0
    9.4141  -20.5599   22.1000 O   0  0  0  0  0  0  0  0  0  0  0  0
   10.0128  -16.0335   23.6741 C   0  0  0  0  0  0  0  0  0  0  0  0
   11.1690  -16.5118   23.6177 O   0  0  0  0  0  0  0  0  0  0  0  0
   11.2933  -20.5302   20.8127 O   0  0  0  0  0  0  0  0  0  0  0  0
    9.7749  -15.0546   24.6467 N   0  0  0  0  0  0  0  0  0  0  0  0
    9.3606  -15.4694   25.9839 C   0  0  1  0  0  0  0  0  0  0  0  0
    7.8800  -15.5921   26.0895 C   0  0  0  0  0  0  0  0  0  0  0  0
    7.2523  -14.2645   26.1510 C   0  0  0  0  0  0  0  0  0  0  0  0
    7.9504  -13.0530   26.0927 C   0  0  0  0  0  0  0  0  0  0  0  0
    7.0815  -12.0361   26.1736 N   0  0  0  0  0  0  0  0  0  0  0  0
    5.8514  -12.5490   26.2816 C   0  0  0  0  0  0  0  0  0  0  0  0
    5.9653  -13.9075   26.2670 N   0  0  0  0  0  0  0  0  0  0  0  0
   10.0044  -16.7496   26.3482 C   0  0  0  0  0  0  0  0  0  0  0  0
   10.5586  -17.4560   25.4989 O   0  0  0  0  0  0  0  0  0  0  0  0
    9.9757  -17.1572   27.6967 O   0  0  0  0  0  0  0  0  0  0  0  0
  1  2  1  0
  1  5  1  0
  2  3  1  0
  3  4  1  0
  5  4  1  0
  5  6  1  1
  6  7  2  0
  8  6  1  0
  9  8  1  0
  9 10  1  6
 11 10  1  0
 12 11  1  0
 12 13  2  0
 14  9  1  0
 15 14  2  0
 16 12  1  0
 17 14  1  0
 18 25  1  0
 18 17  1  0
 19 20  1  0
 18 19  1  6
 20 21  2  0
 22 21  1  0
 23 22  1  0
 24 23  2  0
 24 20  1  0
 25 27  1  0
 26 25  2  0
M  END
$$$$
