PEH.pdb
     RDKit          3D

 27 28  0  0  1  0  0  0  0  0999 V2000
    9.3179  -14.0915   18.5569 N   0  0  0  0  0  0  0  0  0  0  0  0
    8.4648  -13.7539   17.4612 C   0  0  0  0  0  0  0  0  0  0  0  0
    7.1855  -13.1704   17.9869 C   0  0  0  0  0  0  0  0  0  0  0  0
    7.2254  -13.4533   19.4506 C   0  0  0  0  0  0  0  0  0  0  0  0
    8.6718  -13.6453   19.7565 C   0  0  1  0  0  0  0  0  0  0  0  0
    8.7798  -14.6759   20.8517 C   0  0  0  0  0  0  0  0  0  0  0  0
    8.1409  -14.5708   21.9278 O   0  0  0  0  0  0  0  0  0  0  0  0
    9.6179  -15.8154   20.7045 N   0  0  0  0  0  0  0  0  0  0  0  0
    9.6827  -16.9019   21.6853 C   0  0  1  0  0  0  0  0  0  0  0  0
   10.5391  -18.0103   21.2029 C   0  0  0  0  0  0  0  0  0  0  0  0
   10.5685  -19.2451   22.0525 C   0  0  0  0  0  0  0  0  0  0  0  0
   11.4539  -20.2821   21.4335 C   0  0  0  0  0  0  0  0  0  0  0  0
   10.9713  -21.0031   20.5365 O   0  0  0  0  0  0  0  0  0  0  0  0
   10.1458  -16.3960   22.9915 C   0  0  0  0  0  0  0  0  0  0  0  0
   11.0614  -15.5418   23.0169 O   0  0  0  0  0  0  0  0  0  0  0  0
   12.7481  -20.4299   21.8417 O   0  0  0  0  0  0  0  0  0  0  0  0
    9.6261  -16.8100   24.2241 N   0  0  0  0  0  0  0  0  0  0  0  0
   10.0771  -16.1451   25.4433 C   0  0  1  0  0  0  0  0  0  0  0  0
    8.9509  -15.8988   26.3863 C   0  0  0  0  0  0  0  0  0  0  0  0
    9.4329  -15.2440   27.6107 C   0  0  0  0  0  0  0  0  0  0  0  0
    9.8898  -13.9229   27.6771 C   0  0  0  0  0  0  0  0  0  0  0  0
   10.2528  -13.6419   28.9361 N   0  0  0  0  0  0  0  0  0  0  0  0
   10.0460  -14.7330   29.6809 C   0  0  0  0  0  0  0  0  0  0  0  0
    9.5464  -15.7042   28.8647 N   0  0  0  0  0  0  0  0  0  0  0  0
   11.1302  -16.9440   26.1059 C   0  0  0  0  0  0  0  0  0  0  0  0
   11.1632  -18.1753   26.0050 O   0  0  0  0  0  0  0  0  0  0  0  0
   12.1082  -16.2706   26.8643 O   0  0  0  0  0  0  0  0  0  0  0  0
  1  2  1  0
  1  5  1  0
  2  3  1  0
  3  4  1  0
  5  4  1  0
  5  6  1  1
  6  7  2  0
  8  6  1  0
  9  8  1  0
  9 10  1  6
 11 10  1  0
 12 11  1  0
 12 13  2  0
 14  9  1  0
 15 14  2  0
 16 12  1  0
 17 14  1  0
 18 25  1  0
 18 17  1  0
 19 20  1  0
 18 19  1  1
 20 21  2  0
 22 21  1  0
 23 22  1  0
 24 23  2  0
 24 20  1  0
 25 27  1  0
 26 25  2  0
M  END
$$$$
