PEH.pdb
     RDKit          3D

 27 28  0  0  1  0  0  0  0  0999 V2000
    9.3194  -14.1881   18.4575 N   0  0  0  0  0  0  0  0  0  0  0  0
    8.6470  -13.7131   17.2894 C   0  0  0  0  0  0  0  0  0  0  0  0
    7.3930  -12.9938   17.6940 C   0  0  0  0  0  0  0  0  0  0  0  0
    7.2269  -13.3262   19.1382 C   0  0  0  0  0  0  0  0  0  0  0  0
    8.5944  -13.7044   19.5959 C   0  0  1  0  0  0  0  0  0  0  0  0
    8.4501  -14.7750   20.6477 C   0  0  0  0  0  0  0  0  0  0  0  0
    7.7002  -14.6299   21.6445 O   0  0  0  0  0  0  0  0  0  0  0  0
    9.1658  -16.0000   20.5483 N   0  0  0  0  0  0  0  0  0  0  0  0
    9.0654  -17.0761   21.5376 C   0  0  1  0  0  0  0  0  0  0  0  0
    9.8221  -18.2743   21.1060 C   0  0  0  0  0  0  0  0  0  0  0  0
    9.7008  -19.4867   21.9795 C   0  0  0  0  0  0  0  0  0  0  0  0
   10.4516  -20.6363   21.3819 C   0  0  0  0  0  0  0  0  0  0  0  0
   10.3207  -20.8478   20.1590 O   0  0  0  0  0  0  0  0  0  0  0  0
    9.5137  -16.6074   22.8626 C   0  0  0  0  0  0  0  0  0  0  0  0
   10.6157  -16.0189   22.9529 O   0  0  0  0  0  0  0  0  0  0  0  0
   11.2530  -21.4254   22.1556 O   0  0  0  0  0  0  0  0  0  0  0  0
    8.7831  -16.7768   24.0451 N   0  0  0  0  0  0  0  0  0  0  0  0
    9.3759  -16.3564   25.3115 C   0  0  1  0  0  0  0  0  0  0  0  0
    8.3391  -15.9239   26.2894 C   0  0  0  0  0  0  0  0  0  0  0  0
    7.7511  -14.6381   25.8878 C   0  0  0  0  0  0  0  0  0  0  0  0
    8.2043  -13.8576   24.8182 C   0  0  0  0  0  0  0  0  0  0  0  0
    7.4512  -12.7532   24.7246 N   0  0  0  0  0  0  0  0  0  0  0  0
    6.5310  -12.7952   25.6938 C   0  0  0  0  0  0  0  0  0  0  0  0
    6.7216  -13.9472   26.3976 N   0  0  0  0  0  0  0  0  0  0  0  0
   10.1924  -17.4476   25.8849 C   0  0  0  0  0  0  0  0  0  0  0  0
   10.2743  -18.5495   25.3312 O   0  0  0  0  0  0  0  0  0  0  0  0
   10.8848  -17.2084   27.0886 O   0  0  0  0  0  0  0  0  0  0  0  0
  1  2  1  0
  1  5  1  0
  2  3  1  0
  3  4  1  0
  5  4  1  0
  5  6  1  1
  6  7  2  0
  8  6  1  0
  9  8  1  0
  9 10  1  6
 11 10  1  0
 12 11  1  0
 12 13  2  0
 14  9  1  0
 15 14  2  0
 16 12  1  0
 17 14  1  0
 18 25  1  0
 18 17  1  0
 19 20  1  0
 18 19  1  1
 20 21  2  0
 22 21  1  0
 23 22  1  0
 24 23  2  0
 24 20  1  0
 25 27  1  0
 26 25  2  0
M  END
$$$$
