WII.pdb
     RDKit          3D

 31 32  0  0  1  0  0  0  0  0999 V2000
    5.3630  -17.6453   24.1789 N   0  0  0  0  0  0  0  0  0  0  0  0
    6.2549  -16.5497   24.3275 C   0  0  1  0  0  0  0  0  0  0  0  0
    6.7881  -16.3037   25.6962 C   0  0  0  0  0  0  0  0  0  0  0  0
    6.2004  -15.0276   26.2123 C   0  0  0  0  0  0  0  0  0  0  0  0
    4.9277  -14.8749   26.7663 C   0  0  0  0  0  0  0  0  0  0  0  0
    4.7669  -13.5964   27.1349 N   0  0  0  0  0  0  0  0  0  0  0  0
    5.8724  -12.8884   26.8526 C   0  0  0  0  0  0  0  0  0  0  0  0
    6.1975  -11.5431   27.0326 C   0  0  0  0  0  0  0  0  0  0  0  0
    7.4317  -11.0985   26.6280 C   0  0  0  0  0  0  0  0  0  0  0  0
    8.3111  -11.9863   26.0582 C   0  0  0  0  0  0  0  0  0  0  0  0
    8.0185  -13.3201   25.8676 C   0  0  0  0  0  0  0  0  0  0  0  0
    6.7736  -13.7763   26.2750 C   0  0  0  0  0  0  0  0  0  0  0  0
    7.3680  -16.6749   23.3180 C   0  0  0  0  0  0  0  0  0  0  0  0
    7.8442  -17.8101   23.0798 O   0  0  0  0  0  0  0  0  0  0  0  0
    7.9501  -12.9469   19.4630 C   0  0  0  0  0  0  0  0  0  0  0  0
    7.7668  -14.1970   20.3425 C   0  0  0  0  0  0  0  0  0  0  0  0
    9.1083  -14.5769   20.8635 C   0  0  2  0  0  0  0  0  0  0  0  0
   10.1427  -14.7509   19.7906 C   0  0  0  0  0  0  0  0  0  0  0  0
    9.1586  -15.6906   21.8505 C   0  0  2  0  0  0  0  0  0  0  0  0
    7.8990  -15.5744   22.6296 N   0  0  0  0  0  0  0  0  0  0  0  0
   10.2654  -15.5903   22.8141 C   0  0  0  0  0  0  0  0  0  0  0  0
   11.3380  -14.9533   22.5316 O   0  0  0  0  0  0  0  0  0  0  0  0
    9.7007  -13.4702   27.3219 C   0  0  0  0  0  0  0  0  0  0  0  0
   10.2426  -14.1468   26.0988 C   0  0  0  0  0  0  0  0  0  0  0  0
   10.8540  -15.4997   26.3814 C   0  0  2  0  0  0  0  0  0  0  0  0
   11.9754  -15.4295   27.3786 C   0  0  0  0  0  0  0  0  0  0  0  0
   11.3512  -16.0298   25.0338 C   0  0  2  0  0  0  0  0  0  0  0  0
   10.2438  -16.1682   24.1046 N   0  0  0  0  0  0  0  0  0  0  0  0
   11.9748  -17.3441   25.2989 C   0  0  0  0  0  0  0  0  0  0  0  0
   13.2899  -17.3754   25.7326 O   0  0  0  0  0  0  0  0  0  0  0  0
   11.3390  -18.4235   25.1393 O   0  0  0  0  0  0  0  0  0  0  0  0
  2  1  1  1
  2  3  1  0
  3  4  1  0
  4  5  2  0
  6  5  1  0
  7  6  1  0
  8  7  2  0
  9  8  1  0
 10 11  1  0
 10  9  2  0
 11 12  2  0
 12  7  1  0
 12  4  1  0
 13  2  1  0
 14 13  2  0
 16 15  1  0
 17 16  1  0
 17 18  1  6
 19 20  1  1
 19 17  1  0
 20 13  1  0
 21 19  1  0
 22 21  2  0
 23 24  1  0
 24 25  1  0
 25 27  1  0
 25 26  1  1
 27 29  1  0
 27 28  1  6
 28 21  1  0
 29 30  1  0
 31 29  2  0
M  END
$$$$
