WII.pdb
     RDKit          3D

 31 32  0  0  1  0  0  0  0  0999 V2000
    6.1504  -18.5970   25.0792 N   0  0  0  0  0  0  0  0  0  0  0  0
    6.5485  -17.2409   24.9366 C   0  0  1  0  0  0  0  0  0  0  0  0
    7.1125  -16.5799   26.1462 C   0  0  0  0  0  0  0  0  0  0  0  0
    6.3424  -15.3224   26.4026 C   0  0  0  0  0  0  0  0  0  0  0  0
    4.9680  -15.2340   26.6334 C   0  0  0  0  0  0  0  0  0  0  0  0
    4.6466  -13.9502   26.8449 N   0  0  0  0  0  0  0  0  0  0  0  0
    5.7419  -13.1773   26.7658 C   0  0  0  0  0  0  0  0  0  0  0  0
    5.9320  -11.8013   26.9008 C   0  0  0  0  0  0  0  0  0  0  0  0
    7.1971  -11.2884   26.7551 C   0  0  0  0  0  0  0  0  0  0  0  0
    8.2389  -12.1403   26.4808 C   0  0  0  0  0  0  0  0  0  0  0  0
    8.0821  -13.5031   26.3421 C   0  0  0  0  0  0  0  0  0  0  0  0
    6.8067  -14.0281   26.4890 C   0  0  0  0  0  0  0  0  0  0  0  0
    7.4807  -17.1183   23.7577 C   0  0  0  0  0  0  0  0  0  0  0  0
    8.3728  -17.9850   23.5988 O   0  0  0  0  0  0  0  0  0  0  0  0
    8.2112  -13.1142   19.1642 C   0  0  0  0  0  0  0  0  0  0  0  0
    8.9247  -14.2489   19.9213 C   0  0  0  0  0  0  0  0  0  0  0  0
    8.0346  -14.6690   21.0379 C   0  0  2  0  0  0  0  0  0  0  0  0
    7.4736  -13.5208   21.8241 C   0  0  0  0  0  0  0  0  0  0  0  0
    8.5390  -15.7450   21.9349 C   0  0  2  0  0  0  0  0  0  0  0  0
    7.3965  -16.0736   22.8258 N   0  0  0  0  0  0  0  0  0  0  0  0
    9.6508  -15.3307   22.8044 C   0  0  0  0  0  0  0  0  0  0  0  0
    9.9305  -14.0956   22.9841 O   0  0  0  0  0  0  0  0  0  0  0  0
   10.6265  -16.3747   27.6877 C   0  0  0  0  0  0  0  0  0  0  0  0
   10.8345  -16.5691   26.2158 C   0  0  0  0  0  0  0  0  0  0  0  0
   11.5515  -15.4158   25.5526 C   0  0  2  0  0  0  0  0  0  0  0  0
   10.7869  -14.1265   25.6525 C   0  0  0  0  0  0  0  0  0  0  0  0
   11.7489  -15.8242   24.0903 C   0  0  2  0  0  0  0  0  0  0  0  0
   10.4850  -16.2333   23.5038 N   0  0  0  0  0  0  0  0  0  0  0  0
   12.7103  -16.9478   24.0896 C   0  0  0  0  0  0  0  0  0  0  0  0
   14.0438  -16.6758   24.3475 O   0  0  0  0  0  0  0  0  0  0  0  0
   12.3427  -18.1342   23.8614 O   0  0  0  0  0  0  0  0  0  0  0  0
  2  1  1  1
  2  3  1  0
  3  4  1  0
  4  5  2  0
  6  5  1  0
  7  6  1  0
  8  7  2  0
  9  8  1  0
 10 11  1  0
 10  9  2  0
 11 12  2  0
 12  7  1  0
 12  4  1  0
 13  2  1  0
 14 13  2  0
 16 15  1  0
 17 16  1  0
 17 18  1  1
 19 20  1  1
 19 17  1  0
 20 13  1  0
 21 19  1  0
 22 21  2  0
 23 24  1  0
 24 25  1  0
 25 27  1  0
 25 26  1  6
 27 29  1  0
 27 28  1  1
 28 21  1  0
 29 30  1  0
 31 29  2  0
M  END
$$$$
