WII.pdb
     RDKit          3D

 31 32  0  0  1  0  0  0  0  0999 V2000
    5.7402  -18.4271   24.9390 N   0  0  0  0  0  0  0  0  0  0  0  0
    6.3434  -17.1421   24.8877 C   0  0  1  0  0  0  0  0  0  0  0  0
    6.8523  -16.5915   26.1747 C   0  0  0  0  0  0  0  0  0  0  0  0
    6.1593  -15.2921   26.4421 C   0  0  0  0  0  0  0  0  0  0  0  0
    4.8132  -15.1334   26.7778 C   0  0  0  0  0  0  0  0  0  0  0  0
    4.5645  -13.8297   26.9639 N   0  0  0  0  0  0  0  0  0  0  0  0
    5.6814  -13.1105   26.7678 C   0  0  0  0  0  0  0  0  0  0  0  0
    5.9398  -11.7406   26.8335 C   0  0  0  0  0  0  0  0  0  0  0  0
    7.2095  -11.2910   26.5679 C   0  0  0  0  0  0  0  0  0  0  0  0
    8.1887  -12.1984   26.2452 C   0  0  0  0  0  0  0  0  0  0  0  0
    7.9637  -13.5567   26.1726 C   0  0  0  0  0  0  0  0  0  0  0  0
    6.6833  -14.0179   26.4407 C   0  0  0  0  0  0  0  0  0  0  0  0
    7.4143  -17.1381   23.8261 C   0  0  0  0  0  0  0  0  0  0  0  0
    7.9242  -18.2290   23.4767 O   0  0  0  0  0  0  0  0  0  0  0  0
    7.6618  -13.1853   20.0073 C   0  0  0  0  0  0  0  0  0  0  0  0
    7.5750  -14.5367   20.7395 C   0  0  0  0  0  0  0  0  0  0  0  0
    8.8666  -14.7431   21.4500 C   0  0  2  0  0  0  0  0  0  0  0  0
   10.0716  -14.5119   20.5863 C   0  0  0  0  0  0  0  0  0  0  0  0
    9.0048  -15.9911   22.2502 C   0  0  2  0  0  0  0  0  0  0  0  0
    7.8697  -15.9642   23.2083 N   0  0  0  0  0  0  0  0  0  0  0  0
   10.2363  -16.0579   23.0518 C   0  0  0  0  0  0  0  0  0  0  0  0
   11.3747  -16.2651   22.5067 O   0  0  0  0  0  0  0  0  0  0  0  0
   10.0753  -15.9231   28.7271 C   0  0  0  0  0  0  0  0  0  0  0  0
   10.4123  -16.3255   27.3229 C   0  0  0  0  0  0  0  0  0  0  0  0
   11.2977  -15.3306   26.6086 C   0  0  2  0  0  0  0  0  0  0  0  0
   10.6914  -13.9574   26.5482 C   0  0  0  0  0  0  0  0  0  0  0  0
   11.5198  -15.8941   25.2024 C   0  0  2  0  0  0  0  0  0  0  0  0
   10.2738  -15.8996   24.4566 N   0  0  0  0  0  0  0  0  0  0  0  0
   12.0297  -17.2716   25.3730 C   0  0  0  0  0  0  0  0  0  0  0  0
   11.1796  -18.3294   25.0950 O   0  0  0  0  0  0  0  0  0  0  0  0
   13.2095  -17.4981   25.7621 O   0  0  0  0  0  0  0  0  0  0  0  0
  2  1  1  1
  2  3  1  0
  3  4  1  0
  4  5  2  0
  6  5  1  0
  7  6  1  0
  8  7  2  0
  9  8  1  0
 10 11  1  0
 10  9  2  0
 11 12  2  0
 12  7  1  0
 12  4  1  0
 13  2  1  0
 14 13  2  0
 16 15  1  0
 17 16  1  0
 17 18  1  6
 19 20  1  1
 19 17  1  0
 20 13  1  0
 21 19  1  0
 22 21  2  0
 23 24  1  0
 24 25  1  0
 25 27  1  0
 25 26  1  6
 27 29  1  0
 27 28  1  6
 28 21  1  0
 29 30  1  0
 31 29  2  0
M  END
$$$$
