WII.pdb
     RDKit          3D

 31 32  0  0  1  0  0  0  0  0999 V2000
    5.8290  -18.6287   24.7901 N   0  0  0  0  0  0  0  0  0  0  0  0
    6.2690  -17.2783   24.7682 C   0  0  1  0  0  0  0  0  0  0  0  0
    6.8124  -16.7324   26.0429 C   0  0  0  0  0  0  0  0  0  0  0  0
    6.2038  -15.3858   26.2803 C   0  0  0  0  0  0  0  0  0  0  0  0
    4.8396  -15.1101   26.3948 C   0  0  0  0  0  0  0  0  0  0  0  0
    4.6812  -13.7998   26.6273 N   0  0  0  0  0  0  0  0  0  0  0  0
    5.8755  -13.1876   26.6732 C   0  0  0  0  0  0  0  0  0  0  0  0
    6.2412  -11.8563   26.8775 C   0  0  0  0  0  0  0  0  0  0  0  0
    7.5731  -11.5239   26.8617 C   0  0  0  0  0  0  0  0  0  0  0  0
    8.5075  -12.5069   26.6456 C   0  0  0  0  0  0  0  0  0  0  0  0
    8.1768  -13.8298   26.4411 C   0  0  0  0  0  0  0  0  0  0  0  0
    6.8329  -14.1728   26.4567 C   0  0  0  0  0  0  0  0  0  0  0  0
    7.2412  -17.0910   23.6309 C   0  0  0  0  0  0  0  0  0  0  0  0
    7.9491  -18.0624   23.2736 O   0  0  0  0  0  0  0  0  0  0  0  0
    8.3769  -12.7810   19.4418 C   0  0  0  0  0  0  0  0  0  0  0  0
    8.8849  -14.1310   19.9796 C   0  0  0  0  0  0  0  0  0  0  0  0
    8.0791  -14.4623   21.1865 C   0  0  2  0  0  0  0  0  0  0  0  0
    7.8682  -13.2964   22.1072 C   0  0  0  0  0  0  0  0  0  0  0  0
    8.4660  -15.6859   21.9414 C   0  0  2  0  0  0  0  0  0  0  0  0
    7.3921  -15.8739   22.9506 N   0  0  0  0  0  0  0  0  0  0  0  0
    9.7297  -15.5599   22.6836 C   0  0  0  0  0  0  0  0  0  0  0  0
   10.8502  -15.4509   22.0763 O   0  0  0  0  0  0  0  0  0  0  0  0
    9.4958  -14.4239   28.1270 C   0  0  0  0  0  0  0  0  0  0  0  0
    9.8837  -14.3961   26.6791 C   0  0  0  0  0  0  0  0  0  0  0  0
   10.8785  -15.4697   26.3027 C   0  0  2  0  0  0  0  0  0  0  0  0
   12.1846  -15.3277   27.0312 C   0  0  0  0  0  0  0  0  0  0  0  0
   11.0789  -15.3499   24.7895 C   0  0  2  0  0  0  0  0  0  0  0  0
    9.8185  -15.5438   24.0949 N   0  0  0  0  0  0  0  0  0  0  0  0
   12.0503  -16.3968   24.4060 C   0  0  0  0  0  0  0  0  0  0  0  0
   11.6198  -17.7127   24.3622 O   0  0  0  0  0  0  0  0  0  0  0  0
   13.2484  -16.1169   24.1216 O   0  0  0  0  0  0  0  0  0  0  0  0
  2  1  1  1
  2  3  1  0
  3  4  1  0
  4  5  2  0
  6  5  1  0
  7  6  1  0
  8  7  2  0
  9  8  1  0
 10 11  1  0
 10  9  2  0
 11 12  2  0
 12  7  1  0
 12  4  1  0
 13  2  1  0
 14 13  2  0
 16 15  1  0
 17 16  1  0
 17 18  1  1
 19 20  1  1
 19 17  1  0
 20 13  1  0
 21 19  1  0
 22 21  2  0
 23 24  1  0
 24 25  1  0
 25 27  1  0
 25 26  1  1
 27 29  1  0
 27 28  1  6
 28 21  1  0
 29 30  1  0
 31 29  2  0
M  END
$$$$
