WII.pdb
     RDKit          3D

 31 32  0  0  1  0  0  0  0  0999 V2000
    6.3866  -17.8326   25.3989 N   0  0  0  0  0  0  0  0  0  0  0  0
    6.2221  -17.1403   24.1696 C   0  0  1  0  0  0  0  0  0  0  0  0
    5.4501  -15.8675   24.2183 C   0  0  0  0  0  0  0  0  0  0  0  0
    5.7673  -15.1688   25.5034 C   0  0  0  0  0  0  0  0  0  0  0  0
    5.5071  -15.6530   26.7871 C   0  0  0  0  0  0  0  0  0  0  0  0
    5.9523  -14.7621   27.6839 N   0  0  0  0  0  0  0  0  0  0  0  0
    6.4973  -13.7058   27.0592 C   0  0  0  0  0  0  0  0  0  0  0  0
    7.0841  -12.5327   27.5362 C   0  0  0  0  0  0  0  0  0  0  0  0
    7.5553  -11.6117   26.6337 C   0  0  0  0  0  0  0  0  0  0  0  0
    7.4368  -11.8680   25.2896 C   0  0  0  0  0  0  0  0  0  0  0  0
    6.8624  -13.0171   24.7889 C   0  0  0  0  0  0  0  0  0  0  0  0
    6.3851  -13.9523   25.6951 C   0  0  0  0  0  0  0  0  0  0  0  0
    7.5717  -16.9406   23.5274 C   0  0  0  0  0  0  0  0  0  0  0  0
    8.4398  -17.8368   23.6519 O   0  0  0  0  0  0  0  0  0  0  0  0
    7.8589  -12.6964   20.0718 C   0  0  0  0  0  0  0  0  0  0  0  0
    7.7639  -14.1162   20.6591 C   0  0  0  0  0  0  0  0  0  0  0  0
    9.0861  -14.4393   21.2615 C   0  0  2  0  0  0  0  0  0  0  0  0
   10.2332  -14.3000   20.3043 C   0  0  0  0  0  0  0  0  0  0  0  0
    9.1815  -15.7041   22.0414 C   0  0  2  0  0  0  0  0  0  0  0  0
    7.9035  -15.7923   22.7936 N   0  0  0  0  0  0  0  0  0  0  0  0
   10.2633  -15.7155   23.0381 C   0  0  0  0  0  0  0  0  0  0  0  0
   11.4843  -15.5459   22.6970 O   0  0  0  0  0  0  0  0  0  0  0  0
    9.6355  -13.0817   27.5588 C   0  0  0  0  0  0  0  0  0  0  0  0
   10.2653  -13.7930   26.3991 C   0  0  0  0  0  0  0  0  0  0  0  0
   10.6414  -15.2245   26.7045 C   0  0  2  0  0  0  0  0  0  0  0  0
   11.6895  -15.3302   27.7756 C   0  0  0  0  0  0  0  0  0  0  0  0
   11.1423  -15.8215   25.3866 C   0  0  2  0  0  0  0  0  0  0  0  0
   10.0579  -15.9053   24.4244 N   0  0  0  0  0  0  0  0  0  0  0  0
   11.6628  -17.1691   25.7020 C   0  0  0  0  0  0  0  0  0  0  0  0
   12.8618  -17.2698   26.3883 O   0  0  0  0  0  0  0  0  0  0  0  0
   11.0428  -18.2153   25.3617 O   0  0  0  0  0  0  0  0  0  0  0  0
  2  1  1  1
  2  3  1  0
  3  4  1  0
  4  5  2  0
  6  5  1  0
  7  6  1  0
  8  7  2  0
  9  8  1  0
 10 11  1  0
 10  9  2  0
 11 12  2  0
 12  7  1  0
 12  4  1  0
 13  2  1  0
 14 13  2  0
 16 15  1  0
 17 16  1  0
 17 18  1  6
 19 20  1  1
 19 17  1  0
 20 13  1  0
 21 19  1  0
 22 21  2  0
 23 24  1  0
 24 25  1  0
 25 27  1  0
 25 26  1  1
 27 29  1  0
 27 28  1  6
 28 21  1  0
 29 30  1  0
 31 29  2  0
M  END
$$$$
