WII.pdb
     RDKit          3D

 31 32  0  0  1  0  0  0  0  0999 V2000
    5.9732  -18.5152   24.8722 N   0  0  0  0  0  0  0  0  0  0  0  0
    6.3824  -17.1563   24.8127 C   0  0  1  0  0  0  0  0  0  0  0  0
    6.8527  -16.5444   26.0866 C   0  0  0  0  0  0  0  0  0  0  0  0
    6.0786  -15.2853   26.3226 C   0  0  0  0  0  0  0  0  0  0  0  0
    4.6910  -15.1853   26.4436 C   0  0  0  0  0  0  0  0  0  0  0  0
    4.3680  -13.9049   26.6724 N   0  0  0  0  0  0  0  0  0  0  0  0
    5.4747  -13.1453   26.7094 C   0  0  0  0  0  0  0  0  0  0  0  0
    5.6688  -11.7774   26.9069 C   0  0  0  0  0  0  0  0  0  0  0  0
    6.9474  -11.2780   26.8825 C   0  0  0  0  0  0  0  0  0  0  0  0
    7.9984  -12.1348   26.6647 C   0  0  0  0  0  0  0  0  0  0  0  0
    7.8379  -13.4899   26.4668 C   0  0  0  0  0  0  0  0  0  0  0  0
    6.5489  -14.0014   26.4911 C   0  0  0  0  0  0  0  0  0  0  0  0
    7.4023  -16.9923   23.7143 C   0  0  0  0  0  0  0  0  0  0  0  0
    8.1856  -17.9402   23.4691 O   0  0  0  0  0  0  0  0  0  0  0  0
    8.4672  -12.7513   19.4204 C   0  0  0  0  0  0  0  0  0  0  0  0
    8.9185  -14.1414   19.9042 C   0  0  0  0  0  0  0  0  0  0  0  0
    8.2263  -14.4115   21.1939 C   0  0  2  0  0  0  0  0  0  0  0  0
    8.3075  -13.2745   22.1695 C   0  0  0  0  0  0  0  0  0  0  0  0
    8.5146  -15.7143   21.8547 C   0  0  2  0  0  0  0  0  0  0  0  0
    7.5170  -15.8218   22.9502 N   0  0  0  0  0  0  0  0  0  0  0  0
    9.8435  -15.7895   22.4808 C   0  0  0  0  0  0  0  0  0  0  0  0
   10.9094  -15.8420   21.7757 O   0  0  0  0  0  0  0  0  0  0  0  0
   10.3871  -14.2350   27.7644 C   0  0  0  0  0  0  0  0  0  0  0  0
   10.6320  -14.4426   26.3000 C   0  0  0  0  0  0  0  0  0  0  0  0
   11.3098  -15.7559   25.9842 C   0  0  2  0  0  0  0  0  0  0  0  0
   12.6757  -15.8636   26.6006 C   0  0  0  0  0  0  0  0  0  0  0  0
   11.3897  -15.8352   24.4573 C   0  0  2  0  0  0  0  0  0  0  0  0
   10.0582  -15.8060   23.8785 N   0  0  0  0  0  0  0  0  0  0  0  0
   12.0696  -17.1078   24.1335 C   0  0  0  0  0  0  0  0  0  0  0  0
   13.4346  -17.0860   23.8987 O   0  0  0  0  0  0  0  0  0  0  0  0
   11.4372  -18.1989   24.0680 O   0  0  0  0  0  0  0  0  0  0  0  0
  2  1  1  1
  2  3  1  0
  3  4  1  0
  4  5  2  0
  6  5  1  0
  7  6  1  0
  8  7  2  0
  9  8  1  0
 10 11  1  0
 10  9  2  0
 11 12  2  0
 12  7  1  0
 12  4  1  0
 13  2  1  0
 14 13  2  0
 16 15  1  0
 17 16  1  0
 17 18  1  1
 19 20  1  1
 19 17  1  0
 20 13  1  0
 21 19  1  0
 22 21  2  0
 23 24  1  0
 24 25  1  0
 25 27  1  0
 25 26  1  1
 27 29  1  0
 27 28  1  6
 28 21  1  0
 29 30  1  0
 31 29  2  0
M  END
$$$$
