WII.pdb
     RDKit          3D

 31 32  0  0  1  0  0  0  0  0999 V2000
    5.5120  -18.1920   24.7671 N   0  0  0  0  0  0  0  0  0  0  0  0
    6.2123  -16.9564   24.7450 C   0  0  1  0  0  0  0  0  0  0  0  0
    6.7456  -16.4679   26.0470 C   0  0  0  0  0  0  0  0  0  0  0  0
    6.0358  -15.1996   26.4047 C   0  0  0  0  0  0  0  0  0  0  0  0
    4.7307  -15.0982   26.8910 C   0  0  0  0  0  0  0  0  0  0  0  0
    4.4528  -13.8070   27.1181 N   0  0  0  0  0  0  0  0  0  0  0  0
    5.5109  -13.0415   26.8060 C   0  0  0  0  0  0  0  0  0  0  0  0
    5.7203  -11.6626   26.8573 C   0  0  0  0  0  0  0  0  0  0  0  0
    6.9331  -11.1598   26.4558 C   0  0  0  0  0  0  0  0  0  0  0  0
    7.9051  -12.0243   26.0154 C   0  0  0  0  0  0  0  0  0  0  0  0
    7.7277  -13.3902   25.9536 C   0  0  0  0  0  0  0  0  0  0  0  0
    6.5051  -13.9050   26.3586 C   0  0  0  0  0  0  0  0  0  0  0  0
    7.2936  -17.0170   23.6958 C   0  0  0  0  0  0  0  0  0  0  0  0
    7.9874  -18.0572   23.6010 O   0  0  0  0  0  0  0  0  0  0  0  0
    8.4180  -12.5737   20.2044 C   0  0  0  0  0  0  0  0  0  0  0  0
    8.8374  -13.5326   21.3333 C   0  0  0  0  0  0  0  0  0  0  0  0
    8.4737  -14.9112   20.9060 C   0  0  2  0  0  0  0  0  0  0  0  0
    7.1035  -15.0118   20.3028 C   0  0  0  0  0  0  0  0  0  0  0  0
    8.7172  -16.0073   21.8840 C   0  0  2  0  0  0  0  0  0  0  0  0
    7.5617  -15.9578   22.8164 N   0  0  0  0  0  0  0  0  0  0  0  0
    9.9288  -15.8279   22.6985 C   0  0  0  0  0  0  0  0  0  0  0  0
   11.0821  -15.7086   22.1584 O   0  0  0  0  0  0  0  0  0  0  0  0
    9.4581  -14.4613   28.0779 C   0  0  0  0  0  0  0  0  0  0  0  0
    9.9143  -14.5380   26.6519 C   0  0  0  0  0  0  0  0  0  0  0  0
   10.8487  -15.6945   26.3811 C   0  0  2  0  0  0  0  0  0  0  0  0
   12.1123  -15.6175   27.1901 C   0  0  0  0  0  0  0  0  0  0  0  0
   11.1544  -15.6503   24.8815 C   0  0  2  0  0  0  0  0  0  0  0  0
    9.9289  -15.7683   24.1114 N   0  0  0  0  0  0  0  0  0  0  0  0
   12.0575  -16.7865   24.5989 C   0  0  0  0  0  0  0  0  0  0  0  0
   11.5336  -18.0686   24.6249 O   0  0  0  0  0  0  0  0  0  0  0  0
   13.2806  -16.6118   24.3379 O   0  0  0  0  0  0  0  0  0  0  0  0
  2  1  1  1
  2  3  1  0
  3  4  1  0
  4  5  2  0
  6  5  1  0
  7  6  1  0
  8  7  2  0
  9  8  1  0
 10 11  1  0
 10  9  2  0
 11 12  2  0
 12  7  1  0
 12  4  1  0
 13  2  1  0
 14 13  2  0
 16 15  1  0
 17 16  1  0
 17 18  1  1
 19 20  1  1
 19 17  1  0
 20 13  1  0
 21 19  1  0
 22 21  2  0
 23 24  1  0
 24 25  1  0
 25 27  1  0
 25 26  1  1
 27 29  1  0
 27 28  1  6
 28 21  1  0
 29 30  1  0
 31 29  2  0
M  END
$$$$
