WII.pdb
     RDKit          3D

 31 32  0  0  1  0  0  0  0  0999 V2000
    5.6550  -18.2532   24.6993 N   0  0  0  0  0  0  0  0  0  0  0  0
    6.2669  -16.9713   24.7068 C   0  0  1  0  0  0  0  0  0  0  0  0
    6.6555  -16.4247   26.0367 C   0  0  0  0  0  0  0  0  0  0  0  0
    5.7765  -15.2527   26.3434 C   0  0  0  0  0  0  0  0  0  0  0  0
    4.4259  -15.3088   26.6937 C   0  0  0  0  0  0  0  0  0  0  0  0
    3.9845  -14.0630   26.9157 N   0  0  0  0  0  0  0  0  0  0  0  0
    4.9769  -13.1778   26.7297 C   0  0  0  0  0  0  0  0  0  0  0  0
    5.0252  -11.7865   26.8291 C   0  0  0  0  0  0  0  0  0  0  0  0
    6.2087  -11.1428   26.5653 C   0  0  0  0  0  0  0  0  0  0  0  0
    7.3104  -11.8825   26.2113 C   0  0  0  0  0  0  0  0  0  0  0  0
    7.2933  -13.2571   26.1051 C   0  0  0  0  0  0  0  0  0  0  0  0
    6.1010  -13.9140   26.3711 C   0  0  0  0  0  0  0  0  0  0  0  0
    7.4327  -16.9718   23.7505 C   0  0  0  0  0  0  0  0  0  0  0  0
    8.1086  -18.0199   23.6205 O   0  0  0  0  0  0  0  0  0  0  0  0
    7.7188  -12.6996   20.3478 C   0  0  0  0  0  0  0  0  0  0  0  0
    7.5364  -14.0329   21.0953 C   0  0  0  0  0  0  0  0  0  0  0  0
    8.8893  -14.6190   21.2993 C   0  0  2  0  0  0  0  0  0  0  0  0
    9.7056  -14.6988   20.0429 C   0  0  0  0  0  0  0  0  0  0  0  0
    8.9655  -15.8867   22.0766 C   0  0  2  0  0  0  0  0  0  0  0  0
    7.7990  -15.8478   22.9957 N   0  0  0  0  0  0  0  0  0  0  0  0
   10.1662  -16.0045   22.9181 C   0  0  0  0  0  0  0  0  0  0  0  0
   11.3335  -15.7759   22.4478 O   0  0  0  0  0  0  0  0  0  0  0  0
   10.4188  -13.9021   27.7581 C   0  0  0  0  0  0  0  0  0  0  0  0
   10.7810  -14.5133   26.4380 C   0  0  0  0  0  0  0  0  0  0  0  0
   11.0708  -15.9942   26.5207 C   0  0  2  0  0  0  0  0  0  0  0  0
   12.2338  -16.3057   27.4193 C   0  0  0  0  0  0  0  0  0  0  0  0
   11.3482  -16.4525   25.0864 C   0  0  2  0  0  0  0  0  0  0  0  0
   10.1403  -16.3665   24.2849 N   0  0  0  0  0  0  0  0  0  0  0  0
   11.8172  -17.8523   25.1714 C   0  0  0  0  0  0  0  0  0  0  0  0
   13.1267  -18.0876   25.5569 O   0  0  0  0  0  0  0  0  0  0  0  0
   11.0561  -18.8235   24.9026 O   0  0  0  0  0  0  0  0  0  0  0  0
  2  1  1  1
  2  3  1  0
  3  4  1  0
  4  5  2  0
  6  5  1  0
  7  6  1  0
  8  7  2  0
  9  8  1  0
 10 11  1  0
 10  9  2  0
 11 12  2  0
 12  7  1  0
 12  4  1  0
 13  2  1  0
 14 13  2  0
 16 15  1  0
 17 16  1  0
 17 18  1  6
 19 20  1  1
 19 17  1  0
 20 13  1  0
 21 19  1  0
 22 21  2  0
 23 24  1  0
 24 25  1  0
 25 27  1  0
 25 26  1  1
 27 29  1  0
 27 28  1  6
 28 21  1  0
 29 30  1  0
 31 29  2  0
M  END
$$$$
