WII.pdb
     RDKit          3D

 31 32  0  0  1  0  0  0  0  0999 V2000
    6.9475  -18.2440   21.9075 N   0  0  0  0  0  0  0  0  0  0  0  0
    6.3541  -17.7077   23.0813 C   0  0  1  0  0  0  0  0  0  0  0  0
    5.6864  -18.6766   23.9944 C   0  0  0  0  0  0  0  0  0  0  0  0
    4.7502  -19.5212   23.1879 C   0  0  0  0  0  0  0  0  0  0  0  0
    4.6628  -20.9144   23.2248 C   0  0  0  0  0  0  0  0  0  0  0  0
    3.6962  -21.3095   22.3848 N   0  0  0  0  0  0  0  0  0  0  0  0
    3.1344  -20.2456   21.7885 C   0  0  0  0  0  0  0  0  0  0  0  0
    2.1112  -20.1285   20.8466 C   0  0  0  0  0  0  0  0  0  0  0  0
    1.7520  -18.8779   20.4086 C   0  0  0  0  0  0  0  0  0  0  0  0
    2.4072  -17.7786   20.9071 C   0  0  0  0  0  0  0  0  0  0  0  0
    3.4211  -17.8628   21.8377 C   0  0  0  0  0  0  0  0  0  0  0  0
    3.7884  -19.1232   22.2853 C   0  0  0  0  0  0  0  0  0  0  0  0
    7.3723  -16.8722   23.8154 C   0  0  0  0  0  0  0  0  0  0  0  0
    8.5906  -17.0715   23.5956 O   0  0  0  0  0  0  0  0  0  0  0  0
    5.6624  -12.2182   26.2444 C   0  0  0  0  0  0  0  0  0  0  0  0
    6.5644  -13.0511   25.3156 C   0  0  0  0  0  0  0  0  0  0  0  0
    7.3085  -14.0194   26.1668 C   0  0  2  0  0  0  0  0  0  0  0  0
    8.1539  -13.3672   27.2210 C   0  0  0  0  0  0  0  0  0  0  0  0
    8.0548  -15.1000   25.4653 C   0  0  2  0  0  0  0  0  0  0  0  0
    7.0183  -15.8773   24.7384 N   0  0  0  0  0  0  0  0  0  0  0  0
    8.7381  -16.0410   26.3661 C   0  0  0  0  0  0  0  0  0  0  0  0
    8.0895  -16.7240   27.2314 O   0  0  0  0  0  0  0  0  0  0  0  0
   14.3549  -16.0369   26.8175 C   0  0  0  0  0  0  0  0  0  0  0  0
   12.8869  -16.0595   27.1208 C   0  0  0  0  0  0  0  0  0  0  0  0
   12.2431  -17.4046   26.8754 C   0  0  2  0  0  0  0  0  0  0  0  0
   12.4009  -17.8697   25.4556 C   0  0  0  0  0  0  0  0  0  0  0  0
   10.7645  -17.2389   27.2368 C   0  0  2  0  0  0  0  0  0  0  0  0
   10.1331  -16.2728   26.3554 N   0  0  0  0  0  0  0  0  0  0  0  0
   10.7203  -16.7704   28.6386 C   0  0  0  0  0  0  0  0  0  0  0  0
   10.5126  -15.4219   28.8778 O   0  0  0  0  0  0  0  0  0  0  0  0
   10.8664  -17.5662   29.6081 O   0  0  0  0  0  0  0  0  0  0  0  0
  2  1  1  6
  2  3  1  0
  3  4  1  0
  4  5  2  0
  6  5  1  0
  7  6  1  0
  8  7  2  0
  9  8  1  0
 10 11  1  0
 10  9  2  0
 11 12  2  0
 12  7  1  0
 12  4  1  0
 13  2  1  0
 14 13  2  0
 16 15  1  0
 17 16  1  0
 17 18  1  6
 19 20  1  1
 19 17  1  0
 20 13  1  0
 21 19  1  0
 22 21  2  0
 23 24  1  0
 24 25  1  0
 25 27  1  0
 25 26  1  6
 27 29  1  0
 27 28  1  6
 28 21  1  0
 29 30  1  0
 31 29  2  0
M  END
$$$$
