DSV.pdb
     RDKit          3D

 22 21  0  0  1  0  0  0  0  0999 V2000
   24.6157  -20.3678  -18.1032 N   0  0  0  0  0  0  0  0  0  0  0  0
   25.2348  -19.3353  -17.2252 C   0  0  1  0  0  0  0  0  0  0  0  0
   24.1492  -18.3852  -16.8043 C   0  0  0  0  0  0  0  0  0  0  0  0
   23.8581  -17.3986  -17.8402 C   0  0  0  0  0  0  0  0  0  0  0  0
   22.8567  -16.6917  -17.8440 O   0  0  0  0  0  0  0  0  0  0  0  0
   25.7357  -20.0627  -16.0175 C   0  0  0  0  0  0  0  0  0  0  0  0
   25.0526  -20.9517  -15.4869 O   0  0  0  0  0  0  0  0  0  0  0  0
   24.7862  -17.2652  -18.8805 O   0  0  0  0  0  0  0  0  0  0  0  0
   29.4281  -20.7889  -12.8902 O   0  0  0  0  0  0  0  0  0  0  0  0
   28.9117  -20.0422  -13.9164 C   0  0  0  0  0  0  0  0  0  0  0  0
   27.4649  -20.4352  -14.2561 C   0  0  2  0  0  0  0  0  0  0  0  0
   27.0100  -19.7485  -15.4519 N   0  0  0  0  0  0  0  0  0  0  0  0
   26.6736  -19.9628  -13.0884 C   0  0  0  0  0  0  0  0  0  0  0  0
   26.3051  -18.7465  -13.0238 O   0  0  0  0  0  0  0  0  0  0  0  0
   23.5561  -20.4991   -9.5107 C   0  0  0  0  0  0  0  0  0  0  0  0
   24.2999  -21.0994  -10.7007 C   0  0  1  0  0  0  0  0  0  0  0  0
   23.4279  -21.0377  -11.9172 C   0  0  0  0  0  0  0  0  0  0  0  0
   25.6217  -20.3872  -10.9050 C   0  0  2  0  0  0  0  0  0  0  0  0
   26.3319  -20.8687  -12.0484 N   0  0  0  0  0  0  0  0  0  0  0  0
   26.4046  -20.6093   -9.6511 C   0  0  0  0  0  0  0  0  0  0  0  0
   26.1497  -19.9545   -8.4789 O   0  0  0  0  0  0  0  0  0  0  0  0
   27.3460  -21.4559   -9.7183 O   0  0  0  0  0  0  0  0  0  0  0  0
  2  1  1  6
  3  2  1  0
  3  4  1  0
  4  8  1  0
  5  4  2  0
  6  2  1  0
  7  6  2  0
  9 10  1  0
 11 10  1  1
 11 13  1  0
 11 12  1  0
 12  6  1  0
 13 19  1  0
 14 13  2  0
 16 15  1  1
 16 17  1  0
 18 16  1  0
 18 19  1  6
 20 21  1  0
 20 18  1  0
 22 20  2  0
M  END
$$$$
