DSV.pdb
     RDKit          3D

 22 21  0  0  1  0  0  0  0  0999 V2000
   17.5620  -10.8440  -17.0804 N   0  0  0  0  0  0  0  0  0  0  0  0
   18.9628  -10.4252  -17.3676 C   0  0  1  0  0  0  0  0  0  0  0  0
   18.9697   -9.7479  -18.7091 C   0  0  0  0  0  0  0  0  0  0  0  0
   18.8179  -10.7040  -19.8019 C   0  0  0  0  0  0  0  0  0  0  0  0
   19.2950  -11.8330  -19.7889 O   0  0  0  0  0  0  0  0  0  0  0  0
   19.3202   -9.4214  -16.3173 C   0  0  0  0  0  0  0  0  0  0  0  0
   18.5443   -8.4944  -16.0393 O   0  0  0  0  0  0  0  0  0  0  0  0
   18.0825  -10.2915  -20.9201 O   0  0  0  0  0  0  0  0  0  0  0  0
   22.1762   -8.3770  -12.5129 O   0  0  0  0  0  0  0  0  0  0  0  0
   21.9532   -9.1618  -13.6137 C   0  0  0  0  0  0  0  0  0  0  0  0
   20.8427   -8.6015  -14.5171 C   0  0  2  0  0  0  0  0  0  0  0  0
   20.5610   -9.5103  -15.6140 N   0  0  0  0  0  0  0  0  0  0  0  0
   21.4144   -7.3400  -15.0600 C   0  0  0  0  0  0  0  0  0  0  0  0
   22.2117   -7.3814  -16.0510 O   0  0  0  0  0  0  0  0  0  0  0  0
   19.7982   -4.4561  -16.6562 C   0  0  0  0  0  0  0  0  0  0  0  0
   20.5538   -3.9075  -15.4487 C   0  0  1  0  0  0  0  0  0  0  0  0
   19.5828   -3.5966  -14.3513 C   0  0  0  0  0  0  0  0  0  0  0  0
   21.6217   -4.8888  -15.0096 C   0  0  2  0  0  0  0  0  0  0  0  0
   21.0705   -6.0932  -14.4717 N   0  0  0  0  0  0  0  0  0  0  0  0
   22.4442   -4.1697  -13.9895 C   0  0  0  0  0  0  0  0  0  0  0  0
   22.4240   -4.4727  -12.6570 O   0  0  0  0  0  0  0  0  0  0  0  0
   23.1858   -3.2363  -14.4212 O   0  0  0  0  0  0  0  0  0  0  0  0
  2  1  1  1
  3  2  1  0
  3  4  1  0
  4  8  1  0
  5  4  2  0
  6  2  1  0
  7  6  2  0
  9 10  1  0
 11 10  1  1
 11 13  1  0
 11 12  1  0
 12  6  1  0
 13 19  1  0
 14 13  2  0
 16 15  1  6
 16 17  1  0
 18 16  1  0
 18 19  1  1
 20 21  1  0
 20 18  1  0
 22 20  2  0
M  END
$$$$
