DSV.pdb
     RDKit          3D

 22 21  0  0  1  0  0  0  0  0999 V2000
   17.4308  -12.6472  -17.3158 N   0  0  0  0  0  0  0  0  0  0  0  0
   16.9529  -11.6026  -16.3669 C   0  0  1  0  0  0  0  0  0  0  0  0
   17.0142  -12.1829  -14.9821 C   0  0  0  0  0  0  0  0  0  0  0  0
   15.9950  -13.2076  -14.7761 C   0  0  0  0  0  0  0  0  0  0  0  0
   16.2402  -14.3399  -14.3757 O   0  0  0  0  0  0  0  0  0  0  0  0
   17.9317  -10.4751  -16.4625 C   0  0  0  0  0  0  0  0  0  0  0  0
   19.0982  -10.6806  -16.8307 O   0  0  0  0  0  0  0  0  0  0  0  0
   14.6675  -12.8602  -15.0565 O   0  0  0  0  0  0  0  0  0  0  0  0
   16.9307   -6.6776  -17.6800 O   0  0  0  0  0  0  0  0  0  0  0  0
   17.6784   -6.7149  -16.5325 C   0  0  0  0  0  0  0  0  0  0  0  0
   18.4514   -8.0349  -16.3799 C   0  0  2  0  0  0  0  0  0  0  0  0
   17.5428   -9.1402  -16.1321 N   0  0  0  0  0  0  0  0  0  0  0  0
   19.3043   -7.8228  -15.1797 C   0  0  0  0  0  0  0  0  0  0  0  0
   18.8627   -8.1312  -14.0268 O   0  0  0  0  0  0  0  0  0  0  0  0
   22.3392   -9.5337  -14.4912 C   0  0  0  0  0  0  0  0  0  0  0  0
   22.7166   -8.0611  -14.3538 C   0  0  1  0  0  0  0  0  0  0  0  0
   23.5302   -7.6415  -15.5394 C   0  0  0  0  0  0  0  0  0  0  0  0
   21.4707   -7.2154  -14.1840 C   0  0  2  0  0  0  0  0  0  0  0  0
   20.6082   -7.2765  -15.3224 N   0  0  0  0  0  0  0  0  0  0  0  0
   21.9521   -5.8202  -13.9466 C   0  0  0  0  0  0  0  0  0  0  0  0
   22.5322   -5.4130  -12.7781 O   0  0  0  0  0  0  0  0  0  0  0  0
   21.7963   -5.0012  -14.9019 O   0  0  0  0  0  0  0  0  0  0  0  0
  2  1  1  6
  3  2  1  0
  3  4  1  0
  4  8  1  0
  5  4  2  0
  6  2  1  0
  7  6  2  0
  9 10  1  0
 11 10  1  1
 11 13  1  0
 11 12  1  0
 12  6  1  0
 13 19  1  0
 14 13  2  0
 16 15  1  6
 16 17  1  0
 18 16  1  0
 18 19  1  6
 20 21  1  0
 20 18  1  0
 22 20  2  0
M  END
$$$$
