DSV.pdb
     RDKit          3D

 22 21  0  0  1  0  0  0  0  0999 V2000
   16.0622  -10.3956  -17.1985 N   0  0  0  0  0  0  0  0  0  0  0  0
   16.9424  -10.8545  -16.0873 C   0  0  1  0  0  0  0  0  0  0  0  0
   18.2846  -11.1853  -16.6764 C   0  0  0  0  0  0  0  0  0  0  0  0
   18.2959  -12.5072  -17.2959 C   0  0  0  0  0  0  0  0  0  0  0  0
   17.3277  -13.2587  -17.3126 O   0  0  0  0  0  0  0  0  0  0  0  0
   17.0934   -9.6848  -15.1666 C   0  0  0  0  0  0  0  0  0  0  0  0
   16.9839   -8.5257  -15.5945 O   0  0  0  0  0  0  0  0  0  0  0  0
   19.4882  -12.9240  -17.9009 O   0  0  0  0  0  0  0  0  0  0  0  0
   18.1237  -10.2190  -11.1003 O   0  0  0  0  0  0  0  0  0  0  0  0
   17.2862   -9.1821  -11.4176 C   0  0  0  0  0  0  0  0  0  0  0  0
   17.4329   -8.7380  -12.8820 C   0  0  2  0  0  0  0  0  0  0  0  0
   17.3663   -9.8792  -13.7774 N   0  0  0  0  0  0  0  0  0  0  0  0
   18.7939   -8.1412  -12.9488 C   0  0  0  0  0  0  0  0  0  0  0  0
   19.0929   -7.1610  -12.1943 O   0  0  0  0  0  0  0  0  0  0  0  0
   22.2607  -10.2008  -13.2973 C   0  0  0  0  0  0  0  0  0  0  0  0
   22.1201   -9.0886  -14.3332 C   0  0  1  0  0  0  0  0  0  0  0  0
   21.8114   -9.6883  -15.6707 C   0  0  0  0  0  0  0  0  0  0  0  0
   21.0655   -8.0936  -13.8928 C   0  0  2  0  0  0  0  0  0  0  0  0
   19.7558   -8.6653  -13.8537 N   0  0  0  0  0  0  0  0  0  0  0  0
   21.1325   -6.9658  -14.8716 C   0  0  0  0  0  0  0  0  0  0  0  0
   20.1571   -6.7115  -15.7945 O   0  0  0  0  0  0  0  0  0  0  0  0
   22.1630   -6.2295  -14.8119 O   0  0  0  0  0  0  0  0  0  0  0  0
  2  1  1  6
  3  2  1  0
  3  4  1  0
  4  8  1  0
  5  4  2  0
  6  2  1  0
  7  6  2  0
  9 10  1  0
 11 10  1  1
 11 13  1  0
 11 12  1  0
 12  6  1  0
 13 19  1  0
 14 13  2  0
 16 15  1  1
 16 17  1  0
 18 16  1  0
 18 19  1  6
 20 21  1  0
 20 18  1  0
 22 20  2  0
M  END
$$$$
