DSV.pdb
     RDKit          3D

 22 21  0  0  1  0  0  0  0  0999 V2000
   16.9437  -27.3630   -6.2925 N   0  0  0  0  0  0  0  0  0  0  0  0
   17.6153  -26.3895   -5.3863 C   0  0  1  0  0  0  0  0  0  0  0  0
   17.2440  -25.0080   -5.8464 C   0  0  0  0  0  0  0  0  0  0  0  0
   18.0835  -24.5594   -6.9535 C   0  0  0  0  0  0  0  0  0  0  0  0
   19.0444  -25.1911   -7.3776 O   0  0  0  0  0  0  0  0  0  0  0  0
   17.0349  -26.6185   -4.0265 C   0  0  0  0  0  0  0  0  0  0  0  0
   15.8070  -26.6965   -3.8686 O   0  0  0  0  0  0  0  0  0  0  0  0
   17.7579  -23.3364   -7.5532 O   0  0  0  0  0  0  0  0  0  0  0  0
   17.8158  -27.8427    0.6273 O   0  0  0  0  0  0  0  0  0  0  0  0
   18.3198  -27.6452   -0.6314 C   0  0  0  0  0  0  0  0  0  0  0  0
   17.3037  -26.9751   -1.5705 C   0  0  2  0  0  0  0  0  0  0  0  0
   17.8823  -26.7522   -2.8835 N   0  0  0  0  0  0  0  0  0  0  0  0
   17.0228  -25.6626   -0.9291 C   0  0  0  0  0  0  0  0  0  0  0  0
   17.9026  -24.7436   -0.9565 O   0  0  0  0  0  0  0  0  0  0  0  0
   13.5972  -23.6697   -1.2906 C   0  0  0  0  0  0  0  0  0  0  0  0
   14.0216  -23.7905    0.1706 C   0  0  1  0  0  0  0  0  0  0  0  0
   13.1497  -24.7929    0.8625 C   0  0  0  0  0  0  0  0  0  0  0  0
   15.4913  -24.1486    0.2607 C   0  0  2  0  0  0  0  0  0  0  0  0
   15.7751  -25.4380   -0.2875 N   0  0  0  0  0  0  0  0  0  0  0  0
   15.8382  -24.0921    1.7136 C   0  0  0  0  0  0  0  0  0  0  0  0
   15.9335  -22.9258    2.4197 O   0  0  0  0  0  0  0  0  0  0  0  0
   16.0483  -25.2041    2.2854 O   0  0  0  0  0  0  0  0  0  0  0  0
  2  1  1  6
  3  2  1  0
  3  4  1  0
  4  8  1  0
  5  4  2  0
  6  2  1  0
  7  6  2  0
  9 10  1  0
 11 10  1  1
 11 13  1  0
 11 12  1  0
 12  6  1  0
 13 19  1  0
 14 13  2  0
 16 15  1  6
 16 17  1  0
 18 16  1  0
 18 19  1  1
 20 21  1  0
 20 18  1  0
 22 20  2  0
M  END
$$$$
