DSV.pdb
     RDKit          3D

 22 21  0  0  1  0  0  0  0  0999 V2000
   15.6757  -11.8900  -16.9141 N   0  0  0  0  0  0  0  0  0  0  0  0
   15.9134  -11.1935  -15.6185 C   0  0  1  0  0  0  0  0  0  0  0  0
   16.7110  -12.1190  -14.7436 C   0  0  0  0  0  0  0  0  0  0  0  0
   15.9044  -13.2318  -14.2510 C   0  0  0  0  0  0  0  0  0  0  0  0
   14.7568  -13.1094  -13.8382 O   0  0  0  0  0  0  0  0  0  0  0  0
   16.7467   -9.9930  -15.9387 C   0  0  0  0  0  0  0  0  0  0  0  0
   17.7125  -10.0823  -16.7120 O   0  0  0  0  0  0  0  0  0  0  0  0
   16.4905  -14.5037  -14.2580 O   0  0  0  0  0  0  0  0  0  0  0  0
   15.7647   -6.2803  -14.2813 O   0  0  0  0  0  0  0  0  0  0  0  0
   16.3935   -6.2631  -15.4985 C   0  0  0  0  0  0  0  0  0  0  0  0
   17.2012   -7.5451  -15.7585 C   0  0  2  0  0  0  0  0  0  0  0  0
   16.4471   -8.7206  -15.3612 N   0  0  0  0  0  0  0  0  0  0  0  0
   18.3954   -7.4092  -14.8818 C   0  0  0  0  0  0  0  0  0  0  0  0
   18.3796   -7.9040  -13.7095 O   0  0  0  0  0  0  0  0  0  0  0  0
   23.1566   -7.2126  -14.3359 C   0  0  0  0  0  0  0  0  0  0  0  0
   21.9202   -7.3288  -15.2233 C   0  0  1  0  0  0  0  0  0  0  0  0
   21.6824   -8.7683  -15.5624 C   0  0  0  0  0  0  0  0  0  0  0  0
   20.7249   -6.6945  -14.5411 C   0  0  2  0  0  0  0  0  0  0  0  0
   19.5494   -6.7278  -15.3539 N   0  0  0  0  0  0  0  0  0  0  0  0
   21.1278   -5.2884  -14.2330 C   0  0  0  0  0  0  0  0  0  0  0  0
   21.8174   -4.9326  -13.1080 O   0  0  0  0  0  0  0  0  0  0  0  0
   20.7939   -4.4085  -15.0827 O   0  0  0  0  0  0  0  0  0  0  0  0
  2  1  1  6
  3  2  1  0
  3  4  1  0
  4  8  1  0
  5  4  2  0
  6  2  1  0
  7  6  2  0
  9 10  1  0
 11 10  1  1
 11 13  1  0
 11 12  1  0
 12  6  1  0
 13 19  1  0
 14 13  2  0
 16 15  1  1
 16 17  1  0
 18 16  1  0
 18 19  1  6
 20 21  1  0
 20 18  1  0
 22 20  2  0
M  END
$$$$
