DSV.pdb
     RDKit          3D

 22 21  0  0  1  0  0  0  0  0999 V2000
   18.4091  -12.0563  -15.1237 N   0  0  0  0  0  0  0  0  0  0  0  0
   18.5507  -11.2583  -16.3741 C   0  0  1  0  0  0  0  0  0  0  0  0
   17.2815  -11.4183  -17.1626 C   0  0  0  0  0  0  0  0  0  0  0  0
   17.1077  -12.7863  -17.6418 C   0  0  0  0  0  0  0  0  0  0  0  0
   17.2869  -13.1272  -18.8055 O   0  0  0  0  0  0  0  0  0  0  0  0
   18.6761   -9.8308  -15.9442 C   0  0  0  0  0  0  0  0  0  0  0  0
   18.9857   -8.9499  -16.7608 O   0  0  0  0  0  0  0  0  0  0  0  0
   16.7140  -13.7508  -16.7057 O   0  0  0  0  0  0  0  0  0  0  0  0
   18.2630   -8.7739  -11.9014 O   0  0  0  0  0  0  0  0  0  0  0  0
   17.8567   -7.8416  -12.8195 C   0  0  0  0  0  0  0  0  0  0  0  0
   18.5039   -8.0559  -14.1974 C   0  0  2  0  0  0  0  0  0  0  0  0
   18.4419   -9.4536  -14.5858 N   0  0  0  0  0  0  0  0  0  0  0  0
   19.9253   -7.6647  -13.9987 C   0  0  0  0  0  0  0  0  0  0  0  0
   20.7697   -8.5289  -13.5990 O   0  0  0  0  0  0  0  0  0  0  0  0
   22.3535   -6.5777  -16.4325 C   0  0  0  0  0  0  0  0  0  0  0  0
   22.3337   -5.4696  -15.3830 C   0  0  1  0  0  0  0  0  0  0  0  0
   21.6101   -4.2772  -15.9293 C   0  0  0  0  0  0  0  0  0  0  0  0
   21.7138   -5.9779  -14.0970 C   0  0  2  0  0  0  0  0  0  0  0  0
   20.3370   -6.3291  -14.2545 N   0  0  0  0  0  0  0  0  0  0  0  0
   21.8788   -4.8768  -13.0997 C   0  0  0  0  0  0  0  0  0  0  0  0
   23.0761   -4.5560  -12.5242 O   0  0  0  0  0  0  0  0  0  0  0  0
   20.8309   -4.2303  -12.7970 O   0  0  0  0  0  0  0  0  0  0  0  0
  2  1  1  1
  3  2  1  0
  3  4  1  0
  4  8  1  0
  5  4  2  0
  6  2  1  0
  7  6  2  0
  9 10  1  0
 11 10  1  1
 11 13  1  0
 11 12  1  0
 12  6  1  0
 13 19  1  0
 14 13  2  0
 16 15  1  6
 16 17  1  0
 18 16  1  0
 18 19  1  6
 20 21  1  0
 20 18  1  0
 22 20  2  0
M  END
$$$$
