DSV.pdb
     RDKit          3D

 22 21  0  0  1  0  0  0  0  0999 V2000
   20.4034  -13.3228  -17.3242 N   0  0  0  0  0  0  0  0  0  0  0  0
   21.1580  -12.1379  -17.8209 C   0  0  1  0  0  0  0  0  0  0  0  0
   20.2706  -11.4050  -18.7872 C   0  0  0  0  0  0  0  0  0  0  0  0
   20.0493  -12.1706  -20.0104 C   0  0  0  0  0  0  0  0  0  0  0  0
   20.9536  -12.5815  -20.7286 O   0  0  0  0  0  0  0  0  0  0  0  0
   21.3969  -11.2672  -16.6279 C   0  0  0  0  0  0  0  0  0  0  0  0
   20.4669  -10.9798  -15.8591 O   0  0  0  0  0  0  0  0  0  0  0  0
   18.7228  -12.4419  -20.3683 O   0  0  0  0  0  0  0  0  0  0  0  0
   25.1422   -9.4776  -16.0475 O   0  0  0  0  0  0  0  0  0  0  0  0
   24.4052   -9.7046  -14.9150 C   0  0  0  0  0  0  0  0  0  0  0  0
   22.9064   -9.8687  -15.2148 C   0  0  2  0  0  0  0  0  0  0  0  0
   22.6998  -10.7499  -16.3502 N   0  0  0  0  0  0  0  0  0  0  0  0
   22.4519   -8.4973  -15.5694 C   0  0  0  0  0  0  0  0  0  0  0  0
   22.4607   -8.1222  -16.7854 O   0  0  0  0  0  0  0  0  0  0  0  0
   19.9223   -4.5494  -15.2974 C   0  0  0  0  0  0  0  0  0  0  0  0
   20.2020   -6.0209  -15.0038 C   0  0  1  0  0  0  0  0  0  0  0  0
   19.5723   -6.8703  -16.0648 C   0  0  0  0  0  0  0  0  0  0  0  0
   21.6945   -6.2572  -14.8897 C   0  0  2  0  0  0  0  0  0  0  0  0
   22.0103   -7.6098  -14.5515 N   0  0  0  0  0  0  0  0  0  0  0  0
   22.1797   -5.3112  -13.8390 C   0  0  0  0  0  0  0  0  0  0  0  0
   22.4537   -5.6895  -12.5546 O   0  0  0  0  0  0  0  0  0  0  0  0
   22.3323   -4.1042  -14.1958 O   0  0  0  0  0  0  0  0  0  0  0  0
  2  1  1  1
  3  2  1  0
  3  4  1  0
  4  8  1  0
  5  4  2  0
  6  2  1  0
  7  6  2  0
  9 10  1  0
 11 10  1  6
 11 13  1  0
 11 12  1  0
 12  6  1  0
 13 19  1  0
 14 13  2  0
 16 15  1  6
 16 17  1  0
 18 16  1  0
 18 19  1  1
 20 21  1  0
 20 18  1  0
 22 20  2  0
M  END
$$$$
