DSV.pdb
     RDKit          3D

 22 21  0  0  1  0  0  0  0  0999 V2000
   17.4787  -11.6356  -16.5582 N   0  0  0  0  0  0  0  0  0  0  0  0
   18.1306  -10.4776  -17.2322 C   0  0  1  0  0  0  0  0  0  0  0  0
   17.0424   -9.5978  -17.7800 C   0  0  0  0  0  0  0  0  0  0  0  0
   16.3996  -10.1914  -18.9486 C   0  0  0  0  0  0  0  0  0  0  0  0
   17.0053  -10.5319  -19.9584 O   0  0  0  0  0  0  0  0  0  0  0  0
   18.8625   -9.7316  -16.1615 C   0  0  0  0  0  0  0  0  0  0  0  0
   18.3140   -9.4828  -15.0771 O   0  0  0  0  0  0  0  0  0  0  0  0
   15.0123  -10.3753  -18.8958 O   0  0  0  0  0  0  0  0  0  0  0  0
   22.0881  -10.4610  -14.0777 O   0  0  0  0  0  0  0  0  0  0  0  0
   22.2521   -9.4683  -15.0078 C   0  0  0  0  0  0  0  0  0  0  0  0
   20.9512   -8.6932  -15.2725 C   0  0  2  0  0  0  0  0  0  0  0  0
   20.2066   -9.2915  -16.3662 N   0  0  0  0  0  0  0  0  0  0  0  0
   21.4092   -7.3364  -15.6754 C   0  0  0  0  0  0  0  0  0  0  0  0
   21.9252   -7.1580  -16.8250 O   0  0  0  0  0  0  0  0  0  0  0  0
   19.7706   -4.3688  -16.6302 C   0  0  0  0  0  0  0  0  0  0  0  0
   20.5687   -3.9787  -15.3889 C   0  0  1  0  0  0  0  0  0  0  0  0
   19.6529   -3.9184  -14.2051 C   0  0  0  0  0  0  0  0  0  0  0  0
   21.7158   -4.9462  -15.1788 C   0  0  2  0  0  0  0  0  0  0  0  0
   21.2706   -6.2441  -14.7774 N   0  0  0  0  0  0  0  0  0  0  0  0
   22.5870   -4.3278  -14.1334 C   0  0  0  0  0  0  0  0  0  0  0  0
   23.4916   -3.3379  -14.3969 O   0  0  0  0  0  0  0  0  0  0  0  0
   22.4510   -4.7713  -12.9534 O   0  0  0  0  0  0  0  0  0  0  0  0
  2  1  1  1
  3  2  1  0
  3  4  1  0
  4  8  1  0
  5  4  2  0
  6  2  1  0
  7  6  2  0
  9 10  1  0
 11 10  1  6
 11 13  1  0
 11 12  1  0
 12  6  1  0
 13 19  1  0
 14 13  2  0
 16 15  1  6
 16 17  1  0
 18 16  1  0
 18 19  1  1
 20 21  1  0
 20 18  1  0
 22 20  2  0
M  END
$$$$
