DSV.pdb
     RDKit          3D

 22 21  0  0  1  0  0  0  0  0999 V2000
   17.6498  -11.7820  -16.2804 N   0  0  0  0  0  0  0  0  0  0  0  0
   18.4921  -10.7426  -16.9364 C   0  0  1  0  0  0  0  0  0  0  0  0
   17.5906   -9.9016  -17.7957 C   0  0  0  0  0  0  0  0  0  0  0  0
   17.1040  -10.6389  -18.9581 C   0  0  0  0  0  0  0  0  0  0  0  0
   15.9312  -10.9558  -19.1203 O   0  0  0  0  0  0  0  0  0  0  0  0
   19.0387   -9.8931  -15.8328 C   0  0  0  0  0  0  0  0  0  0  0  0
   18.2761   -9.3190  -15.0406 O   0  0  0  0  0  0  0  0  0  0  0  0
   18.0439  -10.9958  -19.9331 O   0  0  0  0  0  0  0  0  0  0  0  0
   23.1037   -9.9180  -15.0685 O   0  0  0  0  0  0  0  0  0  0  0  0
   22.2951   -9.4558  -14.0636 C   0  0  0  0  0  0  0  0  0  0  0  0
   20.9635   -8.8989  -14.5928 C   0  0  2  0  0  0  0  0  0  0  0  0
   20.4485   -9.7264  -15.6691 N   0  0  0  0  0  0  0  0  0  0  0  0
   21.3160   -7.5576  -15.1310 C   0  0  0  0  0  0  0  0  0  0  0  0
   21.6970   -7.4407  -16.3396 O   0  0  0  0  0  0  0  0  0  0  0  0
   19.7461   -4.7873  -16.3418 C   0  0  0  0  0  0  0  0  0  0  0  0
   20.5171   -4.2281  -15.1490 C   0  0  1  0  0  0  0  0  0  0  0  0
   19.5789   -4.0237  -13.9994 C   0  0  0  0  0  0  0  0  0  0  0  0
   21.6692   -5.1461  -14.7937 C   0  0  2  0  0  0  0  0  0  0  0  0
   21.2275   -6.4114  -14.2960 N   0  0  0  0  0  0  0  0  0  0  0  0
   22.4745   -4.4148  -13.7685 C   0  0  0  0  0  0  0  0  0  0  0  0
   22.4368   -4.7063  -12.4338 O   0  0  0  0  0  0  0  0  0  0  0  0
   23.2183   -3.4821  -14.1979 O   0  0  0  0  0  0  0  0  0  0  0  0
  2  1  1  1
  3  2  1  0
  3  4  1  0
  4  8  1  0
  5  4  2  0
  6  2  1  0
  7  6  2  0
  9 10  1  0
 11 10  1  6
 11 13  1  0
 11 12  1  0
 12  6  1  0
 13 19  1  0
 14 13  2  0
 16 15  1  6
 16 17  1  0
 18 16  1  0
 18 19  1  1
 20 21  1  0
 20 18  1  0
 22 20  2  0
M  END
$$$$
