PEF.pdb
     RDKit          3D

 28 29  0  0  1  0  0  0  0  0999 V2000
    9.4095  -14.2651   18.8464 N   0  0  0  0  0  0  0  0  0  0  0  0
    9.0498  -13.2288   17.8761 C   0  0  0  0  0  0  0  0  0  0  0  0
    7.5451  -13.2431   17.9520 C   0  0  0  0  0  0  0  0  0  0  0  0
    7.2964  -13.4769   19.4222 C   0  0  0  0  0  0  0  0  0  0  0  0
    8.6430  -13.8856   19.9919 C   0  0  1  0  0  0  0  0  0  0  0  0
    8.5022  -14.9517   20.9914 C   0  0  0  0  0  0  0  0  0  0  0  0
    7.7259  -14.7537   21.9606 O   0  0  0  0  0  0  0  0  0  0  0  0
    9.1774  -16.1968   20.9504 N   0  0  0  0  0  0  0  0  0  0  0  0
    8.9989  -17.2022   21.9570 C   0  0  1  0  0  0  0  0  0  0  0  0
    9.5797  -18.5419   21.5651 C   0  0  0  0  0  0  0  0  0  0  0  0
   10.0812  -18.5133   20.1381 C   0  0  0  0  0  0  0  0  0  0  0  0
   10.6116  -19.8240   19.7561 C   0  0  0  0  0  0  0  0  0  0  0  0
   10.2189  -20.8657   20.3114 O   0  0  0  0  0  0  0  0  0  0  0  0
    9.6093  -16.7319   23.2538 C   0  0  0  0  0  0  0  0  0  0  0  0
   10.6836  -16.0835   23.2641 O   0  0  0  0  0  0  0  0  0  0  0  0
   11.5723  -19.9000   18.7530 O   0  0  0  0  0  0  0  0  0  0  0  0
    8.9772  -17.0150   24.4896 N   0  0  0  0  0  0  0  0  0  0  0  0
    8.5317  -15.9879   25.4070 C   0  0  1  0  0  0  0  0  0  0  0  0
    7.9220  -14.8206   24.7312 C   0  0  0  0  0  0  0  0  0  0  0  0
    7.4892  -13.8067   25.7138 C   0  0  0  0  0  0  0  0  0  0  0  0
    6.1598  -13.5407   26.0097 C   0  0  0  0  0  0  0  0  0  0  0  0
    5.8390  -12.5782   26.9412 C   0  0  0  0  0  0  0  0  0  0  0  0
    6.8063  -11.8498   27.6085 C   0  0  0  0  0  0  0  0  0  0  0  0
    8.1233  -12.1008   27.3272 C   0  0  0  0  0  0  0  0  0  0  0  0
    8.4456  -13.0572   26.4015 C   0  0  0  0  0  0  0  0  0  0  0  0
    7.7675  -16.5562   26.5439 C   0  0  0  0  0  0  0  0  0  0  0  0
    8.1580  -16.3104   27.8763 O   0  0  0  0  0  0  0  0  0  0  0  0
    6.7452  -17.2760   26.4403 O   0  0  0  0  0  0  0  0  0  0  0  0
  2  1  1  0
  3  4  1  0
  3  2  1  0
  4  5  1  0
  5  1  1  0
  5  6  1  1
  6  7  2  0
  8  6  1  0
  8  9  1  0
  9 14  1  0
  9 10  1  6
 11 10  1  0
 12 11  1  0
 12 16  1  0
 13 12  2  0
 14 15  2  0
 17 18  1  0
 17 14  1  0
 18 26  1  0
 18 19  1  6
 20 19  1  0
 21 20  2  0
 22 21  1  0
 23 22  2  0
 23 24  1  0
 24 25  2  0
 25 20  1  0
 26 28  2  0
 26 27  1  0
M  END
$$$$
