PEF.pdb
     RDKit          3D

 28 29  0  0  1  0  0  0  0  0999 V2000
    8.4214  -14.6918   18.8283 N   0  0  0  0  0  0  0  0  0  0  0  0
    8.3138  -13.4857   18.0046 C   0  0  0  0  0  0  0  0  0  0  0  0
    7.2624  -12.6993   18.7437 C   0  0  0  0  0  0  0  0  0  0  0  0
    7.5914  -12.9938   20.1870 C   0  0  0  0  0  0  0  0  0  0  0  0
    8.5765  -14.1481   20.1413 C   0  0  1  0  0  0  0  0  0  0  0  0
    8.3223  -15.1141   21.2173 C   0  0  0  0  0  0  0  0  0  0  0  0
    7.1391  -15.2513   21.6204 O   0  0  0  0  0  0  0  0  0  0  0  0
    9.3128  -15.9110   21.8432 N   0  0  0  0  0  0  0  0  0  0  0  0
    8.9955  -16.8865   22.8450 C   0  0  1  0  0  0  0  0  0  0  0  0
    9.7190  -18.1987   22.6437 C   0  0  0  0  0  0  0  0  0  0  0  0
   11.1990  -17.9688   22.4309 C   0  0  0  0  0  0  0  0  0  0  0  0
   11.8946  -19.2456   22.2542 C   0  0  0  0  0  0  0  0  0  0  0  0
   13.1257  -19.2912   22.0816 O   0  0  0  0  0  0  0  0  0  0  0  0
    9.3069  -16.3270   24.2108 C   0  0  0  0  0  0  0  0  0  0  0  0
   10.2135  -15.4735   24.3676 O   0  0  0  0  0  0  0  0  0  0  0  0
   11.1601  -20.4266   22.2805 O   0  0  0  0  0  0  0  0  0  0  0  0
    8.5779  -16.7571   25.3466 N   0  0  0  0  0  0  0  0  0  0  0  0
    8.9476  -16.4147   26.7036 C   0  0  1  0  0  0  0  0  0  0  0  0
    7.8523  -15.7768   27.4679 C   0  0  0  0  0  0  0  0  0  0  0  0
    7.5170  -14.4524   26.9072 C   0  0  0  0  0  0  0  0  0  0  0  0
    6.4404  -14.2253   26.0617 C   0  0  0  0  0  0  0  0  0  0  0  0
    6.1946  -12.9579   25.5818 C   0  0  0  0  0  0  0  0  0  0  0  0
    6.9925  -11.8787   25.9138 C   0  0  0  0  0  0  0  0  0  0  0  0
    8.0594  -12.0870   26.7476 C   0  0  0  0  0  0  0  0  0  0  0  0
    8.3064  -13.3459   27.2265 C   0  0  0  0  0  0  0  0  0  0  0  0
    9.6538  -17.5287   27.3816 C   0  0  0  0  0  0  0  0  0  0  0  0
   10.3042  -17.3311   28.6169 O   0  0  0  0  0  0  0  0  0  0  0  0
    9.7379  -18.7027   26.9470 O   0  0  0  0  0  0  0  0  0  0  0  0
  2  1  1  0
  3  4  1  0
  3  2  1  0
  4  5  1  0
  5  1  1  0
  5  6  1  1
  6  7  2  0
  8  6  1  0
  8  9  1  0
  9 14  1  0
  9 10  1  6
 11 10  1  0
 12 11  1  0
 12 16  1  0
 13 12  2  0
 14 15  2  0
 17 18  1  0
 17 14  1  0
 18 26  1  0
 18 19  1  1
 20 19  1  0
 21 20  2  0
 22 21  1  0
 23 22  2  0
 23 24  1  0
 24 25  2  0
 25 20  1  0
 26 28  2  0
 26 27  1  0
M  END
$$$$
