PEF.pdb
     RDKit          3D

 28 29  0  0  1  0  0  0  0  0999 V2000
    9.2421  -13.9338   19.3153 N   0  0  0  0  0  0  0  0  0  0  0  0
    8.8343  -12.9522   18.3079 C   0  0  0  0  0  0  0  0  0  0  0  0
    7.3578  -13.2273   18.1882 C   0  0  0  0  0  0  0  0  0  0  0  0
    6.9683  -13.5352   19.6136 C   0  0  0  0  0  0  0  0  0  0  0  0
    8.2818  -13.7191   20.3523 C   0  0  1  0  0  0  0  0  0  0  0  0
    8.2024  -14.8169   21.3239 C   0  0  0  0  0  0  0  0  0  0  0  0
    7.2459  -14.8152   22.1401 O   0  0  0  0  0  0  0  0  0  0  0  0
    9.1261  -15.8876   21.4159 N   0  0  0  0  0  0  0  0  0  0  0  0
    9.0046  -16.9263   22.3969 C   0  0  1  0  0  0  0  0  0  0  0  0
    9.8607  -18.1339   22.0896 C   0  0  0  0  0  0  0  0  0  0  0  0
    9.6268  -19.2305   23.1052 C   0  0  0  0  0  0  0  0  0  0  0  0
   10.4111  -20.4195   22.7636 C   0  0  0  0  0  0  0  0  0  0  0  0
   11.6350  -20.4693   22.9807 O   0  0  0  0  0  0  0  0  0  0  0  0
    9.3520  -16.3775   23.7584 C   0  0  0  0  0  0  0  0  0  0  0  0
   10.3706  -15.6642   23.9265 O   0  0  0  0  0  0  0  0  0  0  0  0
    9.7705  -21.5107   22.1858 O   0  0  0  0  0  0  0  0  0  0  0  0
    8.5301  -16.6590   24.8774 N   0  0  0  0  0  0  0  0  0  0  0  0
    8.8391  -16.2165   26.2205 C   0  0  1  0  0  0  0  0  0  0  0  0
    7.6619  -15.7009   26.9548 C   0  0  0  0  0  0  0  0  0  0  0  0
    7.3327  -14.3259   26.5282 C   0  0  0  0  0  0  0  0  0  0  0  0
    6.1410  -13.9774   25.9085 C   0  0  0  0  0  0  0  0  0  0  0  0
    5.9098  -12.6700   25.5420 C   0  0  0  0  0  0  0  0  0  0  0  0
    6.8348  -11.6681   25.7704 C   0  0  0  0  0  0  0  0  0  0  0  0
    8.0162  -11.9965   26.3813 C   0  0  0  0  0  0  0  0  0  0  0  0
    8.2491  -13.2955   26.7469 C   0  0  0  0  0  0  0  0  0  0  0  0
    9.6818  -17.1982   26.9456 C   0  0  0  0  0  0  0  0  0  0  0  0
   10.0431  -18.4244   26.3505 O   0  0  0  0  0  0  0  0  0  0  0  0
   10.1379  -17.0436   28.1041 O   0  0  0  0  0  0  0  0  0  0  0  0
  2  1  1  0
  3  4  1  0
  3  2  1  0
  4  5  1  0
  5  1  1  0
  5  6  1  1
  6  7  2  0
  8  6  1  0
  8  9  1  0
  9 14  1  0
  9 10  1  6
 11 10  1  0
 12 11  1  0
 12 16  1  0
 13 12  2  0
 14 15  2  0
 17 18  1  0
 17 14  1  0
 18 26  1  0
 18 19  1  1
 20 19  1  0
 21 20  2  0
 22 21  1  0
 23 22  2  0
 23 24  1  0
 24 25  2  0
 25 20  1  0
 26 28  2  0
 26 27  1  0
M  END
$$$$
