PEF.pdb
     RDKit          3D

 28 29  0  0  1  0  0  0  0  0999 V2000
    8.9325  -14.6385   18.3937 N   0  0  0  0  0  0  0  0  0  0  0  0
    8.5295  -13.6407   17.4004 C   0  0  0  0  0  0  0  0  0  0  0  0
    7.2318  -13.1371   17.9769 C   0  0  0  0  0  0  0  0  0  0  0  0
    7.5164  -13.1293   19.4592 C   0  0  0  0  0  0  0  0  0  0  0  0
    8.8069  -13.9128   19.6190 C   0  0  1  0  0  0  0  0  0  0  0  0
    8.7728  -14.7662   20.8131 C   0  0  0  0  0  0  0  0  0  0  0  0
    8.6373  -14.2101   21.9327 O   0  0  0  0  0  0  0  0  0  0  0  0
    8.8814  -16.1791   20.8043 N   0  0  0  0  0  0  0  0  0  0  0  0
    8.7261  -16.9700   21.9901 C   0  0  1  0  0  0  0  0  0  0  0  0
    9.0087  -18.4379   21.7640 C   0  0  0  0  0  0  0  0  0  0  0  0
    8.7709  -19.2318   23.0296 C   0  0  0  0  0  0  0  0  0  0  0  0
    9.0338  -20.6540   22.7980 C   0  0  0  0  0  0  0  0  0  0  0  0
    9.9348  -21.2520   23.4128 O   0  0  0  0  0  0  0  0  0  0  0  0
    9.6224  -16.4309   23.0772 C   0  0  0  0  0  0  0  0  0  0  0  0
   10.8535  -16.2827   22.8846 O   0  0  0  0  0  0  0  0  0  0  0  0
    8.2585  -21.3443   21.8721 O   0  0  0  0  0  0  0  0  0  0  0  0
    9.0876  -16.0806   24.3413 N   0  0  0  0  0  0  0  0  0  0  0  0
    9.8965  -15.5914   25.4374 C   0  0  1  0  0  0  0  0  0  0  0  0
   10.0199  -14.1166   25.4641 C   0  0  0  0  0  0  0  0  0  0  0  0
    8.7308  -13.4838   25.8086 C   0  0  0  0  0  0  0  0  0  0  0  0
    8.5376  -12.6948   26.9337 C   0  0  0  0  0  0  0  0  0  0  0  0
    7.3025  -12.1389   27.1835 C   0  0  0  0  0  0  0  0  0  0  0  0
    6.2233  -12.3380   26.3426 C   0  0  0  0  0  0  0  0  0  0  0  0
    6.3981  -13.1146   25.2277 C   0  0  0  0  0  0  0  0  0  0  0  0
    7.6250  -13.6687   24.9765 C   0  0  0  0  0  0  0  0  0  0  0  0
    9.5364  -16.2394   26.7220 C   0  0  0  0  0  0  0  0  0  0  0  0
   10.2969  -16.0132   27.8875 O   0  0  0  0  0  0  0  0  0  0  0  0
    8.5650  -17.0147   26.8935 O   0  0  0  0  0  0  0  0  0  0  0  0
  2  1  1  0
  3  4  1  0
  3  2  1  0
  4  5  1  0
  5  1  1  0
  5  6  1  1
  6  7  2  0
  8  6  1  0
  8  9  1  0
  9 14  1  0
  9 10  1  6
 11 10  1  0
 12 11  1  0
 12 16  1  0
 13 12  2  0
 14 15  2  0
 17 18  1  0
 17 14  1  0
 18 26  1  0
 18 19  1  1
 20 19  1  0
 21 20  2  0
 22 21  1  0
 23 22  2  0
 23 24  1  0
 24 25  2  0
 25 20  1  0
 26 28  2  0
 26 27  1  0
M  END
$$$$
