PEF.pdb
     RDKit          3D

 28 29  0  0  1  0  0  0  0  0999 V2000
    8.9054  -14.6817   18.3501 N   0  0  0  0  0  0  0  0  0  0  0  0
    8.7703  -13.6662   17.3036 C   0  0  0  0  0  0  0  0  0  0  0  0
    7.5910  -12.8688   17.7970 C   0  0  0  0  0  0  0  0  0  0  0  0
    7.8096  -12.8559   19.2904 C   0  0  0  0  0  0  0  0  0  0  0  0
    8.8910  -13.8916   19.5414 C   0  0  1  0  0  0  0  0  0  0  0  0
    8.6232  -14.6628   20.7617 C   0  0  0  0  0  0  0  0  0  0  0  0
    8.5288  -14.0360   21.8476 O   0  0  0  0  0  0  0  0  0  0  0  0
    8.4612  -16.0696   20.8134 N   0  0  0  0  0  0  0  0  0  0  0  0
    8.1621  -16.7653   22.0309 C   0  0  1  0  0  0  0  0  0  0  0  0
    8.1326  -18.2675   21.8626 C   0  0  0  0  0  0  0  0  0  0  0  0
    7.3082  -18.6565   20.6552 C   0  0  0  0  0  0  0  0  0  0  0  0
    7.3441  -20.1073   20.4576 C   0  0  0  0  0  0  0  0  0  0  0  0
    7.6715  -20.6015   19.3639 O   0  0  0  0  0  0  0  0  0  0  0  0
    9.1651  -16.3820   23.0905 C   0  0  0  0  0  0  0  0  0  0  0  0
   10.3675  -16.1752   22.7968 O   0  0  0  0  0  0  0  0  0  0  0  0
    7.0048  -20.9439   21.5158 O   0  0  0  0  0  0  0  0  0  0  0  0
    8.7655  -16.2478   24.4429 N   0  0  0  0  0  0  0  0  0  0  0  0
    9.6699  -15.8550   25.5026 C   0  0  1  0  0  0  0  0  0  0  0  0
    9.8667  -14.3908   25.5946 C   0  0  0  0  0  0  0  0  0  0  0  0
    8.6282  -13.7169   26.0337 C   0  0  0  0  0  0  0  0  0  0  0  0
    8.3631  -13.3782   27.3530 C   0  0  0  0  0  0  0  0  0  0  0  0
    7.1826  -12.7489   27.6806 C   0  0  0  0  0  0  0  0  0  0  0  0
    6.2294  -12.4336   26.7301 C   0  0  0  0  0  0  0  0  0  0  0  0
    6.4765  -12.7616   25.4231 C   0  0  0  0  0  0  0  0  0  0  0  0
    7.6494  -13.3872   25.0942 C   0  0  0  0  0  0  0  0  0  0  0  0
    9.3668  -16.5538   26.7751 C   0  0  0  0  0  0  0  0  0  0  0  0
   10.1933  -16.3936   27.9062 O   0  0  0  0  0  0  0  0  0  0  0  0
    8.3908  -17.3189   26.9653 O   0  0  0  0  0  0  0  0  0  0  0  0
  2  1  1  0
  3  4  1  0
  3  2  1  0
  4  5  1  0
  5  1  1  0
  5  6  1  1
  6  7  2  0
  8  6  1  0
  8  9  1  0
  9 14  1  0
  9 10  1  6
 11 10  1  0
 12 11  1  0
 12 16  1  0
 13 12  2  0
 14 15  2  0
 17 18  1  0
 17 14  1  0
 18 26  1  0
 18 19  1  1
 20 19  1  0
 21 20  2  0
 22 21  1  0
 23 22  2  0
 23 24  1  0
 24 25  2  0
 25 20  1  0
 26 28  2  0
 26 27  1  0
M  END
$$$$
