PEF.pdb
     RDKit          3D

 28 29  0  0  1  0  0  0  0  0999 V2000
    9.4369  -14.1663   18.5949 N   0  0  0  0  0  0  0  0  0  0  0  0
    8.9157  -13.2030   17.6228 C   0  0  0  0  0  0  0  0  0  0  0  0
    7.4314  -13.4452   17.7128 C   0  0  0  0  0  0  0  0  0  0  0  0
    7.2335  -13.7045   19.1865 C   0  0  0  0  0  0  0  0  0  0  0  0
    8.6314  -13.9002   19.7456 C   0  0  1  0  0  0  0  0  0  0  0  0
    8.6628  -14.9689   20.7518 C   0  0  0  0  0  0  0  0  0  0  0  0
    7.8644  -14.8918   21.7202 O   0  0  0  0  0  0  0  0  0  0  0  0
    9.5288  -16.0900   20.7182 N   0  0  0  0  0  0  0  0  0  0  0  0
    9.6350  -17.0130   21.8103 C   0  0  1  0  0  0  0  0  0  0  0  0
   10.5726  -18.1638   21.5237 C   0  0  0  0  0  0  0  0  0  0  0  0
   10.2123  -18.8379   20.2182 C   0  0  0  0  0  0  0  0  0  0  0  0
   11.1602  -19.9137   19.9195 C   0  0  0  0  0  0  0  0  0  0  0  0
   11.3407  -20.8536   20.7142 O   0  0  0  0  0  0  0  0  0  0  0  0
   10.0799  -16.2783   23.0504 C   0  0  0  0  0  0  0  0  0  0  0  0
   10.9168  -15.3457   22.9831 O   0  0  0  0  0  0  0  0  0  0  0  0
   11.8695  -19.8791   18.7234 O   0  0  0  0  0  0  0  0  0  0  0  0
    9.5581  -16.6297   24.3196 N   0  0  0  0  0  0  0  0  0  0  0  0
    9.0162  -15.6628   25.2505 C   0  0  1  0  0  0  0  0  0  0  0  0
    8.0566  -14.7226   24.6291 C   0  0  0  0  0  0  0  0  0  0  0  0
    7.5631  -13.7409   25.6158 C   0  0  0  0  0  0  0  0  0  0  0  0
    6.2778  -13.7555   26.1387 C   0  0  0  0  0  0  0  0  0  0  0  0
    5.8952  -12.8034   27.0573 C   0  0  0  0  0  0  0  0  0  0  0  0
    6.7560  -11.8118   27.4901 C   0  0  0  0  0  0  0  0  0  0  0  0
    8.0283  -11.7840   26.9830 C   0  0  0  0  0  0  0  0  0  0  0  0
    8.4118  -12.7293   26.0695 C   0  0  0  0  0  0  0  0  0  0  0  0
    8.5788  -16.2996   26.5165 C   0  0  0  0  0  0  0  0  0  0  0  0
    9.0836  -15.8658   27.7596 O   0  0  0  0  0  0  0  0  0  0  0  0
    7.7542  -17.2410   26.6053 O   0  0  0  0  0  0  0  0  0  0  0  0
  2  1  1  0
  3  4  1  0
  3  2  1  0
  4  5  1  0
  5  1  1  0
  5  6  1  1
  6  7  2  0
  8  6  1  0
  8  9  1  0
  9 14  1  0
  9 10  1  6
 11 10  1  0
 12 11  1  0
 12 16  1  0
 13 12  2  0
 14 15  2  0
 17 18  1  0
 17 14  1  0
 18 26  1  0
 18 19  1  6
 20 19  1  0
 21 20  2  0
 22 21  1  0
 23 22  2  0
 23 24  1  0
 24 25  2  0
 25 20  1  0
 26 28  2  0
 26 27  1  0
M  END
$$$$
