PEF.pdb
     RDKit          3D

 28 29  0  0  1  0  0  0  0  0999 V2000
    8.6625  -14.8567   18.6184 N   0  0  0  0  0  0  0  0  0  0  0  0
    8.8190  -13.9856   17.4515 C   0  0  0  0  0  0  0  0  0  0  0  0
    7.7158  -12.9819   17.6648 C   0  0  0  0  0  0  0  0  0  0  0  0
    7.7342  -12.7925   19.1622 C   0  0  0  0  0  0  0  0  0  0  0  0
    8.6074  -13.9153   19.6929 C   0  0  1  0  0  0  0  0  0  0  0  0
    8.0692  -14.4703   20.9409 C   0  0  0  0  0  0  0  0  0  0  0  0
    7.9847  -13.7087   21.9379 O   0  0  0  0  0  0  0  0  0  0  0  0
    7.6335  -15.8077   21.1129 N   0  0  0  0  0  0  0  0  0  0  0  0
    7.1532  -16.3048   22.3691 C   0  0  1  0  0  0  0  0  0  0  0  0
    6.5547  -17.6895   22.2681 C   0  0  0  0  0  0  0  0  0  0  0  0
    5.4486  -17.7225   21.2366 C   0  0  0  0  0  0  0  0  0  0  0  0
    4.9934  -19.0975   21.0189 C   0  0  0  0  0  0  0  0  0  0  0  0
    3.9264  -19.5091   21.5085 O   0  0  0  0  0  0  0  0  0  0  0  0
    8.2756  -16.2974   23.3771 C   0  0  0  0  0  0  0  0  0  0  0  0
    9.4555  -16.0518   23.0277 O   0  0  0  0  0  0  0  0  0  0  0  0
    5.7725  -19.9553   20.2493 O   0  0  0  0  0  0  0  0  0  0  0  0
    8.0162  -16.5690   24.7430 N   0  0  0  0  0  0  0  0  0  0  0  0
    8.9790  -16.3287   25.7968 C   0  0  1  0  0  0  0  0  0  0  0  0
    9.5639  -14.9695   25.7597 C   0  0  0  0  0  0  0  0  0  0  0  0
    8.5766  -13.9567   26.1842 C   0  0  0  0  0  0  0  0  0  0  0  0
    8.4056  -13.5537   27.5010 C   0  0  0  0  0  0  0  0  0  0  0  0
    7.4619  -12.6009   27.8146 C   0  0  0  0  0  0  0  0  0  0  0  0
    6.6599  -12.0160   26.8521 C   0  0  0  0  0  0  0  0  0  0  0  0
    6.8167  -12.4034   25.5475 C   0  0  0  0  0  0  0  0  0  0  0  0
    7.7543  -13.3506   25.2325 C   0  0  0  0  0  0  0  0  0  0  0  0
    8.4809  -16.7889   27.1158 C   0  0  0  0  0  0  0  0  0  0  0  0
    7.1708  -17.2890   27.2629 O   0  0  0  0  0  0  0  0  0  0  0  0
    9.1432  -16.7823   28.1813 O   0  0  0  0  0  0  0  0  0  0  0  0
  2  1  1  0
  3  4  1  0
  3  2  1  0
  4  5  1  0
  5  1  1  0
  5  6  1  1
  6  7  2  0
  8  6  1  0
  8  9  1  0
  9 14  1  0
  9 10  1  6
 11 10  1  0
 12 11  1  0
 12 16  1  0
 13 12  2  0
 14 15  2  0
 17 18  1  0
 17 14  1  0
 18 26  1  0
 18 19  1  1
 20 19  1  0
 21 20  2  0
 22 21  1  0
 23 22  2  0
 23 24  1  0
 24 25  2  0
 25 20  1  0
 26 28  2  0
 26 27  1  0
M  END
$$$$
