PEF.pdb
     RDKit          3D

 28 29  0  0  1  0  0  0  0  0999 V2000
    9.2242  -13.8575   19.5117 N   0  0  0  0  0  0  0  0  0  0  0  0
    8.8855  -12.7976   18.5596 C   0  0  0  0  0  0  0  0  0  0  0  0
    7.3848  -12.9126   18.4899 C   0  0  0  0  0  0  0  0  0  0  0  0
    7.0175  -13.2378   19.9173 C   0  0  0  0  0  0  0  0  0  0  0  0
    8.3304  -13.5880   20.5944 C   0  0  1  0  0  0  0  0  0  0  0  0
    8.1714  -14.7114   21.5262 C   0  0  0  0  0  0  0  0  0  0  0  0
    7.2909  -14.6179   22.4190 O   0  0  0  0  0  0  0  0  0  0  0  0
    8.9378  -15.9030   21.4991 N   0  0  0  0  0  0  0  0  0  0  0  0
    8.7668  -16.9497   22.4639 C   0  0  1  0  0  0  0  0  0  0  0  0
    9.5134  -18.2142   22.1042 C   0  0  0  0  0  0  0  0  0  0  0  0
    9.2561  -19.2991   23.1266 C   0  0  0  0  0  0  0  0  0  0  0  0
   10.0108  -20.5084   22.7899 C   0  0  0  0  0  0  0  0  0  0  0  0
   10.7582  -20.5466   21.7962 O   0  0  0  0  0  0  0  0  0  0  0  0
    9.2016  -16.4596   23.8227 C   0  0  0  0  0  0  0  0  0  0  0  0
   10.2719  -15.8203   23.9664 O   0  0  0  0  0  0  0  0  0  0  0  0
    9.8859  -21.6325   23.5996 O   0  0  0  0  0  0  0  0  0  0  0  0
    8.4055  -16.7134   24.9665 N   0  0  0  0  0  0  0  0  0  0  0  0
    8.8019  -16.3411   26.3080 C   0  0  1  0  0  0  0  0  0  0  0  0
    7.6927  -15.7860   27.1158 C   0  0  0  0  0  0  0  0  0  0  0  0
    7.2600  -14.4753   26.5908 C   0  0  0  0  0  0  0  0  0  0  0  0
    6.0988  -14.2867   25.8548 C   0  0  0  0  0  0  0  0  0  0  0  0
    5.7650  -13.0298   25.4014 C   0  0  0  0  0  0  0  0  0  0  0  0
    6.5551  -11.9236   25.6539 C   0  0  0  0  0  0  0  0  0  0  0  0
    7.7047  -12.0936   26.3792 C   0  0  0  0  0  0  0  0  0  0  0  0
    8.0394  -13.3421   26.8314 C   0  0  0  0  0  0  0  0  0  0  0  0
    9.6164  -17.3972   26.9566 C   0  0  0  0  0  0  0  0  0  0  0  0
    9.7898  -18.6570   26.3476 O   0  0  0  0  0  0  0  0  0  0  0  0
   10.2066  -17.2814   28.0577 O   0  0  0  0  0  0  0  0  0  0  0  0
  2  1  1  0
  3  4  1  0
  3  2  1  0
  4  5  1  0
  5  1  1  0
  5  6  1  1
  6  7  2  0
  8  6  1  0
  8  9  1  0
  9 14  1  0
  9 10  1  6
 11 10  1  0
 12 11  1  0
 12 16  1  0
 13 12  2  0
 14 15  2  0
 17 18  1  0
 17 14  1  0
 18 26  1  0
 18 19  1  1
 20 19  1  0
 21 20  2  0
 22 21  1  0
 23 22  2  0
 23 24  1  0
 24 25  2  0
 25 20  1  0
 26 28  2  0
 26 27  1  0
M  END
$$$$
