PEF.pdb
     RDKit          3D

 28 29  0  0  1  0  0  0  0  0999 V2000
    9.1374  -13.5720   19.8764 N   0  0  0  0  0  0  0  0  0  0  0  0
    8.7580  -12.6690   18.7877 C   0  0  0  0  0  0  0  0  0  0  0  0
    7.4273  -13.2357   18.3657 C   0  0  0  0  0  0  0  0  0  0  0  0
    6.8192  -13.6522   19.6828 C   0  0  0  0  0  0  0  0  0  0  0  0
    7.9581  -13.5835   20.6844 C   0  0  1  0  0  0  0  0  0  0  0  0
    7.9029  -14.6986   21.6378 C   0  0  0  0  0  0  0  0  0  0  0  0
    6.8019  -14.9483   22.1913 O   0  0  0  0  0  0  0  0  0  0  0  0
    9.0014  -15.5230   21.9868 N   0  0  0  0  0  0  0  0  0  0  0  0
    8.8764  -16.6293   22.8904 C   0  0  1  0  0  0  0  0  0  0  0  0
    9.6347  -17.8550   22.4340 C   0  0  0  0  0  0  0  0  0  0  0  0
   11.0110  -17.4787   21.9313 C   0  0  0  0  0  0  0  0  0  0  0  0
   11.7614  -18.6774   21.5498 C   0  0  0  0  0  0  0  0  0  0  0  0
   11.4172  -19.3713   20.5764 O   0  0  0  0  0  0  0  0  0  0  0  0
    9.3410  -16.2138   24.2641 C   0  0  0  0  0  0  0  0  0  0  0  0
   10.3291  -15.4540   24.4091 O   0  0  0  0  0  0  0  0  0  0  0  0
   12.8790  -19.0423   22.2932 O   0  0  0  0  0  0  0  0  0  0  0  0
    8.6667  -16.6762   25.4209 N   0  0  0  0  0  0  0  0  0  0  0  0
    9.0333  -16.2816   26.7644 C   0  0  1  0  0  0  0  0  0  0  0  0
    7.9307  -15.6312   27.5073 C   0  0  0  0  0  0  0  0  0  0  0  0
    7.4831  -14.4022   26.8216 C   0  0  0  0  0  0  0  0  0  0  0  0
    6.3814  -14.3489   25.9796 C   0  0  0  0  0  0  0  0  0  0  0  0
    6.0286  -13.1612   25.3782 C   0  0  0  0  0  0  0  0  0  0  0  0
    6.7411  -11.9940   25.5823 C   0  0  0  0  0  0  0  0  0  0  0  0
    7.8314  -12.0305   26.4109 C   0  0  0  0  0  0  0  0  0  0  0  0
    8.1848  -13.2100   27.0104 C   0  0  0  0  0  0  0  0  0  0  0  0
    9.7543  -17.3620   27.4803 C   0  0  0  0  0  0  0  0  0  0  0  0
    9.9319  -18.6306   26.8910 O   0  0  0  0  0  0  0  0  0  0  0  0
   10.2565  -17.2607   28.6255 O   0  0  0  0  0  0  0  0  0  0  0  0
  2  1  1  0
  3  4  1  0
  3  2  1  0
  4  5  1  0
  5  1  1  0
  5  6  1  1
  6  7  2  0
  8  6  1  0
  8  9  1  0
  9 14  1  0
  9 10  1  6
 11 10  1  0
 12 11  1  0
 12 16  1  0
 13 12  2  0
 14 15  2  0
 17 18  1  0
 17 14  1  0
 18 26  1  0
 18 19  1  1
 20 19  1  0
 21 20  2  0
 22 21  1  0
 23 22  2  0
 23 24  1  0
 24 25  2  0
 25 20  1  0
 26 28  2  0
 26 27  1  0
M  END
$$$$
