IDW.pdb
     RDKit          3D

 31 32  0  0  1  0  0  0  0  0999 V2000
    6.2237  -13.7433   18.9223 C   0  0  0  0  0  0  0  0  0  0  0  0
    7.6097  -14.2577   19.1781 C   0  0  0  0  0  0  0  0  0  0  0  0
    8.4379  -13.2740   20.0128 C   0  0  2  0  0  0  0  0  0  0  0  0
    8.5785  -11.9850   19.2759 C   0  0  0  0  0  0  0  0  0  0  0  0
    9.7194  -13.9548   20.3416 C   0  0  2  0  0  0  0  0  0  0  0  0
   10.4227  -14.2443   19.1197 N   0  0  0  0  0  0  0  0  0  0  0  0
    9.5688  -15.1463   21.2008 C   0  0  0  0  0  0  0  0  0  0  0  0
    8.8253  -14.9979   22.2273 O   0  0  0  0  0  0  0  0  0  0  0  0
   10.1684  -16.3908   20.9725 N   0  0  0  0  0  0  0  0  0  0  0  0
    9.9529  -17.4542   21.9379 C   0  0  1  0  0  0  0  0  0  0  0  0
   10.7141  -18.6983   21.5891 C   0  0  0  0  0  0  0  0  0  0  0  0
   10.3849  -19.8016   22.5028 C   0  0  0  0  0  0  0  0  0  0  0  0
    9.5528  -19.6552   23.4315 O   0  0  0  0  0  0  0  0  0  0  0  0
   10.4772  -16.9831   23.2692 C   0  0  0  0  0  0  0  0  0  0  0  0
   11.5306  -16.2951   23.3239 O   0  0  0  0  0  0  0  0  0  0  0  0
   11.0015  -21.0542   22.3532 O   0  0  0  0  0  0  0  0  0  0  0  0
    9.8282  -17.2841   24.4794 N   0  0  0  0  0  0  0  0  0  0  0  0
   10.2165  -16.7956   25.7780 C   0  0  1  0  0  0  0  0  0  0  0  0
    9.9989  -15.2766   25.7549 C   0  0  0  0  0  0  0  0  0  0  0  0
    8.5286  -14.9688   25.7916 C   0  0  0  0  0  0  0  0  0  0  0  0
    7.5032  -15.8405   25.4917 C   0  0  0  0  0  0  0  0  0  0  0  0
    6.3350  -15.2002   25.6397 N   0  0  0  0  0  0  0  0  0  0  0  0
    6.5389  -13.9108   26.0339 C   0  0  0  0  0  0  0  0  0  0  0  0
    5.6831  -12.8707   26.3132 C   0  0  0  0  0  0  0  0  0  0  0  0
    6.1851  -11.6544   26.6966 C   0  0  0  0  0  0  0  0  0  0  0  0
    7.5639  -11.5144   26.7905 C   0  0  0  0  0  0  0  0  0  0  0  0
    8.4201  -12.5488   26.5128 C   0  0  0  0  0  0  0  0  0  0  0  0
    7.9140  -13.7815   26.1244 C   0  0  0  0  0  0  0  0  0  0  0  0
    9.4353  -17.4125   26.8674 C   0  0  0  0  0  0  0  0  0  0  0  0
    8.4862  -18.1804   26.5871 O   0  0  0  0  0  0  0  0  0  0  0  0
    9.7309  -17.1592   28.1934 O   0  0  0  0  0  0  0  0  0  0  0  0
  1  2  1  0
  2  3  1  0
  3  4  1  6
  5  3  1  0
  5  6  1  6
  7  5  1  0
  7  8  2  0
  9  7  1  0
 10  9  1  0
 10 11  1  6
 12 13  2  0
 12 11  1  0
 14 10  1  0
 15 14  2  0
 16 12  1  0
 17 14  1  0
 18 19  1  6
 18 17  1  0
 20 19  1  0
 21 20  2  0
 22 23  1  0
 22 21  1  0
 23 28  2  0
 24 25  2  0
 24 23  1  0
 25 26  1  0
 26 27  2  0
 28 27  1  0
 28 20  1  0
 29 18  1  0
 30 29  2  0
 31 29  1  0
M  END
$$$$
