IDW.pdb
     RDKit          3D

 31 32  0  0  1  0  0  0  0  0999 V2000
    7.4889  -11.6698   19.9670 C   0  0  0  0  0  0  0  0  0  0  0  0
    7.4524  -13.1251   19.6039 C   0  0  0  0  0  0  0  0  0  0  0  0
    8.0056  -14.0074   20.7290 C   0  0  2  0  0  0  0  0  0  0  0  0
    9.3785  -13.5535   21.0938 C   0  0  0  0  0  0  0  0  0  0  0  0
    7.9114  -15.4169   20.2618 C   0  0  2  0  0  0  0  0  0  0  0  0
    6.5349  -15.7242   19.9753 N   0  0  0  0  0  0  0  0  0  0  0  0
    8.5299  -16.3996   21.1743 C   0  0  0  0  0  0  0  0  0  0  0  0
    7.7529  -16.9071   22.0501 O   0  0  0  0  0  0  0  0  0  0  0  0
    9.8712  -16.8003   21.1445 N   0  0  0  0  0  0  0  0  0  0  0  0
   10.3439  -17.7233   22.1614 C   0  0  1  0  0  0  0  0  0  0  0  0
   11.6355  -18.3795   21.7738 C   0  0  0  0  0  0  0  0  0  0  0  0
   12.1169  -19.2804   22.8307 C   0  0  0  0  0  0  0  0  0  0  0  0
   13.1651  -19.0309   23.4752 O   0  0  0  0  0  0  0  0  0  0  0  0
   10.6175  -16.9313   23.4132 C   0  0  0  0  0  0  0  0  0  0  0  0
   11.3703  -15.9227   23.3689 O   0  0  0  0  0  0  0  0  0  0  0  0
   11.4061  -20.4503   23.1435 O   0  0  0  0  0  0  0  0  0  0  0  0
   10.0573  -17.2761   24.6556 N   0  0  0  0  0  0  0  0  0  0  0  0
   10.4300  -16.7065   25.9255 C   0  0  1  0  0  0  0  0  0  0  0  0
   10.1616  -15.1990   25.8221 C   0  0  0  0  0  0  0  0  0  0  0  0
    8.6817  -14.9441   25.7722 C   0  0  0  0  0  0  0  0  0  0  0  0
    7.6956  -15.8882   25.5785 C   0  0  0  0  0  0  0  0  0  0  0  0
    6.5029  -15.2769   25.5969 N   0  0  0  0  0  0  0  0  0  0  0  0
    6.6516  -13.9365   25.7987 C   0  0  0  0  0  0  0  0  0  0  0  0
    5.7537  -12.8989   25.8955 C   0  0  0  0  0  0  0  0  0  0  0  0
    6.2029  -11.6213   26.1056 C   0  0  0  0  0  0  0  0  0  0  0  0
    7.5725  -11.4177   26.2150 C   0  0  0  0  0  0  0  0  0  0  0  0
    8.4707  -12.4493   26.1190 C   0  0  0  0  0  0  0  0  0  0  0  0
    8.0180  -13.7441   25.9062 C   0  0  0  0  0  0  0  0  0  0  0  0
    9.6707  -17.2902   27.0481 C   0  0  0  0  0  0  0  0  0  0  0  0
    8.8580  -18.2173   26.8267 O   0  0  0  0  0  0  0  0  0  0  0  0
    9.8390  -16.8333   28.3414 O   0  0  0  0  0  0  0  0  0  0  0  0
  1  2  1  0
  2  3  1  0
  3  4  1  6
  5  3  1  0
  5  6  1  1
  7  5  1  0
  7  8  2  0
  9  7  1  0
 10  9  1  0
 10 11  1  6
 12 13  2  0
 12 11  1  0
 14 10  1  0
 15 14  2  0
 16 12  1  0
 17 14  1  0
 18 19  1  6
 18 17  1  0
 20 19  1  0
 21 20  2  0
 22 23  1  0
 22 21  1  0
 23 28  2  0
 24 25  2  0
 24 23  1  0
 25 26  1  0
 26 27  2  0
 28 27  1  0
 28 20  1  0
 29 18  1  0
 30 29  2  0
 31 29  1  0
M  END
$$$$
