IDW.pdb
     RDKit          3D

 31 32  0  0  1  0  0  0  0  0999 V2000
    7.4462  -12.1975   18.8491 C   0  0  0  0  0  0  0  0  0  0  0  0
    7.8352  -13.6044   18.5025 C   0  0  0  0  0  0  0  0  0  0  0  0
    8.3079  -14.3852   19.7343 C   0  0  2  0  0  0  0  0  0  0  0  0
    9.4240  -13.6504   20.3964 C   0  0  0  0  0  0  0  0  0  0  0  0
    8.6437  -15.7599   19.2747 C   0  0  2  0  0  0  0  0  0  0  0  0
    7.4943  -16.3292   18.6219 N   0  0  0  0  0  0  0  0  0  0  0  0
    9.1825  -16.6372   20.3334 C   0  0  0  0  0  0  0  0  0  0  0  0
    8.3313  -17.0702   21.1798 O   0  0  0  0  0  0  0  0  0  0  0  0
   10.5241  -17.0151   20.4675 N   0  0  0  0  0  0  0  0  0  0  0  0
   10.9174  -17.7804   21.6375 C   0  0  1  0  0  0  0  0  0  0  0  0
   12.2687  -18.4098   21.4742 C   0  0  0  0  0  0  0  0  0  0  0  0
   12.4152  -19.0280   20.1488 C   0  0  0  0  0  0  0  0  0  0  0  0
   13.0932  -18.4819   19.2441 O   0  0  0  0  0  0  0  0  0  0  0  0
   11.0193  -16.8280   22.8000 C   0  0  0  0  0  0  0  0  0  0  0  0
   11.6698  -15.7562   22.6814 O   0  0  0  0  0  0  0  0  0  0  0  0
   11.7930  -20.2544   19.8656 O   0  0  0  0  0  0  0  0  0  0  0  0
   10.4070  -17.0886   24.0384 N   0  0  0  0  0  0  0  0  0  0  0  0
   10.2438  -16.1342   25.1054 C   0  0  1  0  0  0  0  0  0  0  0  0
    9.5395  -14.9149   24.4952 C   0  0  0  0  0  0  0  0  0  0  0  0
    8.2151  -14.6968   25.1705 C   0  0  0  0  0  0  0  0  0  0  0  0
    7.1621  -15.5861   25.2115 C   0  0  0  0  0  0  0  0  0  0  0  0
    6.1569  -15.0335   25.9049 N   0  0  0  0  0  0  0  0  0  0  0  0
    6.4992  -13.7867   26.3387 C   0  0  0  0  0  0  0  0  0  0  0  0
    5.8307  -12.8345   27.0725 C   0  0  0  0  0  0  0  0  0  0  0  0
    6.4401  -11.6422   27.3649 C   0  0  0  0  0  0  0  0  0  0  0  0
    7.7331  -11.4358   26.9011 C   0  0  0  0  0  0  0  0  0  0  0  0
    8.4026  -12.3826   26.1693 C   0  0  0  0  0  0  0  0  0  0  0  0
    7.7874  -13.5908   25.8720 C   0  0  0  0  0  0  0  0  0  0  0  0
    9.4561  -16.6766   26.2292 C   0  0  0  0  0  0  0  0  0  0  0  0
    8.6803  -17.6397   26.0301 O   0  0  0  0  0  0  0  0  0  0  0  0
    9.5576  -16.1417   27.4994 O   0  0  0  0  0  0  0  0  0  0  0  0
  1  2  1  0
  2  3  1  0
  3  4  1  6
  5  3  1  0
  5  6  1  1
  7  5  1  0
  7  8  2  0
  9  7  1  0
 10  9  1  0
 10 11  1  6
 12 13  2  0
 12 11  1  0
 14 10  1  0
 15 14  2  0
 16 12  1  0
 17 14  1  0
 18 19  1  6
 18 17  1  0
 20 19  1  0
 21 20  2  0
 22 23  1  0
 22 21  1  0
 23 28  2  0
 24 25  2  0
 24 23  1  0
 25 26  1  0
 26 27  2  0
 28 27  1  0
 28 20  1  0
 29 18  1  0
 30 29  2  0
 31 29  1  0
M  END
$$$$
