IDW.pdb
     RDKit          3D

 31 32  0  0  1  0  0  0  0  0999 V2000
    6.9891  -12.2107   19.4477 C   0  0  0  0  0  0  0  0  0  0  0  0
    7.3516  -13.6447   19.1956 C   0  0  0  0  0  0  0  0  0  0  0  0
    7.8083  -14.3510   20.4772 C   0  0  2  0  0  0  0  0  0  0  0  0
    8.8259  -13.5143   21.1761 C   0  0  0  0  0  0  0  0  0  0  0  0
    8.2721  -15.7088   20.0833 C   0  0  2  0  0  0  0  0  0  0  0  0
    7.1978  -16.3950   19.4153 N   0  0  0  0  0  0  0  0  0  0  0  0
    8.8420  -16.4994   21.1927 C   0  0  0  0  0  0  0  0  0  0  0  0
    8.0192  -17.2472   21.8190 O   0  0  0  0  0  0  0  0  0  0  0  0
   10.1838  -16.4845   21.5924 N   0  0  0  0  0  0  0  0  0  0  0  0
   10.6043  -17.3859   22.6507 C   0  0  1  0  0  0  0  0  0  0  0  0
   12.0530  -17.7563   22.5365 C   0  0  0  0  0  0  0  0  0  0  0  0
   12.4253  -18.7748   23.5288 C   0  0  0  0  0  0  0  0  0  0  0  0
   11.6012  -19.6366   23.9219 O   0  0  0  0  0  0  0  0  0  0  0  0
   10.4424  -16.6649   23.9633 C   0  0  0  0  0  0  0  0  0  0  0  0
   10.9270  -15.5122   24.1131 O   0  0  0  0  0  0  0  0  0  0  0  0
   13.7239  -18.8039   24.0621 O   0  0  0  0  0  0  0  0  0  0  0  0
    9.7594  -17.2346   25.0521 N   0  0  0  0  0  0  0  0  0  0  0  0
    9.8000  -16.7497   26.4082 C   0  0  1  0  0  0  0  0  0  0  0  0
    8.3805  -16.9076   26.9698 C   0  0  0  0  0  0  0  0  0  0  0  0
    7.4627  -15.9025   26.3334 C   0  0  0  0  0  0  0  0  0  0  0  0
    6.4298  -16.1755   25.4616 C   0  0  0  0  0  0  0  0  0  0  0  0
    5.8435  -15.0220   25.1119 N   0  0  0  0  0  0  0  0  0  0  0  0
    6.4523  -13.9670   25.7249 C   0  0  0  0  0  0  0  0  0  0  0  0
    6.2294  -12.6100   25.6936 C   0  0  0  0  0  0  0  0  0  0  0  0
    7.0205  -11.7683   26.4312 C   0  0  0  0  0  0  0  0  0  0  0  0
    8.0362  -12.3265   27.1968 C   0  0  0  0  0  0  0  0  0  0  0  0
    8.2615  -13.6786   27.2306 C   0  0  0  0  0  0  0  0  0  0  0  0
    7.4616  -14.5330   26.4844 C   0  0  0  0  0  0  0  0  0  0  0  0
   10.7695  -17.4880   27.2405 C   0  0  0  0  0  0  0  0  0  0  0  0
   11.3952  -18.4546   26.7473 O   0  0  0  0  0  0  0  0  0  0  0  0
   11.0012  -17.1331   28.5559 O   0  0  0  0  0  0  0  0  0  0  0  0
  1  2  1  0
  2  3  1  0
  3  4  1  6
  5  3  1  0
  5  6  1  1
  7  5  1  0
  7  8  2  0
  9  7  1  0
 10  9  1  0
 10 11  1  6
 12 13  2  0
 12 11  1  0
 14 10  1  0
 15 14  2  0
 16 12  1  0
 17 14  1  0
 18 19  1  1
 18 17  1  0
 20 19  1  0
 21 20  2  0
 22 23  1  0
 22 21  1  0
 23 28  2  0
 24 25  2  0
 24 23  1  0
 25 26  1  0
 26 27  2  0
 28 27  1  0
 28 20  1  0
 29 18  1  0
 30 29  2  0
 31 29  1  0
M  END
$$$$
