IDW.pdb
     RDKit          3D

 31 32  0  0  1  0  0  0  0  0999 V2000
    7.0727  -11.7655   20.1965 C   0  0  0  0  0  0  0  0  0  0  0  0
    7.2541  -13.2004   19.7971 C   0  0  0  0  0  0  0  0  0  0  0  0
    7.9716  -14.0085   20.8845 C   0  0  2  0  0  0  0  0  0  0  0  0
    9.3088  -13.4070   21.1568 C   0  0  0  0  0  0  0  0  0  0  0  0
    7.9988  -15.4240   20.4269 C   0  0  2  0  0  0  0  0  0  0  0  0
    6.6506  -15.8614   20.1773 N   0  0  0  0  0  0  0  0  0  0  0  0
    8.7297  -16.3375   21.3281 C   0  0  0  0  0  0  0  0  0  0  0  0
    8.0251  -16.9132   22.2229 O   0  0  0  0  0  0  0  0  0  0  0  0
   10.1025  -16.6067   21.2693 N   0  0  0  0  0  0  0  0  0  0  0  0
   10.6803  -17.4943   22.2631 C   0  0  1  0  0  0  0  0  0  0  0  0
   12.0613  -17.9422   21.8875 C   0  0  0  0  0  0  0  0  0  0  0  0
   12.0872  -18.5249   20.5383 C   0  0  0  0  0  0  0  0  0  0  0  0
   11.3570  -19.4997   20.2332 O   0  0  0  0  0  0  0  0  0  0  0  0
   10.8086  -16.7245   23.5515 C   0  0  0  0  0  0  0  0  0  0  0  0
   11.4809  -15.6601   23.5853 O   0  0  0  0  0  0  0  0  0  0  0  0
   12.9380  -17.9971   19.5540 O   0  0  0  0  0  0  0  0  0  0  0  0
   10.1978  -17.1511   24.7436 N   0  0  0  0  0  0  0  0  0  0  0  0
   10.4735  -16.6256   26.0565 C   0  0  1  0  0  0  0  0  0  0  0  0
   10.1031  -15.1369   26.0163 C   0  0  0  0  0  0  0  0  0  0  0  0
    8.6104  -14.9818   25.9423 C   0  0  0  0  0  0  0  0  0  0  0  0
    7.7000  -15.9707   25.6349 C   0  0  0  0  0  0  0  0  0  0  0  0
    6.4663  -15.4479   25.6695 N   0  0  0  0  0  0  0  0  0  0  0  0
    6.5131  -14.1241   25.9936 C   0  0  0  0  0  0  0  0  0  0  0  0
    5.5406  -13.1644   26.1532 C   0  0  0  0  0  0  0  0  0  0  0  0
    5.8913  -11.8829   26.4895 C   0  0  0  0  0  0  0  0  0  0  0  0
    7.2396  -11.5954   26.6597 C   0  0  0  0  0  0  0  0  0  0  0  0
    8.2117  -12.5493   26.5014 C   0  0  0  0  0  0  0  0  0  0  0  0
    7.8590  -13.8479   26.1608 C   0  0  0  0  0  0  0  0  0  0  0  0
    9.7096  -17.3193   27.1115 C   0  0  0  0  0  0  0  0  0  0  0  0
    9.8474  -16.9665   28.3055 O   0  0  0  0  0  0  0  0  0  0  0  0
    8.8436  -18.3525   26.8075 O   0  0  0  0  0  0  0  0  0  0  0  0
  1  2  1  0
  2  3  1  0
  3  4  1  6
  5  3  1  0
  5  6  1  1
  7  5  1  0
  7  8  2  0
  9  7  1  0
 10  9  1  0
 10 11  1  6
 12 13  2  0
 12 11  1  0
 14 10  1  0
 15 14  2  0
 16 12  1  0
 17 14  1  0
 18 19  1  6
 18 17  1  0
 20 19  1  0
 21 20  2  0
 22 23  1  0
 22 21  1  0
 23 28  2  0
 24 25  2  0
 24 23  1  0
 25 26  1  0
 26 27  2  0
 28 27  1  0
 28 20  1  0
 29 18  1  0
 30 29  2  0
 31 29  1  0
M  END
$$$$
