PWF.pdb
     RDKit          3D

 33 36  0  0  1  0  0  0  0  0999 V2000
    8.4972  -15.2171   18.7679 N   0  0  0  0  0  0  0  0  0  0  0  0
    8.2278  -14.6113   17.4786 C   0  0  0  0  0  0  0  0  0  0  0  0
    8.1293  -13.1320   17.7703 C   0  0  0  0  0  0  0  0  0  0  0  0
    8.5530  -12.9859   19.2382 C   0  0  0  0  0  0  0  0  0  0  0  0
    9.3515  -14.2641   19.3975 C   0  0  1  0  0  0  0  0  0  0  0  0
    9.5844  -14.5414   20.8359 C   0  0  0  0  0  0  0  0  0  0  0  0
   10.3603  -13.8024   21.4921 O   0  0  0  0  0  0  0  0  0  0  0  0
    8.9644  -15.6161   21.5143 N   0  0  0  0  0  0  0  0  0  0  0  0
    8.7805  -15.7073   22.9512 C   0  0  1  0  0  0  0  0  0  0  0  0
    7.2913  -15.8705   23.1513 C   0  0  0  0  0  0  0  0  0  0  0  0
    6.7747  -15.3476   24.4155 C   0  0  0  0  0  0  0  0  0  0  0  0
    6.1974  -16.1471   25.4029 C   0  0  0  0  0  0  0  0  0  0  0  0
    5.8463  -15.4068   26.4607 N   0  0  0  0  0  0  0  0  0  0  0  0
    6.1907  -14.1194   26.1721 C   0  0  0  0  0  0  0  0  0  0  0  0
    6.0286  -12.9868   26.9400 C   0  0  0  0  0  0  0  0  0  0  0  0
    6.4655  -11.7995   26.3899 C   0  0  0  0  0  0  0  0  0  0  0  0
    7.0337  -11.7225   25.1483 C   0  0  0  0  0  0  0  0  0  0  0  0
    7.1900  -12.8572   24.3934 C   0  0  0  0  0  0  0  0  0  0  0  0
    6.7700  -14.0748   24.8974 C   0  0  0  0  0  0  0  0  0  0  0  0
    9.6115  -16.6805   23.6261 C   0  0  0  0  0  0  0  0  0  0  0  0
   10.1135  -17.6420   22.9502 O   0  0  0  0  0  0  0  0  0  0  0  0
    9.9247  -16.6470   25.0070 N   0  0  0  0  0  0  0  0  0  0  0  0
   10.7895  -17.6424   25.6407 C   0  0  1  0  0  0  0  0  0  0  0  0
   10.7009  -17.3257   27.1327 C   0  0  0  0  0  0  0  0  0  0  0  0
   10.7289  -15.8881   27.4332 C   0  0  0  0  0  0  0  0  0  0  0  0
   11.8927  -15.1881   27.2036 C   0  0  0  0  0  0  0  0  0  0  0  0
   11.9491  -13.8159   27.4725 C   0  0  0  0  0  0  0  0  0  0  0  0
   10.8616  -13.1485   27.9635 C   0  0  0  0  0  0  0  0  0  0  0  0
    9.6959  -13.8377   28.1958 C   0  0  0  0  0  0  0  0  0  0  0  0
    9.6494  -15.2022   27.9253 C   0  0  0  0  0  0  0  0  0  0  0  0
   10.3021  -19.0255   25.4607 C   0  0  0  0  0  0  0  0  0  0  0  0
    9.0537  -19.1987   24.8527 O   0  0  0  0  0  0  0  0  0  0  0  0
   10.9450  -20.0356   25.8229 O   0  0  0  0  0  0  0  0  0  0  0  0
  1  5  1  0
  1  2  1  0
  2  3  1  0
  3  4  1  0
  5  4  1  0
  6  7  2  0
  5  6  1  1
  8  6  1  0
  9  8  1  0
  9 10  1  6
 11 10  1  0
 12 11  2  0
 13 12  1  0
 14 13  1  0
 14 19  2  0
 15 14  1  0
 16 15  2  0
 16 17  1  0
 17 18  2  0
 18 19  1  0
 19 11  1  0
 20 22  1  0
 20  9  1  0
 21 20  2  0
 23 22  1  0
 23 31  1  0
 23 24  1  1
 24 25  1  0
 25 26  2  0
 25 30  1  0
 26 27  1  0
 27 28  2  0
 29 28  1  0
 30 29  2  0
 31 32  1  0
 33 31  2  0
M  END
$$$$
