PWF.pdb
     RDKit          3D

 33 36  0  0  1  0  0  0  0  0999 V2000
    8.1265  -15.3961   18.5676 N   0  0  0  0  0  0  0  0  0  0  0  0
    8.0045  -15.0394   17.1677 C   0  0  0  0  0  0  0  0  0  0  0  0
    8.0945  -13.5312   17.1537 C   0  0  0  0  0  0  0  0  0  0  0  0
    8.4629  -13.1403   18.5915 C   0  0  0  0  0  0  0  0  0  0  0  0
    9.0713  -14.4473   19.0589 C   0  0  1  0  0  0  0  0  0  0  0  0
    9.1947  -14.4499   20.5371 C   0  0  0  0  0  0  0  0  0  0  0  0
   10.1209  -13.7998   21.0831 O   0  0  0  0  0  0  0  0  0  0  0  0
    8.3046  -15.1618   21.3741 N   0  0  0  0  0  0  0  0  0  0  0  0
    8.3376  -15.1638   22.8252 C   0  0  1  0  0  0  0  0  0  0  0  0
    6.9109  -14.9107   23.2551 C   0  0  0  0  0  0  0  0  0  0  0  0
    6.7218  -14.7154   24.6920 C   0  0  0  0  0  0  0  0  0  0  0  0
    6.3999  -15.7469   25.5751 C   0  0  0  0  0  0  0  0  0  0  0  0
    6.3218  -15.2848   26.8284 N   0  0  0  0  0  0  0  0  0  0  0  0
    6.5912  -13.9492   26.7732 C   0  0  0  0  0  0  0  0  0  0  0  0
    6.6273  -13.0299   27.7990 C   0  0  0  0  0  0  0  0  0  0  0  0
    6.9218  -11.7277   27.4519 C   0  0  0  0  0  0  0  0  0  0  0  0
    7.1693  -11.3419   26.1633 C   0  0  0  0  0  0  0  0  0  0  0  0
    7.1307  -12.2664   25.1506 C   0  0  0  0  0  0  0  0  0  0  0  0
    6.8412  -13.5868   25.4433 C   0  0  0  0  0  0  0  0  0  0  0  0
    8.9790  -16.3094   23.4332 C   0  0  0  0  0  0  0  0  0  0  0  0
    8.6937  -17.4792   23.0048 O   0  0  0  0  0  0  0  0  0  0  0  0
    9.9242  -16.2342   24.4853 N   0  0  0  0  0  0  0  0  0  0  0  0
   10.4513  -17.4235   25.1543 C   0  0  1  0  0  0  0  0  0  0  0  0
   11.1857  -18.1840   24.0513 C   0  0  0  0  0  0  0  0  0  0  0  0
   12.0464  -17.3321   23.2200 C   0  0  0  0  0  0  0  0  0  0  0  0
   12.0140  -15.9691   23.4165 C   0  0  0  0  0  0  0  0  0  0  0  0
   12.8278  -15.1311   22.6459 C   0  0  0  0  0  0  0  0  0  0  0  0
   13.6632  -15.6422   21.6920 C   0  0  0  0  0  0  0  0  0  0  0  0
   13.7030  -17.0004   21.4883 C   0  0  0  0  0  0  0  0  0  0  0  0
   12.8901  -17.8259   22.2596 C   0  0  0  0  0  0  0  0  0  0  0  0
   11.4471  -17.1027   26.1976 C   0  0  0  0  0  0  0  0  0  0  0  0
   12.1003  -18.1720   26.8205 O   0  0  0  0  0  0  0  0  0  0  0  0
   11.7286  -15.9348   26.5459 O   0  0  0  0  0  0  0  0  0  0  0  0
  1  5  1  0
  1  2  1  0
  2  3  1  0
  3  4  1  0
  5  4  1  0
  6  7  2  0
  5  6  1  1
  8  6  1  0
  9  8  1  0
  9 10  1  1
 11 10  1  0
 12 11  2  0
 13 12  1  0
 14 13  1  0
 14 19  2  0
 15 14  1  0
 16 15  2  0
 16 17  1  0
 17 18  2  0
 18 19  1  0
 19 11  1  0
 20 22  1  0
 20  9  1  0
 21 20  2  0
 23 22  1  0
 23 31  1  0
 23 24  1  6
 24 25  1  0
 25 26  2  0
 25 30  1  0
 26 27  1  0
 27 28  2  0
 29 28  1  0
 30 29  2  0
 31 32  1  0
 33 31  2  0
M  END
$$$$
