PWF.pdb
     RDKit          3D

 33 36  0  0  1  0  0  0  0  0999 V2000
    7.9999  -15.0101   19.1063 N   0  0  0  0  0  0  0  0  0  0  0  0
    7.7433  -14.3904   17.8211 C   0  0  0  0  0  0  0  0  0  0  0  0
    7.9197  -12.9112   18.0738 C   0  0  0  0  0  0  0  0  0  0  0  0
    8.4691  -12.8137   19.5036 C   0  0  0  0  0  0  0  0  0  0  0  0
    9.0480  -14.2070   19.6458 C   0  0  1  0  0  0  0  0  0  0  0  0
    9.3355  -14.4942   21.0723 C   0  0  0  0  0  0  0  0  0  0  0  0
   10.2183  -13.8315   21.6725 O   0  0  0  0  0  0  0  0  0  0  0  0
    8.6520  -15.4955   21.8002 N   0  0  0  0  0  0  0  0  0  0  0  0
    8.7723  -15.7245   23.2285 C   0  0  1  0  0  0  0  0  0  0  0  0
    7.4007  -16.1756   23.6751 C   0  0  0  0  0  0  0  0  0  0  0  0
    6.7683  -15.3290   24.6860 C   0  0  0  0  0  0  0  0  0  0  0  0
    6.0014  -15.8275   25.7400 C   0  0  0  0  0  0  0  0  0  0  0  0
    5.5779  -14.8303   26.5251 N   0  0  0  0  0  0  0  0  0  0  0  0
    6.0638  -13.6741   25.9900 C   0  0  0  0  0  0  0  0  0  0  0  0
    5.8978  -12.3791   26.4306 C   0  0  0  0  0  0  0  0  0  0  0  0
    6.5010  -11.3896   25.6822 C   0  0  0  0  0  0  0  0  0  0  0  0
    7.2317  -11.6529   24.5565 C   0  0  0  0  0  0  0  0  0  0  0  0
    7.3900  -12.9464   24.1279 C   0  0  0  0  0  0  0  0  0  0  0  0
    6.8070  -13.9776   24.8419 C   0  0  0  0  0  0  0  0  0  0  0  0
    9.8715  -16.5733   23.6339 C   0  0  0  0  0  0  0  0  0  0  0  0
   10.1343  -17.6179   22.9462 O   0  0  0  0  0  0  0  0  0  0  0  0
   10.7020  -16.3286   24.7549 N   0  0  0  0  0  0  0  0  0  0  0  0
   11.6794  -17.3048   25.2364 C   0  0  1  0  0  0  0  0  0  0  0  0
   12.4919  -16.5428   26.2819 C   0  0  0  0  0  0  0  0  0  0  0  0
   11.7322  -15.4874   26.9651 C   0  0  0  0  0  0  0  0  0  0  0  0
   11.8197  -15.3931   28.3365 C   0  0  0  0  0  0  0  0  0  0  0  0
   11.1142  -14.3938   29.0161 C   0  0  0  0  0  0  0  0  0  0  0  0
   10.3315  -13.4995   28.3402 C   0  0  0  0  0  0  0  0  0  0  0  0
   10.2377  -13.5849   26.9721 C   0  0  0  0  0  0  0  0  0  0  0  0
   10.9431  -14.5821   26.3049 C   0  0  0  0  0  0  0  0  0  0  0  0
   11.0543  -18.4531   25.9245 C   0  0  0  0  0  0  0  0  0  0  0  0
   11.8943  -19.4860   26.3553 O   0  0  0  0  0  0  0  0  0  0  0  0
    9.8247  -18.5440   26.1360 O   0  0  0  0  0  0  0  0  0  0  0  0
  1  5  1  0
  1  2  1  0
  2  3  1  0
  3  4  1  0
  5  4  1  0
  6  7  2  0
  5  6  1  1
  8  6  1  0
  9  8  1  0
  9 10  1  6
 11 10  1  0
 12 11  2  0
 13 12  1  0
 14 13  1  0
 14 19  2  0
 15 14  1  0
 16 15  2  0
 16 17  1  0
 17 18  2  0
 18 19  1  0
 19 11  1  0
 20 22  1  0
 20  9  1  0
 21 20  2  0
 23 22  1  0
 23 31  1  0
 23 24  1  1
 24 25  1  0
 25 26  2  0
 25 30  1  0
 26 27  1  0
 27 28  2  0
 29 28  1  0
 30 29  2  0
 31 32  1  0
 33 31  2  0
M  END
$$$$
