PWF.pdb
     RDKit          3D

 33 36  0  0  1  0  0  0  0  0999 V2000
    8.1132  -18.8976   20.4825 N   0  0  0  0  0  0  0  0  0  0  0  0
    7.5652  -19.6839   19.3948 C   0  0  0  0  0  0  0  0  0  0  0  0
    7.8521  -18.8664   18.1568 C   0  0  0  0  0  0  0  0  0  0  0  0
    8.7452  -17.7145   18.6377 C   0  0  0  0  0  0  0  0  0  0  0  0
    9.2910  -18.3338   19.9087 C   0  0  1  0  0  0  0  0  0  0  0  0
    9.9163  -17.2883   20.7550 C   0  0  0  0  0  0  0  0  0  0  0  0
   11.0806  -16.8941   20.4945 O   0  0  0  0  0  0  0  0  0  0  0  0
    9.2529  -16.7053   21.8593 N   0  0  0  0  0  0  0  0  0  0  0  0
    9.7272  -15.5597   22.6140 C   0  0  1  0  0  0  0  0  0  0  0  0
    8.5505  -14.6136   22.6809 C   0  0  0  0  0  0  0  0  0  0  0  0
    7.8811  -14.5475   23.9794 C   0  0  0  0  0  0  0  0  0  0  0  0
    7.3562  -15.6624   24.6345 C   0  0  0  0  0  0  0  0  0  0  0  0
    6.8338  -15.3105   25.8150 N   0  0  0  0  0  0  0  0  0  0  0  0
    7.0128  -13.9644   25.9393 C   0  0  0  0  0  0  0  0  0  0  0  0
    6.6416  -13.1334   26.9739 C   0  0  0  0  0  0  0  0  0  0  0  0
    6.9437  -11.7950   26.8304 C   0  0  0  0  0  0  0  0  0  0  0  0
    7.5783  -11.2924   25.7280 C   0  0  0  0  0  0  0  0  0  0  0  0
    7.9431  -12.1299   24.7046 C   0  0  0  0  0  0  0  0  0  0  0  0
    7.6651  -13.4816   24.7975 C   0  0  0  0  0  0  0  0  0  0  0  0
   10.3564  -15.8641   23.8808 C   0  0  0  0  0  0  0  0  0  0  0  0
   11.2320  -15.0586   24.3473 O   0  0  0  0  0  0  0  0  0  0  0  0
   10.0670  -17.0074   24.6653 N   0  0  0  0  0  0  0  0  0  0  0  0
   10.9360  -17.4532   25.7543 C   0  0  1  0  0  0  0  0  0  0  0  0
   10.0150  -17.5166   26.9717 C   0  0  0  0  0  0  0  0  0  0  0  0
    9.5652  -16.1991   27.4403 C   0  0  0  0  0  0  0  0  0  0  0  0
   10.4484  -15.4127   28.1466 C   0  0  0  0  0  0  0  0  0  0  0  0
   10.0527  -14.1493   28.6002 C   0  0  0  0  0  0  0  0  0  0  0  0
    8.7946  -13.6742   28.3542 C   0  0  0  0  0  0  0  0  0  0  0  0
    7.9062  -14.4508   27.6504 C   0  0  0  0  0  0  0  0  0  0  0  0
    8.3088  -15.7059   27.2033 C   0  0  0  0  0  0  0  0  0  0  0  0
   11.4707  -18.8142   25.5429 C   0  0  0  0  0  0  0  0  0  0  0  0
   12.4158  -19.2887   26.4593 O   0  0  0  0  0  0  0  0  0  0  0  0
   11.1229  -19.5518   24.5944 O   0  0  0  0  0  0  0  0  0  0  0  0
  1  5  1  0
  1  2  1  0
  2  3  1  0
  3  4  1  0
  5  4  1  0
  6  7  2  0
  5  6  1  1
  8  6  1  0
  9  8  1  0
  9 10  1  1
 11 10  1  0
 12 11  2  0
 13 12  1  0
 14 13  1  0
 14 19  2  0
 15 14  1  0
 16 15  2  0
 16 17  1  0
 17 18  2  0
 18 19  1  0
 19 11  1  0
 20 22  1  0
 20  9  1  0
 21 20  2  0
 23 22  1  0
 23 31  1  0
 23 24  1  1
 24 25  1  0
 25 26  2  0
 25 30  1  0
 26 27  1  0
 27 28  2  0
 29 28  1  0
 30 29  2  0
 31 32  1  0
 33 31  2  0
M  END
$$$$
