PWF.pdb
     RDKit          3D

 33 36  0  0  1  0  0  0  0  0999 V2000
    8.0148  -15.1567   18.8844 N   0  0  0  0  0  0  0  0  0  0  0  0
    7.9232  -14.4657   17.6133 C   0  0  0  0  0  0  0  0  0  0  0  0
    7.4264  -13.0840   17.9702 C   0  0  0  0  0  0  0  0  0  0  0  0
    7.4516  -13.0351   19.5040 C   0  0  0  0  0  0  0  0  0  0  0  0
    8.4596  -14.1343   19.7737 C   0  0  1  0  0  0  0  0  0  0  0  0
    8.4073  -14.5318   21.2018 C   0  0  0  0  0  0  0  0  0  0  0  0
    8.7151  -13.6974   22.0894 O   0  0  0  0  0  0  0  0  0  0  0  0
    8.0216  -15.8270   21.6180 N   0  0  0  0  0  0  0  0  0  0  0  0
    7.7901  -16.2328   22.9922 C   0  0  1  0  0  0  0  0  0  0  0  0
    7.2290  -17.6334   22.9035 C   0  0  0  0  0  0  0  0  0  0  0  0
    8.2008  -18.6697   22.5570 C   0  0  0  0  0  0  0  0  0  0  0  0
    8.8201  -19.4927   23.4987 C   0  0  0  0  0  0  0  0  0  0  0  0
    9.6335  -20.3672   22.8955 N   0  0  0  0  0  0  0  0  0  0  0  0
    9.5522  -20.1218   21.5566 C   0  0  0  0  0  0  0  0  0  0  0  0
   10.2049  -20.7519   20.5195 C   0  0  0  0  0  0  0  0  0  0  0  0
    9.9379  -20.2877   19.2482 C   0  0  0  0  0  0  0  0  0  0  0  0
    9.0741  -19.2563   19.0019 C   0  0  0  0  0  0  0  0  0  0  0  0
    8.4300  -18.6370   20.0428 C   0  0  0  0  0  0  0  0  0  0  0  0
    8.6605  -19.0636   21.3381 C   0  0  0  0  0  0  0  0  0  0  0  0
    8.9125  -16.0655   23.8897 C   0  0  0  0  0  0  0  0  0  0  0  0
   10.0925  -16.2946   23.4558 O   0  0  0  0  0  0  0  0  0  0  0  0
    8.8043  -15.6524   25.2402 N   0  0  0  0  0  0  0  0  0  0  0  0
    9.9360  -15.6907   26.1664 C   0  0  1  0  0  0  0  0  0  0  0  0
   10.1994  -14.2239   26.5029 C   0  0  0  0  0  0  0  0  0  0  0  0
    9.0301  -13.3556   26.3117 C   0  0  0  0  0  0  0  0  0  0  0  0
    8.5018  -13.2288   25.0460 C   0  0  0  0  0  0  0  0  0  0  0  0
    7.3834  -12.4152   24.8323 C   0  0  0  0  0  0  0  0  0  0  0  0
    6.7979  -11.7364   25.8646 C   0  0  0  0  0  0  0  0  0  0  0  0
    7.3172  -11.8564   27.1310 C   0  0  0  0  0  0  0  0  0  0  0  0
    8.4296  -12.6679   27.3337 C   0  0  0  0  0  0  0  0  0  0  0  0
    9.6174  -16.3770   27.4355 C   0  0  0  0  0  0  0  0  0  0  0  0
   10.6404  -16.4945   28.3830 O   0  0  0  0  0  0  0  0  0  0  0  0
    8.4907  -16.8526   27.6980 O   0  0  0  0  0  0  0  0  0  0  0  0
  1  5  1  0
  1  2  1  0
  2  3  1  0
  3  4  1  0
  5  4  1  0
  6  7  2  0
  5  6  1  1
  8  6  1  0
  9  8  1  0
  9 10  1  6
 11 10  1  0
 12 11  2  0
 13 12  1  0
 14 13  1  0
 14 19  2  0
 15 14  1  0
 16 15  2  0
 16 17  1  0
 17 18  2  0
 18 19  1  0
 19 11  1  0
 20 22  1  0
 20  9  1  0
 21 20  2  0
 23 22  1  0
 23 31  1  0
 23 24  1  1
 24 25  1  0
 25 26  2  0
 25 30  1  0
 26 27  1  0
 27 28  2  0
 29 28  1  0
 30 29  2  0
 31 32  1  0
 33 31  2  0
M  END
$$$$
