TGR.pdb
     RDKit          3D

 23 22  0  0  1  0  0  0  0  0999 V2000
    7.4264  -15.3167   17.0363 C   0  0  0  0  0  0  0  0  0  0  0  0
    8.1087  -14.0408   17.4980 C   0  0  1  0  0  0  0  0  0  0  0  0
    7.8661  -13.0675   16.5509 O   0  0  0  0  0  0  0  0  0  0  0  0
    7.5975  -13.6741   18.8768 C   0  0  2  0  0  0  0  0  0  0  0  0
    7.9456  -12.3242   19.2135 N   0  0  0  0  0  0  0  0  0  0  0  0
    7.9779  -14.6486   19.9110 C   0  0  0  0  0  0  0  0  0  0  0  0
    9.1965  -14.7663   20.2867 O   0  0  0  0  0  0  0  0  0  0  0  0
    6.9984  -15.4835   20.5174 N   0  0  0  0  0  0  0  0  0  0  0  0
    7.3316  -16.5071   21.4774 C   0  0  0  0  0  0  0  0  0  0  0  0
    7.8920  -15.9067   22.6979 C   0  0  0  0  0  0  0  0  0  0  0  0
    7.7262  -14.6608   22.9120 O   0  0  0  0  0  0  0  0  0  0  0  0
    6.0142  -21.8162   24.6733 N   0  0  0  0  0  0  0  0  0  0  0  0
    6.3628  -21.1112   25.8706 C   0  0  0  0  0  0  0  0  0  0  0  0
    6.5477  -21.7788   26.9538 N   0  0  0  0  0  0  0  0  0  0  0  0
    6.5097  -19.7023   25.8908 N   0  0  0  0  0  0  0  0  0  0  0  0
    7.7887  -19.0479   26.0298 C   0  0  0  0  0  0  0  0  0  0  0  0
    7.5060  -17.5454   26.0320 C   0  0  0  0  0  0  0  0  0  0  0  0
    8.8109  -16.8046   26.1035 C   0  0  0  0  0  0  0  0  0  0  0  0
    9.0967  -15.9631   24.9116 C   0  0  2  0  0  0  0  0  0  0  0  0
    8.6126  -16.5987   23.6851 N   0  0  0  0  0  0  0  0  0  0  0  0
   10.5294  -15.7266   24.7532 C   0  0  0  0  0  0  0  0  0  0  0  0
   11.1556  -16.2384   23.8008 O   0  0  0  0  0  0  0  0  0  0  0  0
   11.2197  -14.9364   25.6421 O   0  0  0  0  0  0  0  0  0  0  0  0
  2  1  1  6
  2  4  1  0
  3  2  1  0
  4  5  1  1
  6  4  1  0
  6  8  1  0
  7  6  2  0
  9  8  1  0
  9 10  1  0
 10 20  1  0
 10 11  2  0
 13 12  1  0
 13 14  2  0
 15 13  1  0
 16 17  1  0
 16 15  1  0
 18 17  1  0
 19 18  1  1
 20 19  1  0
 21 23  1  0
 21 19  1  0
 22 21  2  0
M  END
$$$$
