TGR.pdb
     RDKit          3D

 23 22  0  0  1  0  0  0  0  0999 V2000
    6.8453  -19.9681   17.1532 C   0  0  0  0  0  0  0  0  0  0  0  0
    6.4713  -18.7926   18.0391 C   0  0  1  0  0  0  0  0  0  0  0  0
    5.6464  -19.2650   19.0390 O   0  0  0  0  0  0  0  0  0  0  0  0
    7.7358  -18.1431   18.5643 C   0  0  2  0  0  0  0  0  0  0  0  0
    8.4837  -19.0554   19.3798 N   0  0  0  0  0  0  0  0  0  0  0  0
    7.4908  -16.8469   19.2152 C   0  0  0  0  0  0  0  0  0  0  0  0
    6.9460  -15.8818   18.5736 O   0  0  0  0  0  0  0  0  0  0  0  0
    7.8546  -16.6366   20.5746 N   0  0  0  0  0  0  0  0  0  0  0  0
    7.5542  -15.4167   21.2832 C   0  0  0  0  0  0  0  0  0  0  0  0
    7.8524  -15.5659   22.7160 C   0  0  0  0  0  0  0  0  0  0  0  0
    8.1697  -16.7143   23.1699 O   0  0  0  0  0  0  0  0  0  0  0  0
    5.8168  -20.6585   27.3915 N   0  0  0  0  0  0  0  0  0  0  0  0
    6.9901  -20.6777   26.5698 C   0  0  0  0  0  0  0  0  0  0  0  0
    7.5634  -21.8035   26.3308 N   0  0  0  0  0  0  0  0  0  0  0  0
    7.5318  -19.4920   26.0151 N   0  0  0  0  0  0  0  0  0  0  0  0
    6.9659  -18.1852   26.2501 C   0  0  0  0  0  0  0  0  0  0  0  0
    7.8274  -17.1952   25.4657 C   0  0  0  0  0  0  0  0  0  0  0  0
    7.2771  -15.8109   25.6595 C   0  0  0  0  0  0  0  0  0  0  0  0
    8.1241  -14.7349   25.0804 C   0  0  2  0  0  0  0  0  0  0  0  0
    7.8240  -14.5287   23.6626 N   0  0  0  0  0  0  0  0  0  0  0  0
    9.5454  -15.0528   25.1915 C   0  0  0  0  0  0  0  0  0  0  0  0
   10.0730  -15.2185   26.3119 O   0  0  0  0  0  0  0  0  0  0  0  0
   10.3328  -15.1800   24.0712 O   0  0  0  0  0  0  0  0  0  0  0  0
  2  1  1  6
  2  4  1  0
  3  2  1  0
  4  5  1  1
  6  4  1  0
  6  8  1  0
  7  6  2  0
  9  8  1  0
  9 10  1  0
 10 20  1  0
 10 11  2  0
 13 12  1  0
 13 14  2  0
 15 13  1  0
 16 17  1  0
 16 15  1  0
 18 17  1  0
 19 18  1  6
 20 19  1  0
 21 23  1  0
 21 19  1  0
 22 21  2  0
M  END
$$$$
