TGR.pdb
     RDKit          3D

 23 22  0  0  1  0  0  0  0  0999 V2000
    9.0349  -14.0706   16.3045 C   0  0  0  0  0  0  0  0  0  0  0  0
    9.0993  -15.4729   15.7249 C   0  0  1  0  0  0  0  0  0  0  0  0
   10.0386  -15.4678   14.7146 O   0  0  0  0  0  0  0  0  0  0  0  0
    9.4191  -16.4554   16.8336 C   0  0  2  0  0  0  0  0  0  0  0  0
    8.3695  -16.4903   17.8102 N   0  0  0  0  0  0  0  0  0  0  0  0
   10.7527  -16.2499   17.4194 C   0  0  0  0  0  0  0  0  0  0  0  0
   11.8118  -16.5398   16.7604 O   0  0  0  0  0  0  0  0  0  0  0  0
   10.8954  -15.7236   18.7335 N   0  0  0  0  0  0  0  0  0  0  0  0
   12.1802  -15.5066   19.3521 C   0  0  0  0  0  0  0  0  0  0  0  0
   12.0134  -15.0381   20.7366 C   0  0  0  0  0  0  0  0  0  0  0  0
   11.8749  -13.7905   20.9596 O   0  0  0  0  0  0  0  0  0  0  0  0
    8.0451  -11.4203   19.4560 N   0  0  0  0  0  0  0  0  0  0  0  0
    7.6739  -12.7739   19.7429 C   0  0  0  0  0  0  0  0  0  0  0  0
    7.6493  -13.6286   18.7827 N   0  0  0  0  0  0  0  0  0  0  0  0
    7.3359  -13.1930   21.0533 N   0  0  0  0  0  0  0  0  0  0  0  0
    7.7319  -14.4705   21.5959 C   0  0  0  0  0  0  0  0  0  0  0  0
    9.2107  -14.3430   21.9630 C   0  0  0  0  0  0  0  0  0  0  0  0
    9.6701  -15.6299   22.5868 C   0  0  0  0  0  0  0  0  0  0  0  0
   11.0953  -15.6240   23.0101 C   0  0  2  0  0  0  0  0  0  0  0  0
   11.9871  -15.8618   21.8739 N   0  0  0  0  0  0  0  0  0  0  0  0
   11.3628  -16.6567   24.0079 C   0  0  0  0  0  0  0  0  0  0  0  0
   12.0906  -17.6337   23.7306 O   0  0  0  0  0  0  0  0  0  0  0  0
   10.8254  -16.5775   25.2712 O   0  0  0  0  0  0  0  0  0  0  0  0
  2  1  1  1
  2  4  1  0
  3  2  1  0
  4  5  1  1
  6  4  1  0
  6  8  1  0
  7  6  2  0
  9  8  1  0
  9 10  1  0
 10 20  1  0
 10 11  2  0
 13 12  1  0
 13 14  2  0
 15 13  1  0
 16 17  1  0
 16 15  1  0
 18 17  1  0
 19 18  1  6
 20 19  1  0
 21 23  1  0
 21 19  1  0
 22 21  2  0
M  END
$$$$
