TGR.pdb
     RDKit          3D

 23 22  0  0  1  0  0  0  0  0999 V2000
    9.8938  -17.3475   15.3221 C   0  0  0  0  0  0  0  0  0  0  0  0
    9.6245  -17.9729   16.6796 C   0  0  1  0  0  0  0  0  0  0  0  0
    9.8455  -19.3301   16.5690 O   0  0  0  0  0  0  0  0  0  0  0  0
   10.5046  -17.3065   17.7180 C   0  0  2  0  0  0  0  0  0  0  0  0
   11.8806  -17.6675   17.5359 N   0  0  0  0  0  0  0  0  0  0  0  0
   10.0269  -17.5090   19.0945 C   0  0  0  0  0  0  0  0  0  0  0  0
    8.8734  -17.0884   19.4584 O   0  0  0  0  0  0  0  0  0  0  0  0
   10.8376  -18.1776   20.0536 N   0  0  0  0  0  0  0  0  0  0  0  0
   10.3508  -18.5600   21.3563 C   0  0  0  0  0  0  0  0  0  0  0  0
   10.4599  -17.4353   22.2982 C   0  0  0  0  0  0  0  0  0  0  0  0
   11.2143  -16.4497   22.0068 O   0  0  0  0  0  0  0  0  0  0  0  0
    8.0800  -11.9755   19.0937 N   0  0  0  0  0  0  0  0  0  0  0  0
    8.2611  -13.2310   19.7594 C   0  0  0  0  0  0  0  0  0  0  0  0
    8.6118  -14.2566   19.0677 N   0  0  0  0  0  0  0  0  0  0  0  0
    8.0656  -13.3701   21.1556 N   0  0  0  0  0  0  0  0  0  0  0  0
    8.2511  -14.6196   21.8539 C   0  0  0  0  0  0  0  0  0  0  0  0
    8.0452  -14.3181   23.3386 C   0  0  0  0  0  0  0  0  0  0  0  0
    8.1957  -15.5924   24.1196 C   0  0  0  0  0  0  0  0  0  0  0  0
    9.5985  -16.0710   24.2351 C   0  0  2  0  0  0  0  0  0  0  0  0
    9.7867  -17.3383   23.5270 N   0  0  0  0  0  0  0  0  0  0  0  0
    9.9806  -16.2807   25.6293 C   0  0  0  0  0  0  0  0  0  0  0  0
   10.0249  -15.3198   26.4266 O   0  0  0  0  0  0  0  0  0  0  0  0
   10.2961  -17.5350   26.0966 O   0  0  0  0  0  0  0  0  0  0  0  0
  2  1  1  6
  2  4  1  0
  3  2  1  0
  4  5  1  1
  6  4  1  0
  6  8  1  0
  7  6  2  0
  9  8  1  0
  9 10  1  0
 10 20  1  0
 10 11  2  0
 13 12  1  0
 13 14  2  0
 15 13  1  0
 16 17  1  0
 16 15  1  0
 18 17  1  0
 19 18  1  1
 20 19  1  0
 21 23  1  0
 21 19  1  0
 22 21  2  0
M  END
$$$$
