TGR.pdb
     RDKit          3D

 23 22  0  0  1  0  0  0  0  0999 V2000
    9.5338  -16.7532   15.4892 C   0  0  0  0  0  0  0  0  0  0  0  0
    9.4214  -15.9026   16.7424 C   0  0  1  0  0  0  0  0  0  0  0  0
   10.6668  -15.3691   17.0020 O   0  0  0  0  0  0  0  0  0  0  0  0
    8.3513  -14.8497   16.5348 C   0  0  2  0  0  0  0  0  0  0  0  0
    8.5488  -14.1506   15.2983 N   0  0  0  0  0  0  0  0  0  0  0  0
    8.1915  -13.9541   17.6908 C   0  0  0  0  0  0  0  0  0  0  0  0
    8.1423  -12.6838   17.5362 O   0  0  0  0  0  0  0  0  0  0  0  0
    8.0881  -14.4806   19.0085 N   0  0  0  0  0  0  0  0  0  0  0  0
    7.8622  -13.6495   20.1656 C   0  0  0  0  0  0  0  0  0  0  0  0
    8.0207  -14.4319   21.4012 C   0  0  0  0  0  0  0  0  0  0  0  0
    7.0474  -15.1422   21.8180 O   0  0  0  0  0  0  0  0  0  0  0  0
   14.0642  -16.5690   18.8444 N   0  0  0  0  0  0  0  0  0  0  0  0
   13.7192  -15.1917   18.6541 C   0  0  0  0  0  0  0  0  0  0  0  0
   13.9490  -14.6451   17.5132 N   0  0  0  0  0  0  0  0  0  0  0  0
   13.1321  -14.4202   19.6871 N   0  0  0  0  0  0  0  0  0  0  0  0
   12.9541  -14.9138   21.0317 C   0  0  0  0  0  0  0  0  0  0  0  0
   11.5858  -15.5952   21.0629 C   0  0  0  0  0  0  0  0  0  0  0  0
   11.1879  -15.8229   22.4934 C   0  0  0  0  0  0  0  0  0  0  0  0
    9.7255  -15.7186   22.7402 C   0  0  2  0  0  0  0  0  0  0  0  0
    9.1820  -14.4758   22.1900 N   0  0  0  0  0  0  0  0  0  0  0  0
    9.4195  -15.7429   24.1684 C   0  0  0  0  0  0  0  0  0  0  0  0
    9.7690  -16.7116   24.8759 O   0  0  0  0  0  0  0  0  0  0  0  0
    8.7457  -14.7039   24.7664 O   0  0  0  0  0  0  0  0  0  0  0  0
  2  1  1  6
  2  4  1  0
  3  2  1  0
  4  5  1  6
  6  4  1  0
  6  8  1  0
  7  6  2  0
  9  8  1  0
  9 10  1  0
 10 20  1  0
 10 11  2  0
 13 12  1  0
 13 14  2  0
 15 13  1  0
 16 17  1  0
 16 15  1  0
 18 17  1  0
 19 18  1  1
 20 19  1  0
 21 23  1  0
 21 19  1  0
 22 21  2  0
M  END
$$$$
