TGR.pdb
     RDKit          3D

 23 22  0  0  1  0  0  0  0  0999 V2000
    7.2315  -12.4376   17.9577 C   0  0  0  0  0  0  0  0  0  0  0  0
    7.3156  -13.7780   18.6668 C   0  0  1  0  0  0  0  0  0  0  0  0
    7.7797  -14.7064   17.7580 O   0  0  0  0  0  0  0  0  0  0  0  0
    8.2036  -13.6405   19.8872 C   0  0  2  0  0  0  0  0  0  0  0  0
    9.5381  -13.2702   19.5149 N   0  0  0  0  0  0  0  0  0  0  0  0
    8.1508  -14.8132   20.7739 C   0  0  0  0  0  0  0  0  0  0  0  0
    7.0502  -15.1762   21.3186 O   0  0  0  0  0  0  0  0  0  0  0  0
    9.3237  -15.5711   21.0462 N   0  0  0  0  0  0  0  0  0  0  0  0
    9.2998  -16.8048   21.7930 C   0  0  0  0  0  0  0  0  0  0  0  0
    9.6975  -16.5698   23.1897 C   0  0  0  0  0  0  0  0  0  0  0  0
   10.8193  -16.0152   23.4331 O   0  0  0  0  0  0  0  0  0  0  0  0
    6.4547  -12.3530   24.4999 N   0  0  0  0  0  0  0  0  0  0  0  0
    6.3288  -11.9983   25.8821 C   0  0  0  0  0  0  0  0  0  0  0  0
    5.7380  -10.8987   26.1905 N   0  0  0  0  0  0  0  0  0  0  0  0
    6.8358  -12.8261   26.9139 N   0  0  0  0  0  0  0  0  0  0  0  0
    6.8045  -14.2678   26.8509 C   0  0  0  0  0  0  0  0  0  0  0  0
    8.2602  -14.7269   26.7631 C   0  0  0  0  0  0  0  0  0  0  0  0
    8.2900  -16.2155   26.5638 C   0  0  0  0  0  0  0  0  0  0  0  0
    9.3957  -16.6885   25.6897 C   0  0  2  0  0  0  0  0  0  0  0  0
    8.9319  -16.9056   24.3183 N   0  0  0  0  0  0  0  0  0  0  0  0
    9.9597  -17.9468   26.1718 C   0  0  0  0  0  0  0  0  0  0  0  0
    9.7386  -19.0156   25.5637 O   0  0  0  0  0  0  0  0  0  0  0  0
   10.7464  -17.9848   27.2990 O   0  0  0  0  0  0  0  0  0  0  0  0
  2  1  1  6
  2  4  1  0
  3  2  1  0
  4  5  1  6
  6  4  1  0
  6  8  1  0
  7  6  2  0
  9  8  1  0
  9 10  1  0
 10 20  1  0
 10 11  2  0
 13 12  1  0
 13 14  2  0
 15 13  1  0
 16 17  1  0
 16 15  1  0
 18 17  1  0
 19 18  1  1
 20 19  1  0
 21 23  1  0
 21 19  1  0
 22 21  2  0
M  END
$$$$
