TGR.pdb
     RDKit          3D

 23 22  0  0  1  0  0  0  0  0999 V2000
    8.6227  -19.9311   17.0413 C   0  0  0  0  0  0  0  0  0  0  0  0
    9.6000  -20.5912   17.9982 C   0  0  1  0  0  0  0  0  0  0  0  0
   10.6141  -19.6908   18.2515 O   0  0  0  0  0  0  0  0  0  0  0  0
    8.8584  -21.0232   19.2473 C   0  0  2  0  0  0  0  0  0  0  0  0
    8.2304  -19.9040   19.8872 N   0  0  0  0  0  0  0  0  0  0  0  0
    9.6858  -21.8269   20.1603 C   0  0  0  0  0  0  0  0  0  0  0  0
   10.0732  -23.0028   19.8331 O   0  0  0  0  0  0  0  0  0  0  0  0
   10.0745  -21.3143   21.4293 N   0  0  0  0  0  0  0  0  0  0  0  0
   10.9262  -22.0423   22.3376 C   0  0  0  0  0  0  0  0  0  0  0  0
   11.1539  -21.2653   23.5658 C   0  0  0  0  0  0  0  0  0  0  0  0
   11.0361  -19.9963   23.5310 O   0  0  0  0  0  0  0  0  0  0  0  0
   12.2368  -23.7586   30.3743 N   0  0  0  0  0  0  0  0  0  0  0  0
   12.7379  -22.6398   31.1155 C   0  0  0  0  0  0  0  0  0  0  0  0
   13.4220  -22.8569   32.1823 N   0  0  0  0  0  0  0  0  0  0  0  0
   12.5006  -21.3054   30.7033 N   0  0  0  0  0  0  0  0  0  0  0  0
   11.7193  -20.9708   29.5367 C   0  0  0  0  0  0  0  0  0  0  0  0
   12.6300  -21.1956   28.3293 C   0  0  0  0  0  0  0  0  0  0  0  0
   11.8303  -21.8314   27.2281 C   0  0  0  0  0  0  0  0  0  0  0  0
   11.6928  -20.9863   26.0126 C   0  0  2  0  0  0  0  0  0  0  0  0
   11.4962  -21.8062   24.8160 N   0  0  0  0  0  0  0  0  0  0  0  0
   12.8790  -20.1618   25.7956 C   0  0  0  0  0  0  0  0  0  0  0  0
   13.8462  -20.6020   25.1386 O   0  0  0  0  0  0  0  0  0  0  0  0
   12.9581  -18.8866   26.3039 O   0  0  0  0  0  0  0  0  0  0  0  0
  2  1  1  6
  2  4  1  0
  3  2  1  0
  4  5  1  1
  6  4  1  0
  6  8  1  0
  7  6  2  0
  9  8  1  0
  9 10  1  0
 10 20  1  0
 10 11  2  0
 13 12  1  0
 13 14  2  0
 15 13  1  0
 16 17  1  0
 16 15  1  0
 18 17  1  0
 19 18  1  1
 20 19  1  0
 21 23  1  0
 21 19  1  0
 22 21  2  0
M  END
$$$$
