TGR.pdb
     RDKit          3D

 23 22  0  0  1  0  0  0  0  0999 V2000
    8.2030  -12.6798   20.1561 C   0  0  0  0  0  0  0  0  0  0  0  0
    7.5931  -13.4871   19.0235 C   0  0  1  0  0  0  0  0  0  0  0  0
    8.3449  -13.2564   17.8901 O   0  0  0  0  0  0  0  0  0  0  0  0
    7.5466  -14.9483   19.4229 C   0  0  2  0  0  0  0  0  0  0  0  0
    6.6081  -15.1626   20.4859 N   0  0  0  0  0  0  0  0  0  0  0  0
    8.8765  -15.5138   19.6976 C   0  0  0  0  0  0  0  0  0  0  0  0
    9.6941  -15.7637   18.7442 O   0  0  0  0  0  0  0  0  0  0  0  0
    9.2843  -15.7960   21.0311 N   0  0  0  0  0  0  0  0  0  0  0  0
   10.6054  -16.2732   21.3589 C   0  0  0  0  0  0  0  0  0  0  0  0
   10.7412  -16.4578   22.8120 C   0  0  0  0  0  0  0  0  0  0  0  0
   11.8926  -16.6967   23.3047 O   0  0  0  0  0  0  0  0  0  0  0  0
    7.1352  -10.7077   26.2631 N   0  0  0  0  0  0  0  0  0  0  0  0
    6.3311  -11.8784   26.0761 C   0  0  0  0  0  0  0  0  0  0  0  0
    5.0788  -11.7383   25.8206 N   0  0  0  0  0  0  0  0  0  0  0  0
    6.8793  -13.1818   26.1641 N   0  0  0  0  0  0  0  0  0  0  0  0
    8.1818  -13.4497   26.7254 C   0  0  0  0  0  0  0  0  0  0  0  0
    8.9690  -14.1982   25.6494 C   0  0  0  0  0  0  0  0  0  0  0  0
    8.8910  -15.6726   25.9261 C   0  0  0  0  0  0  0  0  0  0  0  0
    9.8946  -16.4825   25.1864 C   0  0  2  0  0  0  0  0  0  0  0  0
    9.6892  -16.3898   23.7400 N   0  0  0  0  0  0  0  0  0  0  0  0
    9.8220  -17.8940   25.5553 C   0  0  0  0  0  0  0  0  0  0  0  0
    9.4823  -18.7531   24.7142 O   0  0  0  0  0  0  0  0  0  0  0  0
   10.1272  -18.3098   26.8301 O   0  0  0  0  0  0  0  0  0  0  0  0
  2  1  1  1
  2  4  1  0
  3  2  1  0
  4  5  1  1
  6  4  1  0
  6  8  1  0
  7  6  2  0
  9  8  1  0
  9 10  1  0
 10 20  1  0
 10 11  2  0
 13 12  1  0
 13 14  2  0
 15 13  1  0
 16 17  1  0
 16 15  1  0
 18 17  1  0
 19 18  1  1
 20 19  1  0
 21 23  1  0
 21 19  1  0
 22 21  2  0
M  END
$$$$
