DNK.pdb
     RDKit          3D

 26 25  0  0  1  0  0  0  0  0999 V2000
   19.2360   -8.1061  -16.4099 N   0  0  0  0  0  0  0  0  0  0  0  0
   17.8421   -8.3292  -16.2599 C   0  0  1  0  0  0  0  0  0  0  0  0
   17.4035   -9.1908  -17.4423 C   0  0  0  0  0  0  0  0  0  0  0  0
   17.8420   -8.5384  -18.7060 C   0  0  0  0  0  0  0  0  0  0  0  0
   17.9140   -7.2822  -18.7605 O   0  0  0  0  0  0  0  0  0  0  0  0
   17.3912   -8.9115  -14.9962 C   0  0  0  0  0  0  0  0  0  0  0  0
   17.1888  -10.1792  -14.9181 O   0  0  0  0  0  0  0  0  0  0  0  0
   18.1791   -9.2517  -19.8388 O   0  0  0  0  0  0  0  0  0  0  0  0
   15.9542  -11.3988  -12.8042 N   0  0  0  0  0  0  0  0  0  0  0  0
   17.2357  -11.2355  -12.2168 C   0  0  0  0  0  0  0  0  0  0  0  0
   17.8255  -12.2809  -11.8536 O   0  0  0  0  0  0  0  0  0  0  0  0
   17.7662   -9.8654  -12.0804 C   0  0  0  0  0  0  0  0  0  0  0  0
   16.8121   -8.7967  -12.5241 C   0  0  2  0  0  0  0  0  0  0  0  0
   17.1428   -8.2038  -13.8049 N   0  0  0  0  0  0  0  0  0  0  0  0
   16.5275   -7.7859  -11.5096 C   0  0  0  0  0  0  0  0  0  0  0  0
   17.3501   -6.8158  -11.3844 O   0  0  0  0  0  0  0  0  0  0  0  0
   15.4050   -7.8017  -10.6489 N   0  0  0  0  0  0  0  0  0  0  0  0
   15.0934   -6.7180   -9.7097 C   0  0  1  0  0  0  0  0  0  0  0  0
   13.7289   -6.8656   -9.1365 C   0  0  0  0  0  0  0  0  0  0  0  0
   13.3635   -5.6605   -8.3319 C   0  0  0  0  0  0  0  0  0  0  0  0
   11.9944   -5.7625   -7.7008 C   0  0  0  0  0  0  0  0  0  0  0  0
   11.5939   -4.4531   -7.0422 C   0  0  0  0  0  0  0  0  0  0  0  0
   10.3179   -4.5388   -6.3677 N   0  0  0  0  0  0  0  0  0  0  0  0
   16.1862   -6.6421   -8.7116 C   0  0  0  0  0  0  0  0  0  0  0  0
   17.0798   -7.6396   -8.4335 O   0  0  0  0  0  0  0  0  0  0  0  0
   16.3358   -5.5648   -8.0328 O   0  0  0  0  0  0  0  0  0  0  0  0
  2  3  1  0
  2  1  1  1
  4  3  1  0
  4  8  1  0
  5  4  2  0
  6  2  1  0
  7  6  2  0
  9 10  1  0
 10 12  1  0
 11 10  2  0
 13 12  1  1
 13 14  1  0
 14  6  1  0
 15 13  1  0
 15 17  1  0
 16 15  2  0
 18 19  1  1
 18 17  1  0
 20 21  1  0
 20 19  1  0
 22 21  1  0
 23 22  1  0
 24 18  1  0
 25 24  1  0
 26 24  2  0
M  END
$$$$
