DNK.pdb
     RDKit          3D

 26 25  0  0  1  0  0  0  0  0999 V2000
   14.7092   -9.8153   -8.8076 N   0  0  0  0  0  0  0  0  0  0  0  0
   14.4899   -9.3383  -10.1266 C   0  0  1  0  0  0  0  0  0  0  0  0
   12.9885   -9.0932  -10.2632 C   0  0  0  0  0  0  0  0  0  0  0  0
   12.2646  -10.3690  -10.0113 C   0  0  0  0  0  0  0  0  0  0  0  0
   11.8328  -10.6165   -8.8544 O   0  0  0  0  0  0  0  0  0  0  0  0
   15.2495   -8.1608  -10.5459 C   0  0  0  0  0  0  0  0  0  0  0  0
   15.0855   -7.6886  -11.7310 O   0  0  0  0  0  0  0  0  0  0  0  0
   12.0392  -11.3089  -10.9968 O   0  0  0  0  0  0  0  0  0  0  0  0
   18.8711   -3.6201   -8.7232 N   0  0  0  0  0  0  0  0  0  0  0  0
   17.8377   -4.0522   -9.5945 C   0  0  0  0  0  0  0  0  0  0  0  0
   17.7024   -3.4154  -10.6663 O   0  0  0  0  0  0  0  0  0  0  0  0
   17.0133   -5.2020   -9.1755 C   0  0  0  0  0  0  0  0  0  0  0  0
   16.9510   -6.3069  -10.1878 C   0  0  2  0  0  0  0  0  0  0  0  0
   16.1820   -7.4586   -9.7591 N   0  0  0  0  0  0  0  0  0  0  0  0
   18.2468   -6.6887  -10.7418 C   0  0  0  0  0  0  0  0  0  0  0  0
   19.0091   -7.4251  -10.0276 O   0  0  0  0  0  0  0  0  0  0  0  0
   18.7250   -6.3002  -12.0151 N   0  0  0  0  0  0  0  0  0  0  0  0
   19.9733   -6.8070  -12.5970 C   0  0  1  0  0  0  0  0  0  0  0  0
   19.7125   -7.7252  -13.7377 C   0  0  0  0  0  0  0  0  0  0  0  0
   20.9972   -8.1807  -14.3502 C   0  0  0  0  0  0  0  0  0  0  0  0
   20.7968   -9.0327  -15.5819 C   0  0  0  0  0  0  0  0  0  0  0  0
   22.1213   -9.5627  -16.1050 C   0  0  0  0  0  0  0  0  0  0  0  0
   21.9507  -10.5680  -17.1300 N   0  0  0  0  0  0  0  0  0  0  0  0
   20.8406   -5.6477  -12.9130 C   0  0  0  0  0  0  0  0  0  0  0  0
   22.2034   -5.6199  -12.7993 O   0  0  0  0  0  0  0  0  0  0  0  0
   20.3014   -4.5622  -13.3308 O   0  0  0  0  0  0  0  0  0  0  0  0
  2  3  1  0
  2  1  1  1
  4  3  1  0
  4  8  1  0
  5  4  2  0
  6  2  1  0
  7  6  2  0
  9 10  1  0
 10 12  1  0
 11 10  2  0
 13 12  1  1
 13 14  1  0
 14  6  1  0
 15 13  1  0
 15 17  1  0
 16 15  2  0
 18 19  1  6
 18 17  1  0
 20 21  1  0
 20 19  1  0
 22 21  1  0
 23 22  1  0
 24 18  1  0
 25 24  1  0
 26 24  2  0
M  END
$$$$
