DNK.pdb
     RDKit          3D

 26 25  0  0  1  0  0  0  0  0999 V2000
   26.9297  -15.9630  -17.6969 N   0  0  0  0  0  0  0  0  0  0  0  0
   26.3259  -15.3144  -16.5878 C   0  0  1  0  0  0  0  0  0  0  0  0
   26.6848  -16.1328  -15.3491 C   0  0  0  0  0  0  0  0  0  0  0  0
   26.3165  -17.5553  -15.5850 C   0  0  0  0  0  0  0  0  0  0  0  0
   25.6609  -17.8613  -16.6159 O   0  0  0  0  0  0  0  0  0  0  0  0
   26.6429  -13.9007  -16.3872 C   0  0  0  0  0  0  0  0  0  0  0  0
   26.1544  -13.2785  -15.3731 O   0  0  0  0  0  0  0  0  0  0  0  0
   26.6626  -18.5719  -14.7176 O   0  0  0  0  0  0  0  0  0  0  0  0
   30.2470   -9.5081  -16.2592 N   0  0  0  0  0  0  0  0  0  0  0  0
   29.4350   -9.8804  -17.3618 C   0  0  0  0  0  0  0  0  0  0  0  0
   29.0375   -8.9530  -18.1065 O   0  0  0  0  0  0  0  0  0  0  0  0
   29.1253  -11.3118  -17.5426 C   0  0  0  0  0  0  0  0  0  0  0  0
   27.7833  -11.7160  -17.0086 C   0  0  2  0  0  0  0  0  0  0  0  0
   27.4592  -13.1129  -17.2207 N   0  0  0  0  0  0  0  0  0  0  0  0
   26.6888  -10.8336  -17.4027 C   0  0  0  0  0  0  0  0  0  0  0  0
   26.1209  -11.0502  -18.5270 O   0  0  0  0  0  0  0  0  0  0  0  0
   26.2094   -9.7498  -16.6303 N   0  0  0  0  0  0  0  0  0  0  0  0
   25.0390   -8.9477  -17.0051 C   0  0  1  0  0  0  0  0  0  0  0  0
   24.2316   -8.5680  -15.8150 C   0  0  0  0  0  0  0  0  0  0  0  0
   23.0422   -7.7604  -16.2226 C   0  0  0  0  0  0  0  0  0  0  0  0
   22.1459   -7.3981  -15.0613 C   0  0  0  0  0  0  0  0  0  0  0  0
   20.8887   -6.6900  -15.5372 C   0  0  0  0  0  0  0  0  0  0  0  0
   20.0196   -7.5563  -16.3017 N   0  0  0  0  0  0  0  0  0  0  0  0
   25.5034   -7.8108  -17.8343 C   0  0  0  0  0  0  0  0  0  0  0  0
   24.7752   -7.1895  -18.8114 O   0  0  0  0  0  0  0  0  0  0  0  0
   26.6829   -7.3444  -17.6472 O   0  0  0  0  0  0  0  0  0  0  0  0
  2  3  1  0
  2  1  1  6
  4  3  1  0
  4  8  1  0
  5  4  2  0
  6  2  1  0
  7  6  2  0
  9 10  1  0
 10 12  1  0
 11 10  2  0
 13 12  1  6
 13 14  1  0
 14  6  1  0
 15 13  1  0
 15 17  1  0
 16 15  2  0
 18 19  1  1
 18 17  1  0
 20 21  1  0
 20 19  1  0
 22 21  1  0
 23 22  1  0
 24 18  1  0
 25 24  1  0
 26 24  2  0
M  END
$$$$
