DNK.pdb
     RDKit          3D

 26 25  0  0  1  0  0  0  0  0999 V2000
   17.5641  -13.0461  -13.8450 N   0  0  0  0  0  0  0  0  0  0  0  0
   17.0896  -12.6216  -15.1138 C   0  0  1  0  0  0  0  0  0  0  0  0
   16.2483  -13.7659  -15.6756 C   0  0  0  0  0  0  0  0  0  0  0  0
   17.0500  -15.0193  -15.6401 C   0  0  0  0  0  0  0  0  0  0  0  0
   17.2444  -15.5976  -14.5383 O   0  0  0  0  0  0  0  0  0  0  0  0
   16.3509  -11.3601  -15.1626 C   0  0  0  0  0  0  0  0  0  0  0  0
   16.0689  -10.8335  -16.3017 O   0  0  0  0  0  0  0  0  0  0  0  0
   17.5995  -15.5887  -16.7712 O   0  0  0  0  0  0  0  0  0  0  0  0
   12.4762  -11.0480  -12.5238 N   0  0  0  0  0  0  0  0  0  0  0  0
   12.9310  -10.1466  -13.5211 C   0  0  0  0  0  0  0  0  0  0  0  0
   12.3465  -10.1923  -14.6297 O   0  0  0  0  0  0  0  0  0  0  0  0
   14.0427   -9.2384  -13.1796 C   0  0  0  0  0  0  0  0  0  0  0  0
   15.2211   -9.3460  -14.1011 C   0  0  2  0  0  0  0  0  0  0  0  0
   15.8965  -10.6276  -14.0497 N   0  0  0  0  0  0  0  0  0  0  0  0
   16.1575   -8.2292  -14.0127 C   0  0  0  0  0  0  0  0  0  0  0  0
   16.9421   -8.1849  -13.0048 O   0  0  0  0  0  0  0  0  0  0  0  0
   16.2597   -7.1861  -14.9626 N   0  0  0  0  0  0  0  0  0  0  0  0
   17.2505   -6.1073  -14.8725 C   0  0  1  0  0  0  0  0  0  0  0  0
   17.6199   -5.5894  -16.2170 C   0  0  0  0  0  0  0  0  0  0  0  0
   18.5697   -4.4421  -16.0957 C   0  0  0  0  0  0  0  0  0  0  0  0
   19.0270   -3.9077  -17.4330 C   0  0  0  0  0  0  0  0  0  0  0  0
   19.9264   -2.6951  -17.2619 C   0  0  0  0  0  0  0  0  0  0  0  0
   20.2711   -2.0777  -18.5230 N   0  0  0  0  0  0  0  0  0  0  0  0
   16.7388   -5.0865  -13.9280 C   0  0  0  0  0  0  0  0  0  0  0  0
   17.5038   -4.3307  -13.0828 O   0  0  0  0  0  0  0  0  0  0  0  0
   15.4768   -4.8673  -13.8718 O   0  0  0  0  0  0  0  0  0  0  0  0
  2  3  1  0
  2  1  1  1
  4  3  1  0
  4  8  1  0
  5  4  2  0
  6  2  1  0
  7  6  2  0
  9 10  1  0
 10 12  1  0
 11 10  2  0
 13 12  1  1
 13 14  1  0
 14  6  1  0
 15 13  1  0
 15 17  1  0
 16 15  2  0
 18 19  1  6
 18 17  1  0
 20 21  1  0
 20 19  1  0
 22 21  1  0
 23 22  1  0
 24 18  1  0
 25 24  1  0
 26 24  2  0
M  END
$$$$
