DNK.pdb
     RDKit          3D

 26 25  0  0  1  0  0  0  0  0999 V2000
   22.3768  -12.7990  -21.2748 N   0  0  0  0  0  0  0  0  0  0  0  0
   21.7700  -12.9682  -20.0027 C   0  0  1  0  0  0  0  0  0  0  0  0
   21.8915  -14.4492  -19.6494 C   0  0  0  0  0  0  0  0  0  0  0  0
   23.3066  -14.8749  -19.8265 C   0  0  0  0  0  0  0  0  0  0  0  0
   24.2250  -14.0171  -19.7438 O   0  0  0  0  0  0  0  0  0  0  0  0
   22.2642  -12.1306  -18.9103 C   0  0  0  0  0  0  0  0  0  0  0  0
   21.6409  -12.1217  -17.7853 O   0  0  0  0  0  0  0  0  0  0  0  0
   23.6687  -16.1825  -20.0806 O   0  0  0  0  0  0  0  0  0  0  0  0
   24.8157   -8.8908  -15.8264 N   0  0  0  0  0  0  0  0  0  0  0  0
   25.7235   -9.1397  -16.8884 C   0  0  0  0  0  0  0  0  0  0  0  0
   26.8725   -8.6505  -16.7726 O   0  0  0  0  0  0  0  0  0  0  0  0
   25.2497   -9.9435  -18.0314 C   0  0  0  0  0  0  0  0  0  0  0  0
   23.8222  -10.3878  -17.9125 C   0  0  2  0  0  0  0  0  0  0  0  0
   23.3967  -11.2958  -18.9594 N   0  0  0  0  0  0  0  0  0  0  0  0
   22.8690   -9.3006  -17.7093 C   0  0  0  0  0  0  0  0  0  0  0  0
   22.5652   -8.5753  -18.7168 O   0  0  0  0  0  0  0  0  0  0  0  0
   22.2557   -8.9870  -16.4738 N   0  0  0  0  0  0  0  0  0  0  0  0
   21.1905   -7.9875  -16.3328 C   0  0  1  0  0  0  0  0  0  0  0  0
   19.8418   -8.6073  -16.4292 C   0  0  0  0  0  0  0  0  0  0  0  0
   18.7754   -7.5785  -16.2357 C   0  0  0  0  0  0  0  0  0  0  0  0
   17.3801   -8.1319  -16.4088 C   0  0  0  0  0  0  0  0  0  0  0  0
   16.3352   -7.0351  -16.2912 C   0  0  0  0  0  0  0  0  0  0  0  0
   16.2459   -6.2236  -17.4844 N   0  0  0  0  0  0  0  0  0  0  0  0
   21.4382   -7.2192  -15.0901 C   0  0  0  0  0  0  0  0  0  0  0  0
   21.0134   -5.9420  -14.8468 O   0  0  0  0  0  0  0  0  0  0  0  0
   22.1043   -7.7672  -14.1416 O   0  0  0  0  0  0  0  0  0  0  0  0
  2  3  1  0
  2  1  1  6
  4  3  1  0
  4  8  1  0
  5  4  2  0
  6  2  1  0
  7  6  2  0
  9 10  1  0
 10 12  1  0
 11 10  2  0
 13 12  1  6
 13 14  1  0
 14  6  1  0
 15 13  1  0
 15 17  1  0
 16 15  2  0
 18 19  1  1
 18 17  1  0
 20 21  1  0
 20 19  1  0
 22 21  1  0
 23 22  1  0
 24 18  1  0
 25 24  1  0
 26 24  2  0
M  END
$$$$
