DNK.pdb
     RDKit          3D

 26 25  0  0  1  0  0  0  0  0999 V2000
   23.4257  -23.3806  -16.6079 N   0  0  0  0  0  0  0  0  0  0  0  0
   22.3970  -24.1952  -16.0662 C   0  0  1  0  0  0  0  0  0  0  0  0
   23.0411  -25.5288  -15.6925 C   0  0  0  0  0  0  0  0  0  0  0  0
   23.4545  -26.2326  -16.9370 C   0  0  0  0  0  0  0  0  0  0  0  0
   23.2664  -25.6783  -18.0522 O   0  0  0  0  0  0  0  0  0  0  0  0
   21.6371  -23.6512  -14.9411 C   0  0  0  0  0  0  0  0  0  0  0  0
   22.2630  -23.1844  -13.9190 O   0  0  0  0  0  0  0  0  0  0  0  0
   24.0429  -27.4813  -16.9306 O   0  0  0  0  0  0  0  0  0  0  0  0
   20.5965  -20.5665  -14.7333 N   0  0  0  0  0  0  0  0  0  0  0  0
   19.1808  -20.6414  -14.7978 C   0  0  0  0  0  0  0  0  0  0  0  0
   18.5855  -19.6436  -15.2697 O   0  0  0  0  0  0  0  0  0  0  0  0
   18.5288  -21.8717  -14.3095 C   0  0  0  0  0  0  0  0  0  0  0  0
   19.4874  -22.9095  -13.8060 C   0  0  2  0  0  0  0  0  0  0  0  0
   20.2340  -23.5812  -14.8513 N   0  0  0  0  0  0  0  0  0  0  0  0
   18.9071  -23.8528  -12.8545 C   0  0  0  0  0  0  0  0  0  0  0  0
   18.4291  -24.9462  -13.3121 O   0  0  0  0  0  0  0  0  0  0  0  0
   18.8317  -23.6446  -11.4574 N   0  0  0  0  0  0  0  0  0  0  0  0
   18.1190  -24.5463  -10.5448 C   0  0  1  0  0  0  0  0  0  0  0  0
   18.4684  -24.2761   -9.1246 C   0  0  0  0  0  0  0  0  0  0  0  0
   17.7091  -25.1860   -8.2142 C   0  0  0  0  0  0  0  0  0  0  0  0
   18.0055  -24.9437   -6.7525 C   0  0  0  0  0  0  0  0  0  0  0  0
   17.1978  -25.8765   -5.8659 C   0  0  0  0  0  0  0  0  0  0  0  0
   17.5430  -25.7503   -4.4676 N   0  0  0  0  0  0  0  0  0  0  0  0
   16.6724  -24.4729  -10.8578 C   0  0  0  0  0  0  0  0  0  0  0  0
   15.9605  -23.3231  -11.0631 O   0  0  0  0  0  0  0  0  0  0  0  0
   15.9997  -25.5603  -10.9515 O   0  0  0  0  0  0  0  0  0  0  0  0
  2  3  1  0
  2  1  1  1
  4  3  1  0
  4  8  1  0
  5  4  2  0
  6  2  1  0
  7  6  2  0
  9 10  1  0
 10 12  1  0
 11 10  2  0
 13 12  1  6
 13 14  1  0
 14  6  1  0
 15 13  1  0
 15 17  1  0
 16 15  2  0
 18 19  1  1
 18 17  1  0
 20 21  1  0
 20 19  1  0
 22 21  1  0
 23 22  1  0
 24 18  1  0
 25 24  1  0
 26 24  2  0
M  END
$$$$
