FHI.pdb
     RDKit          3D

 30 31  0  0  1  0  0  0  0  0999 V2000
    6.5874  -17.3258   19.3132 N   0  0  0  0  0  0  0  0  0  0  0  0
    7.8373  -17.2226   20.0198 C   0  0  1  0  0  0  0  0  0  0  0  0
    8.6480  -16.0793   19.4616 C   0  0  0  0  0  0  0  0  0  0  0  0
    8.1377  -14.7950   19.9652 C   0  0  0  0  0  0  0  0  0  0  0  0
    8.7430  -13.6340   19.5510 C   0  0  0  0  0  0  0  0  0  0  0  0
    8.2528  -12.4392   20.0322 C   0  0  0  0  0  0  0  0  0  0  0  0
    7.1871  -12.4068   20.9031 C   0  0  0  0  0  0  0  0  0  0  0  0
    6.5722  -13.5669   21.3251 C   0  0  0  0  0  0  0  0  0  0  0  0
    7.0705  -14.7656   20.8371 C   0  0  0  0  0  0  0  0  0  0  0  0
    7.6830  -17.0169   21.4608 C   0  0  0  0  0  0  0  0  0  0  0  0
    6.5381  -16.7431   21.9006 O   0  0  0  0  0  0  0  0  0  0  0  0
    8.7428  -17.1034   22.4214 N   0  0  0  0  0  0  0  0  0  0  0  0
    8.4863  -17.3210   23.8242 C   0  0  1  0  0  0  0  0  0  0  0  0
    8.9334  -18.6310   24.3615 C   0  0  0  0  0  0  0  0  0  0  0  0
    8.0594  -19.7826   24.1839 C   0  0  0  0  0  0  0  0  0  0  0  0
    6.8465  -19.9487   23.6189 C   0  0  0  0  0  0  0  0  0  0  0  0
    6.4447  -21.2484   23.6838 N   0  0  0  0  0  0  0  0  0  0  0  0
    7.4482  -21.8731   24.3050 C   0  0  0  0  0  0  0  0  0  0  0  0
    8.4237  -21.0367   24.6169 N   0  0  0  0  0  0  0  0  0  0  0  0
    9.1154  -16.2349   24.6064 C   0  0  0  0  0  0  0  0  0  0  0  0
   10.2545  -15.8521   24.3070 O   0  0  0  0  0  0  0  0  0  0  0  0
    6.0022  -12.2155   26.5614 C   0  0  0  0  0  0  0  0  0  0  0  0
    7.1071  -13.0695   25.9864 C   0  0  0  0  0  0  0  0  0  0  0  0
    7.9925  -13.6742   27.0318 C   0  0  2  0  0  0  0  0  0  0  0  0
    8.5987  -12.5497   27.8323 C   0  0  0  0  0  0  0  0  0  0  0  0
    9.0280  -14.5862   26.4542 C   0  0  2  0  0  0  0  0  0  0  0  0
    8.4169  -15.6531   25.6744 N   0  0  0  0  0  0  0  0  0  0  0  0
    9.8610  -15.1955   27.5035 C   0  0  0  0  0  0  0  0  0  0  0  0
    9.5116  -16.4302   28.0548 O   0  0  0  0  0  0  0  0  0  0  0  0
   10.9105  -14.6866   27.9764 O   0  0  0  0  0  0  0  0  0  0  0  0
  2  1  1  6
  2 10  1  0
  2  3  1  0
  3  4  1  0
  4  9  2  0
  5  6  2  0
  5  4  1  0
  6  7  1  0
  7  8  2  0
  9  8  1  0
 10 12  1  0
 10 11  2  0
 12 13  1  0
 13 20  1  0
 14 15  1  0
 13 14  1  1
 15 19  1  0
 15 16  2  0
 16 17  1  0
 18 17  1  0
 19 18  2  0
 20 27  1  0
 20 21  2  0
 22 23  1  0
 23 24  1  0
 24 26  1  0
 24 25  1  6
 26 28  1  0
 26 27  1  1
 28 30  2  0
 28 29  1  0
M  END
$$$$
