FHI.pdb
     RDKit          3D

 30 31  0  0  1  0  0  0  0  0999 V2000
    6.8282  -17.9622   19.8371 N   0  0  0  0  0  0  0  0  0  0  0  0
    7.4148  -16.8590   20.5520 C   0  0  1  0  0  0  0  0  0  0  0  0
    6.4689  -15.6838   20.5455 C   0  0  0  0  0  0  0  0  0  0  0  0
    7.1837  -14.4523   20.1766 C   0  0  0  0  0  0  0  0  0  0  0  0
    7.7163  -14.3488   18.9150 C   0  0  0  0  0  0  0  0  0  0  0  0
    8.3830  -13.1886   18.5853 C   0  0  0  0  0  0  0  0  0  0  0  0
    8.5132  -12.1610   19.4920 C   0  0  0  0  0  0  0  0  0  0  0  0
    7.9821  -12.2549   20.7613 C   0  0  0  0  0  0  0  0  0  0  0  0
    7.3126  -13.4250   21.0865 C   0  0  0  0  0  0  0  0  0  0  0  0
    7.7513  -17.1713   21.9419 C   0  0  0  0  0  0  0  0  0  0  0  0
    6.8713  -17.7134   22.6567 O   0  0  0  0  0  0  0  0  0  0  0  0
    9.0163  -16.9064   22.5606 N   0  0  0  0  0  0  0  0  0  0  0  0
    9.2450  -17.1459   23.9647 C   0  0  1  0  0  0  0  0  0  0  0  0
   10.3591  -18.0745   24.2831 C   0  0  0  0  0  0  0  0  0  0  0  0
   11.2425  -18.4868   23.2008 C   0  0  0  0  0  0  0  0  0  0  0  0
   11.3127  -18.1758   21.8908 C   0  0  0  0  0  0  0  0  0  0  0  0
   12.3499  -18.8180   21.2851 N   0  0  0  0  0  0  0  0  0  0  0  0
   12.9128  -19.5310   22.2639 C   0  0  0  0  0  0  0  0  0  0  0  0
   12.2838  -19.3602   23.4144 N   0  0  0  0  0  0  0  0  0  0  0  0
    9.4799  -15.8540   24.6450 C   0  0  0  0  0  0  0  0  0  0  0  0
   10.1381  -14.9761   24.0707 O   0  0  0  0  0  0  0  0  0  0  0  0
    5.9400  -13.3469   28.1999 C   0  0  0  0  0  0  0  0  0  0  0  0
    6.9478  -14.2823   27.5754 C   0  0  0  0  0  0  0  0  0  0  0  0
    8.0283  -13.5703   26.8217 C   0  0  2  0  0  0  0  0  0  0  0  0
    7.4504  -13.1106   25.5073 C   0  0  0  0  0  0  0  0  0  0  0  0
    9.2556  -14.4068   26.6439 C   0  0  2  0  0  0  0  0  0  0  0  0
    8.9565  -15.6389   25.9283 N   0  0  0  0  0  0  0  0  0  0  0  0
    9.8664  -14.7563   27.9366 C   0  0  0  0  0  0  0  0  0  0  0  0
    9.9513  -16.0907   28.3400 O   0  0  0  0  0  0  0  0  0  0  0  0
   10.3437  -13.9281   28.7554 O   0  0  0  0  0  0  0  0  0  0  0  0
  2  1  1  1
  2 10  1  0
  2  3  1  0
  3  4  1  0
  4  9  2  0
  5  6  2  0
  5  4  1  0
  6  7  1  0
  7  8  2  0
  9  8  1  0
 10 12  1  0
 10 11  2  0
 12 13  1  0
 13 20  1  0
 14 15  1  0
 13 14  1  6
 15 19  1  0
 15 16  2  0
 16 17  1  0
 18 17  1  0
 19 18  2  0
 20 27  1  0
 20 21  2  0
 22 23  1  0
 23 24  1  0
 24 26  1  0
 24 25  1  6
 26 28  1  0
 26 27  1  1
 28 30  2  0
 28 29  1  0
M  END
$$$$
