FHI.pdb
     RDKit          3D

 30 31  0  0  1  0  0  0  0  0999 V2000
    6.6168  -18.3006   20.3783 N   0  0  0  0  0  0  0  0  0  0  0  0
    6.9786  -16.9374   20.6666 C   0  0  1  0  0  0  0  0  0  0  0  0
    6.3400  -16.0141   19.6589 C   0  0  0  0  0  0  0  0  0  0  0  0
    7.0951  -14.7551   19.5664 C   0  0  0  0  0  0  0  0  0  0  0  0
    7.9053  -14.5478   18.4772 C   0  0  0  0  0  0  0  0  0  0  0  0
    8.6060  -13.3631   18.4058 C   0  0  0  0  0  0  0  0  0  0  0  0
    8.4990  -12.4128   19.3961 C   0  0  0  0  0  0  0  0  0  0  0  0
    7.6882  -12.6112   20.4939 C   0  0  0  0  0  0  0  0  0  0  0  0
    6.9861  -13.8054   20.5595 C   0  0  0  0  0  0  0  0  0  0  0  0
    6.5887  -16.4964   22.0068 C   0  0  0  0  0  0  0  0  0  0  0  0
    6.9258  -15.3421   22.3718 O   0  0  0  0  0  0  0  0  0  0  0  0
    5.8458  -17.2824   22.9469 N   0  0  0  0  0  0  0  0  0  0  0  0
    6.3974  -17.6715   24.2218 C   0  0  1  0  0  0  0  0  0  0  0  0
    6.9136  -19.0616   24.2991 C   0  0  0  0  0  0  0  0  0  0  0  0
    7.4273  -19.5354   25.5771 C   0  0  0  0  0  0  0  0  0  0  0  0
    7.5300  -18.9774   26.8002 C   0  0  0  0  0  0  0  0  0  0  0  0
    8.0731  -19.8474   27.6965 N   0  0  0  0  0  0  0  0  0  0  0  0
    8.2992  -20.9549   26.9853 C   0  0  0  0  0  0  0  0  0  0  0  0
    7.9290  -20.8079   25.7244 N   0  0  0  0  0  0  0  0  0  0  0  0
    7.4776  -16.7311   24.5902 C   0  0  0  0  0  0  0  0  0  0  0  0
    8.4299  -16.5664   23.8156 O   0  0  0  0  0  0  0  0  0  0  0  0
    7.7884  -11.3520   27.0722 C   0  0  0  0  0  0  0  0  0  0  0  0
    8.3267  -12.7603   27.1585 C   0  0  0  0  0  0  0  0  0  0  0  0
    7.8301  -13.6518   26.0626 C   0  0  2  0  0  0  0  0  0  0  0  0
    6.3235  -13.6578   26.1172 C   0  0  0  0  0  0  0  0  0  0  0  0
    8.4091  -15.0294   26.1320 C   0  0  2  0  0  0  0  0  0  0  0  0
    7.4113  -16.0390   25.8083 N   0  0  0  0  0  0  0  0  0  0  0  0
    8.9519  -15.3235   27.4680 C   0  0  0  0  0  0  0  0  0  0  0  0
    8.3560  -16.2957   28.2744 O   0  0  0  0  0  0  0  0  0  0  0  0
    9.9514  -14.7556   27.9807 O   0  0  0  0  0  0  0  0  0  0  0  0
  2  1  1  6
  2 10  1  0
  2  3  1  0
  3  4  1  0
  4  9  2  0
  5  6  2  0
  5  4  1  0
  6  7  1  0
  7  8  2  0
  9  8  1  0
 10 12  1  0
 10 11  2  0
 12 13  1  0
 13 20  1  0
 14 15  1  0
 13 14  1  6
 15 19  1  0
 15 16  2  0
 16 17  1  0
 18 17  1  0
 19 18  2  0
 20 27  1  0
 20 21  2  0
 22 23  1  0
 23 24  1  0
 24 26  1  0
 24 25  1  1
 26 28  1  0
 26 27  1  1
 28 30  2  0
 28 29  1  0
M  END
$$$$
