FHI.pdb
     RDKit          3D

 30 31  0  0  1  0  0  0  0  0999 V2000
    7.0037  -18.0371   19.1699 N   0  0  0  0  0  0  0  0  0  0  0  0
    7.4608  -16.8705   19.8787 C   0  0  1  0  0  0  0  0  0  0  0  0
    6.5218  -15.7171   19.6258 C   0  0  0  0  0  0  0  0  0  0  0  0
    7.0769  -14.4730   20.1804 C   0  0  0  0  0  0  0  0  0  0  0  0
    7.9654  -13.7495   19.4235 C   0  0  0  0  0  0  0  0  0  0  0  0
    8.4762  -12.5863   19.9578 C   0  0  0  0  0  0  0  0  0  0  0  0
    8.1085  -12.1590   21.2137 C   0  0  0  0  0  0  0  0  0  0  0  0
    7.2171  -12.8782   21.9818 C   0  0  0  0  0  0  0  0  0  0  0  0
    6.7069  -14.0476   21.4382 C   0  0  0  0  0  0  0  0  0  0  0  0
    7.5699  -17.0664   21.3252 C   0  0  0  0  0  0  0  0  0  0  0  0
    6.5335  -17.3879   21.9590 O   0  0  0  0  0  0  0  0  0  0  0  0
    8.7755  -16.9200   22.0857 N   0  0  0  0  0  0  0  0  0  0  0  0
    8.8298  -17.2176   23.4962 C   0  0  1  0  0  0  0  0  0  0  0  0
    9.7073  -18.3529   23.8782 C   0  0  0  0  0  0  0  0  0  0  0  0
    9.3686  -19.6811   23.3853 C   0  0  0  0  0  0  0  0  0  0  0  0
    8.2365  -20.2302   22.9007 C   0  0  0  0  0  0  0  0  0  0  0  0
    8.4311  -21.5302   22.5438 N   0  0  0  0  0  0  0  0  0  0  0  0
    9.7164  -21.7601   22.8239 C   0  0  0  0  0  0  0  0  0  0  0  0
   10.3052  -20.6870   23.3244 N   0  0  0  0  0  0  0  0  0  0  0  0
    9.2546  -16.0067   24.2313 C   0  0  0  0  0  0  0  0  0  0  0  0
   10.2025  -15.3361   23.8006 O   0  0  0  0  0  0  0  0  0  0  0  0
    5.7785  -12.4900   26.1268 C   0  0  0  0  0  0  0  0  0  0  0  0
    7.0138  -13.1909   25.6134 C   0  0  0  0  0  0  0  0  0  0  0  0
    7.9104  -13.6858   26.7059 C   0  0  2  0  0  0  0  0  0  0  0  0
    8.3708  -12.4922   27.5035 C   0  0  0  0  0  0  0  0  0  0  0  0
    9.0527  -14.5023   26.1899 C   0  0  2  0  0  0  0  0  0  0  0  0
    8.5812  -15.6332   25.4035 N   0  0  0  0  0  0  0  0  0  0  0  0
    9.8920  -15.0148   27.2849 C   0  0  0  0  0  0  0  0  0  0  0  0
    9.7824  -16.3451   27.6958 O   0  0  0  0  0  0  0  0  0  0  0  0
   10.7418  -14.3369   27.9192 O   0  0  0  0  0  0  0  0  0  0  0  0
  2  1  1  6
  2 10  1  0
  2  3  1  0
  3  4  1  0
  4  9  2  0
  5  6  2  0
  5  4  1  0
  6  7  1  0
  7  8  2  0
  9  8  1  0
 10 12  1  0
 10 11  2  0
 12 13  1  0
 13 20  1  0
 14 15  1  0
 13 14  1  6
 15 19  1  0
 15 16  2  0
 16 17  1  0
 18 17  1  0
 19 18  2  0
 20 27  1  0
 20 21  2  0
 22 23  1  0
 23 24  1  0
 24 26  1  0
 24 25  1  6
 26 28  1  0
 26 27  1  1
 28 30  2  0
 28 29  1  0
M  END
$$$$
