FHI.pdb
     RDKit          3D

 30 31  0  0  1  0  0  0  0  0999 V2000
    7.6298  -17.6714   20.2544 N   0  0  0  0  0  0  0  0  0  0  0  0
    7.9855  -16.9344   21.4387 C   0  0  1  0  0  0  0  0  0  0  0  0
    9.0076  -15.8788   21.0972 C   0  0  0  0  0  0  0  0  0  0  0  0
    8.3942  -14.8135   20.2894 C   0  0  0  0  0  0  0  0  0  0  0  0
    8.1565  -15.0468   18.9571 C   0  0  0  0  0  0  0  0  0  0  0  0
    7.5814  -14.0383   18.2144 C   0  0  0  0  0  0  0  0  0  0  0  0
    7.2534  -12.8308   18.7882 C   0  0  0  0  0  0  0  0  0  0  0  0
    7.4879  -12.5865   20.1251 C   0  0  0  0  0  0  0  0  0  0  0  0
    8.0669  -13.6054   20.8666 C   0  0  0  0  0  0  0  0  0  0  0  0
    6.8482  -16.2808   22.0883 C   0  0  0  0  0  0  0  0  0  0  0  0
    6.4544  -15.1806   21.6260 O   0  0  0  0  0  0  0  0  0  0  0  0
    6.1395  -16.7989   23.2209 N   0  0  0  0  0  0  0  0  0  0  0  0
    6.8116  -17.5016   24.2864 C   0  0  1  0  0  0  0  0  0  0  0  0
    7.4567  -18.7826   23.9020 C   0  0  0  0  0  0  0  0  0  0  0  0
    6.6251  -19.8222   23.3109 C   0  0  0  0  0  0  0  0  0  0  0  0
    5.3006  -19.9343   23.0849 C   0  0  0  0  0  0  0  0  0  0  0  0
    5.0014  -21.1145   22.4744 N   0  0  0  0  0  0  0  0  0  0  0  0
    6.1826  -21.7213   22.3332 C   0  0  0  0  0  0  0  0  0  0  0  0
    7.1690  -20.9856   22.8174 N   0  0  0  0  0  0  0  0  0  0  0  0
    7.8245  -16.6102   24.8919 C   0  0  0  0  0  0  0  0  0  0  0  0
    8.9177  -16.4624   24.3290 O   0  0  0  0  0  0  0  0  0  0  0  0
    6.3034  -11.9710   26.7963 C   0  0  0  0  0  0  0  0  0  0  0  0
    6.9927  -13.2008   26.2549 C   0  0  0  0  0  0  0  0  0  0  0  0
    7.9368  -13.8289   27.2329 C   0  0  2  0  0  0  0  0  0  0  0  0
    8.9791  -12.8018   27.5956 C   0  0  0  0  0  0  0  0  0  0  0  0
    8.5405  -15.0976   26.7194 C   0  0  2  0  0  0  0  0  0  0  0  0
    7.5361  -15.9449   26.0924 N   0  0  0  0  0  0  0  0  0  0  0  0
    9.1899  -15.8641   27.7950 C   0  0  0  0  0  0  0  0  0  0  0  0
   10.5012  -15.5729   28.1773 O   0  0  0  0  0  0  0  0  0  0  0  0
    8.6516  -16.8039   28.4362 O   0  0  0  0  0  0  0  0  0  0  0  0
  2  1  1  6
  2 10  1  0
  2  3  1  0
  3  4  1  0
  4  9  2  0
  5  6  2  0
  5  4  1  0
  6  7  1  0
  7  8  2  0
  9  8  1  0
 10 12  1  0
 10 11  2  0
 12 13  1  0
 13 20  1  0
 14 15  1  0
 13 14  1  6
 15 19  1  0
 15 16  2  0
 16 17  1  0
 18 17  1  0
 19 18  2  0
 20 27  1  0
 20 21  2  0
 22 23  1  0
 23 24  1  0
 24 26  1  0
 24 25  1  6
 26 28  1  0
 26 27  1  1
 28 30  2  0
 28 29  1  0
M  END
$$$$
