FHI.pdb
     RDKit          3D

 30 31  0  0  1  0  0  0  0  0999 V2000
    7.7128  -17.7740   19.5102 N   0  0  0  0  0  0  0  0  0  0  0  0
    8.0571  -16.6093   20.2829 C   0  0  1  0  0  0  0  0  0  0  0  0
    6.8623  -15.6947   20.3904 C   0  0  0  0  0  0  0  0  0  0  0  0
    7.2329  -14.4451   21.0723 C   0  0  0  0  0  0  0  0  0  0  0  0
    6.9418  -14.3081   22.4073 C   0  0  0  0  0  0  0  0  0  0  0  0
    7.2957  -13.1312   23.0311 C   0  0  0  0  0  0  0  0  0  0  0  0
    7.9229  -12.1200   22.3389 C   0  0  0  0  0  0  0  0  0  0  0  0
    8.2196  -12.2475   20.9981 C   0  0  0  0  0  0  0  0  0  0  0  0
    7.8609  -13.4343   20.3766 C   0  0  0  0  0  0  0  0  0  0  0  0
    8.5239  -16.9179   21.6355 C   0  0  0  0  0  0  0  0  0  0  0  0
    7.7742  -17.5988   22.3796 O   0  0  0  0  0  0  0  0  0  0  0  0
    9.7796  -16.5022   22.1864 N   0  0  0  0  0  0  0  0  0  0  0  0
   10.2789  -17.0293   23.4330 C   0  0  1  0  0  0  0  0  0  0  0  0
   11.5593  -17.7760   23.3459 C   0  0  0  0  0  0  0  0  0  0  0  0
   11.5959  -18.9883   22.5393 C   0  0  0  0  0  0  0  0  0  0  0  0
   10.7878  -20.0632   22.4425 C   0  0  0  0  0  0  0  0  0  0  0  0
   11.2455  -20.9434   21.5093 N   0  0  0  0  0  0  0  0  0  0  0  0
   12.3578  -20.3748   21.0374 C   0  0  0  0  0  0  0  0  0  0  0  0
   12.5980  -19.2143   21.6240 N   0  0  0  0  0  0  0  0  0  0  0  0
   10.4269  -15.9226   24.4027 C   0  0  0  0  0  0  0  0  0  0  0  0
   11.1043  -14.9324   24.0954 O   0  0  0  0  0  0  0  0  0  0  0  0
    7.3005  -12.4956   26.1321 C   0  0  0  0  0  0  0  0  0  0  0  0
    8.5241  -13.3344   25.8493 C   0  0  0  0  0  0  0  0  0  0  0  0
    8.9489  -14.1730   27.0148 C   0  0  2  0  0  0  0  0  0  0  0  0
    9.2141  -13.2503   28.1772 C   0  0  0  0  0  0  0  0  0  0  0  0
   10.1220  -15.0464   26.7005 C   0  0  2  0  0  0  0  0  0  0  0  0
    9.8006  -16.0071   25.6548 N   0  0  0  0  0  0  0  0  0  0  0  0
   10.5813  -15.7865   27.8869 C   0  0  0  0  0  0  0  0  0  0  0  0
    9.9937  -17.0061   28.2299 O   0  0  0  0  0  0  0  0  0  0  0  0
   11.4982  -15.4083   28.6617 O   0  0  0  0  0  0  0  0  0  0  0  0
  2  1  1  1
  2 10  1  0
  2  3  1  0
  3  4  1  0
  4  9  2  0
  5  6  2  0
  5  4  1  0
  6  7  1  0
  7  8  2  0
  9  8  1  0
 10 12  1  0
 10 11  2  0
 12 13  1  0
 13 20  1  0
 14 15  1  0
 13 14  1  6
 15 19  1  0
 15 16  2  0
 16 17  1  0
 18 17  1  0
 19 18  2  0
 20 27  1  0
 20 21  2  0
 22 23  1  0
 23 24  1  0
 24 26  1  0
 24 25  1  1
 26 28  1  0
 26 27  1  6
 28 30  2  0
 28 29  1  0
M  END
$$$$
