WGQ.pdb
     RDKit          3D

 28 29  0  0  1  0  0  0  0  0999 V2000
    8.7800  -14.9225   21.4830 N   0  0  0  0  0  0  0  0  0  0  0  0
    9.5535  -15.4452   22.5567 C   0  0  1  0  0  0  0  0  0  0  0  0
    8.7881  -15.8265   23.7860 C   0  0  0  0  0  0  0  0  0  0  0  0
    7.7473  -14.8296   24.1184 C   0  0  0  0  0  0  0  0  0  0  0  0
    6.4940  -14.7562   23.5318 C   0  0  0  0  0  0  0  0  0  0  0  0
    5.8280  -13.7448   24.1013 N   0  0  0  0  0  0  0  0  0  0  0  0
    6.5992  -13.1608   25.0317 C   0  0  0  0  0  0  0  0  0  0  0  0
    6.3673  -12.0765   25.8867 C   0  0  0  0  0  0  0  0  0  0  0  0
    7.3334  -11.6493   26.7690 C   0  0  0  0  0  0  0  0  0  0  0  0
    8.5193  -12.3286   26.7698 C   0  0  0  0  0  0  0  0  0  0  0  0
    8.7736  -13.3959   25.9418 C   0  0  0  0  0  0  0  0  0  0  0  0
    7.7899  -13.8245   25.0503 C   0  0  0  0  0  0  0  0  0  0  0  0
   10.4183  -16.5887   22.1236 C   0  0  0  0  0  0  0  0  0  0  0  0
   10.8481  -16.6139   20.9445 O   0  0  0  0  0  0  0  0  0  0  0  0
   10.7722  -17.6466   22.9953 N   0  0  0  0  0  0  0  0  0  0  0  0
   12.1253  -17.9772   23.2687 C   0  0  0  0  0  0  0  0  0  0  0  0
   12.5294  -18.0458   24.6713 C   0  0  0  0  0  0  0  0  0  0  0  0
   13.7267  -18.3011   24.9241 O   0  0  0  0  0  0  0  0  0  0  0  0
    9.1961  -14.4136   28.4097 N   0  0  0  0  0  0  0  0  0  0  0  0
   10.1374  -15.3363   28.9163 C   0  0  0  0  0  0  0  0  0  0  0  0
   10.2185  -15.5141   30.1532 O   0  0  0  0  0  0  0  0  0  0  0  0
   10.9975  -16.0595   27.9255 C   0  0  0  0  0  0  0  0  0  0  0  0
   10.8380  -17.5381   28.0348 C   0  0  0  0  0  0  0  0  0  0  0  0
   11.7881  -18.2150   27.1046 C   0  0  2  0  0  0  0  0  0  0  0  0
   11.6182  -17.8313   25.7284 N   0  0  0  0  0  0  0  0  0  0  0  0
   11.8564  -19.6689   27.3572 C   0  0  0  0  0  0  0  0  0  0  0  0
   12.5688  -20.1088   28.4596 O   0  0  0  0  0  0  0  0  0  0  0  0
   11.3072  -20.4903   26.6278 O   0  0  0  0  0  0  0  0  0  0  0  0
  2  1  1  6
  3  4  1  0
  3  2  1  0
  4  5  2  0
  6  5  1  0
  7  6  1  0
  8  7  2  0
  9  8  1  0
 10  9  2  0
 10 11  1  0
 11 12  2  0
 12  7  1  0
 12  4  1  0
 13 15  1  0
 13  2  1  0
 14 13  2  0
 16 15  1  0
 17 16  1  0
 17 25  1  0
 18 17  2  0
 19 20  1  0
 20 21  2  0
 22 23  1  0
 22 20  1  0
 24 23  1  1
 24 25  1  0
 24 26  1  0
 26 27  1  0
 28 26  2  0
M  END
$$$$
