WGQ.pdb
     RDKit          3D

 28 29  0  0  1  0  0  0  0  0999 V2000
    6.8222  -17.7866   24.4320 N   0  0  0  0  0  0  0  0  0  0  0  0
    7.1968  -16.7436   23.5397 C   0  0  1  0  0  0  0  0  0  0  0  0
    8.0178  -15.6412   24.1337 C   0  0  0  0  0  0  0  0  0  0  0  0
    7.2772  -14.9058   25.1816 C   0  0  0  0  0  0  0  0  0  0  0  0
    6.4760  -15.4868   26.1515 C   0  0  0  0  0  0  0  0  0  0  0  0
    5.9922  -14.5109   26.9292 N   0  0  0  0  0  0  0  0  0  0  0  0
    6.4472  -13.3228   26.5017 C   0  0  0  0  0  0  0  0  0  0  0  0
    6.2305  -12.0203   26.9674 C   0  0  0  0  0  0  0  0  0  0  0  0
    6.8137  -10.9388   26.3473 C   0  0  0  0  0  0  0  0  0  0  0  0
    7.6070  -11.1956   25.2646 C   0  0  0  0  0  0  0  0  0  0  0  0
    7.8370  -12.4637   24.7864 C   0  0  0  0  0  0  0  0  0  0  0  0
    7.2436  -13.5557   25.4199 C   0  0  0  0  0  0  0  0  0  0  0  0
    7.8695  -17.2694   22.3092 C   0  0  0  0  0  0  0  0  0  0  0  0
    8.6187  -18.2719   22.4065 O   0  0  0  0  0  0  0  0  0  0  0  0
    7.6927  -16.6784   21.0349 N   0  0  0  0  0  0  0  0  0  0  0  0
    8.3927  -17.1365   19.8881 C   0  0  0  0  0  0  0  0  0  0  0  0
    9.8402  -16.9384   19.8615 C   0  0  0  0  0  0  0  0  0  0  0  0
   10.3988  -16.8488   18.7467 O   0  0  0  0  0  0  0  0  0  0  0  0
   14.3015  -14.3202   17.6138 N   0  0  0  0  0  0  0  0  0  0  0  0
   13.5964  -14.2056   18.8318 C   0  0  0  0  0  0  0  0  0  0  0  0
   13.7003  -13.1547   19.5049 O   0  0  0  0  0  0  0  0  0  0  0  0
   12.7517  -15.3691   19.2528 C   0  0  0  0  0  0  0  0  0  0  0  0
   12.5781  -15.4156   20.7331 C   0  0  0  0  0  0  0  0  0  0  0  0
   12.0415  -16.7490   21.1333 C   0  0  2  0  0  0  0  0  0  0  0  0
   10.6088  -16.8440   21.0423 N   0  0  0  0  0  0  0  0  0  0  0  0
   12.6316  -17.2155   22.4048 C   0  0  0  0  0  0  0  0  0  0  0  0
   11.7749  -17.5721   23.4320 O   0  0  0  0  0  0  0  0  0  0  0  0
   13.8449  -17.2958   22.5770 O   0  0  0  0  0  0  0  0  0  0  0  0
  2  1  1  1
  3  4  1  0
  3  2  1  0
  4  5  2  0
  6  5  1  0
  7  6  1  0
  8  7  2  0
  9  8  1  0
 10  9  2  0
 10 11  1  0
 11 12  2  0
 12  7  1  0
 12  4  1  0
 13 15  1  0
 13  2  1  0
 14 13  2  0
 16 15  1  0
 17 16  1  0
 17 25  1  0
 18 17  2  0
 19 20  1  0
 20 21  2  0
 22 23  1  0
 22 20  1  0
 24 23  1  1
 24 25  1  0
 24 26  1  0
 26 27  1  0
 28 26  2  0
M  END
$$$$
