WGQ.pdb
     RDKit          3D

 28 29  0  0  1  0  0  0  0  0999 V2000
    6.3305  -17.3537   24.0864 N   0  0  0  0  0  0  0  0  0  0  0  0
    7.4844  -16.6465   23.6473 C   0  0  1  0  0  0  0  0  0  0  0  0
    8.2247  -15.8869   24.7044 C   0  0  0  0  0  0  0  0  0  0  0  0
    7.3389  -14.9554   25.4359 C   0  0  0  0  0  0  0  0  0  0  0  0
    6.2165  -15.3226   26.1610 C   0  0  0  0  0  0  0  0  0  0  0  0
    5.6873  -14.2156   26.6953 N   0  0  0  0  0  0  0  0  0  0  0  0
    6.4210  -13.1477   26.3452 C   0  0  0  0  0  0  0  0  0  0  0  0
    6.2830  -11.7859   26.6401 C   0  0  0  0  0  0  0  0  0  0  0  0
    7.1764  -10.8599   26.1513 C   0  0  0  0  0  0  0  0  0  0  0  0
    8.1951  -11.3300   25.3710 C   0  0  0  0  0  0  0  0  0  0  0  0
    8.3544  -12.6608   25.0659 C   0  0  0  0  0  0  0  0  0  0  0  0
    7.4460  -13.5944   25.5651 C   0  0  0  0  0  0  0  0  0  0  0  0
    8.4349  -17.5289   22.8984 C   0  0  0  0  0  0  0  0  0  0  0  0
    8.0117  -18.6073   22.4150 O   0  0  0  0  0  0  0  0  0  0  0  0
    9.7977  -17.1933   22.7127 N   0  0  0  0  0  0  0  0  0  0  0  0
   10.2869  -16.6812   21.4826 C   0  0  0  0  0  0  0  0  0  0  0  0
   11.6787  -16.2373   21.4463 C   0  0  0  0  0  0  0  0  0  0  0  0
   12.0202  -15.3163   22.2197 O   0  0  0  0  0  0  0  0  0  0  0  0
   16.0801  -13.4441   18.8703 N   0  0  0  0  0  0  0  0  0  0  0  0
   14.7874  -13.8748   18.5001 C   0  0  0  0  0  0  0  0  0  0  0  0
   14.3111  -13.5128   17.3999 O   0  0  0  0  0  0  0  0  0  0  0  0
   14.0504  -14.7546   19.4631 C   0  0  0  0  0  0  0  0  0  0  0  0
   14.7895  -16.0229   19.7255 C   0  0  0  0  0  0  0  0  0  0  0  0
   14.0589  -16.8264   20.7487 C   0  0  2  0  0  0  0  0  0  0  0  0
   12.6304  -16.8146   20.5775 N   0  0  0  0  0  0  0  0  0  0  0  0
   14.5395  -16.5365   22.1153 C   0  0  0  0  0  0  0  0  0  0  0  0
   14.9064  -15.2364   22.4179 O   0  0  0  0  0  0  0  0  0  0  0  0
   14.6229  -17.4031   22.9814 O   0  0  0  0  0  0  0  0  0  0  0  0
  2  1  1  1
  3  4  1  0
  3  2  1  0
  4  5  2  0
  6  5  1  0
  7  6  1  0
  8  7  2  0
  9  8  1  0
 10  9  2  0
 10 11  1  0
 11 12  2  0
 12  7  1  0
 12  4  1  0
 13 15  1  0
 13  2  1  0
 14 13  2  0
 16 15  1  0
 17 16  1  0
 17 25  1  0
 18 17  2  0
 19 20  1  0
 20 21  2  0
 22 23  1  0
 22 20  1  0
 24 23  1  6
 24 25  1  0
 24 26  1  0
 26 27  1  0
 28 26  2  0
M  END
$$$$
