WGQ.pdb
     RDKit          3D

 28 29  0  0  1  0  0  0  0  0999 V2000
    6.4736  -16.5816   22.3671 N   0  0  0  0  0  0  0  0  0  0  0  0
    7.8149  -16.1429   22.5481 C   0  0  1  0  0  0  0  0  0  0  0  0
    8.3697  -16.2957   23.9305 C   0  0  0  0  0  0  0  0  0  0  0  0
    7.5882  -15.5298   24.9256 C   0  0  0  0  0  0  0  0  0  0  0  0
    6.6826  -16.0744   25.8220 C   0  0  0  0  0  0  0  0  0  0  0  0
    6.1912  -15.0800   26.5709 N   0  0  0  0  0  0  0  0  0  0  0  0
    6.7415  -13.9149   26.1954 C   0  0  0  0  0  0  0  0  0  0  0  0
    6.5581  -12.6063   26.6586 C   0  0  0  0  0  0  0  0  0  0  0  0
    7.2456  -11.5530   26.0999 C   0  0  0  0  0  0  0  0  0  0  0  0
    8.1077  -11.8437   25.0801 C   0  0  0  0  0  0  0  0  0  0  0  0
    8.3071  -13.1185   24.6060 C   0  0  0  0  0  0  0  0  0  0  0  0
    7.6078  -14.1819   25.1771 C   0  0  0  0  0  0  0  0  0  0  0  0
    8.7494  -16.7637   21.5559 C   0  0  0  0  0  0  0  0  0  0  0  0
    8.5290  -17.9353   21.1629 O   0  0  0  0  0  0  0  0  0  0  0  0
    9.8762  -16.0783   21.0411 N   0  0  0  0  0  0  0  0  0  0  0  0
   11.1277  -16.7210   20.8523 C   0  0  0  0  0  0  0  0  0  0  0  0
   12.0455  -16.7503   21.9889 C   0  0  0  0  0  0  0  0  0  0  0  0
   13.2136  -16.3426   21.8092 O   0  0  0  0  0  0  0  0  0  0  0  0
   12.4414  -21.1256   27.3133 N   0  0  0  0  0  0  0  0  0  0  0  0
   12.1481  -19.7502   27.4399 C   0  0  0  0  0  0  0  0  0  0  0  0
   11.3911  -19.3660   28.3605 O   0  0  0  0  0  0  0  0  0  0  0  0
   12.7713  -18.8169   26.4473 C   0  0  0  0  0  0  0  0  0  0  0  0
   11.9085  -18.6371   25.2446 C   0  0  0  0  0  0  0  0  0  0  0  0
   12.5173  -17.6201   24.3383 C   0  0  2  0  0  0  0  0  0  0  0  0
   11.6518  -17.2159   23.2625 N   0  0  0  0  0  0  0  0  0  0  0  0
   13.8917  -17.9929   23.9451 C   0  0  0  0  0  0  0  0  0  0  0  0
   14.0569  -19.0474   23.0636 O   0  0  0  0  0  0  0  0  0  0  0  0
   14.8811  -17.4031   24.3710 O   0  0  0  0  0  0  0  0  0  0  0  0
  2  1  1  1
  3  4  1  0
  3  2  1  0
  4  5  2  0
  6  5  1  0
  7  6  1  0
  8  7  2  0
  9  8  1  0
 10  9  2  0
 10 11  1  0
 11 12  2  0
 12  7  1  0
 12  4  1  0
 13 15  1  0
 13  2  1  0
 14 13  2  0
 16 15  1  0
 17 16  1  0
 17 25  1  0
 18 17  2  0
 19 20  1  0
 20 21  2  0
 22 23  1  0
 22 20  1  0
 24 23  1  6
 24 25  1  0
 24 26  1  0
 26 27  1  0
 28 26  2  0
M  END
$$$$
