WGQ.pdb
     RDKit          3D

 28 29  0  0  1  0  0  0  0  0999 V2000
    8.0385  -17.4582   23.0982 N   0  0  0  0  0  0  0  0  0  0  0  0
    8.5953  -16.1513   23.1787 C   0  0  1  0  0  0  0  0  0  0  0  0
    8.8595  -15.6395   24.5610 C   0  0  0  0  0  0  0  0  0  0  0  0
    7.6263  -15.1445   25.2103 C   0  0  0  0  0  0  0  0  0  0  0  0
    6.5013  -15.9083   25.4772 C   0  0  0  0  0  0  0  0  0  0  0  0
    5.6032  -15.1252   26.0865 N   0  0  0  0  0  0  0  0  0  0  0  0
    6.1010  -13.8864   26.2241 C   0  0  0  0  0  0  0  0  0  0  0  0
    5.5598  -12.7221   26.7829 C   0  0  0  0  0  0  0  0  0  0  0  0
    6.2748  -11.5463   26.8032 C   0  0  0  0  0  0  0  0  0  0  0  0
    7.5270  -11.5700   26.2563 C   0  0  0  0  0  0  0  0  0  0  0  0
    8.0825  -12.6983   25.7015 C   0  0  0  0  0  0  0  0  0  0  0  0
    7.3530  -13.8871   25.6847 C   0  0  0  0  0  0  0  0  0  0  0  0
    9.8302  -16.0125   22.3427 C   0  0  0  0  0  0  0  0  0  0  0  0
   10.1030  -14.8946   21.8413 O   0  0  0  0  0  0  0  0  0  0  0  0
   10.7061  -17.0968   22.0950 N   0  0  0  0  0  0  0  0  0  0  0  0
   12.0500  -16.9009   21.6824 C   0  0  0  0  0  0  0  0  0  0  0  0
   13.1031  -17.3654   22.5827 C   0  0  0  0  0  0  0  0  0  0  0  0
   12.8639  -17.3726   23.8097 O   0  0  0  0  0  0  0  0  0  0  0  0
   16.2209  -18.7966   18.3938 N   0  0  0  0  0  0  0  0  0  0  0  0
   16.4685  -18.2219   19.6596 C   0  0  0  0  0  0  0  0  0  0  0  0
   16.7161  -16.9969   19.7400 O   0  0  0  0  0  0  0  0  0  0  0  0
   16.4191  -19.1285   20.8513 C   0  0  0  0  0  0  0  0  0  0  0  0
   16.7386  -18.3983   22.1115 C   0  0  0  0  0  0  0  0  0  0  0  0
   15.4909  -18.1982   22.9050 C   0  0  2  0  0  0  0  0  0  0  0  0
   14.3599  -17.8015   22.1092 N   0  0  0  0  0  0  0  0  0  0  0  0
   15.7373  -17.3841   24.1130 C   0  0  0  0  0  0  0  0  0  0  0  0
   15.4345  -16.0342   24.0653 O   0  0  0  0  0  0  0  0  0  0  0  0
   16.1972  -17.8623   25.1465 O   0  0  0  0  0  0  0  0  0  0  0  0
  2  1  1  1
  3  4  1  0
  3  2  1  0
  4  5  2  0
  6  5  1  0
  7  6  1  0
  8  7  2  0
  9  8  1  0
 10  9  2  0
 10 11  1  0
 11 12  2  0
 12  7  1  0
 12  4  1  0
 13 15  1  0
 13  2  1  0
 14 13  2  0
 16 15  1  0
 17 16  1  0
 17 25  1  0
 18 17  2  0
 19 20  1  0
 20 21  2  0
 22 23  1  0
 22 20  1  0
 24 23  1  6
 24 25  1  0
 24 26  1  0
 26 27  1  0
 28 26  2  0
M  END
$$$$
