WGQ.pdb
     RDKit          3D

 28 29  0  0  1  0  0  0  0  0999 V2000
    8.0469  -15.6263   22.4848 N   0  0  0  0  0  0  0  0  0  0  0  0
    8.9485  -15.3805   23.5577 C   0  0  1  0  0  0  0  0  0  0  0  0
    8.5049  -15.8609   24.9048 C   0  0  0  0  0  0  0  0  0  0  0  0
    7.3609  -15.0777   25.4199 C   0  0  0  0  0  0  0  0  0  0  0  0
    6.1080  -15.5914   25.7143 C   0  0  0  0  0  0  0  0  0  0  0  0
    5.3469  -14.5910   26.1736 N   0  0  0  0  0  0  0  0  0  0  0  0
    6.0559  -13.4515   26.1879 C   0  0  0  0  0  0  0  0  0  0  0  0
    5.7163  -12.1482   26.5709 C   0  0  0  0  0  0  0  0  0  0  0  0
    6.6314  -11.1234   26.4887 C   0  0  0  0  0  0  0  0  0  0  0  0
    7.8759  -11.4367   26.0191 C   0  0  0  0  0  0  0  0  0  0  0  0
    8.2360  -12.7069   25.6365 C   0  0  0  0  0  0  0  0  0  0  0  0
    7.3043  -13.7414   25.7229 C   0  0  0  0  0  0  0  0  0  0  0  0
   10.3251  -15.8928   23.2654 C   0  0  0  0  0  0  0  0  0  0  0  0
   11.2158  -15.7787   24.1424 O   0  0  0  0  0  0  0  0  0  0  0  0
   10.6630  -16.5039   22.0338 N   0  0  0  0  0  0  0  0  0  0  0  0
   11.7774  -17.3736   21.9047 C   0  0  0  0  0  0  0  0  0  0  0  0
   12.8619  -17.2232   22.8725 C   0  0  0  0  0  0  0  0  0  0  0  0
   14.0350  -17.3648   22.4643 O   0  0  0  0  0  0  0  0  0  0  0  0
   12.6362  -18.5062   29.6826 N   0  0  0  0  0  0  0  0  0  0  0  0
   11.9477  -18.0541   28.5358 C   0  0  0  0  0  0  0  0  0  0  0  0
   11.3466  -16.9561   28.5736 O   0  0  0  0  0  0  0  0  0  0  0  0
   11.9783  -18.9310   27.3214 C   0  0  0  0  0  0  0  0  0  0  0  0
   11.6192  -18.1744   26.0876 C   0  0  0  0  0  0  0  0  0  0  0  0
   12.8617  -17.7847   25.3592 C   0  0  2  0  0  0  0  0  0  0  0  0
   12.6219  -16.9241   24.2314 N   0  0  0  0  0  0  0  0  0  0  0  0
   13.7295  -18.9513   25.0976 C   0  0  0  0  0  0  0  0  0  0  0  0
   14.8445  -19.1301   25.8983 O   0  0  0  0  0  0  0  0  0  0  0  0
   13.4953  -19.7583   24.2021 O   0  0  0  0  0  0  0  0  0  0  0  0
  2  1  1  6
  3  4  1  0
  3  2  1  0
  4  5  2  0
  6  5  1  0
  7  6  1  0
  8  7  2  0
  9  8  1  0
 10  9  2  0
 10 11  1  0
 11 12  2  0
 12  7  1  0
 12  4  1  0
 13 15  1  0
 13  2  1  0
 14 13  2  0
 16 15  1  0
 17 16  1  0
 17 25  1  0
 18 17  2  0
 19 20  1  0
 20 21  2  0
 22 23  1  0
 22 20  1  0
 24 23  1  6
 24 25  1  0
 24 26  1  0
 26 27  1  0
 28 26  2  0
M  END
$$$$
