WGQ.pdb
     RDKit          3D

 28 29  0  0  1  0  0  0  0  0999 V2000
    8.6766  -17.6348   24.2455 N   0  0  0  0  0  0  0  0  0  0  0  0
    8.0343  -16.5215   23.6352 C   0  0  1  0  0  0  0  0  0  0  0  0
    8.4638  -15.1729   24.1241 C   0  0  0  0  0  0  0  0  0  0  0  0
    7.4905  -14.5966   25.0771 C   0  0  0  0  0  0  0  0  0  0  0  0
    6.4862  -15.3030   25.7195 C   0  0  0  0  0  0  0  0  0  0  0  0
    5.8250  -14.4536   26.5146 N   0  0  0  0  0  0  0  0  0  0  0  0
    6.3600  -13.2269   26.4125 C   0  0  0  0  0  0  0  0  0  0  0  0
    6.0298  -12.0128   27.0268 C   0  0  0  0  0  0  0  0  0  0  0  0
    6.7358  -10.8637   26.7524 C   0  0  0  0  0  0  0  0  0  0  0  0
    7.7651  -10.9643   25.8591 C   0  0  0  0  0  0  0  0  0  0  0  0
    8.1108  -12.1427   25.2417 C   0  0  0  0  0  0  0  0  0  0  0  0
    7.3918  -13.3041   25.5247 C   0  0  0  0  0  0  0  0  0  0  0  0
    8.1221  -16.5700   22.1409 C   0  0  0  0  0  0  0  0  0  0  0  0
    7.1271  -16.2184   21.4612 O   0  0  0  0  0  0  0  0  0  0  0  0
    9.2881  -16.9981   21.4615 N   0  0  0  0  0  0  0  0  0  0  0  0
   10.0526  -16.1198   20.6498 C   0  0  0  0  0  0  0  0  0  0  0  0
   11.3057  -16.6332   20.1006 C   0  0  0  0  0  0  0  0  0  0  0  0
   11.3889  -16.7711   18.8609 O   0  0  0  0  0  0  0  0  0  0  0  0
   15.1321  -14.9245   17.0200 N   0  0  0  0  0  0  0  0  0  0  0  0
   14.5545  -14.2413   18.1124 C   0  0  0  0  0  0  0  0  0  0  0  0
   14.9219  -13.0719   18.3690 O   0  0  0  0  0  0  0  0  0  0  0  0
   13.5185  -14.9698   18.9128 C   0  0  0  0  0  0  0  0  0  0  0  0
   13.9476  -15.1552   20.3288 C   0  0  0  0  0  0  0  0  0  0  0  0
   13.7778  -16.5847   20.7210 C   0  0  2  0  0  0  0  0  0  0  0  0
   12.4055  -16.9680   20.9204 N   0  0  0  0  0  0  0  0  0  0  0  0
   14.7102  -16.9687   21.8008 C   0  0  0  0  0  0  0  0  0  0  0  0
   14.1791  -17.3173   23.0307 O   0  0  0  0  0  0  0  0  0  0  0  0
   15.9279  -16.9879   21.6431 O   0  0  0  0  0  0  0  0  0  0  0  0
  2  1  1  1
  3  4  1  0
  3  2  1  0
  4  5  2  0
  6  5  1  0
  7  6  1  0
  8  7  2  0
  9  8  1  0
 10  9  2  0
 10 11  1  0
 11 12  2  0
 12  7  1  0
 12  4  1  0
 13 15  1  0
 13  2  1  0
 14 13  2  0
 16 15  1  0
 17 16  1  0
 17 25  1  0
 18 17  2  0
 19 20  1  0
 20 21  2  0
 22 23  1  0
 22 20  1  0
 24 23  1  1
 24 25  1  0
 24 26  1  0
 26 27  1  0
 28 26  2  0
M  END
$$$$
