WGQ.pdb
     RDKit          3D

 28 29  0  0  1  0  0  0  0  0999 V2000
    7.2786  -17.6662   23.7938 N   0  0  0  0  0  0  0  0  0  0  0  0
    8.0163  -16.8411   22.8997 C   0  0  1  0  0  0  0  0  0  0  0  0
    7.7625  -15.3696   23.0113 C   0  0  0  0  0  0  0  0  0  0  0  0
    7.1024  -15.0195   24.2876 C   0  0  0  0  0  0  0  0  0  0  0  0
    6.3775  -15.8957   25.0795 C   0  0  0  0  0  0  0  0  0  0  0  0
    5.9528  -15.2261   26.1576 N   0  0  0  0  0  0  0  0  0  0  0  0
    6.3728  -13.9529   26.0951 C   0  0  0  0  0  0  0  0  0  0  0  0
    6.1903  -12.8685   26.9620 C   0  0  0  0  0  0  0  0  0  0  0  0
    6.7236  -11.6327   26.6745 C   0  0  0  0  0  0  0  0  0  0  0  0
    7.4331  -11.5164   25.5123 C   0  0  0  0  0  0  0  0  0  0  0  0
    7.6277  -12.5638   24.6436 C   0  0  0  0  0  0  0  0  0  0  0  0
    7.0852  -13.8140   24.9411 C   0  0  0  0  0  0  0  0  0  0  0  0
    9.4882  -17.1080   22.9713 C   0  0  0  0  0  0  0  0  0  0  0  0
   10.2803  -16.3003   22.4274 O   0  0  0  0  0  0  0  0  0  0  0  0
   10.0242  -18.2400   23.6314 N   0  0  0  0  0  0  0  0  0  0  0  0
   11.4201  -18.4079   23.8265 C   0  0  0  0  0  0  0  0  0  0  0  0
   11.9589  -18.0738   25.1430 C   0  0  0  0  0  0  0  0  0  0  0  0
   13.1921  -18.1831   25.3163 O   0  0  0  0  0  0  0  0  0  0  0  0
   11.2704  -14.3000   25.0546 N   0  0  0  0  0  0  0  0  0  0  0  0
   11.5887  -14.7360   26.3594 C   0  0  0  0  0  0  0  0  0  0  0  0
   12.7619  -14.6114   26.7793 O   0  0  0  0  0  0  0  0  0  0  0  0
   10.4839  -15.3321   27.1771 C   0  0  0  0  0  0  0  0  0  0  0  0
   11.0106  -16.2526   28.2253 C   0  0  0  0  0  0  0  0  0  0  0  0
   11.5092  -17.5059   27.5873 C   0  0  2  0  0  0  0  0  0  0  0  0
   11.1364  -17.6353   26.2037 N   0  0  0  0  0  0  0  0  0  0  0  0
   11.2470  -18.6896   28.4315 C   0  0  0  0  0  0  0  0  0  0  0  0
   11.7137  -18.6802   29.7348 O   0  0  0  0  0  0  0  0  0  0  0  0
   10.6349  -19.6706   28.0179 O   0  0  0  0  0  0  0  0  0  0  0  0
  2  1  1  1
  3  4  1  0
  3  2  1  0
  4  5  2  0
  6  5  1  0
  7  6  1  0
  8  7  2  0
  9  8  1  0
 10  9  2  0
 10 11  1  0
 11 12  2  0
 12  7  1  0
 12  4  1  0
 13 15  1  0
 13  2  1  0
 14 13  2  0
 16 15  1  0
 17 16  1  0
 17 25  1  0
 18 17  2  0
 19 20  1  0
 20 21  2  0
 22 23  1  0
 22 20  1  0
 24 23  1  1
 24 25  1  0
 24 26  1  0
 26 27  1  0
 28 26  2  0
M  END
$$$$
