WGQ.pdb
     RDKit          3D

 28 29  0  0  1  0  0  0  0  0999 V2000
    7.0527  -17.3353   25.6440 N   0  0  0  0  0  0  0  0  0  0  0  0
    7.4460  -16.4893   24.5698 C   0  0  1  0  0  0  0  0  0  0  0  0
    8.5526  -15.5263   24.8702 C   0  0  0  0  0  0  0  0  0  0  0  0
    8.2143  -14.6330   25.9994 C   0  0  0  0  0  0  0  0  0  0  0  0
    8.7239  -14.7396   27.2836 C   0  0  0  0  0  0  0  0  0  0  0  0
    8.2055  -13.7490   28.0192 N   0  0  0  0  0  0  0  0  0  0  0  0
    7.3814  -13.0066   27.2635 C   0  0  0  0  0  0  0  0  0  0  0  0
    6.6062  -11.8794   27.5623 C   0  0  0  0  0  0  0  0  0  0  0  0
    5.8204  -11.2839   26.6020 C   0  0  0  0  0  0  0  0  0  0  0  0
    5.8331  -11.8412   25.3543 C   0  0  0  0  0  0  0  0  0  0  0  0
    6.5842  -12.9468   25.0336 C   0  0  0  0  0  0  0  0  0  0  0  0
    7.3792  -13.5453   26.0112 C   0  0  0  0  0  0  0  0  0  0  0  0
    7.7727  -17.2659   23.3316 C   0  0  0  0  0  0  0  0  0  0  0  0
    8.1482  -18.4585   23.4426 O   0  0  0  0  0  0  0  0  0  0  0  0
    7.6738  -16.7059   22.0350 N   0  0  0  0  0  0  0  0  0  0  0  0
    8.1412  -17.3887   20.8816 C   0  0  0  0  0  0  0  0  0  0  0  0
    9.5878  -17.4895   20.7013 C   0  0  0  0  0  0  0  0  0  0  0  0
   10.0117  -18.1085   19.7013 O   0  0  0  0  0  0  0  0  0  0  0  0
   15.6252  -13.9720   20.1166 N   0  0  0  0  0  0  0  0  0  0  0  0
   14.4304  -14.6206   19.7351 C   0  0  0  0  0  0  0  0  0  0  0  0
   13.8625  -14.2850   18.6707 O   0  0  0  0  0  0  0  0  0  0  0  0
   13.9049  -15.6902   20.6432 C   0  0  0  0  0  0  0  0  0  0  0  0
   12.4155  -15.6697   20.7127 C   0  0  0  0  0  0  0  0  0  0  0  0
   11.9329  -16.8575   21.4758 C   0  0  2  0  0  0  0  0  0  0  0  0
   10.5016  -16.9128   21.6102 N   0  0  0  0  0  0  0  0  0  0  0  0
   12.6984  -17.0518   22.7244 C   0  0  0  0  0  0  0  0  0  0  0  0
   12.0096  -17.0264   23.9249 O   0  0  0  0  0  0  0  0  0  0  0  0
   13.9130  -17.2329   22.7304 O   0  0  0  0  0  0  0  0  0  0  0  0
  2  1  1  1
  3  4  1  0
  3  2  1  0
  4  5  2  0
  6  5  1  0
  7  6  1  0
  8  7  2  0
  9  8  1  0
 10  9  2  0
 10 11  1  0
 11 12  2  0
 12  7  1  0
 12  4  1  0
 13 15  1  0
 13  2  1  0
 14 13  2  0
 16 15  1  0
 17 16  1  0
 17 25  1  0
 18 17  2  0
 19 20  1  0
 20 21  2  0
 22 23  1  0
 22 20  1  0
 24 23  1  1
 24 25  1  0
 24 26  1  0
 26 27  1  0
 28 26  2  0
M  END
$$$$
