WGQ.pdb
     RDKit          3D

 28 29  0  0  1  0  0  0  0  0999 V2000
    9.1355  -15.9425   21.7622 N   0  0  0  0  0  0  0  0  0  0  0  0
    9.2490  -15.9822   23.1799 C   0  0  1  0  0  0  0  0  0  0  0  0
    7.9574  -16.0299   23.9360 C   0  0  0  0  0  0  0  0  0  0  0  0
    7.3384  -14.6919   24.0543 C   0  0  0  0  0  0  0  0  0  0  0  0
    6.4355  -14.1463   23.1558 C   0  0  0  0  0  0  0  0  0  0  0  0
    6.0832  -12.9359   23.6050 N   0  0  0  0  0  0  0  0  0  0  0  0
    6.7215  -12.6762   24.7568 C   0  0  0  0  0  0  0  0  0  0  0  0
    6.6967  -11.5619   25.6044 C   0  0  0  0  0  0  0  0  0  0  0  0
    7.4585  -11.5249   26.7501 C   0  0  0  0  0  0  0  0  0  0  0  0
    8.2334  -12.6184   27.0176 C   0  0  0  0  0  0  0  0  0  0  0  0
    8.2766  -13.7251   26.2034 C   0  0  0  0  0  0  0  0  0  0  0  0
    7.5016  -13.7567   25.0440 C   0  0  0  0  0  0  0  0  0  0  0  0
   10.1476  -17.0875   23.6424 C   0  0  0  0  0  0  0  0  0  0  0  0
   10.3242  -18.0809   22.8957 O   0  0  0  0  0  0  0  0  0  0  0  0
   10.8092  -17.0559   24.8937 N   0  0  0  0  0  0  0  0  0  0  0  0
   11.5489  -18.1641   25.3832 C   0  0  0  0  0  0  0  0  0  0  0  0
   12.2268  -18.0040   26.6678 C   0  0  0  0  0  0  0  0  0  0  0  0
   13.3174  -17.3930   26.6825 O   0  0  0  0  0  0  0  0  0  0  0  0
    9.1754  -22.3928   30.4979 N   0  0  0  0  0  0  0  0  0  0  0  0
   10.5036  -21.9848   30.7492 C   0  0  0  0  0  0  0  0  0  0  0  0
   10.8677  -21.7714   31.9282 O   0  0  0  0  0  0  0  0  0  0  0  0
   11.4131  -21.8291   29.5689 C   0  0  0  0  0  0  0  0  0  0  0  0
   10.9769  -20.7125   28.6820 C   0  0  0  0  0  0  0  0  0  0  0  0
   12.0800  -19.7164   28.5506 C   0  0  2  0  0  0  0  0  0  0  0  0
   11.6887  -18.5102   27.8710 N   0  0  0  0  0  0  0  0  0  0  0  0
   13.3272  -20.3441   28.0678 C   0  0  0  0  0  0  0  0  0  0  0  0
   14.3524  -20.5457   28.9759 O   0  0  0  0  0  0  0  0  0  0  0  0
   13.4812  -20.6885   26.8991 O   0  0  0  0  0  0  0  0  0  0  0  0
  2  1  1  6
  3  4  1  0
  3  2  1  0
  4  5  2  0
  6  5  1  0
  7  6  1  0
  8  7  2  0
  9  8  1  0
 10  9  2  0
 10 11  1  0
 11 12  2  0
 12  7  1  0
 12  4  1  0
 13 15  1  0
 13  2  1  0
 14 13  2  0
 16 15  1  0
 17 16  1  0
 17 25  1  0
 18 17  2  0
 19 20  1  0
 20 21  2  0
 22 23  1  0
 22 20  1  0
 24 23  1  6
 24 25  1  0
 24 26  1  0
 26 27  1  0
 28 26  2  0
M  END
$$$$
