WGQ.pdb
     RDKit          3D

 28 29  0  0  1  0  0  0  0  0999 V2000
    6.9351  -17.4406   23.2544 N   0  0  0  0  0  0  0  0  0  0  0  0
    7.6996  -16.2537   23.0773 C   0  0  1  0  0  0  0  0  0  0  0  0
    8.2296  -15.6269   24.3297 C   0  0  0  0  0  0  0  0  0  0  0  0
    7.1628  -14.9567   25.1045 C   0  0  0  0  0  0  0  0  0  0  0  0
    6.0981  -15.5968   25.7186 C   0  0  0  0  0  0  0  0  0  0  0  0
    5.3577  -14.6695   26.3375 N   0  0  0  0  0  0  0  0  0  0  0  0
    5.8996  -13.4563   26.1486 C   0  0  0  0  0  0  0  0  0  0  0  0
    5.5069  -12.1835   26.5805 C   0  0  0  0  0  0  0  0  0  0  0  0
    6.2366  -11.0649   26.2479 C   0  0  0  0  0  0  0  0  0  0  0  0
    7.3526  -11.2551   25.4824 C   0  0  0  0  0  0  0  0  0  0  0  0
    7.7610  -12.4926   25.0451 C   0  0  0  0  0  0  0  0  0  0  0  0
    7.0175  -13.6225   25.3862 C   0  0  0  0  0  0  0  0  0  0  0  0
    8.8141  -16.4428   22.0949 C   0  0  0  0  0  0  0  0  0  0  0  0
    8.5363  -16.5797   20.8785 O   0  0  0  0  0  0  0  0  0  0  0  0
   10.1746  -16.4729   22.4854 N   0  0  0  0  0  0  0  0  0  0  0  0
   11.1869  -15.8119   21.7416 C   0  0  0  0  0  0  0  0  0  0  0  0
   12.5626  -15.9431   22.2164 C   0  0  0  0  0  0  0  0  0  0  0  0
   13.4701  -15.4197   21.5342 O   0  0  0  0  0  0  0  0  0  0  0  0
   12.3815  -16.7031   28.2131 N   0  0  0  0  0  0  0  0  0  0  0  0
   11.8109  -15.6894   27.4127 C   0  0  0  0  0  0  0  0  0  0  0  0
   10.9206  -14.9534   27.8964 O   0  0  0  0  0  0  0  0  0  0  0  0
   12.3139  -15.5533   26.0081 C   0  0  0  0  0  0  0  0  0  0  0  0
   13.5112  -16.4091   25.7674 C   0  0  0  0  0  0  0  0  0  0  0  0
   13.9288  -16.2966   24.3395 C   0  0  2  0  0  0  0  0  0  0  0  0
   12.8858  -16.6308   23.4065 N   0  0  0  0  0  0  0  0  0  0  0  0
   15.2322  -16.9495   24.0992 C   0  0  0  0  0  0  0  0  0  0  0  0
   16.3101  -16.5650   24.8780 O   0  0  0  0  0  0  0  0  0  0  0  0
   15.3874  -17.8128   23.2397 O   0  0  0  0  0  0  0  0  0  0  0  0
  2  1  1  1
  3  4  1  0
  3  2  1  0
  4  5  2  0
  6  5  1  0
  7  6  1  0
  8  7  2  0
  9  8  1  0
 10  9  2  0
 10 11  1  0
 11 12  2  0
 12  7  1  0
 12  4  1  0
 13 15  1  0
 13  2  1  0
 14 13  2  0
 16 15  1  0
 17 16  1  0
 17 25  1  0
 18 17  2  0
 19 20  1  0
 20 21  2  0
 22 23  1  0
 22 20  1  0
 24 23  1  1
 24 25  1  0
 24 26  1  0
 26 27  1  0
 28 26  2  0
M  END
$$$$
