GAW.pdb
     RDKit          3D

 24 25  0  0  1  0  0  0  0  0999 V2000
    7.1011  -12.7854   19.5222 N   0  0  0  0  0  0  0  0  0  0  0  0
    8.3072  -13.5887   19.4992 C   0  0  0  0  0  0  0  0  0  0  0  0
    8.3088  -14.5243   20.6483 C   0  0  0  0  0  0  0  0  0  0  0  0
    7.5302  -14.3153   21.5947 O   0  0  0  0  0  0  0  0  0  0  0  0
    9.7663  -17.9637   21.1282 C   0  0  0  0  0  0  0  0  0  0  0  0
    9.0988  -16.7048   21.6234 C   0  0  2  0  0  0  0  0  0  0  0  0
    9.1808  -15.6238   20.6542 N   0  0  0  0  0  0  0  0  0  0  0  0
    9.6816  -16.2127   22.9027 C   0  0  0  0  0  0  0  0  0  0  0  0
   10.5872  -15.3138   22.9111 O   0  0  0  0  0  0  0  0  0  0  0  0
    9.2831  -16.6945   24.1709 N   0  0  0  0  0  0  0  0  0  0  0  0
    9.8970  -16.2360   25.4043 C   0  0  1  0  0  0  0  0  0  0  0  0
    8.7957  -16.2255   26.4454 C   0  0  0  0  0  0  0  0  0  0  0  0
    7.6248  -15.4390   26.0641 C   0  0  0  0  0  0  0  0  0  0  0  0
    6.4515  -15.8754   25.4916 C   0  0  0  0  0  0  0  0  0  0  0  0
    5.6593  -14.8060   25.3200 N   0  0  0  0  0  0  0  0  0  0  0  0
    6.2505  -13.6800   25.7511 C   0  0  0  0  0  0  0  0  0  0  0  0
    5.9001  -12.3495   25.8081 C   0  0  0  0  0  0  0  0  0  0  0  0
    6.7900  -11.4552   26.3290 C   0  0  0  0  0  0  0  0  0  0  0  0
    8.0356  -11.8039   26.8087 C   0  0  0  0  0  0  0  0  0  0  0  0
    8.3706  -13.1411   26.7442 C   0  0  0  0  0  0  0  0  0  0  0  0
    7.4999  -14.0747   26.2254 C   0  0  0  0  0  0  0  0  0  0  0  0
   10.9059  -17.2527   25.8825 C   0  0  0  0  0  0  0  0  0  0  0  0
   11.0381  -18.4916   25.2783 O   0  0  0  0  0  0  0  0  0  0  0  0
   11.6612  -16.9985   26.8527 O   0  0  0  0  0  0  0  0  0  0  0  0
  1  2  1  0
  3  2  1  0
  3  7  1  0
  4  3  2  0
  6  8  1  0
  6  7  1  0
  6  5  1  6
  8 10  1  0
  9  8  2  0
 10 11  1  0
 11 12  1  1
 12 13  1  0
 13 14  2  0
 13 21  1  0
 14 15  1  0
 15 16  1  0
 16 17  2  0
 17 18  1  0
 19 18  2  0
 20 19  1  0
 21 20  2  0
 21 16  1  0
 22 11  1  0
 23 22  1  0
 24 22  2  0
M  END
$$$$
