GAW.pdb
     RDKit          3D

 24 25  0  0  1  0  0  0  0  0999 V2000
    6.4893  -19.8468   21.3407 N   0  0  0  0  0  0  0  0  0  0  0  0
    6.1130  -18.5296   21.8140 C   0  0  0  0  0  0  0  0  0  0  0  0
    7.0922  -17.5258   21.3355 C   0  0  0  0  0  0  0  0  0  0  0  0
    8.1175  -17.9173   20.7512 O   0  0  0  0  0  0  0  0  0  0  0  0
    7.0571  -13.7982   20.8924 C   0  0  0  0  0  0  0  0  0  0  0  0
    7.7650  -15.1116   21.1150 C   0  0  2  0  0  0  0  0  0  0  0  0
    6.8530  -16.1592   21.5457 N   0  0  0  0  0  0  0  0  0  0  0  0
    8.8525  -15.0117   22.1278 C   0  0  0  0  0  0  0  0  0  0  0  0
    9.8573  -14.2476   21.9418 O   0  0  0  0  0  0  0  0  0  0  0  0
    8.8505  -15.7392   23.3402 N   0  0  0  0  0  0  0  0  0  0  0  0
    9.8984  -15.5946   24.3349 C   0  0  1  0  0  0  0  0  0  0  0  0
    9.2541  -15.8949   25.6734 C   0  0  0  0  0  0  0  0  0  0  0  0
    7.9401  -15.2814   25.8516 C   0  0  0  0  0  0  0  0  0  0  0  0
    6.6997  -15.8622   25.7133 C   0  0  0  0  0  0  0  0  0  0  0  0
    5.7782  -14.9226   25.9754 N   0  0  0  0  0  0  0  0  0  0  0  0
    6.3474  -13.7453   26.2811 C   0  0  0  0  0  0  0  0  0  0  0  0
    5.8861  -12.4924   26.6186 C   0  0  0  0  0  0  0  0  0  0  0  0
    6.7913  -11.5020   26.8683 C   0  0  0  0  0  0  0  0  0  0  0  0
    8.1580  -11.6781   26.8035 C   0  0  0  0  0  0  0  0  0  0  0  0
    8.6031  -12.9395   26.4641 C   0  0  0  0  0  0  0  0  0  0  0  0
    7.7211  -13.9659   26.2045 C   0  0  0  0  0  0  0  0  0  0  0  0
   10.9463  -16.6630   24.1333 C   0  0  0  0  0  0  0  0  0  0  0  0
   10.7785  -17.6881   23.2177 O   0  0  0  0  0  0  0  0  0  0  0  0
   12.0108  -16.6500   24.7989 O   0  0  0  0  0  0  0  0  0  0  0  0
  1  2  1  0
  3  2  1  0
  3  7  1  0
  4  3  2  0
  6  8  1  0
  6  7  1  0
  6  5  1  1
  8 10  1  0
  9  8  2  0
 10 11  1  0
 11 12  1  1
 12 13  1  0
 13 14  2  0
 13 21  1  0
 14 15  1  0
 15 16  1  0
 16 17  2  0
 17 18  1  0
 19 18  2  0
 20 19  1  0
 21 20  2  0
 21 16  1  0
 22 11  1  0
 23 22  1  0
 24 22  2  0
M  END
$$$$
