GAW.pdb
     RDKit          3D

 24 25  0  0  1  0  0  0  0  0999 V2000
    6.5787  -20.0572   21.5096 N   0  0  0  0  0  0  0  0  0  0  0  0
    6.2182  -18.7471   22.0139 C   0  0  0  0  0  0  0  0  0  0  0  0
    7.1430  -17.7269   21.4666 C   0  0  0  0  0  0  0  0  0  0  0  0
    8.1956  -18.1009   20.9209 O   0  0  0  0  0  0  0  0  0  0  0  0
    6.9481  -14.0275   20.8188 C   0  0  0  0  0  0  0  0  0  0  0  0
    7.7027  -15.2991   21.1176 C   0  0  2  0  0  0  0  0  0  0  0  0
    6.8228  -16.3646   21.5703 N   0  0  0  0  0  0  0  0  0  0  0  0
    8.7566  -15.1098   22.1529 C   0  0  0  0  0  0  0  0  0  0  0  0
    9.7116  -14.2821   21.9769 O   0  0  0  0  0  0  0  0  0  0  0  0
    8.7750  -15.8170   23.3771 N   0  0  0  0  0  0  0  0  0  0  0  0
    9.8265  -15.6377   24.3623 C   0  0  1  0  0  0  0  0  0  0  0  0
    9.1745  -15.8347   25.7162 C   0  0  0  0  0  0  0  0  0  0  0  0
    7.8682  -15.1931   25.8457 C   0  0  0  0  0  0  0  0  0  0  0  0
    6.6206  -15.7634   25.7311 C   0  0  0  0  0  0  0  0  0  0  0  0
    5.7109  -14.7969   25.9286 N   0  0  0  0  0  0  0  0  0  0  0  0
    6.2947  -13.6117   26.1689 C   0  0  0  0  0  0  0  0  0  0  0  0
    5.8492  -12.3345   26.4270 C   0  0  0  0  0  0  0  0  0  0  0  0
    6.7668  -11.3439   26.6256 C   0  0  0  0  0  0  0  0  0  0  0  0
    8.1313  -11.5429   26.5836 C   0  0  0  0  0  0  0  0  0  0  0  0
    8.5605  -12.8285   26.3239 C   0  0  0  0  0  0  0  0  0  0  0  0
    7.6657  -13.8560   26.1179 C   0  0  0  0  0  0  0  0  0  0  0  0
   10.8450  -16.7448   24.2309 C   0  0  0  0  0  0  0  0  0  0  0  0
   12.0299  -16.7370   24.9475 O   0  0  0  0  0  0  0  0  0  0  0  0
   10.6421  -17.7138   23.4589 O   0  0  0  0  0  0  0  0  0  0  0  0
  1  2  1  0
  3  2  1  0
  3  7  1  0
  4  3  2  0
  6  8  1  0
  6  7  1  0
  6  5  1  1
  8 10  1  0
  9  8  2  0
 10 11  1  0
 11 12  1  1
 12 13  1  0
 13 14  2  0
 13 21  1  0
 14 15  1  0
 15 16  1  0
 16 17  2  0
 17 18  1  0
 19 18  2  0
 20 19  1  0
 21 20  2  0
 21 16  1  0
 22 11  1  0
 23 22  1  0
 24 22  2  0
M  END
$$$$
