GAW.pdb
     RDKit          3D

 24 25  0  0  1  0  0  0  0  0999 V2000
    7.4643  -12.2822   18.7605 N   0  0  0  0  0  0  0  0  0  0  0  0
    8.5154  -13.2587   18.9655 C   0  0  0  0  0  0  0  0  0  0  0  0
    8.1333  -14.1857   20.0564 C   0  0  0  0  0  0  0  0  0  0  0  0
    7.3145  -13.8038   20.9105 O   0  0  0  0  0  0  0  0  0  0  0  0
    8.7134  -17.8332   20.7902 C   0  0  0  0  0  0  0  0  0  0  0  0
    8.4486  -16.4053   21.1983 C   0  0  2  0  0  0  0  0  0  0  0  0
    8.6949  -15.4705   20.1119 N   0  0  0  0  0  0  0  0  0  0  0  0
    9.2765  -15.9789   22.3606 C   0  0  0  0  0  0  0  0  0  0  0  0
   10.2785  -15.2040   22.2065 O   0  0  0  0  0  0  0  0  0  0  0  0
    9.0184  -16.3919   23.6880 N   0  0  0  0  0  0  0  0  0  0  0  0
    9.8645  -16.0017   24.8017 C   0  0  1  0  0  0  0  0  0  0  0  0
    8.9958  -16.0839   26.0408 C   0  0  0  0  0  0  0  0  0  0  0  0
    7.7664  -15.2986   25.9579 C   0  0  0  0  0  0  0  0  0  0  0  0
    6.4902  -15.7351   25.6828 C   0  0  0  0  0  0  0  0  0  0  0  0
    5.6785  -14.6670   25.7137 N   0  0  0  0  0  0  0  0  0  0  0  0
    6.3548  -13.5417   25.9960 C   0  0  0  0  0  0  0  0  0  0  0  0
    6.0266  -12.2125   26.1437 C   0  0  0  0  0  0  0  0  0  0  0  0
    7.0147  -11.3186   26.4398 C   0  0  0  0  0  0  0  0  0  0  0  0
    8.3397  -11.6664   26.6028 C   0  0  0  0  0  0  0  0  0  0  0  0
    8.6511  -13.0023   26.4515 C   0  0  0  0  0  0  0  0  0  0  0  0
    7.6822  -13.9355   26.1526 C   0  0  0  0  0  0  0  0  0  0  0  0
   10.9578  -17.0249   24.9968 C   0  0  0  0  0  0  0  0  0  0  0  0
   12.1056  -16.7400   25.7170 O   0  0  0  0  0  0  0  0  0  0  0  0
   10.8538  -18.1754   24.5050 O   0  0  0  0  0  0  0  0  0  0  0  0
  1  2  1  0
  3  2  1  0
  3  7  1  0
  4  3  2  0
  6  8  1  0
  6  7  1  0
  6  5  1  6
  8 10  1  0
  9  8  2  0
 10 11  1  0
 11 12  1  1
 12 13  1  0
 13 14  2  0
 13 21  1  0
 14 15  1  0
 15 16  1  0
 16 17  2  0
 17 18  1  0
 19 18  2  0
 20 19  1  0
 21 20  2  0
 21 16  1  0
 22 11  1  0
 23 22  1  0
 24 22  2  0
M  END
$$$$
