GAW.pdb
     RDKit          3D

 24 25  0  0  1  0  0  0  0  0999 V2000
    6.7943  -19.8192   20.5791 N   0  0  0  0  0  0  0  0  0  0  0  0
    6.5223  -18.6757   21.4270 C   0  0  0  0  0  0  0  0  0  0  0  0
    7.4691  -17.5805   21.1112 C   0  0  0  0  0  0  0  0  0  0  0  0
    8.5913  -17.8676   20.6598 O   0  0  0  0  0  0  0  0  0  0  0  0
    7.1928  -13.8336   20.8618 C   0  0  0  0  0  0  0  0  0  0  0  0
    7.9652  -15.1146   21.0570 C   0  0  2  0  0  0  0  0  0  0  0  0
    7.0913  -16.2458   21.3239 N   0  0  0  0  0  0  0  0  0  0  0  0
    8.9476  -15.0266   22.1729 C   0  0  0  0  0  0  0  0  0  0  0  0
    9.8982  -14.1758   22.1479 O   0  0  0  0  0  0  0  0  0  0  0  0
    8.8995  -15.8599   23.3142 N   0  0  0  0  0  0  0  0  0  0  0  0
    9.8481  -15.7369   24.4067 C   0  0  1  0  0  0  0  0  0  0  0  0
    9.0777  -16.0551   25.6725 C   0  0  0  0  0  0  0  0  0  0  0  0
    7.7878  -15.3757   25.7698 C   0  0  0  0  0  0  0  0  0  0  0  0
    6.5285  -15.9034   25.5953 C   0  0  0  0  0  0  0  0  0  0  0  0
    5.6421  -14.9136   25.7832 N   0  0  0  0  0  0  0  0  0  0  0  0
    6.2527  -13.7535   26.0740 C   0  0  0  0  0  0  0  0  0  0  0  0
    5.8373  -12.4693   26.3472 C   0  0  0  0  0  0  0  0  0  0  0  0
    6.7768  -11.5131   26.6037 C   0  0  0  0  0  0  0  0  0  0  0  0
    8.1352  -11.7541   26.6070 C   0  0  0  0  0  0  0  0  0  0  0  0
    8.5342  -13.0462   26.3314 C   0  0  0  0  0  0  0  0  0  0  0  0
    7.6165  -14.0397   26.0673 C   0  0  0  0  0  0  0  0  0  0  0  0
   10.9063  -16.8077   24.2886 C   0  0  0  0  0  0  0  0  0  0  0  0
   10.8140  -17.8270   23.3559 O   0  0  0  0  0  0  0  0  0  0  0  0
   11.9103  -16.8022   25.0423 O   0  0  0  0  0  0  0  0  0  0  0  0
  1  2  1  0
  3  2  1  0
  3  7  1  0
  4  3  2  0
  6  8  1  0
  6  7  1  0
  6  5  1  1
  8 10  1  0
  9  8  2  0
 10 11  1  0
 11 12  1  1
 12 13  1  0
 13 14  2  0
 13 21  1  0
 14 15  1  0
 15 16  1  0
 16 17  2  0
 17 18  1  0
 19 18  2  0
 20 19  1  0
 21 20  2  0
 21 16  1  0
 22 11  1  0
 23 22  1  0
 24 22  2  0
M  END
$$$$
