RKL.pdb
     RDKit          3D

 29 28  0  0  1  0  0  0  0  0999 V2000
    9.6175  -13.9417   18.1431 N   0  0  0  0  0  0  0  0  0  0  0  0
    8.9197  -12.7907   18.6710 C   0  0  0  0  0  0  0  0  0  0  0  0
    9.5188  -11.6516   18.7437 N   0  0  0  0  0  0  0  0  0  0  0  0
    7.5821  -12.8965   19.1105 N   0  0  0  0  0  0  0  0  0  0  0  0
    7.0487  -14.1531   19.6697 C   0  0  0  0  0  0  0  0  0  0  0  0
    7.5457  -14.3549   21.0738 C   0  0  0  0  0  0  0  0  0  0  0  0
    7.0652  -15.5976   21.6787 C   0  0  0  0  0  0  0  0  0  0  0  0
    7.7112  -16.8894   21.3482 C   0  0  2  0  0  0  0  0  0  0  0  0
    6.9588  -17.9366   20.8242 N   0  0  0  0  0  0  0  0  0  0  0  0
    8.5599  -17.3086   22.4713 C   0  0  0  0  0  0  0  0  0  0  0  0
    8.0197  -17.8433   23.4681 O   0  0  0  0  0  0  0  0  0  0  0  0
    9.0698  -10.8183   19.1513 N   0  0  0  0  0  0  0  0  0  0  0  0
    9.9511  -17.1229   22.4507 C   0  0  2  0  0  0  0  0  0  0  0  0
   10.7893  -17.5921   23.5466 C   0  0  0  0  0  0  0  0  0  0  0  0
   12.1621  -17.8424   23.0103 C   0  0  0  0  0  0  0  0  0  0  0  0
   12.2241  -18.9345   21.9713 C   0  0  0  0  0  0  0  0  0  0  0  0
   13.6935  -19.0130   21.5312 C   0  0  0  0  0  0  0  0  0  0  0  0
   13.7816  -20.1315   20.4962 N   0  0  0  0  0  0  0  0  0  0  0  0
   15.1805  -20.1622   20.0603 C   0  0  0  0  0  0  0  0  0  0  0  0
   10.7667  -16.6050   24.6514 O   0  0  0  0  0  0  0  0  0  0  0  0
   10.7848  -15.3678   24.4479 C   0  0  0  0  0  0  0  0  0  0  0  0
    9.5748  -13.3356   28.0174 C   0  0  2  0  0  0  0  0  0  0  0  0
    8.5961  -14.5274   27.9017 C   0  0  0  0  0  0  0  0  0  0  0  0
    7.2512  -13.9368   27.6622 C   0  0  0  0  0  0  0  0  0  0  0  0
    9.1557  -15.3929   26.8425 C   0  0  1  0  0  0  0  0  0  0  0  0
   10.4114  -16.1291   27.1180 N   0  0  0  0  0  0  0  0  0  0  0  0
   10.7223  -17.0189   26.0263 C   0  0  0  0  0  0  0  0  0  0  0  0
   10.4826  -16.7527   28.4359 O   0  0  0  0  0  0  0  0  0  0  0  0
   11.1835  -16.2619   29.3479 O   0  0  0  0  0  0  0  0  0  0  0  0
  2  3  2  0
  2  1  1  0
  4  2  1  0
  5  4  1  0
  6  7  1  0
  6  5  1  0
  8 10  1  0
  8  7  1  0
  8  9  1  1
 10 12  1  0
 11 10  2  0
 12 13  1  0
 13 19  1  0
 13 14  1  6
 15 14  1  0
 16 17  1  0
 16 15  1  0
 18 17  1  0
 19 20  2  0
 19 26  1  0
 22 21  1  1
 22 23  1  0
 24 22  1  0
 25 27  1  0
 25 24  1  6
 26 25  1  0
 27 29  1  0
 28 27  2  0
M  END
$$$$
