RKL.pdb
     RDKit          3D

 29 28  0  0  1  0  0  0  0  0999 V2000
    9.6400  -20.1922   16.8323 N   0  0  0  0  0  0  0  0  0  0  0  0
    8.2344  -19.8804   16.9649 C   0  0  0  0  0  0  0  0  0  0  0  0
    7.5570  -19.5083   15.9331 N   0  0  0  0  0  0  0  0  0  0  0  0
    7.5882  -19.9787   18.2164 N   0  0  0  0  0  0  0  0  0  0  0  0
    8.2519  -19.5578   19.4649 C   0  0  0  0  0  0  0  0  0  0  0  0
    9.2826  -20.5707   19.8781 C   0  0  0  0  0  0  0  0  0  0  0  0
   10.0534  -20.1581   21.0515 C   0  0  0  0  0  0  0  0  0  0  0  0
    9.4166  -19.3527   22.1197 C   0  0  2  0  0  0  0  0  0  0  0  0
    8.0683  -19.5249   22.4194 N   0  0  0  0  0  0  0  0  0  0  0  0
    9.7821  -17.9408   21.9457 C   0  0  0  0  0  0  0  0  0  0  0  0
   10.9839  -17.6502   21.7400 O   0  0  0  0  0  0  0  0  0  0  0  0
    6.5571  -19.2651   15.9894 N   0  0  0  0  0  0  0  0  0  0  0  0
    8.8206  -16.9199   22.0060 C   0  0  1  0  0  0  0  0  0  0  0  0
    9.1902  -15.5250   21.8022 C   0  0  0  0  0  0  0  0  0  0  0  0
    8.2082  -14.9155   20.8540 C   0  0  0  0  0  0  0  0  0  0  0  0
    8.8423  -14.2685   19.6476 C   0  0  0  0  0  0  0  0  0  0  0  0
    7.6789  -13.8300   18.7457 C   0  0  0  0  0  0  0  0  0  0  0  0
    8.3013  -13.2641   17.4720 N   0  0  0  0  0  0  0  0  0  0  0  0
    7.1794  -12.9720   16.5756 C   0  0  0  0  0  0  0  0  0  0  0  0
    9.2488  -14.8274   23.1081 O   0  0  0  0  0  0  0  0  0  0  0  0
    9.8810  -13.7567   23.2705 C   0  0  0  0  0  0  0  0  0  0  0  0
    8.2921  -11.8499   26.7630 C   0  0  2  0  0  0  0  0  0  0  0  0
    7.2030  -12.9454   26.8368 C   0  0  0  0  0  0  0  0  0  0  0  0
    5.9071  -12.2306   26.9944 C   0  0  0  0  0  0  0  0  0  0  0  0
    7.3843  -13.7612   25.6180 C   0  0  1  0  0  0  0  0  0  0  0  0
    8.5491  -14.6734   25.5419 N   0  0  0  0  0  0  0  0  0  0  0  0
    8.5776  -15.3472   24.2670 C   0  0  0  0  0  0  0  0  0  0  0  0
    8.7121  -15.5601   26.6900 O   0  0  0  0  0  0  0  0  0  0  0  0
    8.3911  -16.7671   26.6272 O   0  0  0  0  0  0  0  0  0  0  0  0
  2  3  2  0
  2  1  1  0
  4  2  1  0
  5  4  1  0
  6  7  1  0
  6  5  1  0
  8 10  1  0
  8  7  1  0
  8  9  1  6
 10 12  1  0
 11 10  2  0
 12 13  1  0
 13 19  1  0
 13 14  1  6
 15 14  1  0
 16 17  1  0
 16 15  1  0
 18 17  1  0
 19 20  2  0
 19 26  1  0
 22 21  1  1
 22 23  1  0
 24 22  1  0
 25 27  1  0
 25 24  1  6
 26 25  1  0
 27 29  1  0
 28 27  2  0
M  END
$$$$
