RKL.pdb
     RDKit          3D

 29 28  0  0  1  0  0  0  0  0999 V2000
    7.4815  -12.6685   15.2046 N   0  0  0  0  0  0  0  0  0  0  0  0
    8.5128  -13.6818   15.1908 C   0  0  0  0  0  0  0  0  0  0  0  0
    8.8715  -14.2206   14.0761 N   0  0  0  0  0  0  0  0  0  0  0  0
    9.1375  -14.0921   16.3887 N   0  0  0  0  0  0  0  0  0  0  0  0
    8.5812  -15.1773   17.2189 C   0  0  0  0  0  0  0  0  0  0  0  0
    7.2778  -14.7512   17.8343 C   0  0  0  0  0  0  0  0  0  0  0  0
    7.1518  -15.1431   19.2385 C   0  0  0  0  0  0  0  0  0  0  0  0
    8.2032  -15.9640   19.8835 C   0  0  2  0  0  0  0  0  0  0  0  0
    8.6513  -17.1338   19.2766 N   0  0  0  0  0  0  0  0  0  0  0  0
    7.8688  -16.1540   21.3010 C   0  0  0  0  0  0  0  0  0  0  0  0
    7.2781  -15.2311   21.9099 O   0  0  0  0  0  0  0  0  0  0  0  0
    9.6527  -14.8900   14.0144 N   0  0  0  0  0  0  0  0  0  0  0  0
    8.1957  -17.3376   21.9812 C   0  0  1  0  0  0  0  0  0  0  0  0
    7.9952  -17.4589   23.4195 C   0  0  0  0  0  0  0  0  0  0  0  0
    8.2234  -18.8855   23.8040 C   0  0  0  0  0  0  0  0  0  0  0  0
    6.9670  -19.6222   24.1975 C   0  0  0  0  0  0  0  0  0  0  0  0
    7.3828  -21.0879   24.3922 C   0  0  0  0  0  0  0  0  0  0  0  0
    6.1092  -21.8656   24.7131 N   0  0  0  0  0  0  0  0  0  0  0  0
    6.5040  -23.2762   24.7589 C   0  0  0  0  0  0  0  0  0  0  0  0
    8.8883  -16.5142   24.1303 O   0  0  0  0  0  0  0  0  0  0  0  0
    9.7276  -15.8017   23.5300 C   0  0  0  0  0  0  0  0  0  0  0  0
    6.8734  -12.0086   25.3333 C   0  0  2  0  0  0  0  0  0  0  0  0
    7.8978  -12.7654   26.2106 C   0  0  0  0  0  0  0  0  0  0  0  0
    7.4177  -12.6350   27.6132 C   0  0  0  0  0  0  0  0  0  0  0  0
    7.9703  -14.1275   25.6418 C   0  0  1  0  0  0  0  0  0  0  0  0
    8.9282  -15.0919   26.2309 N   0  0  0  0  0  0  0  0  0  0  0  0
    8.8381  -16.3646   25.5581 C   0  0  0  0  0  0  0  0  0  0  0  0
    8.8932  -15.1822   27.6874 O   0  0  0  0  0  0  0  0  0  0  0  0
    9.5568  -14.3987   28.4012 O   0  0  0  0  0  0  0  0  0  0  0  0
  2  3  2  0
  2  1  1  0
  4  2  1  0
  5  4  1  0
  6  7  1  0
  6  5  1  0
  8 10  1  0
  8  7  1  0
  8  9  1  6
 10 12  1  0
 11 10  2  0
 12 13  1  0
 13 19  1  0
 13 14  1  6
 15 14  1  0
 16 17  1  0
 16 15  1  0
 18 17  1  0
 19 20  2  0
 19 26  1  0
 22 21  1  1
 22 23  1  0
 24 22  1  0
 25 27  1  0
 25 24  1  6
 26 25  1  0
 27 29  1  0
 28 27  2  0
M  END
$$$$
