RKL.pdb
     RDKit          3D

 29 28  0  0  1  0  0  0  0  0999 V2000
    9.9559  -14.8133   18.9909 N   0  0  0  0  0  0  0  0  0  0  0  0
    9.8495  -13.4438   18.5396 C   0  0  0  0  0  0  0  0  0  0  0  0
   10.9157  -12.7550   18.3147 N   0  0  0  0  0  0  0  0  0  0  0  0
    8.5862  -12.8459   18.3396 N   0  0  0  0  0  0  0  0  0  0  0  0
    7.5218  -12.9273   19.3578 C   0  0  0  0  0  0  0  0  0  0  0  0
    6.9991  -14.3330   19.4586 C   0  0  0  0  0  0  0  0  0  0  0  0
    7.1587  -14.9093   20.7941 C   0  0  0  0  0  0  0  0  0  0  0  0
    6.7955  -16.3233   21.0472 C   0  0  2  0  0  0  0  0  0  0  0  0
    5.6499  -16.8672   20.4736 N   0  0  0  0  0  0  0  0  0  0  0  0
    6.8936  -16.5991   22.4865 C   0  0  0  0  0  0  0  0  0  0  0  0
    5.8993  -16.3674   23.2137 O   0  0  0  0  0  0  0  0  0  0  0  0
   10.8842  -11.8086   17.9079 N   0  0  0  0  0  0  0  0  0  0  0  0
    8.0688  -17.1114   23.0583 C   0  0  2  0  0  0  0  0  0  0  0  0
    8.1461  -17.4053   24.4836 C   0  0  0  0  0  0  0  0  0  0  0  0
    9.1068  -18.5345   24.6761 C   0  0  0  0  0  0  0  0  0  0  0  0
    8.5781  -19.8725   24.2219 C   0  0  0  0  0  0  0  0  0  0  0  0
    9.7462  -20.8585   24.3712 C   0  0  0  0  0  0  0  0  0  0  0  0
    9.2594  -22.1996   23.8286 N   0  0  0  0  0  0  0  0  0  0  0  0
   10.3661  -23.1383   24.0336 C   0  0  0  0  0  0  0  0  0  0  0  0
    8.5292  -16.1817   25.2263 O   0  0  0  0  0  0  0  0  0  0  0  0
    8.4067  -15.0331   24.7384 C   0  0  0  0  0  0  0  0  0  0  0  0
    6.0437  -12.9152   27.0410 C   0  0  1  0  0  0  0  0  0  0  0  0
    7.4194  -13.4474   26.5763 C   0  0  0  0  0  0  0  0  0  0  0  0
    8.3058  -12.2574   26.4602 C   0  0  0  0  0  0  0  0  0  0  0  0
    7.7949  -14.4795   27.5652 C   0  0  2  0  0  0  0  0  0  0  0  0
    9.1261  -15.1195   27.4517 N   0  0  0  0  0  0  0  0  0  0  0  0
    9.0661  -16.2493   26.5571 C   0  0  0  0  0  0  0  0  0  0  0  0
    9.7848  -15.3993   28.7240 O   0  0  0  0  0  0  0  0  0  0  0  0
    9.8400  -16.5611   29.1833 O   0  0  0  0  0  0  0  0  0  0  0  0
  2  3  2  0
  2  1  1  0
  4  2  1  0
  5  4  1  0
  6  7  1  0
  6  5  1  0
  8 10  1  0
  8  7  1  0
  8  9  1  1
 10 12  1  0
 11 10  2  0
 12 13  1  0
 13 19  1  0
 13 14  1  6
 15 14  1  0
 16 17  1  0
 16 15  1  0
 18 17  1  0
 19 20  2  0
 19 26  1  0
 22 21  1  6
 22 23  1  0
 24 22  1  0
 25 27  1  0
 25 24  1  6
 26 25  1  0
 27 29  1  0
 28 27  2  0
M  END
$$$$
