RKL.pdb
     RDKit          3D

 29 28  0  0  1  0  0  0  0  0999 V2000
    8.6102  -13.8759   17.4298 N   0  0  0  0  0  0  0  0  0  0  0  0
    8.7905  -12.9665   18.5394 C   0  0  0  0  0  0  0  0  0  0  0  0
    8.6610  -11.6967   18.3591 N   0  0  0  0  0  0  0  0  0  0  0  0
    9.1080  -13.4524   19.8265 N   0  0  0  0  0  0  0  0  0  0  0  0
    8.4657  -14.6608   20.3774 C   0  0  0  0  0  0  0  0  0  0  0  0
    7.1215  -14.3218   20.9581 C   0  0  0  0  0  0  0  0  0  0  0  0
    6.4670  -15.4657   21.5941 C   0  0  0  0  0  0  0  0  0  0  0  0
    7.1114  -16.7997   21.5795 C   0  0  2  0  0  0  0  0  0  0  0  0
    6.4915  -17.8717   20.9439 N   0  0  0  0  0  0  0  0  0  0  0  0
    7.5680  -17.1326   22.9353 C   0  0  0  0  0  0  0  0  0  0  0  0
    6.7115  -17.3095   23.8332 O   0  0  0  0  0  0  0  0  0  0  0  0
    8.8541  -11.0121   19.1050 N   0  0  0  0  0  0  0  0  0  0  0  0
    8.9323  -17.2542   23.2422 C   0  0  2  0  0  0  0  0  0  0  0  0
    9.3769  -17.5094   24.6064 C   0  0  0  0  0  0  0  0  0  0  0  0
   10.5384  -18.4490   24.5508 C   0  0  0  0  0  0  0  0  0  0  0  0
   11.0570  -18.8626   25.9058 C   0  0  0  0  0  0  0  0  0  0  0  0
   12.2433  -19.7995   25.6338 C   0  0  0  0  0  0  0  0  0  0  0  0
   12.7787  -20.2348   26.9953 N   0  0  0  0  0  0  0  0  0  0  0  0
   13.9202  -21.1098   26.7138 C   0  0  0  0  0  0  0  0  0  0  0  0
    9.6968  -16.2271   25.2762 O   0  0  0  0  0  0  0  0  0  0  0  0
   10.5991  -15.4601   24.8639 C   0  0  0  0  0  0  0  0  0  0  0  0
    6.1686  -12.6558   26.7452 C   0  0  1  0  0  0  0  0  0  0  0  0
    7.4326  -13.3624   26.2021 C   0  0  0  0  0  0  0  0  0  0  0  0
    8.0506  -12.4175   25.2325 C   0  0  0  0  0  0  0  0  0  0  0  0
    8.2240  -13.7230   27.3970 C   0  0  2  0  0  0  0  0  0  0  0  0
    9.3680  -14.6505   27.2366 N   0  0  0  0  0  0  0  0  0  0  0  0
    8.9823  -15.7922   26.4441 C   0  0  0  0  0  0  0  0  0  0  0  0
   10.0633  -14.9898   28.4744 O   0  0  0  0  0  0  0  0  0  0  0  0
   10.5492  -14.1020   29.2090 O   0  0  0  0  0  0  0  0  0  0  0  0
  2  3  2  0
  2  1  1  0
  4  2  1  0
  5  4  1  0
  6  7  1  0
  6  5  1  0
  8 10  1  0
  8  7  1  0
  8  9  1  1
 10 12  1  0
 11 10  2  0
 12 13  1  0
 13 19  1  0
 13 14  1  6
 15 14  1  0
 16 17  1  0
 16 15  1  0
 18 17  1  0
 19 20  2  0
 19 26  1  0
 22 21  1  6
 22 23  1  0
 24 22  1  0
 25 27  1  0
 25 24  1  6
 26 25  1  0
 27 29  1  0
 28 27  2  0
M  END
$$$$
