RKL.pdb
     RDKit          3D

 29 28  0  0  1  0  0  0  0  0999 V2000
    8.1964  -12.7259   16.5791 N   0  0  0  0  0  0  0  0  0  0  0  0
    7.6550  -13.6640   15.6212 C   0  0  0  0  0  0  0  0  0  0  0  0
    7.5222  -13.3192   14.3862 N   0  0  0  0  0  0  0  0  0  0  0  0
    7.2676  -14.9614   16.0213 N   0  0  0  0  0  0  0  0  0  0  0  0
    7.3530  -15.3947   17.4289 C   0  0  0  0  0  0  0  0  0  0  0  0
    7.5991  -14.2147   18.3268 C   0  0  0  0  0  0  0  0  0  0  0  0
    7.6559  -14.5749   19.7439 C   0  0  0  0  0  0  0  0  0  0  0  0
    8.9231  -15.0534   20.3442 C   0  0  2  0  0  0  0  0  0  0  0  0
    9.7286  -15.9564   19.6563 N   0  0  0  0  0  0  0  0  0  0  0  0
    8.6786  -15.4582   21.7348 C   0  0  0  0  0  0  0  0  0  0  0  0
    7.7952  -14.8579   22.3908 O   0  0  0  0  0  0  0  0  0  0  0  0
    7.1884  -13.9747   13.6644 N   0  0  0  0  0  0  0  0  0  0  0  0
    9.4092  -16.4939   22.3381 C   0  0  1  0  0  0  0  0  0  0  0  0
    9.0567  -16.9915   23.6617 C   0  0  0  0  0  0  0  0  0  0  0  0
    9.6700  -18.3444   23.8305 C   0  0  0  0  0  0  0  0  0  0  0  0
    8.9284  -19.4466   23.1155 C   0  0  0  0  0  0  0  0  0  0  0  0
    9.7609  -20.7197   23.3277 C   0  0  0  0  0  0  0  0  0  0  0  0
    9.0805  -21.8266   22.5266 N   0  0  0  0  0  0  0  0  0  0  0  0
    9.9081  -23.0214   22.7146 C   0  0  0  0  0  0  0  0  0  0  0  0
    9.4932  -16.0214   24.6931 O   0  0  0  0  0  0  0  0  0  0  0  0
   10.5996  -15.4338   24.6379 C   0  0  0  0  0  0  0  0  0  0  0  0
    5.8470  -12.7675   27.0498 C   0  0  2  0  0  0  0  0  0  0  0  0
    7.0692  -13.3290   26.2865 C   0  0  0  0  0  0  0  0  0  0  0  0
    7.6602  -12.1795   25.5487 C   0  0  0  0  0  0  0  0  0  0  0  0
    7.9084  -13.9795   27.3145 C   0  0  2  0  0  0  0  0  0  0  0  0
    9.0607  -14.8000   26.8744 N   0  0  0  0  0  0  0  0  0  0  0  0
    8.6628  -15.7011   25.8207 C   0  0  0  0  0  0  0  0  0  0  0  0
    9.8108  -15.4361   27.9530 O   0  0  0  0  0  0  0  0  0  0  0  0
   10.3584  -14.7573   28.8493 O   0  0  0  0  0  0  0  0  0  0  0  0
  2  3  2  0
  2  1  1  0
  4  2  1  0
  5  4  1  0
  6  7  1  0
  6  5  1  0
  8 10  1  0
  8  7  1  0
  8  9  1  6
 10 12  1  0
 11 10  2  0
 12 13  1  0
 13 19  1  0
 13 14  1  1
 15 14  1  0
 16 17  1  0
 16 15  1  0
 18 17  1  0
 19 20  2  0
 19 26  1  0
 22 21  1  6
 22 23  1  0
 24 22  1  0
 25 27  1  0
 25 24  1  6
 26 25  1  0
 27 29  1  0
 28 27  2  0
M  END
$$$$
