RKL.pdb
     RDKit          3D

 29 28  0  0  1  0  0  0  0  0999 V2000
   15.3996  -18.3581   21.6599 N   0  0  0  0  0  0  0  0  0  0  0  0
   15.2010  -18.5738   20.2440 C   0  0  0  0  0  0  0  0  0  0  0  0
   16.1566  -19.0563   19.5258 N   0  0  0  0  0  0  0  0  0  0  0  0
   13.9672  -18.2622   19.6325 N   0  0  0  0  0  0  0  0  0  0  0  0
   12.8228  -17.7554   20.4135 C   0  0  0  0  0  0  0  0  0  0  0  0
   11.6050  -17.6342   19.5408 C   0  0  0  0  0  0  0  0  0  0  0  0
   10.4568  -17.0525   20.2369 C   0  0  0  0  0  0  0  0  0  0  0  0
    9.1397  -17.7303   20.2038 C   0  0  2  0  0  0  0  0  0  0  0  0
    8.3209  -17.6188   19.0838 N   0  0  0  0  0  0  0  0  0  0  0  0
    8.4238  -17.4607   21.4577 C   0  0  0  0  0  0  0  0  0  0  0  0
    7.6185  -16.5009   21.4975 O   0  0  0  0  0  0  0  0  0  0  0  0
   16.0369  -19.2761   18.5260 N   0  0  0  0  0  0  0  0  0  0  0  0
    8.6230  -18.2489   22.6020 C   0  0  2  0  0  0  0  0  0  0  0  0
    7.8354  -18.0352   23.8094 C   0  0  0  0  0  0  0  0  0  0  0  0
    7.9477  -19.2578   24.6625 C   0  0  0  0  0  0  0  0  0  0  0  0
    7.3164  -19.1138   26.0251 C   0  0  0  0  0  0  0  0  0  0  0  0
    7.6077  -20.4283   26.7643 C   0  0  0  0  0  0  0  0  0  0  0  0
    6.9385  -20.3194   28.1319 N   0  0  0  0  0  0  0  0  0  0  0  0
    7.2285  -21.5807   28.8194 C   0  0  0  0  0  0  0  0  0  0  0  0
    8.2935  -16.8035   24.4937 O   0  0  0  0  0  0  0  0  0  0  0  0
    9.5061  -16.4979   24.5875 C   0  0  0  0  0  0  0  0  0  0  0  0
    7.5907  -11.6034   25.7516 C   0  0  2  0  0  0  0  0  0  0  0  0
    6.7834  -12.5200   26.7001 C   0  0  0  0  0  0  0  0  0  0  0  0
    5.5613  -11.7566   27.0726 C   0  0  0  0  0  0  0  0  0  0  0  0
    6.5942  -13.7835   25.9572 C   0  0  1  0  0  0  0  0  0  0  0  0
    7.7583  -14.6822   25.7784 N   0  0  0  0  0  0  0  0  0  0  0  0
    7.3626  -15.8867   25.0908 C   0  0  0  0  0  0  0  0  0  0  0  0
    8.5473  -14.9144   26.9844 O   0  0  0  0  0  0  0  0  0  0  0  0
    9.4877  -14.1528   27.3000 O   0  0  0  0  0  0  0  0  0  0  0  0
  2  3  2  0
  2  1  1  0
  4  2  1  0
  5  4  1  0
  6  7  1  0
  6  5  1  0
  8 10  1  0
  8  7  1  0
  8  9  1  6
 10 12  1  0
 11 10  2  0
 12 13  1  0
 13 19  1  0
 13 14  1  6
 15 14  1  0
 16 17  1  0
 16 15  1  0
 18 17  1  0
 19 20  2  0
 19 26  1  0
 22 21  1  1
 22 23  1  0
 24 22  1  0
 25 27  1  0
 25 24  1  6
 26 25  1  0
 27 29  1  0
 28 27  2  0
M  END
$$$$
