RKL.pdb
     RDKit          3D

 29 28  0  0  1  0  0  0  0  0999 V2000
    7.9166  -13.7348   14.9310 N   0  0  0  0  0  0  0  0  0  0  0  0
    8.6439  -14.7069   15.7162 C   0  0  0  0  0  0  0  0  0  0  0  0
    9.0730  -15.7899   15.1641 N   0  0  0  0  0  0  0  0  0  0  0  0
    8.8932  -14.4857   17.0882 N   0  0  0  0  0  0  0  0  0  0  0  0
    8.3324  -13.3206   17.7984 C   0  0  0  0  0  0  0  0  0  0  0  0
    7.0267  -13.6820   18.4494 C   0  0  0  0  0  0  0  0  0  0  0  0
    7.1772  -14.0949   19.8451 C   0  0  0  0  0  0  0  0  0  0  0  0
    8.3042  -14.9674   20.2500 C   0  0  2  0  0  0  0  0  0  0  0  0
    8.7487  -15.9783   19.4027 N   0  0  0  0  0  0  0  0  0  0  0  0
    8.0849  -15.4364   21.6245 C   0  0  0  0  0  0  0  0  0  0  0  0
    7.2789  -14.8115   22.3532 O   0  0  0  0  0  0  0  0  0  0  0  0
    9.5686  -16.5202   15.6963 N   0  0  0  0  0  0  0  0  0  0  0  0
    8.7552  -16.5598   22.1335 C   0  0  2  0  0  0  0  0  0  0  0  0
    8.4845  -17.0524   23.4781 C   0  0  0  0  0  0  0  0  0  0  0  0
    9.0097  -18.4485   23.5784 C   0  0  0  0  0  0  0  0  0  0  0  0
    8.3834  -19.4103   22.5994 C   0  0  0  0  0  0  0  0  0  0  0  0
    7.3816  -20.2442   23.4118 C   0  0  0  0  0  0  0  0  0  0  0  0
    6.6338  -21.1247   22.4140 N   0  0  0  0  0  0  0  0  0  0  0  0
    5.6657  -21.8898   23.2046 C   0  0  0  0  0  0  0  0  0  0  0  0
    9.0794  -16.1333   24.4765 O   0  0  0  0  0  0  0  0  0  0  0  0
   10.3024  -15.8566   24.4908 C   0  0  0  0  0  0  0  0  0  0  0  0
    5.8721  -12.2660   26.8611 C   0  0  2  0  0  0  0  0  0  0  0  0
    6.9406  -13.0132   26.0292 C   0  0  0  0  0  0  0  0  0  0  0  0
    7.6003  -11.9829   25.1817 C   0  0  0  0  0  0  0  0  0  0  0  0
    7.7824  -13.7203   27.0169 C   0  0  2  0  0  0  0  0  0  0  0  0
    8.8179  -14.6581   26.5240 N   0  0  0  0  0  0  0  0  0  0  0  0
    8.2774  -15.5056   25.4896 C   0  0  0  0  0  0  0  0  0  0  0  0
    9.5435  -15.3770   27.5669 O   0  0  0  0  0  0  0  0  0  0  0  0
    9.4706  -16.6214   27.6667 O   0  0  0  0  0  0  0  0  0  0  0  0
  2  3  2  0
  2  1  1  0
  4  2  1  0
  5  4  1  0
  6  7  1  0
  6  5  1  0
  8 10  1  0
  8  7  1  0
  8  9  1  6
 10 12  1  0
 11 10  2  0
 12 13  1  0
 13 19  1  0
 13 14  1  6
 15 14  1  0
 16 17  1  0
 16 15  1  0
 18 17  1  0
 19 20  2  0
 19 26  1  0
 22 21  1  6
 22 23  1  0
 24 22  1  0
 25 27  1  0
 25 24  1  6
 26 25  1  0
 27 29  1  0
 28 27  2  0
M  END
$$$$
