RKL.pdb
     RDKit          3D

 29 28  0  0  1  0  0  0  0  0999 V2000
    8.3467  -15.0442   14.1255 N   0  0  0  0  0  0  0  0  0  0  0  0
    9.2203  -15.2480   15.2594 C   0  0  0  0  0  0  0  0  0  0  0  0
   10.1188  -16.1715   15.2225 N   0  0  0  0  0  0  0  0  0  0  0  0
    9.1033  -14.4442   16.4143 N   0  0  0  0  0  0  0  0  0  0  0  0
    7.8450  -13.7514   16.7505 C   0  0  0  0  0  0  0  0  0  0  0  0
    7.9956  -12.9841   18.0342 C   0  0  0  0  0  0  0  0  0  0  0  0
    7.5443  -13.7344   19.2066 C   0  0  0  0  0  0  0  0  0  0  0  0
    8.4850  -14.6128   19.9406 C   0  0  2  0  0  0  0  0  0  0  0  0
    9.2114  -15.5865   19.2611 N   0  0  0  0  0  0  0  0  0  0  0  0
    7.8224  -15.1364   21.1422 C   0  0  0  0  0  0  0  0  0  0  0  0
    7.1007  -14.3651   21.8171 O   0  0  0  0  0  0  0  0  0  0  0  0
   10.7544  -16.3533   16.0132 N   0  0  0  0  0  0  0  0  0  0  0  0
    7.9811  -16.4713   21.5465 C   0  0  2  0  0  0  0  0  0  0  0  0
    7.3949  -16.9559   22.7896 C   0  0  0  0  0  0  0  0  0  0  0  0
    7.4026  -18.4505   22.7579 C   0  0  0  0  0  0  0  0  0  0  0  0
    6.8677  -19.0925   24.0140 C   0  0  0  0  0  0  0  0  0  0  0  0
    6.9458  -20.6080   23.7775 C   0  0  0  0  0  0  0  0  0  0  0  0
    6.3941  -21.2765   25.0340 N   0  0  0  0  0  0  0  0  0  0  0  0
    6.3482  -22.7105   24.7355 C   0  0  0  0  0  0  0  0  0  0  0  0
    8.1349  -16.3940   23.9437 O   0  0  0  0  0  0  0  0  0  0  0  0
    9.3826  -16.4699   24.0436 C   0  0  0  0  0  0  0  0  0  0  0  0
    6.5140  -11.3307   26.6585 C   0  0  2  0  0  0  0  0  0  0  0  0
    7.5617  -12.4463   26.8811 C   0  0  0  0  0  0  0  0  0  0  0  0
    7.5433  -12.7465   28.3386 C   0  0  0  0  0  0  0  0  0  0  0  0
    7.1769  -13.5351   25.9589 C   0  0  1  0  0  0  0  0  0  0  0  0
    8.0658  -14.7148   25.8443 N   0  0  0  0  0  0  0  0  0  0  0  0
    7.4541  -15.7267   25.0184 C   0  0  0  0  0  0  0  0  0  0  0  0
    8.5911  -15.2146   27.1112 O   0  0  0  0  0  0  0  0  0  0  0  0
    8.0138  -16.1318   27.7352 O   0  0  0  0  0  0  0  0  0  0  0  0
  2  3  2  0
  2  1  1  0
  4  2  1  0
  5  4  1  0
  6  7  1  0
  6  5  1  0
  8 10  1  0
  8  7  1  0
  8  9  1  6
 10 12  1  0
 11 10  2  0
 12 13  1  0
 13 19  1  0
 13 14  1  6
 15 14  1  0
 16 17  1  0
 16 15  1  0
 18 17  1  0
 19 20  2  0
 19 26  1  0
 22 21  1  1
 22 23  1  0
 24 22  1  0
 25 27  1  0
 25 24  1  6
 26 25  1  0
 27 29  1  0
 28 27  2  0
M  END
$$$$
