RKL.pdb
     RDKit          3D

 29 28  0  0  1  0  0  0  0  0999 V2000
    8.3722  -13.4461   15.8860 N   0  0  0  0  0  0  0  0  0  0  0  0
    8.6216  -13.2046   17.2895 C   0  0  0  0  0  0  0  0  0  0  0  0
    9.0837  -12.0646   17.6748 N   0  0  0  0  0  0  0  0  0  0  0  0
    8.3642  -14.2060   18.2511 N   0  0  0  0  0  0  0  0  0  0  0  0
    7.0264  -14.3796   18.8481 C   0  0  0  0  0  0  0  0  0  0  0  0
    7.0180  -15.5567   19.7827 C   0  0  0  0  0  0  0  0  0  0  0  0
    8.1321  -15.5432   20.7313 C   0  0  0  0  0  0  0  0  0  0  0  0
    8.4318  -16.7407   21.5507 C   0  0  2  0  0  0  0  0  0  0  0  0
    7.7623  -17.9380   21.3149 N   0  0  0  0  0  0  0  0  0  0  0  0
    8.4397  -16.3668   22.9711 C   0  0  0  0  0  0  0  0  0  0  0  0
    8.4806  -15.1512   23.2741 O   0  0  0  0  0  0  0  0  0  0  0  0
    9.3635  -11.8851   18.6504 N   0  0  0  0  0  0  0  0  0  0  0  0
    8.4040  -17.3355   23.9863 C   0  0  2  0  0  0  0  0  0  0  0  0
    9.4840  -17.4470   24.9584 C   0  0  0  0  0  0  0  0  0  0  0  0
   10.6489  -18.1024   24.2889 C   0  0  0  0  0  0  0  0  0  0  0  0
   10.3865  -19.5235   23.8557 C   0  0  0  0  0  0  0  0  0  0  0  0
   11.4548  -20.3793   24.5523 C   0  0  0  0  0  0  0  0  0  0  0  0
   11.1746  -21.8293   24.1664 N   0  0  0  0  0  0  0  0  0  0  0  0
   12.2054  -22.6267   24.8367 C   0  0  0  0  0  0  0  0  0  0  0  0
    9.8045  -16.1079   25.5056 O   0  0  0  0  0  0  0  0  0  0  0  0
   10.8734  -15.5100   25.2365 C   0  0  0  0  0  0  0  0  0  0  0  0
    6.0717  -12.3614   27.0353 C   0  0  2  0  0  0  0  0  0  0  0  0
    7.2348  -13.1602   26.4023 C   0  0  0  0  0  0  0  0  0  0  0  0
    7.7317  -12.3375   25.2661 C   0  0  0  0  0  0  0  0  0  0  0  0
    8.1760  -13.4265   27.5102 C   0  0  2  0  0  0  0  0  0  0  0  0
    9.3010  -14.3615   27.2757 N   0  0  0  0  0  0  0  0  0  0  0  0
    8.8979  -15.4188   26.3813 C   0  0  0  0  0  0  0  0  0  0  0  0
    9.9771  -14.8257   28.4833 O   0  0  0  0  0  0  0  0  0  0  0  0
   10.4699  -14.0180   29.3010 O   0  0  0  0  0  0  0  0  0  0  0  0
  2  3  2  0
  2  1  1  0
  4  2  1  0
  5  4  1  0
  6  7  1  0
  6  5  1  0
  8 10  1  0
  8  7  1  0
  8  9  1  1
 10 12  1  0
 11 10  2  0
 12 13  1  0
 13 19  1  0
 13 14  1  6
 15 14  1  0
 16 17  1  0
 16 15  1  0
 18 17  1  0
 19 20  2  0
 19 26  1  0
 22 21  1  6
 22 23  1  0
 24 22  1  0
 25 27  1  0
 25 24  1  6
 26 25  1  0
 27 29  1  0
 28 27  2  0
M  END
$$$$
