GKN.pdb
     RDKit          3D

 22 21  0  0  1  0  0  0  0  0999 V2000
    8.1748  -13.8132   15.7854 N   0  0  0  0  0  0  0  0  0  0  0  0
    8.5279  -15.0163   16.5023 C   0  0  0  0  0  0  0  0  0  0  0  0
    9.3833  -14.7464   17.7045 C   0  0  0  0  0  0  0  0  0  0  0  0
   10.3741  -14.0337   17.5445 O   0  0  0  0  0  0  0  0  0  0  0  0
    9.1040  -15.2718   18.9758 N   0  0  0  0  0  0  0  0  0  0  0  0
    9.8557  -15.2179   20.1484 C   0  0  1  0  0  0  0  0  0  0  0  0
    9.3355  -15.8697   21.4187 C   0  0  0  0  0  0  0  0  0  0  0  0
   10.2234  -15.7907   22.5971 C   0  0  0  0  0  0  0  0  0  0  0  0
    9.3763  -15.7166   23.8741 C   0  0  0  0  0  0  0  0  0  0  0  0
   10.2067  -15.6526   25.1146 C   0  0  0  0  0  0  0  0  0  0  0  0
    9.2728  -15.5396   26.2169 N   0  0  0  0  0  0  0  0  0  0  0  0
   11.2494  -15.6679   20.0640 C   0  0  0  0  0  0  0  0  0  0  0  0
   11.3717  -16.8443   19.5345 O   0  0  0  0  0  0  0  0  0  0  0  0
   14.2011  -13.3326   17.5917 N   0  0  0  0  0  0  0  0  0  0  0  0
   14.3793  -14.6219   18.1912 C   0  0  0  0  0  0  0  0  0  0  0  0
   14.2387  -15.6054   17.4216 O   0  0  0  0  0  0  0  0  0  0  0  0
   14.7009  -14.7993   19.6093 C   0  0  0  0  0  0  0  0  0  0  0  0
   13.6906  -15.7016   20.2800 C   0  0  2  0  0  0  0  0  0  0  0  0
   12.4143  -15.0333   20.4486 N   0  0  0  0  0  0  0  0  0  0  0  0
   14.2543  -16.1779   21.5831 C   0  0  0  0  0  0  0  0  0  0  0  0
   13.6027  -16.0247   22.7697 O   0  0  0  0  0  0  0  0  0  0  0  0
   15.3878  -16.7412   21.5209 O   0  0  0  0  0  0  0  0  0  0  0  0
  1  2  1  0
  2  3  1  0
  3  4  2  0
  3  5  1  0
  5  6  1  0
  6 12  1  0
  6  7  1  1
  8  7  1  0
  9  8  1  0
 10  9  1  0
 10 11  1  0
 12 13  2  0
 12 19  1  0
 15 17  1  0
 15 14  1  0
 16 15  2  0
 18 20  1  0
 18 17  1  1
 19 18  1  0
 20 21  1  0
 22 20  2  0
M  END
$$$$
