GKN.pdb
     RDKit          3D

 22 21  0  0  1  0  0  0  0  0999 V2000
    8.8397  -14.5786   13.1163 N   0  0  0  0  0  0  0  0  0  0  0  0
    8.0697  -14.6512   14.3362 C   0  0  0  0  0  0  0  0  0  0  0  0
    8.8958  -14.3917   15.5609 C   0  0  0  0  0  0  0  0  0  0  0  0
   10.1027  -14.6219   15.4877 O   0  0  0  0  0  0  0  0  0  0  0  0
    8.3520  -13.9127   16.7631 N   0  0  0  0  0  0  0  0  0  0  0  0
    8.8593  -13.9767   18.0599 C   0  0  1  0  0  0  0  0  0  0  0  0
    7.9697  -13.6385   19.2446 C   0  0  0  0  0  0  0  0  0  0  0  0
    8.6494  -13.5198   20.5512 C   0  0  0  0  0  0  0  0  0  0  0  0
    7.6073  -13.2853   21.6525 C   0  0  0  0  0  0  0  0  0  0  0  0
    8.2234  -13.1119   23.0027 C   0  0  0  0  0  0  0  0  0  0  0  0
    7.1220  -12.9152   23.9237 N   0  0  0  0  0  0  0  0  0  0  0  0
    9.5150  -15.2282   18.4546 C   0  0  0  0  0  0  0  0  0  0  0  0
    9.3847  -16.1693   17.5732 O   0  0  0  0  0  0  0  0  0  0  0  0
   14.8837  -14.3208   19.2927 N   0  0  0  0  0  0  0  0  0  0  0  0
   13.8411  -15.1122   18.7094 C   0  0  0  0  0  0  0  0  0  0  0  0
   14.2174  -16.1382   18.0890 O   0  0  0  0  0  0  0  0  0  0  0  0
   12.4234  -14.7595   18.8168 C   0  0  0  0  0  0  0  0  0  0  0  0
   11.6439  -15.8674   19.4872 C   0  0  2  0  0  0  0  0  0  0  0  0
   10.2359  -15.5349   19.5920 N   0  0  0  0  0  0  0  0  0  0  0  0
   12.2570  -16.1531   20.8233 C   0  0  0  0  0  0  0  0  0  0  0  0
   12.3031  -15.2325   21.8266 O   0  0  0  0  0  0  0  0  0  0  0  0
   12.7371  -17.3163   20.9728 O   0  0  0  0  0  0  0  0  0  0  0  0
  1  2  1  0
  2  3  1  0
  3  4  2  0
  3  5  1  0
  5  6  1  0
  6 12  1  0
  6  7  1  1
  8  7  1  0
  9  8  1  0
 10  9  1  0
 10 11  1  0
 12 13  2  0
 12 19  1  0
 15 17  1  0
 15 14  1  0
 16 15  2  0
 18 20  1  0
 18 17  1  1
 19 18  1  0
 20 21  1  0
 22 20  2  0
M  END
$$$$
