GKN.pdb
     RDKit          3D

 22 21  0  0  1  0  0  0  0  0999 V2000
   -6.5916  -28.8407   24.1065 N   0  0  0  0  0  0  0  0  0  0  0  0
   -7.3673  -27.8508   24.8167 C   0  0  0  0  0  0  0  0  0  0  0  0
   -6.5334  -27.0110   25.7384 C   0  0  0  0  0  0  0  0  0  0  0  0
   -6.5481  -27.3001   26.9347 O   0  0  0  0  0  0  0  0  0  0  0  0
   -5.7596  -25.9268   25.2955 N   0  0  0  0  0  0  0  0  0  0  0  0
   -4.9139  -25.0823   26.0127 C   0  0  1  0  0  0  0  0  0  0  0  0
   -3.6441  -24.5493   25.3704 C   0  0  0  0  0  0  0  0  0  0  0  0
   -2.6128  -25.5556   25.0430 C   0  0  0  0  0  0  0  0  0  0  0  0
   -1.3961  -24.8596   24.4193 C   0  0  0  0  0  0  0  0  0  0  0  0
   -0.3561  -25.8249   23.9512 C   0  0  0  0  0  0  0  0  0  0  0  0
    0.6654  -25.0293   23.3004 N   0  0  0  0  0  0  0  0  0  0  0  0
   -5.5243  -23.8984   26.6274 C   0  0  0  0  0  0  0  0  0  0  0  0
   -6.2777  -23.2332   25.8093 O   0  0  0  0  0  0  0  0  0  0  0  0
   -8.7904  -21.5904   29.7188 N   0  0  0  0  0  0  0  0  0  0  0  0
   -8.9018  -22.9113   29.1747 C   0  0  0  0  0  0  0  0  0  0  0  0
  -10.0281  -23.4564   29.2925 O   0  0  0  0  0  0  0  0  0  0  0  0
   -7.7835  -23.5978   28.5237 C   0  0  0  0  0  0  0  0  0  0  0  0
   -6.5473  -22.7280   28.5223 C   0  0  2  0  0  0  0  0  0  0  0  0
   -5.4207  -23.4110   27.9156 N   0  0  0  0  0  0  0  0  0  0  0  0
   -6.2555  -22.2962   29.9263 C   0  0  0  0  0  0  0  0  0  0  0  0
   -5.1278  -22.6683   30.5940 O   0  0  0  0  0  0  0  0  0  0  0  0
   -7.1278  -21.5531   30.4676 O   0  0  0  0  0  0  0  0  0  0  0  0
  1  2  1  0
  2  3  1  0
  3  4  2  0
  3  5  1  0
  5  6  1  0
  6 12  1  0
  6  7  1  6
  8  7  1  0
  9  8  1  0
 10  9  1  0
 10 11  1  0
 12 13  2  0
 12 19  1  0
 15 17  1  0
 15 14  1  0
 16 15  2  0
 18 20  1  0
 18 17  1  1
 19 18  1  0
 20 21  1  0
 22 20  2  0
M  END
$$$$
