GKN.pdb
     RDKit          3D

 22 21  0  0  1  0  0  0  0  0999 V2000
    8.9676  -26.2238   29.2233 N   0  0  0  0  0  0  0  0  0  0  0  0
    8.9579  -24.8570   29.6902 C   0  0  0  0  0  0  0  0  0  0  0  0
   10.2014  -24.1063   29.3159 C   0  0  0  0  0  0  0  0  0  0  0  0
   11.2648  -24.5004   29.7943 O   0  0  0  0  0  0  0  0  0  0  0  0
   10.1944  -22.9908   28.4638 N   0  0  0  0  0  0  0  0  0  0  0  0
   11.2420  -22.1560   28.0784 C   0  0  1  0  0  0  0  0  0  0  0  0
   11.0987  -21.2683   26.8534 C   0  0  0  0  0  0  0  0  0  0  0  0
   11.1015  -21.9610   25.5482 C   0  0  0  0  0  0  0  0  0  0  0  0
   10.8898  -20.9387   24.4240 C   0  0  0  0  0  0  0  0  0  0  0  0
   10.8442  -21.5702   23.0706 C   0  0  0  0  0  0  0  0  0  0  0  0
   10.6454  -20.4868   22.1290 N   0  0  0  0  0  0  0  0  0  0  0  0
   11.7878  -21.2601   29.1037 C   0  0  0  0  0  0  0  0  0  0  0  0
   10.9269  -20.9575   30.0238 O   0  0  0  0  0  0  0  0  0  0  0  0
   15.0118  -21.0920   33.5217 N   0  0  0  0  0  0  0  0  0  0  0  0
   13.8212  -20.6150   32.8827 C   0  0  0  0  0  0  0  0  0  0  0  0
   13.2169  -19.6876   33.4777 O   0  0  0  0  0  0  0  0  0  0  0  0
   13.3246  -21.1652   31.6191 C   0  0  0  0  0  0  0  0  0  0  0  0
   13.4755  -20.1604   30.5000 C   0  0  2  0  0  0  0  0  0  0  0  0
   13.0513  -20.7164   29.2293 N   0  0  0  0  0  0  0  0  0  0  0  0
   14.8951  -19.6851   30.4620 C   0  0  0  0  0  0  0  0  0  0  0  0
   15.6779  -19.7855   29.3515 O   0  0  0  0  0  0  0  0  0  0  0  0
   15.3352  -19.1753   31.5355 O   0  0  0  0  0  0  0  0  0  0  0  0
  1  2  1  0
  2  3  1  0
  3  4  2  0
  3  5  1  0
  5  6  1  0
  6 12  1  0
  6  7  1  6
  8  7  1  0
  9  8  1  0
 10  9  1  0
 10 11  1  0
 12 13  2  0
 12 19  1  0
 15 17  1  0
 15 14  1  0
 16 15  2  0
 18 20  1  0
 18 17  1  1
 19 18  1  0
 20 21  1  0
 22 20  2  0
M  END
$$$$
