GKN.pdb
     RDKit          3D

 22 21  0  0  1  0  0  0  0  0999 V2000
    7.0900  -20.5742   19.1301 N   0  0  0  0  0  0  0  0  0  0  0  0
    7.4654  -20.0867   20.4368 C   0  0  0  0  0  0  0  0  0  0  0  0
    8.6369  -19.1509   20.3932 C   0  0  0  0  0  0  0  0  0  0  0  0
    9.6772  -19.5710   19.8868 O   0  0  0  0  0  0  0  0  0  0  0  0
    8.5919  -17.8443   20.9044 N   0  0  0  0  0  0  0  0  0  0  0  0
    9.5917  -16.8750   20.9650 C   0  0  1  0  0  0  0  0  0  0  0  0
    9.2237  -15.4070   21.1018 C   0  0  0  0  0  0  0  0  0  0  0  0
    9.1229  -14.6447   19.8400 C   0  0  0  0  0  0  0  0  0  0  0  0
    7.8770  -13.7503   19.8788 C   0  0  0  0  0  0  0  0  0  0  0  0
    7.6956  -12.9586   18.6246 C   0  0  0  0  0  0  0  0  0  0  0  0
    6.4562  -12.2259   18.7887 N   0  0  0  0  0  0  0  0  0  0  0  0
   10.6459  -17.0712   21.9661 C   0  0  0  0  0  0  0  0  0  0  0  0
   10.1921  -17.4897   23.1055 O   0  0  0  0  0  0  0  0  0  0  0  0
   14.8209  -19.8387   24.0999 N   0  0  0  0  0  0  0  0  0  0  0  0
   14.9632  -18.6206   23.3587 C   0  0  0  0  0  0  0  0  0  0  0  0
   15.9555  -17.9110   23.6609 O   0  0  0  0  0  0  0  0  0  0  0  0
   14.0193  -18.2121   22.3156 C   0  0  0  0  0  0  0  0  0  0  0  0
   12.8857  -17.4038   22.9041 C   0  0  2  0  0  0  0  0  0  0  0  0
   12.0113  -16.8873   21.8685 N   0  0  0  0  0  0  0  0  0  0  0  0
   13.4578  -16.3126   23.7553 C   0  0  0  0  0  0  0  0  0  0  0  0
   13.8224  -16.5035   25.0540 O   0  0  0  0  0  0  0  0  0  0  0  0
   13.5877  -15.1845   23.1926 O   0  0  0  0  0  0  0  0  0  0  0  0
  1  2  1  0
  2  3  1  0
  3  4  2  0
  3  5  1  0
  5  6  1  0
  6 12  1  0
  6  7  1  1
  8  7  1  0
  9  8  1  0
 10  9  1  0
 10 11  1  0
 12 13  2  0
 12 19  1  0
 15 17  1  0
 15 14  1  0
 16 15  2  0
 18 20  1  0
 18 17  1  6
 19 18  1  0
 20 21  1  0
 22 20  2  0
M  END
$$$$
