GKN.pdb
     RDKit          3D

 22 21  0  0  1  0  0  0  0  0999 V2000
    7.1891  -15.9647   20.6980 N   0  0  0  0  0  0  0  0  0  0  0  0
    8.3169  -15.2333   21.2267 C   0  0  0  0  0  0  0  0  0  0  0  0
    9.5310  -16.0939   21.4144 C   0  0  0  0  0  0  0  0  0  0  0  0
    9.3614  -17.3128   21.4392 O   0  0  0  0  0  0  0  0  0  0  0  0
   10.8243  -15.5696   21.5664 N   0  0  0  0  0  0  0  0  0  0  0  0
   12.0372  -16.2287   21.7598 C   0  0  1  0  0  0  0  0  0  0  0  0
   13.3233  -15.6376   21.2069 C   0  0  0  0  0  0  0  0  0  0  0  0
   13.2933  -15.2395   19.7842 C   0  0  0  0  0  0  0  0  0  0  0  0
   14.6645  -14.6841   19.3776 C   0  0  0  0  0  0  0  0  0  0  0  0
   14.6768  -14.1385   17.9867 C   0  0  0  0  0  0  0  0  0  0  0  0
   16.0471  -13.7489   17.7210 N   0  0  0  0  0  0  0  0  0  0  0  0
   12.3797  -16.5966   23.1380 C   0  0  0  0  0  0  0  0  0  0  0  0
   12.6217  -15.5707   23.8919 O   0  0  0  0  0  0  0  0  0  0  0  0
    9.4601  -18.9940   25.1873 N   0  0  0  0  0  0  0  0  0  0  0  0
   10.5352  -18.2932   25.8247 C   0  0  0  0  0  0  0  0  0  0  0  0
   10.2397  -17.1779   26.3229 O   0  0  0  0  0  0  0  0  0  0  0  0
   11.8976  -18.8266   25.8958 C   0  0  0  0  0  0  0  0  0  0  0  0
   12.8580  -17.9509   25.1240 C   0  0  2  0  0  0  0  0  0  0  0  0
   12.4703  -17.8409   23.7306 N   0  0  0  0  0  0  0  0  0  0  0  0
   14.2447  -18.4935   25.2825 C   0  0  0  0  0  0  0  0  0  0  0  0
   14.9438  -18.4045   26.4485 O   0  0  0  0  0  0  0  0  0  0  0  0
   14.7401  -19.0499   24.2572 O   0  0  0  0  0  0  0  0  0  0  0  0
  1  2  1  0
  2  3  1  0
  3  4  2  0
  3  5  1  0
  5  6  1  0
  6 12  1  0
  6  7  1  1
  8  7  1  0
  9  8  1  0
 10  9  1  0
 10 11  1  0
 12 13  2  0
 12 19  1  0
 15 17  1  0
 15 14  1  0
 16 15  2  0
 18 20  1  0
 18 17  1  1
 19 18  1  0
 20 21  1  0
 22 20  2  0
M  END
$$$$
