GKN.pdb
     RDKit          3D

 22 21  0  0  1  0  0  0  0  0999 V2000
    9.9219  -19.5994   15.7558 N   0  0  0  0  0  0  0  0  0  0  0  0
    9.2863  -19.4393   17.0429 C   0  0  0  0  0  0  0  0  0  0  0  0
    9.6637  -18.1561   17.7216 C   0  0  0  0  0  0  0  0  0  0  0  0
   10.5527  -17.4820   17.2017 O   0  0  0  0  0  0  0  0  0  0  0  0
    9.0570  -17.7101   18.9063 N   0  0  0  0  0  0  0  0  0  0  0  0
    9.3225  -16.5763   19.6726 C   0  0  1  0  0  0  0  0  0  0  0  0
    8.2400  -15.9847   20.5599 C   0  0  0  0  0  0  0  0  0  0  0  0
    8.5318  -14.6569   21.1390 C   0  0  0  0  0  0  0  0  0  0  0  0
    8.5105  -13.5973   20.0298 C   0  0  0  0  0  0  0  0  0  0  0  0
    8.7562  -12.2167   20.5457 C   0  0  0  0  0  0  0  0  0  0  0  0
    8.7206  -11.3442   19.3892 N   0  0  0  0  0  0  0  0  0  0  0  0
   10.5050  -16.6236   20.5394 C   0  0  0  0  0  0  0  0  0  0  0  0
   10.5708  -17.7056   21.2495 O   0  0  0  0  0  0  0  0  0  0  0  0
   14.0650  -14.4617   18.6832 N   0  0  0  0  0  0  0  0  0  0  0  0
   14.2212  -15.4764   19.6829 C   0  0  0  0  0  0  0  0  0  0  0  0
   14.6511  -16.5840   19.2732 O   0  0  0  0  0  0  0  0  0  0  0  0
   13.9011  -15.2544   21.0949 C   0  0  0  0  0  0  0  0  0  0  0  0
   12.6862  -16.0559   21.5025 C   0  0  2  0  0  0  0  0  0  0  0  0
   11.5307  -15.7119   20.6960 N   0  0  0  0  0  0  0  0  0  0  0  0
   12.4355  -15.8488   22.9643 C   0  0  0  0  0  0  0  0  0  0  0  0
   13.3383  -16.1942   23.9245 O   0  0  0  0  0  0  0  0  0  0  0  0
   11.3210  -15.3256   23.2644 O   0  0  0  0  0  0  0  0  0  0  0  0
  1  2  1  0
  2  3  1  0
  3  4  2  0
  3  5  1  0
  5  6  1  0
  6 12  1  0
  6  7  1  1
  8  7  1  0
  9  8  1  0
 10  9  1  0
 10 11  1  0
 12 13  2  0
 12 19  1  0
 15 17  1  0
 15 14  1  0
 16 15  2  0
 18 20  1  0
 18 17  1  6
 19 18  1  0
 20 21  1  0
 22 20  2  0
M  END
$$$$
