GKN.pdb
     RDKit          3D

 22 21  0  0  1  0  0  0  0  0999 V2000
    8.4430  -16.2033   18.5214 N   0  0  0  0  0  0  0  0  0  0  0  0
    7.7137  -16.4423   19.7449 C   0  0  0  0  0  0  0  0  0  0  0  0
    8.3530  -15.7961   20.9381 C   0  0  0  0  0  0  0  0  0  0  0  0
    9.5828  -15.7542   20.9668 O   0  0  0  0  0  0  0  0  0  0  0  0
    7.6148  -15.2557   22.0027 N   0  0  0  0  0  0  0  0  0  0  0  0
    8.0548  -14.7165   23.2105 C   0  0  1  0  0  0  0  0  0  0  0  0
    7.0720  -14.0242   24.1399 C   0  0  0  0  0  0  0  0  0  0  0  0
    7.6450  -13.4445   25.3723 C   0  0  0  0  0  0  0  0  0  0  0  0
    6.5340  -12.7690   26.1867 C   0  0  0  0  0  0  0  0  0  0  0  0
    7.0488  -12.0932   27.4158 C   0  0  0  0  0  0  0  0  0  0  0  0
    5.8951  -11.4966   28.0584 N   0  0  0  0  0  0  0  0  0  0  0  0
    8.8143  -15.6057   24.0962 C   0  0  0  0  0  0  0  0  0  0  0  0
    8.1350  -16.6401   24.4808 O   0  0  0  0  0  0  0  0  0  0  0  0
   13.4366  -15.7535   23.1334 N   0  0  0  0  0  0  0  0  0  0  0  0
   12.6158  -16.7277   23.7897 C   0  0  0  0  0  0  0  0  0  0  0  0
   12.2607  -17.7056   23.0846 O   0  0  0  0  0  0  0  0  0  0  0  0
   12.2050  -16.6045   25.1903 C   0  0  0  0  0  0  0  0  0  0  0  0
   10.6982  -16.5991   25.3093 C   0  0  2  0  0  0  0  0  0  0  0  0
   10.1122  -15.5055   24.5578 N   0  0  0  0  0  0  0  0  0  0  0  0
   10.3255  -16.5508   26.7589 C   0  0  0  0  0  0  0  0  0  0  0  0
   10.5897  -17.5699   27.6236 O   0  0  0  0  0  0  0  0  0  0  0  0
    9.7429  -15.4933   27.1439 O   0  0  0  0  0  0  0  0  0  0  0  0
  1  2  1  0
  2  3  1  0
  3  4  2  0
  3  5  1  0
  5  6  1  0
  6 12  1  0
  6  7  1  1
  8  7  1  0
  9  8  1  0
 10  9  1  0
 10 11  1  0
 12 13  2  0
 12 19  1  0
 15 17  1  0
 15 14  1  0
 16 15  2  0
 18 20  1  0
 18 17  1  1
 19 18  1  0
 20 21  1  0
 22 20  2  0
M  END
$$$$
