GKN.pdb
     RDKit          3D

 22 21  0  0  1  0  0  0  0  0999 V2000
   -1.7151  -27.4858   26.9089 N   0  0  0  0  0  0  0  0  0  0  0  0
   -3.1448  -27.4784   26.7040 C   0  0  0  0  0  0  0  0  0  0  0  0
   -3.7237  -26.0947   26.6978 C   0  0  0  0  0  0  0  0  0  0  0  0
   -3.0184  -25.1851   27.1339 O   0  0  0  0  0  0  0  0  0  0  0  0
   -5.0154  -25.8079   26.2289 N   0  0  0  0  0  0  0  0  0  0  0  0
   -5.6956  -24.5924   26.1752 C   0  0  1  0  0  0  0  0  0  0  0  0
   -6.6996  -24.3285   25.0654 C   0  0  0  0  0  0  0  0  0  0  0  0
   -6.1866  -24.4538   23.6853 C   0  0  0  0  0  0  0  0  0  0  0  0
   -7.3217  -24.1834   22.6892 C   0  0  0  0  0  0  0  0  0  0  0  0
   -6.8800  -24.2963   21.2663 C   0  0  0  0  0  0  0  0  0  0  0  0
   -8.0724  -24.1226   20.4614 N   0  0  0  0  0  0  0  0  0  0  0  0
   -6.3943  -24.1689   27.3935 C   0  0  0  0  0  0  0  0  0  0  0  0
   -7.2269  -25.0578   27.8361 O   0  0  0  0  0  0  0  0  0  0  0  0
   -3.9140  -22.9541   31.2300 N   0  0  0  0  0  0  0  0  0  0  0  0
   -5.2938  -23.2420   30.9718 C   0  0  0  0  0  0  0  0  0  0  0  0
   -5.6619  -24.4172   31.2227 O   0  0  0  0  0  0  0  0  0  0  0  0
   -6.2272  -22.2434   30.4454 C   0  0  0  0  0  0  0  0  0  0  0  0
   -7.0658  -22.8269   29.3314 C   0  0  2  0  0  0  0  0  0  0  0  0
   -6.2888  -22.9981   28.1186 N   0  0  0  0  0  0  0  0  0  0  0  0
   -8.2629  -21.9534   29.1158 C   0  0  0  0  0  0  0  0  0  0  0  0
   -9.1626  -21.6772   30.1008 O   0  0  0  0  0  0  0  0  0  0  0  0
   -8.3950  -21.4765   27.9491 O   0  0  0  0  0  0  0  0  0  0  0  0
  1  2  1  0
  2  3  1  0
  3  4  2  0
  3  5  1  0
  5  6  1  0
  6 12  1  0
  6  7  1  6
  8  7  1  0
  9  8  1  0
 10  9  1  0
 10 11  1  0
 12 13  2  0
 12 19  1  0
 15 17  1  0
 15 14  1  0
 16 15  2  0
 18 20  1  0
 18 17  1  1
 19 18  1  0
 20 21  1  0
 22 20  2  0
M  END
$$$$
