GKN.pdb
     RDKit          3D

 22 21  0  0  1  0  0  0  0  0999 V2000
   12.0912  -16.6119   15.0066 N   0  0  0  0  0  0  0  0  0  0  0  0
   11.8197  -17.5977   16.0267 C   0  0  0  0  0  0  0  0  0  0  0  0
   11.3843  -16.9854   17.3250 C   0  0  0  0  0  0  0  0  0  0  0  0
   11.8661  -15.8930   17.6243 O   0  0  0  0  0  0  0  0  0  0  0  0
   10.4724  -17.6038   18.1947 N   0  0  0  0  0  0  0  0  0  0  0  0
   10.0907  -17.2483   19.4874 C   0  0  1  0  0  0  0  0  0  0  0  0
    8.9129  -17.9406   20.1525 C   0  0  0  0  0  0  0  0  0  0  0  0
    7.7221  -18.1514   19.3033 C   0  0  0  0  0  0  0  0  0  0  0  0
    6.6654  -18.9401   20.0875 C   0  0  0  0  0  0  0  0  0  0  0  0
    5.5090  -19.3577   19.2383 C   0  0  0  0  0  0  0  0  0  0  0  0
    4.6351  -20.1269   20.1012 N   0  0  0  0  0  0  0  0  0  0  0  0
   11.1371  -17.2624   20.5154 C   0  0  0  0  0  0  0  0  0  0  0  0
   11.8027  -18.3738   20.5468 O   0  0  0  0  0  0  0  0  0  0  0  0
   14.4992  -16.4667   20.2771 N   0  0  0  0  0  0  0  0  0  0  0  0
   14.4938  -15.3991   21.2330 C   0  0  0  0  0  0  0  0  0  0  0  0
   15.3468  -14.4954   21.0460 O   0  0  0  0  0  0  0  0  0  0  0  0
   13.5632  -15.3514   22.3632 C   0  0  0  0  0  0  0  0  0  0  0  0
   12.6146  -16.5277   22.3276 C   0  0  2  0  0  0  0  0  0  0  0  0
   11.5083  -16.2878   21.4209 N   0  0  0  0  0  0  0  0  0  0  0  0
   12.1490  -16.8187   23.7209 C   0  0  0  0  0  0  0  0  0  0  0  0
   12.9632  -17.3487   24.6760 O   0  0  0  0  0  0  0  0  0  0  0  0
   10.9377  -16.5396   23.9675 O   0  0  0  0  0  0  0  0  0  0  0  0
  1  2  1  0
  2  3  1  0
  3  4  2  0
  3  5  1  0
  5  6  1  0
  6 12  1  0
  6  7  1  1
  8  7  1  0
  9  8  1  0
 10  9  1  0
 10 11  1  0
 12 13  2  0
 12 19  1  0
 15 17  1  0
 15 14  1  0
 16 15  2  0
 18 20  1  0
 18 17  1  1
 19 18  1  0
 20 21  1  0
 22 20  2  0
M  END
$$$$
