GKN.pdb
     RDKit          3D

 22 21  0  0  1  0  0  0  0  0999 V2000
    9.8368  -18.6404   19.8519 N   0  0  0  0  0  0  0  0  0  0  0  0
   10.0661  -19.8534   20.6016 C   0  0  0  0  0  0  0  0  0  0  0  0
    9.2083  -19.9493   21.8283 C   0  0  0  0  0  0  0  0  0  0  0  0
    9.3749  -19.0986   22.7022 O   0  0  0  0  0  0  0  0  0  0  0  0
    8.2483  -20.9565   22.0138 N   0  0  0  0  0  0  0  0  0  0  0  0
    7.4681  -21.2505   23.1308 C   0  0  1  0  0  0  0  0  0  0  0  0
    6.1999  -22.0740   22.9801 C   0  0  0  0  0  0  0  0  0  0  0  0
    5.3874  -22.2410   24.2030 C   0  0  0  0  0  0  0  0  0  0  0  0
    4.1793  -23.1361   23.8984 C   0  0  0  0  0  0  0  0  0  0  0  0
    3.3244  -23.3802   25.0993 C   0  0  0  0  0  0  0  0  0  0  0  0
    2.2984  -24.3129   24.6782 N   0  0  0  0  0  0  0  0  0  0  0  0
    8.1526  -21.8600   24.2762 C   0  0  0  0  0  0  0  0  0  0  0  0
    8.5385  -23.0760   24.0485 O   0  0  0  0  0  0  0  0  0  0  0  0
   12.0810  -20.0803   25.6166 N   0  0  0  0  0  0  0  0  0  0  0  0
   11.3730  -21.2999   25.8711 C   0  0  0  0  0  0  0  0  0  0  0  0
   11.6230  -22.2495   25.0868 O   0  0  0  0  0  0  0  0  0  0  0  0
   10.4131  -21.4455   26.9680 C   0  0  0  0  0  0  0  0  0  0  0  0
    9.1575  -22.1408   26.4940 C   0  0  2  0  0  0  0  0  0  0  0  0
    8.4429  -21.3367   25.5210 N   0  0  0  0  0  0  0  0  0  0  0  0
    8.3091  -22.4747   27.6820 C   0  0  0  0  0  0  0  0  0  0  0  0
    7.0469  -21.9896   27.8478 O   0  0  0  0  0  0  0  0  0  0  0  0
    8.8370  -23.2462   28.5377 O   0  0  0  0  0  0  0  0  0  0  0  0
  1  2  1  0
  2  3  1  0
  3  4  2  0
  3  5  1  0
  5  6  1  0
  6 12  1  0
  6  7  1  6
  8  7  1  0
  9  8  1  0
 10  9  1  0
 10 11  1  0
 12 13  2  0
 12 19  1  0
 15 17  1  0
 15 14  1  0
 16 15  2  0
 18 20  1  0
 18 17  1  1
 19 18  1  0
 20 21  1  0
 22 20  2  0
M  END
$$$$
