PQA.pdb
     RDKit          3D

 22 22  0  0  1  0  0  0  0  0999 V2000
    8.4519  -15.1707   20.1240 N   0  0  0  0  0  0  0  0  0  0  0  0
    7.8047  -14.8958   18.8758 C   0  0  0  0  0  0  0  0  0  0  0  0
    7.7455  -13.3857   18.7633 C   0  0  0  0  0  0  0  0  0  0  0  0
    7.5149  -13.0127   20.2140 C   0  0  0  0  0  0  0  0  0  0  0  0
    8.5047  -13.9658   20.8899 C   0  0  1  0  0  0  0  0  0  0  0  0
    8.1394  -14.1855   22.3101 C   0  0  0  0  0  0  0  0  0  0  0  0
    8.0505  -13.1550   23.0557 O   0  0  0  0  0  0  0  0  0  0  0  0
    5.8803  -19.5132   24.6361 N   0  0  0  0  0  0  0  0  0  0  0  0
    7.2621  -19.3711   24.8931 C   0  0  0  0  0  0  0  0  0  0  0  0
    7.9369  -20.3644   25.2333 O   0  0  0  0  0  0  0  0  0  0  0  0
    7.8846  -18.0060   24.7460 C   0  0  0  0  0  0  0  0  0  0  0  0
    6.8348  -17.0061   24.3592 C   0  0  0  0  0  0  0  0  0  0  0  0
    7.3691  -15.6109   24.1720 C   0  0  2  0  0  0  0  0  0  0  0  0
    7.9023  -15.4627   22.8130 N   0  0  0  0  0  0  0  0  0  0  0  0
    8.4413  -15.3577   25.1644 C   0  0  0  0  0  0  0  0  0  0  0  0
    9.6306  -15.6391   24.9052 O   0  0  0  0  0  0  0  0  0  0  0  0
    8.9714  -13.0611   27.9845 C   0  0  0  0  0  0  0  0  0  0  0  0
    9.2764  -14.3578   27.2561 C   0  0  2  0  0  0  0  0  0  0  0  0
    8.1671  -14.7888   26.4435 N   0  0  0  0  0  0  0  0  0  0  0  0
    9.5546  -15.3696   28.3029 C   0  0  0  0  0  0  0  0  0  0  0  0
   10.4353  -15.1255   29.1617 O   0  0  0  0  0  0  0  0  0  0  0  0
    8.8873  -16.5806   28.3828 O   0  0  0  0  0  0  0  0  0  0  0  0
  1  2  1  0
  2  3  1  0
  4  3  1  0
  5  1  1  0
  5  6  1  1
  5  4  1  0
  6 14  1  0
  7  6  2  0
  9 11  1  0
  9  8  1  0
 10  9  2  0
 12 11  1  0
 13 12  1  6
 14 13  1  0
 15 13  1  0
 16 15  2  0
 18 17  1  1
 18 20  1  0
 18 19  1  0
 19 15  1  0
 20 22  1  0
 21 20  2  0
M  END
$$$$
