PQA.pdb
     RDKit          3D

 22 22  0  0  1  0  0  0  0  0999 V2000
    8.7683  -16.1924   19.2850 N   0  0  0  0  0  0  0  0  0  0  0  0
    8.7861  -17.4193   18.5457 C   0  0  0  0  0  0  0  0  0  0  0  0
    7.6546  -18.2574   19.1059 C   0  0  0  0  0  0  0  0  0  0  0  0
    7.7243  -17.8673   20.5687 C   0  0  0  0  0  0  0  0  0  0  0  0
    7.9258  -16.3559   20.4273 C   0  0  1  0  0  0  0  0  0  0  0  0
    8.5283  -15.7867   21.6568 C   0  0  0  0  0  0  0  0  0  0  0  0
    9.7956  -15.6480   21.6751 O   0  0  0  0  0  0  0  0  0  0  0  0
    5.5994  -12.5771   26.1168 N   0  0  0  0  0  0  0  0  0  0  0  0
    6.9391  -12.4487   26.5458 C   0  0  0  0  0  0  0  0  0  0  0  0
    7.2255  -11.6490   27.4603 O   0  0  0  0  0  0  0  0  0  0  0  0
    7.9932  -13.2931   25.8760 C   0  0  0  0  0  0  0  0  0  0  0  0
    7.3946  -14.0270   24.7121 C   0  0  0  0  0  0  0  0  0  0  0  0
    8.3934  -14.8401   23.9322 C   0  0  2  0  0  0  0  0  0  0  0  0
    7.7460  -15.4176   22.7488 N   0  0  0  0  0  0  0  0  0  0  0  0
    8.9260  -15.9228   24.7940 C   0  0  0  0  0  0  0  0  0  0  0  0
    8.1850  -16.8485   25.1875 O   0  0  0  0  0  0  0  0  0  0  0  0
   12.2864  -17.2759   25.7393 C   0  0  0  0  0  0  0  0  0  0  0  0
   10.7799  -17.1395   25.8688 C   0  0  2  0  0  0  0  0  0  0  0  0
   10.2909  -15.9563   25.2075 N   0  0  0  0  0  0  0  0  0  0  0  0
   10.4908  -17.0589   27.3203 C   0  0  0  0  0  0  0  0  0  0  0  0
    9.9137  -16.0390   27.7668 O   0  0  0  0  0  0  0  0  0  0  0  0
   10.8277  -18.0595   28.2168 O   0  0  0  0  0  0  0  0  0  0  0  0
  1  2  1  0
  2  3  1  0
  4  3  1  0
  5  1  1  0
  5  6  1  1
  5  4  1  0
  6 14  1  0
  7  6  2  0
  9 11  1  0
  9  8  1  0
 10  9  2  0
 12 11  1  0
 13 12  1  1
 14 13  1  0
 15 13  1  0
 16 15  2  0
 18 17  1  1
 18 20  1  0
 18 19  1  0
 19 15  1  0
 20 22  1  0
 21 20  2  0
M  END
$$$$
