PQA.pdb
     RDKit          3D

 22 22  0  0  1  0  0  0  0  0999 V2000
    7.7780  -15.3205   19.1881 N   0  0  0  0  0  0  0  0  0  0  0  0
    7.6388  -14.3700   18.1253 C   0  0  0  0  0  0  0  0  0  0  0  0
    8.4730  -13.1712   18.5293 C   0  0  0  0  0  0  0  0  0  0  0  0
    8.2422  -13.1702   20.0271 C   0  0  0  0  0  0  0  0  0  0  0  0
    8.3713  -14.6690   20.3129 C   0  0  1  0  0  0  0  0  0  0  0  0
    7.6998  -15.0230   21.5866 C   0  0  0  0  0  0  0  0  0  0  0  0
    6.4356  -15.1854   21.5542 O   0  0  0  0  0  0  0  0  0  0  0  0
    6.0398  -19.4934   24.7136 N   0  0  0  0  0  0  0  0  0  0  0  0
    7.3647  -19.0152   24.8210 C   0  0  0  0  0  0  0  0  0  0  0  0
    8.1294  -19.4904   25.6853 O   0  0  0  0  0  0  0  0  0  0  0  0
    7.8175  -17.9320   23.8753 C   0  0  0  0  0  0  0  0  0  0  0  0
    8.1839  -16.6999   24.6495 C   0  0  0  0  0  0  0  0  0  0  0  0
    7.6904  -15.4232   24.0221 C   0  0  2  0  0  0  0  0  0  0  0  0
    8.4165  -15.1728   22.7718 N   0  0  0  0  0  0  0  0  0  0  0  0
    7.9050  -14.2979   24.9635 C   0  0  0  0  0  0  0  0  0  0  0  0
    9.0523  -13.8492   25.1714 O   0  0  0  0  0  0  0  0  0  0  0  0
    5.8895  -11.8191   26.9505 C   0  0  0  0  0  0  0  0  0  0  0  0
    7.1244  -12.6301   26.6010 C   0  0  2  0  0  0  0  0  0  0  0  0
    6.8252  -13.6844   25.6654 N   0  0  0  0  0  0  0  0  0  0  0  0
    7.6157  -13.2121   27.8726 C   0  0  0  0  0  0  0  0  0  0  0  0
    7.5457  -14.4534   28.0371 O   0  0  0  0  0  0  0  0  0  0  0  0
    8.1525  -12.4503   28.8972 O   0  0  0  0  0  0  0  0  0  0  0  0
  1  2  1  0
  2  3  1  0
  4  3  1  0
  5  1  1  0
  5  6  1  1
  5  4  1  0
  6 14  1  0
  7  6  2  0
  9 11  1  0
  9  8  1  0
 10  9  2  0
 12 11  1  0
 13 12  1  1
 14 13  1  0
 15 13  1  0
 16 15  2  0
 18 17  1  1
 18 20  1  0
 18 19  1  0
 19 15  1  0
 20 22  1  0
 21 20  2  0
M  END
$$$$
