PQA.pdb
     RDKit          3D

 22 22  0  0  1  0  0  0  0  0999 V2000
    7.6422  -15.1703   19.0966 N   0  0  0  0  0  0  0  0  0  0  0  0
    7.6153  -14.1703   18.0711 C   0  0  0  0  0  0  0  0  0  0  0  0
    8.5602  -13.0788   18.5315 C   0  0  0  0  0  0  0  0  0  0  0  0
    8.3087  -13.1122   20.0257 C   0  0  0  0  0  0  0  0  0  0  0  0
    8.2816  -14.6264   20.2527 C   0  0  1  0  0  0  0  0  0  0  0  0
    7.5592  -14.9592   21.5041 C   0  0  0  0  0  0  0  0  0  0  0  0
    6.2990  -14.7659   21.5193 O   0  0  0  0  0  0  0  0  0  0  0  0
    8.4008  -19.4787   25.4199 N   0  0  0  0  0  0  0  0  0  0  0  0
    7.6379  -18.6540   26.2762 C   0  0  0  0  0  0  0  0  0  0  0  0
    7.2539  -19.0904   27.3806 O   0  0  0  0  0  0  0  0  0  0  0  0
    7.3082  -17.2548   25.8218 C   0  0  0  0  0  0  0  0  0  0  0  0
    7.8352  -17.0320   24.4347 C   0  0  0  0  0  0  0  0  0  0  0  0
    7.4772  -15.6866   23.8612 C   0  0  2  0  0  0  0  0  0  0  0  0
    8.2256  -15.4625   22.6191 N   0  0  0  0  0  0  0  0  0  0  0  0
    7.8072  -14.6286   24.8463 C   0  0  0  0  0  0  0  0  0  0  0  0
    8.9928  -14.2886   25.0450 O   0  0  0  0  0  0  0  0  0  0  0  0
    6.0410  -12.0951   27.0003 C   0  0  0  0  0  0  0  0  0  0  0  0
    7.2059  -12.9637   26.5606 C   0  0  2  0  0  0  0  0  0  0  0  0
    6.7990  -13.9597   25.6020 N   0  0  0  0  0  0  0  0  0  0  0  0
    7.7193  -13.6247   27.7839 C   0  0  0  0  0  0  0  0  0  0  0  0
    8.1601  -12.9124   28.7172 O   0  0  0  0  0  0  0  0  0  0  0  0
    7.7377  -14.9994   27.9515 O   0  0  0  0  0  0  0  0  0  0  0  0
  1  2  1  0
  2  3  1  0
  4  3  1  0
  5  1  1  0
  5  6  1  1
  5  4  1  0
  6 14  1  0
  7  6  2  0
  9 11  1  0
  9  8  1  0
 10  9  2  0
 12 11  1  0
 13 12  1  1
 14 13  1  0
 15 13  1  0
 16 15  2  0
 18 17  1  1
 18 20  1  0
 18 19  1  0
 19 15  1  0
 20 22  1  0
 21 20  2  0
M  END
$$$$
