PQA.pdb
     RDKit          3D

 22 22  0  0  1  0  0  0  0  0999 V2000
    7.7330  -15.0701   19.0111 N   0  0  0  0  0  0  0  0  0  0  0  0
    7.4739  -14.0565   18.0324 C   0  0  0  0  0  0  0  0  0  0  0  0
    8.3468  -12.8783   18.4148 C   0  0  0  0  0  0  0  0  0  0  0  0
    8.2860  -12.9725   19.9262 C   0  0  0  0  0  0  0  0  0  0  0  0
    8.4483  -14.4851   20.1009 C   0  0  1  0  0  0  0  0  0  0  0  0
    7.9248  -14.9233   21.4172 C   0  0  0  0  0  0  0  0  0  0  0  0
    6.6582  -14.9685   21.5556 O   0  0  0  0  0  0  0  0  0  0  0  0
   10.4011  -18.7695   25.4728 N   0  0  0  0  0  0  0  0  0  0  0  0
    9.4268  -18.1985   26.3215 C   0  0  0  0  0  0  0  0  0  0  0  0
    9.2810  -18.6334   27.4822 O   0  0  0  0  0  0  0  0  0  0  0  0
    8.5838  -17.0672   25.7902 C   0  0  0  0  0  0  0  0  0  0  0  0
    8.9793  -16.7573   24.3763 C   0  0  0  0  0  0  0  0  0  0  0  0
    8.2072  -15.6161   23.7692 C   0  0  2  0  0  0  0  0  0  0  0  0
    8.7778  -15.2719   22.4619 N   0  0  0  0  0  0  0  0  0  0  0  0
    8.2731  -14.4422   24.6727 C   0  0  0  0  0  0  0  0  0  0  0  0
    9.3332  -13.7936   24.8004 O   0  0  0  0  0  0  0  0  0  0  0  0
    5.9087  -12.2120   26.5510 C   0  0  0  0  0  0  0  0  0  0  0  0
    7.2652  -12.8045   26.2135 C   0  0  2  0  0  0  0  0  0  0  0  0
    7.1438  -14.0060   25.4272 N   0  0  0  0  0  0  0  0  0  0  0  0
    7.9189  -13.1152   27.5070 C   0  0  0  0  0  0  0  0  0  0  0  0
    8.1092  -14.3156   27.8161 O   0  0  0  0  0  0  0  0  0  0  0  0
    8.3339  -12.1410   28.3997 O   0  0  0  0  0  0  0  0  0  0  0  0
  1  2  1  0
  2  3  1  0
  4  3  1  0
  5  1  1  0
  5  6  1  1
  5  4  1  0
  6 14  1  0
  7  6  2  0
  9 11  1  0
  9  8  1  0
 10  9  2  0
 12 11  1  0
 13 12  1  1
 14 13  1  0
 15 13  1  0
 16 15  2  0
 18 17  1  1
 18 20  1  0
 18 19  1  0
 19 15  1  0
 20 22  1  0
 21 20  2  0
M  END
$$$$
