PQA.pdb
     RDKit          3D

 22 22  0  0  1  0  0  0  0  0999 V2000
    7.9571  -13.5562   19.7264 N   0  0  0  0  0  0  0  0  0  0  0  0
    7.6026  -12.5076   18.8170 C   0  0  0  0  0  0  0  0  0  0  0  0
    7.2210  -13.1941   17.5211 C   0  0  0  0  0  0  0  0  0  0  0  0
    8.2050  -14.3467   17.5226 C   0  0  0  0  0  0  0  0  0  0  0  0
    8.1083  -14.7716   18.9906 C   0  0  1  0  0  0  0  0  0  0  0  0
    9.3140  -15.5311   19.4004 C   0  0  0  0  0  0  0  0  0  0  0  0
    9.4953  -16.6726   18.8620 O   0  0  0  0  0  0  0  0  0  0  0  0
   14.8685  -13.8188   19.4085 N   0  0  0  0  0  0  0  0  0  0  0  0
   15.1018  -14.9881   20.1661 C   0  0  0  0  0  0  0  0  0  0  0  0
   16.2716  -15.3450   20.4150 O   0  0  0  0  0  0  0  0  0  0  0  0
   13.9141  -15.7771   20.6556 C   0  0  0  0  0  0  0  0  0  0  0  0
   12.6437  -15.0787   20.2687 C   0  0  0  0  0  0  0  0  0  0  0  0
   11.3983  -15.8113   20.6923 C   0  0  2  0  0  0  0  0  0  0  0  0
   10.2138  -15.0226   20.3344 N   0  0  0  0  0  0  0  0  0  0  0  0
   11.4325  -16.0324   22.1581 C   0  0  0  0  0  0  0  0  0  0  0  0
   11.4409  -15.0658   22.9496 O   0  0  0  0  0  0  0  0  0  0  0  0
   10.8262  -18.7724   24.6109 C   0  0  0  0  0  0  0  0  0  0  0  0
   11.4630  -17.4704   24.1589 C   0  0  2  0  0  0  0  0  0  0  0  0
   11.4571  -17.3417   22.7237 N   0  0  0  0  0  0  0  0  0  0  0  0
   12.8595  -17.4940   24.6549 C   0  0  0  0  0  0  0  0  0  0  0  0
   13.7963  -17.5562   23.8233 O   0  0  0  0  0  0  0  0  0  0  0  0
   13.1869  -17.4508   26.0000 O   0  0  0  0  0  0  0  0  0  0  0  0
  1  2  1  0
  2  3  1  0
  4  3  1  0
  5  1  1  0
  5  6  1  1
  5  4  1  0
  6 14  1  0
  7  6  2  0
  9 11  1  0
  9  8  1  0
 10  9  2  0
 12 11  1  0
 13 12  1  1
 14 13  1  0
 15 13  1  0
 16 15  2  0
 18 17  1  6
 18 20  1  0
 18 19  1  0
 19 15  1  0
 20 22  1  0
 21 20  2  0
M  END
$$$$
