PQA.pdb
     RDKit          3D

 22 22  0  0  1  0  0  0  0  0999 V2000
    7.4492  -15.2215   19.3278 N   0  0  0  0  0  0  0  0  0  0  0  0
    7.4417  -14.2159   18.3074 C   0  0  0  0  0  0  0  0  0  0  0  0
    8.4801  -13.1942   18.7247 C   0  0  0  0  0  0  0  0  0  0  0  0
    8.2989  -13.2192   20.2291 C   0  0  0  0  0  0  0  0  0  0  0  0
    8.1791  -14.7293   20.4532 C   0  0  1  0  0  0  0  0  0  0  0  0
    7.4963  -15.0196   21.7370 C   0  0  0  0  0  0  0  0  0  0  0  0
    6.2368  -14.8272   21.7845 O   0  0  0  0  0  0  0  0  0  0  0  0
    8.5922  -19.0200   26.3404 N   0  0  0  0  0  0  0  0  0  0  0  0
    7.4069  -19.1653   25.5859 C   0  0  0  0  0  0  0  0  0  0  0  0
    6.7582  -20.2299   25.6454 O   0  0  0  0  0  0  0  0  0  0  0  0
    6.9583  -18.0142   24.7218 C   0  0  0  0  0  0  0  0  0  0  0  0
    7.9492  -16.8912   24.8143 C   0  0  0  0  0  0  0  0  0  0  0  0
    7.4975  -15.6290   24.1288 C   0  0  2  0  0  0  0  0  0  0  0  0
    8.1979  -15.4832   22.8476 N   0  0  0  0  0  0  0  0  0  0  0  0
    7.7912  -14.4649   24.9989 C   0  0  0  0  0  0  0  0  0  0  0  0
    8.9513  -14.0095   25.0861 O   0  0  0  0  0  0  0  0  0  0  0  0
    5.9027  -11.8483   26.9301 C   0  0  0  0  0  0  0  0  0  0  0  0
    7.1283  -12.6482   26.5261 C   0  0  2  0  0  0  0  0  0  0  0  0
    6.7756  -13.8204   25.7659 N   0  0  0  0  0  0  0  0  0  0  0  0
    7.7989  -13.0497   27.7855 C   0  0  0  0  0  0  0  0  0  0  0  0
    7.8200  -14.2637   28.0996 O   0  0  0  0  0  0  0  0  0  0  0  0
    8.4085  -12.1469   28.6407 O   0  0  0  0  0  0  0  0  0  0  0  0
  1  2  1  0
  2  3  1  0
  4  3  1  0
  5  1  1  0
  5  6  1  1
  5  4  1  0
  6 14  1  0
  7  6  2  0
  9 11  1  0
  9  8  1  0
 10  9  2  0
 12 11  1  0
 13 12  1  1
 14 13  1  0
 15 13  1  0
 16 15  2  0
 18 17  1  1
 18 20  1  0
 18 19  1  0
 19 15  1  0
 20 22  1  0
 21 20  2  0
M  END
$$$$
