PQA.pdb
     RDKit          3D

 22 22  0  0  1  0  0  0  0  0999 V2000
    8.5851  -15.1671   19.8677 N   0  0  0  0  0  0  0  0  0  0  0  0
    8.0228  -14.9284   18.5719 C   0  0  0  0  0  0  0  0  0  0  0  0
    7.7659  -13.4367   18.4999 C   0  0  0  0  0  0  0  0  0  0  0  0
    7.3545  -13.1610   19.9322 C   0  0  0  0  0  0  0  0  0  0  0  0
    8.4007  -14.0002   20.6712 C   0  0  1  0  0  0  0  0  0  0  0  0
    7.9412  -14.3281   22.0423 C   0  0  0  0  0  0  0  0  0  0  0  0
    7.6002  -13.3545   22.7917 O   0  0  0  0  0  0  0  0  0  0  0  0
    7.3667  -20.0595   24.5452 N   0  0  0  0  0  0  0  0  0  0  0  0
    6.8605  -19.2774   25.6071 C   0  0  0  0  0  0  0  0  0  0  0  0
    6.4359  -19.8326   26.6411 O   0  0  0  0  0  0  0  0  0  0  0  0
    6.8499  -17.7776   25.4545 C   0  0  0  0  0  0  0  0  0  0  0  0
    7.3432  -17.4007   24.0885 C   0  0  0  0  0  0  0  0  0  0  0  0
    7.3552  -15.9160   23.8387 C   0  0  2  0  0  0  0  0  0  0  0  0
    7.8831  -15.6435   22.4969 N   0  0  0  0  0  0  0  0  0  0  0  0
    8.2035  -15.2528   24.8581 C   0  0  0  0  0  0  0  0  0  0  0  0
    9.4496  -15.3030   24.7826 O   0  0  0  0  0  0  0  0  0  0  0  0
    7.7930  -12.6973   27.5697 C   0  0  0  0  0  0  0  0  0  0  0  0
    8.5281  -13.7901   26.8145 C   0  0  2  0  0  0  0  0  0  0  0  0
    7.6427  -14.5366   25.9570 N   0  0  0  0  0  0  0  0  0  0  0  0
    9.1089  -14.6886   27.8403 C   0  0  0  0  0  0  0  0  0  0  0  0
    8.7048  -15.8740   27.9054 O   0  0  0  0  0  0  0  0  0  0  0  0
   10.0827  -14.2841   28.7383 O   0  0  0  0  0  0  0  0  0  0  0  0
  1  2  1  0
  2  3  1  0
  4  3  1  0
  5  1  1  0
  5  6  1  1
  5  4  1  0
  6 14  1  0
  7  6  2  0
  9 11  1  0
  9  8  1  0
 10  9  2  0
 12 11  1  0
 13 12  1  1
 14 13  1  0
 15 13  1  0
 16 15  2  0
 18 17  1  1
 18 20  1  0
 18 19  1  0
 19 15  1  0
 20 22  1  0
 21 20  2  0
M  END
$$$$
