PQA.pdb
     RDKit          3D

 22 22  0  0  1  0  0  0  0  0999 V2000
    8.4485  -15.6611   20.7787 N   0  0  0  0  0  0  0  0  0  0  0  0
    7.8465  -15.5845   19.4810 C   0  0  0  0  0  0  0  0  0  0  0  0
    7.3655  -14.1554   19.3308 C   0  0  0  0  0  0  0  0  0  0  0  0
    6.9280  -13.8637   20.7522 C   0  0  0  0  0  0  0  0  0  0  0  0
    8.0952  -14.4914   21.5193 C   0  0  1  0  0  0  0  0  0  0  0  0
    7.7015  -14.8062   22.9138 C   0  0  0  0  0  0  0  0  0  0  0  0
    7.2587  -13.8456   23.6259 O   0  0  0  0  0  0  0  0  0  0  0  0
    7.2416  -20.4540   25.5794 N   0  0  0  0  0  0  0  0  0  0  0  0
    7.1689  -19.6418   26.7329 C   0  0  0  0  0  0  0  0  0  0  0  0
    7.0392  -20.1681   27.8571 O   0  0  0  0  0  0  0  0  0  0  0  0
    7.2516  -18.1458   26.5659 C   0  0  0  0  0  0  0  0  0  0  0  0
    7.4113  -17.8031   25.1138 C   0  0  0  0  0  0  0  0  0  0  0  0
    7.5347  -16.3256   24.8517 C   0  0  2  0  0  0  0  0  0  0  0  0
    7.8091  -16.0961   23.4286 N   0  0  0  0  0  0  0  0  0  0  0  0
    8.6374  -15.7709   25.6733 C   0  0  0  0  0  0  0  0  0  0  0  0
    9.8288  -15.9241   25.3300 O   0  0  0  0  0  0  0  0  0  0  0  0
    9.1055  -13.2459   28.3784 C   0  0  0  0  0  0  0  0  0  0  0  0
    9.5124  -14.4659   27.5716 C   0  0  2  0  0  0  0  0  0  0  0  0
    8.3911  -15.0467   26.8774 N   0  0  0  0  0  0  0  0  0  0  0  0
   10.0632  -15.4429   28.5407 C   0  0  0  0  0  0  0  0  0  0  0  0
   11.0241  -15.0973   29.2687 O   0  0  0  0  0  0  0  0  0  0  0  0
    9.5682  -16.7283   28.6853 O   0  0  0  0  0  0  0  0  0  0  0  0
  1  2  1  0
  2  3  1  0
  4  3  1  0
  5  1  1  0
  5  6  1  1
  5  4  1  0
  6 14  1  0
  7  6  2  0
  9 11  1  0
  9  8  1  0
 10  9  2  0
 12 11  1  0
 13 12  1  6
 14 13  1  0
 15 13  1  0
 16 15  2  0
 18 17  1  1
 18 20  1  0
 18 19  1  0
 19 15  1  0
 20 22  1  0
 21 20  2  0
M  END
$$$$
