QWY.pdb
     RDKit          3D

 36 38  0  0  1  0  0  0  0  0999 V2000
   25.9035  -24.7070  -15.5730 N   0  0  0  0  0  0  0  0  0  0  0  0
   27.0894  -24.0357  -15.9409 C   0  0  0  0  0  0  0  0  0  0  0  0
   27.9274  -24.5818  -16.6825 O   0  0  0  0  0  0  0  0  0  0  0  0
   27.3325  -22.6708  -15.4370 C   0  0  0  0  0  0  0  0  0  0  0  0
   26.2116  -22.1676  -14.5725 C   0  0  0  0  0  0  0  0  0  0  0  0
   25.0995  -21.6527  -15.4586 C   0  0  2  0  0  0  0  0  0  0  0  0
   25.5620  -20.4447  -16.1328 N   0  0  0  0  0  0  0  0  0  0  0  0
   23.8979  -21.2758  -14.6684 C   0  0  0  0  0  0  0  0  0  0  0  0
   23.9090  -20.2987  -13.8448 O   0  0  0  0  0  0  0  0  0  0  0  0
   22.6686  -21.9841  -14.7870 N   0  0  0  0  0  0  0  0  0  0  0  0
   21.4354  -21.5777  -14.1620 C   0  0  1  0  0  0  0  0  0  0  0  0
   20.5432  -20.8252  -15.0682 C   0  0  0  0  0  0  0  0  0  0  0  0
   20.9062  -19.4688  -15.4300 C   0  0  0  0  0  0  0  0  0  0  0  0
   20.8195  -18.3108  -14.6651 C   0  0  0  0  0  0  0  0  0  0  0  0
   21.2476  -17.2709  -15.4007 N   0  0  0  0  0  0  0  0  0  0  0  0
   21.6084  -17.7095  -16.6109 C   0  0  0  0  0  0  0  0  0  0  0  0
   22.1147  -17.0223  -17.7054 C   0  0  0  0  0  0  0  0  0  0  0  0
   22.4335  -17.6679  -18.8694 C   0  0  0  0  0  0  0  0  0  0  0  0
   22.2438  -19.0217  -18.9420 C   0  0  0  0  0  0  0  0  0  0  0  0
   21.7397  -19.6895  -17.8456 C   0  0  0  0  0  0  0  0  0  0  0  0
   21.4035  -19.0838  -16.6527 C   0  0  0  0  0  0  0  0  0  0  0  0
   20.7881  -22.6863  -13.4265 C   0  0  0  0  0  0  0  0  0  0  0  0
   20.8240  -23.8381  -13.9250 O   0  0  0  0  0  0  0  0  0  0  0  0
   16.2961  -26.9184   -6.9868 O   0  0  0  0  0  0  0  0  0  0  0  0
   16.9573  -25.9743   -7.7641 C   0  0  0  0  0  0  0  0  0  0  0  0
   16.2848  -24.9958   -8.4743 C   0  0  0  0  0  0  0  0  0  0  0  0
   16.9500  -24.0572   -9.2477 C   0  0  0  0  0  0  0  0  0  0  0  0
   18.3178  -24.0789   -9.3271 C   0  0  0  0  0  0  0  0  0  0  0  0
   19.1143  -23.1312  -10.1197 C   0  0  0  0  0  0  0  0  0  0  0  0
   19.4425  -23.6248  -11.5074 C   0  0  2  0  0  0  0  0  0  0  0  0
   20.1229  -22.5378  -12.1837 N   0  0  0  0  0  0  0  0  0  0  0  0
   18.2916  -24.1196  -12.2622 C   0  0  0  0  0  0  0  0  0  0  0  0
   18.0982  -25.4865  -12.3908 O   0  0  0  0  0  0  0  0  0  0  0  0
   18.9996  -25.0638   -8.6127 C   0  0  0  0  0  0  0  0  0  0  0  0
   18.3411  -25.9956   -7.8451 C   0  0  0  0  0  0  0  0  0  0  0  0
   17.4567  -23.3591  -12.8082 O   0  0  0  0  0  0  0  0  0  0  0  0
  2  1  1  0
  3  2  2  0
  4  2  1  0
  5  4  1  0
  6  5  1  0
  6  7  1  1
  8  6  1  0
  8  9  2  0
 10  8  1  0
 11 10  1  0
 11 12  1  6
 12 13  1  0
 13 14  2  0
 13 21  1  0
 14 15  1  0
 15 16  1  0
 16 17  2  0
 17 18  1  0
 19 18  2  0
 20 19  1  0
 21 20  2  0
 21 16  1  0
 22 11  1  0
 23 22  2  0
 25 24  1  0
 25 35  2  0
 26 25  1  0
 27 26  2  0
 27 28  1  0
 28 34  2  0
 29 28  1  0
 30 29  1  1
 30 31  1  0
 31 22  1  0
 32 33  1  0
 32 30  1  0
 34 35  1  0
 36 32  2  0
M  END
$$$$
