QWY.pdb
     RDKit          3D

 36 38  0  0  1  0  0  0  0  0999 V2000
   27.5194  -19.5098  -17.4604 N   0  0  0  0  0  0  0  0  0  0  0  0
   28.6393  -20.3357  -17.6973 C   0  0  0  0  0  0  0  0  0  0  0  0
   29.4402  -20.0762  -18.6147 O   0  0  0  0  0  0  0  0  0  0  0  0
   28.8572  -21.5189  -16.8439 C   0  0  0  0  0  0  0  0  0  0  0  0
   27.7784  -21.6925  -15.8130 C   0  0  0  0  0  0  0  0  0  0  0  0
   27.9461  -20.6374  -14.7425 C   0  0  2  0  0  0  0  0  0  0  0  0
   29.3522  -20.5824  -14.3584 N   0  0  0  0  0  0  0  0  0  0  0  0
   27.1740  -20.9715  -13.5167 C   0  0  0  0  0  0  0  0  0  0  0  0
   25.9573  -21.3587  -13.5683 O   0  0  0  0  0  0  0  0  0  0  0  0
   27.7494  -20.8777  -12.2179 N   0  0  0  0  0  0  0  0  0  0  0  0
   27.0272  -21.1098  -10.9927 C   0  0  1  0  0  0  0  0  0  0  0  0
   27.8698  -20.9791   -9.7858 C   0  0  0  0  0  0  0  0  0  0  0  0
   27.2203  -20.9028   -8.4917 C   0  0  0  0  0  0  0  0  0  0  0  0
   25.9043  -21.2041   -8.1588 C   0  0  0  0  0  0  0  0  0  0  0  0
   25.7241  -20.9742   -6.8471 N   0  0  0  0  0  0  0  0  0  0  0  0
   26.8709  -20.5366   -6.3176 C   0  0  0  0  0  0  0  0  0  0  0  0
   27.1829  -20.1760   -5.0140 C   0  0  0  0  0  0  0  0  0  0  0  0
   28.4390  -19.7547   -4.6703 C   0  0  0  0  0  0  0  0  0  0  0  0
   29.3995  -19.6925   -5.6438 C   0  0  0  0  0  0  0  0  0  0  0  0
   29.0730  -20.0541   -6.9341 C   0  0  0  0  0  0  0  0  0  0  0  0
   27.8231  -20.4839   -7.3290 C   0  0  0  0  0  0  0  0  0  0  0  0
   25.7493  -20.3657  -10.9460 C   0  0  0  0  0  0  0  0  0  0  0  0
   25.7861  -19.1106  -10.9460 O   0  0  0  0  0  0  0  0  0  0  0  0
   18.7977  -17.6514  -15.0651 O   0  0  0  0  0  0  0  0  0  0  0  0
   19.9597  -18.1386  -14.4775 C   0  0  0  0  0  0  0  0  0  0  0  0
   20.9708  -17.3061  -14.0318 C   0  0  0  0  0  0  0  0  0  0  0  0
   22.1271  -17.7982  -13.4466 C   0  0  0  0  0  0  0  0  0  0  0  0
   22.2972  -19.1492  -13.2938 C   0  0  0  0  0  0  0  0  0  0  0  0
   23.4851  -19.7690  -12.6893 C   0  0  0  0  0  0  0  0  0  0  0  0
   23.2500  -20.3044  -11.2983 C   0  0  2  0  0  0  0  0  0  0  0  0
   24.4714  -20.9771  -10.9012 N   0  0  0  0  0  0  0  0  0  0  0  0
   22.0723  -21.1624  -11.1706 C   0  0  0  0  0  0  0  0  0  0  0  0
   20.9369  -20.6716  -10.5444 O   0  0  0  0  0  0  0  0  0  0  0  0
   21.2803  -19.9920  -13.7419 C   0  0  0  0  0  0  0  0  0  0  0  0
   20.1326  -19.5053  -14.3225 C   0  0  0  0  0  0  0  0  0  0  0  0
   22.0358  -22.3385  -11.6053 O   0  0  0  0  0  0  0  0  0  0  0  0
  2  1  1  0
  3  2  2  0
  4  2  1  0
  5  4  1  0
  6  5  1  0
  6  7  1  1
  8  6  1  0
  8  9  2  0
 10  8  1  0
 11 10  1  0
 11 12  1  1
 12 13  1  0
 13 14  2  0
 13 21  1  0
 14 15  1  0
 15 16  1  0
 16 17  2  0
 17 18  1  0
 19 18  2  0
 20 19  1  0
 21 20  2  0
 21 16  1  0
 22 11  1  0
 23 22  2  0
 25 24  1  0
 25 35  2  0
 26 25  1  0
 27 26  2  0
 27 28  1  0
 28 34  2  0
 29 28  1  0
 30 29  1  6
 30 31  1  0
 31 22  1  0
 32 33  1  0
 32 30  1  0
 34 35  1  0
 36 32  2  0
M  END
$$$$
