QWY.pdb
     RDKit          3D

 36 38  0  0  1  0  0  0  0  0999 V2000
   27.2760  -22.0761  -16.9682 N   0  0  0  0  0  0  0  0  0  0  0  0
   28.5544  -21.5305  -16.7228 C   0  0  0  0  0  0  0  0  0  0  0  0
   29.2520  -21.0949  -17.6577 O   0  0  0  0  0  0  0  0  0  0  0  0
   29.0640  -21.4789  -15.3395 C   0  0  0  0  0  0  0  0  0  0  0  0
   28.0995  -22.0650  -14.3479 C   0  0  0  0  0  0  0  0  0  0  0  0
   27.1373  -20.9873  -13.9009 C   0  0  2  0  0  0  0  0  0  0  0  0
   27.9026  -19.7988  -13.5413 N   0  0  0  0  0  0  0  0  0  0  0  0
   26.3776  -21.3971  -12.6904 C   0  0  0  0  0  0  0  0  0  0  0  0
   25.7872  -22.5278  -12.6130 O   0  0  0  0  0  0  0  0  0  0  0  0
   26.2670  -20.5508  -11.5510 N   0  0  0  0  0  0  0  0  0  0  0  0
   25.3243  -20.7525  -10.4800 C   0  0  1  0  0  0  0  0  0  0  0  0
   25.8317  -20.3076   -9.1654 C   0  0  0  0  0  0  0  0  0  0  0  0
   27.1756  -20.6881   -8.7759 C   0  0  0  0  0  0  0  0  0  0  0  0
   28.0904  -21.4785   -9.4629 C   0  0  0  0  0  0  0  0  0  0  0  0
   29.2094  -21.5877   -8.7270 N   0  0  0  0  0  0  0  0  0  0  0  0
   29.0558  -20.8994   -7.5913 C   0  0  0  0  0  0  0  0  0  0  0  0
   29.9263  -20.7090   -6.5271 C   0  0  0  0  0  0  0  0  0  0  0  0
   29.5749  -19.9503   -5.4435 C   0  0  0  0  0  0  0  0  0  0  0  0
   28.3342  -19.3720   -5.4219 C   0  0  0  0  0  0  0  0  0  0  0  0
   27.4812  -19.5714   -6.4872 C   0  0  0  0  0  0  0  0  0  0  0  0
   27.7891  -20.3267   -7.5996 C   0  0  0  0  0  0  0  0  0  0  0  0
   23.9710  -20.2642  -10.8251 C   0  0  0  0  0  0  0  0  0  0  0  0
   23.8135  -19.0374  -11.0411 O   0  0  0  0  0  0  0  0  0  0  0  0
   18.1089  -19.1075  -16.8354 O   0  0  0  0  0  0  0  0  0  0  0  0
   19.1030  -19.4073  -15.9111 C   0  0  0  0  0  0  0  0  0  0  0  0
   19.5864  -18.4730  -15.0124 C   0  0  0  0  0  0  0  0  0  0  0  0
   20.5780  -18.7783  -14.0930 C   0  0  0  0  0  0  0  0  0  0  0  0
   21.1125  -20.0394  -14.0539 C   0  0  0  0  0  0  0  0  0  0  0  0
   22.1667  -20.4611  -13.1204 C   0  0  0  0  0  0  0  0  0  0  0  0
   21.6643  -20.7528  -11.7277 C   0  0  2  0  0  0  0  0  0  0  0  0
   22.8266  -21.0936  -10.9308 N   0  0  0  0  0  0  0  0  0  0  0  0
   20.6217  -21.7765  -11.6619 C   0  0  0  0  0  0  0  0  0  0  0  0
   19.3079  -21.3968  -11.4342 O   0  0  0  0  0  0  0  0  0  0  0  0
   20.6280  -20.9843  -14.9582 C   0  0  0  0  0  0  0  0  0  0  0  0
   19.6443  -20.6829  -15.8707 C   0  0  0  0  0  0  0  0  0  0  0  0
   20.8584  -23.0002  -11.8032 O   0  0  0  0  0  0  0  0  0  0  0  0
  2  1  1  0
  3  2  2  0
  4  2  1  0
  5  4  1  0
  6  5  1  0
  6  7  1  1
  8  6  1  0
  8  9  2  0
 10  8  1  0
 11 10  1  0
 11 12  1  1
 12 13  1  0
 13 14  2  0
 13 21  1  0
 14 15  1  0
 15 16  1  0
 16 17  2  0
 17 18  1  0
 19 18  2  0
 20 19  1  0
 21 20  2  0
 21 16  1  0
 22 11  1  0
 23 22  2  0
 25 24  1  0
 25 35  2  0
 26 25  1  0
 27 26  2  0
 27 28  1  0
 28 34  2  0
 29 28  1  0
 30 29  1  6
 30 31  1  0
 31 22  1  0
 32 33  1  0
 32 30  1  0
 34 35  1  0
 36 32  2  0
M  END
$$$$
