QWY.pdb
     RDKit          3D

 36 38  0  0  1  0  0  0  0  0999 V2000
   17.6455   -8.1914  -17.9650 N   0  0  0  0  0  0  0  0  0  0  0  0
   17.3004   -9.4862  -18.4085 C   0  0  0  0  0  0  0  0  0  0  0  0
   17.7272   -9.9234  -19.4935 O   0  0  0  0  0  0  0  0  0  0  0  0
   16.4231  -10.3261  -17.5715 C   0  0  0  0  0  0  0  0  0  0  0  0
   15.8831   -9.5870  -16.3803 C   0  0  0  0  0  0  0  0  0  0  0  0
   16.7136   -9.9372  -15.1658 C   0  0  2  0  0  0  0  0  0  0  0  0
   17.0241  -11.3618  -15.2082 N   0  0  0  0  0  0  0  0  0  0  0  0
   15.9691   -9.6926  -13.9024 C   0  0  0  0  0  0  0  0  0  0  0  0
   14.9600  -10.4000  -13.5642 O   0  0  0  0  0  0  0  0  0  0  0  0
   16.3408   -8.6557  -13.0005 N   0  0  0  0  0  0  0  0  0  0  0  0
   15.6264   -8.3402  -11.7894 C   0  0  1  0  0  0  0  0  0  0  0  0
   16.5094   -7.8984  -10.6901 C   0  0  0  0  0  0  0  0  0  0  0  0
   15.9082   -7.5305   -9.4229 C   0  0  0  0  0  0  0  0  0  0  0  0
   15.5432   -8.3512   -8.3615 C   0  0  0  0  0  0  0  0  0  0  0  0
   15.0047   -7.5933   -7.3912 N   0  0  0  0  0  0  0  0  0  0  0  0
   15.0069   -6.3148   -7.7820 C   0  0  0  0  0  0  0  0  0  0  0  0
   14.5660   -5.1716   -7.1300 C   0  0  0  0  0  0  0  0  0  0  0  0
   14.6662   -3.9353   -7.7088 C   0  0  0  0  0  0  0  0  0  0  0  0
   15.2156   -3.8387   -8.9590 C   0  0  0  0  0  0  0  0  0  0  0  0
   15.6486   -4.9844   -9.5931 C   0  0  0  0  0  0  0  0  0  0  0  0
   15.5686   -6.2507   -9.0519 C   0  0  0  0  0  0  0  0  0  0  0  0
   14.4567   -7.4695  -12.0395 C   0  0  0  0  0  0  0  0  0  0  0  0
   14.6145   -6.4408  -12.7419 O   0  0  0  0  0  0  0  0  0  0  0  0
    8.6598  -11.4874   -8.9220 O   0  0  0  0  0  0  0  0  0  0  0  0
    9.2368  -10.5550   -9.7765 C   0  0  0  0  0  0  0  0  0  0  0  0
   10.2288  -10.8913  -10.6803 C   0  0  0  0  0  0  0  0  0  0  0  0
   10.8002   -9.9567  -11.5298 C   0  0  0  0  0  0  0  0  0  0  0  0
   10.3858   -8.6512  -11.4917 C   0  0  0  0  0  0  0  0  0  0  0  0
   10.9292   -7.5867  -12.3475 C   0  0  0  0  0  0  0  0  0  0  0  0
   12.0453   -6.8005  -11.7047 C   0  0  2  0  0  0  0  0  0  0  0  0
   13.1551   -7.7181  -11.5364 N   0  0  0  0  0  0  0  0  0  0  0  0
   11.6760   -6.1349  -10.4558 C   0  0  0  0  0  0  0  0  0  0  0  0
   12.3360   -6.4714   -9.2838 O   0  0  0  0  0  0  0  0  0  0  0  0
    9.3858   -8.3079  -10.5820 C   0  0  0  0  0  0  0  0  0  0  0  0
    8.8181   -9.2339   -9.7387 C   0  0  0  0  0  0  0  0  0  0  0  0
   10.7786   -5.2610  -10.3888 O   0  0  0  0  0  0  0  0  0  0  0  0
  2  1  1  0
  3  2  2  0
  4  2  1  0
  5  4  1  0
  6  5  1  0
  6  7  1  6
  8  6  1  0
  8  9  2  0
 10  8  1  0
 11 10  1  0
 11 12  1  1
 12 13  1  0
 13 14  2  0
 13 21  1  0
 14 15  1  0
 15 16  1  0
 16 17  2  0
 17 18  1  0
 19 18  2  0
 20 19  1  0
 21 20  2  0
 21 16  1  0
 22 11  1  0
 23 22  2  0
 25 24  1  0
 25 35  2  0
 26 25  1  0
 27 26  2  0
 27 28  1  0
 28 34  2  0
 29 28  1  0
 30 29  1  1
 30 31  1  0
 31 22  1  0
 32 33  1  0
 32 30  1  0
 34 35  1  0
 36 32  2  0
M  END
$$$$
