QWY.pdb
     RDKit          3D

 36 38  0  0  1  0  0  0  0  0999 V2000
   24.3612  -20.4755  -24.5631 N   0  0  0  0  0  0  0  0  0  0  0  0
   24.6427  -21.7797  -24.1024 C   0  0  0  0  0  0  0  0  0  0  0  0
   25.2651  -22.5877  -24.8165 O   0  0  0  0  0  0  0  0  0  0  0  0
   24.1909  -22.1835  -22.7575 C   0  0  0  0  0  0  0  0  0  0  0  0
   23.3734  -21.1202  -22.0808 C   0  0  0  0  0  0  0  0  0  0  0  0
   24.1202  -20.6263  -20.8619 C   0  0  2  0  0  0  0  0  0  0  0  0
   24.1399  -21.6903  -19.8644 N   0  0  0  0  0  0  0  0  0  0  0  0
   23.4424  -19.4592  -20.2383 C   0  0  0  0  0  0  0  0  0  0  0  0
   22.5752  -19.5972  -19.3099 O   0  0  0  0  0  0  0  0  0  0  0  0
   23.7235  -18.1234  -20.6426 N   0  0  0  0  0  0  0  0  0  0  0  0
   23.0626  -16.9591  -20.1094 C   0  0  1  0  0  0  0  0  0  0  0  0
   23.8351  -15.7134  -20.2970 C   0  0  0  0  0  0  0  0  0  0  0  0
   23.2363  -14.4580  -19.8874 C   0  0  0  0  0  0  0  0  0  0  0  0
   23.3313  -13.8066  -18.6626 C   0  0  0  0  0  0  0  0  0  0  0  0
   22.6034  -12.6782  -18.7127 N   0  0  0  0  0  0  0  0  0  0  0  0
   22.0414  -12.5728  -19.9211 C   0  0  0  0  0  0  0  0  0  0  0  0
   21.2162  -11.5898  -20.4495 C   0  0  0  0  0  0  0  0  0  0  0  0
   20.7457  -11.6654  -21.7326 C   0  0  0  0  0  0  0  0  0  0  0  0
   21.1051  -12.7400  -22.5009 C   0  0  0  0  0  0  0  0  0  0  0  0
   21.9256  -13.7081  -21.9606 C   0  0  0  0  0  0  0  0  0  0  0  0
   22.4239  -13.6765  -20.6748 C   0  0  0  0  0  0  0  0  0  0  0  0
   21.6437  -16.8823  -20.5214 C   0  0  0  0  0  0  0  0  0  0  0  0
   21.3438  -17.1962  -21.6995 O   0  0  0  0  0  0  0  0  0  0  0  0
   15.9913  -20.8593  -16.6936 O   0  0  0  0  0  0  0  0  0  0  0  0
   16.7249  -20.1388  -17.6293 C   0  0  0  0  0  0  0  0  0  0  0  0
   18.0830  -20.3287  -17.8128 C   0  0  0  0  0  0  0  0  0  0  0  0
   18.8089  -19.6070  -18.7476 C   0  0  0  0  0  0  0  0  0  0  0  0
   18.1833  -18.6695  -19.5269 C   0  0  0  0  0  0  0  0  0  0  0  0
   18.8631  -17.8525  -20.5423 C   0  0  0  0  0  0  0  0  0  0  0  0
   19.1952  -16.4562  -20.0764 C   0  0  2  0  0  0  0  0  0  0  0  0
   20.5867  -16.4751  -19.6694 N   0  0  0  0  0  0  0  0  0  0  0  0
   18.3135  -15.9413  -19.0292 C   0  0  0  0  0  0  0  0  0  0  0  0
   16.9623  -15.7802  -19.2950 O   0  0  0  0  0  0  0  0  0  0  0  0
   16.8142  -18.4749  -19.3450 C   0  0  0  0  0  0  0  0  0  0  0  0
   16.0928  -19.1901  -18.4181 C   0  0  0  0  0  0  0  0  0  0  0  0
   18.7229  -15.6330  -17.8844 O   0  0  0  0  0  0  0  0  0  0  0  0
  2  1  1  0
  3  2  2  0
  4  2  1  0
  5  4  1  0
  6  5  1  0
  6  7  1  1
  8  6  1  0
  8  9  2  0
 10  8  1  0
 11 10  1  0
 11 12  1  6
 12 13  1  0
 13 14  2  0
 13 21  1  0
 14 15  1  0
 15 16  1  0
 16 17  2  0
 17 18  1  0
 19 18  2  0
 20 19  1  0
 21 20  2  0
 21 16  1  0
 22 11  1  0
 23 22  2  0
 25 24  1  0
 25 35  2  0
 26 25  1  0
 27 26  2  0
 27 28  1  0
 28 34  2  0
 29 28  1  0
 30 29  1  1
 30 31  1  0
 31 22  1  0
 32 33  1  0
 32 30  1  0
 34 35  1  0
 36 32  2  0
M  END
$$$$
