QWY.pdb
     RDKit          3D

 36 38  0  0  1  0  0  0  0  0999 V2000
   18.4580   -9.2341  -21.5466 N   0  0  0  0  0  0  0  0  0  0  0  0
   18.9202  -10.3155  -20.7659 C   0  0  0  0  0  0  0  0  0  0  0  0
   18.2528  -10.7384  -19.8036 O   0  0  0  0  0  0  0  0  0  0  0  0
   20.2105  -10.9474  -21.0999 C   0  0  0  0  0  0  0  0  0  0  0  0
   20.8655  -10.3217  -22.2984 C   0  0  0  0  0  0  0  0  0  0  0  0
   22.3129  -10.0290  -21.9717 C   0  0  2  0  0  0  0  0  0  0  0  0
   22.9294  -11.2457  -21.4548 N   0  0  0  0  0  0  0  0  0  0  0  0
   22.4380   -8.9946  -20.9113 C   0  0  0  0  0  0  0  0  0  0  0  0
   22.7596   -9.2921  -19.7108 O   0  0  0  0  0  0  0  0  0  0  0  0
   22.2061   -7.6153  -21.1766 N   0  0  0  0  0  0  0  0  0  0  0  0
   22.3353   -6.5682  -20.1951 C   0  0  1  0  0  0  0  0  0  0  0  0
   22.3355   -5.2133  -20.7848 C   0  0  0  0  0  0  0  0  0  0  0  0
   22.5486   -4.0764  -19.9105 C   0  0  0  0  0  0  0  0  0  0  0  0
   22.8314   -4.0660  -18.5491 C   0  0  0  0  0  0  0  0  0  0  0  0
   22.9343   -2.7913  -18.1362 N   0  0  0  0  0  0  0  0  0  0  0  0
   22.7299   -1.9763  -19.1759 C   0  0  0  0  0  0  0  0  0  0  0  0
   22.7396   -0.5903  -19.2512 C   0  0  0  0  0  0  0  0  0  0  0  0
   22.5108    0.0627  -20.4321 C   0  0  0  0  0  0  0  0  0  0  0  0
   22.2687   -0.6799  -21.5564 C   0  0  0  0  0  0  0  0  0  0  0  0
   22.2623   -2.0560  -21.4644 C   0  0  0  0  0  0  0  0  0  0  0  0
   22.4865   -2.7588  -20.2988 C   0  0  0  0  0  0  0  0  0  0  0  0
   21.4119   -6.7527  -19.0539 C   0  0  0  0  0  0  0  0  0  0  0  0
   20.1959   -6.9538  -19.2933 O   0  0  0  0  0  0  0  0  0  0  0  0
   17.8600   -8.9126  -11.3195 O   0  0  0  0  0  0  0  0  0  0  0  0
   18.6111   -8.7257  -12.4743 C   0  0  0  0  0  0  0  0  0  0  0  0
   18.0727   -8.8694  -13.7407 C   0  0  0  0  0  0  0  0  0  0  0  0
   18.8272   -8.6817  -14.8884 C   0  0  0  0  0  0  0  0  0  0  0  0
   20.1512   -8.3424  -14.7912 C   0  0  0  0  0  0  0  0  0  0  0  0
   21.0348   -8.1241  -15.9453 C   0  0  0  0  0  0  0  0  0  0  0  0
   20.8719   -6.7683  -16.5876 C   0  0  2  0  0  0  0  0  0  0  0  0
   21.8082   -6.7185  -17.6935 N   0  0  0  0  0  0  0  0  0  0  0  0
   21.0302   -5.6404  -15.6700 C   0  0  0  0  0  0  0  0  0  0  0  0
   19.9035   -5.0022  -15.1746 O   0  0  0  0  0  0  0  0  0  0  0  0
   20.6979   -8.1966  -13.5164 C   0  0  0  0  0  0  0  0  0  0  0  0
   19.9507   -8.3825  -12.3769 C   0  0  0  0  0  0  0  0  0  0  0  0
   22.1508   -5.2136  -15.3018 O   0  0  0  0  0  0  0  0  0  0  0  0
  2  1  1  0
  3  2  2  0
  4  2  1  0
  5  4  1  0
  6  5  1  0
  6  7  1  1
  8  6  1  0
  8  9  2  0
 10  8  1  0
 11 10  1  0
 11 12  1  6
 12 13  1  0
 13 14  2  0
 13 21  1  0
 14 15  1  0
 15 16  1  0
 16 17  2  0
 17 18  1  0
 19 18  2  0
 20 19  1  0
 21 20  2  0
 21 16  1  0
 22 11  1  0
 23 22  2  0
 25 24  1  0
 25 35  2  0
 26 25  1  0
 27 26  2  0
 27 28  1  0
 28 34  2  0
 29 28  1  0
 30 29  1  1
 30 31  1  0
 31 22  1  0
 32 33  1  0
 32 30  1  0
 34 35  1  0
 36 32  2  0
M  END
$$$$
