NMY.pdb
     RDKit          3D

 29 29  0  0  1  0  0  0  0  0999 V2000
   10.3692  -16.2600   16.5233 N   0  0  0  0  0  0  0  0  0  0  0  0
    9.1421  -16.2186   17.2182 C   0  0  0  0  0  0  0  0  0  0  0  0
    8.1687  -16.8398   16.7102 O   0  0  0  0  0  0  0  0  0  0  0  0
    9.0307  -15.4642   18.4971 C   0  0  0  0  0  0  0  0  0  0  0  0
    8.9895  -16.4632   19.6063 C   0  0  2  0  0  0  0  0  0  0  0  0
    7.6974  -17.0688   19.6983 N   0  0  0  0  0  0  0  0  0  0  0  0
    9.4021  -15.8871   20.9237 C   0  0  0  0  0  0  0  0  0  0  0  0
   10.5652  -15.4671   21.0121 O   0  0  0  0  0  0  0  0  0  0  0  0
    6.4055  -11.2656   25.4938 C   0  0  0  0  0  0  0  0  0  0  0  0
    6.9119  -12.9766   25.7018 S   0  0  0  0  0  0  0  0  0  0  0  0
    7.1549  -13.6873   24.0266 C   0  0  0  0  0  0  0  0  0  0  0  0
    7.6156  -15.0835   24.2201 C   0  0  0  0  0  0  0  0  0  0  0  0
    8.8043  -15.4894   23.3635 C   0  0  2  0  0  0  0  0  0  0  0  0
    8.5033  -15.8256   22.0181 N   0  0  0  0  0  0  0  0  0  0  0  0
    9.6309  -16.4355   24.1126 C   0  0  0  0  0  0  0  0  0  0  0  0
    9.4517  -17.7000   24.0524 O   0  0  0  0  0  0  0  0  0  0  0  0
    9.4116  -15.1331   31.1242 O   0  0  0  0  0  0  0  0  0  0  0  0
   10.1556  -15.3933   29.9768 C   0  0  0  0  0  0  0  0  0  0  0  0
   10.0550  -14.5619   28.8934 C   0  0  0  0  0  0  0  0  0  0  0  0
   10.7991  -14.8361   27.7671 C   0  0  0  0  0  0  0  0  0  0  0  0
   11.6212  -15.9366   27.7633 C   0  0  0  0  0  0  0  0  0  0  0  0
   12.4189  -16.2612   26.5810 C   0  0  0  0  0  0  0  0  0  0  0  0
   11.6099  -17.0412   25.5742 C   0  0  2  0  0  0  0  0  0  0  0  0
   10.7044  -16.0426   24.9728 N   0  0  0  0  0  0  0  0  0  0  0  0
   10.8458  -18.0972   26.2595 C   0  0  0  0  0  0  0  0  0  0  0  0
    9.6303  -18.0207   26.4337 O   0  0  0  0  0  0  0  0  0  0  0  0
   11.7189  -16.7781   28.8687 C   0  0  0  0  0  0  0  0  0  0  0  0
   10.9813  -16.5036   29.9812 C   0  0  0  0  0  0  0  0  0  0  0  0
   11.5326  -19.2120   26.7201 O   0  0  0  0  0  0  0  0  0  0  0  0
  2  1  1  0
  3  2  2  0
  4  5  1  0
  4  2  1  0
  5  6  1  1
  7  5  1  0
  7  8  2  0
  9 10  1  0
 11 10  1  0
 12 11  1  0
 13 12  1  1
 13 14  1  0
 14  7  1  0
 15 24  1  0
 15 13  1  0
 16 15  2  0
 18 17  1  0
 19 18  2  0
 20 19  1  0
 21 20  2  0
 21 27  1  0
 22 21  1  0
 23 24  1  0
 23 22  1  1
 25 23  1  0
 26 25  2  0
 27 28  2  0
 28 18  1  0
 29 25  1  0
M  END
$$$$
