NMY.pdb
     RDKit          3D

 29 29  0  0  1  0  0  0  0  0999 V2000
    8.7128  -17.6013   17.1813 N   0  0  0  0  0  0  0  0  0  0  0  0
    8.5799  -16.1971   17.2100 C   0  0  0  0  0  0  0  0  0  0  0  0
    8.4695  -15.6041   16.1021 O   0  0  0  0  0  0  0  0  0  0  0  0
    8.5735  -15.4718   18.5103 C   0  0  0  0  0  0  0  0  0  0  0  0
    8.7943  -16.4805   19.5891 C   0  0  2  0  0  0  0  0  0  0  0  0
    7.5996  -17.2243   19.8428 N   0  0  0  0  0  0  0  0  0  0  0  0
    9.3231  -15.8763   20.8512 C   0  0  0  0  0  0  0  0  0  0  0  0
   10.5291  -15.5899   20.8730 O   0  0  0  0  0  0  0  0  0  0  0  0
    6.4942  -13.4510   26.7332 C   0  0  0  0  0  0  0  0  0  0  0  0
    7.0979  -12.5840   25.2802 S   0  0  0  0  0  0  0  0  0  0  0  0
    6.9892  -13.7439   23.8612 C   0  0  0  0  0  0  0  0  0  0  0  0
    7.7509  -14.9570   24.2448 C   0  0  0  0  0  0  0  0  0  0  0  0
    8.8776  -15.3317   23.2952 C   0  0  2  0  0  0  0  0  0  0  0  0
    8.4823  -15.6434   21.9685 N   0  0  0  0  0  0  0  0  0  0  0  0
    9.7660  -16.2836   23.9615 C   0  0  0  0  0  0  0  0  0  0  0  0
    9.6058  -17.5489   23.8730 O   0  0  0  0  0  0  0  0  0  0  0  0
    9.7497  -14.7754   30.9448 O   0  0  0  0  0  0  0  0  0  0  0  0
   10.4587  -15.0865   29.7880 C   0  0  0  0  0  0  0  0  0  0  0  0
   10.4278  -14.2339   28.7169 C   0  0  0  0  0  0  0  0  0  0  0  0
   11.1359  -14.5592   27.5810 C   0  0  0  0  0  0  0  0  0  0  0  0
   11.8531  -15.7305   27.5555 C   0  0  0  0  0  0  0  0  0  0  0  0
   12.6096  -16.1101   26.3626 C   0  0  0  0  0  0  0  0  0  0  0  0
   11.7552  -16.9022   25.4039 C   0  0  2  0  0  0  0  0  0  0  0  0
   10.8842  -15.8960   24.7654 N   0  0  0  0  0  0  0  0  0  0  0  0
   10.9569  -17.8910   26.1479 C   0  0  0  0  0  0  0  0  0  0  0  0
    9.7689  -17.7112   26.4123 O   0  0  0  0  0  0  0  0  0  0  0  0
   11.8804  -16.5931   28.6485 C   0  0  0  0  0  0  0  0  0  0  0  0
   11.1787  -16.2679   29.7706 C   0  0  0  0  0  0  0  0  0  0  0  0
   11.5782  -19.0620   26.5595 O   0  0  0  0  0  0  0  0  0  0  0  0
  2  1  1  0
  3  2  2  0
  4  5  1  0
  4  2  1  0
  5  6  1  1
  7  5  1  0
  7  8  2  0
  9 10  1  0
 11 10  1  0
 12 11  1  0
 13 12  1  1
 13 14  1  0
 14  7  1  0
 15 24  1  0
 15 13  1  0
 16 15  2  0
 18 17  1  0
 19 18  2  0
 20 19  1  0
 21 20  2  0
 21 27  1  0
 22 21  1  0
 23 24  1  0
 23 22  1  1
 25 23  1  0
 26 25  2  0
 27 28  2  0
 28 18  1  0
 29 25  1  0
M  END
$$$$
