NMY.pdb
     RDKit          3D

 29 29  0  0  1  0  0  0  0  0999 V2000
    9.3550  -18.6222   18.6853 N   0  0  0  0  0  0  0  0  0  0  0  0
   10.3240  -17.5991   18.6167 C   0  0  0  0  0  0  0  0  0  0  0  0
   11.0670  -17.5740   17.5975 O   0  0  0  0  0  0  0  0  0  0  0  0
   10.4414  -16.6037   19.7177 C   0  0  0  0  0  0  0  0  0  0  0  0
    9.4968  -17.0152   20.7987 C   0  0  2  0  0  0  0  0  0  0  0  0
    8.1407  -16.9046   20.3589 N   0  0  0  0  0  0  0  0  0  0  0  0
    9.7064  -16.2601   22.0728 C   0  0  0  0  0  0  0  0  0  0  0  0
   10.8618  -16.2273   22.5213 O   0  0  0  0  0  0  0  0  0  0  0  0
    6.1933  -11.1866   27.0722 C   0  0  0  0  0  0  0  0  0  0  0  0
    6.0229  -12.2679   25.6478 S   0  0  0  0  0  0  0  0  0  0  0  0
    7.5434  -13.2921   25.5480 C   0  0  0  0  0  0  0  0  0  0  0  0
    7.4661  -14.0442   24.2723 C   0  0  0  0  0  0  0  0  0  0  0  0
    8.6753  -14.9145   23.9687 C   0  0  2  0  0  0  0  0  0  0  0  0
    8.6324  -15.6134   22.7345 N   0  0  0  0  0  0  0  0  0  0  0  0
    9.0123  -15.6946   25.1592 C   0  0  0  0  0  0  0  0  0  0  0  0
    8.2327  -16.5881   25.6371 O   0  0  0  0  0  0  0  0  0  0  0  0
   13.4424  -19.5665   31.5549 O   0  0  0  0  0  0  0  0  0  0  0  0
   13.0944  -18.8393   30.4200 C   0  0  0  0  0  0  0  0  0  0  0  0
   14.0339  -18.5832   29.4573 C   0  0  0  0  0  0  0  0  0  0  0  0
   13.6704  -17.8619   28.3415 C   0  0  0  0  0  0  0  0  0  0  0  0
   12.3749  -17.4198   28.2268 C   0  0  0  0  0  0  0  0  0  0  0  0
   11.9574  -16.6445   27.0589 C   0  0  0  0  0  0  0  0  0  0  0  0
   10.4887  -16.3054   27.1257 C   0  0  2  0  0  0  0  0  0  0  0  0
   10.2298  -15.5350   25.8935 N   0  0  0  0  0  0  0  0  0  0  0  0
   10.2196  -15.4890   28.3214 C   0  0  0  0  0  0  0  0  0  0  0  0
    9.6914  -15.9554   29.3299 O   0  0  0  0  0  0  0  0  0  0  0  0
   11.4242  -17.6839   29.2097 C   0  0  0  0  0  0  0  0  0  0  0  0
   11.7875  -18.3980   30.3121 C   0  0  0  0  0  0  0  0  0  0  0  0
   10.5790  -14.1485   28.2966 O   0  0  0  0  0  0  0  0  0  0  0  0
  2  1  1  0
  3  2  2  0
  4  5  1  0
  4  2  1  0
  5  6  1  6
  7  5  1  0
  7  8  2  0
  9 10  1  0
 11 10  1  0
 12 11  1  0
 13 12  1  1
 13 14  1  0
 14  7  1  0
 15 24  1  0
 15 13  1  0
 16 15  2  0
 18 17  1  0
 19 18  2  0
 20 19  1  0
 21 20  2  0
 21 27  1  0
 22 21  1  0
 23 24  1  0
 23 22  1  6
 25 23  1  0
 26 25  2  0
 27 28  2  0
 28 18  1  0
 29 25  1  0
M  END
$$$$
