NMY.pdb
     RDKit          3D

 29 29  0  0  1  0  0  0  0  0999 V2000
    9.5705  -17.6795   16.3912 N   0  0  0  0  0  0  0  0  0  0  0  0
    8.5697  -17.3251   17.3204 C   0  0  0  0  0  0  0  0  0  0  0  0
    7.4671  -17.9331   17.2424 O   0  0  0  0  0  0  0  0  0  0  0  0
    8.8333  -16.2727   18.3401 C   0  0  0  0  0  0  0  0  0  0  0  0
    8.8188  -16.9314   19.6803 C   0  0  2  0  0  0  0  0  0  0  0  0
    7.5276  -17.4752   19.9663 N   0  0  0  0  0  0  0  0  0  0  0  0
    9.2690  -16.0228   20.7800 C   0  0  0  0  0  0  0  0  0  0  0  0
   10.4917  -15.8645   20.9109 O   0  0  0  0  0  0  0  0  0  0  0  0
    5.9244  -12.6030   26.0376 C   0  0  0  0  0  0  0  0  0  0  0  0
    6.8515  -11.8500   24.6957 S   0  0  0  0  0  0  0  0  0  0  0  0
    6.7418  -12.9761   23.2498 C   0  0  0  0  0  0  0  0  0  0  0  0
    7.4156  -14.2376   23.6416 C   0  0  0  0  0  0  0  0  0  0  0  0
    8.6208  -14.6094   22.7925 C   0  0  2  0  0  0  0  0  0  0  0  0
    8.3391  -15.3745   21.6311 N   0  0  0  0  0  0  0  0  0  0  0  0
    9.6861  -15.1009   23.6660 C   0  0  0  0  0  0  0  0  0  0  0  0
   10.8254  -14.5265   23.7482 O   0  0  0  0  0  0  0  0  0  0  0  0
   11.8519  -16.3371   31.8251 O   0  0  0  0  0  0  0  0  0  0  0  0
   11.2446  -16.2436   30.5761 C   0  0  0  0  0  0  0  0  0  0  0  0
   10.6967  -17.3569   29.9971 C   0  0  0  0  0  0  0  0  0  0  0  0
   10.1002  -17.2443   28.7605 C   0  0  0  0  0  0  0  0  0  0  0  0
   10.0725  -16.0174   28.1434 C   0  0  0  0  0  0  0  0  0  0  0  0
    9.4543  -15.8643   26.8266 C   0  0  0  0  0  0  0  0  0  0  0  0
   10.3506  -16.3998   25.7375 C   0  0  2  0  0  0  0  0  0  0  0  0
    9.5578  -16.2557   24.5008 N   0  0  0  0  0  0  0  0  0  0  0  0
   10.6621  -17.8151   25.9993 C   0  0  0  0  0  0  0  0  0  0  0  0
    9.9116  -18.7273   25.6556 O   0  0  0  0  0  0  0  0  0  0  0  0
   10.6316  -14.8889   28.7379 C   0  0  0  0  0  0  0  0  0  0  0  0
   11.2207  -15.0042   29.9614 C   0  0  0  0  0  0  0  0  0  0  0  0
   11.8465  -18.1166   26.6574 O   0  0  0  0  0  0  0  0  0  0  0  0
  2  1  1  0
  3  2  2  0
  4  5  1  0
  4  2  1  0
  5  6  1  1
  7  5  1  0
  7  8  2  0
  9 10  1  0
 11 10  1  0
 12 11  1  0
 13 12  1  1
 13 14  1  0
 14  7  1  0
 15 24  1  0
 15 13  1  0
 16 15  2  0
 18 17  1  0
 19 18  2  0
 20 19  1  0
 21 20  2  0
 21 27  1  0
 22 21  1  0
 23 24  1  0
 23 22  1  1
 25 23  1  0
 26 25  2  0
 27 28  2  0
 28 18  1  0
 29 25  1  0
M  END
$$$$
