TQS.pdb
     RDKit          3D

 23 22  0  0  1  0  0  0  0  0999 V2000
    8.5892  -12.7753   20.6247 C   0  0  0  0  0  0  0  0  0  0  0  0
    7.8869  -13.6416   19.6169 C   0  0  1  0  0  0  0  0  0  0  0  0
    8.5064  -13.5864   18.3636 O   0  0  0  0  0  0  0  0  0  0  0  0
    7.9330  -15.0681   20.0919 C   0  0  2  0  0  0  0  0  0  0  0  0
    7.3501  -15.9852   19.1536 N   0  0  0  0  0  0  0  0  0  0  0  0
    7.2541  -15.1904   21.3932 C   0  0  0  0  0  0  0  0  0  0  0  0
    6.0036  -15.0304   21.4819 O   0  0  0  0  0  0  0  0  0  0  0  0
    8.6535  -19.5158   25.3157 N   0  0  0  0  0  0  0  0  0  0  0  0
    7.7247  -18.7609   26.0823 C   0  0  0  0  0  0  0  0  0  0  0  0
    7.2929  -19.2449   27.1553 O   0  0  0  0  0  0  0  0  0  0  0  0
    7.2581  -17.4264   25.6478 C   0  0  0  0  0  0  0  0  0  0  0  0
    7.8507  -17.1203   24.2921 C   0  0  0  0  0  0  0  0  0  0  0  0
    7.3823  -15.7460   23.8284 C   0  0  2  0  0  0  0  0  0  0  0  0
    8.0168  -15.4904   22.5519 N   0  0  0  0  0  0  0  0  0  0  0  0
    7.8313  -14.7167   24.7985 C   0  0  0  0  0  0  0  0  0  0  0  0
    9.0251  -14.3271   24.8185 O   0  0  0  0  0  0  0  0  0  0  0  0
    5.7504  -11.5824   26.3825 O   0  0  0  0  0  0  0  0  0  0  0  0
    6.2343  -12.4662   27.3628 C   0  0  0  0  0  0  0  0  0  0  0  0
    7.4304  -13.1892   26.7308 C   0  0  2  0  0  0  0  0  0  0  0  0
    6.9365  -14.1321   25.7393 N   0  0  0  0  0  0  0  0  0  0  0  0
    8.1404  -13.8852   27.8156 C   0  0  0  0  0  0  0  0  0  0  0  0
    8.6125  -13.1743   28.8922 O   0  0  0  0  0  0  0  0  0  0  0  0
    8.3146  -15.1150   27.7613 O   0  0  0  0  0  0  0  0  0  0  0  0
  2  1  1  1
  2  3  1  0
  4  5  1  6
  4  2  1  0
  6  7  2  0
  6  4  1  0
  8  9  1  0
  9 10  2  0
  9 11  1  0
 11 12  1  0
 13 12  1  1
 13 15  1  0
 13 14  1  0
 14  6  1  0
 15 20  1  0
 16 15  2  0
 18 17  1  0
 19 18  1  1
 19 21  1  0
 20 19  1  0
 21 23  2  0
 21 22  1  0
M  END
$$$$
