TQS.pdb
     RDKit          3D

 23 22  0  0  1  0  0  0  0  0999 V2000
    8.7978  -12.4913   20.3363 C   0  0  0  0  0  0  0  0  0  0  0  0
    8.1581  -13.1303   19.1355 C   0  0  1  0  0  0  0  0  0  0  0  0
    8.6671  -12.6129   17.9393 O   0  0  0  0  0  0  0  0  0  0  0  0
    8.4503  -14.6056   19.1613 C   0  0  2  0  0  0  0  0  0  0  0  0
    7.8619  -15.3079   18.0560 N   0  0  0  0  0  0  0  0  0  0  0  0
    7.9818  -15.1921   20.4285 C   0  0  0  0  0  0  0  0  0  0  0  0
    6.7469  -15.3553   20.6421 O   0  0  0  0  0  0  0  0  0  0  0  0
    7.6297  -18.9216   24.4261 N   0  0  0  0  0  0  0  0  0  0  0  0
    7.8054  -19.2643   23.0579 C   0  0  0  0  0  0  0  0  0  0  0  0
    7.1779  -20.2465   22.5961 O   0  0  0  0  0  0  0  0  0  0  0  0
    8.7051  -18.4950   22.1712 C   0  0  0  0  0  0  0  0  0  0  0  0
    9.3100  -17.3566   22.9593 C   0  0  0  0  0  0  0  0  0  0  0  0
    8.5162  -16.0807   22.7045 C   0  0  2  0  0  0  0  0  0  0  0  0
    8.9305  -15.5747   21.4124 N   0  0  0  0  0  0  0  0  0  0  0  0
    8.8523  -15.0734   23.7410 C   0  0  0  0  0  0  0  0  0  0  0  0
   10.0303  -14.6607   23.8807 O   0  0  0  0  0  0  0  0  0  0  0  0
    5.9316  -13.6195   26.0872 O   0  0  0  0  0  0  0  0  0  0  0  0
    7.0639  -12.7864   26.0974 C   0  0  0  0  0  0  0  0  0  0  0  0
    8.2531  -13.6798   25.7226 C   0  0  2  0  0  0  0  0  0  0  0  0
    7.8634  -14.5365   24.6135 N   0  0  0  0  0  0  0  0  0  0  0  0
    8.5909  -14.4759   26.9132 C   0  0  0  0  0  0  0  0  0  0  0  0
    9.0471  -13.8511   28.0484 O   0  0  0  0  0  0  0  0  0  0  0  0
    8.4649  -15.7126   26.8953 O   0  0  0  0  0  0  0  0  0  0  0  0
  2  1  1  1
  2  3  1  0
  4  5  1  6
  4  2  1  0
  6  7  2  0
  6  4  1  0
  8  9  1  0
  9 10  2  0
  9 11  1  0
 11 12  1  0
 13 12  1  1
 13 15  1  0
 13 14  1  0
 14  6  1  0
 15 20  1  0
 16 15  2  0
 18 17  1  0
 19 18  1  1
 19 21  1  0
 20 19  1  0
 21 23  2  0
 21 22  1  0
M  END
$$$$
