TQS.pdb
     RDKit          3D

 23 22  0  0  1  0  0  0  0  0999 V2000
    6.9739  -15.8032   19.9606 C   0  0  0  0  0  0  0  0  0  0  0  0
    7.8251  -14.8312   19.1925 C   0  0  1  0  0  0  0  0  0  0  0  0
    7.3840  -14.6852   17.8727 O   0  0  0  0  0  0  0  0  0  0  0  0
    7.7406  -13.4852   19.8587 C   0  0  2  0  0  0  0  0  0  0  0  0
    8.3541  -12.4429   19.0851 N   0  0  0  0  0  0  0  0  0  0  0  0
    8.3587  -13.5419   21.1943 C   0  0  0  0  0  0  0  0  0  0  0  0
    9.6138  -13.4702   21.3240 O   0  0  0  0  0  0  0  0  0  0  0  0
    5.4107  -12.1658   26.5186 N   0  0  0  0  0  0  0  0  0  0  0  0
    6.6360  -12.7199   26.9787 C   0  0  0  0  0  0  0  0  0  0  0  0
    6.9060  -12.6563   28.2014 O   0  0  0  0  0  0  0  0  0  0  0  0
    7.5945  -13.3657   26.0559 C   0  0  0  0  0  0  0  0  0  0  0  0
    7.0701  -13.2433   24.6442 C   0  0  0  0  0  0  0  0  0  0  0  0
    8.0961  -13.8059   23.6676 C   0  0  2  0  0  0  0  0  0  0  0  0
    7.5319  -13.6782   22.3399 N   0  0  0  0  0  0  0  0  0  0  0  0
    8.3166  -15.2448   23.9555 C   0  0  0  0  0  0  0  0  0  0  0  0
    7.3905  -16.0805   23.8095 O   0  0  0  0  0  0  0  0  0  0  0  0
   11.8086  -16.8998   23.4608 O   0  0  0  0  0  0  0  0  0  0  0  0
   10.6555  -17.7038   23.4772 C   0  0  0  0  0  0  0  0  0  0  0  0
    9.7746  -17.1615   24.6097 C   0  0  2  0  0  0  0  0  0  0  0  0
    9.5754  -15.7352   24.4055 N   0  0  0  0  0  0  0  0  0  0  0  0
   10.4823  -17.4216   25.8734 C   0  0  0  0  0  0  0  0  0  0  0  0
   10.8253  -16.3750   26.6946 O   0  0  0  0  0  0  0  0  0  0  0  0
   10.7710  -18.5857   26.2008 O   0  0  0  0  0  0  0  0  0  0  0  0
  2  1  1  1
  2  3  1  0
  4  5  1  6
  4  2  1  0
  6  7  2  0
  6  4  1  0
  8  9  1  0
  9 10  2  0
  9 11  1  0
 11 12  1  0
 13 12  1  1
 13 15  1  0
 13 14  1  0
 14  6  1  0
 15 20  1  0
 16 15  2  0
 18 17  1  0
 19 18  1  6
 19 21  1  0
 20 19  1  0
 21 23  2  0
 21 22  1  0
M  END
$$$$
