TQS.pdb
     RDKit          3D

 23 22  0  0  1  0  0  0  0  0999 V2000
    7.7088  -12.0038   19.2363 C   0  0  0  0  0  0  0  0  0  0  0  0
    8.6390  -13.0958   19.6853 C   0  0  1  0  0  0  0  0  0  0  0  0
    8.0044  -13.9959   20.5484 O   0  0  0  0  0  0  0  0  0  0  0  0
    9.1008  -13.8631   18.4768 C   0  0  2  0  0  0  0  0  0  0  0  0
    8.0276  -14.5398   17.8048 N   0  0  0  0  0  0  0  0  0  0  0  0
   10.1380  -14.8357   18.8608 C   0  0  0  0  0  0  0  0  0  0  0  0
    9.8742  -16.0708   18.9058 O   0  0  0  0  0  0  0  0  0  0  0  0
   16.2132  -13.5339   18.5268 N   0  0  0  0  0  0  0  0  0  0  0  0
   15.4003  -14.0786   17.4960 C   0  0  0  0  0  0  0  0  0  0  0  0
   15.8435  -14.0965   16.3233 O   0  0  0  0  0  0  0  0  0  0  0  0
   14.0524  -14.6217   17.7714 C   0  0  0  0  0  0  0  0  0  0  0  0
   13.8183  -14.6115   19.2641 C   0  0  0  0  0  0  0  0  0  0  0  0
   12.4906  -15.2911   19.5775 C   0  0  2  0  0  0  0  0  0  0  0  0
   11.4415  -14.3746   19.1812 N   0  0  0  0  0  0  0  0  0  0  0  0
   12.3890  -15.5288   21.0387 C   0  0  0  0  0  0  0  0  0  0  0  0
   12.7122  -14.6362   21.8609 O   0  0  0  0  0  0  0  0  0  0  0  0
   10.2498  -18.5623   22.2497 O   0  0  0  0  0  0  0  0  0  0  0  0
   10.4306  -17.6234   23.2803 C   0  0  0  0  0  0  0  0  0  0  0  0
   11.7759  -16.9408   23.0029 C   0  0  2  0  0  0  0  0  0  0  0  0
   11.9252  -16.7673   21.5664 N   0  0  0  0  0  0  0  0  0  0  0  0
   12.8276  -17.8173   23.5425 C   0  0  0  0  0  0  0  0  0  0  0  0
   12.9570  -17.9762   24.9009 O   0  0  0  0  0  0  0  0  0  0  0  0
   13.5998  -18.4148   22.7729 O   0  0  0  0  0  0  0  0  0  0  0  0
  2  1  1  6
  2  3  1  0
  4  5  1  1
  4  2  1  0
  6  7  2  0
  6  4  1  0
  8  9  1  0
  9 10  2  0
  9 11  1  0
 11 12  1  0
 13 12  1  1
 13 15  1  0
 13 14  1  0
 14  6  1  0
 15 20  1  0
 16 15  2  0
 18 17  1  0
 19 18  1  6
 19 21  1  0
 20 19  1  0
 21 23  2  0
 21 22  1  0
M  END
$$$$
