TQS.pdb
     RDKit          3D

 23 22  0  0  1  0  0  0  0  0999 V2000
    8.9502  -12.4842   19.8059 C   0  0  0  0  0  0  0  0  0  0  0  0
    7.9802  -13.1183   18.8485 C   0  0  1  0  0  0  0  0  0  0  0  0
    7.7535  -12.3109   17.7285 O   0  0  0  0  0  0  0  0  0  0  0  0
    8.5585  -14.4213   18.3685 C   0  0  2  0  0  0  0  0  0  0  0  0
    7.7201  -15.0808   17.4077 N   0  0  0  0  0  0  0  0  0  0  0  0
    8.8042  -15.3174   19.5113 C   0  0  0  0  0  0  0  0  0  0  0  0
    7.8690  -16.0221   19.9866 O   0  0  0  0  0  0  0  0  0  0  0  0
   14.2335  -17.9122   21.5317 N   0  0  0  0  0  0  0  0  0  0  0  0
   13.1732  -18.7535   21.0980 C   0  0  0  0  0  0  0  0  0  0  0  0
   13.3859  -19.9841   20.9862 O   0  0  0  0  0  0  0  0  0  0  0  0
   11.8331  -18.2160   20.7773 C   0  0  0  0  0  0  0  0  0  0  0  0
   11.8279  -16.7287   21.0435 C   0  0  0  0  0  0  0  0  0  0  0  0
   10.3921  -16.2441   21.2069 C   0  0  2  0  0  0  0  0  0  0  0  0
   10.1039  -15.3845   20.0776 N   0  0  0  0  0  0  0  0  0  0  0  0
   10.2773  -15.4478   22.4537 C   0  0  0  0  0  0  0  0  0  0  0  0
   10.0196  -14.2193   22.4124 O   0  0  0  0  0  0  0  0  0  0  0  0
    7.1904  -15.5071   25.2285 O   0  0  0  0  0  0  0  0  0  0  0  0
    8.0722  -15.8793   24.1989 C   0  0  0  0  0  0  0  0  0  0  0  0
    9.4830  -15.7913   24.7944 C   0  0  2  0  0  0  0  0  0  0  0  0
   10.4528  -16.0365   23.7383 N   0  0  0  0  0  0  0  0  0  0  0  0
    9.5756  -16.8161   25.8464 C   0  0  0  0  0  0  0  0  0  0  0  0
   10.0503  -18.0689   25.5426 O   0  0  0  0  0  0  0  0  0  0  0  0
    9.2255  -16.5520   27.0097 O   0  0  0  0  0  0  0  0  0  0  0  0
  2  1  1  1
  2  3  1  0
  4  5  1  6
  4  2  1  0
  6  7  2  0
  6  4  1  0
  8  9  1  0
  9 10  2  0
  9 11  1  0
 11 12  1  0
 13 12  1  6
 13 15  1  0
 13 14  1  0
 14  6  1  0
 15 20  1  0
 16 15  2  0
 18 17  1  0
 19 18  1  6
 19 21  1  0
 20 19  1  0
 21 23  2  0
 21 22  1  0
M  END
$$$$
