TQS.pdb
     RDKit          3D

 23 22  0  0  1  0  0  0  0  0999 V2000
    7.5371  -11.9005   19.1465 C   0  0  0  0  0  0  0  0  0  0  0  0
    8.4345  -12.9843   19.6752 C   0  0  1  0  0  0  0  0  0  0  0  0
    7.7558  -13.8389   20.5508 O   0  0  0  0  0  0  0  0  0  0  0  0
    8.9294  -13.8079   18.5179 C   0  0  2  0  0  0  0  0  0  0  0  0
    7.8673  -14.4615   17.8067 N   0  0  0  0  0  0  0  0  0  0  0  0
    9.9018  -14.8090   18.9884 C   0  0  0  0  0  0  0  0  0  0  0  0
    9.5795  -16.0283   19.0686 O   0  0  0  0  0  0  0  0  0  0  0  0
   16.0493  -14.1318   18.4848 N   0  0  0  0  0  0  0  0  0  0  0  0
   15.9368  -15.3316   19.2384 C   0  0  0  0  0  0  0  0  0  0  0  0
   16.9803  -15.9648   19.5251 O   0  0  0  0  0  0  0  0  0  0  0  0
   14.6265  -15.8483   19.6900 C   0  0  0  0  0  0  0  0  0  0  0  0
   13.5484  -14.8761   19.2711 C   0  0  0  0  0  0  0  0  0  0  0  0
   12.2022  -15.3417   19.8131 C   0  0  2  0  0  0  0  0  0  0  0  0
   11.2091  -14.3934   19.3528 N   0  0  0  0  0  0  0  0  0  0  0  0
   12.2313  -15.3192   21.2966 C   0  0  0  0  0  0  0  0  0  0  0  0
   12.7114  -14.3384   21.9170 O   0  0  0  0  0  0  0  0  0  0  0  0
    9.6508  -17.3810   23.3520 O   0  0  0  0  0  0  0  0  0  0  0  0
   10.3036  -16.3473   24.0459 C   0  0  0  0  0  0  0  0  0  0  0  0
   11.7465  -16.3307   23.5258 C   0  0  2  0  0  0  0  0  0  0  0  0
   11.7211  -16.3982   22.0730 N   0  0  0  0  0  0  0  0  0  0  0  0
   12.4285  -17.5022   24.0984 C   0  0  0  0  0  0  0  0  0  0  0  0
   12.6731  -17.5604   25.4490 O   0  0  0  0  0  0  0  0  0  0  0  0
   12.7843  -18.4400   23.3639 O   0  0  0  0  0  0  0  0  0  0  0  0
  2  1  1  6
  2  3  1  0
  4  5  1  1
  4  2  1  0
  6  7  2  0
  6  4  1  0
  8  9  1  0
  9 10  2  0
  9 11  1  0
 11 12  1  0
 13 12  1  6
 13 15  1  0
 13 14  1  0
 14  6  1  0
 15 20  1  0
 16 15  2  0
 18 17  1  0
 19 18  1  1
 19 21  1  0
 20 19  1  0
 21 23  2  0
 21 22  1  0
M  END
$$$$
