TQS.pdb
     RDKit          3D

 23 22  0  0  1  0  0  0  0  0999 V2000
    8.8196  -12.5950   19.8604 C   0  0  0  0  0  0  0  0  0  0  0  0
    7.9653  -13.2085   18.7866 C   0  0  1  0  0  0  0  0  0  0  0  0
    7.2234  -12.2423   18.0982 O   0  0  0  0  0  0  0  0  0  0  0  0
    8.8603  -13.8973   17.7929 C   0  0  2  0  0  0  0  0  0  0  0  0
    8.1439  -14.3996   16.6547 N   0  0  0  0  0  0  0  0  0  0  0  0
    9.5893  -14.9977   18.4463 C   0  0  0  0  0  0  0  0  0  0  0  0
    9.1908  -16.1911   18.3271 O   0  0  0  0  0  0  0  0  0  0  0  0
   15.8483  -13.5657   18.7405 N   0  0  0  0  0  0  0  0  0  0  0  0
   14.8532  -14.5623   18.5485 C   0  0  0  0  0  0  0  0  0  0  0  0
   15.1188  -15.5487   17.8216 O   0  0  0  0  0  0  0  0  0  0  0  0
   13.5200  -14.4646   19.1816 C   0  0  0  0  0  0  0  0  0  0  0  0
   12.8598  -15.8230   19.1399 C   0  0  0  0  0  0  0  0  0  0  0  0
   11.5134  -15.7586   19.8513 C   0  0  2  0  0  0  0  0  0  0  0  0
   10.7473  -14.7077   19.2140 N   0  0  0  0  0  0  0  0  0  0  0  0
   11.7229  -15.3990   21.2756 C   0  0  0  0  0  0  0  0  0  0  0  0
   11.6357  -14.2060   21.6587 O   0  0  0  0  0  0  0  0  0  0  0  0
    9.0184  -17.0236   24.1793 O   0  0  0  0  0  0  0  0  0  0  0  0
    9.7642  -16.8593   22.9990 C   0  0  0  0  0  0  0  0  0  0  0  0
   11.1925  -16.5183   23.4420 C   0  0  2  0  0  0  0  0  0  0  0  0
   12.0289  -16.3814   22.2598 N   0  0  0  0  0  0  0  0  0  0  0  0
   11.6585  -17.6232   24.2951 C   0  0  0  0  0  0  0  0  0  0  0  0
   11.5566  -17.5238   25.6615 O   0  0  0  0  0  0  0  0  0  0  0  0
   12.1442  -18.6467   23.7833 O   0  0  0  0  0  0  0  0  0  0  0  0
  2  1  1  1
  2  3  1  0
  4  5  1  6
  4  2  1  0
  6  7  2  0
  6  4  1  0
  8  9  1  0
  9 10  2  0
  9 11  1  0
 11 12  1  0
 13 12  1  6
 13 15  1  0
 13 14  1  0
 14  6  1  0
 15 20  1  0
 16 15  2  0
 18 17  1  0
 19 18  1  6
 19 21  1  0
 20 19  1  0
 21 23  2  0
 21 22  1  0
M  END
$$$$
