TQS.pdb
     RDKit          3D

 23 22  0  0  1  0  0  0  0  0999 V2000
   10.3431  -18.2153   22.9028 C   0  0  0  0  0  0  0  0  0  0  0  0
   10.2926  -19.3797   21.9535 C   0  0  1  0  0  0  0  0  0  0  0  0
    9.0099  -19.9335   21.8791 O   0  0  0  0  0  0  0  0  0  0  0  0
   10.6674  -18.8976   20.5788 C   0  0  2  0  0  0  0  0  0  0  0  0
   10.5006  -19.9068   19.5714 N   0  0  0  0  0  0  0  0  0  0  0  0
   12.0592  -18.4157   20.5734 C   0  0  0  0  0  0  0  0  0  0  0  0
   13.0143  -19.2112   20.8015 O   0  0  0  0  0  0  0  0  0  0  0  0
   13.9640  -13.4263   17.4068 N   0  0  0  0  0  0  0  0  0  0  0  0
   15.1319  -13.7925   18.1294 C   0  0  0  0  0  0  0  0  0  0  0  0
   16.2076  -13.1991   17.8790 O   0  0  0  0  0  0  0  0  0  0  0  0
   15.1092  -14.8500   19.1632 C   0  0  0  0  0  0  0  0  0  0  0  0
   13.7049  -15.3970   19.2702 C   0  0  0  0  0  0  0  0  0  0  0  0
   13.6730  -16.5254   20.2943 C   0  0  2  0  0  0  0  0  0  0  0  0
   12.3217  -17.0461   20.3092 N   0  0  0  0  0  0  0  0  0  0  0  0
   13.9897  -15.9829   21.6386 C   0  0  0  0  0  0  0  0  0  0  0  0
   13.1160  -15.3855   22.3148 O   0  0  0  0  0  0  0  0  0  0  0  0
   14.9970  -17.3073   25.6217 O   0  0  0  0  0  0  0  0  0  0  0  0
   14.6328  -17.2427   24.2654 C   0  0  0  0  0  0  0  0  0  0  0  0
   15.4495  -16.0943   23.6596 C   0  0  2  0  0  0  0  0  0  0  0  0
   15.2853  -16.1150   22.2144 N   0  0  0  0  0  0  0  0  0  0  0  0
   16.8549  -16.3148   24.0359 C   0  0  0  0  0  0  0  0  0  0  0  0
   17.2990  -15.9352   25.2792 O   0  0  0  0  0  0  0  0  0  0  0  0
   17.6423  -16.8436   23.2321 O   0  0  0  0  0  0  0  0  0  0  0  0
  2  1  1  1
  2  3  1  0
  4  5  1  6
  4  2  1  0
  6  7  2  0
  6  4  1  0
  8  9  1  0
  9 10  2  0
  9 11  1  0
 11 12  1  0
 13 12  1  6
 13 15  1  0
 13 14  1  0
 14  6  1  0
 15 20  1  0
 16 15  2  0
 18 17  1  0
 19 18  1  1
 19 21  1  0
 20 19  1  0
 21 23  2  0
 21 22  1  0
M  END
$$$$
