QRF.pdb
     RDKit          3D

 32 32  0  0  1  0  0  0  0  0999 V2000
   13.8003  -14.6825   19.8156 N   0  0  0  0  0  0  0  0  0  0  0  0
   13.2950  -13.6140   19.0441 C   0  0  0  0  0  0  0  0  0  0  0  0
   14.1302  -12.8579   18.4733 O   0  0  0  0  0  0  0  0  0  0  0  0
   11.8527  -13.3185   18.8594 C   0  0  0  0  0  0  0  0  0  0  0  0
   11.0274  -14.5514   19.1327 C   0  0  0  0  0  0  0  0  0  0  0  0
    9.5571  -14.2883   19.0757 C   0  0  2  0  0  0  0  0  0  0  0  0
    9.3408  -12.8781   18.8243 N   0  0  0  0  0  0  0  0  0  0  0  0
    8.7729  -14.7586   20.2290 C   0  0  0  0  0  0  0  0  0  0  0  0
    8.1380  -13.9073   20.9047 O   0  0  0  0  0  0  0  0  0  0  0  0
    9.1252  -20.9848   19.5254 N   0  0  0  0  0  0  0  0  0  0  0  0
    8.5465  -21.3803   20.7648 C   0  0  0  0  0  0  0  0  0  0  0  0
    9.0697  -22.3255   21.4644 N   0  0  0  0  0  0  0  0  0  0  0  0
    7.3742  -20.7070   21.2148 N   0  0  0  0  0  0  0  0  0  0  0  0
    6.7231  -19.7670   20.3384 C   0  0  0  0  0  0  0  0  0  0  0  0
    7.3817  -18.3913   20.4214 C   0  0  0  0  0  0  0  0  0  0  0  0
    7.2496  -17.8005   21.7955 C   0  0  0  0  0  0  0  0  0  0  0  0
    7.9441  -16.4645   21.8130 C   0  0  2  0  0  0  0  0  0  0  0  0
    8.6698  -16.1025   20.6567 N   0  0  0  0  0  0  0  0  0  0  0  0
    8.7508  -16.2473   23.0178 C   0  0  0  0  0  0  0  0  0  0  0  0
    9.9295  -16.6935   23.0516 O   0  0  0  0  0  0  0  0  0  0  0  0
    8.6279  -22.5961   22.3684 N   0  0  0  0  0  0  0  0  0  0  0  0
    8.2331  -15.5486   24.1396 C   0  0  2  0  0  0  0  0  0  0  0  0
    8.8873  -15.5499   25.4551 C   0  0  0  0  0  0  0  0  0  0  0  0
    7.8337  -15.0922   26.4350 C   0  0  0  0  0  0  0  0  0  0  0  0
    7.3754  -13.7098   26.2211 C   0  0  0  0  0  0  0  0  0  0  0  0
    6.3558  -13.1180   26.9219 C   0  0  0  0  0  0  0  0  0  0  0  0
    6.0157  -11.8133   26.6415 C   0  0  0  0  0  0  0  0  0  0  0  0
    6.6790  -11.0796   25.6663 C   0  0  0  0  0  0  0  0  0  0  0  0
    7.6941  -11.6703   24.9692 C   0  0  0  0  0  0  0  0  0  0  0  0
    8.0202  -12.9670   25.2592 C   0  0  0  0  0  0  0  0  0  0  0  0
    9.4600  -16.8592   25.7666 O   0  0  0  0  0  0  0  0  0  0  0  0
   10.6038  -16.9509   26.2636 O   0  0  0  0  0  0  0  0  0  0  0  0
  1  2  1  0
  2  3  2  0
  4  2  1  0
  4  5  1  0
  6  5  1  0
  6  7  1  1
  8  6  1  0
  8  9  2  0
 10 11  1  0
 11 13  1  0
 11 12  2  0
 13 14  1  0
 14 15  1  0
 15 16  1  0
 17 16  1  6
 17 18  1  0
 18  8  1  0
 19 17  1  0
 20 19  2  0
 21 19  1  0
 22 21  1  0
 22 23  1  6
 23 24  1  0
 24 25  2  0
 24 29  1  0
 25 26  1  0
 26 27  2  0
 28 27  1  0
 29 28  2  0
 30 22  1  0
 31 30  2  0
 32 30  1  0
M  END
$$$$
