QRF.pdb
     RDKit          3D

 32 32  0  0  1  0  0  0  0  0999 V2000
   10.4425  -26.8361   15.2415 N   0  0  0  0  0  0  0  0  0  0  0  0
   11.7317  -26.3018   15.4531 C   0  0  0  0  0  0  0  0  0  0  0  0
   12.5627  -27.0115   16.0861 O   0  0  0  0  0  0  0  0  0  0  0  0
   12.1757  -24.9657   14.9846 C   0  0  0  0  0  0  0  0  0  0  0  0
   11.0561  -24.2709   14.2501 C   0  0  0  0  0  0  0  0  0  0  0  0
   11.4245  -22.8930   13.8029 C   0  0  2  0  0  0  0  0  0  0  0  0
   12.6928  -22.9481   13.1049 N   0  0  0  0  0  0  0  0  0  0  0  0
   11.4263  -21.8553   14.8468 C   0  0  0  0  0  0  0  0  0  0  0  0
   12.4362  -21.1103   14.9444 O   0  0  0  0  0  0  0  0  0  0  0  0
    4.3220  -18.7939   16.6047 N   0  0  0  0  0  0  0  0  0  0  0  0
    4.9373  -20.0648   16.4212 C   0  0  0  0  0  0  0  0  0  0  0  0
    4.2299  -21.1390   16.3764 N   0  0  0  0  0  0  0  0  0  0  0  0
    6.3547  -20.1224   16.2885 N   0  0  0  0  0  0  0  0  0  0  0  0
    7.0765  -18.9284   15.9291 C   0  0  0  0  0  0  0  0  0  0  0  0
    8.5731  -19.2076   15.8050 C   0  0  0  0  0  0  0  0  0  0  0  0
    9.1085  -19.8902   17.0306 C   0  0  0  0  0  0  0  0  0  0  0  0
   10.4204  -20.5427   16.6828 C   0  0  2  0  0  0  0  0  0  0  0  0
   10.3804  -21.6185   15.7685 N   0  0  0  0  0  0  0  0  0  0  0  0
   11.2215  -20.8946   17.8591 C   0  0  0  0  0  0  0  0  0  0  0  0
   11.1868  -22.0793   18.2889 O   0  0  0  0  0  0  0  0  0  0  0  0
    4.6887  -22.0429   16.1354 N   0  0  0  0  0  0  0  0  0  0  0  0
   12.0303  -19.9327   18.5189 C   0  0  1  0  0  0  0  0  0  0  0  0
   12.8111  -20.2360   19.7259 C   0  0  0  0  0  0  0  0  0  0  0  0
   14.1772  -19.6381   19.4888 C   0  0  0  0  0  0  0  0  0  0  0  0
   14.9547  -20.3158   18.4385 C   0  0  0  0  0  0  0  0  0  0  0  0
   15.0232  -19.8933   17.1356 C   0  0  0  0  0  0  0  0  0  0  0  0
   15.7894  -20.6031   16.2379 C   0  0  0  0  0  0  0  0  0  0  0  0
   16.4956  -21.7372   16.6176 C   0  0  0  0  0  0  0  0  0  0  0  0
   16.4263  -22.1567   17.9155 C   0  0  0  0  0  0  0  0  0  0  0  0
   15.6611  -21.4411   18.7955 C   0  0  0  0  0  0  0  0  0  0  0  0
   12.1468  -19.7411   20.9313 O   0  0  0  0  0  0  0  0  0  0  0  0
   11.1584  -18.9800   20.8456 O   0  0  0  0  0  0  0  0  0  0  0  0
  1  2  1  0
  2  3  2  0
  4  2  1  0
  4  5  1  0
  6  5  1  0
  6  7  1  1
  8  6  1  0
  8  9  2  0
 10 11  1  0
 11 13  1  0
 11 12  2  0
 13 14  1  0
 14 15  1  0
 15 16  1  0
 17 16  1  1
 17 18  1  0
 18  8  1  0
 19 17  1  0
 20 19  2  0
 21 19  1  0
 22 21  1  0
 22 23  1  1
 23 24  1  0
 24 25  2  0
 24 29  1  0
 25 26  1  0
 26 27  2  0
 28 27  1  0
 29 28  2  0
 30 22  1  0
 31 30  2  0
 32 30  1  0
M  END
$$$$
