QRF.pdb
     RDKit          3D

 32 32  0  0  1  0  0  0  0  0999 V2000
   10.2929  -19.2273   16.9699 N   0  0  0  0  0  0  0  0  0  0  0  0
    9.0758  -18.8490   17.5762 C   0  0  0  0  0  0  0  0  0  0  0  0
    8.0811  -18.6567   16.8221 O   0  0  0  0  0  0  0  0  0  0  0  0
    8.8859  -18.6610   19.0358 C   0  0  0  0  0  0  0  0  0  0  0  0
   10.1801  -18.9153   19.7682 C   0  0  0  0  0  0  0  0  0  0  0  0
   10.0637  -18.6973   21.2423 C   0  0  2  0  0  0  0  0  0  0  0  0
    8.8942  -19.3990   21.7309 N   0  0  0  0  0  0  0  0  0  0  0  0
   10.0793  -17.2952   21.6899 C   0  0  0  0  0  0  0  0  0  0  0  0
   11.1854  -16.6960   21.7334 O   0  0  0  0  0  0  0  0  0  0  0  0
    8.6924  -14.2064   16.7788 N   0  0  0  0  0  0  0  0  0  0  0  0
    8.3674  -13.2176   17.7505 C   0  0  0  0  0  0  0  0  0  0  0  0
    9.1941  -12.2714   18.0295 N   0  0  0  0  0  0  0  0  0  0  0  0
    7.1063  -13.2980   18.4086 N   0  0  0  0  0  0  0  0  0  0  0  0
    7.0610  -13.2654   19.8482 C   0  0  0  0  0  0  0  0  0  0  0  0
    8.0687  -14.2417   20.4518 C   0  0  0  0  0  0  0  0  0  0  0  0
    7.9928  -14.2531   21.9515 C   0  0  0  0  0  0  0  0  0  0  0  0
    9.0422  -15.1956   22.4786 C   0  0  2  0  0  0  0  0  0  0  0  0
    8.9455  -16.5490   22.0865 N   0  0  0  0  0  0  0  0  0  0  0  0
    9.2388  -15.0909   23.9277 C   0  0  0  0  0  0  0  0  0  0  0  0
    9.1320  -13.9616   24.4781 O   0  0  0  0  0  0  0  0  0  0  0  0
    9.0041  -11.6514   18.8450 N   0  0  0  0  0  0  0  0  0  0  0  0
    9.5451  -16.2298   24.7176 C   0  0  1  0  0  0  0  0  0  0  0  0
    9.4476  -16.2368   26.1836 C   0  0  0  0  0  0  0  0  0  0  0  0
    7.9827  -16.0459   26.4958 C   0  0  0  0  0  0  0  0  0  0  0  0
    7.5781  -14.6378   26.6382 C   0  0  0  0  0  0  0  0  0  0  0  0
    8.3772  -13.6550   27.1639 C   0  0  0  0  0  0  0  0  0  0  0  0
    7.8957  -12.3671   27.2425 C   0  0  0  0  0  0  0  0  0  0  0  0
    6.6203  -12.0366   26.8027 C   0  0  0  0  0  0  0  0  0  0  0  0
    5.8257  -13.0165   26.2795 C   0  0  0  0  0  0  0  0  0  0  0  0
    6.3181  -14.2910   26.2081 C   0  0  0  0  0  0  0  0  0  0  0  0
   10.0226  -17.4556   26.7522 O   0  0  0  0  0  0  0  0  0  0  0  0
   10.3862  -18.3936   26.0095 O   0  0  0  0  0  0  0  0  0  0  0  0
  1  2  1  0
  2  3  2  0
  4  2  1  0
  4  5  1  0
  6  5  1  0
  6  7  1  6
  8  6  1  0
  8  9  2  0
 10 11  1  0
 11 13  1  0
 11 12  2  0
 13 14  1  0
 14 15  1  0
 15 16  1  0
 17 16  1  1
 17 18  1  0
 18  8  1  0
 19 17  1  0
 20 19  2  0
 21 19  1  0
 22 21  1  0
 22 23  1  1
 23 24  1  0
 24 25  2  0
 24 29  1  0
 25 26  1  0
 26 27  2  0
 28 27  1  0
 29 28  2  0
 30 22  1  0
 31 30  2  0
 32 30  1  0
M  END
$$$$
