QRF.pdb
     RDKit          3D

 32 32  0  0  1  0  0  0  0  0999 V2000
   19.3348  -15.8684   18.9338 N   0  0  0  0  0  0  0  0  0  0  0  0
   18.4613  -16.8805   18.4811 C   0  0  0  0  0  0  0  0  0  0  0  0
   18.8997  -17.6875   17.6142 O   0  0  0  0  0  0  0  0  0  0  0  0
   17.0658  -17.0597   18.9524 C   0  0  0  0  0  0  0  0  0  0  0  0
   16.8764  -18.4493   19.5084 C   0  0  0  0  0  0  0  0  0  0  0  0
   16.4727  -18.4471   20.9476 C   0  0  2  0  0  0  0  0  0  0  0  0
   16.5834  -19.7940   21.4694 N   0  0  0  0  0  0  0  0  0  0  0  0
   15.1579  -17.8572   21.2475 C   0  0  0  0  0  0  0  0  0  0  0  0
   15.0351  -16.6067   21.1732 O   0  0  0  0  0  0  0  0  0  0  0  0
    8.1711  -22.2786   20.1316 N   0  0  0  0  0  0  0  0  0  0  0  0
    8.5008  -22.2171   21.5154 C   0  0  0  0  0  0  0  0  0  0  0  0
    7.8077  -22.8623   22.3871 N   0  0  0  0  0  0  0  0  0  0  0  0
    9.6155  -21.4250   21.9154 N   0  0  0  0  0  0  0  0  0  0  0  0
   10.4095  -20.7689   20.9081 C   0  0  0  0  0  0  0  0  0  0  0  0
   11.6058  -20.0526   21.5319 C   0  0  0  0  0  0  0  0  0  0  0  0
   11.5312  -18.5683   21.3169 C   0  0  0  0  0  0  0  0  0  0  0  0
   12.7729  -17.9369   21.8888 C   0  0  2  0  0  0  0  0  0  0  0  0
   14.0018  -18.5801   21.6222 N   0  0  0  0  0  0  0  0  0  0  0  0
   12.6559  -17.6182   23.3151 C   0  0  0  0  0  0  0  0  0  0  0  0
   13.4971  -18.1027   24.1196 O   0  0  0  0  0  0  0  0  0  0  0  0
    8.1119  -22.8611   23.3837 N   0  0  0  0  0  0  0  0  0  0  0  0
   11.6200  -16.7800   23.8039 C   0  0  2  0  0  0  0  0  0  0  0  0
   11.3735  -16.5646   25.2361 C   0  0  0  0  0  0  0  0  0  0  0  0
   10.5782  -15.2842   25.3250 C   0  0  0  0  0  0  0  0  0  0  0  0
   10.1114  -14.9607   26.6831 C   0  0  0  0  0  0  0  0  0  0  0  0
    8.7928  -14.8176   27.0319 C   0  0  0  0  0  0  0  0  0  0  0  0
    8.4710  -14.5203   28.3375 C   0  0  0  0  0  0  0  0  0  0  0  0
    9.4479  -14.3613   29.3119 C   0  0  0  0  0  0  0  0  0  0  0  0
   10.7606  -14.5040   28.9630 C   0  0  0  0  0  0  0  0  0  0  0  0
   11.0644  -14.7994   27.6621 C   0  0  0  0  0  0  0  0  0  0  0  0
   10.7120  -17.7185   25.8447 O   0  0  0  0  0  0  0  0  0  0  0  0
    9.7422  -18.2676   25.2776 O   0  0  0  0  0  0  0  0  0  0  0  0
  1  2  1  0
  2  3  2  0
  4  2  1  0
  4  5  1  0
  6  5  1  0
  6  7  1  6
  8  6  1  0
  8  9  2  0
 10 11  1  0
 11 13  1  0
 11 12  2  0
 13 14  1  0
 14 15  1  0
 15 16  1  0
 17 16  1  1
 17 18  1  0
 18  8  1  0
 19 17  1  0
 20 19  2  0
 21 19  1  0
 22 21  1  0
 22 23  1  6
 23 24  1  0
 24 25  2  0
 24 29  1  0
 25 26  1  0
 26 27  2  0
 28 27  1  0
 29 28  2  0
 30 22  1  0
 31 30  2  0
 32 30  1  0
M  END
$$$$
