QRF.pdb
     RDKit          3D

 32 32  0  0  1  0  0  0  0  0999 V2000
   11.3621  -19.2831   17.1995 N   0  0  0  0  0  0  0  0  0  0  0  0
   10.0066  -19.4296   17.5649 C   0  0  0  0  0  0  0  0  0  0  0  0
    9.1830  -19.7225   16.6533 O   0  0  0  0  0  0  0  0  0  0  0  0
    9.4844  -19.2621   18.9437 C   0  0  0  0  0  0  0  0  0  0  0  0
   10.5998  -18.8711   19.8811 C   0  0  0  0  0  0  0  0  0  0  0  0
   10.1218  -18.6111   21.2733 C   0  0  2  0  0  0  0  0  0  0  0  0
    8.9378  -19.4084   21.5208 N   0  0  0  0  0  0  0  0  0  0  0  0
    9.9067  -17.1989   21.6279 C   0  0  0  0  0  0  0  0  0  0  0  0
   10.8751  -16.4025   21.5165 O   0  0  0  0  0  0  0  0  0  0  0  0
    9.9383  -14.2994   18.1477 N   0  0  0  0  0  0  0  0  0  0  0  0
    8.7033  -13.8206   17.6252 C   0  0  0  0  0  0  0  0  0  0  0  0
    8.5260  -13.7037   16.3557 N   0  0  0  0  0  0  0  0  0  0  0  0
    7.6666  -13.4727   18.5384 N   0  0  0  0  0  0  0  0  0  0  0  0
    7.3330  -14.3834   19.6038 C   0  0  0  0  0  0  0  0  0  0  0  0
    7.3458  -13.6746   20.9567 C   0  0  0  0  0  0  0  0  0  0  0  0
    7.2054  -14.6499   22.0898 C   0  0  0  0  0  0  0  0  0  0  0  0
    8.5515  -15.2674   22.3620 C   0  0  2  0  0  0  0  0  0  0  0  0
    8.6912  -16.6473   22.0947 N   0  0  0  0  0  0  0  0  0  0  0  0
    9.0790  -14.9431   23.6909 C   0  0  0  0  0  0  0  0  0  0  0  0
    9.2413  -13.7328   24.0043 O   0  0  0  0  0  0  0  0  0  0  0  0
    7.6276  -13.3147   15.9994 N   0  0  0  0  0  0  0  0  0  0  0  0
    9.4084  -15.9597   24.6251 C   0  0  1  0  0  0  0  0  0  0  0  0
    9.4483  -15.7311   26.0759 C   0  0  0  0  0  0  0  0  0  0  0  0
    8.0158  -15.4960   26.4912 C   0  0  0  0  0  0  0  0  0  0  0  0
    7.5649  -14.1041   26.3298 C   0  0  0  0  0  0  0  0  0  0  0  0
    6.3545  -13.7422   25.7960 C   0  0  0  0  0  0  0  0  0  0  0  0
    6.0344  -12.4062   25.6996 C   0  0  0  0  0  0  0  0  0  0  0  0
    6.9062  -11.4140   26.1291 C   0  0  0  0  0  0  0  0  0  0  0  0
    8.1114  -11.7759   26.6603 C   0  0  0  0  0  0  0  0  0  0  0  0
    8.4149  -13.1070   26.7495 C   0  0  0  0  0  0  0  0  0  0  0  0
   10.0952  -16.8411   26.7749 O   0  0  0  0  0  0  0  0  0  0  0  0
   10.3933  -17.8902   26.1633 O   0  0  0  0  0  0  0  0  0  0  0  0
  1  2  1  0
  2  3  2  0
  4  2  1  0
  4  5  1  0
  6  5  1  0
  6  7  1  6
  8  6  1  0
  8  9  2  0
 10 11  1  0
 11 13  1  0
 11 12  2  0
 13 14  1  0
 14 15  1  0
 15 16  1  0
 17 16  1  1
 17 18  1  0
 18  8  1  0
 19 17  1  0
 20 19  2  0
 21 19  1  0
 22 21  1  0
 22 23  1  6
 23 24  1  0
 24 25  2  0
 24 29  1  0
 25 26  1  0
 26 27  2  0
 28 27  1  0
 29 28  2  0
 30 22  1  0
 31 30  2  0
 32 30  1  0
M  END
$$$$
