QRF.pdb
     RDKit          3D

 32 32  0  0  1  0  0  0  0  0999 V2000
   14.4144  -20.1109   22.5008 N   0  0  0  0  0  0  0  0  0  0  0  0
   14.8618  -19.7539   21.2106 C   0  0  0  0  0  0  0  0  0  0  0  0
   15.5526  -20.5994   20.5758 O   0  0  0  0  0  0  0  0  0  0  0  0
   14.5773  -18.4554   20.5511 C   0  0  0  0  0  0  0  0  0  0  0  0
   13.7020  -17.6014   21.4344 C   0  0  0  0  0  0  0  0  0  0  0  0
   12.5916  -16.9401   20.6835 C   0  0  2  0  0  0  0  0  0  0  0  0
   13.1575  -16.1249   19.6280 N   0  0  0  0  0  0  0  0  0  0  0  0
   11.6271  -16.1804   21.4953 C   0  0  0  0  0  0  0  0  0  0  0  0
   11.9880  -15.0698   21.9649 O   0  0  0  0  0  0  0  0  0  0  0  0
    7.9720  -15.5660   17.7905 N   0  0  0  0  0  0  0  0  0  0  0  0
    7.7897  -14.1542   17.7580 C   0  0  0  0  0  0  0  0  0  0  0  0
    8.1716  -13.4638   16.7411 N   0  0  0  0  0  0  0  0  0  0  0  0
    7.1752  -13.5208   18.8765 N   0  0  0  0  0  0  0  0  0  0  0  0
    6.9642  -14.2771   20.0845 C   0  0  0  0  0  0  0  0  0  0  0  0
    8.2912  -14.6056   20.7659 C   0  0  0  0  0  0  0  0  0  0  0  0
    8.0897  -15.4823   21.9682 C   0  0  0  0  0  0  0  0  0  0  0  0
    9.4356  -15.7913   22.5686 C   0  0  2  0  0  0  0  0  0  0  0  0
   10.3108  -16.5945   21.8046 N   0  0  0  0  0  0  0  0  0  0  0  0
    9.3551  -16.2831   23.9475 C   0  0  0  0  0  0  0  0  0  0  0  0
   10.2884  -17.0038   24.3938 O   0  0  0  0  0  0  0  0  0  0  0  0
    8.0189  -12.4332   16.7372 N   0  0  0  0  0  0  0  0  0  0  0  0
    8.2533  -15.9652   24.7838 C   0  0  2  0  0  0  0  0  0  0  0  0
    8.1353  -16.4426   26.1683 C   0  0  0  0  0  0  0  0  0  0  0  0
    6.9869  -15.6688   26.7700 C   0  0  0  0  0  0  0  0  0  0  0  0
    7.1216  -14.2076   26.6538 C   0  0  0  0  0  0  0  0  0  0  0  0
    8.0563  -13.4632   27.3268 C   0  0  0  0  0  0  0  0  0  0  0  0
    8.0951  -12.0999   27.1354 C   0  0  0  0  0  0  0  0  0  0  0  0
    7.2113  -11.4579   26.2776 C   0  0  0  0  0  0  0  0  0  0  0  0
    6.2809  -12.2006   25.6081 C   0  0  0  0  0  0  0  0  0  0  0  0
    6.2550  -13.5537   25.8087 C   0  0  0  0  0  0  0  0  0  0  0  0
    7.9660  -17.8945   26.2210 O   0  0  0  0  0  0  0  0  0  0  0  0
    7.5020  -18.5165   25.2405 O   0  0  0  0  0  0  0  0  0  0  0  0
  1  2  1  0
  2  3  2  0
  4  2  1  0
  4  5  1  0
  6  5  1  0
  6  7  1  6
  8  6  1  0
  8  9  2  0
 10 11  1  0
 11 13  1  0
 11 12  2  0
 13 14  1  0
 14 15  1  0
 15 16  1  0
 17 16  1  6
 17 18  1  0
 18  8  1  0
 19 17  1  0
 20 19  2  0
 21 19  1  0
 22 21  1  0
 22 23  1  1
 23 24  1  0
 24 25  2  0
 24 29  1  0
 25 26  1  0
 26 27  2  0
 28 27  1  0
 29 28  2  0
 30 22  1  0
 31 30  2  0
 32 30  1  0
M  END
$$$$
