QRF.pdb
     RDKit          3D

 32 32  0  0  1  0  0  0  0  0999 V2000
    7.2914  -13.7404   17.1892 N   0  0  0  0  0  0  0  0  0  0  0  0
    7.3160  -13.2144   18.4987 C   0  0  0  0  0  0  0  0  0  0  0  0
    6.5905  -12.2090   18.7394 O   0  0  0  0  0  0  0  0  0  0  0  0
    8.1352  -13.7601   19.6091 C   0  0  0  0  0  0  0  0  0  0  0  0
    8.8454  -15.0154   19.1666 C   0  0  0  0  0  0  0  0  0  0  0  0
    9.6322  -15.6536   20.2656 C   0  0  2  0  0  0  0  0  0  0  0  0
   10.2943  -16.8330   19.7467 N   0  0  0  0  0  0  0  0  0  0  0  0
    8.8900  -15.9498   21.5017 C   0  0  0  0  0  0  0  0  0  0  0  0
    8.3420  -14.9945   22.1110 O   0  0  0  0  0  0  0  0  0  0  0  0
    3.1183  -21.4857   22.7073 N   0  0  0  0  0  0  0  0  0  0  0  0
    4.2949  -22.1222   22.2196 C   0  0  0  0  0  0  0  0  0  0  0  0
    4.3014  -23.3819   21.9557 N   0  0  0  0  0  0  0  0  0  0  0  0
    5.4666  -21.3342   22.0298 N   0  0  0  0  0  0  0  0  0  0  0  0
    5.4558  -19.9502   22.4299 C   0  0  0  0  0  0  0  0  0  0  0  0
    6.8178  -19.2998   22.1953 C   0  0  0  0  0  0  0  0  0  0  0  0
    7.4243  -18.8150   23.4805 C   0  0  0  0  0  0  0  0  0  0  0  0
    7.9858  -17.4358   23.2568 C   0  0  2  0  0  0  0  0  0  0  0  0
    8.7382  -17.2317   22.0790 N   0  0  0  0  0  0  0  0  0  0  0  0
    8.6983  -16.9048   24.4229 C   0  0  0  0  0  0  0  0  0  0  0  0
    9.9576  -16.8501   24.3958 O   0  0  0  0  0  0  0  0  0  0  0  0
    5.1362  -23.8029   21.4959 N   0  0  0  0  0  0  0  0  0  0  0  0
    8.0014  -16.4540   25.5743 C   0  0  2  0  0  0  0  0  0  0  0  0
    8.6812  -16.0163   26.8010 C   0  0  0  0  0  0  0  0  0  0  0  0
    7.7224  -15.0699   27.4830 C   0  0  0  0  0  0  0  0  0  0  0  0
    7.4785  -13.8235   26.7389 C   0  0  0  0  0  0  0  0  0  0  0  0
    8.4621  -13.0738   26.1462 C   0  0  0  0  0  0  0  0  0  0  0  0
    8.1164  -11.9261   25.4681 C   0  0  0  0  0  0  0  0  0  0  0  0
    6.7960  -11.5068   25.3685 C   0  0  0  0  0  0  0  0  0  0  0  0
    5.8175  -12.2544   25.9595 C   0  0  0  0  0  0  0  0  0  0  0  0
    6.1767  -13.3920   26.6294 C   0  0  0  0  0  0  0  0  0  0  0  0
    9.0804  -17.1553   27.6271 O   0  0  0  0  0  0  0  0  0  0  0  0
    9.8026  -16.9883   28.6342 O   0  0  0  0  0  0  0  0  0  0  0  0
  1  2  1  0
  2  3  2  0
  4  2  1  0
  4  5  1  0
  6  5  1  0
  6  7  1  6
  8  6  1  0
  8  9  2  0
 10 11  1  0
 11 13  1  0
 11 12  2  0
 13 14  1  0
 14 15  1  0
 15 16  1  0
 17 16  1  1
 17 18  1  0
 18  8  1  0
 19 17  1  0
 20 19  2  0
 21 19  1  0
 22 21  1  0
 22 23  1  6
 23 24  1  0
 24 25  2  0
 24 29  1  0
 25 26  1  0
 26 27  2  0
 28 27  1  0
 29 28  2  0
 30 22  1  0
 31 30  2  0
 32 30  1  0
M  END
$$$$
