TDD.pdb
     RDKit          3D

 24 23  0  0  1  0  0  0  0  0999 V2000
   -3.0549  -23.9264   23.0413 C   0  0  0  0  0  0  0  0  0  0  0  0
   -3.4184  -23.9102   24.4923 C   0  0  1  0  0  0  0  0  0  0  0  0
   -2.3653  -24.4982   25.2083 O   0  0  0  0  0  0  0  0  0  0  0  0
   -3.5766  -22.4884   24.9772 C   0  0  2  0  0  0  0  0  0  0  0  0
   -2.3514  -21.7743   24.7915 N   0  0  0  0  0  0  0  0  0  0  0  0
   -3.9556  -22.4478   26.4136 C   0  0  0  0  0  0  0  0  0  0  0  0
   -3.0896  -22.3634   27.3402 O   0  0  0  0  0  0  0  0  0  0  0  0
   -5.3016  -22.5028   26.7943 N   0  0  0  0  0  0  0  0  0  0  0  0
   -5.8250  -22.5365   28.1220 C   0  0  1  0  0  0  0  0  0  0  0  0
   -7.3085  -22.1550   28.0740 C   0  0  0  0  0  0  0  0  0  0  0  0
   -7.8946  -22.0799   29.4224 C   0  0  0  0  0  0  0  0  0  0  0  0
   -7.1992  -22.3516   30.4213 O   0  0  0  0  0  0  0  0  0  0  0  0
   -5.7602  -23.9295   28.6294 C   0  0  0  0  0  0  0  0  0  0  0  0
   -6.1639  -24.8570   27.8788 O   0  0  0  0  0  0  0  0  0  0  0  0
   -9.2224  -21.7056   29.5615 O   0  0  0  0  0  0  0  0  0  0  0  0
   -5.2622  -24.2138   29.9148 N   0  0  0  0  0  0  0  0  0  0  0  0
   -5.0965  -25.5740   30.3535 C   0  0  1  0  0  0  0  0  0  0  0  0
   -3.6273  -25.8967   30.4041 C   0  0  0  0  0  0  0  0  0  0  0  0
   -3.3155  -27.2289   30.9220 C   0  0  0  0  0  0  0  0  0  0  0  0
   -4.1316  -28.1589   30.6228 O   0  0  0  0  0  0  0  0  0  0  0  0
   -5.7392  -25.7275   31.6918 C   0  0  0  0  0  0  0  0  0  0  0  0
   -5.8726  -24.7423   32.4617 O   0  0  0  0  0  0  0  0  0  0  0  0
   -2.2346  -27.5854   31.6975 O   0  0  0  0  0  0  0  0  0  0  0  0
   -6.2132  -26.9500   32.1426 O   0  0  0  0  0  0  0  0  0  0  0  0
  2  1  1  6
  3  2  1  0
  4  2  1  0
  4  6  1  0
  4  5  1  1
  6  7  2  0
  8  9  1  0
  8  6  1  0
  9 10  1  6
 10 11  1  0
 11 15  1  0
 12 11  2  0
 13  9  1  0
 14 13  2  0
 16 13  1  0
 17 21  1  0
 17 16  1  0
 17 18  1  1
 19 18  1  0
 20 19  2  0
 21 24  1  0
 22 21  2  0
 23 19  1  0
M  END
$$$$
