TDD.pdb
     RDKit          3D

 24 23  0  0  1  0  0  0  0  0999 V2000
    7.0587  -12.8340   18.8057 C   0  0  0  0  0  0  0  0  0  0  0  0
    8.0380  -13.7745   19.4333 C   0  0  1  0  0  0  0  0  0  0  0  0
    8.4651  -13.2092   20.6439 O   0  0  0  0  0  0  0  0  0  0  0  0
    7.3725  -15.0945   19.7431 C   0  0  2  0  0  0  0  0  0  0  0  0
    6.2350  -14.8781   20.5828 N   0  0  0  0  0  0  0  0  0  0  0  0
    8.3120  -16.0262   20.4199 C   0  0  0  0  0  0  0  0  0  0  0  0
    8.2225  -16.2965   21.6586 O   0  0  0  0  0  0  0  0  0  0  0  0
    9.3413  -16.6436   19.6994 N   0  0  0  0  0  0  0  0  0  0  0  0
   10.2814  -17.6030   20.1828 C   0  0  1  0  0  0  0  0  0  0  0  0
   11.0767  -18.1524   18.9936 C   0  0  0  0  0  0  0  0  0  0  0  0
   11.9349  -19.2814   19.3884 C   0  0  0  0  0  0  0  0  0  0  0  0
   12.9844  -19.5181   18.7577 O   0  0  0  0  0  0  0  0  0  0  0  0
   11.2567  -16.9177   21.0667 C   0  0  0  0  0  0  0  0  0  0  0  0
   11.6757  -15.7804   20.7238 O   0  0  0  0  0  0  0  0  0  0  0  0
   11.5591  -20.0712   20.4642 O   0  0  0  0  0  0  0  0  0  0  0  0
   11.7063  -17.5173   22.2581 N   0  0  0  0  0  0  0  0  0  0  0  0
   12.5241  -16.7829   23.1864 C   0  0  1  0  0  0  0  0  0  0  0  0
   12.0708  -17.0908   24.5882 C   0  0  0  0  0  0  0  0  0  0  0  0
   10.8622  -16.3800   25.0058 C   0  0  0  0  0  0  0  0  0  0  0  0
   10.3485  -15.5860   24.1536 O   0  0  0  0  0  0  0  0  0  0  0  0
   13.9512  -17.1648   22.9741 C   0  0  0  0  0  0  0  0  0  0  0  0
   14.8699  -16.3114   23.0698 O   0  0  0  0  0  0  0  0  0  0  0  0
   10.2206  -16.4774   26.2205 O   0  0  0  0  0  0  0  0  0  0  0  0
   14.3254  -18.4636   22.6649 O   0  0  0  0  0  0  0  0  0  0  0  0
  2  1  1  1
  3  2  1  0
  4  2  1  0
  4  6  1  0
  4  5  1  1
  6  7  2  0
  8  9  1  0
  8  6  1  0
  9 10  1  6
 10 11  1  0
 11 15  1  0
 12 11  2  0
 13  9  1  0
 14 13  2  0
 16 13  1  0
 17 21  1  0
 17 16  1  0
 17 18  1  1
 19 18  1  0
 20 19  2  0
 21 24  1  0
 22 21  2  0
 23 19  1  0
M  END
$$$$
