TDD.pdb
     RDKit          3D

 24 23  0  0  1  0  0  0  0  0999 V2000
    9.5812  -12.2979   19.9793 C   0  0  0  0  0  0  0  0  0  0  0  0
    8.6585  -13.2495   19.2861 C   0  0  1  0  0  0  0  0  0  0  0  0
    7.5347  -12.5274   18.8579 O   0  0  0  0  0  0  0  0  0  0  0  0
    9.3296  -13.8358   18.0666 C   0  0  2  0  0  0  0  0  0  0  0  0
    8.3744  -14.5659   17.2920 N   0  0  0  0  0  0  0  0  0  0  0  0
   10.4461  -14.7397   18.4479 C   0  0  0  0  0  0  0  0  0  0  0  0
   10.2585  -15.9638   18.7342 O   0  0  0  0  0  0  0  0  0  0  0  0
   11.7600  -14.2599   18.5042 N   0  0  0  0  0  0  0  0  0  0  0  0
   12.9220  -14.9672   18.9372 C   0  0  1  0  0  0  0  0  0  0  0  0
   14.1639  -14.2327   18.4207 C   0  0  0  0  0  0  0  0  0  0  0  0
   14.5998  -14.7534   17.1146 C   0  0  0  0  0  0  0  0  0  0  0  0
   14.9680  -13.9663   16.2202 O   0  0  0  0  0  0  0  0  0  0  0  0
   12.9874  -14.9233   20.4190 C   0  0  0  0  0  0  0  0  0  0  0  0
   13.0030  -13.7967   20.9822 O   0  0  0  0  0  0  0  0  0  0  0  0
   14.5934  -16.1229   16.8976 O   0  0  0  0  0  0  0  0  0  0  0  0
   13.0315  -16.1056   21.1813 N   0  0  0  0  0  0  0  0  0  0  0  0
   13.0986  -16.0511   22.6175 C   0  0  1  0  0  0  0  0  0  0  0  0
   12.2186  -17.1296   23.1901 C   0  0  0  0  0  0  0  0  0  0  0  0
   12.2742  -17.2491   24.6471 C   0  0  0  0  0  0  0  0  0  0  0  0
   12.9847  -16.3888   25.2599 O   0  0  0  0  0  0  0  0  0  0  0  0
   14.5206  -16.2216   23.0376 C   0  0  0  0  0  0  0  0  0  0  0  0
   15.2939  -16.9864   22.4065 O   0  0  0  0  0  0  0  0  0  0  0  0
   11.6408  -18.1912   25.4269 O   0  0  0  0  0  0  0  0  0  0  0  0
   15.0483  -15.5520   24.1310 O   0  0  0  0  0  0  0  0  0  0  0  0
  2  1  1  6
  3  2  1  0
  4  2  1  0
  4  6  1  0
  4  5  1  1
  6  7  2  0
  8  9  1  0
  8  6  1  0
  9 10  1  6
 10 11  1  0
 11 15  1  0
 12 11  2  0
 13  9  1  0
 14 13  2  0
 16 13  1  0
 17 21  1  0
 17 16  1  0
 17 18  1  1
 19 18  1  0
 20 19  2  0
 21 24  1  0
 22 21  2  0
 23 19  1  0
M  END
$$$$
