TDD.pdb
     RDKit          3D

 24 23  0  0  1  0  0  0  0  0999 V2000
    7.5649  -14.1949   17.0050 C   0  0  0  0  0  0  0  0  0  0  0  0
    8.1792  -14.5814   18.3130 C   0  0  1  0  0  0  0  0  0  0  0  0
    9.5726  -14.5847   18.1519 O   0  0  0  0  0  0  0  0  0  0  0  0
    7.8340  -13.5644   19.3751 C   0  0  2  0  0  0  0  0  0  0  0  0
    8.2485  -12.2625   18.9519 N   0  0  0  0  0  0  0  0  0  0  0  0
    8.4891  -13.8919   20.6682 C   0  0  0  0  0  0  0  0  0  0  0  0
    9.6148  -13.4036   20.9997 O   0  0  0  0  0  0  0  0  0  0  0  0
    7.8741  -14.7638   21.5745 N   0  0  0  0  0  0  0  0  0  0  0  0
    8.3764  -15.1922   22.8402 C   0  0  1  0  0  0  0  0  0  0  0  0
    7.3583  -16.1460   23.4744 C   0  0  0  0  0  0  0  0  0  0  0  0
    7.7690  -16.5593   24.8263 C   0  0  0  0  0  0  0  0  0  0  0  0
    8.9526  -16.8837   25.0473 O   0  0  0  0  0  0  0  0  0  0  0  0
    9.6174  -15.9769   22.6246 C   0  0  0  0  0  0  0  0  0  0  0  0
    9.5702  -16.9649   21.8446 O   0  0  0  0  0  0  0  0  0  0  0  0
    6.8247  -16.5822   25.8414 O   0  0  0  0  0  0  0  0  0  0  0  0
   10.8187  -15.6321   23.2718 N   0  0  0  0  0  0  0  0  0  0  0  0
   12.0059  -16.4234   23.0863 C   0  0  1  0  0  0  0  0  0  0  0  0
   13.1473  -15.5146   22.7169 C   0  0  0  0  0  0  0  0  0  0  0  0
   14.4275  -16.1955   22.5224 C   0  0  0  0  0  0  0  0  0  0  0  0
   15.3944  -15.8043   23.2522 O   0  0  0  0  0  0  0  0  0  0  0  0
   12.2851  -17.1715   24.3472 C   0  0  0  0  0  0  0  0  0  0  0  0
   11.6560  -16.9132   25.4049 O   0  0  0  0  0  0  0  0  0  0  0  0
   14.6992  -17.2136   21.6357 O   0  0  0  0  0  0  0  0  0  0  0  0
   13.2404  -18.1745   24.4094 O   0  0  0  0  0  0  0  0  0  0  0  0
  2  1  1  6
  3  2  1  0
  4  2  1  0
  4  6  1  0
  4  5  1  6
  6  7  2  0
  8  9  1  0
  8  6  1  0
  9 10  1  6
 10 11  1  0
 11 15  1  0
 12 11  2  0
 13  9  1  0
 14 13  2  0
 16 13  1  0
 17 21  1  0
 17 16  1  0
 17 18  1  1
 19 18  1  0
 20 19  2  0
 21 24  1  0
 22 21  2  0
 23 19  1  0
M  END
$$$$
