TDD.pdb
     RDKit          3D

 24 23  0  0  1  0  0  0  0  0999 V2000
    8.8661  -15.9091   16.6988 C   0  0  0  0  0  0  0  0  0  0  0  0
    8.6090  -14.4361   16.6566 C   0  0  1  0  0  0  0  0  0  0  0  0
    7.7754  -14.1741   15.5593 O   0  0  0  0  0  0  0  0  0  0  0  0
    7.8874  -13.9938   17.9077 C   0  0  2  0  0  0  0  0  0  0  0  0
    7.4053  -12.6576   17.7419 N   0  0  0  0  0  0  0  0  0  0  0  0
    8.7813  -14.0495   19.0937 C   0  0  0  0  0  0  0  0  0  0  0  0
    9.6020  -13.1183   19.3672 O   0  0  0  0  0  0  0  0  0  0  0  0
    8.7445  -15.1494   19.9590 N   0  0  0  0  0  0  0  0  0  0  0  0
    9.5764  -15.3851   21.0950 C   0  0  1  0  0  0  0  0  0  0  0  0
    9.0155  -16.5798   21.8738 C   0  0  0  0  0  0  0  0  0  0  0  0
    9.8115  -16.8656   23.0788 C   0  0  0  0  0  0  0  0  0  0  0  0
   10.8149  -16.1737   23.3426 O   0  0  0  0  0  0  0  0  0  0  0  0
   10.9285  -15.7791   20.6275 C   0  0  0  0  0  0  0  0  0  0  0  0
   11.0443  -16.8466   19.9690 O   0  0  0  0  0  0  0  0  0  0  0  0
    9.4299  -17.9091   23.9082 O   0  0  0  0  0  0  0  0  0  0  0  0
   12.0563  -14.9856   20.9094 N   0  0  0  0  0  0  0  0  0  0  0  0
   13.3754  -15.4283   20.5434 C   0  0  1  0  0  0  0  0  0  0  0  0
   14.0718  -14.3247   19.7935 C   0  0  0  0  0  0  0  0  0  0  0  0
   14.2014  -14.5557   18.3547 C   0  0  0  0  0  0  0  0  0  0  0  0
   13.7797  -15.6753   17.9199 O   0  0  0  0  0  0  0  0  0  0  0  0
   14.1167  -15.8026   21.7836 C   0  0  0  0  0  0  0  0  0  0  0  0
   15.2941  -16.2404   21.7257 O   0  0  0  0  0  0  0  0  0  0  0  0
   14.7300  -13.6929   17.4204 O   0  0  0  0  0  0  0  0  0  0  0  0
   13.5473  -15.6863   23.0424 O   0  0  0  0  0  0  0  0  0  0  0  0
  2  1  1  1
  3  2  1  0
  4  2  1  0
  4  6  1  0
  4  5  1  6
  6  7  2  0
  8  9  1  0
  8  6  1  0
  9 10  1  1
 10 11  1  0
 11 15  1  0
 12 11  2  0
 13  9  1  0
 14 13  2  0
 16 13  1  0
 17 21  1  0
 17 16  1  0
 17 18  1  1
 19 18  1  0
 20 19  2  0
 21 24  1  0
 22 21  2  0
 23 19  1  0
M  END
$$$$
