TDD.pdb
     RDKit          3D

 24 23  0  0  1  0  0  0  0  0999 V2000
    8.0281  -13.8857   16.1575 C   0  0  0  0  0  0  0  0  0  0  0  0
    8.5949  -14.4514   17.4210 C   0  0  1  0  0  0  0  0  0  0  0  0
    9.9340  -14.0444   17.5142 O   0  0  0  0  0  0  0  0  0  0  0  0
    7.8556  -13.9031   18.6186 C   0  0  2  0  0  0  0  0  0  0  0  0
    7.8595  -12.4735   18.5775 N   0  0  0  0  0  0  0  0  0  0  0  0
    8.4755  -14.3592   19.8900 C   0  0  0  0  0  0  0  0  0  0  0  0
    9.1771  -13.5872   20.6162 O   0  0  0  0  0  0  0  0  0  0  0  0
    8.3018  -15.6762   20.3318 N   0  0  0  0  0  0  0  0  0  0  0  0
    8.8678  -16.2809   21.4946 C   0  0  1  0  0  0  0  0  0  0  0  0
    8.2549  -17.6744   21.6702 C   0  0  0  0  0  0  0  0  0  0  0  0
    8.8057  -18.3665   22.8469 C   0  0  0  0  0  0  0  0  0  0  0  0
    8.7887  -17.8103   23.9629 O   0  0  0  0  0  0  0  0  0  0  0  0
   10.3216  -16.4804   21.2736 C   0  0  0  0  0  0  0  0  0  0  0  0
   10.6852  -17.1751   20.2878 O   0  0  0  0  0  0  0  0  0  0  0  0
    9.3402  -19.6368   22.6942 O   0  0  0  0  0  0  0  0  0  0  0  0
   11.2745  -15.9115   22.1393 N   0  0  0  0  0  0  0  0  0  0  0  0
   12.6758  -16.1939   21.9760 C   0  0  1  0  0  0  0  0  0  0  0  0
   13.3845  -14.9324   21.5617 C   0  0  0  0  0  0  0  0  0  0  0  0
   13.7320  -14.8691   20.1420 C   0  0  0  0  0  0  0  0  0  0  0  0
   14.1367  -15.9517   19.6085 O   0  0  0  0  0  0  0  0  0  0  0  0
   13.2105  -16.7270   23.2633 C   0  0  0  0  0  0  0  0  0  0  0  0
   14.2206  -17.4757   23.2831 O   0  0  0  0  0  0  0  0  0  0  0  0
   13.6684  -13.7653   19.3208 O   0  0  0  0  0  0  0  0  0  0  0  0
   12.6245  -16.4247   24.4830 O   0  0  0  0  0  0  0  0  0  0  0  0
  2  1  1  6
  3  2  1  0
  4  2  1  0
  4  6  1  0
  4  5  1  6
  6  7  2  0
  8  9  1  0
  8  6  1  0
  9 10  1  6
 10 11  1  0
 11 15  1  0
 12 11  2  0
 13  9  1  0
 14 13  2  0
 16 13  1  0
 17 21  1  0
 17 16  1  0
 17 18  1  1
 19 18  1  0
 20 19  2  0
 21 24  1  0
 22 21  2  0
 23 19  1  0
M  END
$$$$
