TDD.pdb
     RDKit          3D

 24 23  0  0  1  0  0  0  0  0999 V2000
    8.5738  -15.7356   17.6063 C   0  0  0  0  0  0  0  0  0  0  0  0
    8.4914  -14.2465   17.4908 C   0  0  1  0  0  0  0  0  0  0  0  0
    7.4593  -13.9391   16.5920 O   0  0  0  0  0  0  0  0  0  0  0  0
    8.1440  -13.6355   18.8278 C   0  0  2  0  0  0  0  0  0  0  0  0
    7.8143  -12.2542   18.6581 N   0  0  0  0  0  0  0  0  0  0  0  0
    9.2739  -13.7563   19.7856 C   0  0  0  0  0  0  0  0  0  0  0  0
   10.3046  -13.0162   19.7134 O   0  0  0  0  0  0  0  0  0  0  0  0
    9.2348  -14.7065   20.8130 N   0  0  0  0  0  0  0  0  0  0  0  0
   10.2274  -14.9431   21.8114 C   0  0  1  0  0  0  0  0  0  0  0  0
    9.6553  -15.9122   22.8516 C   0  0  0  0  0  0  0  0  0  0  0  0
   10.5827  -16.1113   23.9774 C   0  0  0  0  0  0  0  0  0  0  0  0
   11.6118  -16.7987   23.8243 O   0  0  0  0  0  0  0  0  0  0  0  0
   11.3861  -15.6267   21.1851 C   0  0  0  0  0  0  0  0  0  0  0  0
   11.1824  -16.3231   20.1555 O   0  0  0  0  0  0  0  0  0  0  0  0
   10.2943  -15.5267   25.2011 O   0  0  0  0  0  0  0  0  0  0  0  0
   12.6812  -15.5047   21.7225 N   0  0  0  0  0  0  0  0  0  0  0  0
   13.8396  -15.5950   20.8741 C   0  0  1  0  0  0  0  0  0  0  0  0
   13.7351  -14.5558   19.7904 C   0  0  0  0  0  0  0  0  0  0  0  0
   14.8781  -14.5121   18.8783 C   0  0  0  0  0  0  0  0  0  0  0  0
   15.5563  -13.4349   18.8704 O   0  0  0  0  0  0  0  0  0  0  0  0
   15.0613  -15.3978   21.7084 C   0  0  0  0  0  0  0  0  0  0  0  0
   16.1966  -15.7288   21.2808 O   0  0  0  0  0  0  0  0  0  0  0  0
   15.2996  -15.5103   18.0281 O   0  0  0  0  0  0  0  0  0  0  0  0
   15.0013  -14.8466   22.9793 O   0  0  0  0  0  0  0  0  0  0  0  0
  2  1  1  1
  3  2  1  0
  4  2  1  0
  4  6  1  0
  4  5  1  6
  6  7  2  0
  8  9  1  0
  8  6  1  0
  9 10  1  1
 10 11  1  0
 11 15  1  0
 12 11  2  0
 13  9  1  0
 14 13  2  0
 16 13  1  0
 17 21  1  0
 17 16  1  0
 17 18  1  6
 19 18  1  0
 20 19  2  0
 21 24  1  0
 22 21  2  0
 23 19  1  0
M  END
$$$$
