TDD.pdb
     RDKit          3D

 24 23  0  0  1  0  0  0  0  0999 V2000
    9.7661  -12.4729   19.6954 C   0  0  0  0  0  0  0  0  0  0  0  0
    8.4295  -12.9091   19.1845 C   0  0  1  0  0  0  0  0  0  0  0  0
    7.9001  -11.8645   18.4124 O   0  0  0  0  0  0  0  0  0  0  0  0
    8.5785  -14.1196   18.2934 C   0  0  2  0  0  0  0  0  0  0  0  0
    7.2984  -14.5107   17.7896 N   0  0  0  0  0  0  0  0  0  0  0  0
    9.1854  -15.2592   19.0293 C   0  0  0  0  0  0  0  0  0  0  0  0
    8.5362  -15.9317   19.8906 O   0  0  0  0  0  0  0  0  0  0  0  0
   10.5139  -15.6312   18.7910 N   0  0  0  0  0  0  0  0  0  0  0  0
   11.2593  -16.6520   19.4545 C   0  0  1  0  0  0  0  0  0  0  0  0
   12.2729  -17.2396   18.4667 C   0  0  0  0  0  0  0  0  0  0  0  0
   11.6361  -18.1776   17.5276 C   0  0  0  0  0  0  0  0  0  0  0  0
   10.6734  -18.8770   17.9005 O   0  0  0  0  0  0  0  0  0  0  0  0
   12.0439  -16.0371   20.5537 C   0  0  0  0  0  0  0  0  0  0  0  0
   12.6385  -14.9501   20.3264 O   0  0  0  0  0  0  0  0  0  0  0  0
   12.1217  -18.2698   16.2321 O   0  0  0  0  0  0  0  0  0  0  0  0
   12.1263  -16.6472   21.8194 N   0  0  0  0  0  0  0  0  0  0  0  0
   12.8086  -15.9956   22.9055 C   0  0  1  0  0  0  0  0  0  0  0  0
   12.4600  -16.6942   24.1923 C   0  0  0  0  0  0  0  0  0  0  0  0
   11.0673  -16.5358   24.6115 C   0  0  0  0  0  0  0  0  0  0  0  0
   10.3445  -15.7678   23.8986 O   0  0  0  0  0  0  0  0  0  0  0  0
   14.2769  -16.0330   22.6405 C   0  0  0  0  0  0  0  0  0  0  0  0
   14.7846  -16.9470   21.9417 O   0  0  0  0  0  0  0  0  0  0  0  0
   10.4542  -17.1279   25.6933 O   0  0  0  0  0  0  0  0  0  0  0  0
   15.1390  -15.0724   23.1469 O   0  0  0  0  0  0  0  0  0  0  0  0
  2  1  1  6
  3  2  1  0
  4  2  1  0
  4  6  1  0
  4  5  1  1
  6  7  2  0
  8  9  1  0
  8  6  1  0
  9 10  1  6
 10 11  1  0
 11 15  1  0
 12 11  2  0
 13  9  1  0
 14 13  2  0
 16 13  1  0
 17 21  1  0
 17 16  1  0
 17 18  1  1
 19 18  1  0
 20 19  2  0
 21 24  1  0
 22 21  2  0
 23 19  1  0
M  END
$$$$
