FSQ.pdb
     RDKit          3D

 27 27  0  0  1  0  0  0  0  0999 V2000
    5.6898  -17.2637   25.5874 N   0  0  0  0  0  0  0  0  0  0  0  0
    6.2830  -16.0416   25.0859 C   0  0  1  0  0  0  0  0  0  0  0  0
    7.1464  -15.3822   26.1388 C   0  0  0  0  0  0  0  0  0  0  0  0
    6.9187  -13.9201   26.1993 C   0  0  0  0  0  0  0  0  0  0  0  0
    5.7093  -13.3927   26.6186 C   0  0  0  0  0  0  0  0  0  0  0  0
    5.4963  -12.0224   26.6751 C   0  0  0  0  0  0  0  0  0  0  0  0
    6.4938  -11.1505   26.3114 C   0  0  0  0  0  0  0  0  0  0  0  0
    7.6966  -11.6482   25.8940 C   0  0  0  0  0  0  0  0  0  0  0  0
    7.8941  -13.0121   25.8429 C   0  0  0  0  0  0  0  0  0  0  0  0
    7.0287  -16.3450   23.8614 C   0  0  0  0  0  0  0  0  0  0  0  0
    7.7823  -17.3540   23.7863 O   0  0  0  0  0  0  0  0  0  0  0  0
    8.6956  -14.7354   19.5318 O   0  0  0  0  0  0  0  0  0  0  0  0
    7.7526  -14.6032   20.5470 C   0  0  0  0  0  0  0  0  0  0  0  0
    8.0018  -15.5524   21.6861 C   0  0  2  0  0  0  0  0  0  0  0  0
    6.9660  -15.5412   22.6765 N   0  0  0  0  0  0  0  0  0  0  0  0
    9.3458  -15.2739   22.2638 C   0  0  0  0  0  0  0  0  0  0  0  0
    9.3661  -14.4893   23.2422 O   0  0  0  0  0  0  0  0  0  0  0  0
   12.0936  -17.6290   26.1979 N   0  0  0  0  0  0  0  0  0  0  0  0
   11.6095  -18.3910   25.1118 C   0  0  0  0  0  0  0  0  0  0  0  0
   11.2948  -19.5813   25.3051 O   0  0  0  0  0  0  0  0  0  0  0  0
   11.4816  -17.7892   23.7852 C   0  0  0  0  0  0  0  0  0  0  0  0
   11.8348  -16.3446   23.7249 C   0  0  0  0  0  0  0  0  0  0  0  0
   11.8435  -15.7025   22.3929 C   0  0  2  0  0  0  0  0  0  0  0  0
   10.5309  -15.8400   21.7647 N   0  0  0  0  0  0  0  0  0  0  0  0
   12.8665  -16.2992   21.4877 C   0  0  0  0  0  0  0  0  0  0  0  0
   12.4795  -16.8437   20.4344 O   0  0  0  0  0  0  0  0  0  0  0  0
   14.2150  -16.2835   21.7522 O   0  0  0  0  0  0  0  0  0  0  0  0
  2  1  1  1
  3  2  1  0
  4  3  1  0
  4  9  2  0
  5  4  1  0
  6  5  2  0
  6  7  1  0
  7  8  2  0
  8  9  1  0
 10  2  1  0
 11 10  2  0
 12 13  1  0
 14 13  1  6
 14 16  1  0
 14 15  1  0
 15 10  1  0
 16 17  2  0
 18 19  1  0
 19 21  1  0
 20 19  2  0
 21 22  1  0
 23 22  1  1
 24 23  1  0
 24 16  1  0
 25 27  1  0
 25 23  1  0
 26 25  2  0
M  END
$$$$
