FSQ.pdb
     RDKit          3D

 27 27  0  0  1  0  0  0  0  0999 V2000
    6.7947  -15.6887   25.6315 N   0  0  0  0  0  0  0  0  0  0  0  0
    6.6240  -15.3872   24.2254 C   0  0  1  0  0  0  0  0  0  0  0  0
    6.6339  -13.8940   23.9826 C   0  0  0  0  0  0  0  0  0  0  0  0
    6.5762  -13.1308   25.2505 C   0  0  0  0  0  0  0  0  0  0  0  0
    5.3789  -12.6494   25.7516 C   0  0  0  0  0  0  0  0  0  0  0  0
    5.3253  -11.9342   26.9399 C   0  0  0  0  0  0  0  0  0  0  0  0
    6.4739  -11.6863   27.6518 C   0  0  0  0  0  0  0  0  0  0  0  0
    7.6680  -12.1519   27.1765 C   0  0  0  0  0  0  0  0  0  0  0  0
    7.7061  -12.8611   25.9944 C   0  0  0  0  0  0  0  0  0  0  0  0
    7.6626  -16.0844   23.4622 C   0  0  0  0  0  0  0  0  0  0  0  0
    8.4923  -16.8467   24.0298 O   0  0  0  0  0  0  0  0  0  0  0  0
    8.8814  -14.9866   19.5917 O   0  0  0  0  0  0  0  0  0  0  0  0
    8.8502  -16.3543   19.8483 C   0  0  0  0  0  0  0  0  0  0  0  0
    8.8411  -16.6598   21.3205 C   0  0  2  0  0  0  0  0  0  0  0  0
    7.8190  -15.9618   22.0428 N   0  0  0  0  0  0  0  0  0  0  0  0
   10.2009  -16.4129   21.8751 C   0  0  0  0  0  0  0  0  0  0  0  0
   10.3854  -15.2799   22.3806 O   0  0  0  0  0  0  0  0  0  0  0  0
   11.8386  -20.0954   25.9171 N   0  0  0  0  0  0  0  0  0  0  0  0
   11.6495  -18.7095   26.1117 C   0  0  0  0  0  0  0  0  0  0  0  0
   11.0244  -18.3232   27.1183 O   0  0  0  0  0  0  0  0  0  0  0  0
   12.1799  -17.7482   25.1458 C   0  0  0  0  0  0  0  0  0  0  0  0
   12.3531  -18.2865   23.7691 C   0  0  0  0  0  0  0  0  0  0  0  0
   12.4404  -17.3085   22.6634 C   0  0  2  0  0  0  0  0  0  0  0  0
   11.2294  -17.3697   21.8471 N   0  0  0  0  0  0  0  0  0  0  0  0
   13.6176  -17.5581   21.7835 C   0  0  0  0  0  0  0  0  0  0  0  0
   14.5137  -16.6920   21.7337 O   0  0  0  0  0  0  0  0  0  0  0  0
   13.7681  -18.6919   21.0215 O   0  0  0  0  0  0  0  0  0  0  0  0
  2  1  1  1
  3  2  1  0
  4  3  1  0
  4  9  2  0
  5  4  1  0
  6  5  2  0
  6  7  1  0
  7  8  2  0
  8  9  1  0
 10  2  1  0
 11 10  2  0
 12 13  1  0
 14 13  1  6
 14 16  1  0
 14 15  1  0
 15 10  1  0
 16 17  2  0
 18 19  1  0
 19 21  1  0
 20 19  2  0
 21 22  1  0
 23 22  1  1
 24 23  1  0
 24 16  1  0
 25 27  1  0
 25 23  1  0
 26 25  2  0
M  END
$$$$
