FSQ.pdb
     RDKit          3D

 27 27  0  0  1  0  0  0  0  0999 V2000
    6.2454  -17.2781   25.8794 N   0  0  0  0  0  0  0  0  0  0  0  0
    7.0237  -16.3064   25.1397 C   0  0  1  0  0  0  0  0  0  0  0  0
    7.7077  -15.3312   26.0725 C   0  0  0  0  0  0  0  0  0  0  0  0
    7.1401  -13.9684   25.9551 C   0  0  0  0  0  0  0  0  0  0  0  0
    7.6367  -13.0537   25.0424 C   0  0  0  0  0  0  0  0  0  0  0  0
    7.1044  -11.7766   24.9327 C   0  0  0  0  0  0  0  0  0  0  0  0
    6.0607  -11.3894   25.7379 C   0  0  0  0  0  0  0  0  0  0  0  0
    5.5538  -12.2758   26.6468 C   0  0  0  0  0  0  0  0  0  0  0  0
    6.0926  -13.5414   26.7447 C   0  0  0  0  0  0  0  0  0  0  0  0
    7.9737  -17.0167   24.2793 C   0  0  0  0  0  0  0  0  0  0  0  0
    8.4994  -18.1046   24.6421 O   0  0  0  0  0  0  0  0  0  0  0  0
    9.4369  -15.4171   20.6615 O   0  0  0  0  0  0  0  0  0  0  0  0
    9.2453  -16.7951   20.7027 C   0  0  0  0  0  0  0  0  0  0  0  0
    9.1998  -17.3244   22.1093 C   0  0  2  0  0  0  0  0  0  0  0  0
    8.3750  -16.5468   22.9861 N   0  0  0  0  0  0  0  0  0  0  0  0
   10.5920  -17.4710   22.6172 C   0  0  0  0  0  0  0  0  0  0  0  0
   11.1814  -16.4025   22.9069 O   0  0  0  0  0  0  0  0  0  0  0  0
   14.7944  -18.6955   18.9966 N   0  0  0  0  0  0  0  0  0  0  0  0
   14.7362  -18.5417   20.3993 C   0  0  0  0  0  0  0  0  0  0  0  0
   15.7810  -18.6836   21.0638 O   0  0  0  0  0  0  0  0  0  0  0  0
   13.4694  -18.2217   21.0560 C   0  0  0  0  0  0  0  0  0  0  0  0
   13.5500  -18.1201   22.5386 C   0  0  0  0  0  0  0  0  0  0  0  0
   12.5682  -18.8956   23.3270 C   0  0  2  0  0  0  0  0  0  0  0  0
   11.2283  -18.7141   22.7718 N   0  0  0  0  0  0  0  0  0  0  0  0
   12.5469  -18.4846   24.7597 C   0  0  0  0  0  0  0  0  0  0  0  0
   12.5021  -19.3762   25.6307 O   0  0  0  0  0  0  0  0  0  0  0  0
   12.5720  -17.1742   25.1733 O   0  0  0  0  0  0  0  0  0  0  0  0
  2  1  1  1
  3  2  1  0
  4  3  1  0
  4  9  2  0
  5  4  1  0
  6  5  2  0
  6  7  1  0
  7  8  2  0
  8  9  1  0
 10  2  1  0
 11 10  2  0
 12 13  1  0
 14 13  1  6
 14 16  1  0
 14 15  1  0
 15 10  1  0
 16 17  2  0
 18 19  1  0
 19 21  1  0
 20 19  2  0
 21 22  1  0
 23 22  1  6
 24 23  1  0
 24 16  1  0
 25 27  1  0
 25 23  1  0
 26 25  2  0
M  END
$$$$
