FSQ.pdb
     RDKit          3D

 27 27  0  0  1  0  0  0  0  0999 V2000
    6.4741  -16.5695   25.9677 N   0  0  0  0  0  0  0  0  0  0  0  0
    6.5941  -16.4717   24.5279 C   0  0  1  0  0  0  0  0  0  0  0  0
    6.0975  -15.1327   24.0288 C   0  0  0  0  0  0  0  0  0  0  0  0
    6.6024  -14.0152   24.8591 C   0  0  0  0  0  0  0  0  0  0  0  0
    5.8499  -13.4838   25.8924 C   0  0  0  0  0  0  0  0  0  0  0  0
    6.3235  -12.4364   26.6704 C   0  0  0  0  0  0  0  0  0  0  0  0
    7.5644  -11.8991   26.4277 C   0  0  0  0  0  0  0  0  0  0  0  0
    8.3256  -12.4077   25.4125 C   0  0  0  0  0  0  0  0  0  0  0  0
    7.8422  -13.4484   24.6477 C   0  0  0  0  0  0  0  0  0  0  0  0
    7.9868  -16.7273   24.1504 C   0  0  0  0  0  0  0  0  0  0  0  0
    8.8315  -17.1301   24.9965 O   0  0  0  0  0  0  0  0  0  0  0  0
    9.6020  -15.4852   20.5093 O   0  0  0  0  0  0  0  0  0  0  0  0
   10.1409  -16.6691   21.0046 C   0  0  0  0  0  0  0  0  0  0  0  0
    9.8438  -16.8656   22.4653 C   0  0  2  0  0  0  0  0  0  0  0  0
    8.4931  -16.5456   22.8220 N   0  0  0  0  0  0  0  0  0  0  0  0
   10.8408  -16.1058   23.2692 C   0  0  0  0  0  0  0  0  0  0  0  0
   10.9266  -14.8808   23.0138 O   0  0  0  0  0  0  0  0  0  0  0  0
   10.6329  -14.3120   28.9732 N   0  0  0  0  0  0  0  0  0  0  0  0
   11.1267  -15.5569   28.5251 C   0  0  0  0  0  0  0  0  0  0  0  0
   11.6088  -16.3481   29.3588 O   0  0  0  0  0  0  0  0  0  0  0  0
   11.0714  -15.9069   27.1064 C   0  0  0  0  0  0  0  0  0  0  0  0
   12.3800  -16.2970   26.5143 C   0  0  0  0  0  0  0  0  0  0  0  0
   12.6042  -15.9729   25.0890 C   0  0  2  0  0  0  0  0  0  0  0  0
   11.6464  -16.6980   24.2563 N   0  0  0  0  0  0  0  0  0  0  0  0
   13.9820  -16.3254   24.6422 C   0  0  0  0  0  0  0  0  0  0  0  0
   14.1353  -17.3506   23.9485 O   0  0  0  0  0  0  0  0  0  0  0  0
   15.0945  -15.5818   24.9554 O   0  0  0  0  0  0  0  0  0  0  0  0
  2  1  1  1
  3  2  1  0
  4  3  1  0
  4  9  2  0
  5  4  1  0
  6  5  2  0
  6  7  1  0
  7  8  2  0
  8  9  1  0
 10  2  1  0
 11 10  2  0
 12 13  1  0
 14 13  1  6
 14 16  1  0
 14 15  1  0
 15 10  1  0
 16 17  2  0
 18 19  1  0
 19 21  1  0
 20 19  2  0
 21 22  1  0
 23 22  1  1
 24 23  1  0
 24 16  1  0
 25 27  1  0
 25 23  1  0
 26 25  2  0
M  END
$$$$
