FSQ.pdb
     RDKit          3D

 27 27  0  0  1  0  0  0  0  0999 V2000
    6.1505  -16.3723   25.1244 N   0  0  0  0  0  0  0  0  0  0  0  0
    7.3367  -15.7015   24.6343 C   0  0  1  0  0  0  0  0  0  0  0  0
    7.9933  -14.8867   25.7269 C   0  0  0  0  0  0  0  0  0  0  0  0
    7.3245  -13.5786   25.9140 C   0  0  0  0  0  0  0  0  0  0  0  0
    7.4709  -12.5530   24.9957 C   0  0  0  0  0  0  0  0  0  0  0  0
    6.8439  -11.3273   25.1715 C   0  0  0  0  0  0  0  0  0  0  0  0
    6.0553  -11.1041   26.2742 C   0  0  0  0  0  0  0  0  0  0  0  0
    5.8961  -12.1023   27.1945 C   0  0  0  0  0  0  0  0  0  0  0  0
    6.5251  -13.3150   27.0069 C   0  0  0  0  0  0  0  0  0  0  0  0
    8.2428  -16.7005   24.0610 C   0  0  0  0  0  0  0  0  0  0  0  0
    8.4609  -17.7980   24.6436 O   0  0  0  0  0  0  0  0  0  0  0  0
   10.8249  -15.7779   20.8170 O   0  0  0  0  0  0  0  0  0  0  0  0
   10.4825  -17.1138   21.0056 C   0  0  0  0  0  0  0  0  0  0  0  0
    9.9986  -17.3883   22.4025 C   0  0  2  0  0  0  0  0  0  0  0  0
    8.9394  -16.5188   22.8218 N   0  0  0  0  0  0  0  0  0  0  0  0
   11.1613  -17.3598   23.3325 C   0  0  0  0  0  0  0  0  0  0  0  0
   11.5676  -16.2197   23.6617 O   0  0  0  0  0  0  0  0  0  0  0  0
   10.6703  -20.6351   27.4270 N   0  0  0  0  0  0  0  0  0  0  0  0
   11.0263  -19.3301   27.8331 C   0  0  0  0  0  0  0  0  0  0  0  0
   10.4767  -18.8425   28.8397 O   0  0  0  0  0  0  0  0  0  0  0  0
   12.0230  -18.5682   27.0818 C   0  0  0  0  0  0  0  0  0  0  0  0
   12.6297  -19.3026   25.9383 C   0  0  0  0  0  0  0  0  0  0  0  0
   12.9387  -18.5252   24.7189 C   0  0  2  0  0  0  0  0  0  0  0  0
   11.7823  -18.5200   23.8248 N   0  0  0  0  0  0  0  0  0  0  0  0
   14.1070  -19.0810   23.9786 C   0  0  0  0  0  0  0  0  0  0  0  0
   13.9001  -19.6542   22.8903 O   0  0  0  0  0  0  0  0  0  0  0  0
   15.4017  -18.9977   24.4320 O   0  0  0  0  0  0  0  0  0  0  0  0
  2  1  1  1
  3  2  1  0
  4  3  1  0
  4  9  2  0
  5  4  1  0
  6  5  2  0
  6  7  1  0
  7  8  2  0
  8  9  1  0
 10  2  1  0
 11 10  2  0
 12 13  1  0
 14 13  1  6
 14 16  1  0
 14 15  1  0
 15 10  1  0
 16 17  2  0
 18 19  1  0
 19 21  1  0
 20 19  2  0
 21 22  1  0
 23 22  1  1
 24 23  1  0
 24 16  1  0
 25 27  1  0
 25 23  1  0
 26 25  2  0
M  END
$$$$
