FSQ.pdb
     RDKit          3D

 27 27  0  0  1  0  0  0  0  0999 V2000
    5.8422  -17.3122   25.1459 N   0  0  0  0  0  0  0  0  0  0  0  0
    6.5271  -16.0930   24.7695 C   0  0  1  0  0  0  0  0  0  0  0  0
    7.2431  -15.4817   25.9538 C   0  0  0  0  0  0  0  0  0  0  0  0
    6.7637  -14.1094   26.2370 C   0  0  0  0  0  0  0  0  0  0  0  0
    6.4341  -13.7084   27.5204 C   0  0  0  0  0  0  0  0  0  0  0  0
    5.9848  -12.4222   27.7855 C   0  0  0  0  0  0  0  0  0  0  0  0
    5.8566  -11.5094   26.7667 C   0  0  0  0  0  0  0  0  0  0  0  0
    6.1763  -11.8827   25.4911 C   0  0  0  0  0  0  0  0  0  0  0  0
    6.6214  -13.1640   25.2426 C   0  0  0  0  0  0  0  0  0  0  0  0
    7.4351  -16.3843   23.6569 C   0  0  0  0  0  0  0  0  0  0  0  0
    8.1760  -17.4054   23.6660 O   0  0  0  0  0  0  0  0  0  0  0  0
    7.4591  -15.1730   19.5623 O   0  0  0  0  0  0  0  0  0  0  0  0
    8.5226  -14.7851   20.3721 C   0  0  0  0  0  0  0  0  0  0  0  0
    8.6614  -15.6561   21.5898 C   0  0  2  0  0  0  0  0  0  0  0  0
    7.5545  -15.5545   22.4944 N   0  0  0  0  0  0  0  0  0  0  0  0
    9.9646  -15.3640   22.2486 C   0  0  0  0  0  0  0  0  0  0  0  0
    9.9488  -14.4470   23.1043 O   0  0  0  0  0  0  0  0  0  0  0  0
   12.0113  -16.9233   26.8137 N   0  0  0  0  0  0  0  0  0  0  0  0
   11.5867  -17.8763   25.8619 C   0  0  0  0  0  0  0  0  0  0  0  0
   11.1275  -18.9633   26.2628 O   0  0  0  0  0  0  0  0  0  0  0  0
   11.6863  -17.5879   24.4318 C   0  0  0  0  0  0  0  0  0  0  0  0
   12.2012  -16.2292   24.1094 C   0  0  0  0  0  0  0  0  0  0  0  0
   12.4063  -15.9016   22.6820 C   0  0  2  0  0  0  0  0  0  0  0  0
   11.1506  -16.0555   21.9499 N   0  0  0  0  0  0  0  0  0  0  0  0
   13.4347  -16.7740   22.0469 C   0  0  0  0  0  0  0  0  0  0  0  0
   13.0605  -17.6107   21.2010 O   0  0  0  0  0  0  0  0  0  0  0  0
   14.7746  -16.7077   22.3451 O   0  0  0  0  0  0  0  0  0  0  0  0
  2  1  1  1
  3  2  1  0
  4  3  1  0
  4  9  2  0
  5  4  1  0
  6  5  2  0
  6  7  1  0
  7  8  2  0
  8  9  1  0
 10  2  1  0
 11 10  2  0
 12 13  1  0
 14 13  1  6
 14 16  1  0
 14 15  1  0
 15 10  1  0
 16 17  2  0
 18 19  1  0
 19 21  1  0
 20 19  2  0
 21 22  1  0
 23 22  1  1
 24 23  1  0
 24 16  1  0
 25 27  1  0
 25 23  1  0
 26 25  2  0
M  END
$$$$
