FSQ.pdb
     RDKit          3D

 27 27  0  0  1  0  0  0  0  0999 V2000
    8.2975  -17.3016   19.9078 N   0  0  0  0  0  0  0  0  0  0  0  0
    9.0462  -16.5912   20.9236 C   0  0  1  0  0  0  0  0  0  0  0  0
    8.1681  -15.5999   21.6551 C   0  0  0  0  0  0  0  0  0  0  0  0
    7.9751  -14.3563   20.8745 C   0  0  0  0  0  0  0  0  0  0  0  0
    9.0170  -13.4724   20.6518 C   0  0  0  0  0  0  0  0  0  0  0  0
    8.8356  -12.3070   19.9202 C   0  0  0  0  0  0  0  0  0  0  0  0
    7.6028  -12.0031   19.3955 C   0  0  0  0  0  0  0  0  0  0  0  0
    6.5588  -12.8610   19.6024 C   0  0  0  0  0  0  0  0  0  0  0  0
    6.7538  -14.0153   20.3314 C   0  0  0  0  0  0  0  0  0  0  0  0
    9.6611  -17.5668   21.8277 C   0  0  0  0  0  0  0  0  0  0  0  0
    8.9577  -18.3561   22.5161 O   0  0  0  0  0  0  0  0  0  0  0  0
   13.8446  -17.4894   22.8031 O   0  0  0  0  0  0  0  0  0  0  0  0
   13.1263  -18.6730   22.9462 C   0  0  0  0  0  0  0  0  0  0  0  0
   11.6497  -18.4315   23.0944 C   0  0  2  0  0  0  0  0  0  0  0  0
   11.0772  -17.7026   22.0014 N   0  0  0  0  0  0  0  0  0  0  0  0
   11.3946  -17.7807   24.4093 C   0  0  0  0  0  0  0  0  0  0  0  0
   12.0970  -16.7731   24.6637 O   0  0  0  0  0  0  0  0  0  0  0  0
    6.8805  -15.2071   26.0663 N   0  0  0  0  0  0  0  0  0  0  0  0
    6.8510  -16.4486   25.3939 C   0  0  0  0  0  0  0  0  0  0  0  0
    5.9191  -16.6804   24.5996 O   0  0  0  0  0  0  0  0  0  0  0  0
    7.8981  -17.4418   25.6292 C   0  0  0  0  0  0  0  0  0  0  0  0
    8.8474  -17.0928   26.7212 C   0  0  0  0  0  0  0  0  0  0  0  0
   10.2073  -17.6692   26.6491 C   0  0  2  0  0  0  0  0  0  0  0  0
   10.4352  -18.2446   25.3249 N   0  0  0  0  0  0  0  0  0  0  0  0
   10.4220  -18.7330   27.6710 C   0  0  0  0  0  0  0  0  0  0  0  0
   10.3491  -18.4197   28.8761 O   0  0  0  0  0  0  0  0  0  0  0  0
   10.6983  -20.0421   27.3567 O   0  0  0  0  0  0  0  0  0  0  0  0
  2  1  1  6
  3  2  1  0
  4  3  1  0
  4  9  2  0
  5  4  1  0
  6  5  2  0
  6  7  1  0
  7  8  2  0
  8  9  1  0
 10  2  1  0
 11 10  2  0
 12 13  1  0
 14 13  1  6
 14 16  1  0
 14 15  1  0
 15 10  1  0
 16 17  2  0
 18 19  1  0
 19 21  1  0
 20 19  2  0
 21 22  1  0
 23 22  1  6
 24 23  1  0
 24 16  1  0
 25 27  1  0
 25 23  1  0
 26 25  2  0
M  END
$$$$
