FSQ.pdb
     RDKit          3D

 27 27  0  0  1  0  0  0  0  0999 V2000
    6.3298  -16.4999   25.4792 N   0  0  0  0  0  0  0  0  0  0  0  0
    7.1145  -15.7443   24.5251 C   0  0  1  0  0  0  0  0  0  0  0  0
    8.0529  -14.7873   25.2269 C   0  0  0  0  0  0  0  0  0  0  0  0
    7.3489  -13.5711   25.6942 C   0  0  0  0  0  0  0  0  0  0  0  0
    6.6021  -13.5699   26.8599 C   0  0  0  0  0  0  0  0  0  0  0  0
    5.9424  -12.4298   27.2974 C   0  0  0  0  0  0  0  0  0  0  0  0
    6.0181  -11.2647   26.5734 C   0  0  0  0  0  0  0  0  0  0  0  0
    6.7497  -11.2419   25.4189 C   0  0  0  0  0  0  0  0  0  0  0  0
    7.3999  -12.3823   24.9963 C   0  0  0  0  0  0  0  0  0  0  0  0
    7.8237  -16.6803   23.6485 C   0  0  0  0  0  0  0  0  0  0  0  0
    8.3363  -17.7407   24.1004 O   0  0  0  0  0  0  0  0  0  0  0  0
    9.1395  -15.4098   19.7645 O   0  0  0  0  0  0  0  0  0  0  0  0
    9.0118  -16.7709   20.0260 C   0  0  0  0  0  0  0  0  0  0  0  0
    9.0573  -17.0772   21.4973 C   0  0  2  0  0  0  0  0  0  0  0  0
    7.9900  -16.4745   22.2399 N   0  0  0  0  0  0  0  0  0  0  0  0
   10.3993  -16.7094   22.0277 C   0  0  0  0  0  0  0  0  0  0  0  0
   10.5044  -15.5459   22.4841 O   0  0  0  0  0  0  0  0  0  0  0  0
    9.9797  -19.1343   26.5191 N   0  0  0  0  0  0  0  0  0  0  0  0
   11.3636  -18.9398   26.7228 C   0  0  0  0  0  0  0  0  0  0  0  0
   11.8213  -19.0392   27.8777 O   0  0  0  0  0  0  0  0  0  0  0  0
   12.2401  -18.6272   25.5948 C   0  0  0  0  0  0  0  0  0  0  0  0
   11.5271  -18.2830   24.3345 C   0  0  0  0  0  0  0  0  0  0  0  0
   12.3500  -17.8461   23.1862 C   0  0  2  0  0  0  0  0  0  0  0  0
   11.4945  -17.5896   22.0290 N   0  0  0  0  0  0  0  0  0  0  0  0
   13.3693  -18.8648   22.8049 C   0  0  0  0  0  0  0  0  0  0  0  0
   12.9731  -19.9671   22.3763 O   0  0  0  0  0  0  0  0  0  0  0  0
   14.7241  -18.6555   22.9020 O   0  0  0  0  0  0  0  0  0  0  0  0
  2  1  1  1
  3  2  1  0
  4  3  1  0
  4  9  2  0
  5  4  1  0
  6  5  2  0
  6  7  1  0
  7  8  2  0
  8  9  1  0
 10  2  1  0
 11 10  2  0
 12 13  1  0
 14 13  1  6
 14 16  1  0
 14 15  1  0
 15 10  1  0
 16 17  2  0
 18 19  1  0
 19 21  1  0
 20 19  2  0
 21 22  1  0
 23 22  1  1
 24 23  1  0
 24 16  1  0
 25 27  1  0
 25 23  1  0
 26 25  2  0
M  END
$$$$
