FSQ.pdb
     RDKit          3D

 27 27  0  0  1  0  0  0  0  0999 V2000
    6.8691  -16.5577   25.7963 N   0  0  0  0  0  0  0  0  0  0  0  0
    7.0466  -15.6198   24.7073 C   0  0  1  0  0  0  0  0  0  0  0  0
    7.9295  -14.4633   25.1218 C   0  0  0  0  0  0  0  0  0  0  0  0
    7.2104  -13.5094   25.9971 C   0  0  0  0  0  0  0  0  0  0  0  0
    7.7367  -13.1033   27.2115 C   0  0  0  0  0  0  0  0  0  0  0  0
    7.0624  -12.2094   28.0316 C   0  0  0  0  0  0  0  0  0  0  0  0
    5.8436  -11.7029   27.6500 C   0  0  0  0  0  0  0  0  0  0  0  0
    5.3040  -12.0896   26.4550 C   0  0  0  0  0  0  0  0  0  0  0  0
    5.9853  -12.9785   25.6505 C   0  0  0  0  0  0  0  0  0  0  0  0
    7.5760  -16.3385   23.5451 C   0  0  0  0  0  0  0  0  0  0  0  0
    8.2021  -17.4259   23.6767 O   0  0  0  0  0  0  0  0  0  0  0  0
    7.3336  -14.5029   19.8971 O   0  0  0  0  0  0  0  0  0  0  0  0
    7.9158  -15.7627   19.7907 C   0  0  0  0  0  0  0  0  0  0  0  0
    8.2690  -16.3445   21.1313 C   0  0  2  0  0  0  0  0  0  0  0  0
    7.4306  -15.8779   22.1958 N   0  0  0  0  0  0  0  0  0  0  0  0
    9.7146  -16.1055   21.3977 C   0  0  0  0  0  0  0  0  0  0  0  0
    9.9875  -15.0449   22.0091 O   0  0  0  0  0  0  0  0  0  0  0  0
   11.9606  -20.1487   25.4929 N   0  0  0  0  0  0  0  0  0  0  0  0
   12.2630  -18.7858   25.2801 C   0  0  0  0  0  0  0  0  0  0  0  0
   12.1650  -17.9916   26.2356 O   0  0  0  0  0  0  0  0  0  0  0  0
   12.6833  -18.3192   23.9595 C   0  0  0  0  0  0  0  0  0  0  0  0
   11.5720  -17.8545   23.0853 C   0  0  0  0  0  0  0  0  0  0  0  0
   11.9359  -17.2726   21.7755 C   0  0  2  0  0  0  0  0  0  0  0  0
   10.7279  -16.9941   21.0010 N   0  0  0  0  0  0  0  0  0  0  0  0
   12.8097  -18.1810   20.9797 C   0  0  0  0  0  0  0  0  0  0  0  0
   14.0404  -17.9787   20.9913 O   0  0  0  0  0  0  0  0  0  0  0  0
   12.3317  -19.2298   20.2312 O   0  0  0  0  0  0  0  0  0  0  0  0
  2  1  1  1
  3  2  1  0
  4  3  1  0
  4  9  2  0
  5  4  1  0
  6  5  2  0
  6  7  1  0
  7  8  2  0
  8  9  1  0
 10  2  1  0
 11 10  2  0
 12 13  1  0
 14 13  1  6
 14 16  1  0
 14 15  1  0
 15 10  1  0
 16 17  2  0
 18 19  1  0
 19 21  1  0
 20 19  2  0
 21 22  1  0
 23 22  1  1
 24 23  1  0
 24 16  1  0
 25 27  1  0
 25 23  1  0
 26 25  2  0
M  END
$$$$
