FSQ.pdb
     RDKit          3D

 27 27  0  0  1  0  0  0  0  0999 V2000
    5.7958  -18.1070   25.2074 N   0  0  0  0  0  0  0  0  0  0  0  0
    6.1613  -16.7062   25.1750 C   0  0  1  0  0  0  0  0  0  0  0  0
    6.6350  -16.2346   26.5323 C   0  0  0  0  0  0  0  0  0  0  0  0
    6.8270  -14.7665   26.5675 C   0  0  0  0  0  0  0  0  0  0  0  0
    5.7552  -13.8992   26.6919 C   0  0  0  0  0  0  0  0  0  0  0  0
    5.9356  -12.5234   26.7249 C   0  0  0  0  0  0  0  0  0  0  0  0
    7.1975  -11.9877   26.6336 C   0  0  0  0  0  0  0  0  0  0  0  0
    8.2712  -12.8247   26.5101 C   0  0  0  0  0  0  0  0  0  0  0  0
    8.0768  -14.1896   26.4787 C   0  0  0  0  0  0  0  0  0  0  0  0
    7.1687  -16.5038   24.1302 C   0  0  0  0  0  0  0  0  0  0  0  0
    8.1798  -17.2530   24.0411 O   0  0  0  0  0  0  0  0  0  0  0  0
    8.7095  -14.1036   20.1335 O   0  0  0  0  0  0  0  0  0  0  0  0
    7.7542  -14.2124   21.1399 C   0  0  0  0  0  0  0  0  0  0  0  0
    8.0848  -15.2970   22.1274 C   0  0  2  0  0  0  0  0  0  0  0  0
    7.0916  -15.4639   23.1469 N   0  0  0  0  0  0  0  0  0  0  0  0
    9.4409  -15.0445   22.6886 C   0  0  0  0  0  0  0  0  0  0  0  0
    9.4917  -14.2390   23.6486 O   0  0  0  0  0  0  0  0  0  0  0  0
   10.2706  -18.3445   26.3988 N   0  0  0  0  0  0  0  0  0  0  0  0
   11.3908  -17.6715   25.8633 C   0  0  0  0  0  0  0  0  0  0  0  0
   12.3424  -17.3927   26.6182 O   0  0  0  0  0  0  0  0  0  0  0  0
   11.4285  -17.3099   24.4469 C   0  0  0  0  0  0  0  0  0  0  0  0
   11.9482  -15.9428   24.1713 C   0  0  0  0  0  0  0  0  0  0  0  0
   11.9390  -15.4831   22.7659 C   0  0  2  0  0  0  0  0  0  0  0  0
   10.6051  -15.6558   22.1937 N   0  0  0  0  0  0  0  0  0  0  0  0
   12.9160  -16.2300   21.9235 C   0  0  0  0  0  0  0  0  0  0  0  0
   14.1276  -16.1472   22.2077 O   0  0  0  0  0  0  0  0  0  0  0  0
   12.5535  -17.0047   20.8477 O   0  0  0  0  0  0  0  0  0  0  0  0
  2  1  1  1
  3  2  1  0
  4  3  1  0
  4  9  2  0
  5  4  1  0
  6  5  2  0
  6  7  1  0
  7  8  2  0
  8  9  1  0
 10  2  1  0
 11 10  2  0
 12 13  1  0
 14 13  1  6
 14 16  1  0
 14 15  1  0
 15 10  1  0
 16 17  2  0
 18 19  1  0
 19 21  1  0
 20 19  2  0
 21 22  1  0
 23 22  1  1
 24 23  1  0
 24 16  1  0
 25 27  1  0
 25 23  1  0
 26 25  2  0
M  END
$$$$
