FSQ.pdb
     RDKit          3D

 27 27  0  0  1  0  0  0  0  0999 V2000
    6.0300  -16.2412   25.0265 N   0  0  0  0  0  0  0  0  0  0  0  0
    7.2682  -15.6056   24.6266 C   0  0  1  0  0  0  0  0  0  0  0  0
    7.8661  -14.8104   25.7663 C   0  0  0  0  0  0  0  0  0  0  0  0
    7.1544  -13.5285   25.9745 C   0  0  0  0  0  0  0  0  0  0  0  0
    6.2469  -13.3638   27.0069 C   0  0  0  0  0  0  0  0  0  0  0  0
    5.5801  -12.1622   27.2016 C   0  0  0  0  0  0  0  0  0  0  0  0
    5.8100  -11.0984   26.3631 C   0  0  0  0  0  0  0  0  0  0  0  0
    6.7019  -11.2376   25.3366 C   0  0  0  0  0  0  0  0  0  0  0  0
    7.3571  -12.4374   25.1552 C   0  0  0  0  0  0  0  0  0  0  0  0
    8.1843  -16.6308   24.1195 C   0  0  0  0  0  0  0  0  0  0  0  0
    8.4061  -17.6899   24.7681 O   0  0  0  0  0  0  0  0  0  0  0  0
   11.1540  -15.7048   21.1706 O   0  0  0  0  0  0  0  0  0  0  0  0
   10.6493  -17.0005   21.2333 C   0  0  0  0  0  0  0  0  0  0  0  0
   10.0411  -17.3131   22.5724 C   0  0  2  0  0  0  0  0  0  0  0  0
    8.8873  -16.5190   22.8756 N   0  0  0  0  0  0  0  0  0  0  0  0
   11.0951  -17.2102   23.6193 C   0  0  0  0  0  0  0  0  0  0  0  0
   11.4396  -16.0455   23.9326 O   0  0  0  0  0  0  0  0  0  0  0  0
   12.5270  -21.3962   28.7699 N   0  0  0  0  0  0  0  0  0  0  0  0
   12.4270  -19.9875   28.7675 C   0  0  0  0  0  0  0  0  0  0  0  0
   11.8425  -19.4245   29.7134 O   0  0  0  0  0  0  0  0  0  0  0  0
   13.0007  -19.2074   27.6718 C   0  0  0  0  0  0  0  0  0  0  0  0
   12.1126  -19.0600   26.4866 C   0  0  0  0  0  0  0  0  0  0  0  0
   12.6229  -18.2629   25.3503 C   0  0  2  0  0  0  0  0  0  0  0  0
   11.6828  -18.3291   24.2331 N   0  0  0  0  0  0  0  0  0  0  0  0
   13.9531  -18.7432   24.8790 C   0  0  0  0  0  0  0  0  0  0  0  0
   14.9765  -18.2048   25.3464 O   0  0  0  0  0  0  0  0  0  0  0  0
   14.1129  -19.7473   23.9543 O   0  0  0  0  0  0  0  0  0  0  0  0
  2  1  1  1
  3  2  1  0
  4  3  1  0
  4  9  2  0
  5  4  1  0
  6  5  2  0
  6  7  1  0
  7  8  2  0
  8  9  1  0
 10  2  1  0
 11 10  2  0
 12 13  1  0
 14 13  1  6
 14 16  1  0
 14 15  1  0
 15 10  1  0
 16 17  2  0
 18 19  1  0
 19 21  1  0
 20 19  2  0
 21 22  1  0
 23 22  1  1
 24 23  1  0
 24 16  1  0
 25 27  1  0
 25 23  1  0
 26 25  2  0
M  END
$$$$
