NCN.pdb
     RDKit          3D

 23 22  0  0  1  0  0  0  0  0999 V2000
   10.2005  -17.8815   15.1637 N   0  0  0  0  0  0  0  0  0  0  0  0
    9.0125  -17.6907   15.8880 C   0  0  0  0  0  0  0  0  0  0  0  0
    7.9290  -18.2949   15.5926 O   0  0  0  0  0  0  0  0  0  0  0  0
    9.0042  -16.7580   17.0365 C   0  0  0  0  0  0  0  0  0  0  0  0
    8.7472  -17.5179   18.3240 C   0  0  2  0  0  0  0  0  0  0  0  0
    7.4280  -18.0729   18.3316 N   0  0  0  0  0  0  0  0  0  0  0  0
    9.0348  -16.6674   19.4895 C   0  0  0  0  0  0  0  0  0  0  0  0
   10.2226  -16.3536   19.7299 O   0  0  0  0  0  0  0  0  0  0  0  0
    8.0533  -16.1558   20.3905 N   0  0  0  0  0  0  0  0  0  0  0  0
    8.4131  -15.4658   21.5948 C   0  0  1  0  0  0  0  0  0  0  0  0
    7.3190  -14.6077   22.1646 C   0  0  0  0  0  0  0  0  0  0  0  0
    7.5904  -14.1043   23.8680 S   0  0  0  0  0  0  0  0  0  0  0  0
    8.8868  -16.4270   22.6207 C   0  0  0  0  0  0  0  0  0  0  0  0
    8.2654  -17.4839   22.9147 O   0  0  0  0  0  0  0  0  0  0  0  0
   12.4888  -19.4061   23.1151 N   0  0  0  0  0  0  0  0  0  0  0  0
   12.4325  -18.0000   23.0579 C   0  0  0  0  0  0  0  0  0  0  0  0
   12.7119  -17.4105   21.9635 O   0  0  0  0  0  0  0  0  0  0  0  0
   12.0565  -17.1808   24.2369 C   0  0  0  0  0  0  0  0  0  0  0  0
   10.5353  -17.0786   24.4013 C   0  0  2  0  0  0  0  0  0  0  0  0
   10.1030  -16.1911   23.3400 N   0  0  0  0  0  0  0  0  0  0  0  0
   10.2797  -16.4940   25.7385 C   0  0  0  0  0  0  0  0  0  0  0  0
   10.3919  -17.2024   26.9163 O   0  0  0  0  0  0  0  0  0  0  0  0
    9.9431  -15.2887   25.7985 O   0  0  0  0  0  0  0  0  0  0  0  0
  2  1  1  0
  2  4  1  0
  3  2  2  0
  5  4  1  0
  5  7  1  0
  5  6  1  1
  7  8  2  0
  7  9  1  0
  9 10  1  0
 10 13  1  0
 10 11  1  1
 11 12  1  0
 13 20  1  0
 13 14  2  0
 16 17  2  0
 16 15  1  0
 19 18  1  6
 18 16  1  0
 19 21  1  0
 20 19  1  0
 21 22  1  0
 23 21  2  0
M  END
$$$$
