NCN.pdb
     RDKit          3D

 23 22  0  0  1  0  0  0  0  0999 V2000
    6.1652  -16.6096   18.6612 N   0  0  0  0  0  0  0  0  0  0  0  0
    7.2260  -15.7258   18.4043 C   0  0  0  0  0  0  0  0  0  0  0  0
    7.4322  -15.2249   17.2498 O   0  0  0  0  0  0  0  0  0  0  0  0
    8.1444  -15.3547   19.5034 C   0  0  0  0  0  0  0  0  0  0  0  0
    7.5889  -14.1692   20.2698 C   0  0  2  0  0  0  0  0  0  0  0  0
    7.6040  -12.9889   19.4605 N   0  0  0  0  0  0  0  0  0  0  0  0
    8.2906  -14.0120   21.5533 C   0  0  0  0  0  0  0  0  0  0  0  0
    9.5194  -13.7728   21.5446 O   0  0  0  0  0  0  0  0  0  0  0  0
    7.6769  -14.1096   22.8381 N   0  0  0  0  0  0  0  0  0  0  0  0
    8.4402  -14.0613   24.0509 C   0  0  1  0  0  0  0  0  0  0  0  0
    7.7548  -13.3503   25.1833 C   0  0  0  0  0  0  0  0  0  0  0  0
    6.0175  -13.7693   25.3712 S   0  0  0  0  0  0  0  0  0  0  0  0
    8.8272  -15.4294   24.4742 C   0  0  0  0  0  0  0  0  0  0  0  0
    8.0236  -16.4008   24.4863 O   0  0  0  0  0  0  0  0  0  0  0  0
   12.0480  -17.7082   22.6615 N   0  0  0  0  0  0  0  0  0  0  0  0
   12.4631  -16.8528   23.7005 C   0  0  0  0  0  0  0  0  0  0  0  0
   13.1902  -15.8442   23.4224 O   0  0  0  0  0  0  0  0  0  0  0  0
   12.0788  -17.0906   25.1141 C   0  0  0  0  0  0  0  0  0  0  0  0
   10.5583  -17.0479   25.3088 C   0  0  2  0  0  0  0  0  0  0  0  0
   10.1657  -15.7145   24.8976 N   0  0  0  0  0  0  0  0  0  0  0  0
   10.2970  -17.2728   26.7497 C   0  0  0  0  0  0  0  0  0  0  0  0
   10.4648  -18.4900   27.3758 O   0  0  0  0  0  0  0  0  0  0  0  0
    9.9014  -16.3008   27.4341 O   0  0  0  0  0  0  0  0  0  0  0  0
  2  1  1  0
  2  4  1  0
  3  2  2  0
  5  4  1  0
  5  7  1  0
  5  6  1  6
  7  8  2  0
  7  9  1  0
  9 10  1  0
 10 13  1  0
 10 11  1  1
 11 12  1  0
 13 20  1  0
 13 14  2  0
 16 17  2  0
 16 15  1  0
 19 18  1  1
 18 16  1  0
 19 21  1  0
 20 19  1  0
 21 22  1  0
 23 21  2  0
M  END
$$$$
