NCN.pdb
     RDKit          3D

 23 22  0  0  1  0  0  0  0  0999 V2000
    7.1479  -12.5495   17.9042 N   0  0  0  0  0  0  0  0  0  0  0  0
    8.0450  -13.4345   18.5241 C   0  0  0  0  0  0  0  0  0  0  0  0
    8.5915  -14.4017   17.8978 O   0  0  0  0  0  0  0  0  0  0  0  0
    8.3761  -13.2495   19.9542 C   0  0  0  0  0  0  0  0  0  0  0  0
    8.0685  -14.5168   20.7293 C   0  0  2  0  0  0  0  0  0  0  0  0
    6.6792  -14.8467   20.6326 N   0  0  0  0  0  0  0  0  0  0  0  0
    8.5516  -14.4028   22.1142 C   0  0  0  0  0  0  0  0  0  0  0  0
    9.7325  -14.0384   22.3140 O   0  0  0  0  0  0  0  0  0  0  0  0
    7.7716  -14.6770   23.2775 N   0  0  0  0  0  0  0  0  0  0  0  0
    8.3352  -14.6459   24.5955 C   0  0  1  0  0  0  0  0  0  0  0  0
    7.4872  -13.9355   25.6125 C   0  0  0  0  0  0  0  0  0  0  0  0
    5.8105  -14.5684   25.7436 S   0  0  0  0  0  0  0  0  0  0  0  0
    8.6375  -16.0211   25.0622 C   0  0  0  0  0  0  0  0  0  0  0  0
    7.8312  -16.9831   24.9422 O   0  0  0  0  0  0  0  0  0  0  0  0
   10.4567  -18.6336   23.6534 N   0  0  0  0  0  0  0  0  0  0  0  0
   11.6247  -18.4593   24.4208 C   0  0  0  0  0  0  0  0  0  0  0  0
   12.7570  -18.7202   23.8980 O   0  0  0  0  0  0  0  0  0  0  0  0
   11.5776  -17.9795   25.8244 C   0  0  0  0  0  0  0  0  0  0  0  0
   10.1502  -17.6291   26.2618 C   0  0  2  0  0  0  0  0  0  0  0  0
    9.8915  -16.3249   25.6846 N   0  0  0  0  0  0  0  0  0  0  0  0
   10.1479  -17.5797   27.7426 C   0  0  0  0  0  0  0  0  0  0  0  0
   10.1671  -18.7014   28.5446 O   0  0  0  0  0  0  0  0  0  0  0  0
   10.1271  -16.4545   28.2932 O   0  0  0  0  0  0  0  0  0  0  0  0
  2  1  1  0
  2  4  1  0
  3  2  2  0
  5  4  1  0
  5  7  1  0
  5  6  1  1
  7  8  2  0
  7  9  1  0
  9 10  1  0
 10 13  1  0
 10 11  1  1
 11 12  1  0
 13 20  1  0
 13 14  2  0
 16 17  2  0
 16 15  1  0
 19 18  1  6
 18 16  1  0
 19 21  1  0
 20 19  1  0
 21 22  1  0
 23 21  2  0
M  END
$$$$
