NCN.pdb
     RDKit          3D

 23 22  0  0  1  0  0  0  0  0999 V2000
    2.0040  -22.4556   15.8645 N   0  0  0  0  0  0  0  0  0  0  0  0
    2.6931  -21.6866   16.8164 C   0  0  0  0  0  0  0  0  0  0  0  0
    2.0902  -21.0240   17.7241 O   0  0  0  0  0  0  0  0  0  0  0  0
    4.1712  -21.6344   16.7755 C   0  0  0  0  0  0  0  0  0  0  0  0
    4.6358  -20.2178   16.4952 C   0  0  2  0  0  0  0  0  0  0  0  0
    4.2075  -19.7900   15.1983 N   0  0  0  0  0  0  0  0  0  0  0  0
    6.0876  -20.1018   16.7036 C   0  0  0  0  0  0  0  0  0  0  0  0
    6.8359  -20.0098   15.7043 O   0  0  0  0  0  0  0  0  0  0  0  0
    6.7320  -20.0836   17.9769 N   0  0  0  0  0  0  0  0  0  0  0  0
    8.1355  -19.8254   18.1151 C   0  0  1  0  0  0  0  0  0  0  0  0
    8.5775  -18.5027   17.5556 C   0  0  0  0  0  0  0  0  0  0  0  0
   10.3073  -18.1186   17.8543 S   0  0  0  0  0  0  0  0  0  0  0  0
    8.5448  -19.9344   19.5367 C   0  0  0  0  0  0  0  0  0  0  0  0
    8.0091  -19.2659   20.4619 O   0  0  0  0  0  0  0  0  0  0  0  0
    7.7934  -22.6670   21.5005 N   0  0  0  0  0  0  0  0  0  0  0  0
    9.0737  -23.2448   21.6027 C   0  0  0  0  0  0  0  0  0  0  0  0
    9.1761  -24.5032   21.7738 O   0  0  0  0  0  0  0  0  0  0  0  0
   10.3116  -22.4306   21.5171 C   0  0  0  0  0  0  0  0  0  0  0  0
   10.0045  -20.9416   21.3165 C   0  0  2  0  0  0  0  0  0  0  0  0
    9.5928  -20.8277   19.9313 N   0  0  0  0  0  0  0  0  0  0  0  0
   11.2604  -20.1991   21.5744 C   0  0  0  0  0  0  0  0  0  0  0  0
   11.6411  -19.7517   22.8221 O   0  0  0  0  0  0  0  0  0  0  0  0
   12.0160  -19.9664   20.6025 O   0  0  0  0  0  0  0  0  0  0  0  0
  2  1  1  0
  2  4  1  0
  3  2  2  0
  5  4  1  0
  5  7  1  0
  5  6  1  6
  7  8  2  0
  7  9  1  0
  9 10  1  0
 10 13  1  0
 10 11  1  1
 11 12  1  0
 13 20  1  0
 13 14  2  0
 16 17  2  0
 16 15  1  0
 19 18  1  6
 18 16  1  0
 19 21  1  0
 20 19  1  0
 21 22  1  0
 23 21  2  0
M  END
$$$$
