NCN.pdb
     RDKit          3D

 23 22  0  0  1  0  0  0  0  0999 V2000
    6.4273  -16.2013   18.0915 N   0  0  0  0  0  0  0  0  0  0  0  0
    7.5242  -15.6218   18.7499 C   0  0  0  0  0  0  0  0  0  0  0  0
    8.7131  -15.7030   18.2958 O   0  0  0  0  0  0  0  0  0  0  0  0
    7.3063  -14.8886   20.0164 C   0  0  0  0  0  0  0  0  0  0  0  0
    8.2122  -15.4401   21.1011 C   0  0  2  0  0  0  0  0  0  0  0  0
    7.7801  -16.7416   21.5107 N   0  0  0  0  0  0  0  0  0  0  0  0
    8.3276  -14.4817   22.2114 C   0  0  0  0  0  0  0  0  0  0  0  0
    8.1974  -13.2601   21.9708 O   0  0  0  0  0  0  0  0  0  0  0  0
    8.5799  -14.8325   23.5716 N   0  0  0  0  0  0  0  0  0  0  0  0
    7.9536  -14.1450   24.6628 C   0  0  1  0  0  0  0  0  0  0  0  0
    6.4535  -14.2326   24.6676 C   0  0  0  0  0  0  0  0  0  0  0  0
    5.6631  -13.2455   25.9442 S   0  0  0  0  0  0  0  0  0  0  0  0
    8.4918  -14.6293   25.9575 C   0  0  0  0  0  0  0  0  0  0  0  0
    8.0078  -14.2968   27.0733 O   0  0  0  0  0  0  0  0  0  0  0  0
    7.4608  -19.6459   26.4658 N   0  0  0  0  0  0  0  0  0  0  0  0
    7.3430  -18.2428   26.4326 C   0  0  0  0  0  0  0  0  0  0  0  0
    6.4471  -17.6771   27.1402 O   0  0  0  0  0  0  0  0  0  0  0  0
    8.2331  -17.3998   25.5961 C   0  0  0  0  0  0  0  0  0  0  0  0
    9.4582  -16.9102   26.3777 C   0  0  2  0  0  0  0  0  0  0  0  0
    9.6131  -15.5198   25.9980 N   0  0  0  0  0  0  0  0  0  0  0  0
   10.6122  -17.7275   25.9358 C   0  0  0  0  0  0  0  0  0  0  0  0
   11.3879  -17.4233   24.8370 O   0  0  0  0  0  0  0  0  0  0  0  0
   10.8960  -18.7514   26.5998 O   0  0  0  0  0  0  0  0  0  0  0  0
  2  1  1  0
  2  4  1  0
  3  2  2  0
  5  4  1  0
  5  7  1  0
  5  6  1  1
  7  8  2  0
  7  9  1  0
  9 10  1  0
 10 13  1  0
 10 11  1  1
 11 12  1  0
 13 20  1  0
 13 14  2  0
 16 17  2  0
 16 15  1  0
 19 18  1  6
 18 16  1  0
 19 21  1  0
 20 19  1  0
 21 22  1  0
 23 21  2  0
M  END
$$$$
