NCN.pdb
     RDKit          3D

 23 22  0  0  1  0  0  0  0  0999 V2000
   11.0349  -18.8712   17.2768 N   0  0  0  0  0  0  0  0  0  0  0  0
   10.6907  -17.5630   16.8992 C   0  0  0  0  0  0  0  0  0  0  0  0
   10.9722  -17.0884   15.7495 O   0  0  0  0  0  0  0  0  0  0  0  0
    9.9763  -16.6940   17.8603 C   0  0  0  0  0  0  0  0  0  0  0  0
    9.7230  -17.4446   19.1541 C   0  0  2  0  0  0  0  0  0  0  0  0
    8.3908  -17.9668   19.1859 N   0  0  0  0  0  0  0  0  0  0  0  0
   10.0517  -16.5989   20.3122 C   0  0  0  0  0  0  0  0  0  0  0  0
   11.2244  -16.1803   20.4411 O   0  0  0  0  0  0  0  0  0  0  0  0
    9.1270  -16.2041   21.3250 N   0  0  0  0  0  0  0  0  0  0  0  0
    9.5524  -15.5622   22.5345 C   0  0  1  0  0  0  0  0  0  0  0  0
    8.4502  -14.8720   23.2873 C   0  0  0  0  0  0  0  0  0  0  0  0
    6.9823  -15.8796   23.5304 S   0  0  0  0  0  0  0  0  0  0  0  0
   10.2392  -16.5325   23.4219 C   0  0  0  0  0  0  0  0  0  0  0  0
    9.9388  -17.7562   23.4694 O   0  0  0  0  0  0  0  0  0  0  0  0
   14.4026  -15.2071   23.2232 N   0  0  0  0  0  0  0  0  0  0  0  0
   14.0251  -16.4473   23.7735 C   0  0  0  0  0  0  0  0  0  0  0  0
   14.1701  -17.5057   23.0791 O   0  0  0  0  0  0  0  0  0  0  0  0
   13.4617  -16.5602   25.1419 C   0  0  0  0  0  0  0  0  0  0  0  0
   12.0111  -17.0569   25.1243 C   0  0  2  0  0  0  0  0  0  0  0  0
   11.3019  -16.1113   24.2852 N   0  0  0  0  0  0  0  0  0  0  0  0
   11.5207  -17.0195   26.5219 C   0  0  0  0  0  0  0  0  0  0  0  0
   11.9802  -17.8581   27.5156 O   0  0  0  0  0  0  0  0  0  0  0  0
   10.6395  -16.1780   26.8134 O   0  0  0  0  0  0  0  0  0  0  0  0
  2  1  1  0
  2  4  1  0
  3  2  2  0
  5  4  1  0
  5  7  1  0
  5  6  1  1
  7  8  2  0
  7  9  1  0
  9 10  1  0
 10 13  1  0
 10 11  1  1
 11 12  1  0
 13 20  1  0
 13 14  2  0
 16 17  2  0
 16 15  1  0
 19 18  1  1
 18 16  1  0
 19 21  1  0
 20 19  1  0
 21 22  1  0
 23 21  2  0
M  END
$$$$
