NCN.pdb
     RDKit          3D

 23 22  0  0  1  0  0  0  0  0999 V2000
    9.3275  -17.6316   16.2868 N   0  0  0  0  0  0  0  0  0  0  0  0
    8.1477  -17.1273   16.8577 C   0  0  0  0  0  0  0  0  0  0  0  0
    6.9902  -17.4645   16.4418 O   0  0  0  0  0  0  0  0  0  0  0  0
    8.2367  -16.1696   17.9821 C   0  0  0  0  0  0  0  0  0  0  0  0
    8.1664  -16.9096   19.3046 C   0  0  2  0  0  0  0  0  0  0  0  0
    6.8404  -17.3901   19.5479 N   0  0  0  0  0  0  0  0  0  0  0  0
    8.6979  -16.0723   20.3913 C   0  0  0  0  0  0  0  0  0  0  0  0
    8.8588  -14.8478   20.1869 O   0  0  0  0  0  0  0  0  0  0  0  0
    9.0532  -16.5464   21.6897 N   0  0  0  0  0  0  0  0  0  0  0  0
    9.3845  -15.6528   22.7609 C   0  0  1  0  0  0  0  0  0  0  0  0
    8.2776  -14.7115   23.1439 C   0  0  0  0  0  0  0  0  0  0  0  0
    7.3057  -15.2538   24.5547 S   0  0  0  0  0  0  0  0  0  0  0  0
    9.8333  -16.4153   23.9516 C   0  0  0  0  0  0  0  0  0  0  0  0
    9.1530  -17.3384   24.4761 O   0  0  0  0  0  0  0  0  0  0  0  0
   14.1162  -15.1522   23.2757 N   0  0  0  0  0  0  0  0  0  0  0  0
   13.7649  -16.4360   23.7361 C   0  0  0  0  0  0  0  0  0  0  0  0
   13.8246  -17.4227   22.9323 O   0  0  0  0  0  0  0  0  0  0  0  0
   13.3255  -16.6760   25.1333 C   0  0  0  0  0  0  0  0  0  0  0  0
   11.8771  -17.1750   25.2000 C   0  0  2  0  0  0  0  0  0  0  0  0
   11.0921  -16.1301   24.5730 N   0  0  0  0  0  0  0  0  0  0  0  0
   11.5346  -17.3281   26.6333 C   0  0  0  0  0  0  0  0  0  0  0  0
   12.1034  -18.2758   27.4579 O   0  0  0  0  0  0  0  0  0  0  0  0
   10.6800  -16.5516   27.1197 O   0  0  0  0  0  0  0  0  0  0  0  0
  2  1  1  0
  2  4  1  0
  3  2  2  0
  5  4  1  0
  5  7  1  0
  5  6  1  1
  7  8  2  0
  7  9  1  0
  9 10  1  0
 10 13  1  0
 10 11  1  1
 11 12  1  0
 13 20  1  0
 13 14  2  0
 16 17  2  0
 16 15  1  0
 19 18  1  1
 18 16  1  0
 19 21  1  0
 20 19  1  0
 21 22  1  0
 23 21  2  0
M  END
$$$$
