NCN.pdb
     RDKit          3D

 23 22  0  0  1  0  0  0  0  0999 V2000
    4.7392  -19.9447   23.1415 N   0  0  0  0  0  0  0  0  0  0  0  0
    5.4209  -18.9547   22.4151 C   0  0  0  0  0  0  0  0  0  0  0  0
    5.9519  -19.1862   21.2790 O   0  0  0  0  0  0  0  0  0  0  0  0
    5.5345  -17.5906   22.9769 C   0  0  0  0  0  0  0  0  0  0  0  0
    6.9885  -17.1589   23.0090 C   0  0  2  0  0  0  0  0  0  0  0  0
    7.7739  -18.0766   23.7768 N   0  0  0  0  0  0  0  0  0  0  0  0
    7.1010  -15.7642   23.4634 C   0  0  0  0  0  0  0  0  0  0  0  0
    6.3417  -14.9031   22.9642 O   0  0  0  0  0  0  0  0  0  0  0  0
    8.0221  -15.2969   24.4484 N   0  0  0  0  0  0  0  0  0  0  0  0
    7.8542  -14.0351   25.1083 C   0  0  1  0  0  0  0  0  0  0  0  0
    6.4459  -13.7523   25.5496 C   0  0  0  0  0  0  0  0  0  0  0  0
    6.2777  -12.2905   26.5811 S   0  0  0  0  0  0  0  0  0  0  0  0
    8.7768  -13.9287   26.2650 C   0  0  0  0  0  0  0  0  0  0  0  0
    9.0025  -12.8456   26.8698 O   0  0  0  0  0  0  0  0  0  0  0  0
   10.0029  -14.6666   29.3146 N   0  0  0  0  0  0  0  0  0  0  0  0
   10.6474  -15.8953   29.0729 C   0  0  0  0  0  0  0  0  0  0  0  0
   10.6807  -16.7722   29.9967 O   0  0  0  0  0  0  0  0  0  0  0  0
   11.2912  -16.2015   27.7712 C   0  0  0  0  0  0  0  0  0  0  0  0
   10.9131  -15.1803   26.6915 C   0  0  2  0  0  0  0  0  0  0  0  0
    9.4686  -15.0815   26.7593 N   0  0  0  0  0  0  0  0  0  0  0  0
   11.3611  -15.7339   25.3923 C   0  0  0  0  0  0  0  0  0  0  0  0
   10.5022  -16.2490   24.4443 O   0  0  0  0  0  0  0  0  0  0  0  0
   12.5893  -15.7323   25.1447 O   0  0  0  0  0  0  0  0  0  0  0  0
  2  1  1  0
  2  4  1  0
  3  2  2  0
  5  4  1  0
  5  7  1  0
  5  6  1  1
  7  8  2  0
  7  9  1  0
  9 10  1  0
 10 13  1  0
 10 11  1  1
 11 12  1  0
 13 20  1  0
 13 14  2  0
 16 17  2  0
 16 15  1  0
 19 18  1  1
 18 16  1  0
 19 21  1  0
 20 19  1  0
 21 22  1  0
 23 21  2  0
M  END
$$$$
