NCN.pdb
     RDKit          3D

 23 22  0  0  1  0  0  0  0  0999 V2000
    6.9971  -12.5822   18.8646 N   0  0  0  0  0  0  0  0  0  0  0  0
    7.8620  -13.6595   18.6119 C   0  0  0  0  0  0  0  0  0  0  0  0
    8.5257  -13.7617   17.5277 O   0  0  0  0  0  0  0  0  0  0  0  0
    8.0175  -14.7205   19.6314 C   0  0  0  0  0  0  0  0  0  0  0  0
    8.7453  -15.9119   19.0379 C   0  0  2  0  0  0  0  0  0  0  0  0
    8.0772  -16.3811   17.8623 N   0  0  0  0  0  0  0  0  0  0  0  0
    8.9439  -16.9536   20.0576 C   0  0  0  0  0  0  0  0  0  0  0  0
    8.7549  -16.6647   21.2610 O   0  0  0  0  0  0  0  0  0  0  0  0
    9.3417  -18.2972   19.7873 N   0  0  0  0  0  0  0  0  0  0  0  0
    9.5561  -19.2521   20.8352 C   0  0  1  0  0  0  0  0  0  0  0  0
    9.6000  -20.6800   20.3692 C   0  0  0  0  0  0  0  0  0  0  0  0
    8.0654  -21.2630   19.6384 S   0  0  0  0  0  0  0  0  0  0  0  0
   10.7935  -18.9279   21.5863 C   0  0  0  0  0  0  0  0  0  0  0  0
   11.9272  -18.8380   21.0419 O   0  0  0  0  0  0  0  0  0  0  0  0
   10.5833  -15.1724   23.3274 N   0  0  0  0  0  0  0  0  0  0  0  0
   11.7165  -15.9956   23.4756 C   0  0  0  0  0  0  0  0  0  0  0  0
   12.7431  -15.7762   22.7537 O   0  0  0  0  0  0  0  0  0  0  0  0
   11.7519  -17.1146   24.4499 C   0  0  0  0  0  0  0  0  0  0  0  0
   11.9660  -18.4674   23.7603 C   0  0  2  0  0  0  0  0  0  0  0  0
   10.7535  -18.6954   22.9993 N   0  0  0  0  0  0  0  0  0  0  0  0
   12.1369  -19.4792   24.8290 C   0  0  0  0  0  0  0  0  0  0  0  0
   13.2979  -19.6327   25.5572 O   0  0  0  0  0  0  0  0  0  0  0  0
   11.1708  -20.2356   25.0823 O   0  0  0  0  0  0  0  0  0  0  0  0
  2  1  1  0
  2  4  1  0
  3  2  2  0
  5  4  1  0
  5  7  1  0
  5  6  1  6
  7  8  2  0
  7  9  1  0
  9 10  1  0
 10 13  1  0
 10 11  1  6
 11 12  1  0
 13 20  1  0
 13 14  2  0
 16 17  2  0
 16 15  1  0
 19 18  1  1
 18 16  1  0
 19 21  1  0
 20 19  1  0
 21 22  1  0
 23 21  2  0
M  END
$$$$
