GES.pdb
     RDKit          3D

 20 19  0  0  1  0  0  0  0  0999 V2000
    7.1450  -12.4837   18.1993 N   0  0  0  0  0  0  0  0  0  0  0  0
    8.2430  -13.4050   18.0396 C   0  0  0  0  0  0  0  0  0  0  0  0
    8.1884  -14.3948   19.1727 C   0  0  0  0  0  0  0  0  0  0  0  0
    7.4586  -14.0840   20.1322 O   0  0  0  0  0  0  0  0  0  0  0  0
    8.9262  -15.5825   19.1179 N   0  0  0  0  0  0  0  0  0  0  0  0
    9.0088  -16.5491   20.1582 C   0  0  1  0  0  0  0  0  0  0  0  0
    9.6026  -17.8657   19.7286 C   0  0  0  0  0  0  0  0  0  0  0  0
    9.7423  -18.9029   20.7761 C   0  0  0  0  0  0  0  0  0  0  0  0
   10.3186  -20.1832   20.2729 C   0  0  0  0  0  0  0  0  0  0  0  0
   11.4236  -20.5854   20.6372 O   0  0  0  0  0  0  0  0  0  0  0  0
    9.7416  -16.0488   21.3496 C   0  0  0  0  0  0  0  0  0  0  0  0
   10.8239  -15.3879   21.1615 O   0  0  0  0  0  0  0  0  0  0  0  0
    9.6088  -20.9726   19.3604 O   0  0  0  0  0  0  0  0  0  0  0  0
    7.8781  -15.2905   24.8264 O   0  0  0  0  0  0  0  0  0  0  0  0
    9.0685  -14.6293   24.5039 C   0  0  0  0  0  0  0  0  0  0  0  0
    9.9620  -15.5852   23.7545 C   0  0  2  0  0  0  0  0  0  0  0  0
    9.3086  -16.2628   22.6828 N   0  0  0  0  0  0  0  0  0  0  0  0
   10.4492  -16.5907   24.7480 C   0  0  0  0  0  0  0  0  0  0  0  0
   10.1447  -17.7978   24.5890 O   0  0  0  0  0  0  0  0  0  0  0  0
   11.2221  -16.2218   25.8298 O   0  0  0  0  0  0  0  0  0  0  0  0
  2  1  1  0
  3  5  1  0
  3  2  1  0
  4  3  2  0
  6 11  1  0
  6  5  1  0
  6  7  1  6
  8  7  1  0
  9  8  1  0
 10  9  2  0
 11 12  2  0
 13  9  1  0
 14 15  1  0
 16 15  1  1
 17 11  1  0
 17 16  1  0
 18 16  1  0
 18 20  1  0
 19 18  2  0
M  END
$$$$
