GES.pdb
     RDKit          3D

 20 19  0  0  1  0  0  0  0  0999 V2000
    3.6143  -20.9194   22.4134 N   0  0  0  0  0  0  0  0  0  0  0  0
    4.2120  -19.6074   22.3768 C   0  0  0  0  0  0  0  0  0  0  0  0
    5.5430  -19.6828   23.0763 C   0  0  0  0  0  0  0  0  0  0  0  0
    5.7470  -20.7103   23.7490 O   0  0  0  0  0  0  0  0  0  0  0  0
    6.4715  -18.6428   22.9560 N   0  0  0  0  0  0  0  0  0  0  0  0
    7.7660  -18.6226   23.5453 C   0  0  1  0  0  0  0  0  0  0  0  0
    8.7645  -17.7691   22.8070 C   0  0  0  0  0  0  0  0  0  0  0  0
    9.5195  -18.4262   21.7158 C   0  0  0  0  0  0  0  0  0  0  0  0
   10.4784  -17.5170   21.0241 C   0  0  0  0  0  0  0  0  0  0  0  0
   11.2745  -16.8162   21.6490 O   0  0  0  0  0  0  0  0  0  0  0  0
    7.7398  -18.2176   24.9742 C   0  0  0  0  0  0  0  0  0  0  0  0
    7.0396  -17.1946   25.3010 O   0  0  0  0  0  0  0  0  0  0  0  0
   10.4991  -17.4351   19.6269 O   0  0  0  0  0  0  0  0  0  0  0  0
    7.5993  -20.5503   28.0604 O   0  0  0  0  0  0  0  0  0  0  0  0
    7.3599  -19.1770   28.1828 C   0  0  0  0  0  0  0  0  0  0  0  0
    8.3682  -18.4359   27.3416 C   0  0  2  0  0  0  0  0  0  0  0  0
    8.4471  -18.9012   25.9955 N   0  0  0  0  0  0  0  0  0  0  0  0
    9.6975  -18.6145   28.0025 C   0  0  0  0  0  0  0  0  0  0  0  0
   10.6538  -19.0696   27.3293 O   0  0  0  0  0  0  0  0  0  0  0  0
    9.8938  -18.2913   29.3295 O   0  0  0  0  0  0  0  0  0  0  0  0
  2  1  1  0
  3  5  1  0
  3  2  1  0
  4  3  2  0
  6 11  1  0
  6  5  1  0
  6  7  1  6
  8  7  1  0
  9  8  1  0
 10  9  2  0
 11 12  2  0
 13  9  1  0
 14 15  1  0
 16 15  1  1
 17 11  1  0
 17 16  1  0
 18 16  1  0
 18 20  1  0
 19 18  2  0
M  END
$$$$
