GES.pdb
     RDKit          3D

 20 19  0  0  1  0  0  0  0  0999 V2000
    8.2812  -12.4063   18.5907 N   0  0  0  0  0  0  0  0  0  0  0  0
    9.1431  -13.3025   19.3213 C   0  0  0  0  0  0  0  0  0  0  0  0
    8.4843  -13.6102   20.6396 C   0  0  0  0  0  0  0  0  0  0  0  0
    7.5316  -12.8743   20.9569 O   0  0  0  0  0  0  0  0  0  0  0  0
    8.9407  -14.6669   21.4352 N   0  0  0  0  0  0  0  0  0  0  0  0
    8.2941  -15.1566   22.6037 C   0  0  1  0  0  0  0  0  0  0  0  0
    8.1944  -16.6588   22.6677 C   0  0  0  0  0  0  0  0  0  0  0  0
    7.4166  -17.3176   21.5936 C   0  0  0  0  0  0  0  0  0  0  0  0
    7.3770  -18.8038   21.7134 C   0  0  0  0  0  0  0  0  0  0  0  0
    6.3394  -19.4420   21.5355 O   0  0  0  0  0  0  0  0  0  0  0  0
    8.9155  -14.6550   23.8564 C   0  0  0  0  0  0  0  0  0  0  0  0
   10.1860  -14.7651   23.9885 O   0  0  0  0  0  0  0  0  0  0  0  0
    8.5342  -19.5225   22.0355 O   0  0  0  0  0  0  0  0  0  0  0  0
    6.7819  -12.6259   26.6363 O   0  0  0  0  0  0  0  0  0  0  0  0
    8.1636  -12.4455   26.7653 C   0  0  0  0  0  0  0  0  0  0  0  0
    8.8646  -13.5850   26.0699 C   0  0  2  0  0  0  0  0  0  0  0  0
    8.1795  -14.0614   24.9130 N   0  0  0  0  0  0  0  0  0  0  0  0
    8.9790  -14.6946   27.0656 C   0  0  0  0  0  0  0  0  0  0  0  0
    8.5021  -15.8193   26.7784 O   0  0  0  0  0  0  0  0  0  0  0  0
    9.5943  -14.5090   28.2866 O   0  0  0  0  0  0  0  0  0  0  0  0
  2  1  1  0
  3  5  1  0
  3  2  1  0
  4  3  2  0
  6 11  1  0
  6  5  1  0
  6  7  1  1
  8  7  1  0
  9  8  1  0
 10  9  2  0
 11 12  2  0
 13  9  1  0
 14 15  1  0
 16 15  1  1
 17 11  1  0
 17 16  1  0
 18 16  1  0
 18 20  1  0
 19 18  2  0
M  END
$$$$
