GES.pdb
     RDKit          3D

 20 19  0  0  1  0  0  0  0  0999 V2000
    8.0532  -13.8195   16.8227 N   0  0  0  0  0  0  0  0  0  0  0  0
    9.2059  -13.3076   17.5222 C   0  0  0  0  0  0  0  0  0  0  0  0
    9.8806  -14.4618   18.2144 C   0  0  0  0  0  0  0  0  0  0  0  0
    9.2457  -15.5326   18.2317 O   0  0  0  0  0  0  0  0  0  0  0  0
   11.1452  -14.3057   18.7927 N   0  0  0  0  0  0  0  0  0  0  0  0
   11.9193  -15.3481   19.3736 C   0  0  1  0  0  0  0  0  0  0  0  0
   13.3247  -15.4421   18.8383 C   0  0  0  0  0  0  0  0  0  0  0  0
   14.0335  -14.1624   18.6094 C   0  0  0  0  0  0  0  0  0  0  0  0
   15.4016  -14.3333   18.0404 C   0  0  0  0  0  0  0  0  0  0  0  0
   16.4049  -14.3427   18.7536 O   0  0  0  0  0  0  0  0  0  0  0  0
   11.9660  -15.2703   20.8563 C   0  0  0  0  0  0  0  0  0  0  0  0
   12.5294  -14.2507   21.3918 O   0  0  0  0  0  0  0  0  0  0  0  0
   15.5839  -14.4898   16.6613 O   0  0  0  0  0  0  0  0  0  0  0  0
    9.2914  -17.0062   23.1777 O   0  0  0  0  0  0  0  0  0  0  0  0
   10.1002  -16.0301   23.7705 C   0  0  0  0  0  0  0  0  0  0  0  0
   11.4617  -16.0760   23.1242 C   0  0  2  0  0  0  0  0  0  0  0  0
   11.4212  -16.2623   21.7106 N   0  0  0  0  0  0  0  0  0  0  0  0
   12.1991  -17.2164   23.7498 C   0  0  0  0  0  0  0  0  0  0  0  0
   12.5635  -18.1740   23.0251 O   0  0  0  0  0  0  0  0  0  0  0  0
   12.4858  -17.2382   25.0993 O   0  0  0  0  0  0  0  0  0  0  0  0
  2  1  1  0
  3  5  1  0
  3  2  1  0
  4  3  2  0
  6 11  1  0
  6  5  1  0
  6  7  1  6
  8  7  1  0
  9  8  1  0
 10  9  2  0
 11 12  2  0
 13  9  1  0
 14 15  1  0
 16 15  1  1
 17 11  1  0
 17 16  1  0
 18 16  1  0
 18 20  1  0
 19 18  2  0
M  END
$$$$
