GES.pdb
     RDKit          3D

 20 19  0  0  1  0  0  0  0  0999 V2000
    6.9529  -19.0455   10.6121 N   0  0  0  0  0  0  0  0  0  0  0  0
    8.1065  -18.7594   11.4288 C   0  0  0  0  0  0  0  0  0  0  0  0
    8.0340  -19.6271   12.6570 C   0  0  0  0  0  0  0  0  0  0  0  0
    6.9234  -20.1347   12.8999 O   0  0  0  0  0  0  0  0  0  0  0  0
    9.1655  -19.8295   13.4548 N   0  0  0  0  0  0  0  0  0  0  0  0
    9.2073  -20.6144   14.6404 C   0  0  1  0  0  0  0  0  0  0  0  0
   10.5965  -21.0188   15.0616 C   0  0  0  0  0  0  0  0  0  0  0  0
   11.2779  -22.0265   14.2174 C   0  0  0  0  0  0  0  0  0  0  0  0
   12.6802  -22.3075   14.6408 C   0  0  0  0  0  0  0  0  0  0  0  0
   13.6461  -21.8252   14.0492 O   0  0  0  0  0  0  0  0  0  0  0  0
    8.5208  -19.9622   15.7849 C   0  0  0  0  0  0  0  0  0  0  0  0
    8.7245  -18.7116   15.9806 O   0  0  0  0  0  0  0  0  0  0  0  0
   12.9391  -23.1383   15.7372 O   0  0  0  0  0  0  0  0  0  0  0  0
    4.8482  -20.3051   16.5783 O   0  0  0  0  0  0  0  0  0  0  0  0
    5.4940  -20.3824   17.8173 C   0  0  0  0  0  0  0  0  0  0  0  0
    6.9170  -19.9131   17.6483 C   0  0  2  0  0  0  0  0  0  0  0  0
    7.6528  -20.6479   16.6720 N   0  0  0  0  0  0  0  0  0  0  0  0
    7.5819  -20.0607   18.9794 C   0  0  0  0  0  0  0  0  0  0  0  0
    7.0306  -19.5644   19.9916 O   0  0  0  0  0  0  0  0  0  0  0  0
    8.7821  -20.7273   19.1175 O   0  0  0  0  0  0  0  0  0  0  0  0
  2  1  1  0
  3  5  1  0
  3  2  1  0
  4  3  2  0
  6 11  1  0
  6  5  1  0
  6  7  1  1
  8  7  1  0
  9  8  1  0
 10  9  2  0
 11 12  2  0
 13  9  1  0
 14 15  1  0
 16 15  1  1
 17 11  1  0
 17 16  1  0
 18 16  1  0
 18 20  1  0
 19 18  2  0
M  END
$$$$
