GES.pdb
     RDKit          3D

 20 19  0  0  1  0  0  0  0  0999 V2000
   12.5604  -19.9721   22.3339 N   0  0  0  0  0  0  0  0  0  0  0  0
   12.9946  -19.7363   23.6888 C   0  0  0  0  0  0  0  0  0  0  0  0
   11.8342  -19.1602   24.4558 C   0  0  0  0  0  0  0  0  0  0  0  0
   10.8394  -18.8405   23.7789 O   0  0  0  0  0  0  0  0  0  0  0  0
   11.9033  -19.0073   25.8449 N   0  0  0  0  0  0  0  0  0  0  0  0
   10.8526  -18.5247   26.6734 C   0  0  1  0  0  0  0  0  0  0  0  0
   10.8338  -19.1250   28.0553 C   0  0  0  0  0  0  0  0  0  0  0  0
   12.1010  -19.0694   28.8193 C   0  0  0  0  0  0  0  0  0  0  0  0
   12.0190  -19.7248   30.1566 C   0  0  0  0  0  0  0  0  0  0  0  0
   11.0024  -20.3085   30.5323 O   0  0  0  0  0  0  0  0  0  0  0  0
   10.8438  -17.0433   26.7847 C   0  0  0  0  0  0  0  0  0  0  0  0
   11.9562  -16.4196   26.6541 O   0  0  0  0  0  0  0  0  0  0  0  0
   13.1107  -19.6933   31.0321 O   0  0  0  0  0  0  0  0  0  0  0  0
    8.5989  -12.8998   26.1763 O   0  0  0  0  0  0  0  0  0  0  0  0
    8.4281  -14.2800   26.3313 C   0  0  0  0  0  0  0  0  0  0  0  0
    9.7068  -14.8648   26.8759 C   0  0  2  0  0  0  0  0  0  0  0  0
    9.6719  -16.2827   27.0274 N   0  0  0  0  0  0  0  0  0  0  0  0
    9.9370  -14.2329   28.2113 C   0  0  0  0  0  0  0  0  0  0  0  0
    9.8700  -14.9477   29.2406 O   0  0  0  0  0  0  0  0  0  0  0  0
   10.2200  -12.8882   28.3352 O   0  0  0  0  0  0  0  0  0  0  0  0
  2  1  1  0
  3  5  1  0
  3  2  1  0
  4  3  2  0
  6 11  1  0
  6  5  1  0
  6  7  1  1
  8  7  1  0
  9  8  1  0
 10  9  2  0
 11 12  2  0
 13  9  1  0
 14 15  1  0
 16 15  1  1
 17 11  1  0
 17 16  1  0
 18 16  1  0
 18 20  1  0
 19 18  2  0
M  END
$$$$
