NVT.pdb
     RDKit          3D

 23 22  0  0  1  0  0  0  0  0999 V2000
   10.9161  -17.6926   13.5754 N   0  0  0  0  0  0  0  0  0  0  0  0
    9.6282  -17.4492   14.1474 C   0  0  0  0  0  0  0  0  0  0  0  0
    8.6680  -18.1133   13.7527 O   0  0  0  0  0  0  0  0  0  0  0  0
    9.5260  -16.4217   15.1720 C   0  0  0  0  0  0  0  0  0  0  0  0
    9.2876  -17.0242   16.5286 C   0  0  2  0  0  0  0  0  0  0  0  0
    7.8299  -17.2084   16.7240 N   0  0  0  0  0  0  0  0  0  0  0  0
    9.6984  -16.1260   17.6341 C   0  0  0  0  0  0  0  0  0  0  0  0
   10.9201  -15.8762   17.8543 O   0  0  0  0  0  0  0  0  0  0  0  0
    8.2080  -12.6507   20.8589 C   0  0  0  0  0  0  0  0  0  0  0  0
    7.9008  -13.7055   19.8330 C   0  0  2  0  0  0  0  0  0  0  0  0
    6.6161  -14.4242   20.1069 C   0  0  0  0  0  0  0  0  0  0  0  0
    9.0610  -14.6439   19.5925 C   0  0  2  0  0  0  0  0  0  0  0  0
    8.7244  -15.5341   18.4601 N   0  0  0  0  0  0  0  0  0  0  0  0
    9.3859  -15.5328   20.7091 C   0  0  0  0  0  0  0  0  0  0  0  0
    8.6879  -16.5948   20.9063 O   0  0  0  0  0  0  0  0  0  0  0  0
   12.5654  -17.2762   24.0600 C   0  0  0  0  0  0  0  0  0  0  0  0
   12.1791  -16.4293   22.8652 C   0  0  1  0  0  0  0  0  0  0  0  0
   12.7767  -16.8977   21.6973 O   0  0  0  0  0  0  0  0  0  0  0  0
   10.6765  -16.2973   22.7369 C   0  0  2  0  0  0  0  0  0  0  0  0
   10.4309  -15.3644   21.6520 N   0  0  0  0  0  0  0  0  0  0  0  0
   10.0552  -15.8398   24.0019 C   0  0  0  0  0  0  0  0  0  0  0  0
    9.7204  -16.7262   25.0146 O   0  0  0  0  0  0  0  0  0  0  0  0
    9.7955  -14.6152   24.2287 O   0  0  0  0  0  0  0  0  0  0  0  0
  2  1  1  0
  3  2  2  0
  4  2  1  0
  4  5  1  0
  5  6  1  1
  7  8  2  0
  7  5  1  0
 10  9  1  1
 10 12  1  0
 11 10  1  0
 12 13  1  6
 13  7  1  0
 14 12  1  0
 15 14  2  0
 17 16  1  1
 17 19  1  0
 18 17  1  0
 19 21  1  0
 19 20  1  6
 20 14  1  0
 21 22  1  0
 23 21  2  0
M  END
$$$$
