NVT.pdb
     RDKit          3D

 23 22  0  0  1  0  0  0  0  0999 V2000
    7.3497  -20.7944   17.4949 N   0  0  0  0  0  0  0  0  0  0  0  0
    7.0366  -19.4115   17.3085 C   0  0  0  0  0  0  0  0  0  0  0  0
    6.4444  -19.0697   16.2831 O   0  0  0  0  0  0  0  0  0  0  0  0
    7.4396  -18.4798   18.3504 C   0  0  0  0  0  0  0  0  0  0  0  0
    7.7921  -17.1360   17.7757 C   0  0  2  0  0  0  0  0  0  0  0  0
    8.6558  -17.3325   16.5873 N   0  0  0  0  0  0  0  0  0  0  0  0
    8.6134  -16.3164   18.6984 C   0  0  0  0  0  0  0  0  0  0  0  0
    9.8556  -16.1623   18.5070 O   0  0  0  0  0  0  0  0  0  0  0  0
    6.6643  -13.6794   21.4980 C   0  0  0  0  0  0  0  0  0  0  0  0
    8.0342  -13.5212   20.9000 C   0  0  2  0  0  0  0  0  0  0  0  0
    8.0268  -12.7145   19.6386 C   0  0  0  0  0  0  0  0  0  0  0  0
    8.7647  -14.8363   20.7538 C   0  0  2  0  0  0  0  0  0  0  0  0
    8.0149  -15.6932   19.8096 N   0  0  0  0  0  0  0  0  0  0  0  0
    8.8893  -15.6206   21.9835 C   0  0  0  0  0  0  0  0  0  0  0  0
    7.9465  -16.4242   22.3288 O   0  0  0  0  0  0  0  0  0  0  0  0
    9.8209  -18.2841   21.9300 C   0  0  0  0  0  0  0  0  0  0  0  0
   10.8006  -17.8386   22.9956 C   0  0  1  0  0  0  0  0  0  0  0  0
   12.0491  -17.5515   22.4482 O   0  0  0  0  0  0  0  0  0  0  0  0
   10.2489  -16.6932   23.8174 C   0  0  2  0  0  0  0  0  0  0  0  0
    9.9777  -15.6082   22.8917 N   0  0  0  0  0  0  0  0  0  0  0  0
   11.1904  -16.2787   24.8839 C   0  0  0  0  0  0  0  0  0  0  0  0
   11.3915  -17.0468   26.0209 O   0  0  0  0  0  0  0  0  0  0  0  0
   11.8633  -15.2011   24.8167 O   0  0  0  0  0  0  0  0  0  0  0  0
  2  1  1  0
  3  2  2  0
  4  2  1  0
  4  5  1  0
  5  6  1  6
  7  8  2  0
  7  5  1  0
 10  9  1  6
 10 12  1  0
 11 10  1  0
 12 13  1  6
 13  7  1  0
 14 12  1  0
 15 14  2  0
 17 16  1  6
 17 19  1  0
 18 17  1  0
 19 21  1  0
 19 20  1  6
 20 14  1  0
 21 22  1  0
 23 21  2  0
M  END
$$$$
