NVT.pdb
     RDKit          3D

 23 22  0  0  1  0  0  0  0  0999 V2000
    9.9729  -20.1779   15.1118 N   0  0  0  0  0  0  0  0  0  0  0  0
    9.0206  -19.3780   15.8178 C   0  0  0  0  0  0  0  0  0  0  0  0
    7.8417  -19.4036   15.4596 O   0  0  0  0  0  0  0  0  0  0  0  0
    9.5041  -18.5728   16.9287 C   0  0  0  0  0  0  0  0  0  0  0  0
    9.0802  -17.1371   16.7884 C   0  0  2  0  0  0  0  0  0  0  0  0
    9.7834  -16.5388   15.6289 N   0  0  0  0  0  0  0  0  0  0  0  0
    9.4932  -16.3030   17.9422 C   0  0  0  0  0  0  0  0  0  0  0  0
   10.7165  -16.0963   18.1955 O   0  0  0  0  0  0  0  0  0  0  0  0
    7.5449  -12.9280   18.9654 C   0  0  0  0  0  0  0  0  0  0  0  0
    7.7237  -13.8658   20.1265 C   0  0  2  0  0  0  0  0  0  0  0  0
    7.8025  -13.1529   21.4408 C   0  0  0  0  0  0  0  0  0  0  0  0
    8.8558  -14.8454   19.9190 C   0  0  2  0  0  0  0  0  0  0  0  0
    8.5194  -15.7248   18.7781 N   0  0  0  0  0  0  0  0  0  0  0  0
    9.1174  -15.7438   21.0447 C   0  0  0  0  0  0  0  0  0  0  0  0
    8.1942  -16.5379   21.4583 O   0  0  0  0  0  0  0  0  0  0  0  0
   11.6549  -18.4028   21.3570 C   0  0  0  0  0  0  0  0  0  0  0  0
   11.7725  -17.5553   22.6068 C   0  0  1  0  0  0  0  0  0  0  0  0
   12.8954  -16.7323   22.5573 O   0  0  0  0  0  0  0  0  0  0  0  0
   10.4986  -16.7847   22.8807 C   0  0  2  0  0  0  0  0  0  0  0  0
   10.3260  -15.8580   21.7766 N   0  0  0  0  0  0  0  0  0  0  0  0
   10.5523  -16.0793   24.1826 C   0  0  0  0  0  0  0  0  0  0  0  0
   10.5437  -16.7660   25.3874 O   0  0  0  0  0  0  0  0  0  0  0  0
   10.6092  -14.8112   24.2677 O   0  0  0  0  0  0  0  0  0  0  0  0
  2  1  1  0
  3  2  2  0
  4  2  1  0
  4  5  1  0
  5  6  1  6
  7  8  2  0
  7  5  1  0
 10  9  1  6
 10 12  1  0
 11 10  1  0
 12 13  1  6
 13  7  1  0
 14 12  1  0
 15 14  2  0
 17 16  1  6
 17 19  1  0
 18 17  1  0
 19 21  1  0
 19 20  1  6
 20 14  1  0
 21 22  1  0
 23 21  2  0
M  END
$$$$
