NVT.pdb
     RDKit          3D

 23 22  0  0  1  0  0  0  0  0999 V2000
   11.6939  -17.5322   14.4533 N   0  0  0  0  0  0  0  0  0  0  0  0
   10.4425  -17.8419   15.0724 C   0  0  0  0  0  0  0  0  0  0  0  0
    9.9677  -18.9690   14.9207 O   0  0  0  0  0  0  0  0  0  0  0  0
    9.7967  -16.7978   15.8528 C   0  0  0  0  0  0  0  0  0  0  0  0
    9.5006  -17.2644   17.2510 C   0  0  2  0  0  0  0  0  0  0  0  0
    8.0456  -17.5180   17.3757 N   0  0  0  0  0  0  0  0  0  0  0  0
    9.7843  -16.2280   18.2724 C   0  0  0  0  0  0  0  0  0  0  0  0
   10.9591  -15.7912   18.4523 O   0  0  0  0  0  0  0  0  0  0  0  0
    7.6995  -12.9602   19.0379 C   0  0  0  0  0  0  0  0  0  0  0  0
    7.8142  -13.8159   20.2683 C   0  0  2  0  0  0  0  0  0  0  0  0
    7.8042  -13.0160   21.5340 C   0  0  0  0  0  0  0  0  0  0  0  0
    8.9663  -14.7918   20.1975 C   0  0  2  0  0  0  0  0  0  0  0  0
    8.7395  -15.7121   19.0619 N   0  0  0  0  0  0  0  0  0  0  0  0
    9.1303  -15.6492   21.3725 C   0  0  0  0  0  0  0  0  0  0  0  0
    8.1033  -16.2147   21.9011 O   0  0  0  0  0  0  0  0  0  0  0  0
   10.2203  -18.8319   21.6534 C   0  0  0  0  0  0  0  0  0  0  0  0
   11.0756  -18.1246   22.6840 C   0  0  1  0  0  0  0  0  0  0  0  0
   12.3680  -17.9110   22.2099 O   0  0  0  0  0  0  0  0  0  0  0  0
   10.4193  -16.8524   23.1762 C   0  0  2  0  0  0  0  0  0  0  0  0
   10.3442  -15.9544   22.0379 N   0  0  0  0  0  0  0  0  0  0  0  0
   11.1697  -16.2466   24.3011 C   0  0  0  0  0  0  0  0  0  0  0  0
   11.8393  -15.0395   24.1677 O   0  0  0  0  0  0  0  0  0  0  0  0
   11.2413  -16.7967   25.4460 O   0  0  0  0  0  0  0  0  0  0  0  0
  2  1  1  0
  3  2  2  0
  4  2  1  0
  4  5  1  0
  5  6  1  6
  7  8  2  0
  7  5  1  0
 10  9  1  6
 10 12  1  0
 11 10  1  0
 12 13  1  6
 13  7  1  0
 14 12  1  0
 15 14  2  0
 17 16  1  6
 17 19  1  0
 18 17  1  0
 19 21  1  0
 19 20  1  6
 20 14  1  0
 21 22  1  0
 23 21  2  0
M  END
$$$$
