NVT.pdb
     RDKit          3D

 23 22  0  0  1  0  0  0  0  0999 V2000
    5.9913  -17.8474   20.3591 N   0  0  0  0  0  0  0  0  0  0  0  0
    6.9356  -16.7979   20.1306 C   0  0  0  0  0  0  0  0  0  0  0  0
    7.0355  -16.3256   18.9967 O   0  0  0  0  0  0  0  0  0  0  0  0
    7.7307  -16.3448   21.2613 C   0  0  0  0  0  0  0  0  0  0  0  0
    7.4758  -14.8940   21.5625 C   0  0  2  0  0  0  0  0  0  0  0  0
    8.0975  -14.0659   20.5020 N   0  0  0  0  0  0  0  0  0  0  0  0
    8.1313  -14.4455   22.8142 C   0  0  0  0  0  0  0  0  0  0  0  0
    9.3601  -14.1407   22.8362 O   0  0  0  0  0  0  0  0  0  0  0  0
    6.5602  -11.8723   25.2141 C   0  0  0  0  0  0  0  0  0  0  0  0
    6.9916  -13.0613   26.0262 C   0  0  2  0  0  0  0  0  0  0  0  0
    7.4476  -12.6887   27.4029 C   0  0  0  0  0  0  0  0  0  0  0  0
    7.9802  -13.9414   25.2964 C   0  0  2  0  0  0  0  0  0  0  0  0
    7.3869  -14.3521   24.0052 N   0  0  0  0  0  0  0  0  0  0  0  0
    8.3317  -15.1861   25.9818 C   0  0  0  0  0  0  0  0  0  0  0  0
    7.4078  -16.0153   26.3175 O   0  0  0  0  0  0  0  0  0  0  0  0
   10.4704  -17.8897   24.7397 C   0  0  0  0  0  0  0  0  0  0  0  0
   10.9626  -17.5822   26.1387 C   0  0  1  0  0  0  0  0  0  0  0  0
   12.1564  -16.8648   26.1098 O   0  0  0  0  0  0  0  0  0  0  0  0
    9.8953  -16.9016   26.9690 C   0  0  2  0  0  0  0  0  0  0  0  0
    9.6328  -15.6192   26.3410 N   0  0  0  0  0  0  0  0  0  0  0  0
   10.3159  -16.7424   28.3808 C   0  0  0  0  0  0  0  0  0  0  0  0
   10.5314  -17.8350   29.2073 O   0  0  0  0  0  0  0  0  0  0  0  0
   10.5019  -15.6010   28.9111 O   0  0  0  0  0  0  0  0  0  0  0  0
  2  1  1  0
  3  2  2  0
  4  2  1  0
  4  5  1  0
  5  6  1  6
  7  8  2  0
  7  5  1  0
 10  9  1  6
 10 12  1  0
 11 10  1  0
 12 13  1  6
 13  7  1  0
 14 12  1  0
 15 14  2  0
 17 16  1  6
 17 19  1  0
 18 17  1  0
 19 21  1  0
 19 20  1  6
 20 14  1  0
 21 22  1  0
 23 21  2  0
M  END
$$$$
