NVT.pdb
     RDKit          3D

 23 22  0  0  1  0  0  0  0  0999 V2000
    5.8239  -20.7360   28.0381 N   0  0  0  0  0  0  0  0  0  0  0  0
    7.1902  -20.5531   27.6574 C   0  0  0  0  0  0  0  0  0  0  0  0
    8.0689  -21.1252   28.3051 O   0  0  0  0  0  0  0  0  0  0  0  0
    7.4656  -19.6939   26.5163 C   0  0  0  0  0  0  0  0  0  0  0  0
    6.2089  -19.0483   26.0022 C   0  0  2  0  0  0  0  0  0  0  0  0
    5.4914  -20.0138   25.1363 N   0  0  0  0  0  0  0  0  0  0  0  0
    6.4809  -17.8897   25.1183 C   0  0  0  0  0  0  0  0  0  0  0  0
    6.2716  -17.9550   23.8711 O   0  0  0  0  0  0  0  0  0  0  0  0
    5.9523  -13.9977   25.9918 C   0  0  0  0  0  0  0  0  0  0  0  0
    7.3722  -14.2931   25.5970 C   0  0  2  0  0  0  0  0  0  0  0  0
    8.0369  -13.1377   24.9150 C   0  0  0  0  0  0  0  0  0  0  0  0
    7.5092  -15.5881   24.8296 C   0  0  2  0  0  0  0  0  0  0  0  0
    6.9800  -16.6909   25.6614 N   0  0  0  0  0  0  0  0  0  0  0  0
    8.8814  -15.9718   24.4938 C   0  0  0  0  0  0  0  0  0  0  0  0
    9.7041  -16.2916   25.4291 O   0  0  0  0  0  0  0  0  0  0  0  0
    9.7411  -18.1510   21.2455 C   0  0  0  0  0  0  0  0  0  0  0  0
   10.7608  -17.0584   21.4912 C   0  0  1  0  0  0  0  0  0  0  0  0
   10.5930  -15.9992   20.6022 O   0  0  0  0  0  0  0  0  0  0  0  0
   10.7606  -16.6095   22.9370 C   0  0  2  0  0  0  0  0  0  0  0  0
    9.4502  -16.0416   23.1973 N   0  0  0  0  0  0  0  0  0  0  0  0
   11.8424  -15.6344   23.2096 C   0  0  0  0  0  0  0  0  0  0  0  0
   13.1813  -15.9894   23.1412 O   0  0  0  0  0  0  0  0  0  0  0  0
   11.6052  -14.4237   23.5200 O   0  0  0  0  0  0  0  0  0  0  0  0
  2  1  1  0
  3  2  2  0
  4  2  1  0
  4  5  1  0
  5  6  1  6
  7  8  2  0
  7  5  1  0
 10  9  1  6
 10 12  1  0
 11 10  1  0
 12 13  1  1
 13  7  1  0
 14 12  1  0
 15 14  2  0
 17 16  1  1
 17 19  1  0
 18 17  1  0
 19 21  1  0
 19 20  1  6
 20 14  1  0
 21 22  1  0
 23 21  2  0
M  END
$$$$
