NVT.pdb
     RDKit          3D

 23 22  0  0  1  0  0  0  0  0999 V2000
    8.2376  -20.5047   15.6495 N   0  0  0  0  0  0  0  0  0  0  0  0
    7.7000  -19.5677   16.5868 C   0  0  0  0  0  0  0  0  0  0  0  0
    6.4762  -19.4779   16.7011 O   0  0  0  0  0  0  0  0  0  0  0  0
    8.6386  -18.7676   17.3580 C   0  0  0  0  0  0  0  0  0  0  0  0
    8.4828  -17.3025   17.0586 C   0  0  2  0  0  0  0  0  0  0  0  0
    9.2745  -16.9714   15.8500 N   0  0  0  0  0  0  0  0  0  0  0  0
    9.0500  -16.4377   18.1207 C   0  0  0  0  0  0  0  0  0  0  0  0
   10.2926  -16.2012   18.1777 O   0  0  0  0  0  0  0  0  0  0  0  0
    7.2841  -13.0932   19.2950 C   0  0  0  0  0  0  0  0  0  0  0  0
    7.6295  -13.9539   20.4779 C   0  0  2  0  0  0  0  0  0  0  0  0
    7.9293  -13.1552   21.7084 C   0  0  0  0  0  0  0  0  0  0  0  0
    8.6968  -14.9775   20.1656 C   0  0  2  0  0  0  0  0  0  0  0  0
    8.2042  -15.8632   19.0882 N   0  0  0  0  0  0  0  0  0  0  0  0
    9.0525  -15.8656   21.2735 C   0  0  0  0  0  0  0  0  0  0  0  0
    8.1428  -16.5726   21.8450 O   0  0  0  0  0  0  0  0  0  0  0  0
   11.4595  -18.6439   21.1445 C   0  0  0  0  0  0  0  0  0  0  0  0
   11.7992  -17.8538   22.3911 C   0  0  1  0  0  0  0  0  0  0  0  0
   12.9487  -17.0883   22.2086 O   0  0  0  0  0  0  0  0  0  0  0  0
   10.6220  -17.0302   22.8681 C   0  0  2  0  0  0  0  0  0  0  0  0
   10.3435  -16.0581   21.8264 N   0  0  0  0  0  0  0  0  0  0  0  0
   10.9008  -16.3740   24.1671 C   0  0  0  0  0  0  0  0  0  0  0  0
   10.9989  -17.0979   25.3459 O   0  0  0  0  0  0  0  0  0  0  0  0
   11.0651  -15.1169   24.2732 O   0  0  0  0  0  0  0  0  0  0  0  0
  2  1  1  0
  3  2  2  0
  4  2  1  0
  4  5  1  0
  5  6  1  6
  7  8  2  0
  7  5  1  0
 10  9  1  6
 10 12  1  0
 11 10  1  0
 12 13  1  6
 13  7  1  0
 14 12  1  0
 15 14  2  0
 17 16  1  6
 17 19  1  0
 18 17  1  0
 19 21  1  0
 19 20  1  6
 20 14  1  0
 21 22  1  0
 23 21  2  0
M  END
$$$$
