NII.pdb
     RDKit          3D

 25 24  0  0  1  0  0  0  0  0999 V2000
    7.8858  -19.3620   19.6780 N   0  0  0  0  0  0  0  0  0  0  0  0
    8.8425  -19.7039   20.6568 C   0  0  0  0  0  0  0  0  0  0  0  0
    9.0384  -20.9016   21.0368 O   0  0  0  0  0  0  0  0  0  0  0  0
    9.6660  -18.6671   21.2869 C   0  0  0  0  0  0  0  0  0  0  0  0
    9.2466  -17.2687   20.9049 C   0  0  2  0  0  0  0  0  0  0  0  0
    9.6998  -16.9703   19.5532 N   0  0  0  0  0  0  0  0  0  0  0  0
    9.6928  -16.2510   21.8713 C   0  0  0  0  0  0  0  0  0  0  0  0
   10.7564  -15.5900   21.7818 O   0  0  0  0  0  0  0  0  0  0  0  0
    5.8153  -14.2338   25.4406 C   0  0  0  0  0  0  0  0  0  0  0  0
    6.8803  -15.1869   24.8999 C   0  0  0  0  0  0  0  0  0  0  0  0
    8.0329  -14.3111   24.4493 C   0  0  2  0  0  0  0  0  0  0  0  0
    7.6128  -13.6506   23.1509 C   0  0  0  0  0  0  0  0  0  0  0  0
    9.2599  -15.1798   24.1173 C   0  0  2  0  0  0  0  0  0  0  0  0
    8.8657  -15.9861   22.9962 N   0  0  0  0  0  0  0  0  0  0  0  0
    9.6579  -15.9414   25.2962 C   0  0  0  0  0  0  0  0  0  0  0  0
    9.8259  -17.1812   25.1946 O   0  0  0  0  0  0  0  0  0  0  0  0
   10.7192  -12.9507   29.7271 C   0  0  0  0  0  0  0  0  0  0  0  0
   11.2267  -13.9384   28.6876 C   0  0  0  0  0  0  0  0  0  0  0  0
   10.6165  -15.2982   28.9089 C   0  0  2  0  0  0  0  0  0  0  0  0
   11.4426  -15.9823   29.9996 C   0  0  0  0  0  0  0  0  0  0  0  0
   10.5823  -16.1147   27.6561 C   0  0  2  0  0  0  0  0  0  0  0  0
    9.8760  -15.3818   26.5824 N   0  0  0  0  0  0  0  0  0  0  0  0
    9.8830  -17.4063   27.7669 C   0  0  0  0  0  0  0  0  0  0  0  0
    8.5050  -17.5208   27.6625 O   0  0  0  0  0  0  0  0  0  0  0  0
   10.4993  -18.4810   27.9626 O   0  0  0  0  0  0  0  0  0  0  0  0
  1  2  1  0
  2  3  2  0
  4  5  1  0
  4  2  1  0
  5  6  1  6
  7  5  1  0
  7  8  2  0
 10 11  1  0
 10  9  1  0
 11 13  1  0
 11 12  1  6
 13 14  1  6
 14  7  1  0
 15 22  1  0
 15 13  1  0
 16 15  2  0
 17 18  1  0
 18 19  1  0
 19 21  1  0
 19 20  1  1
 21 22  1  6
 21 23  1  0
 23 24  1  0
 25 23  2  0
M  END
$$$$
