NII.pdb
     RDKit          3D

 25 24  0  0  1  0  0  0  0  0999 V2000
    5.3583  -21.1818   24.1988 N   0  0  0  0  0  0  0  0  0  0  0  0
    5.2637  -20.0235   23.3991 C   0  0  0  0  0  0  0  0  0  0  0  0
    4.2466  -19.7664   22.6804 O   0  0  0  0  0  0  0  0  0  0  0  0
    6.3599  -19.0502   23.3661 C   0  0  0  0  0  0  0  0  0  0  0  0
    6.4614  -18.3217   22.0484 C   0  0  2  0  0  0  0  0  0  0  0  0
    6.5806  -19.2839   20.9614 N   0  0  0  0  0  0  0  0  0  0  0  0
    7.5475  -17.3275   22.0238 C   0  0  0  0  0  0  0  0  0  0  0  0
    8.7726  -17.5998   21.9848 O   0  0  0  0  0  0  0  0  0  0  0  0
    6.6389  -12.9921   19.1568 C   0  0  0  0  0  0  0  0  0  0  0  0
    7.3915  -14.1315   19.8424 C   0  0  0  0  0  0  0  0  0  0  0  0
    7.5244  -13.7268   21.2974 C   0  0  2  0  0  0  0  0  0  0  0  0
    8.5120  -12.5780   21.3546 C   0  0  0  0  0  0  0  0  0  0  0  0
    8.1468  -14.8754   22.1120 C   0  0  2  0  0  0  0  0  0  0  0  0
    7.1969  -15.9504   22.0450 N   0  0  0  0  0  0  0  0  0  0  0  0
    8.4418  -14.4165   23.4650 C   0  0  0  0  0  0  0  0  0  0  0  0
    8.2195  -13.2182   23.7659 O   0  0  0  0  0  0  0  0  0  0  0  0
    6.3183  -12.2926   26.2641 C   0  0  0  0  0  0  0  0  0  0  0  0
    7.6055  -12.8559   25.6816 C   0  0  0  0  0  0  0  0  0  0  0  0
    8.0322  -14.0879   26.4370 C   0  0  2  0  0  0  0  0  0  0  0  0
    8.2609  -13.6608   27.8880 C   0  0  0  0  0  0  0  0  0  0  0  0
    9.2578  -14.7151   25.8522 C   0  0  2  0  0  0  0  0  0  0  0  0
    8.9741  -15.2341   24.4961 N   0  0  0  0  0  0  0  0  0  0  0  0
    9.7939  -15.8644   26.6014 C   0  0  0  0  0  0  0  0  0  0  0  0
   10.8992  -15.7640   27.4328 O   0  0  0  0  0  0  0  0  0  0  0  0
    9.2766  -17.0047   26.5288 O   0  0  0  0  0  0  0  0  0  0  0  0
  1  2  1  0
  2  3  2  0
  4  5  1  0
  4  2  1  0
  5  6  1  6
  7  5  1  0
  7  8  2  0
 10 11  1  0
 10  9  1  0
 11 13  1  0
 11 12  1  6
 13 14  1  1
 14  7  1  0
 15 22  1  0
 15 13  1  0
 16 15  2  0
 17 18  1  0
 18 19  1  0
 19 21  1  0
 19 20  1  1
 21 22  1  6
 21 23  1  0
 23 24  1  0
 25 23  2  0
M  END
$$$$
