NII.pdb
     RDKit          3D

 25 24  0  0  1  0  0  0  0  0999 V2000
   14.1388  -18.0748   18.4287 N   0  0  0  0  0  0  0  0  0  0  0  0
   13.8870  -17.8846   19.8037 C   0  0  0  0  0  0  0  0  0  0  0  0
   14.2828  -18.7021   20.6939 O   0  0  0  0  0  0  0  0  0  0  0  0
   13.1424  -16.7101   20.2686 C   0  0  0  0  0  0  0  0  0  0  0  0
   11.9372  -17.0689   21.1030 C   0  0  2  0  0  0  0  0  0  0  0  0
   11.0039  -17.8552   20.3078 N   0  0  0  0  0  0  0  0  0  0  0  0
   11.2884  -15.8945   21.7099 C   0  0  0  0  0  0  0  0  0  0  0  0
   11.8670  -15.0428   22.4283 O   0  0  0  0  0  0  0  0  0  0  0  0
    7.4179  -13.4663   18.9052 C   0  0  0  0  0  0  0  0  0  0  0  0
    8.5697  -13.6188   19.8976 C   0  0  0  0  0  0  0  0  0  0  0  0
    7.9929  -14.3451   21.0968 C   0  0  2  0  0  0  0  0  0  0  0  0
    7.0589  -13.3792   21.7992 C   0  0  0  0  0  0  0  0  0  0  0  0
    9.1101  -14.6775   22.1025 C   0  0  2  0  0  0  0  0  0  0  0  0
    9.9012  -15.6972   21.4723 N   0  0  0  0  0  0  0  0  0  0  0  0
    8.5232  -15.0735   23.3780 C   0  0  0  0  0  0  0  0  0  0  0  0
    8.5683  -16.2795   23.7233 O   0  0  0  0  0  0  0  0  0  0  0  0
    6.9902  -11.0791   27.0721 C   0  0  0  0  0  0  0  0  0  0  0  0
    7.7687  -12.3140   26.6449 C   0  0  0  0  0  0  0  0  0  0  0  0
    6.8302  -13.4587   26.3633 C   0  0  2  0  0  0  0  0  0  0  0  0
    6.2592  -13.9051   27.7105 C   0  0  0  0  0  0  0  0  0  0  0  0
    7.5101  -14.5882   25.6566 C   0  0  2  0  0  0  0  0  0  0  0  0
    7.8881  -14.1845   24.2844 N   0  0  0  0  0  0  0  0  0  0  0  0
    6.6977  -15.8057   25.4912 C   0  0  0  0  0  0  0  0  0  0  0  0
    5.7649  -15.9487   24.4752 O   0  0  0  0  0  0  0  0  0  0  0  0
    6.8058  -16.7868   26.2650 O   0  0  0  0  0  0  0  0  0  0  0  0
  1  2  1  0
  2  3  2  0
  4  5  1  0
  4  2  1  0
  5  6  1  6
  7  5  1  0
  7  8  2  0
 10 11  1  0
 10  9  1  0
 11 13  1  0
 11 12  1  1
 13 14  1  6
 14  7  1  0
 15 22  1  0
 15 13  1  0
 16 15  2  0
 17 18  1  0
 18 19  1  0
 19 21  1  0
 19 20  1  1
 21 22  1  6
 21 23  1  0
 23 24  1  0
 25 23  2  0
M  END
$$$$
