NII.pdb
     RDKit          3D

 25 24  0  0  1  0  0  0  0  0999 V2000
    6.6357  -19.2382   19.1551 N   0  0  0  0  0  0  0  0  0  0  0  0
    6.1141  -18.4213   20.1801 C   0  0  0  0  0  0  0  0  0  0  0  0
    4.9718  -18.6202   20.7025 O   0  0  0  0  0  0  0  0  0  0  0  0
    6.8875  -17.2862   20.6934 C   0  0  0  0  0  0  0  0  0  0  0  0
    7.1742  -17.3890   22.1715 C   0  0  2  0  0  0  0  0  0  0  0  0
    5.9222  -17.4165   22.9154 N   0  0  0  0  0  0  0  0  0  0  0  0
    8.0782  -16.3324   22.6561 C   0  0  0  0  0  0  0  0  0  0  0  0
    9.1896  -16.0459   22.1471 O   0  0  0  0  0  0  0  0  0  0  0  0
    5.3653  -12.6845   25.5923 C   0  0  0  0  0  0  0  0  0  0  0  0
    6.2982  -13.3164   24.5603 C   0  0  0  0  0  0  0  0  0  0  0  0
    7.5178  -13.7821   25.3311 C   0  0  2  0  0  0  0  0  0  0  0  0
    8.2626  -12.5414   25.7835 C   0  0  0  0  0  0  0  0  0  0  0  0
    8.4743  -14.5465   24.3978 C   0  0  2  0  0  0  0  0  0  0  0  0
    7.6745  -15.5702   23.7857 N   0  0  0  0  0  0  0  0  0  0  0  0
    9.6120  -15.0474   25.1612 C   0  0  0  0  0  0  0  0  0  0  0  0
   10.7462  -14.5452   24.9682 O   0  0  0  0  0  0  0  0  0  0  0  0
    9.7896  -13.6412   29.7685 C   0  0  0  0  0  0  0  0  0  0  0  0
   10.3581  -14.2139   28.4792 C   0  0  0  0  0  0  0  0  0  0  0  0
   10.2002  -15.7122   28.4519 C   0  0  2  0  0  0  0  0  0  0  0  0
   11.0499  -16.2680   29.5961 C   0  0  0  0  0  0  0  0  0  0  0  0
   10.6021  -16.3006   27.1368 C   0  0  2  0  0  0  0  0  0  0  0  0
    9.5408  -16.0833   26.1291 N   0  0  0  0  0  0  0  0  0  0  0  0
   10.8357  -17.7549   27.1444 C   0  0  0  0  0  0  0  0  0  0  0  0
    9.8499  -18.6714   26.8113 O   0  0  0  0  0  0  0  0  0  0  0  0
   11.9467  -18.2478   27.4542 O   0  0  0  0  0  0  0  0  0  0  0  0
  1  2  1  0
  2  3  2  0
  4  5  1  0
  4  2  1  0
  5  6  1  1
  7  5  1  0
  7  8  2  0
 10 11  1  0
 10  9  1  0
 11 13  1  0
 11 12  1  6
 13 14  1  1
 14  7  1  0
 15 22  1  0
 15 13  1  0
 16 15  2  0
 17 18  1  0
 18 19  1  0
 19 21  1  0
 19 20  1  1
 21 22  1  6
 21 23  1  0
 23 24  1  0
 25 23  2  0
M  END
$$$$
