NII.pdb
     RDKit          3D

 25 24  0  0  1  0  0  0  0  0999 V2000
   12.2911  -20.8808   20.4552 N   0  0  0  0  0  0  0  0  0  0  0  0
   11.2555  -19.9245   20.5106 C   0  0  0  0  0  0  0  0  0  0  0  0
   10.1130  -20.1183   19.9869 O   0  0  0  0  0  0  0  0  0  0  0  0
   11.4625  -18.6416   21.1900 C   0  0  0  0  0  0  0  0  0  0  0  0
   11.2891  -17.4551   20.2738 C   0  0  2  0  0  0  0  0  0  0  0  0
   12.5008  -17.2564   19.4902 N   0  0  0  0  0  0  0  0  0  0  0  0
   10.8900  -16.2310   20.9885 C   0  0  0  0  0  0  0  0  0  0  0  0
   11.6833  -15.3651   21.4326 O   0  0  0  0  0  0  0  0  0  0  0  0
    7.1209  -13.0256   19.3074 C   0  0  0  0  0  0  0  0  0  0  0  0
    8.3452  -13.5932   20.0242 C   0  0  0  0  0  0  0  0  0  0  0  0
    7.8123  -14.3408   21.2305 C   0  0  2  0  0  0  0  0  0  0  0  0
    7.1605  -13.3177   22.1399 C   0  0  0  0  0  0  0  0  0  0  0  0
    8.9761  -14.9538   22.0305 C   0  0  2  0  0  0  0  0  0  0  0  0
    9.5037  -15.9987   21.1984 N   0  0  0  0  0  0  0  0  0  0  0  0
    8.4957  -15.4054   23.3318 C   0  0  0  0  0  0  0  0  0  0  0  0
    8.2806  -16.6288   23.5129 O   0  0  0  0  0  0  0  0  0  0  0  0
    5.9619  -11.9982   27.0597 C   0  0  0  0  0  0  0  0  0  0  0  0
    6.4514  -13.0193   26.0441 C   0  0  0  0  0  0  0  0  0  0  0  0
    7.4595  -13.9469   26.6715 C   0  0  2  0  0  0  0  0  0  0  0  0
    8.6759  -13.0953   27.0395 C   0  0  0  0  0  0  0  0  0  0  0  0
    7.8358  -15.0735   25.7625 C   0  0  2  0  0  0  0  0  0  0  0  0
    8.2440  -14.5534   24.4390 N   0  0  0  0  0  0  0  0  0  0  0  0
    6.7609  -16.0409   25.4827 C   0  0  0  0  0  0  0  0  0  0  0  0
    5.9497  -15.9523   24.3616 O   0  0  0  0  0  0  0  0  0  0  0  0
    6.5187  -17.0048   26.2479 O   0  0  0  0  0  0  0  0  0  0  0  0
  1  2  1  0
  2  3  2  0
  4  5  1  0
  4  2  1  0
  5  6  1  1
  7  5  1  0
  7  8  2  0
 10 11  1  0
 10  9  1  0
 11 13  1  0
 11 12  1  1
 13 14  1  6
 14  7  1  0
 15 22  1  0
 15 13  1  0
 16 15  2  0
 17 18  1  0
 18 19  1  0
 19 21  1  0
 19 20  1  6
 21 22  1  6
 21 23  1  0
 23 24  1  0
 25 23  2  0
M  END
$$$$
