NII.pdb
     RDKit          3D

 25 24  0  0  1  0  0  0  0  0999 V2000
   15.2058  -18.8806   19.6786 N   0  0  0  0  0  0  0  0  0  0  0  0
   13.9757  -18.7654   20.3595 C   0  0  0  0  0  0  0  0  0  0  0  0
   13.1934  -19.7524   20.5361 O   0  0  0  0  0  0  0  0  0  0  0  0
   13.5433  -17.4735   20.9019 C   0  0  0  0  0  0  0  0  0  0  0  0
   12.0980  -17.1617   20.5995 C   0  0  2  0  0  0  0  0  0  0  0  0
   11.9746  -16.6758   19.2319 N   0  0  0  0  0  0  0  0  0  0  0  0
   11.4960  -16.2316   21.5696 C   0  0  0  0  0  0  0  0  0  0  0  0
   11.9918  -15.1315   21.9161 O   0  0  0  0  0  0  0  0  0  0  0  0
    6.4317  -15.1860   21.1367 C   0  0  0  0  0  0  0  0  0  0  0  0
    7.9146  -15.0598   21.4828 C   0  0  0  0  0  0  0  0  0  0  0  0
    8.1057  -15.8197   22.7806 C   0  0  2  0  0  0  0  0  0  0  0  0
    7.3745  -15.0496   23.8627 C   0  0  0  0  0  0  0  0  0  0  0  0
    9.5928  -15.8223   23.1790 C   0  0  2  0  0  0  0  0  0  0  0  0
   10.2584  -16.5940   22.1671 N   0  0  0  0  0  0  0  0  0  0  0  0
    9.7396  -16.3490   24.5315 C   0  0  0  0  0  0  0  0  0  0  0  0
    9.9216  -17.5807   24.6912 O   0  0  0  0  0  0  0  0  0  0  0  0
   10.4471  -12.5947   28.5848 C   0  0  0  0  0  0  0  0  0  0  0  0
   10.7889  -13.7401   27.6441 C   0  0  0  0  0  0  0  0  0  0  0  0
   10.0689  -14.9971   28.0591 C   0  0  2  0  0  0  0  0  0  0  0  0
   10.6890  -15.4460   29.3835 C   0  0  0  0  0  0  0  0  0  0  0  0
   10.1592  -16.0707   27.0216 C   0  0  2  0  0  0  0  0  0  0  0  0
    9.6919  -15.5632   25.7128 N   0  0  0  0  0  0  0  0  0  0  0  0
    9.3441  -17.2690   27.2848 C   0  0  0  0  0  0  0  0  0  0  0  0
    7.9986  -17.3435   26.9577 O   0  0  0  0  0  0  0  0  0  0  0  0
    9.8252  -18.2949   27.8225 O   0  0  0  0  0  0  0  0  0  0  0  0
  1  2  1  0
  2  3  2  0
  4  5  1  0
  4  2  1  0
  5  6  1  6
  7  5  1  0
  7  8  2  0
 10 11  1  0
 10  9  1  0
 11 13  1  0
 11 12  1  1
 13 14  1  6
 14  7  1  0
 15 22  1  0
 15 13  1  0
 16 15  2  0
 17 18  1  0
 18 19  1  0
 19 21  1  0
 19 20  1  1
 21 22  1  6
 21 23  1  0
 23 24  1  0
 25 23  2  0
M  END
$$$$
