NII.pdb
     RDKit          3D

 25 24  0  0  1  0  0  0  0  0999 V2000
   14.0313  -19.1677   21.0675 N   0  0  0  0  0  0  0  0  0  0  0  0
   13.9344  -18.1559   20.0893 C   0  0  0  0  0  0  0  0  0  0  0  0
   14.5643  -18.2049   18.9857 O   0  0  0  0  0  0  0  0  0  0  0  0
   13.0838  -16.9827   20.3137 C   0  0  0  0  0  0  0  0  0  0  0  0
   11.8659  -17.2895   21.1503 C   0  0  2  0  0  0  0  0  0  0  0  0
   10.9282  -18.0941   20.3790 N   0  0  0  0  0  0  0  0  0  0  0  0
   11.2291  -16.0818   21.7023 C   0  0  0  0  0  0  0  0  0  0  0  0
   11.8201  -15.1956   22.3670 O   0  0  0  0  0  0  0  0  0  0  0  0
    7.2753  -13.7810   18.8496 C   0  0  0  0  0  0  0  0  0  0  0  0
    8.4736  -13.9694   19.7787 C   0  0  0  0  0  0  0  0  0  0  0  0
    7.9198  -14.5679   21.0568 C   0  0  2  0  0  0  0  0  0  0  0  0
    7.0306  -13.5185   21.6945 C   0  0  0  0  0  0  0  0  0  0  0  0
    9.0612  -14.8345   22.0549 C   0  0  2  0  0  0  0  0  0  0  0  0
    9.8396  -15.8915   21.4725 N   0  0  0  0  0  0  0  0  0  0  0  0
    8.5055  -15.1488   23.3666 C   0  0  0  0  0  0  0  0  0  0  0  0
    8.5156  -16.3390   23.7654 O   0  0  0  0  0  0  0  0  0  0  0  0
    7.4873  -10.8889   26.6829 C   0  0  0  0  0  0  0  0  0  0  0  0
    8.1179  -12.2627   26.5134 C   0  0  0  0  0  0  0  0  0  0  0  0
    7.0529  -13.3165   26.3525 C   0  0  2  0  0  0  0  0  0  0  0  0
    6.5523  -13.6583   27.7570 C   0  0  0  0  0  0  0  0  0  0  0  0
    7.5603  -14.5312   25.6424 C   0  0  2  0  0  0  0  0  0  0  0  0
    7.9387  -14.1950   24.2522 N   0  0  0  0  0  0  0  0  0  0  0  0
    6.5959  -15.6381   25.5234 C   0  0  0  0  0  0  0  0  0  0  0  0
    6.6627  -16.7751   26.3145 O   0  0  0  0  0  0  0  0  0  0  0  0
    5.6545  -15.6131   24.6949 O   0  0  0  0  0  0  0  0  0  0  0  0
  1  2  1  0
  2  3  2  0
  4  5  1  0
  4  2  1  0
  5  6  1  6
  7  5  1  0
  7  8  2  0
 10 11  1  0
 10  9  1  0
 11 13  1  0
 11 12  1  1
 13 14  1  6
 14  7  1  0
 15 22  1  0
 15 13  1  0
 16 15  2  0
 17 18  1  0
 18 19  1  0
 19 21  1  0
 19 20  1  1
 21 22  1  6
 21 23  1  0
 23 24  1  0
 25 23  2  0
M  END
$$$$
