IPN.pdb
     RDKit          3D

 24 24  0  0  1  0  0  0  0  0999 V2000
    7.3795  -11.9348   27.1976 C   0  0  0  0  0  0  0  0  0  0  0  0
    6.5674  -12.9861   26.5024 C   0  0  0  0  0  0  0  0  0  0  0  0
    7.3951  -13.8624   25.5967 C   0  0  2  0  0  0  0  0  0  0  0  0
    8.1523  -12.9708   24.6332 C   0  0  0  0  0  0  0  0  0  0  0  0
    6.5828  -14.9062   24.8601 C   0  0  2  0  0  0  0  0  0  0  0  0
    5.9839  -15.7491   25.8403 N   0  0  0  0  0  0  0  0  0  0  0  0
    7.3009  -15.5740   23.7792 C   0  0  0  0  0  0  0  0  0  0  0  0
    7.6787  -16.7703   24.0273 O   0  0  0  0  0  0  0  0  0  0  0  0
    7.6148  -15.0294   22.4984 N   0  0  0  0  0  0  0  0  0  0  0  0
    7.6877  -13.6868   22.0110 C   0  0  0  0  0  0  0  0  0  0  0  0
    7.0041  -13.7626   20.6559 C   0  0  0  0  0  0  0  0  0  0  0  0
    7.4907  -15.1033   20.1414 C   0  0  0  0  0  0  0  0  0  0  0  0
    7.9493  -15.8719   21.3538 C   0  0  1  0  0  0  0  0  0  0  0  0
    9.4047  -16.1117   21.2197 C   0  0  0  0  0  0  0  0  0  0  0  0
    9.7592  -16.8667   20.2876 O   0  0  0  0  0  0  0  0  0  0  0  0
   11.9197  -13.0344   20.0317 N   0  0  0  0  0  0  0  0  0  0  0  0
   12.3663  -14.3693   20.2635 C   0  0  0  0  0  0  0  0  0  0  0  0
   12.4595  -15.1258   19.2641 O   0  0  0  0  0  0  0  0  0  0  0  0
   12.6915  -14.7857   21.6509 C   0  0  0  0  0  0  0  0  0  0  0  0
   11.7730  -15.8530   22.1387 C   0  0  2  0  0  0  0  0  0  0  0  0
   10.3746  -15.5494   22.0631 N   0  0  0  0  0  0  0  0  0  0  0  0
   12.1949  -16.3762   23.4576 C   0  0  0  0  0  0  0  0  0  0  0  0
   13.4133  -16.7287   23.5793 O   0  0  0  0  0  0  0  0  0  0  0  0
   11.3682  -16.5065   24.5383 O   0  0  0  0  0  0  0  0  0  0  0  0
  1  2  1  0
  2  3  1  0
  3  4  1  6
  3  5  1  0
  5  7  1  0
  5  6  1  1
  7  8  2  0
  7  9  1  0
  9 13  1  0
  9 10  1  0
 10 11  1  0
 12 11  1  0
 13 12  1  0
 13 14  1  6
 15 14  2  0
 16 17  1  0
 17 19  1  0
 17 18  2  0
 20 19  1  1
 20 22  1  0
 20 21  1  0
 21 14  1  0
 22 24  1  0
 23 22  2  0
M  END
$$$$
