IPN.pdb
     RDKit          3D

 24 24  0  0  1  0  0  0  0  0999 V2000
    6.3927  -11.4079   27.3030 C   0  0  0  0  0  0  0  0  0  0  0  0
    5.8123  -12.5602   26.5393 C   0  0  0  0  0  0  0  0  0  0  0  0
    6.8658  -13.4779   25.9728 C   0  0  2  0  0  0  0  0  0  0  0  0
    7.7445  -12.6734   25.0361 C   0  0  0  0  0  0  0  0  0  0  0  0
    6.2948  -14.6979   25.2817 C   0  0  2  0  0  0  0  0  0  0  0  0
    5.5240  -15.4107   26.2448 N   0  0  0  0  0  0  0  0  0  0  0  0
    7.2735  -15.4748   24.5277 C   0  0  0  0  0  0  0  0  0  0  0  0
    7.5931  -16.6019   25.0404 O   0  0  0  0  0  0  0  0  0  0  0  0
    7.8947  -15.1031   23.2982 N   0  0  0  0  0  0  0  0  0  0  0  0
    7.8945  -13.8876   22.5445 C   0  0  0  0  0  0  0  0  0  0  0  0
    7.7195  -14.3584   21.1102 C   0  0  0  0  0  0  0  0  0  0  0  0
    8.5692  -15.6140   21.0936 C   0  0  0  0  0  0  0  0  0  0  0  0
    8.7261  -16.0285   22.5339 C   0  0  1  0  0  0  0  0  0  0  0  0
   10.1627  -15.9359   22.8826 C   0  0  0  0  0  0  0  0  0  0  0  0
   10.5915  -14.7966   23.1702 O   0  0  0  0  0  0  0  0  0  0  0  0
   10.9648  -19.6423   25.2764 N   0  0  0  0  0  0  0  0  0  0  0  0
   11.8784  -18.5469   25.3008 C   0  0  0  0  0  0  0  0  0  0  0  0
   11.8837  -17.8259   26.3304 O   0  0  0  0  0  0  0  0  0  0  0  0
   12.7593  -18.3218   24.1273 C   0  0  0  0  0  0  0  0  0  0  0  0
   12.3872  -17.0845   23.3845 C   0  0  2  0  0  0  0  0  0  0  0  0
   11.0381  -17.0319   22.9046 N   0  0  0  0  0  0  0  0  0  0  0  0
   13.3953  -16.7403   22.3567 C   0  0  0  0  0  0  0  0  0  0  0  0
   13.0018  -16.7095   21.1452 O   0  0  0  0  0  0  0  0  0  0  0  0
   14.7065  -16.4603   22.6228 O   0  0  0  0  0  0  0  0  0  0  0  0
  1  2  1  0
  2  3  1  0
  3  4  1  6
  3  5  1  0
  5  7  1  0
  5  6  1  1
  7  8  2  0
  7  9  1  0
  9 13  1  0
  9 10  1  0
 10 11  1  0
 12 11  1  0
 13 12  1  0
 13 14  1  1
 15 14  2  0
 16 17  1  0
 17 19  1  0
 17 18  2  0
 20 19  1  6
 20 22  1  0
 20 21  1  0
 21 14  1  0
 22 24  1  0
 23 22  2  0
M  END
$$$$
