IPN.pdb
     RDKit          3D

 24 24  0  0  1  0  0  0  0  0999 V2000
    6.6424  -11.2464   27.1667 C   0  0  0  0  0  0  0  0  0  0  0  0
    5.9716  -12.4004   26.4839 C   0  0  0  0  0  0  0  0  0  0  0  0
    6.9518  -13.3867   25.9011 C   0  0  2  0  0  0  0  0  0  0  0  0
    7.8258  -12.6558   24.9018 C   0  0  0  0  0  0  0  0  0  0  0  0
    6.2905  -14.5960   25.2748 C   0  0  2  0  0  0  0  0  0  0  0  0
    5.5343  -15.2432   26.2941 N   0  0  0  0  0  0  0  0  0  0  0  0
    7.1934  -15.4406   24.4992 C   0  0  0  0  0  0  0  0  0  0  0  0
    7.5039  -16.5563   25.0416 O   0  0  0  0  0  0  0  0  0  0  0  0
    7.7509  -15.1451   23.2196 N   0  0  0  0  0  0  0  0  0  0  0  0
    7.7905  -13.9493   22.4359 C   0  0  0  0  0  0  0  0  0  0  0  0
    7.4762  -14.4345   21.0305 C   0  0  0  0  0  0  0  0  0  0  0  0
    8.2224  -15.7536   20.9872 C   0  0  0  0  0  0  0  0  0  0  0  0
    8.4505  -16.1492   22.4233 C   0  0  1  0  0  0  0  0  0  0  0  0
    9.9113  -16.1636   22.6673 C   0  0  0  0  0  0  0  0  0  0  0  0
   10.4666  -15.0481   22.7773 O   0  0  0  0  0  0  0  0  0  0  0  0
   10.6339  -20.1756   25.0338 N   0  0  0  0  0  0  0  0  0  0  0  0
   11.5047  -19.0459   25.0565 C   0  0  0  0  0  0  0  0  0  0  0  0
   11.4950  -18.3337   26.0922 O   0  0  0  0  0  0  0  0  0  0  0  0
   12.3613  -18.7771   23.8743 C   0  0  0  0  0  0  0  0  0  0  0  0
   12.0289  -17.4729   23.2343 C   0  0  2  0  0  0  0  0  0  0  0  0
   10.6781  -17.3332   22.7772 N   0  0  0  0  0  0  0  0  0  0  0  0
   13.0391  -17.0871   22.2234 C   0  0  0  0  0  0  0  0  0  0  0  0
   12.6407  -16.9750   21.0183 O   0  0  0  0  0  0  0  0  0  0  0  0
   14.3569  -16.8502   22.4984 O   0  0  0  0  0  0  0  0  0  0  0  0
  1  2  1  0
  2  3  1  0
  3  4  1  6
  3  5  1  0
  5  7  1  0
  5  6  1  1
  7  8  2  0
  7  9  1  0
  9 13  1  0
  9 10  1  0
 10 11  1  0
 12 11  1  0
 13 12  1  0
 13 14  1  1
 15 14  2  0
 16 17  1  0
 17 19  1  0
 17 18  2  0
 20 19  1  6
 20 22  1  0
 20 21  1  0
 21 14  1  0
 22 24  1  0
 23 22  2  0
M  END
$$$$
