IPN.pdb
     RDKit          3D

 24 24  0  0  1  0  0  0  0  0999 V2000
    6.4840  -11.7030   27.4586 C   0  0  0  0  0  0  0  0  0  0  0  0
    5.9490  -12.9331   26.7889 C   0  0  0  0  0  0  0  0  0  0  0  0
    6.9912  -13.6580   25.9756 C   0  0  2  0  0  0  0  0  0  0  0  0
    7.5037  -12.7131   24.9072 C   0  0  0  0  0  0  0  0  0  0  0  0
    6.4921  -14.9538   25.3725 C   0  0  2  0  0  0  0  0  0  0  0  0
    5.9803  -15.7495   26.4377 N   0  0  0  0  0  0  0  0  0  0  0  0
    7.4407  -15.6030   24.4733 C   0  0  0  0  0  0  0  0  0  0  0  0
    8.0572  -16.6120   24.9604 O   0  0  0  0  0  0  0  0  0  0  0  0
    7.7392  -15.2259   23.1301 N   0  0  0  0  0  0  0  0  0  0  0  0
    7.3397  -14.1111   22.3281 C   0  0  0  0  0  0  0  0  0  0  0  0
    7.0231  -14.7376   20.9803 C   0  0  0  0  0  0  0  0  0  0  0  0
    8.1112  -15.7873   20.8667 C   0  0  0  0  0  0  0  0  0  0  0  0
    8.6059  -16.0264   22.2699 C   0  0  1  0  0  0  0  0  0  0  0  0
   10.0254  -15.6082   22.3320 C   0  0  0  0  0  0  0  0  0  0  0  0
   10.2551  -14.5023   22.8696 O   0  0  0  0  0  0  0  0  0  0  0  0
   14.4607  -17.7298   24.9531 N   0  0  0  0  0  0  0  0  0  0  0  0
   13.9817  -16.5896   24.2420 C   0  0  0  0  0  0  0  0  0  0  0  0
   14.8037  -15.6658   24.0169 O   0  0  0  0  0  0  0  0  0  0  0  0
   12.5608  -16.5568   23.8135 C   0  0  0  0  0  0  0  0  0  0  0  0
   12.4311  -16.4641   22.3317 C   0  0  2  0  0  0  0  0  0  0  0  0
   11.0917  -16.3702   21.8314 N   0  0  0  0  0  0  0  0  0  0  0  0
   13.2486  -17.4905   21.6464 C   0  0  0  0  0  0  0  0  0  0  0  0
   14.3623  -17.1129   21.1558 O   0  0  0  0  0  0  0  0  0  0  0  0
   12.8859  -18.8008   21.5060 O   0  0  0  0  0  0  0  0  0  0  0  0
  1  2  1  0
  2  3  1  0
  3  4  1  6
  3  5  1  0
  5  7  1  0
  5  6  1  1
  7  8  2  0
  7  9  1  0
  9 13  1  0
  9 10  1  0
 10 11  1  0
 12 11  1  0
 13 12  1  0
 13 14  1  6
 15 14  2  0
 16 17  1  0
 17 19  1  0
 17 18  2  0
 20 19  1  1
 20 22  1  0
 20 21  1  0
 21 14  1  0
 22 24  1  0
 23 22  2  0
M  END
$$$$
