IPN.pdb
     RDKit          3D

 24 24  0  0  1  0  0  0  0  0999 V2000
    6.9442  -11.9908   27.7307 C   0  0  0  0  0  0  0  0  0  0  0  0
    6.2396  -13.0515   26.9393 C   0  0  0  0  0  0  0  0  0  0  0  0
    7.1770  -13.8614   26.0799 C   0  0  2  0  0  0  0  0  0  0  0  0
    7.8843  -12.9185   25.1273 C   0  0  0  0  0  0  0  0  0  0  0  0
    6.4916  -14.9869   25.3346 C   0  0  2  0  0  0  0  0  0  0  0  0
    5.8965  -15.8410   26.3073 N   0  0  0  0  0  0  0  0  0  0  0  0
    7.3231  -15.6324   24.3237 C   0  0  0  0  0  0  0  0  0  0  0  0
    7.8210  -16.7611   24.6608 O   0  0  0  0  0  0  0  0  0  0  0  0
    7.6269  -15.1334   23.0221 N   0  0  0  0  0  0  0  0  0  0  0  0
    7.2875  -13.9173   22.3502 C   0  0  0  0  0  0  0  0  0  0  0  0
    6.9146  -14.3764   20.9503 C   0  0  0  0  0  0  0  0  0  0  0  0
    7.9334  -15.4723   20.7053 C   0  0  0  0  0  0  0  0  0  0  0  0
    8.4305  -15.8890   22.0655 C   0  0  1  0  0  0  0  0  0  0  0  0
    9.8741  -15.5668   22.1433 C   0  0  0  0  0  0  0  0  0  0  0  0
   10.1651  -14.4115   22.5244 O   0  0  0  0  0  0  0  0  0  0  0  0
   12.7694  -18.8136   25.6547 N   0  0  0  0  0  0  0  0  0  0  0  0
   12.7984  -17.6290   24.8603 C   0  0  0  0  0  0  0  0  0  0  0  0
   13.8478  -16.9382   24.8969 O   0  0  0  0  0  0  0  0  0  0  0  0
   11.6062  -17.2821   24.0465 C   0  0  0  0  0  0  0  0  0  0  0  0
   11.9750  -16.9279   22.6467 C   0  0  2  0  0  0  0  0  0  0  0  0
   10.8990  -16.4684   21.8196 N   0  0  0  0  0  0  0  0  0  0  0  0
   12.7985  -17.9835   22.0149 C   0  0  0  0  0  0  0  0  0  0  0  0
   14.0282  -17.7174   21.8134 O   0  0  0  0  0  0  0  0  0  0  0  0
   12.3268  -19.2090   21.6358 O   0  0  0  0  0  0  0  0  0  0  0  0
  1  2  1  0
  2  3  1  0
  3  4  1  6
  3  5  1  0
  5  7  1  0
  5  6  1  1
  7  8  2  0
  7  9  1  0
  9 13  1  0
  9 10  1  0
 10 11  1  0
 12 11  1  0
 13 12  1  0
 13 14  1  6
 15 14  2  0
 16 17  1  0
 17 19  1  0
 17 18  2  0
 20 19  1  1
 20 22  1  0
 20 21  1  0
 21 14  1  0
 22 24  1  0
 23 22  2  0
M  END
$$$$
