IPN.pdb
     RDKit          3D

 24 24  0  0  1  0  0  0  0  0999 V2000
    6.9676  -11.6251   27.6468 C   0  0  0  0  0  0  0  0  0  0  0  0
    6.2397  -12.7418   26.9606 C   0  0  0  0  0  0  0  0  0  0  0  0
    7.1446  -13.5949   26.1083 C   0  0  2  0  0  0  0  0  0  0  0  0
    7.8328  -12.6981   25.0989 C   0  0  0  0  0  0  0  0  0  0  0  0
    6.4280  -14.7423   25.4286 C   0  0  2  0  0  0  0  0  0  0  0  0
    5.8022  -15.5166   26.4477 N   0  0  0  0  0  0  0  0  0  0  0  0
    7.2436  -15.4736   24.4644 C   0  0  0  0  0  0  0  0  0  0  0  0
    7.7022  -16.5958   24.8717 O   0  0  0  0  0  0  0  0  0  0  0  0
    7.5712  -15.0633   23.1378 N   0  0  0  0  0  0  0  0  0  0  0  0
    7.3279  -13.8548   22.4125 C   0  0  0  0  0  0  0  0  0  0  0  0
    6.8979  -14.3443   21.0396 C   0  0  0  0  0  0  0  0  0  0  0  0
    7.8156  -15.5340   20.8367 C   0  0  0  0  0  0  0  0  0  0  0  0
    8.2939  -15.9287   22.2101 C   0  0  1  0  0  0  0  0  0  0  0  0
    9.7607  -15.7289   22.2587 C   0  0  0  0  0  0  0  0  0  0  0  0
   10.1572  -14.6415   22.7329 O   0  0  0  0  0  0  0  0  0  0  0  0
   13.1286  -17.9996   25.5523 N   0  0  0  0  0  0  0  0  0  0  0  0
   12.4293  -18.6653   24.5021 C   0  0  0  0  0  0  0  0  0  0  0  0
   12.8119  -19.8242   24.2013 O   0  0  0  0  0  0  0  0  0  0  0  0
   11.3053  -17.9641   23.8322 C   0  0  0  0  0  0  0  0  0  0  0  0
   11.7343  -17.3212   22.5579 C   0  0  2  0  0  0  0  0  0  0  0  0
   10.6975  -16.6725   21.8113 N   0  0  0  0  0  0  0  0  0  0  0  0
   12.5716  -18.2296   21.7425 C   0  0  0  0  0  0  0  0  0  0  0  0
   13.8102  -17.9467   21.6455 O   0  0  0  0  0  0  0  0  0  0  0  0
   12.1038  -19.3372   21.0923 O   0  0  0  0  0  0  0  0  0  0  0  0
  1  2  1  0
  2  3  1  0
  3  4  1  6
  3  5  1  0
  5  7  1  0
  5  6  1  1
  7  8  2  0
  7  9  1  0
  9 13  1  0
  9 10  1  0
 10 11  1  0
 12 11  1  0
 13 12  1  0
 13 14  1  6
 15 14  2  0
 16 17  1  0
 17 19  1  0
 17 18  2  0
 20 19  1  1
 20 22  1  0
 20 21  1  0
 21 14  1  0
 22 24  1  0
 23 22  2  0
M  END
$$$$
