FAE.pdb
     RDKit          3D

 26 26  0  0  1  0  0  0  0  0999 V2000
    5.1163  -16.7356   24.0658 N   0  0  0  0  0  0  0  0  0  0  0  0
    6.4034  -16.5182   24.6576 C   0  0  1  0  0  0  0  0  0  0  0  0
    6.2509  -15.7741   25.9792 C   0  0  0  0  0  0  0  0  0  0  0  0
    7.4846  -15.1335   26.4346 C   0  0  0  0  0  0  0  0  0  0  0  0
    8.0432  -14.0988   25.7158 C   0  0  0  0  0  0  0  0  0  0  0  0
    9.2067  -13.4855   26.1380 C   0  0  0  0  0  0  0  0  0  0  0  0
    9.8516  -13.8901   27.2982 C   0  0  0  0  0  0  0  0  0  0  0  0
    9.2888  -14.9235   28.0107 C   0  0  0  0  0  0  0  0  0  0  0  0
    8.1187  -15.5445   27.5921 C   0  0  0  0  0  0  0  0  0  0  0  0
    7.0734  -17.8099   25.0160 C   0  0  0  0  0  0  0  0  0  0  0  0
    6.7242  -18.4574   26.0306 O   0  0  0  0  0  0  0  0  0  0  0  0
    9.2561  -20.3756   23.4196 C   0  0  0  0  0  0  0  0  0  0  0  0
    8.7949  -19.5572   24.6100 C   0  0  2  0  0  0  0  0  0  0  0  0
    8.1241  -18.3568   24.2323 N   0  0  0  0  0  0  0  0  0  0  0  0
    9.9623  -19.2641   25.4946 C   0  0  0  0  0  0  0  0  0  0  0  0
   10.5574  -20.2066   26.0937 O   0  0  0  0  0  0  0  0  0  0  0  0
   10.4420  -17.9490   25.6978 N   0  0  0  0  0  0  0  0  0  0  0  0
   11.7248  -17.7587   26.4481 C   0  0  1  0  0  0  0  0  0  0  0  0
   12.3589  -16.5811   25.7705 C   0  0  0  0  0  0  0  0  0  0  0  0
   13.6221  -16.0361   26.2857 C   0  0  0  0  0  0  0  0  0  0  0  0
   14.3876  -15.0985   25.4835 C   0  0  0  0  0  0  0  0  0  0  0  0
   14.3428  -13.8325   25.6370 O   0  0  0  0  0  0  0  0  0  0  0  0
   11.4057  -17.5101   27.8527 C   0  0  0  0  0  0  0  0  0  0  0  0
   12.4079  -17.7604   28.8112 O   0  0  0  0  0  0  0  0  0  0  0  0
   15.2288  -15.6002   24.4827 O   0  0  0  0  0  0  0  0  0  0  0  0
   10.3294  -17.0949   28.2930 O   0  0  0  0  0  0  0  0  0  0  0  0
  2  1  1  1
  3  2  1  0
  3  4  1  0
  4  9  2  0
  5  4  1  0
  5  6  2  0
  6  7  1  0
  7  8  2  0
  9  8  1  0
 10  2  1  0
 10 11  2  0
 13 12  1  6
 13 14  1  0
 13 15  1  0
 14 10  1  0
 15 17  1  0
 16 15  2  0
 17 18  1  0
 18 19  1  6
 19 20  1  0
 20 21  1  0
 21 22  2  0
 21 25  1  0
 23 24  1  0
 23 18  1  0
 26 23  2  0
M  END
$$$$
