FAE.pdb
     RDKit          3D

 26 26  0  0  1  0  0  0  0  0999 V2000
    6.2441  -16.5722   25.1978 N   0  0  0  0  0  0  0  0  0  0  0  0
    7.3973  -15.9854   24.5814 C   0  0  1  0  0  0  0  0  0  0  0  0
    8.1316  -15.1019   25.5833 C   0  0  0  0  0  0  0  0  0  0  0  0
    7.4586  -13.8293   25.8429 C   0  0  0  0  0  0  0  0  0  0  0  0
    6.8101  -13.6111   27.0392 C   0  0  0  0  0  0  0  0  0  0  0  0
    6.1734  -12.4123   27.2955 C   0  0  0  0  0  0  0  0  0  0  0  0
    6.1648  -11.3890   26.3582 C   0  0  0  0  0  0  0  0  0  0  0  0
    6.8137  -11.6136   25.1663 C   0  0  0  0  0  0  0  0  0  0  0  0
    7.4565  -12.8165   24.9021 C   0  0  0  0  0  0  0  0  0  0  0  0
    8.3979  -17.0249   24.1763 C   0  0  0  0  0  0  0  0  0  0  0  0
    8.5327  -18.0817   24.8363 O   0  0  0  0  0  0  0  0  0  0  0  0
   10.7122  -17.6580   21.2497 C   0  0  0  0  0  0  0  0  0  0  0  0
   10.1753  -17.8629   22.6530 C   0  0  2  0  0  0  0  0  0  0  0  0
    9.2320  -16.8650   23.0379 N   0  0  0  0  0  0  0  0  0  0  0  0
   11.3143  -17.9249   23.6175 C   0  0  0  0  0  0  0  0  0  0  0  0
   11.9294  -16.8678   23.9424 O   0  0  0  0  0  0  0  0  0  0  0  0
   11.7464  -19.1414   24.1956 N   0  0  0  0  0  0  0  0  0  0  0  0
   12.9669  -19.1317   25.0646 C   0  0  1  0  0  0  0  0  0  0  0  0
   12.4964  -19.7616   26.3413 C   0  0  0  0  0  0  0  0  0  0  0  0
   11.6344  -19.0007   27.2558 C   0  0  0  0  0  0  0  0  0  0  0  0
   11.1973  -19.5981   28.5050 C   0  0  0  0  0  0  0  0  0  0  0  0
   11.4858  -20.7891   28.8606 O   0  0  0  0  0  0  0  0  0  0  0  0
   14.0153  -19.9007   24.3969 C   0  0  0  0  0  0  0  0  0  0  0  0
   15.3535  -19.6383   24.7518 O   0  0  0  0  0  0  0  0  0  0  0  0
   10.4160  -18.8324   29.3794 O   0  0  0  0  0  0  0  0  0  0  0  0
   13.8454  -20.7728   23.5393 O   0  0  0  0  0  0  0  0  0  0  0  0
  2  1  1  1
  3  2  1  0
  3  4  1  0
  4  9  2  0
  5  4  1  0
  5  6  2  0
  6  7  1  0
  7  8  2  0
  9  8  1  0
 10  2  1  0
 10 11  2  0
 13 12  1  6
 13 14  1  0
 13 15  1  0
 14 10  1  0
 15 17  1  0
 16 15  2  0
 17 18  1  0
 18 19  1  1
 19 20  1  0
 20 21  1  0
 21 22  2  0
 21 25  1  0
 23 24  1  0
 23 18  1  0
 26 23  2  0
M  END
$$$$
