FAE.pdb
     RDKit          3D

 26 26  0  0  1  0  0  0  0  0999 V2000
    6.1306  -16.3058   25.5000 N   0  0  0  0  0  0  0  0  0  0  0  0
    6.8118  -15.5810   24.4680 C   0  0  1  0  0  0  0  0  0  0  0  0
    7.8616  -14.6620   25.0819 C   0  0  0  0  0  0  0  0  0  0  0  0
    7.2916  -13.5472   25.8381 C   0  0  0  0  0  0  0  0  0  0  0  0
    6.2475  -12.8111   25.3210 C   0  0  0  0  0  0  0  0  0  0  0  0
    5.7005  -11.7578   26.0277 C   0  0  0  0  0  0  0  0  0  0  0  0
    6.1833  -11.4055   27.2801 C   0  0  0  0  0  0  0  0  0  0  0  0
    7.2257  -12.1441   27.7901 C   0  0  0  0  0  0  0  0  0  0  0  0
    7.7802  -13.2049   27.0851 C   0  0  0  0  0  0  0  0  0  0  0  0
    7.5800  -16.4961   23.5634 C   0  0  0  0  0  0  0  0  0  0  0  0
    7.6301  -17.7286   23.7848 O   0  0  0  0  0  0  0  0  0  0  0  0
    9.3579  -16.2569   20.2340 C   0  0  0  0  0  0  0  0  0  0  0  0
    9.0010  -16.8949   21.5626 C   0  0  2  0  0  0  0  0  0  0  0  0
    8.2801  -16.0166   22.4245 N   0  0  0  0  0  0  0  0  0  0  0  0
   10.2432  -17.3956   22.2239 C   0  0  0  0  0  0  0  0  0  0  0  0
   10.9279  -18.3101   21.6795 O   0  0  0  0  0  0  0  0  0  0  0  0
   10.6977  -16.8817   23.4609 N   0  0  0  0  0  0  0  0  0  0  0  0
   11.9204  -17.4825   24.0842 C   0  0  1  0  0  0  0  0  0  0  0  0
   12.8998  -16.3475   24.1059 C   0  0  0  0  0  0  0  0  0  0  0  0
   14.1019  -16.4050   23.2632 C   0  0  0  0  0  0  0  0  0  0  0  0
   14.6528  -15.1842   22.7022 C   0  0  0  0  0  0  0  0  0  0  0  0
   15.1941  -14.2639   23.4011 O   0  0  0  0  0  0  0  0  0  0  0  0
   11.5694  -17.9639   25.4190 C   0  0  0  0  0  0  0  0  0  0  0  0
   10.2440  -17.7777   25.8599 O   0  0  0  0  0  0  0  0  0  0  0  0
   14.5952  -14.9955   21.3158 O   0  0  0  0  0  0  0  0  0  0  0  0
   12.3282  -18.5277   26.2133 O   0  0  0  0  0  0  0  0  0  0  0  0
  2  1  1  1
  3  2  1  0
  3  4  1  0
  4  9  2  0
  5  4  1  0
  5  6  2  0
  6  7  1  0
  7  8  2  0
  9  8  1  0
 10  2  1  0
 10 11  2  0
 13 12  1  6
 13 14  1  0
 13 15  1  0
 14 10  1  0
 15 17  1  0
 16 15  2  0
 17 18  1  0
 18 19  1  1
 19 20  1  0
 20 21  1  0
 21 22  2  0
 21 25  1  0
 23 24  1  0
 23 18  1  0
 26 23  2  0
M  END
$$$$
