FAE.pdb
     RDKit          3D

 26 26  0  0  1  0  0  0  0  0999 V2000
    7.4527  -16.0186   24.6706 N   0  0  0  0  0  0  0  0  0  0  0  0
    6.7841  -15.1434   23.7535 C   0  0  1  0  0  0  0  0  0  0  0  0
    7.2668  -13.7113   23.9531 C   0  0  0  0  0  0  0  0  0  0  0  0
    7.1884  -13.2566   25.3411 C   0  0  0  0  0  0  0  0  0  0  0  0
    6.0746  -12.5844   25.7962 C   0  0  0  0  0  0  0  0  0  0  0  0
    5.9894  -12.1525   27.1055 C   0  0  0  0  0  0  0  0  0  0  0  0
    7.0209  -12.3801   28.0054 C   0  0  0  0  0  0  0  0  0  0  0  0
    8.1297  -13.0513   27.5445 C   0  0  0  0  0  0  0  0  0  0  0  0
    8.2219  -13.4888   26.2292 C   0  0  0  0  0  0  0  0  0  0  0  0
    7.1210  -15.4704   22.3304 C   0  0  0  0  0  0  0  0  0  0  0  0
    6.7421  -14.7312   21.3920 O   0  0  0  0  0  0  0  0  0  0  0  0
    8.6777  -15.4125   20.0006 C   0  0  0  0  0  0  0  0  0  0  0  0
    8.8559  -16.5871   20.9430 C   0  0  2  0  0  0  0  0  0  0  0  0
    7.8776  -16.6203   21.9801 N   0  0  0  0  0  0  0  0  0  0  0  0
   10.2379  -16.5653   21.5094 C   0  0  0  0  0  0  0  0  0  0  0  0
   11.2384  -16.4794   20.7394 O   0  0  0  0  0  0  0  0  0  0  0  0
   10.4831  -16.6397   22.9005 N   0  0  0  0  0  0  0  0  0  0  0  0
   11.8976  -16.7739   23.3758 C   0  0  1  0  0  0  0  0  0  0  0  0
   11.7546  -17.3545   24.7508 C   0  0  0  0  0  0  0  0  0  0  0  0
   12.9347  -17.8899   25.4429 C   0  0  0  0  0  0  0  0  0  0  0  0
   12.7850  -18.5423   26.7316 C   0  0  0  0  0  0  0  0  0  0  0  0
   11.9290  -18.1896   27.6097 O   0  0  0  0  0  0  0  0  0  0  0  0
   12.6135  -17.6526   22.4528 C   0  0  0  0  0  0  0  0  0  0  0  0
   11.9477  -18.8043   21.9880 O   0  0  0  0  0  0  0  0  0  0  0  0
   13.6203  -19.6234   27.0389 O   0  0  0  0  0  0  0  0  0  0  0  0
   13.7617  -17.4856   22.0304 O   0  0  0  0  0  0  0  0  0  0  0  0
  2  1  1  1
  3  2  1  0
  3  4  1  0
  4  9  2  0
  5  4  1  0
  5  6  2  0
  6  7  1  0
  7  8  2  0
  9  8  1  0
 10  2  1  0
 10 11  2  0
 13 12  1  1
 13 14  1  0
 13 15  1  0
 14 10  1  0
 15 17  1  0
 16 15  2  0
 17 18  1  0
 18 19  1  1
 19 20  1  0
 20 21  1  0
 21 22  2  0
 21 25  1  0
 23 24  1  0
 23 18  1  0
 26 23  2  0
M  END
$$$$
