FAE.pdb
     RDKit          3D

 26 26  0  0  1  0  0  0  0  0999 V2000
    8.8510  -14.6688   24.5095 N   0  0  0  0  0  0  0  0  0  0  0  0
    7.7832  -15.5016   24.0401 C   0  0  1  0  0  0  0  0  0  0  0  0
    6.4835  -15.1302   24.7446 C   0  0  0  0  0  0  0  0  0  0  0  0
    6.6126  -13.9816   25.6410 C   0  0  0  0  0  0  0  0  0  0  0  0
    7.0811  -12.7743   25.1695 C   0  0  0  0  0  0  0  0  0  0  0  0
    7.2048  -11.6826   26.0069 C   0  0  0  0  0  0  0  0  0  0  0  0
    6.8626  -11.7648   27.3492 C   0  0  0  0  0  0  0  0  0  0  0  0
    6.3960  -12.9727   27.8132 C   0  0  0  0  0  0  0  0  0  0  0  0
    6.2686  -14.0744   26.9766 C   0  0  0  0  0  0  0  0  0  0  0  0
    7.5097  -15.2826   22.5831 C   0  0  0  0  0  0  0  0  0  0  0  0
    6.7124  -16.0209   21.9588 O   0  0  0  0  0  0  0  0  0  0  0  0
    8.0683  -12.7247   19.9194 C   0  0  0  0  0  0  0  0  0  0  0  0
    8.0218  -14.1524   20.4286 C   0  0  2  0  0  0  0  0  0  0  0  0
    8.1332  -14.2397   21.8476 N   0  0  0  0  0  0  0  0  0  0  0  0
    9.0869  -14.9554   19.7563 C   0  0  0  0  0  0  0  0  0  0  0  0
    9.0807  -15.0913   18.4981 O   0  0  0  0  0  0  0  0  0  0  0  0
   10.1252  -15.5862   20.4808 N   0  0  0  0  0  0  0  0  0  0  0  0
   11.0916  -16.4595   19.7405 C   0  0  1  0  0  0  0  0  0  0  0  0
   12.3997  -15.7413   19.8863 C   0  0  0  0  0  0  0  0  0  0  0  0
   13.0170  -15.1051   18.7147 C   0  0  0  0  0  0  0  0  0  0  0  0
   14.2712  -14.3872   18.8568 C   0  0  0  0  0  0  0  0  0  0  0  0
   14.4649  -13.2045   18.4185 O   0  0  0  0  0  0  0  0  0  0  0  0
   11.0898  -17.7818   20.3635 C   0  0  0  0  0  0  0  0  0  0  0  0
   11.8812  -18.7889   19.7760 O   0  0  0  0  0  0  0  0  0  0  0  0
   15.3360  -15.0172   19.5129 O   0  0  0  0  0  0  0  0  0  0  0  0
   10.4554  -18.1123   21.3700 O   0  0  0  0  0  0  0  0  0  0  0  0
  2  1  1  1
  3  2  1  0
  3  4  1  0
  4  9  2  0
  5  4  1  0
  5  6  2  0
  6  7  1  0
  7  8  2  0
  9  8  1  0
 10  2  1  0
 10 11  2  0
 13 12  1  1
 13 14  1  0
 13 15  1  0
 14 10  1  0
 15 17  1  0
 16 15  2  0
 17 18  1  0
 18 19  1  1
 19 20  1  0
 20 21  1  0
 21 22  2  0
 21 25  1  0
 23 24  1  0
 23 18  1  0
 26 23  2  0
M  END
$$$$
