FAE.pdb
     RDKit          3D

 26 26  0  0  1  0  0  0  0  0999 V2000
    8.9570  -15.5736   25.7336 N   0  0  0  0  0  0  0  0  0  0  0  0
    7.6375  -16.0952   25.5310 C   0  0  1  0  0  0  0  0  0  0  0  0
    6.6443  -15.3641   26.4269 C   0  0  0  0  0  0  0  0  0  0  0  0
    6.8866  -13.9242   26.5142 C   0  0  0  0  0  0  0  0  0  0  0  0
    5.8498  -13.0289   26.3633 C   0  0  0  0  0  0  0  0  0  0  0  0
    6.0673  -11.6673   26.4461 C   0  0  0  0  0  0  0  0  0  0  0  0
    7.3352  -11.1557   26.6833 C   0  0  0  0  0  0  0  0  0  0  0  0
    8.3655  -12.0548   26.8328 C   0  0  0  0  0  0  0  0  0  0  0  0
    8.1539  -13.4253   26.7511 C   0  0  0  0  0  0  0  0  0  0  0  0
    7.1530  -15.8487   24.1345 C   0  0  0  0  0  0  0  0  0  0  0  0
    6.0845  -16.3586   23.7234 O   0  0  0  0  0  0  0  0  0  0  0  0
    7.9808  -14.0603   20.9711 C   0  0  0  0  0  0  0  0  0  0  0  0
    7.8900  -15.3128   21.8212 C   0  0  2  0  0  0  0  0  0  0  0  0
    7.8726  -15.0346   23.2198 N   0  0  0  0  0  0  0  0  0  0  0  0
    9.0126  -16.2340   21.4714 C   0  0  0  0  0  0  0  0  0  0  0  0
    9.2054  -16.5711   20.2669 O   0  0  0  0  0  0  0  0  0  0  0  0
    9.8887  -16.7595   22.4497 N   0  0  0  0  0  0  0  0  0  0  0  0
   10.9876  -17.6791   22.0122 C   0  0  1  0  0  0  0  0  0  0  0  0
   12.0210  -16.7510   21.4476 C   0  0  0  0  0  0  0  0  0  0  0  0
   12.9669  -16.0781   22.3480 C   0  0  0  0  0  0  0  0  0  0  0  0
   14.0774  -15.3212   21.7980 C   0  0  0  0  0  0  0  0  0  0  0  0
   14.4160  -15.3513   20.5681 O   0  0  0  0  0  0  0  0  0  0  0  0
   11.4593  -18.4227   23.1789 C   0  0  0  0  0  0  0  0  0  0  0  0
   12.3969  -19.4536   22.9692 O   0  0  0  0  0  0  0  0  0  0  0  0
   14.8257  -14.5056   22.6560 O   0  0  0  0  0  0  0  0  0  0  0  0
   11.1152  -18.2361   24.3500 O   0  0  0  0  0  0  0  0  0  0  0  0
  2  1  1  6
  3  2  1  0
  3  4  1  0
  4  9  2  0
  5  4  1  0
  5  6  2  0
  6  7  1  0
  7  8  2  0
  9  8  1  0
 10  2  1  0
 10 11  2  0
 13 12  1  6
 13 14  1  0
 13 15  1  0
 14 10  1  0
 15 17  1  0
 16 15  2  0
 17 18  1  0
 18 19  1  1
 19 20  1  0
 20 21  1  0
 21 22  2  0
 21 25  1  0
 23 24  1  0
 23 18  1  0
 26 23  2  0
M  END
$$$$
