FAE.pdb
     RDKit          3D

 26 26  0  0  1  0  0  0  0  0999 V2000
    5.2948  -16.5788   21.9061 N   0  0  0  0  0  0  0  0  0  0  0  0
    6.6047  -16.3401   22.4366 C   0  0  1  0  0  0  0  0  0  0  0  0
    6.8326  -14.8429   22.6095 C   0  0  0  0  0  0  0  0  0  0  0  0
    7.3036  -14.1795   21.3939 C   0  0  0  0  0  0  0  0  0  0  0  0
    6.4312  -13.4616   20.6047 C   0  0  0  0  0  0  0  0  0  0  0  0
    6.8659  -12.8295   19.4559 C   0  0  0  0  0  0  0  0  0  0  0  0
    8.1937  -12.8963   19.0581 C   0  0  0  0  0  0  0  0  0  0  0  0
    9.0590  -13.6147   19.8502 C   0  0  0  0  0  0  0  0  0  0  0  0
    8.6287  -14.2524   21.0070 C   0  0  0  0  0  0  0  0  0  0  0  0
    6.7588  -16.9162   23.8114 C   0  0  0  0  0  0  0  0  0  0  0  0
    5.9856  -16.5838   24.7400 O   0  0  0  0  0  0  0  0  0  0  0  0
    7.6623  -19.5591   25.8869 C   0  0  0  0  0  0  0  0  0  0  0  0
    8.1155  -18.1723   25.4737 C   0  0  2  0  0  0  0  0  0  0  0  0
    7.7763  -17.8561   24.1251 N   0  0  0  0  0  0  0  0  0  0  0  0
    9.5857  -18.0405   25.7023 C   0  0  0  0  0  0  0  0  0  0  0  0
   10.0675  -18.2231   26.8582 O   0  0  0  0  0  0  0  0  0  0  0  0
   10.4836  -17.7116   24.6600 N   0  0  0  0  0  0  0  0  0  0  0  0
   11.9293  -17.5037   24.9943 C   0  0  1  0  0  0  0  0  0  0  0  0
   12.6282  -18.5858   24.2270 C   0  0  0  0  0  0  0  0  0  0  0  0
   12.1005  -19.9566   24.2539 C   0  0  0  0  0  0  0  0  0  0  0  0
   12.7908  -21.0131   23.5357 C   0  0  0  0  0  0  0  0  0  0  0  0
   13.8710  -20.8360   22.8799 O   0  0  0  0  0  0  0  0  0  0  0  0
   12.3127  -16.1588   24.5695 C   0  0  0  0  0  0  0  0  0  0  0  0
   13.6024  -15.7027   24.9076 O   0  0  0  0  0  0  0  0  0  0  0  0
   12.2516  -22.3053   23.5588 O   0  0  0  0  0  0  0  0  0  0  0  0
   11.6103  -15.3677   23.9325 O   0  0  0  0  0  0  0  0  0  0  0  0
  2  1  1  1
  3  2  1  0
  3  4  1  0
  4  9  2  0
  5  4  1  0
  5  6  2  0
  6  7  1  0
  7  8  2  0
  9  8  1  0
 10  2  1  0
 10 11  2  0
 13 12  1  6
 13 14  1  0
 13 15  1  0
 14 10  1  0
 15 17  1  0
 16 15  2  0
 17 18  1  0
 18 19  1  6
 19 20  1  0
 20 21  1  0
 21 22  2  0
 21 25  1  0
 23 24  1  0
 23 18  1  0
 26 23  2  0
M  END
$$$$
