FAE.pdb
     RDKit          3D

 26 26  0  0  1  0  0  0  0  0999 V2000
    6.1143  -17.1934   25.8419 N   0  0  0  0  0  0  0  0  0  0  0  0
    6.5499  -15.9765   25.2225 C   0  0  1  0  0  0  0  0  0  0  0  0
    7.3950  -15.1673   26.1995 C   0  0  0  0  0  0  0  0  0  0  0  0
    6.8809  -13.8190   26.4389 C   0  0  0  0  0  0  0  0  0  0  0  0
    5.5981  -13.4818   26.0648 C   0  0  0  0  0  0  0  0  0  0  0  0
    5.1019  -12.2122   26.2881 C   0  0  0  0  0  0  0  0  0  0  0  0
    5.8774  -11.2346   26.8953 C   0  0  0  0  0  0  0  0  0  0  0  0
    7.1569  -11.5778   27.2659 C   0  0  0  0  0  0  0  0  0  0  0  0
    7.6621  -12.8528   27.0448 C   0  0  0  0  0  0  0  0  0  0  0  0
    7.4534  -16.2412   24.0566 C   0  0  0  0  0  0  0  0  0  0  0  0
    8.2650  -17.1959   24.0737 O   0  0  0  0  0  0  0  0  0  0  0  0
    8.2682  -14.5461   20.7594 C   0  0  0  0  0  0  0  0  0  0  0  0
    8.3986  -15.5907   21.8509 C   0  0  2  0  0  0  0  0  0  0  0  0
    7.4338  -15.4325   22.8891 N   0  0  0  0  0  0  0  0  0  0  0  0
    9.7873  -15.5654   22.4005 C   0  0  0  0  0  0  0  0  0  0  0  0
   10.2070  -14.5440   23.0186 O   0  0  0  0  0  0  0  0  0  0  0  0
   10.6747  -16.6573   22.2559 N   0  0  0  0  0  0  0  0  0  0  0  0
   12.0864  -16.5057   22.7345 C   0  0  1  0  0  0  0  0  0  0  0  0
   12.3017  -17.7186   23.5892 C   0  0  0  0  0  0  0  0  0  0  0  0
   11.5979  -17.8405   24.8730 C   0  0  0  0  0  0  0  0  0  0  0  0
   11.8017  -19.0149   25.7025 C   0  0  0  0  0  0  0  0  0  0  0  0
   11.6934  -20.2123   25.2751 O   0  0  0  0  0  0  0  0  0  0  0  0
   12.9669  -16.4609   21.5686 C   0  0  0  0  0  0  0  0  0  0  0  0
   12.4470  -16.8930   20.3322 O   0  0  0  0  0  0  0  0  0  0  0  0
   12.1394  -18.8361   27.0497 O   0  0  0  0  0  0  0  0  0  0  0  0
   14.1399  -16.0753   21.5558 O   0  0  0  0  0  0  0  0  0  0  0  0
  2  1  1  1
  3  2  1  0
  3  4  1  0
  4  9  2  0
  5  4  1  0
  5  6  2  0
  6  7  1  0
  7  8  2  0
  9  8  1  0
 10  2  1  0
 10 11  2  0
 13 12  1  6
 13 14  1  0
 13 15  1  0
 14 10  1  0
 15 17  1  0
 16 15  2  0
 17 18  1  0
 18 19  1  1
 19 20  1  0
 20 21  1  0
 21 22  2  0
 21 25  1  0
 23 24  1  0
 23 18  1  0
 26 23  2  0
M  END
$$$$
