FAE.pdb
     RDKit          3D

 26 26  0  0  1  0  0  0  0  0999 V2000
    6.0874  -16.3181   25.7140 N   0  0  0  0  0  0  0  0  0  0  0  0
    6.6165  -15.7684   24.5007 C   0  0  1  0  0  0  0  0  0  0  0  0
    7.7004  -14.7455   24.8206 C   0  0  0  0  0  0  0  0  0  0  0  0
    7.2213  -13.6167   25.6179 C   0  0  0  0  0  0  0  0  0  0  0  0
    8.1130  -12.7704   26.2407 C   0  0  0  0  0  0  0  0  0  0  0  0
    7.6713  -11.7002   26.9942 C   0  0  0  0  0  0  0  0  0  0  0  0
    6.3167  -11.4417   27.1496 C   0  0  0  0  0  0  0  0  0  0  0  0
    5.4322  -12.2905   26.5255 C   0  0  0  0  0  0  0  0  0  0  0  0
    5.8695  -13.3683   25.7660 C   0  0  0  0  0  0  0  0  0  0  0  0
    7.3021  -16.8124   23.6727 C   0  0  0  0  0  0  0  0  0  0  0  0
    6.6428  -17.6098   22.9655 O   0  0  0  0  0  0  0  0  0  0  0  0
    9.1040  -16.9840   21.2271 C   0  0  0  0  0  0  0  0  0  0  0  0
    9.3885  -17.6084   22.5794 C   0  0  2  0  0  0  0  0  0  0  0  0
    8.7158  -16.9471   23.6490 N   0  0  0  0  0  0  0  0  0  0  0  0
   10.8636  -17.6412   22.8119 C   0  0  0  0  0  0  0  0  0  0  0  0
   11.6240  -18.2232   21.9845 O   0  0  0  0  0  0  0  0  0  0  0  0
   11.4616  -17.0378   23.9429 N   0  0  0  0  0  0  0  0  0  0  0  0
   12.6908  -17.6641   24.5272 C   0  0  1  0  0  0  0  0  0  0  0  0
   13.7338  -16.5968   24.3826 C   0  0  0  0  0  0  0  0  0  0  0  0
   14.9506  -16.8665   23.6047 C   0  0  0  0  0  0  0  0  0  0  0  0
   15.9835  -15.8512   23.4996 C   0  0  0  0  0  0  0  0  0  0  0  0
   15.7863  -14.6865   23.0171 O   0  0  0  0  0  0  0  0  0  0  0  0
   12.4144  -18.0122   25.9197 C   0  0  0  0  0  0  0  0  0  0  0  0
   13.3102  -18.8822   26.5726 O   0  0  0  0  0  0  0  0  0  0  0  0
   17.2732  -16.1547   23.9529 O   0  0  0  0  0  0  0  0  0  0  0  0
   11.4600  -17.6142   26.5947 O   0  0  0  0  0  0  0  0  0  0  0  0
  2  1  1  1
  3  2  1  0
  3  4  1  0
  4  9  2  0
  5  4  1  0
  5  6  2  0
  6  7  1  0
  7  8  2  0
  9  8  1  0
 10  2  1  0
 10 11  2  0
 13 12  1  6
 13 14  1  0
 13 15  1  0
 14 10  1  0
 15 17  1  0
 16 15  2  0
 17 18  1  0
 18 19  1  1
 19 20  1  0
 20 21  1  0
 21 22  2  0
 21 25  1  0
 23 24  1  0
 23 18  1  0
 26 23  2  0
M  END
$$$$
