FAE.pdb
     RDKit          3D

 26 26  0  0  1  0  0  0  0  0999 V2000
    8.9167  -15.3902   25.8597 N   0  0  0  0  0  0  0  0  0  0  0  0
    7.6752  -16.0839   25.6827 C   0  0  1  0  0  0  0  0  0  0  0  0
    6.6028  -15.4703   26.5755 C   0  0  0  0  0  0  0  0  0  0  0  0
    6.7686  -14.0319   26.7833 C   0  0  0  0  0  0  0  0  0  0  0  0
    7.9020  -13.5382   27.3923 C   0  0  0  0  0  0  0  0  0  0  0  0
    8.0697  -12.1816   27.5914 C   0  0  0  0  0  0  0  0  0  0  0  0
    7.1038  -11.2715   27.1859 C   0  0  0  0  0  0  0  0  0  0  0  0
    5.9749  -11.7711   26.5790 C   0  0  0  0  0  0  0  0  0  0  0  0
    5.8000  -13.1340   26.3752 C   0  0  0  0  0  0  0  0  0  0  0  0
    7.1501  -15.9323   24.2874 C   0  0  0  0  0  0  0  0  0  0  0  0
    6.1301  -16.5557   23.9111 O   0  0  0  0  0  0  0  0  0  0  0  0
    7.6884  -14.2163   21.0421 C   0  0  0  0  0  0  0  0  0  0  0  0
    7.8286  -15.4226   21.9504 C   0  0  2  0  0  0  0  0  0  0  0  0
    7.7754  -15.0844   23.3348 N   0  0  0  0  0  0  0  0  0  0  0  0
    9.0929  -16.1475   21.6233 C   0  0  0  0  0  0  0  0  0  0  0  0
    9.2204  -16.7297   20.5068 O   0  0  0  0  0  0  0  0  0  0  0  0
   10.1784  -16.2148   22.5277 N   0  0  0  0  0  0  0  0  0  0  0  0
   11.3909  -17.0044   22.1394 C   0  0  1  0  0  0  0  0  0  0  0  0
   12.5102  -16.0139   22.2575 C   0  0  0  0  0  0  0  0  0  0  0  0
   13.9031  -16.4743   22.1788 C   0  0  0  0  0  0  0  0  0  0  0  0
   14.9892  -15.5128   22.2477 C   0  0  0  0  0  0  0  0  0  0  0  0
   15.9356  -15.5721   23.1015 O   0  0  0  0  0  0  0  0  0  0  0  0
   11.5221  -18.1320   23.0602 C   0  0  0  0  0  0  0  0  0  0  0  0
   10.7553  -18.1111   24.2423 O   0  0  0  0  0  0  0  0  0  0  0  0
   15.0117  -14.4569   21.3281 O   0  0  0  0  0  0  0  0  0  0  0  0
   12.2479  -19.1189   22.9050 O   0  0  0  0  0  0  0  0  0  0  0  0
  2  1  1  6
  3  2  1  0
  3  4  1  0
  4  9  2  0
  5  4  1  0
  5  6  2  0
  6  7  1  0
  7  8  2  0
  9  8  1  0
 10  2  1  0
 10 11  2  0
 13 12  1  6
 13 14  1  0
 13 15  1  0
 14 10  1  0
 15 17  1  0
 16 15  2  0
 17 18  1  0
 18 19  1  1
 19 20  1  0
 20 21  1  0
 21 22  2  0
 21 25  1  0
 23 24  1  0
 23 18  1  0
 26 23  2  0
M  END
$$$$
