FAE.pdb
     RDKit          3D

 26 26  0  0  1  0  0  0  0  0999 V2000
    5.4618  -16.1104   25.8426 N   0  0  0  0  0  0  0  0  0  0  0  0
    6.6859  -16.0940   25.0972 C   0  0  1  0  0  0  0  0  0  0  0  0
    7.6676  -15.1132   25.7279 C   0  0  0  0  0  0  0  0  0  0  0  0
    7.1565  -13.7450   25.8074 C   0  0  0  0  0  0  0  0  0  0  0  0
    7.3220  -12.8730   24.7531 C   0  0  0  0  0  0  0  0  0  0  0  0
    6.8413  -11.5795   24.8168 C   0  0  0  0  0  0  0  0  0  0  0  0
    6.1770  -11.1150   25.9431 C   0  0  0  0  0  0  0  0  0  0  0  0
    6.0155  -11.9905   26.9918 C   0  0  0  0  0  0  0  0  0  0  0  0
    6.4958  -13.2926   26.9342 C   0  0  0  0  0  0  0  0  0  0  0  0
    7.3807  -17.4210   25.1444 C   0  0  0  0  0  0  0  0  0  0  0  0
    7.8736  -17.8529   26.2126 O   0  0  0  0  0  0  0  0  0  0  0  0
    7.7636  -20.4311   22.9122 C   0  0  0  0  0  0  0  0  0  0  0  0
    8.1632  -19.5118   24.0501 C   0  0  2  0  0  0  0  0  0  0  0  0
    7.5124  -18.2441   23.9945 N   0  0  0  0  0  0  0  0  0  0  0  0
    9.6484  -19.3524   24.0628 C   0  0  0  0  0  0  0  0  0  0  0  0
   10.2895  -19.2890   22.9736 O   0  0  0  0  0  0  0  0  0  0  0  0
   10.3868  -19.2688   25.2664 N   0  0  0  0  0  0  0  0  0  0  0  0
   11.8826  -19.2285   25.1917 C   0  0  1  0  0  0  0  0  0  0  0  0
   12.1664  -17.9343   24.4898 C   0  0  0  0  0  0  0  0  0  0  0  0
   13.5346  -17.3996   24.4706 C   0  0  0  0  0  0  0  0  0  0  0  0
   13.8505  -16.2465   23.6465 C   0  0  0  0  0  0  0  0  0  0  0  0
   13.0036  -15.6593   22.8940 O   0  0  0  0  0  0  0  0  0  0  0  0
   12.4143  -19.2725   26.5526 C   0  0  0  0  0  0  0  0  0  0  0  0
   13.7773  -19.5894   26.7184 O   0  0  0  0  0  0  0  0  0  0  0  0
   15.1553  -15.7387   23.6724 O   0  0  0  0  0  0  0  0  0  0  0  0
   11.7805  -19.0557   27.5899 O   0  0  0  0  0  0  0  0  0  0  0  0
  2  1  1  1
  3  2  1  0
  3  4  1  0
  4  9  2  0
  5  4  1  0
  5  6  2  0
  6  7  1  0
  7  8  2  0
  9  8  1  0
 10  2  1  0
 10 11  2  0
 13 12  1  6
 13 14  1  0
 13 15  1  0
 14 10  1  0
 15 17  1  0
 16 15  2  0
 17 18  1  0
 18 19  1  1
 19 20  1  0
 20 21  1  0
 21 22  2  0
 21 25  1  0
 23 24  1  0
 23 18  1  0
 26 23  2  0
M  END
$$$$
