DIR.pdb
     RDKit          3D

 28 27  0  0  1  0  0  0  0  0999 V2000
    8.3492  -15.1058   20.4065 N   0  0  0  0  0  0  0  0  0  0  0  0
    7.6550  -15.6742   21.5344 C   0  0  1  0  0  0  0  0  0  0  0  0
    7.6458  -17.1944   21.4700 C   0  0  0  0  0  0  0  0  0  0  0  0
    6.8499  -17.6161   20.3129 C   0  0  0  0  0  0  0  0  0  0  0  0
    5.6169  -17.6954   20.3936 O   0  0  0  0  0  0  0  0  0  0  0  0
    8.4134  -15.3195   22.7754 C   0  0  0  0  0  0  0  0  0  0  0  0
    9.6784  -15.3441   22.7668 O   0  0  0  0  0  0  0  0  0  0  0  0
    7.5159  -17.9241   19.1246 O   0  0  0  0  0  0  0  0  0  0  0  0
    6.1837  -11.5044   25.7740 C   0  0  0  0  0  0  0  0  0  0  0  0
    7.2225  -12.3603   25.1018 C   0  0  0  0  0  0  0  0  0  0  0  0
    7.5970  -13.5597   25.8923 C   0  0  2  0  0  0  0  0  0  0  0  0
    8.3047  -13.1171   27.1647 C   0  0  0  0  0  0  0  0  0  0  0  0
    8.4789  -14.5497   25.1300 C   0  0  2  0  0  0  0  0  0  0  0  0
    7.7225  -14.9615   23.9424 N   0  0  0  0  0  0  0  0  0  0  0  0
    8.7698  -15.7537   25.9566 C   0  0  0  0  0  0  0  0  0  0  0  0
    7.7560  -16.4244   26.3807 O   0  0  0  0  0  0  0  0  0  0  0  0
   13.1223  -19.7022   30.9909 N   0  0  0  0  0  0  0  0  0  0  0  0
   13.2988  -20.8634   30.1924 C   0  0  0  0  0  0  0  0  0  0  0  0
   13.4335  -22.0011   30.7855 N   0  0  0  0  0  0  0  0  0  0  0  0
   13.3368  -20.8514   28.7733 N   0  0  0  0  0  0  0  0  0  0  0  0
   13.1880  -19.6064   28.0141 C   0  0  0  0  0  0  0  0  0  0  0  0
   11.7169  -19.3109   27.7726 C   0  0  0  0  0  0  0  0  0  0  0  0
   11.5296  -18.0666   26.9602 C   0  0  0  0  0  0  0  0  0  0  0  0
   10.1454  -17.4754   27.1255 C   0  0  2  0  0  0  0  0  0  0  0  0
   10.0182  -16.2459   26.3244 N   0  0  0  0  0  0  0  0  0  0  0  0
    9.9853  -17.1605   28.5647 C   0  0  0  0  0  0  0  0  0  0  0  0
   10.2834  -16.0081   28.9562 O   0  0  0  0  0  0  0  0  0  0  0  0
    9.5253  -18.0649   29.5041 O   0  0  0  0  0  0  0  0  0  0  0  0
  2  1  1  6
  2  3  1  0
  4  3  1  0
  5  4  2  0
  6  2  1  0
  7  6  2  0
  8  4  1  0
  9 10  1  0
 10 11  1  0
 11 12  1  1
 13 11  1  0
 13 14  1  6
 14  6  1  0
 15 13  1  0
 16 15  2  0
 18 19  2  0
 18 17  1  0
 20 18  1  0
 21 20  1  0
 22 21  1  0
 22 23  1  0
 24 23  1  1
 24 25  1  0
 25 15  1  0
 26 24  1  0
 26 28  1  0
 27 26  2  0
M  END
$$$$
