DIR.pdb
     RDKit          3D

 28 27  0  0  1  0  0  0  0  0999 V2000
    6.6054  -14.5123   19.5029 N   0  0  0  0  0  0  0  0  0  0  0  0
    6.6713  -15.5058   20.5448 C   0  0  1  0  0  0  0  0  0  0  0  0
    7.2823  -16.8028   20.0351 C   0  0  0  0  0  0  0  0  0  0  0  0
    6.2035  -17.7454   19.7221 C   0  0  0  0  0  0  0  0  0  0  0  0
    5.0198  -17.4249   19.8929 O   0  0  0  0  0  0  0  0  0  0  0  0
    7.5976  -15.0048   21.6087 C   0  0  0  0  0  0  0  0  0  0  0  0
    8.7363  -14.5554   21.2892 O   0  0  0  0  0  0  0  0  0  0  0  0
    6.5451  -19.0067   19.2293 O   0  0  0  0  0  0  0  0  0  0  0  0
    6.9754  -12.1770   26.9287 C   0  0  0  0  0  0  0  0  0  0  0  0
    7.8801  -12.9612   26.0177 C   0  0  0  0  0  0  0  0  0  0  0  0
    7.1569  -13.6398   24.9131 C   0  0  2  0  0  0  0  0  0  0  0  0
    6.1027  -14.5658   25.5023 C   0  0  0  0  0  0  0  0  0  0  0  0
    8.0686  -14.4295   23.9728 C   0  0  2  0  0  0  0  0  0  0  0  0
    7.2029  -15.0343   22.9544 N   0  0  0  0  0  0  0  0  0  0  0  0
    8.7812  -15.5136   24.7038 C   0  0  0  0  0  0  0  0  0  0  0  0
    8.0499  -16.4119   25.2655 O   0  0  0  0  0  0  0  0  0  0  0  0
   13.7966  -15.3125   20.2888 N   0  0  0  0  0  0  0  0  0  0  0  0
   12.7593  -14.6593   21.0061 C   0  0  0  0  0  0  0  0  0  0  0  0
   12.0728  -13.7504   20.4003 N   0  0  0  0  0  0  0  0  0  0  0  0
   12.4278  -14.9451   22.3566 N   0  0  0  0  0  0  0  0  0  0  0  0
   13.2275  -15.8734   23.1611 C   0  0  0  0  0  0  0  0  0  0  0  0
   12.3731  -17.0452   23.6157 C   0  0  0  0  0  0  0  0  0  0  0  0
   12.1739  -17.0404   25.1001 C   0  0  0  0  0  0  0  0  0  0  0  0
   10.7182  -16.8782   25.4840 C   0  0  2  0  0  0  0  0  0  0  0  0
   10.1557  -15.6739   24.8493 N   0  0  0  0  0  0  0  0  0  0  0  0
   10.6793  -16.7380   26.9588 C   0  0  0  0  0  0  0  0  0  0  0  0
   11.1308  -17.6765   27.6556 O   0  0  0  0  0  0  0  0  0  0  0  0
   10.1732  -15.6304   27.6138 O   0  0  0  0  0  0  0  0  0  0  0  0
  2  1  1  6
  2  3  1  0
  4  3  1  0
  5  4  2  0
  6  2  1  0
  7  6  2  0
  8  4  1  0
  9 10  1  0
 10 11  1  0
 11 12  1  1
 13 11  1  0
 13 14  1  6
 14  6  1  0
 15 13  1  0
 16 15  2  0
 18 19  2  0
 18 17  1  0
 20 18  1  0
 21 20  1  0
 22 21  1  0
 22 23  1  0
 24 23  1  6
 24 25  1  0
 25 15  1  0
 26 24  1  0
 26 28  1  0
 27 26  2  0
M  END
$$$$
