DIR.pdb
     RDKit          3D

 28 27  0  0  1  0  0  0  0  0999 V2000
    9.3169  -17.1598   16.1024 N   0  0  0  0  0  0  0  0  0  0  0  0
    8.8453  -17.6280   17.3812 C   0  0  1  0  0  0  0  0  0  0  0  0
    9.5231  -18.9312   17.7779 C   0  0  0  0  0  0  0  0  0  0  0  0
    9.0572  -19.9992   16.8877 C   0  0  0  0  0  0  0  0  0  0  0  0
    9.8678  -20.6806   16.2460 O   0  0  0  0  0  0  0  0  0  0  0  0
    9.2416  -16.6253   18.4197 C   0  0  0  0  0  0  0  0  0  0  0  0
   10.3616  -16.0430   18.3352 O   0  0  0  0  0  0  0  0  0  0  0  0
    7.6831  -20.2258   16.7837 O   0  0  0  0  0  0  0  0  0  0  0  0
    7.3402  -12.6780   19.8206 C   0  0  0  0  0  0  0  0  0  0  0  0
    6.6503  -13.9569   20.2106 C   0  0  0  0  0  0  0  0  0  0  0  0
    7.4646  -14.8136   21.1088 C   0  0  2  0  0  0  0  0  0  0  0  0
    7.7883  -14.0388   22.3780 C   0  0  0  0  0  0  0  0  0  0  0  0
    8.7586  -15.3209   20.4707 C   0  0  2  0  0  0  0  0  0  0  0  0
    8.3731  -16.3337   19.4819 N   0  0  0  0  0  0  0  0  0  0  0  0
    9.6443  -15.9533   21.4871 C   0  0  0  0  0  0  0  0  0  0  0  0
    9.2085  -17.0271   22.0480 O   0  0  0  0  0  0  0  0  0  0  0  0
   17.8062  -14.8820   20.9715 N   0  0  0  0  0  0  0  0  0  0  0  0
   17.0859  -14.9540   22.1935 C   0  0  0  0  0  0  0  0  0  0  0  0
   17.6427  -14.4928   23.2618 N   0  0  0  0  0  0  0  0  0  0  0  0
   15.7832  -15.5052   22.3145 N   0  0  0  0  0  0  0  0  0  0  0  0
   15.4607  -16.8316   21.7805 C   0  0  0  0  0  0  0  0  0  0  0  0
   14.0421  -17.2211   22.1626 C   0  0  0  0  0  0  0  0  0  0  0  0
   13.2171  -16.0227   22.5180 C   0  0  0  0  0  0  0  0  0  0  0  0
   11.7607  -16.3729   22.7392 C   0  0  2  0  0  0  0  0  0  0  0  0
   10.8993  -15.5196   21.9028 N   0  0  0  0  0  0  0  0  0  0  0  0
   11.4763  -16.1281   24.1728 C   0  0  0  0  0  0  0  0  0  0  0  0
   12.0962  -16.8067   25.0245 O   0  0  0  0  0  0  0  0  0  0  0  0
   10.5652  -15.1929   24.6283 O   0  0  0  0  0  0  0  0  0  0  0  0
  2  1  1  6
  2  3  1  0
  4  3  1  0
  5  4  2  0
  6  2  1  0
  7  6  2  0
  8  4  1  0
  9 10  1  0
 10 11  1  0
 11 12  1  1
 13 11  1  0
 13 14  1  6
 14  6  1  0
 15 13  1  0
 16 15  2  0
 18 19  2  0
 18 17  1  0
 20 18  1  0
 21 20  1  0
 22 21  1  0
 22 23  1  0
 24 23  1  1
 24 25  1  0
 25 15  1  0
 26 24  1  0
 26 28  1  0
 27 26  2  0
M  END
$$$$
