DIR.pdb
     RDKit          3D

 28 27  0  0  1  0  0  0  0  0999 V2000
    9.9651  -17.8094   16.1362 N   0  0  0  0  0  0  0  0  0  0  0  0
    8.8784  -17.7512   17.0810 C   0  0  1  0  0  0  0  0  0  0  0  0
    8.5590  -19.1286   17.6429 C   0  0  0  0  0  0  0  0  0  0  0  0
    7.5385  -19.7605   16.8005 C   0  0  0  0  0  0  0  0  0  0  0  0
    7.1708  -19.2217   15.7481 O   0  0  0  0  0  0  0  0  0  0  0  0
    9.3188  -16.9229   18.2476 C   0  0  0  0  0  0  0  0  0  0  0  0
   10.5172  -16.9891   18.6478 O   0  0  0  0  0  0  0  0  0  0  0  0
    6.9959  -20.9789   17.2146 O   0  0  0  0  0  0  0  0  0  0  0  0
    7.4982  -11.7459   20.9815 C   0  0  0  0  0  0  0  0  0  0  0  0
    8.3642  -12.9759   21.0123 C   0  0  0  0  0  0  0  0  0  0  0  0
    7.9371  -14.0196   20.0468 C   0  0  2  0  0  0  0  0  0  0  0  0
    6.5216  -14.4633   20.3863 C   0  0  0  0  0  0  0  0  0  0  0  0
    8.8624  -15.2365   20.0052 C   0  0  2  0  0  0  0  0  0  0  0  0
    8.4049  -16.0771   18.8932 N   0  0  0  0  0  0  0  0  0  0  0  0
    8.7737  -16.0198   21.2686 C   0  0  0  0  0  0  0  0  0  0  0  0
    7.9803  -17.0337   21.2675 O   0  0  0  0  0  0  0  0  0  0  0  0
   12.1020  -21.0418   20.7608 N   0  0  0  0  0  0  0  0  0  0  0  0
   13.1525  -21.1556   21.7099 C   0  0  0  0  0  0  0  0  0  0  0  0
   13.5067  -22.3349   22.0945 N   0  0  0  0  0  0  0  0  0  0  0  0
   13.8420  -20.0462   22.2660 N   0  0  0  0  0  0  0  0  0  0  0  0
   13.4444  -18.6681   21.9638 C   0  0  0  0  0  0  0  0  0  0  0  0
   12.3181  -18.2319   22.8865 C   0  0  0  0  0  0  0  0  0  0  0  0
   11.4109  -17.2431   22.2214 C   0  0  0  0  0  0  0  0  0  0  0  0
   10.2459  -16.8478   23.1042 C   0  0  2  0  0  0  0  0  0  0  0  0
    9.4555  -15.7857   22.4587 N   0  0  0  0  0  0  0  0  0  0  0  0
   10.8236  -16.3479   24.3740 C   0  0  0  0  0  0  0  0  0  0  0  0
   11.5420  -17.1249   25.0450 O   0  0  0  0  0  0  0  0  0  0  0  0
   10.6168  -15.0715   24.8641 O   0  0  0  0  0  0  0  0  0  0  0  0
  2  1  1  6
  2  3  1  0
  4  3  1  0
  5  4  2  0
  6  2  1  0
  7  6  2  0
  8  4  1  0
  9 10  1  0
 10 11  1  0
 11 12  1  1
 13 11  1  0
 13 14  1  6
 14  6  1  0
 15 13  1  0
 16 15  2  0
 18 19  2  0
 18 17  1  0
 20 18  1  0
 21 20  1  0
 22 21  1  0
 22 23  1  0
 24 23  1  6
 24 25  1  0
 25 15  1  0
 26 24  1  0
 26 28  1  0
 27 26  2  0
M  END
$$$$
