DIR.pdb
     RDKit          3D

 28 27  0  0  1  0  0  0  0  0999 V2000
    7.8452  -13.9859   20.0473 N   0  0  0  0  0  0  0  0  0  0  0  0
    7.3226  -14.8183   21.1013 C   0  0  1  0  0  0  0  0  0  0  0  0
    7.5676  -16.2925   20.8156 C   0  0  0  0  0  0  0  0  0  0  0  0
    6.7451  -16.6978   19.6713 C   0  0  0  0  0  0  0  0  0  0  0  0
    6.2710  -15.8479   18.9059 O   0  0  0  0  0  0  0  0  0  0  0  0
    8.0789  -14.5111   22.3562 C   0  0  0  0  0  0  0  0  0  0  0  0
    9.3327  -14.3479   22.3096 O   0  0  0  0  0  0  0  0  0  0  0  0
    6.5123  -18.0600   19.4693 O   0  0  0  0  0  0  0  0  0  0  0  0
    5.7155  -11.3470   26.0089 C   0  0  0  0  0  0  0  0  0  0  0  0
    6.7813  -12.0139   25.1824 C   0  0  0  0  0  0  0  0  0  0  0  0
    7.2042  -13.3311   25.7210 C   0  0  2  0  0  0  0  0  0  0  0  0
    7.8625  -13.1267   27.0777 C   0  0  0  0  0  0  0  0  0  0  0  0
    8.1525  -14.0985   24.7986 C   0  0  2  0  0  0  0  0  0  0  0  0
    7.3985  -14.4050   23.5781 N   0  0  0  0  0  0  0  0  0  0  0  0
    8.5924  -15.3753   25.4259 C   0  0  0  0  0  0  0  0  0  0  0  0
    7.6685  -16.2143   25.7422 O   0  0  0  0  0  0  0  0  0  0  0  0
   12.9362  -22.2500   24.6954 N   0  0  0  0  0  0  0  0  0  0  0  0
   12.8090  -21.0971   23.8757 C   0  0  0  0  0  0  0  0  0  0  0  0
   12.3806  -21.2472   22.6681 N   0  0  0  0  0  0  0  0  0  0  0  0
   13.1257  -19.7811   24.3038 N   0  0  0  0  0  0  0  0  0  0  0  0
   13.2134  -19.4394   25.7266 C   0  0  0  0  0  0  0  0  0  0  0  0
   11.8610  -18.9720   26.2390 C   0  0  0  0  0  0  0  0  0  0  0  0
   11.4918  -17.6322   25.6806 C   0  0  0  0  0  0  0  0  0  0  0  0
   10.1812  -17.1185   26.2383 C   0  0  2  0  0  0  0  0  0  0  0  0
    9.8950  -15.7740   25.7093 N   0  0  0  0  0  0  0  0  0  0  0  0
   10.3380  -17.0602   27.7107 C   0  0  0  0  0  0  0  0  0  0  0  0
   10.5032  -15.9391   28.2454 O   0  0  0  0  0  0  0  0  0  0  0  0
   10.3129  -18.1722   28.5323 O   0  0  0  0  0  0  0  0  0  0  0  0
  2  1  1  6
  2  3  1  0
  4  3  1  0
  5  4  2  0
  6  2  1  0
  7  6  2  0
  8  4  1  0
  9 10  1  0
 10 11  1  0
 11 12  1  1
 13 11  1  0
 13 14  1  6
 14  6  1  0
 15 13  1  0
 16 15  2  0
 18 19  2  0
 18 17  1  0
 20 18  1  0
 21 20  1  0
 22 21  1  0
 22 23  1  0
 24 23  1  6
 24 25  1  0
 25 15  1  0
 26 24  1  0
 26 28  1  0
 27 26  2  0
M  END
$$$$
