DIR.pdb
     RDKit          3D

 28 27  0  0  1  0  0  0  0  0999 V2000
   10.2073  -18.6231   17.7071 N   0  0  0  0  0  0  0  0  0  0  0  0
    9.3426  -18.3756   18.8331 C   0  0  1  0  0  0  0  0  0  0  0  0
    9.4827  -19.4630   19.8882 C   0  0  0  0  0  0  0  0  0  0  0  0
    8.8741  -20.6974   19.3820 C   0  0  0  0  0  0  0  0  0  0  0  0
    8.2811  -21.4664   20.1501 O   0  0  0  0  0  0  0  0  0  0  0  0
    9.7849  -17.1053   19.4902 C   0  0  0  0  0  0  0  0  0  0  0  0
   11.0175  -16.8268   19.5524 O   0  0  0  0  0  0  0  0  0  0  0  0
    8.9809  -20.9806   18.0187 O   0  0  0  0  0  0  0  0  0  0  0  0
    6.6422  -12.7012   18.8212 C   0  0  0  0  0  0  0  0  0  0  0  0
    7.8707  -13.5521   18.9964 C   0  0  0  0  0  0  0  0  0  0  0  0
    8.1019  -13.9678   20.4026 C   0  0  2  0  0  0  0  0  0  0  0  0
    8.3313  -12.7297   21.2571 C   0  0  0  0  0  0  0  0  0  0  0  0
    9.2729  -14.9365   20.5744 C   0  0  2  0  0  0  0  0  0  0  0  0
    8.8350  -16.2284   20.0343 N   0  0  0  0  0  0  0  0  0  0  0  0
    9.6185  -15.1086   22.0126 C   0  0  0  0  0  0  0  0  0  0  0  0
    9.7909  -14.0338   22.6999 O   0  0  0  0  0  0  0  0  0  0  0  0
    7.3526  -13.1902   28.2282 N   0  0  0  0  0  0  0  0  0  0  0  0
    6.6348  -12.8048   27.0649 C   0  0  0  0  0  0  0  0  0  0  0  0
    6.2209  -11.5863   26.9750 N   0  0  0  0  0  0  0  0  0  0  0  0
    6.3419  -13.6815   25.9874 N   0  0  0  0  0  0  0  0  0  0  0  0
    6.4376  -15.1366   26.1368 C   0  0  0  0  0  0  0  0  0  0  0  0
    7.8615  -15.5991   25.8754 C   0  0  0  0  0  0  0  0  0  0  0  0
    8.0725  -15.9505   24.4348 C   0  0  0  0  0  0  0  0  0  0  0  0
    9.4948  -16.3857   24.1518 C   0  0  2  0  0  0  0  0  0  0  0  0
    9.7745  -16.3035   22.7080 N   0  0  0  0  0  0  0  0  0  0  0  0
    9.6102  -17.7901   24.6105 C   0  0  0  0  0  0  0  0  0  0  0  0
    8.6316  -18.5530   24.4363 O   0  0  0  0  0  0  0  0  0  0  0  0
   10.7364  -18.3106   25.2211 O   0  0  0  0  0  0  0  0  0  0  0  0
  2  1  1  6
  2  3  1  0
  4  3  1  0
  5  4  2  0
  6  2  1  0
  7  6  2  0
  8  4  1  0
  9 10  1  0
 10 11  1  0
 11 12  1  1
 13 11  1  0
 13 14  1  1
 14  6  1  0
 15 13  1  0
 16 15  2  0
 18 19  2  0
 18 17  1  0
 20 18  1  0
 21 20  1  0
 22 21  1  0
 22 23  1  0
 24 23  1  6
 24 25  1  0
 25 15  1  0
 26 24  1  0
 26 28  1  0
 27 26  2  0
M  END
$$$$
