DIR.pdb
     RDKit          3D

 28 27  0  0  1  0  0  0  0  0999 V2000
   10.5308  -16.3351   16.4747 N   0  0  0  0  0  0  0  0  0  0  0  0
   11.7823  -16.0791   17.1419 C   0  0  1  0  0  0  0  0  0  0  0  0
   12.6565  -15.1312   16.3342 C   0  0  0  0  0  0  0  0  0  0  0  0
   13.0382  -15.7888   15.0804 C   0  0  0  0  0  0  0  0  0  0  0  0
   13.0870  -15.1460   14.0233 O   0  0  0  0  0  0  0  0  0  0  0  0
   11.4886  -15.3725   18.4286 C   0  0  0  0  0  0  0  0  0  0  0  0
   12.4413  -14.9269   19.1319 O   0  0  0  0  0  0  0  0  0  0  0  0
   13.3432  -17.1513   15.1105 O   0  0  0  0  0  0  0  0  0  0  0  0
    6.8843  -12.4037   19.0042 C   0  0  0  0  0  0  0  0  0  0  0  0
    8.3110  -12.8556   19.1586 C   0  0  0  0  0  0  0  0  0  0  0  0
    8.4642  -14.0166   20.0710 C   0  0  2  0  0  0  0  0  0  0  0  0
    7.9976  -13.6206   21.4642 C   0  0  0  0  0  0  0  0  0  0  0  0
    9.8916  -14.5613   20.1412 C   0  0  2  0  0  0  0  0  0  0  0  0
   10.1616  -15.2059   18.8512 N   0  0  0  0  0  0  0  0  0  0  0  0
   10.0247  -15.5758   21.2231 C   0  0  0  0  0  0  0  0  0  0  0  0
    9.3149  -16.6436   21.1070 O   0  0  0  0  0  0  0  0  0  0  0  0
   15.1442  -15.2519   19.9157 N   0  0  0  0  0  0  0  0  0  0  0  0
   15.7416  -14.9976   21.1789 C   0  0  0  0  0  0  0  0  0  0  0  0
   16.4187  -13.9100   21.3295 N   0  0  0  0  0  0  0  0  0  0  0  0
   15.6400  -15.8705   22.2939 N   0  0  0  0  0  0  0  0  0  0  0  0
   14.5542  -15.7420   23.2702 C   0  0  0  0  0  0  0  0  0  0  0  0
   13.4479  -16.7366   22.9595 C   0  0  0  0  0  0  0  0  0  0  0  0
   12.3213  -16.6341   23.9410 C   0  0  0  0  0  0  0  0  0  0  0  0
   10.9665  -16.6555   23.2651 C   0  0  2  0  0  0  0  0  0  0  0  0
   10.8351  -15.5073   22.3519 N   0  0  0  0  0  0  0  0  0  0  0  0
    9.9517  -16.5649   24.3412 C   0  0  0  0  0  0  0  0  0  0  0  0
    9.8897  -17.4959   25.1775 O   0  0  0  0  0  0  0  0  0  0  0  0
    9.0666  -15.5114   24.4781 O   0  0  0  0  0  0  0  0  0  0  0  0
  2  1  1  6
  2  3  1  0
  4  3  1  0
  5  4  2  0
  6  2  1  0
  7  6  2  0
  8  4  1  0
  9 10  1  0
 10 11  1  0
 11 12  1  1
 13 11  1  0
 13 14  1  6
 14  6  1  0
 15 13  1  0
 16 15  2  0
 18 19  2  0
 18 17  1  0
 20 18  1  0
 21 20  1  0
 22 21  1  0
 22 23  1  0
 24 23  1  1
 24 25  1  0
 25 15  1  0
 26 24  1  0
 26 28  1  0
 27 26  2  0
M  END
$$$$
