GPQ.pdb
     RDKit          3D

 21 21  0  0  1  0  0  0  0  0999 V2000
    7.0710  -15.1709   21.3253 N   0  0  0  0  0  0  0  0  0  0  0  0
    6.5291  -14.7796   22.5806 C   0  0  0  0  0  0  0  0  0  0  0  0
    7.5341  -14.5438   23.6305 C   0  0  0  0  0  0  0  0  0  0  0  0
    8.5111  -15.3059   23.7052 O   0  0  0  0  0  0  0  0  0  0  0  0
    7.3964  -13.4784   24.5341 N   0  0  0  0  0  0  0  0  0  0  0  0
    6.8409  -12.1643   24.1150 C   0  0  0  0  0  0  0  0  0  0  0  0
    5.7985  -11.9723   25.2024 C   0  0  0  0  0  0  0  0  0  0  0  0
    6.3143  -12.6973   26.4096 C   0  0  0  0  0  0  0  0  0  0  0  0
    7.6611  -13.2358   25.8955 C   0  0  1  0  0  0  0  0  0  0  0  0
    8.0473  -14.3032   26.7811 C   0  0  0  0  0  0  0  0  0  0  0  0
    7.3906  -15.2251   27.2754 O   0  0  0  0  0  0  0  0  0  0  0  0
   10.9135  -18.2273   26.4753 N   0  0  0  0  0  0  0  0  0  0  0  0
   11.7022  -18.1557   27.6457 C   0  0  0  0  0  0  0  0  0  0  0  0
   12.1072  -19.2113   28.1848 O   0  0  0  0  0  0  0  0  0  0  0  0
   12.0203  -16.7891   28.1935 C   0  0  0  0  0  0  0  0  0  0  0  0
   11.2339  -15.8106   27.3945 C   0  0  0  0  0  0  0  0  0  0  0  0
    9.9863  -15.2883   28.0658 C   0  0  2  0  0  0  0  0  0  0  0  0
    9.4471  -14.2916   27.1551 N   0  0  0  0  0  0  0  0  0  0  0  0
   10.3871  -14.5793   29.3044 C   0  0  0  0  0  0  0  0  0  0  0  0
   10.6841  -13.3342   29.2938 O   0  0  0  0  0  0  0  0  0  0  0  0
   10.4744  -15.1767   30.5507 O   0  0  0  0  0  0  0  0  0  0  0  0
  1  2  1  0
  2  3  1  0
  3  4  2  0
  5  9  1  0
  5  3  1  0
  6  5  1  0
  7  6  1  0
  7  8  1  0
  8  9  1  0
  9 10  1  1
 10 18  1  0
 10 11  2  0
 12 13  1  0
 13 14  2  0
 15 16  1  0
 15 13  1  0
 17 16  1  6
 17 19  1  0
 18 17  1  0
 19 20  2  0
 19 21  1  0
M  END
$$$$
