GPQ.pdb
     RDKit          3D

 21 21  0  0  1  0  0  0  0  0999 V2000
   10.5738  -16.6041   17.5710 N   0  0  0  0  0  0  0  0  0  0  0  0
    9.4358  -16.0370   18.2079 C   0  0  0  0  0  0  0  0  0  0  0  0
    9.6678  -15.6044   19.5961 C   0  0  0  0  0  0  0  0  0  0  0  0
   10.5357  -16.1856   20.2666 O   0  0  0  0  0  0  0  0  0  0  0  0
    8.9244  -14.5543   20.1576 N   0  0  0  0  0  0  0  0  0  0  0  0
    8.5756  -13.3380   19.3765 C   0  0  0  0  0  0  0  0  0  0  0  0
    7.0845  -13.2764   19.6574 C   0  0  0  0  0  0  0  0  0  0  0  0
    6.8862  -13.9023   21.0058 C   0  0  0  0  0  0  0  0  0  0  0  0
    8.3316  -14.2549   21.3992 C   0  0  1  0  0  0  0  0  0  0  0  0
    8.2491  -15.2431   22.4429 C   0  0  0  0  0  0  0  0  0  0  0  0
    7.8781  -16.4209   22.4176 O   0  0  0  0  0  0  0  0  0  0  0  0
    8.8956  -13.5134   28.6762 N   0  0  0  0  0  0  0  0  0  0  0  0
    9.8124  -14.5382   28.3501 C   0  0  0  0  0  0  0  0  0  0  0  0
   10.9317  -14.5691   28.9115 O   0  0  0  0  0  0  0  0  0  0  0  0
    9.3880  -15.5581   27.3262 C   0  0  0  0  0  0  0  0  0  0  0  0
    9.2196  -14.8317   26.0384 C   0  0  0  0  0  0  0  0  0  0  0  0
    8.7873  -15.6861   24.8708 C   0  0  2  0  0  0  0  0  0  0  0  0
    8.6749  -14.7725   23.7455 N   0  0  0  0  0  0  0  0  0  0  0  0
    7.4274  -16.2044   25.1524 C   0  0  0  0  0  0  0  0  0  0  0  0
    6.3809  -15.5473   24.8184 O   0  0  0  0  0  0  0  0  0  0  0  0
    7.1680  -17.4101   25.7821 O   0  0  0  0  0  0  0  0  0  0  0  0
  1  2  1  0
  2  3  1  0
  3  4  2  0
  5  9  1  0
  5  3  1  0
  6  5  1  0
  7  6  1  0
  7  8  1  0
  8  9  1  0
  9 10  1  1
 10 18  1  0
 10 11  2  0
 12 13  1  0
 13 14  2  0
 15 16  1  0
 15 13  1  0
 17 16  1  1
 17 19  1  0
 18 17  1  0
 19 20  2  0
 19 21  1  0
M  END
$$$$
