GPQ.pdb
     RDKit          3D

 21 21  0  0  1  0  0  0  0  0999 V2000
    8.0401  -18.0222   18.2937 N   0  0  0  0  0  0  0  0  0  0  0  0
    7.4677  -16.8657   18.8913 C   0  0  0  0  0  0  0  0  0  0  0  0
    8.2424  -16.3147   20.0156 C   0  0  0  0  0  0  0  0  0  0  0  0
    8.8590  -17.0964   20.7570 O   0  0  0  0  0  0  0  0  0  0  0  0
    8.2874  -14.9316   20.2509 N   0  0  0  0  0  0  0  0  0  0  0  0
    8.4537  -13.9546   19.1423 C   0  0  0  0  0  0  0  0  0  0  0  0
    7.3092  -13.0100   19.4641 C   0  0  0  0  0  0  0  0  0  0  0  0
    7.1155  -13.0776   20.9497 C   0  0  0  0  0  0  0  0  0  0  0  0
    8.2190  -14.0683   21.3611 C   0  0  1  0  0  0  0  0  0  0  0  0
    7.8689  -14.5613   22.6677 C   0  0  0  0  0  0  0  0  0  0  0  0
    6.8437  -14.4175   23.3414 O   0  0  0  0  0  0  0  0  0  0  0  0
    5.3847  -19.1493   23.0771 N   0  0  0  0  0  0  0  0  0  0  0  0
    6.4701  -18.7886   23.9069 C   0  0  0  0  0  0  0  0  0  0  0  0
    7.1190  -19.6808   24.5002 O   0  0  0  0  0  0  0  0  0  0  0  0
    6.7959  -17.3238   24.0369 C   0  0  0  0  0  0  0  0  0  0  0  0
    8.1919  -17.2361   24.5446 C   0  0  0  0  0  0  0  0  0  0  0  0
    8.7450  -15.8361   24.6646 C   0  0  2  0  0  0  0  0  0  0  0  0
    8.8976  -15.3636   23.2983 N   0  0  0  0  0  0  0  0  0  0  0  0
   10.1028  -15.9217   25.2532 C   0  0  0  0  0  0  0  0  0  0  0  0
   10.2753  -16.0875   26.5107 O   0  0  0  0  0  0  0  0  0  0  0  0
   11.2758  -15.8346   24.5224 O   0  0  0  0  0  0  0  0  0  0  0  0
  1  2  1  0
  2  3  1  0
  3  4  2  0
  5  9  1  0
  5  3  1  0
  6  5  1  0
  7  6  1  0
  7  8  1  0
  8  9  1  0
  9 10  1  1
 10 18  1  0
 10 11  2  0
 12 13  1  0
 13 14  2  0
 15 16  1  0
 15 13  1  0
 17 16  1  6
 17 19  1  0
 18 17  1  0
 19 20  2  0
 19 21  1  0
M  END
$$$$
