GPQ.pdb
     RDKit          3D

 21 21  0  0  1  0  0  0  0  0999 V2000
    5.4099  -17.3175   22.3416 N   0  0  0  0  0  0  0  0  0  0  0  0
    5.5634  -16.5603   23.5355 C   0  0  0  0  0  0  0  0  0  0  0  0
    6.8952  -15.9561   23.7062 C   0  0  0  0  0  0  0  0  0  0  0  0
    7.8969  -16.6170   23.3889 O   0  0  0  0  0  0  0  0  0  0  0  0
    7.0371  -14.6566   24.2179 N   0  0  0  0  0  0  0  0  0  0  0  0
    5.8961  -13.7041   24.2609 C   0  0  0  0  0  0  0  0  0  0  0  0
    5.9913  -13.2611   25.7102 C   0  0  0  0  0  0  0  0  0  0  0  0
    7.4374  -13.3782   26.0897 C   0  0  0  0  0  0  0  0  0  0  0  0
    8.0643  -13.8699   24.7732 C   0  0  1  0  0  0  0  0  0  0  0  0
    9.3419  -14.4421   25.1094 C   0  0  0  0  0  0  0  0  0  0  0  0
   10.4912  -14.0432   24.8958 O   0  0  0  0  0  0  0  0  0  0  0  0
   10.7614  -13.6794   30.4332 N   0  0  0  0  0  0  0  0  0  0  0  0
   10.8074  -14.9042   29.7299 C   0  0  0  0  0  0  0  0  0  0  0  0
   10.8670  -15.9815   30.3661 O   0  0  0  0  0  0  0  0  0  0  0  0
   10.7820  -14.8492   28.2249 C   0  0  0  0  0  0  0  0  0  0  0  0
   10.5131  -16.2327   27.7474 C   0  0  0  0  0  0  0  0  0  0  0  0
   10.4668  -16.3968   26.2471 C   0  0  2  0  0  0  0  0  0  0  0  0
    9.2631  -15.7023   25.8203 N   0  0  0  0  0  0  0  0  0  0  0  0
   10.2746  -17.8348   25.9426 C   0  0  0  0  0  0  0  0  0  0  0  0
    9.1172  -18.3104   25.6728 O   0  0  0  0  0  0  0  0  0  0  0  0
   11.2957  -18.7699   25.9204 O   0  0  0  0  0  0  0  0  0  0  0  0
  1  2  1  0
  2  3  1  0
  3  4  2  0
  5  9  1  0
  5  3  1  0
  6  5  1  0
  7  6  1  0
  7  8  1  0
  8  9  1  0
  9 10  1  1
 10 18  1  0
 10 11  2  0
 12 13  1  0
 13 14  2  0
 15 16  1  0
 15 13  1  0
 17 16  1  1
 17 19  1  0
 18 17  1  0
 19 20  2  0
 19 21  1  0
M  END
$$$$
