GPQ.pdb
     RDKit          3D

 21 21  0  0  1  0  0  0  0  0999 V2000
    8.8950  -15.9552   15.3273 N   0  0  0  0  0  0  0  0  0  0  0  0
    8.2090  -15.4381   16.4606 C   0  0  0  0  0  0  0  0  0  0  0  0
    9.0235  -15.3676   17.6852 C   0  0  0  0  0  0  0  0  0  0  0  0
    9.8773  -16.2456   17.8869 O   0  0  0  0  0  0  0  0  0  0  0  0
    8.8430  -14.3290   18.6122 N   0  0  0  0  0  0  0  0  0  0  0  0
    8.5737  -12.9322   18.1791 C   0  0  0  0  0  0  0  0  0  0  0  0
    7.3599  -12.6303   19.0401 C   0  0  0  0  0  0  0  0  0  0  0  0
    7.5032  -13.4693   20.2749 C   0  0  0  0  0  0  0  0  0  0  0  0
    8.8424  -14.1805   20.0123 C   0  0  1  0  0  0  0  0  0  0  0  0
    8.8821  -15.3265   20.8830 C   0  0  0  0  0  0  0  0  0  0  0  0
    8.1143  -16.2874   20.9950 O   0  0  0  0  0  0  0  0  0  0  0  0
   13.4338  -18.9599   21.8613 N   0  0  0  0  0  0  0  0  0  0  0  0
   12.3675  -18.9743   22.7886 C   0  0  0  0  0  0  0  0  0  0  0  0
   11.6243  -19.9799   22.8618 O   0  0  0  0  0  0  0  0  0  0  0  0
   12.1770  -17.7577   23.6560 C   0  0  0  0  0  0  0  0  0  0  0  0
   11.7199  -16.6588   22.7628 C   0  0  0  0  0  0  0  0  0  0  0  0
   10.2237  -16.4676   22.6937 C   0  0  2  0  0  0  0  0  0  0  0  0
   10.0191  -15.3548   21.7808 N   0  0  0  0  0  0  0  0  0  0  0  0
    9.7485  -16.0326   24.0287 C   0  0  0  0  0  0  0  0  0  0  0  0
    9.6443  -14.7924   24.3280 O   0  0  0  0  0  0  0  0  0  0  0  0
    9.3829  -16.8982   25.0459 O   0  0  0  0  0  0  0  0  0  0  0  0
  1  2  1  0
  2  3  1  0
  3  4  2  0
  5  9  1  0
  5  3  1  0
  6  5  1  0
  7  6  1  0
  7  8  1  0
  8  9  1  0
  9 10  1  1
 10 18  1  0
 10 11  2  0
 12 13  1  0
 13 14  2  0
 15 16  1  0
 15 13  1  0
 17 16  1  1
 17 19  1  0
 18 17  1  0
 19 20  2  0
 19 21  1  0
M  END
$$$$
