GPQ.pdb
     RDKit          3D

 21 21  0  0  1  0  0  0  0  0999 V2000
   12.8022  -14.4260   18.6516 N   0  0  0  0  0  0  0  0  0  0  0  0
   11.3889  -14.5424   18.7593 C   0  0  0  0  0  0  0  0  0  0  0  0
   10.8719  -14.4287   20.1332 C   0  0  0  0  0  0  0  0  0  0  0  0
   11.5626  -14.8604   21.0699 O   0  0  0  0  0  0  0  0  0  0  0  0
    9.6211  -13.8439   20.3867 N   0  0  0  0  0  0  0  0  0  0  0  0
    9.0874  -12.7422   19.5426 C   0  0  0  0  0  0  0  0  0  0  0  0
    7.7046  -13.2965   19.2484 C   0  0  0  0  0  0  0  0  0  0  0  0
    7.3411  -14.1588   20.4203 C   0  0  0  0  0  0  0  0  0  0  0  0
    8.5784  -13.9954   21.3206 C   0  0  1  0  0  0  0  0  0  0  0  0
    8.5645  -15.0951   22.2498 C   0  0  0  0  0  0  0  0  0  0  0  0
    8.6186  -16.3150   22.0641 O   0  0  0  0  0  0  0  0  0  0  0  0
    9.3921  -15.1803   29.6311 N   0  0  0  0  0  0  0  0  0  0  0  0
    9.1300  -14.6709   28.3393 C   0  0  0  0  0  0  0  0  0  0  0  0
    9.0208  -13.4344   28.1718 O   0  0  0  0  0  0  0  0  0  0  0  0
    8.9933  -15.6594   27.2110 C   0  0  0  0  0  0  0  0  0  0  0  0
    8.8858  -14.8681   25.9554 C   0  0  0  0  0  0  0  0  0  0  0  0
    8.6226  -15.6764   24.7073 C   0  0  2  0  0  0  0  0  0  0  0  0
    8.4710  -14.7001   23.6408 N   0  0  0  0  0  0  0  0  0  0  0  0
    7.3173  -16.3612   24.8638 C   0  0  0  0  0  0  0  0  0  0  0  0
    6.2357  -15.8460   24.4132 O   0  0  0  0  0  0  0  0  0  0  0  0
    7.1494  -17.5844   25.4908 O   0  0  0  0  0  0  0  0  0  0  0  0
  1  2  1  0
  2  3  1  0
  3  4  2  0
  5  9  1  0
  5  3  1  0
  6  5  1  0
  7  6  1  0
  7  8  1  0
  8  9  1  0
  9 10  1  6
 10 18  1  0
 10 11  2  0
 12 13  1  0
 13 14  2  0
 15 16  1  0
 15 13  1  0
 17 16  1  1
 17 19  1  0
 18 17  1  0
 19 20  2  0
 19 21  1  0
M  END
$$$$
