SDT.pdb
     RDKit          3D

 22 21  0  0  1  0  0  0  0  0999 V2000
   25.1388  -10.3991  -15.9675 O   0  0  0  0  0  0  0  0  0  0  0  0
   24.4738  -10.8519  -14.8401 C   0  0  0  0  0  0  0  0  0  0  0  0
   23.0789  -11.3057  -15.2363 C   0  0  2  0  0  0  0  0  0  0  0  0
   23.2157  -12.2641  -16.3367 N   0  0  0  0  0  0  0  0  0  0  0  0
   22.2722  -10.1542  -15.7293 C   0  0  0  0  0  0  0  0  0  0  0  0
   22.1763   -9.9016  -16.9777 O   0  0  0  0  0  0  0  0  0  0  0  0
   21.5713   -9.2797  -14.8627 N   0  0  0  0  0  0  0  0  0  0  0  0
   20.8300   -8.1206  -15.3905 C   0  0  1  0  0  0  0  0  0  0  0  0
   19.4011   -8.1753  -14.9440 C   0  0  0  0  0  0  0  0  0  0  0  0
   18.6044   -9.2598  -15.4942 C   0  0  0  0  0  0  0  0  0  0  0  0
   18.0016  -10.1093  -14.8035 O   0  0  0  0  0  0  0  0  0  0  0  0
   21.5216   -6.8839  -14.9432 C   0  0  0  0  0  0  0  0  0  0  0  0
   22.0228   -6.8324  -13.8147 O   0  0  0  0  0  0  0  0  0  0  0  0
   18.4765   -9.3969  -16.8985 O   0  0  0  0  0  0  0  0  0  0  0  0
   23.3393   -2.3790  -15.9810 C   0  0  0  0  0  0  0  0  0  0  0  0
   22.5690   -3.5742  -16.4072 C   0  0  1  0  0  0  0  0  0  0  0  0
   23.2152   -4.1769  -17.4844 O   0  0  0  0  0  0  0  0  0  0  0  0
   22.3499   -4.5841  -15.3091 C   0  0  2  0  0  0  0  0  0  0  0  0
   21.6305   -5.7393  -15.7803 N   0  0  0  0  0  0  0  0  0  0  0  0
   21.6944   -4.0337  -14.1276 C   0  0  0  0  0  0  0  0  0  0  0  0
   22.4081   -3.6090  -13.1820 O   0  0  0  0  0  0  0  0  0  0  0  0
   20.3212   -3.9387  -13.9568 O   0  0  0  0  0  0  0  0  0  0  0  0
  1  2  1  0
  2  3  1  0
  3  4  1  6
  5  3  1  0
  5  7  1  0
  6  5  2  0
  8  7  1  0
  8 12  1  0
  8  9  1  1
 10  9  1  0
 10 14  1  0
 11 10  2  0
 12 13  2  0
 12 19  1  0
 16 15  1  1
 17 16  1  0
 18 16  1  0
 18 20  1  0
 18 19  1  6
 20 22  1  0
 21 20  2  0
M  END
$$$$
