SDT.pdb
     RDKit          3D

 22 21  0  0  1  0  0  0  0  0999 V2000
   15.5904  -12.2038  -16.4189 O   0  0  0  0  0  0  0  0  0  0  0  0
   16.5798  -11.2564  -16.6234 C   0  0  0  0  0  0  0  0  0  0  0  0
   16.2069  -10.4014  -17.8227 C   0  0  2  0  0  0  0  0  0  0  0  0
   16.1205  -11.2823  -18.9909 N   0  0  0  0  0  0  0  0  0  0  0  0
   17.2629   -9.3855  -18.0922 C   0  0  0  0  0  0  0  0  0  0  0  0
   17.5700   -9.0533  -19.2867 O   0  0  0  0  0  0  0  0  0  0  0  0
   17.9829   -8.7331  -17.0612 N   0  0  0  0  0  0  0  0  0  0  0  0
   18.9732   -7.6867  -17.3714 C   0  0  1  0  0  0  0  0  0  0  0  0
   18.3082   -6.5355  -18.0617 C   0  0  0  0  0  0  0  0  0  0  0  0
   19.1530   -5.3842  -18.3346 C   0  0  0  0  0  0  0  0  0  0  0  0
   20.2649   -5.4473  -18.9019 O   0  0  0  0  0  0  0  0  0  0  0  0
   19.6383   -7.2864  -16.1043 C   0  0  0  0  0  0  0  0  0  0  0  0
   18.9563   -7.0073  -15.1122 O   0  0  0  0  0  0  0  0  0  0  0  0
   18.7243   -4.0898  -17.9499 O   0  0  0  0  0  0  0  0  0  0  0  0
   23.3537   -8.8692  -13.4988 C   0  0  0  0  0  0  0  0  0  0  0  0
   22.5909   -8.6520  -14.7536 C   0  0  1  0  0  0  0  0  0  0  0  0
   21.8601   -9.8003  -15.0515 O   0  0  0  0  0  0  0  0  0  0  0  0
   21.6740   -7.4557  -14.7127 C   0  0  2  0  0  0  0  0  0  0  0  0
   21.0540   -7.2127  -15.9898 N   0  0  0  0  0  0  0  0  0  0  0  0
   22.3177   -6.2390  -14.2291 C   0  0  0  0  0  0  0  0  0  0  0  0
   22.3686   -6.0331  -12.9886 O   0  0  0  0  0  0  0  0  0  0  0  0
   22.8892   -5.2701  -15.0407 O   0  0  0  0  0  0  0  0  0  0  0  0
  1  2  1  0
  2  3  1  0
  3  4  1  6
  5  3  1  0
  5  7  1  0
  6  5  2  0
  8  7  1  0
  8 12  1  0
  8  9  1  1
 10  9  1  0
 10 14  1  0
 11 10  2  0
 12 13  2  0
 12 19  1  0
 16 15  1  1
 17 16  1  0
 18 16  1  0
 18 20  1  0
 18 19  1  6
 20 22  1  0
 21 20  2  0
M  END
$$$$
