SDT.pdb
     RDKit          3D

 22 21  0  0  1  0  0  0  0  0999 V2000
   22.9546  -11.3101  -17.3928 O   0  0  0  0  0  0  0  0  0  0  0  0
   22.0258  -11.8953  -16.5483 C   0  0  0  0  0  0  0  0  0  0  0  0
   20.6290  -11.6072  -17.0721 C   0  0  2  0  0  0  0  0  0  0  0  0
   20.6175  -11.9096  -18.5061 N   0  0  0  0  0  0  0  0  0  0  0  0
   20.2925  -10.1654  -16.9053 C   0  0  0  0  0  0  0  0  0  0  0  0
   20.5027   -9.3254  -17.8444 O   0  0  0  0  0  0  0  0  0  0  0  0
   19.7280   -9.6403  -15.7168 N   0  0  0  0  0  0  0  0  0  0  0  0
   19.3654   -8.2157  -15.6132 C   0  0  1  0  0  0  0  0  0  0  0  0
   18.0389   -8.0691  -14.9330 C   0  0  0  0  0  0  0  0  0  0  0  0
   16.8955   -8.6159  -15.6452 C   0  0  0  0  0  0  0  0  0  0  0  0
   16.5887   -8.3140  -16.8187 O   0  0  0  0  0  0  0  0  0  0  0  0
   20.4575   -7.5096  -14.8943 C   0  0  0  0  0  0  0  0  0  0  0  0
   21.0116   -8.0509  -13.9313 O   0  0  0  0  0  0  0  0  0  0  0  0
   16.0503   -9.5550  -15.0041 O   0  0  0  0  0  0  0  0  0  0  0  0
   22.8038   -4.5031  -16.7420 C   0  0  0  0  0  0  0  0  0  0  0  0
   23.1705   -5.3873  -15.6075 C   0  0  1  0  0  0  0  0  0  0  0  0
   24.2662   -4.8455  -14.9385 O   0  0  0  0  0  0  0  0  0  0  0  0
   22.0448   -5.6328  -14.6348 C   0  0  2  0  0  0  0  0  0  0  0  0
   20.8961   -6.2131  -15.2812 N   0  0  0  0  0  0  0  0  0  0  0  0
   21.6500   -4.4469  -13.8823 C   0  0  0  0  0  0  0  0  0  0  0  0
   20.4844   -3.9961  -14.0307 O   0  0  0  0  0  0  0  0  0  0  0  0
   22.4706   -3.7606  -12.9994 O   0  0  0  0  0  0  0  0  0  0  0  0
  1  2  1  0
  2  3  1  0
  3  4  1  6
  5  3  1  0
  5  7  1  0
  6  5  2  0
  8  7  1  0
  8 12  1  0
  8  9  1  1
 10  9  1  0
 10 14  1  0
 11 10  2  0
 12 13  2  0
 12 19  1  0
 16 15  1  6
 17 16  1  0
 18 16  1  0
 18 20  1  0
 18 19  1  6
 20 22  1  0
 21 20  2  0
M  END
$$$$
