SDT.pdb
     RDKit          3D

 22 21  0  0  1  0  0  0  0  0999 V2000
   11.8549  -12.5074  -14.4552 O   0  0  0  0  0  0  0  0  0  0  0  0
   12.8067  -12.0427  -13.5627 C   0  0  0  0  0  0  0  0  0  0  0  0
   14.1037  -11.7851  -14.3109 C   0  0  2  0  0  0  0  0  0  0  0  0
   14.7171  -13.0836  -14.6037 N   0  0  0  0  0  0  0  0  0  0  0  0
   15.0536  -11.0104  -13.4640 C   0  0  0  0  0  0  0  0  0  0  0  0
   15.6376  -11.5497  -12.4641 O   0  0  0  0  0  0  0  0  0  0  0  0
   15.3663   -9.6501  -13.7067 N   0  0  0  0  0  0  0  0  0  0  0  0
   16.3620   -8.9412  -12.8835 C   0  0  1  0  0  0  0  0  0  0  0  0
   17.3798   -8.2794  -13.7609 C   0  0  0  0  0  0  0  0  0  0  0  0
   18.3415   -7.4238  -13.0851 C   0  0  0  0  0  0  0  0  0  0  0  0
   18.0318   -6.4465  -12.3702 O   0  0  0  0  0  0  0  0  0  0  0  0
   15.6423   -7.9748  -12.0138 C   0  0  0  0  0  0  0  0  0  0  0  0
   14.9327   -7.0995  -12.5213 O   0  0  0  0  0  0  0  0  0  0  0  0
   19.7283   -7.6811  -13.2188 O   0  0  0  0  0  0  0  0  0  0  0  0
   14.8285   -8.6478   -7.8799 C   0  0  0  0  0  0  0  0  0  0  0  0
   14.1280   -7.7076   -8.7902 C   0  0  1  0  0  0  0  0  0  0  0  0
   13.4775   -6.7348   -8.0338 O   0  0  0  0  0  0  0  0  0  0  0  0
   15.0305   -7.0513   -9.8043 C   0  0  2  0  0  0  0  0  0  0  0  0
   15.7412   -8.0222  -10.5957 N   0  0  0  0  0  0  0  0  0  0  0  0
   15.9678   -6.0954   -9.2243 C   0  0  0  0  0  0  0  0  0  0  0  0
   17.1733   -6.4325   -9.0939 O   0  0  0  0  0  0  0  0  0  0  0  0
   15.6327   -4.8197   -8.7952 O   0  0  0  0  0  0  0  0  0  0  0  0
  1  2  1  0
  2  3  1  0
  3  4  1  1
  5  3  1  0
  5  7  1  0
  6  5  2  0
  8  7  1  0
  8 12  1  0
  8  9  1  6
 10  9  1  0
 10 14  1  0
 11 10  2  0
 12 13  2  0
 12 19  1  0
 16 15  1  1
 17 16  1  0
 18 16  1  0
 18 20  1  0
 18 19  1  1
 20 22  1  0
 21 20  2  0
M  END
$$$$
