SDT.pdb
     RDKit          3D

 22 21  0  0  1  0  0  0  0  0999 V2000
   20.4641  -14.4360  -19.9837 O   0  0  0  0  0  0  0  0  0  0  0  0
   19.9410  -13.3359  -19.3246 C   0  0  0  0  0  0  0  0  0  0  0  0
   20.6052  -13.2114  -17.9638 C   0  0  2  0  0  0  0  0  0  0  0  0
   20.1605  -14.3417  -17.1435 N   0  0  0  0  0  0  0  0  0  0  0  0
   20.1786  -11.9562  -17.2839 C   0  0  0  0  0  0  0  0  0  0  0  0
   19.0573  -11.8826  -16.6764 O   0  0  0  0  0  0  0  0  0  0  0  0
   20.9729  -10.7832  -17.2665 N   0  0  0  0  0  0  0  0  0  0  0  0
   20.5026   -9.5575  -16.5972 C   0  0  1  0  0  0  0  0  0  0  0  0
   21.2251   -9.3691  -15.2986 C   0  0  0  0  0  0  0  0  0  0  0  0
   20.8919   -8.1652  -14.5548 C   0  0  0  0  0  0  0  0  0  0  0  0
   19.8075   -7.5524  -14.6590 O   0  0  0  0  0  0  0  0  0  0  0  0
   20.6952   -8.4163  -17.5292 C   0  0  0  0  0  0  0  0  0  0  0  0
   21.7788   -8.2669  -18.1043 O   0  0  0  0  0  0  0  0  0  0  0  0
   21.8284   -7.6200  -13.6421 O   0  0  0  0  0  0  0  0  0  0  0  0
   18.5310   -7.3061  -20.5923 C   0  0  0  0  0  0  0  0  0  0  0  0
   18.7470   -6.1821  -19.6470 C   0  0  1  0  0  0  0  0  0  0  0  0
   17.5778   -5.9605  -18.9222 O   0  0  0  0  0  0  0  0  0  0  0  0
   19.9047   -6.3902  -18.7036 C   0  0  2  0  0  0  0  0  0  0  0  0
   19.6608   -7.4751  -17.7884 N   0  0  0  0  0  0  0  0  0  0  0  0
   20.2846   -5.1896  -17.9668 C   0  0  0  0  0  0  0  0  0  0  0  0
   20.0686   -5.1459  -16.7278 O   0  0  0  0  0  0  0  0  0  0  0  0
   20.8758   -4.0689  -18.5312 O   0  0  0  0  0  0  0  0  0  0  0  0
  1  2  1  0
  2  3  1  0
  3  4  1  1
  5  3  1  0
  5  7  1  0
  6  5  2  0
  8  7  1  0
  8 12  1  0
  8  9  1  1
 10  9  1  0
 10 14  1  0
 11 10  2  0
 12 13  2  0
 12 19  1  0
 16 15  1  1
 17 16  1  0
 18 16  1  0
 18 20  1  0
 18 19  1  1
 20 22  1  0
 21 20  2  0
M  END
$$$$
