SDT.pdb
     RDKit          3D

 22 21  0  0  1  0  0  0  0  0999 V2000
   18.1960  -11.6555  -17.0939 O   0  0  0  0  0  0  0  0  0  0  0  0
   19.3555  -11.4028  -17.8082 C   0  0  0  0  0  0  0  0  0  0  0  0
   20.5383  -11.4189  -16.8547 C   0  0  2  0  0  0  0  0  0  0  0  0
   20.5049  -12.6873  -16.1213 N   0  0  0  0  0  0  0  0  0  0  0  0
   20.4282  -10.3130  -15.8625 C   0  0  0  0  0  0  0  0  0  0  0  0
   20.0804  -10.5416  -14.6548 O   0  0  0  0  0  0  0  0  0  0  0  0
   20.6968   -8.9602  -16.1863 N   0  0  0  0  0  0  0  0  0  0  0  0
   20.5716   -7.8975  -15.1730 C   0  0  1  0  0  0  0  0  0  0  0  0
   21.9086   -7.2752  -14.9101 C   0  0  0  0  0  0  0  0  0  0  0  0
   21.9197   -6.1665  -13.9698 C   0  0  0  0  0  0  0  0  0  0  0  0
   21.5474   -6.2507  -12.7796 O   0  0  0  0  0  0  0  0  0  0  0  0
   19.5677   -6.9131  -15.6538 C   0  0  0  0  0  0  0  0  0  0  0  0
   19.6023   -6.5202  -16.8250 O   0  0  0  0  0  0  0  0  0  0  0  0
   22.3757   -4.8924  -14.3894 O   0  0  0  0  0  0  0  0  0  0  0  0
   15.2151   -4.6889  -15.2460 C   0  0  0  0  0  0  0  0  0  0  0  0
   16.2310   -5.6426  -14.7341 C   0  0  1  0  0  0  0  0  0  0  0  0
   15.7955   -6.9457  -14.9660 O   0  0  0  0  0  0  0  0  0  0  0  0
   17.6050   -5.4475  -15.3237 C   0  0  2  0  0  0  0  0  0  0  0  0
   18.5514   -6.3994  -14.8017 N   0  0  0  0  0  0  0  0  0  0  0  0
   18.1223   -4.0919  -15.1707 C   0  0  0  0  0  0  0  0  0  0  0  0
   18.8215   -3.8212  -14.1599 O   0  0  0  0  0  0  0  0  0  0  0  0
   17.9019   -3.0554  -16.0656 O   0  0  0  0  0  0  0  0  0  0  0  0
  1  2  1  0
  2  3  1  0
  3  4  1  1
  5  3  1  0
  5  7  1  0
  6  5  2  0
  8  7  1  0
  8 12  1  0
  8  9  1  6
 10  9  1  0
 10 14  1  0
 11 10  2  0
 12 13  2  0
 12 19  1  0
 16 15  1  6
 17 16  1  0
 18 16  1  0
 18 20  1  0
 18 19  1  1
 20 22  1  0
 21 20  2  0
M  END
$$$$
