SDT.pdb
     RDKit          3D

 22 21  0  0  1  0  0  0  0  0999 V2000
   23.8415  -21.2193  -20.1000 O   0  0  0  0  0  0  0  0  0  0  0  0
   24.3271  -21.4288  -18.8199 C   0  0  0  0  0  0  0  0  0  0  0  0
   24.8772  -20.1202  -18.2783 C   0  0  2  0  0  0  0  0  0  0  0  0
   26.3400  -20.1926  -18.3334 N   0  0  0  0  0  0  0  0  0  0  0  0
   24.4812  -19.9333  -16.8542 C   0  0  0  0  0  0  0  0  0  0  0  0
   24.9840  -18.9963  -16.1465 O   0  0  0  0  0  0  0  0  0  0  0  0
   23.5386  -20.7665  -16.2028 N   0  0  0  0  0  0  0  0  0  0  0  0
   23.0969  -20.4818  -14.8260 C   0  0  1  0  0  0  0  0  0  0  0  0
   21.6882  -20.9512  -14.6287 C   0  0  0  0  0  0  0  0  0  0  0  0
   21.1398  -20.7726  -13.2941 C   0  0  0  0  0  0  0  0  0  0  0  0
   21.7679  -20.2690  -12.3381 O   0  0  0  0  0  0  0  0  0  0  0  0
   24.0515  -21.1287  -13.8888 C   0  0  0  0  0  0  0  0  0  0  0  0
   24.2195  -22.3524  -13.9281 O   0  0  0  0  0  0  0  0  0  0  0  0
   19.8116  -21.1815  -13.0184 O   0  0  0  0  0  0  0  0  0  0  0  0
   28.0320  -21.1173  -11.1572 C   0  0  0  0  0  0  0  0  0  0  0  0
   27.1105  -20.6148  -12.2069 C   0  0  1  0  0  0  0  0  0  0  0  0
   27.5815  -21.0077  -13.4580 O   0  0  0  0  0  0  0  0  0  0  0  0
   25.6815  -21.0634  -12.0320 C   0  0  2  0  0  0  0  0  0  0  0  0
   24.7915  -20.3785  -12.9336 N   0  0  0  0  0  0  0  0  0  0  0  0
   25.1933  -20.9470  -10.6621 C   0  0  0  0  0  0  0  0  0  0  0  0
   24.4162  -19.9997  -10.3747 O   0  0  0  0  0  0  0  0  0  0  0  0
   25.5224  -21.8118   -9.6288 O   0  0  0  0  0  0  0  0  0  0  0  0
  1  2  1  0
  2  3  1  0
  3  4  1  1
  5  3  1  0
  5  7  1  0
  6  5  2  0
  8  7  1  0
  8 12  1  0
  8  9  1  6
 10  9  1  0
 10 14  1  0
 11 10  2  0
 12 13  2  0
 12 19  1  0
 16 15  1  1
 17 16  1  0
 18 16  1  0
 18 20  1  0
 18 19  1  6
 20 22  1  0
 21 20  2  0
M  END
$$$$
