SDT.pdb
     RDKit          3D

 22 21  0  0  1  0  0  0  0  0999 V2000
   20.1514   -8.9153  -14.5749 O   0  0  0  0  0  0  0  0  0  0  0  0
   18.9658   -8.5365  -13.9673 C   0  0  0  0  0  0  0  0  0  0  0  0
   18.1257   -9.7750  -13.7048 C   0  0  2  0  0  0  0  0  0  0  0  0
   17.6527  -10.2773  -14.9979 N   0  0  0  0  0  0  0  0  0  0  0  0
   16.9317   -9.4349  -12.8810 C   0  0  0  0  0  0  0  0  0  0  0  0
   15.9195   -8.8498  -13.3954 O   0  0  0  0  0  0  0  0  0  0  0  0
   16.8415   -9.7323  -11.4988 N   0  0  0  0  0  0  0  0  0  0  0  0
   15.6637   -9.3287  -10.7105 C   0  0  1  0  0  0  0  0  0  0  0  0
   15.1685  -10.4834   -9.8948 C   0  0  0  0  0  0  0  0  0  0  0  0
   14.4447  -11.5123  -10.6235 C   0  0  0  0  0  0  0  0  0  0  0  0
   14.1031  -11.4160  -11.8220 O   0  0  0  0  0  0  0  0  0  0  0  0
   16.0422   -8.1595   -9.8752 C   0  0  0  0  0  0  0  0  0  0  0  0
   17.0065   -8.2383   -9.1063 O   0  0  0  0  0  0  0  0  0  0  0  0
   14.0855  -12.7169   -9.9700 O   0  0  0  0  0  0  0  0  0  0  0  0
   17.3660   -4.9336  -10.9979 C   0  0  0  0  0  0  0  0  0  0  0  0
   16.1835   -4.6576  -10.1441 C   0  0  1  0  0  0  0  0  0  0  0  0
   15.0943   -4.3455  -10.9550 O   0  0  0  0  0  0  0  0  0  0  0  0
   15.8239   -5.7881   -9.2134 C   0  0  2  0  0  0  0  0  0  0  0  0
   15.3242   -6.9330   -9.9302 N   0  0  0  0  0  0  0  0  0  0  0  0
   14.8865   -5.4075   -8.1622 C   0  0  0  0  0  0  0  0  0  0  0  0
   15.2355   -4.5325   -7.3276 O   0  0  0  0  0  0  0  0  0  0  0  0
   13.6164   -5.9419   -8.0032 O   0  0  0  0  0  0  0  0  0  0  0  0
  1  2  1  0
  2  3  1  0
  3  4  1  6
  5  3  1  0
  5  7  1  0
  6  5  2  0
  8  7  1  0
  8 12  1  0
  8  9  1  1
 10  9  1  0
 10 14  1  0
 11 10  2  0
 12 13  2  0
 12 19  1  0
 16 15  1  6
 17 16  1  0
 18 16  1  0
 18 20  1  0
 18 19  1  6
 20 22  1  0
 21 20  2  0
M  END
$$$$
