SDT.pdb
     RDKit          3D

 22 21  0  0  1  0  0  0  0  0999 V2000
   14.3436   -8.1109  -14.4172 O   0  0  0  0  0  0  0  0  0  0  0  0
   15.4759   -7.3218  -14.5344 C   0  0  0  0  0  0  0  0  0  0  0  0
   16.6902   -8.1318  -14.1127 C   0  0  2  0  0  0  0  0  0  0  0  0
   16.5462   -8.4457  -12.6883 N   0  0  0  0  0  0  0  0  0  0  0  0
   17.9377   -7.3352  -14.2823 C   0  0  0  0  0  0  0  0  0  0  0  0
   18.2450   -6.4065  -13.4609 O   0  0  0  0  0  0  0  0  0  0  0  0
   18.8487   -7.5506  -15.3457 N   0  0  0  0  0  0  0  0  0  0  0  0
   20.0347   -6.6925  -15.5153 C   0  0  1  0  0  0  0  0  0  0  0  0
   21.2844   -7.4956  -15.3225 C   0  0  0  0  0  0  0  0  0  0  0  0
   21.5610   -7.9237  -13.9609 C   0  0  0  0  0  0  0  0  0  0  0  0
   21.7381   -7.1429  -13.0011 O   0  0  0  0  0  0  0  0  0  0  0  0
   19.9628   -6.0609  -16.8584 C   0  0  0  0  0  0  0  0  0  0  0  0
   19.5571   -6.7146  -17.8255 O   0  0  0  0  0  0  0  0  0  0  0  0
   21.6421   -9.3059  -13.6605 O   0  0  0  0  0  0  0  0  0  0  0  0
   19.7742   -2.0594  -19.7006 C   0  0  0  0  0  0  0  0  0  0  0  0
   19.9573   -2.6709  -18.3604 C   0  0  1  0  0  0  0  0  0  0  0  0
   18.8221   -2.4333  -17.5882 O   0  0  0  0  0  0  0  0  0  0  0  0
   20.2529   -4.1490  -18.3978 C   0  0  2  0  0  0  0  0  0  0  0  0
   20.3490   -4.7092  -17.0745 N   0  0  0  0  0  0  0  0  0  0  0  0
   21.4404   -4.4907  -19.1735 C   0  0  0  0  0  0  0  0  0  0  0  0
   22.5526   -4.5417  -18.5869 O   0  0  0  0  0  0  0  0  0  0  0  0
   21.4447   -4.7688  -20.5324 O   0  0  0  0  0  0  0  0  0  0  0  0
  1  2  1  0
  2  3  1  0
  3  4  1  1
  5  3  1  0
  5  7  1  0
  6  5  2  0
  8  7  1  0
  8 12  1  0
  8  9  1  6
 10  9  1  0
 10 14  1  0
 11 10  2  0
 12 13  2  0
 12 19  1  0
 16 15  1  6
 17 16  1  0
 18 16  1  0
 18 20  1  0
 18 19  1  1
 20 22  1  0
 21 20  2  0
M  END
$$$$
