DRY.pdb
     RDKit          3D

 32 32  0  0  1  0  0  0  0  0999 V2000
   24.3278  -19.1077  -21.2264 N   0  0  0  0  0  0  0  0  0  0  0  0
   23.7691  -18.4033  -20.0781 C   0  0  1  0  0  0  0  0  0  0  0  0
   22.6056  -17.5655  -20.5660 C   0  0  0  0  0  0  0  0  0  0  0  0
   23.1473  -16.3364  -21.2139 C   0  0  0  0  0  0  0  0  0  0  0  0
   24.3267  -15.9608  -21.0123 O   0  0  0  0  0  0  0  0  0  0  0  0
   23.2618  -19.4117  -19.1221 C   0  0  0  0  0  0  0  0  0  0  0  0
   23.1278  -20.6172  -19.4644 O   0  0  0  0  0  0  0  0  0  0  0  0
   22.3461  -15.5719  -22.0653 O   0  0  0  0  0  0  0  0  0  0  0  0
   24.8159  -24.5726  -14.5869 N   0  0  0  0  0  0  0  0  0  0  0  0
   24.3719  -23.5523  -13.7156 C   0  0  0  0  0  0  0  0  0  0  0  0
   23.4435  -23.7265  -12.8465 N   0  0  0  0  0  0  0  0  0  0  0  0
   24.9604  -22.2394  -13.7727 N   0  0  0  0  0  0  0  0  0  0  0  0
   24.2088  -21.0368  -13.4966 C   0  0  0  0  0  0  0  0  0  0  0  0
   23.1327  -20.9229  -14.5465 C   0  0  0  0  0  0  0  0  0  0  0  0
   23.4822  -20.1229  -15.7235 C   0  0  0  0  0  0  0  0  0  0  0  0
   22.4470  -19.9766  -16.7833 C   0  0  2  0  0  0  0  0  0  0  0  0
   22.9208  -19.0305  -17.8076 N   0  0  0  0  0  0  0  0  0  0  0  0
   21.1238  -19.5113  -16.3362 C   0  0  0  0  0  0  0  0  0  0  0  0
   21.0176  -18.3480  -15.7904 O   0  0  0  0  0  0  0  0  0  0  0  0
   23.1485  -22.9430  -12.2441 O   0  0  0  0  0  0  0  0  0  0  0  0
   18.1100  -23.8759  -10.9091 C   0  0  0  0  0  0  0  0  0  0  0  0
   18.3496  -22.7850  -11.7671 C   0  0  0  0  0  0  0  0  0  0  0  0
   19.6288  -22.4155  -12.1132 C   0  0  0  0  0  0  0  0  0  0  0  0
   19.8350  -21.3373  -12.9593 C   0  0  0  0  0  0  0  0  0  0  0  0
   18.7948  -20.5963  -13.4860 C   0  0  0  0  0  0  0  0  0  0  0  0
   18.9736  -19.4479  -14.3689 C   0  0  2  0  0  0  0  0  0  0  0  0
   18.6695  -19.7017  -15.8195 N   0  0  0  0  0  0  0  0  0  0  0  0
   19.8960  -20.2002  -16.4326 C   0  0  0  0  0  0  0  0  0  0  0  0
   18.3810  -18.4076  -16.4837 O   0  0  0  0  0  0  0  0  0  0  0  0
   19.2312  -17.8026  -17.3999 C   0  0  0  0  0  0  0  0  0  0  0  0
   17.5180  -20.9894  -13.1215 C   0  0  0  0  0  0  0  0  0  0  0  0
   17.2975  -22.0638  -12.2776 O   0  0  0  0  0  0  0  0  0  0  0  0
  2  1  1  6
  2  3  1  0
  4  3  1  0
  4  5  2  0
  6  7  2  0
  6  2  1  0
  8  4  1  0
 10  9  1  0
 10 12  1  0
 11 10  2  0
 12 13  1  0
 13 14  1  0
 14 15  1  0
 16 15  1  1
 16 17  1  0
 17  6  1  0
 18 16  1  0
 19 18  2  0
 21 31  2  0
 21 20  1  0
 22 21  1  0
 23 24  1  0
 23 22  2  0
 24 30  2  0
 26 25  1  1
 25 24  1  0
 26 28  1  0
 26 27  1  0
 27 18  1  0
 28 29  1  0
 30 31  1  0
 32 28  2  0
M  END
$$$$
