DRY.pdb
     RDKit          3D

 32 32  0  0  1  0  0  0  0  0999 V2000
   22.6227  -25.5071  -16.0258 N   0  0  0  0  0  0  0  0  0  0  0  0
   21.4332  -26.1002  -15.4256 C   0  0  1  0  0  0  0  0  0  0  0  0
   21.8727  -27.2901  -14.5980 C   0  0  0  0  0  0  0  0  0  0  0  0
   22.1678  -28.4240  -15.5203 C   0  0  0  0  0  0  0  0  0  0  0  0
   21.6710  -28.4730  -16.6707 O   0  0  0  0  0  0  0  0  0  0  0  0
   20.8212  -25.0961  -14.5283 C   0  0  0  0  0  0  0  0  0  0  0  0
   21.5381  -24.3020  -13.8621 O   0  0  0  0  0  0  0  0  0  0  0  0
   23.0104  -29.4635  -15.1190 O   0  0  0  0  0  0  0  0  0  0  0  0
   13.9135  -19.9070  -15.9909 N   0  0  0  0  0  0  0  0  0  0  0  0
   14.7123  -19.4760  -14.9077 C   0  0  0  0  0  0  0  0  0  0  0  0
   14.7218  -18.2654  -14.4808 N   0  0  0  0  0  0  0  0  0  0  0  0
   15.5724  -20.4055  -14.2225 N   0  0  0  0  0  0  0  0  0  0  0  0
   15.7139  -21.7833  -14.6334 C   0  0  0  0  0  0  0  0  0  0  0  0
   16.7667  -22.4128  -13.7568 C   0  0  0  0  0  0  0  0  0  0  0  0
   17.6953  -23.3189  -14.4381 C   0  0  0  0  0  0  0  0  0  0  0  0
   18.7262  -23.9958  -13.6044 C   0  0  2  0  0  0  0  0  0  0  0  0
   19.4180  -25.0170  -14.4091 N   0  0  0  0  0  0  0  0  0  0  0  0
   18.2390  -24.6572  -12.3827 C   0  0  0  0  0  0  0  0  0  0  0  0
   17.5925  -25.7682  -12.4842 O   0  0  0  0  0  0  0  0  0  0  0  0
   15.3012  -18.0112  -13.6664 O   0  0  0  0  0  0  0  0  0  0  0  0
   16.6182  -26.4753   -3.7434 C   0  0  0  0  0  0  0  0  0  0  0  0
   17.1254  -26.0114   -4.9727 C   0  0  0  0  0  0  0  0  0  0  0  0
   18.1497  -26.6666   -5.6162 C   0  0  0  0  0  0  0  0  0  0  0  0
   18.6293  -26.1872   -6.8249 C   0  0  0  0  0  0  0  0  0  0  0  0
   18.1179  -25.0563   -7.4316 C   0  0  0  0  0  0  0  0  0  0  0  0
   18.6055  -24.5149   -8.6962 C   0  0  1  0  0  0  0  0  0  0  0  0
   17.8422  -24.9506   -9.9163 N   0  0  0  0  0  0  0  0  0  0  0  0
   18.3952  -24.2184  -11.0507 C   0  0  0  0  0  0  0  0  0  0  0  0
   16.4352  -24.4996   -9.7895 O   0  0  0  0  0  0  0  0  0  0  0  0
   15.3993  -25.3135   -9.3502 C   0  0  0  0  0  0  0  0  0  0  0  0
   17.0880  -24.4162   -6.7628 C   0  0  0  0  0  0  0  0  0  0  0  0
   16.5994  -24.8838   -5.5553 O   0  0  0  0  0  0  0  0  0  0  0  0
  2  1  1  1
  2  3  1  0
  4  3  1  0
  4  5  2  0
  6  7  2  0
  6  2  1  0
  8  4  1  0
 10  9  1  0
 10 12  1  0
 11 10  2  0
 12 13  1  0
 13 14  1  0
 14 15  1  0
 16 15  1  6
 16 17  1  0
 17  6  1  0
 18 16  1  0
 19 18  2  0
 21 31  2  0
 21 20  1  0
 22 21  1  0
 23 24  1  0
 23 22  2  0
 24 30  2  0
 26 25  1  6
 25 24  1  0
 26 28  1  0
 26 27  1  0
 27 18  1  0
 28 29  1  0
 30 31  1  0
 32 28  2  0
M  END
$$$$
