DRY.pdb
     RDKit          3D

 32 32  0  0  1  0  0  0  0  0999 V2000
   19.0866  -12.6284  -19.4948 N   0  0  0  0  0  0  0  0  0  0  0  0
   19.8709  -11.4006  -19.5596 C   0  0  1  0  0  0  0  0  0  0  0  0
   18.9081  -10.2315  -19.5527 C   0  0  0  0  0  0  0  0  0  0  0  0
   18.2167  -10.1811  -20.8730 C   0  0  0  0  0  0  0  0  0  0  0  0
   18.5964  -10.8923  -21.8336 O   0  0  0  0  0  0  0  0  0  0  0  0
   20.7150  -11.3293  -18.3470 C   0  0  0  0  0  0  0  0  0  0  0  0
   20.4725  -12.0568  -17.3468 O   0  0  0  0  0  0  0  0  0  0  0  0
   17.1233   -9.3341  -21.0689 O   0  0  0  0  0  0  0  0  0  0  0  0
   28.9768  -13.1774  -17.1091 N   0  0  0  0  0  0  0  0  0  0  0  0
   28.4890  -12.6436  -15.8949 C   0  0  0  0  0  0  0  0  0  0  0  0
   29.1334  -12.7166  -14.7871 N   0  0  0  0  0  0  0  0  0  0  0  0
   27.2121  -11.9795  -15.8527 N   0  0  0  0  0  0  0  0  0  0  0  0
   26.3024  -11.9696  -16.9750 C   0  0  0  0  0  0  0  0  0  0  0  0
   25.0784  -11.1930  -16.5606 C   0  0  0  0  0  0  0  0  0  0  0  0
   24.0056  -11.1278  -17.5569 C   0  0  0  0  0  0  0  0  0  0  0  0
   22.7680  -10.3902  -17.1823 C   0  0  2  0  0  0  0  0  0  0  0  0
   21.8083  -10.4395  -18.2983 N   0  0  0  0  0  0  0  0  0  0  0  0
   22.9430   -8.9748  -16.8176 C   0  0  0  0  0  0  0  0  0  0  0  0
   23.4549   -8.1623  -17.6780 O   0  0  0  0  0  0  0  0  0  0  0  0
   28.7302  -12.3105  -13.9292 O   0  0  0  0  0  0  0  0  0  0  0  0
   21.1374   -0.6661  -15.8277 C   0  0  0  0  0  0  0  0  0  0  0  0
   21.2633   -2.0617  -15.9689 C   0  0  0  0  0  0  0  0  0  0  0  0
   20.1896   -2.8995  -15.7744 C   0  0  0  0  0  0  0  0  0  0  0  0
   20.3426   -4.2693  -15.9198 C   0  0  0  0  0  0  0  0  0  0  0  0
   21.5492   -4.8505  -16.2589 C   0  0  0  0  0  0  0  0  0  0  0  0
   21.7512   -6.2883  -16.4082 C   0  0  1  0  0  0  0  0  0  0  0  0
   22.6771   -6.9130  -15.4015 N   0  0  0  0  0  0  0  0  0  0  0  0
   22.6062   -8.3575  -15.5941 C   0  0  0  0  0  0  0  0  0  0  0  0
   22.1482   -6.6590  -14.0396 O   0  0  0  0  0  0  0  0  0  0  0  0
   21.5108   -7.6203  -13.2662 C   0  0  0  0  0  0  0  0  0  0  0  0
   22.6132   -3.9848  -16.4487 C   0  0  0  0  0  0  0  0  0  0  0  0
   22.4746   -2.6151  -16.3067 O   0  0  0  0  0  0  0  0  0  0  0  0
  2  1  1  1
  2  3  1  0
  4  3  1  0
  4  5  2  0
  6  7  2  0
  6  2  1  0
  8  4  1  0
 10  9  1  0
 10 12  1  0
 11 10  2  0
 12 13  1  0
 13 14  1  0
 14 15  1  0
 16 15  1  6
 16 17  1  0
 17  6  1  0
 18 16  1  0
 19 18  2  0
 21 31  2  0
 21 20  1  0
 22 21  1  0
 23 24  1  0
 23 22  2  0
 24 30  2  0
 26 25  1  6
 25 24  1  0
 26 28  1  0
 26 27  1  0
 27 18  1  0
 28 29  1  0
 30 31  1  0
 32 28  2  0
M  END
$$$$
