DRY.pdb
     RDKit          3D

 32 32  0  0  1  0  0  0  0  0999 V2000
   25.0160  -28.2255  -17.5209 N   0  0  0  0  0  0  0  0  0  0  0  0
   26.0505  -27.2014  -17.6086 C   0  0  1  0  0  0  0  0  0  0  0  0
   26.5032  -27.1185  -19.0515 C   0  0  0  0  0  0  0  0  0  0  0  0
   25.2948  -27.0516  -19.9227 C   0  0  0  0  0  0  0  0  0  0  0  0
   24.1653  -26.7827  -19.4486 O   0  0  0  0  0  0  0  0  0  0  0  0
   25.4493  -25.9060  -17.2231 C   0  0  0  0  0  0  0  0  0  0  0  0
   26.0522  -24.8217  -17.4454 O   0  0  0  0  0  0  0  0  0  0  0  0
   25.3964  -27.2888  -21.2955 O   0  0  0  0  0  0  0  0  0  0  0  0
   25.1635  -19.7624  -18.1302 N   0  0  0  0  0  0  0  0  0  0  0  0
   23.7943  -19.4897  -18.3493 C   0  0  0  0  0  0  0  0  0  0  0  0
   23.3804  -18.5222  -19.0843 N   0  0  0  0  0  0  0  0  0  0  0  0
   22.7817  -20.3101  -17.7369 N   0  0  0  0  0  0  0  0  0  0  0  0
   23.0989  -21.4125  -16.8588 C   0  0  0  0  0  0  0  0  0  0  0  0
   22.4094  -22.6384  -17.4016 C   0  0  0  0  0  0  0  0  0  0  0  0
   23.2458  -23.8369  -17.5089 C   0  0  0  0  0  0  0  0  0  0  0  0
   23.4753  -24.6246  -16.2668 C   0  0  2  0  0  0  0  0  0  0  0  0
   24.1852  -25.8716  -16.5983 N   0  0  0  0  0  0  0  0  0  0  0  0
   22.2722  -24.9955  -15.5037 C   0  0  0  0  0  0  0  0  0  0  0  0
   21.2773  -25.5354  -16.1212 O   0  0  0  0  0  0  0  0  0  0  0  0
   22.3688  -18.3489  -19.1857 O   0  0  0  0  0  0  0  0  0  0  0  0
   16.2316  -25.7412   -8.9405 C   0  0  0  0  0  0  0  0  0  0  0  0
   17.3969  -25.5110   -9.6974 C   0  0  0  0  0  0  0  0  0  0  0  0
   17.7943  -24.2361  -10.0280 C   0  0  0  0  0  0  0  0  0  0  0  0
   18.9455  -24.0393  -10.7742 C   0  0  0  0  0  0  0  0  0  0  0  0
   19.7340  -25.0850  -11.2139 C   0  0  0  0  0  0  0  0  0  0  0  0
   20.9446  -24.9173  -12.0117 C   0  0  1  0  0  0  0  0  0  0  0  0
   20.7782  -25.1578  -13.4867 N   0  0  0  0  0  0  0  0  0  0  0  0
   22.0525  -24.8341  -14.1191 C   0  0  0  0  0  0  0  0  0  0  0  0
   19.7990  -24.1830  -14.0251 O   0  0  0  0  0  0  0  0  0  0  0  0
   20.1436  -22.9265  -14.5056 C   0  0  0  0  0  0  0  0  0  0  0  0
   19.3113  -26.3574  -10.8675 C   0  0  0  0  0  0  0  0  0  0  0  0
   18.1640  -26.5684  -10.1229 O   0  0  0  0  0  0  0  0  0  0  0  0
  2  1  1  6
  2  3  1  0
  4  3  1  0
  4  5  2  0
  6  7  2  0
  6  2  1  0
  8  4  1  0
 10  9  1  0
 10 12  1  0
 11 10  2  0
 12 13  1  0
 13 14  1  0
 14 15  1  0
 16 15  1  6
 16 17  1  0
 17  6  1  0
 18 16  1  0
 19 18  2  0
 21 31  2  0
 21 20  1  0
 22 21  1  0
 23 24  1  0
 23 22  2  0
 24 30  2  0
 26 25  1  1
 25 24  1  0
 26 28  1  0
 26 27  1  0
 27 18  1  0
 28 29  1  0
 30 31  1  0
 32 28  2  0
M  END
$$$$
