DRY.pdb
     RDKit          3D

 32 32  0  0  1  0  0  0  0  0999 V2000
   29.6462  -33.2943  -15.8943 N   0  0  0  0  0  0  0  0  0  0  0  0
   29.0441  -32.4510  -16.9206 C   0  0  1  0  0  0  0  0  0  0  0  0
   27.9015  -31.6868  -16.2849 C   0  0  0  0  0  0  0  0  0  0  0  0
   27.2048  -30.9074  -17.3483 C   0  0  0  0  0  0  0  0  0  0  0  0
   27.2988  -29.6582  -17.4063 O   0  0  0  0  0  0  0  0  0  0  0  0
   30.0658  -31.4848  -17.3798 C   0  0  0  0  0  0  0  0  0  0  0  0
   29.8186  -30.6788  -18.3166 O   0  0  0  0  0  0  0  0  0  0  0  0
   26.4271  -31.5575  -18.3095 O   0  0  0  0  0  0  0  0  0  0  0  0
   38.0242  -33.0253  -14.8159 N   0  0  0  0  0  0  0  0  0  0  0  0
   37.4995  -31.7176  -14.7074 C   0  0  0  0  0  0  0  0  0  0  0  0
   37.9223  -30.8608  -13.8501 N   0  0  0  0  0  0  0  0  0  0  0  0
   36.4383  -31.2844  -15.5789 N   0  0  0  0  0  0  0  0  0  0  0  0
   35.8595  -29.9629  -15.5032 C   0  0  0  0  0  0  0  0  0  0  0  0
   34.7653  -29.8865  -16.5376 C   0  0  0  0  0  0  0  0  0  0  0  0
   33.5481  -30.6404  -16.2248 C   0  0  0  0  0  0  0  0  0  0  0  0
   32.4288  -30.5693  -17.2037 C   0  0  2  0  0  0  0  0  0  0  0  0
   31.3365  -31.4560  -16.7684 N   0  0  0  0  0  0  0  0  0  0  0  0
   32.7589  -30.9306  -18.5922 C   0  0  0  0  0  0  0  0  0  0  0  0
   32.4930  -32.1201  -19.0127 O   0  0  0  0  0  0  0  0  0  0  0  0
   37.4849  -29.9284  -13.7953 O   0  0  0  0  0  0  0  0  0  0  0  0
   39.5557  -33.2342  -19.5732 C   0  0  0  0  0  0  0  0  0  0  0  0
   38.2051  -32.9642  -19.8676 C   0  0  0  0  0  0  0  0  0  0  0  0
   37.6517  -33.3213  -21.0754 C   0  0  0  0  0  0  0  0  0  0  0  0
   36.3196  -33.0426  -21.3381 C   0  0  0  0  0  0  0  0  0  0  0  0
   35.4989  -32.4086  -20.4254 C   0  0  0  0  0  0  0  0  0  0  0  0
   34.0966  -32.0875  -20.6714 C   0  0  2  0  0  0  0  0  0  0  0  0
   33.7980  -30.6262  -20.8625 N   0  0  0  0  0  0  0  0  0  0  0  0
   33.3534  -30.1084  -19.5730 C   0  0  0  0  0  0  0  0  0  0  0  0
   32.6386  -30.4880  -21.7766 O   0  0  0  0  0  0  0  0  0  0  0  0
   31.4072  -29.9748  -21.3911 C   0  0  0  0  0  0  0  0  0  0  0  0
   36.0811  -32.0600  -19.2183 C   0  0  0  0  0  0  0  0  0  0  0  0
   37.4098  -32.3321  -18.9426 O   0  0  0  0  0  0  0  0  0  0  0  0
  2  1  1  1
  2  3  1  0
  4  3  1  0
  4  5  2  0
  6  7  2  0
  6  2  1  0
  8  4  1  0
 10  9  1  0
 10 12  1  0
 11 10  2  0
 12 13  1  0
 13 14  1  0
 14 15  1  0
 16 15  1  1
 16 17  1  0
 17  6  1  0
 18 16  1  0
 19 18  2  0
 21 31  2  0
 21 20  1  0
 22 21  1  0
 23 24  1  0
 23 22  2  0
 24 30  2  0
 26 25  1  1
 25 24  1  0
 26 28  1  0
 26 27  1  0
 27 18  1  0
 28 29  1  0
 30 31  1  0
 32 28  2  0
M  END
$$$$
