DRY.pdb
     RDKit          3D

 32 32  0  0  1  0  0  0  0  0999 V2000
   20.8223  -20.1655  -15.4062 N   0  0  0  0  0  0  0  0  0  0  0  0
   20.6232  -20.2692  -13.9652 C   0  0  1  0  0  0  0  0  0  0  0  0
   19.3867  -21.1100  -13.7248 C   0  0  0  0  0  0  0  0  0  0  0  0
   18.1845  -20.2515  -13.9286 C   0  0  0  0  0  0  0  0  0  0  0  0
   18.1477  -19.3894  -14.8386 O   0  0  0  0  0  0  0  0  0  0  0  0
   21.7930  -20.9669  -13.3882 C   0  0  0  0  0  0  0  0  0  0  0  0
   21.7729  -21.3897  -12.2011 O   0  0  0  0  0  0  0  0  0  0  0  0
   17.0658  -20.3907  -13.1038 O   0  0  0  0  0  0  0  0  0  0  0  0
   26.9966  -25.1672  -15.9146 N   0  0  0  0  0  0  0  0  0  0  0  0
   25.8291  -25.6293  -16.5630 C   0  0  0  0  0  0  0  0  0  0  0  0
   25.3993  -26.8344  -16.4597 N   0  0  0  0  0  0  0  0  0  0  0  0
   25.0554  -24.7400  -17.3900 N   0  0  0  0  0  0  0  0  0  0  0  0
   25.0843  -23.3046  -17.2288 C   0  0  0  0  0  0  0  0  0  0  0  0
   24.2201  -22.9634  -16.0415 C   0  0  0  0  0  0  0  0  0  0  0  0
   24.9212  -22.3639  -14.9028 C   0  0  0  0  0  0  0  0  0  0  0  0
   24.1013  -21.9732  -13.7232 C   0  0  2  0  0  0  0  0  0  0  0  0
   22.9513  -21.1676  -14.1677 N   0  0  0  0  0  0  0  0  0  0  0  0
   24.7962  -21.2045  -12.6776 C   0  0  0  0  0  0  0  0  0  0  0  0
   24.8000  -19.9167  -12.7413 O   0  0  0  0  0  0  0  0  0  0  0  0
   24.5878  -27.1412  -17.0173 O   0  0  0  0  0  0  0  0  0  0  0  0
   29.3853  -18.7960   -5.3996 C   0  0  0  0  0  0  0  0  0  0  0  0
   28.6856  -19.5049   -6.3954 C   0  0  0  0  0  0  0  0  0  0  0  0
   29.3458  -20.2951   -7.3077 C   0  0  0  0  0  0  0  0  0  0  0  0
   28.6314  -20.9812   -8.2772 C   0  0  0  0  0  0  0  0  0  0  0  0
   27.2553  -20.9100   -8.3761 C   0  0  0  0  0  0  0  0  0  0  0  0
   26.4710  -21.6072   -9.3904 C   0  0  2  0  0  0  0  0  0  0  0  0
   26.2950  -20.8651  -10.6863 N   0  0  0  0  0  0  0  0  0  0  0  0
   25.4897  -21.7130  -11.5587 C   0  0  0  0  0  0  0  0  0  0  0  0
   27.6149  -20.7376  -11.3502 O   0  0  0  0  0  0  0  0  0  0  0  0
   28.3883  -19.5847  -11.3177 C   0  0  0  0  0  0  0  0  0  0  0  0
   26.6159  -20.1077   -7.4459 C   0  0  0  0  0  0  0  0  0  0  0  0
   27.3166  -19.4170   -6.4726 O   0  0  0  0  0  0  0  0  0  0  0  0
  2  1  1  6
  2  3  1  0
  4  3  1  0
  4  5  2  0
  6  7  2  0
  6  2  1  0
  8  4  1  0
 10  9  1  0
 10 12  1  0
 11 10  2  0
 12 13  1  0
 13 14  1  0
 14 15  1  0
 16 15  1  6
 16 17  1  0
 17  6  1  0
 18 16  1  0
 19 18  2  0
 21 31  2  0
 21 20  1  0
 22 21  1  0
 23 24  1  0
 23 22  2  0
 24 30  2  0
 26 25  1  1
 25 24  1  0
 26 28  1  0
 26 27  1  0
 27 18  1  0
 28 29  1  0
 30 31  1  0
 32 28  2  0
M  END
$$$$
