DRY.pdb
     RDKit          3D

 32 32  0  0  1  0  0  0  0  0999 V2000
   32.0356  -11.1552  -18.7803 N   0  0  0  0  0  0  0  0  0  0  0  0
   31.1947  -10.0459  -18.3453 C   0  0  1  0  0  0  0  0  0  0  0  0
   29.8945  -10.6227  -17.8250 C   0  0  0  0  0  0  0  0  0  0  0  0
   29.1581  -11.2346  -18.9683 C   0  0  0  0  0  0  0  0  0  0  0  0
   29.1077  -10.6694  -20.0867 O   0  0  0  0  0  0  0  0  0  0  0  0
   31.8854   -9.3524  -17.2362 C   0  0  0  0  0  0  0  0  0  0  0  0
   31.2340   -8.8593  -16.2766 O   0  0  0  0  0  0  0  0  0  0  0  0
   28.5041  -12.4596  -18.8162 O   0  0  0  0  0  0  0  0  0  0  0  0
   38.4290  -12.1402  -13.2276 N   0  0  0  0  0  0  0  0  0  0  0  0
   38.6909  -10.9105  -13.8728 C   0  0  0  0  0  0  0  0  0  0  0  0
   39.8709  -10.4206  -13.9973 N   0  0  0  0  0  0  0  0  0  0  0  0
   37.6121  -10.1367  -14.4301 N   0  0  0  0  0  0  0  0  0  0  0  0
   36.2778  -10.6661  -14.5934 C   0  0  0  0  0  0  0  0  0  0  0  0
   35.8405  -10.3678  -16.0051 C   0  0  0  0  0  0  0  0  0  0  0  0
   35.4926   -8.9701  -16.2755 C   0  0  0  0  0  0  0  0  0  0  0  0
   34.0581   -8.5883  -16.1644 C   0  0  2  0  0  0  0  0  0  0  0  0
   33.2910   -9.2358  -17.2421 N   0  0  0  0  0  0  0  0  0  0  0  0
   33.7652   -7.1468  -16.2238 C   0  0  0  0  0  0  0  0  0  0  0  0
   33.7971   -6.5450  -17.3637 O   0  0  0  0  0  0  0  0  0  0  0  0
   40.0150   -9.5571  -14.5425 O   0  0  0  0  0  0  0  0  0  0  0  0
   31.0467    1.0998  -13.9211 C   0  0  0  0  0  0  0  0  0  0  0  0
   31.3609   -0.2712  -13.9919 C   0  0  0  0  0  0  0  0  0  0  0  0
   30.7217   -1.1062  -14.8790 C   0  0  0  0  0  0  0  0  0  0  0  0
   31.0510   -2.4516  -14.9265 C   0  0  0  0  0  0  0  0  0  0  0  0
   32.0131   -3.0107  -14.1077 C   0  0  0  0  0  0  0  0  0  0  0  0
   32.3772   -4.4241  -14.1204 C   0  0  1  0  0  0  0  0  0  0  0  0
   33.1370   -4.8789  -15.3357 N   0  0  0  0  0  0  0  0  0  0  0  0
   33.4351   -6.2948  -15.1484 C   0  0  0  0  0  0  0  0  0  0  0  0
   34.4493   -4.1890  -15.3680 O   0  0  0  0  0  0  0  0  0  0  0  0
   34.6976   -3.0341  -16.0980 C   0  0  0  0  0  0  0  0  0  0  0  0
   32.6407   -2.1484  -13.2244 C   0  0  0  0  0  0  0  0  0  0  0  0
   32.3217   -0.8030  -13.1662 O   0  0  0  0  0  0  0  0  0  0  0  0
  2  1  1  1
  2  3  1  0
  4  3  1  0
  4  5  2  0
  6  7  2  0
  6  2  1  0
  8  4  1  0
 10  9  1  0
 10 12  1  0
 11 10  2  0
 12 13  1  0
 13 14  1  0
 14 15  1  0
 16 15  1  6
 16 17  1  0
 17  6  1  0
 18 16  1  0
 19 18  2  0
 21 31  2  0
 21 20  1  0
 22 21  1  0
 23 24  1  0
 23 22  2  0
 24 30  2  0
 26 25  1  6
 25 24  1  0
 26 28  1  0
 26 27  1  0
 27 18  1  0
 28 29  1  0
 30 31  1  0
 32 28  2  0
M  END
$$$$
