MWQ.pdb
     RDKit          3D

 32 33  0  0  1  0  0  0  0  0999 V2000
    8.5073  -11.5804   19.5450 C   0  0  0  0  0  0  0  0  0  0  0  0
    7.3795  -12.8356   18.9354 S   0  0  0  0  0  0  0  0  0  0  0  0
    7.5695  -14.4561   19.6414 C   0  0  0  0  0  0  0  0  0  0  0  0
    8.8385  -15.1832   19.2930 C   0  0  0  0  0  0  0  0  0  0  0  0
    8.9070  -16.4926   19.9796 C   0  0  2  0  0  0  0  0  0  0  0  0
    7.6646  -17.2341   19.9120 N   0  0  0  0  0  0  0  0  0  0  0  0
    9.2226  -16.2556   21.4425 C   0  0  0  0  0  0  0  0  0  0  0  0
   10.3409  -15.8277   21.7986 O   0  0  0  0  0  0  0  0  0  0  0  0
    8.2750  -16.5059   22.4490 N   0  0  0  0  0  0  0  0  0  0  0  0
    8.5514  -16.2277   23.8456 C   0  0  1  0  0  0  0  0  0  0  0  0
    7.3238  -15.9925   24.6362 C   0  0  0  0  0  0  0  0  0  0  0  0
    7.5813  -15.1467   25.8046 C   0  0  0  0  0  0  0  0  0  0  0  0
    8.2682  -15.4817   26.9528 C   0  0  0  0  0  0  0  0  0  0  0  0
    8.2519  -14.4417   27.8029 N   0  0  0  0  0  0  0  0  0  0  0  0
    7.5684  -13.4151   27.2472 C   0  0  0  0  0  0  0  0  0  0  0  0
    7.3142  -12.1536   27.7475 C   0  0  0  0  0  0  0  0  0  0  0  0
    6.6004  -11.2824   26.9504 C   0  0  0  0  0  0  0  0  0  0  0  0
    6.1644  -11.6739   25.7020 C   0  0  0  0  0  0  0  0  0  0  0  0
    6.4277  -12.9207   25.2347 C   0  0  0  0  0  0  0  0  0  0  0  0
    7.1472  -13.8457   26.0018 C   0  0  0  0  0  0  0  0  0  0  0  0
    9.5567  -17.1507   24.3982 C   0  0  0  0  0  0  0  0  0  0  0  0
    9.5178  -18.3965   24.2188 O   0  0  0  0  0  0  0  0  0  0  0  0
   14.5187  -15.5097   23.4779 N   0  0  0  0  0  0  0  0  0  0  0  0
   14.6379  -16.9144   23.4219 C   0  0  0  0  0  0  0  0  0  0  0  0
   15.3542  -17.4609   22.5702 O   0  0  0  0  0  0  0  0  0  0  0  0
   13.9041  -17.8090   24.3889 C   0  0  0  0  0  0  0  0  0  0  0  0
   13.0725  -17.0150   25.3328 C   0  0  0  0  0  0  0  0  0  0  0  0
   11.7226  -17.5893   25.6495 C   0  0  2  0  0  0  0  0  0  0  0  0
   10.6618  -16.6936   25.1863 N   0  0  0  0  0  0  0  0  0  0  0  0
   11.5875  -17.7565   27.1075 C   0  0  0  0  0  0  0  0  0  0  0  0
   10.7410  -17.1874   27.8368 O   0  0  0  0  0  0  0  0  0  0  0  0
   12.4865  -18.6336   27.7494 O   0  0  0  0  0  0  0  0  0  0  0  0
  1  2  1  0
  3  2  1  0
  4  3  1  0
  5  4  1  0
  5  6  1  1
  7  5  1  0
  7  8  2  0
  9  7  1  0
 10  9  1  0
 11 12  1  0
 10 11  1  1
 12 13  2  0
 13 14  1  0
 15 14  1  0
 16 15  2  0
 17 16  1  0
 18 19  1  0
 18 17  2  0
 19 20  2  0
 20 12  1  0
 20 15  1  0
 21 10  1  0
 22 21  2  0
 23 24  1  0
 24 26  1  0
 24 25  2  0
 26 27  1  0
 28 27  1  1
 28 29  1  0
 28 30  1  0
 29 21  1  0
 30 31  2  0
 30 32  1  0
M  END
$$$$
