MWQ.pdb
     RDKit          3D

 32 33  0  0  1  0  0  0  0  0999 V2000
    7.0140  -11.6021   20.5354 C   0  0  0  0  0  0  0  0  0  0  0  0
    7.5709  -13.0966   19.7136 S   0  0  0  0  0  0  0  0  0  0  0  0
    7.6507  -14.5544   20.7282 C   0  0  0  0  0  0  0  0  0  0  0  0
    8.1805  -15.7938   20.0621 C   0  0  0  0  0  0  0  0  0  0  0  0
    8.2451  -16.9239   21.0157 C   0  0  2  0  0  0  0  0  0  0  0  0
    6.9752  -17.1994   21.6555 N   0  0  0  0  0  0  0  0  0  0  0  0
    9.2439  -16.5827   22.1028 C   0  0  0  0  0  0  0  0  0  0  0  0
   10.4019  -16.2100   21.8191 O   0  0  0  0  0  0  0  0  0  0  0  0
    8.9079  -16.6714   23.4641 N   0  0  0  0  0  0  0  0  0  0  0  0
    9.8647  -16.3618   24.5095 C   0  0  1  0  0  0  0  0  0  0  0  0
    9.2616  -16.3758   25.8598 C   0  0  0  0  0  0  0  0  0  0  0  0
    8.0176  -15.6032   25.9096 C   0  0  0  0  0  0  0  0  0  0  0  0
    6.7323  -16.0612   25.7087 C   0  0  0  0  0  0  0  0  0  0  0  0
    5.8720  -15.0337   25.8023 N   0  0  0  0  0  0  0  0  0  0  0  0
    6.5547  -13.8955   26.0631 C   0  0  0  0  0  0  0  0  0  0  0  0
    6.0849  -12.6114   26.2552 C   0  0  0  0  0  0  0  0  0  0  0  0
    7.0115  -11.6272   26.5319 C   0  0  0  0  0  0  0  0  0  0  0  0
    8.3541  -11.9324   26.6103 C   0  0  0  0  0  0  0  0  0  0  0  0
    8.7890  -13.2034   26.4166 C   0  0  0  0  0  0  0  0  0  0  0  0
    7.8925  -14.2412   26.1319 C   0  0  0  0  0  0  0  0  0  0  0  0
   11.1350  -17.0812   24.3183 C   0  0  0  0  0  0  0  0  0  0  0  0
   11.2049  -18.3331   24.2019 O   0  0  0  0  0  0  0  0  0  0  0  0
   16.9019  -14.3588   21.8884 N   0  0  0  0  0  0  0  0  0  0  0  0
   16.3071  -15.5514   21.4256 C   0  0  0  0  0  0  0  0  0  0  0  0
   16.2775  -15.8226   20.2161 O   0  0  0  0  0  0  0  0  0  0  0  0
   15.6841  -16.5438   22.3746 C   0  0  0  0  0  0  0  0  0  0  0  0
   14.3208  -16.1134   22.7860 C   0  0  0  0  0  0  0  0  0  0  0  0
   13.6042  -17.0382   23.7260 C   0  0  2  0  0  0  0  0  0  0  0  0
   12.3944  -16.4024   24.2495 N   0  0  0  0  0  0  0  0  0  0  0  0
   14.4853  -17.3681   24.8605 C   0  0  0  0  0  0  0  0  0  0  0  0
   15.4062  -18.2191   24.8520 O   0  0  0  0  0  0  0  0  0  0  0  0
   14.2823  -16.6689   26.0686 O   0  0  0  0  0  0  0  0  0  0  0  0
  1  2  1  0
  3  2  1  0
  4  3  1  0
  5  4  1  0
  5  6  1  1
  7  5  1  0
  7  8  2  0
  9  7  1  0
 10  9  1  0
 11 12  1  0
 10 11  1  1
 12 13  2  0
 13 14  1  0
 15 14  1  0
 16 15  2  0
 17 16  1  0
 18 19  1  0
 18 17  2  0
 19 20  2  0
 20 12  1  0
 20 15  1  0
 21 10  1  0
 22 21  2  0
 23 24  1  0
 24 26  1  0
 24 25  2  0
 26 27  1  0
 28 27  1  6
 28 29  1  0
 28 30  1  0
 29 21  1  0
 30 31  2  0
 30 32  1  0
M  END
$$$$
