MWQ.pdb
     RDKit          3D

 32 33  0  0  1  0  0  0  0  0999 V2000
    8.6136  -16.8775   13.7865 C   0  0  0  0  0  0  0  0  0  0  0  0
    9.0750  -16.7697   15.5170 S   0  0  0  0  0  0  0  0  0  0  0  0
    8.9315  -15.1600   16.2579 C   0  0  0  0  0  0  0  0  0  0  0  0
    9.1750  -15.0916   17.7399 C   0  0  0  0  0  0  0  0  0  0  0  0
    8.1748  -14.2258   18.4038 C   0  0  2  0  0  0  0  0  0  0  0  0
    8.2801  -12.8351   18.0131 N   0  0  0  0  0  0  0  0  0  0  0  0
    8.3889  -14.3006   19.9020 C   0  0  0  0  0  0  0  0  0  0  0  0
    9.4772  -13.9637   20.4142 O   0  0  0  0  0  0  0  0  0  0  0  0
    7.3773  -14.7486   20.7678 N   0  0  0  0  0  0  0  0  0  0  0  0
    7.6113  -14.9303   22.1877 C   0  0  1  0  0  0  0  0  0  0  0  0
    6.3580  -15.0031   22.9697 C   0  0  0  0  0  0  0  0  0  0  0  0
    6.6149  -15.0123   24.4122 C   0  0  0  0  0  0  0  0  0  0  0  0
    6.5428  -16.0863   25.2744 C   0  0  0  0  0  0  0  0  0  0  0  0
    6.8135  -15.6750   26.5242 N   0  0  0  0  0  0  0  0  0  0  0  0
    7.0670  -14.3463   26.5174 C   0  0  0  0  0  0  0  0  0  0  0  0
    7.4049  -13.5090   27.5620 C   0  0  0  0  0  0  0  0  0  0  0  0
    7.6332  -12.1805   27.2674 C   0  0  0  0  0  0  0  0  0  0  0  0
    7.5237  -11.7225   25.9712 C   0  0  0  0  0  0  0  0  0  0  0  0
    7.1893  -12.5673   24.9629 C   0  0  0  0  0  0  0  0  0  0  0  0
    6.9456  -13.9252   25.2051 C   0  0  0  0  0  0  0  0  0  0  0  0
    8.6408  -15.9507   22.4458 C   0  0  0  0  0  0  0  0  0  0  0  0
    8.9091  -16.8765   21.6353 O   0  0  0  0  0  0  0  0  0  0  0  0
   13.4232  -16.6644   20.8086 N   0  0  0  0  0  0  0  0  0  0  0  0
   13.7739  -17.3988   21.9610 C   0  0  0  0  0  0  0  0  0  0  0  0
   14.8169  -18.0680   21.9989 O   0  0  0  0  0  0  0  0  0  0  0  0
   12.9016  -17.4033   23.1910 C   0  0  0  0  0  0  0  0  0  0  0  0
   11.6871  -16.5672   22.9935 C   0  0  0  0  0  0  0  0  0  0  0  0
   10.5152  -16.9085   23.8667 C   0  0  2  0  0  0  0  0  0  0  0  0
    9.4192  -15.9635   23.6480 N   0  0  0  0  0  0  0  0  0  0  0  0
   10.9175  -16.8358   25.2826 C   0  0  0  0  0  0  0  0  0  0  0  0
   10.5151  -15.9917   26.1182 O   0  0  0  0  0  0  0  0  0  0  0  0
   11.8373  -17.7978   25.7494 O   0  0  0  0  0  0  0  0  0  0  0  0
  1  2  1  0
  3  2  1  0
  4  3  1  0
  5  4  1  0
  5  6  1  6
  7  5  1  0
  7  8  2  0
  9  7  1  0
 10  9  1  0
 11 12  1  0
 10 11  1  1
 12 13  2  0
 13 14  1  0
 15 14  1  0
 16 15  2  0
 17 16  1  0
 18 19  1  0
 18 17  2  0
 19 20  2  0
 20 12  1  0
 20 15  1  0
 21 10  1  0
 22 21  2  0
 23 24  1  0
 24 26  1  0
 24 25  2  0
 26 27  1  0
 28 27  1  6
 28 29  1  0
 28 30  1  0
 29 21  1  0
 30 31  2  0
 30 32  1  0
M  END
$$$$
