MWQ.pdb
     RDKit          3D

 32 33  0  0  1  0  0  0  0  0999 V2000
    6.9036  -20.0777   20.3864 C   0  0  0  0  0  0  0  0  0  0  0  0
    6.5595  -19.2989   18.8071 S   0  0  0  0  0  0  0  0  0  0  0  0
    7.0082  -17.5837   18.6754 C   0  0  0  0  0  0  0  0  0  0  0  0
    7.9436  -17.0633   19.7312 C   0  0  0  0  0  0  0  0  0  0  0  0
    7.3002  -15.9993   20.5342 C   0  0  2  0  0  0  0  0  0  0  0  0
    7.0392  -14.7945   19.7739 N   0  0  0  0  0  0  0  0  0  0  0  0
    8.2237  -15.6311   21.6776 C   0  0  0  0  0  0  0  0  0  0  0  0
    9.1113  -14.7639   21.5344 O   0  0  0  0  0  0  0  0  0  0  0  0
    8.1177  -16.2469   22.9359 N   0  0  0  0  0  0  0  0  0  0  0  0
    9.0795  -15.9976   23.9927 C   0  0  1  0  0  0  0  0  0  0  0  0
    8.5011  -16.1630   25.3438 C   0  0  0  0  0  0  0  0  0  0  0  0
    7.3674  -15.2617   25.5659 C   0  0  0  0  0  0  0  0  0  0  0  0
    6.0236  -15.5648   25.4975 C   0  0  0  0  0  0  0  0  0  0  0  0
    5.3029  -14.4549   25.7284 N   0  0  0  0  0  0  0  0  0  0  0  0
    6.1367  -13.4134   25.9515 C   0  0  0  0  0  0  0  0  0  0  0  0
    5.8418  -12.0968   26.2448 C   0  0  0  0  0  0  0  0  0  0  0  0
    6.9003  -11.2357   26.4497 C   0  0  0  0  0  0  0  0  0  0  0  0
    8.1993  -11.6904   26.3611 C   0  0  0  0  0  0  0  0  0  0  0  0
    8.4610  -12.9901   26.0706 C   0  0  0  0  0  0  0  0  0  0  0  0
    7.4252  -13.9072   25.8523 C   0  0  0  0  0  0  0  0  0  0  0  0
   10.3739  -16.6428   23.7171 C   0  0  0  0  0  0  0  0  0  0  0  0
   10.4970  -17.8810   23.5235 O   0  0  0  0  0  0  0  0  0  0  0  0
   15.0058  -14.4114   19.9948 N   0  0  0  0  0  0  0  0  0  0  0  0
   15.6794  -15.0165   21.0767 C   0  0  0  0  0  0  0  0  0  0  0  0
   16.8597  -14.7352   21.3317 O   0  0  0  0  0  0  0  0  0  0  0  0
   14.9992  -16.0265   21.9659 C   0  0  0  0  0  0  0  0  0  0  0  0
   13.6668  -15.5393   22.4138 C   0  0  0  0  0  0  0  0  0  0  0  0
   12.8629  -16.5076   23.2315 C   0  0  2  0  0  0  0  0  0  0  0  0
   11.5975  -15.9016   23.6479 N   0  0  0  0  0  0  0  0  0  0  0  0
   13.6205  -16.8809   24.4393 C   0  0  0  0  0  0  0  0  0  0  0  0
   14.6684  -17.5691   24.4657 O   0  0  0  0  0  0  0  0  0  0  0  0
   13.1309  -16.4278   25.6822 O   0  0  0  0  0  0  0  0  0  0  0  0
  1  2  1  0
  3  2  1  0
  4  3  1  0
  5  4  1  0
  5  6  1  6
  7  5  1  0
  7  8  2  0
  9  7  1  0
 10  9  1  0
 11 12  1  0
 10 11  1  1
 12 13  2  0
 13 14  1  0
 15 14  1  0
 16 15  2  0
 17 16  1  0
 18 19  1  0
 18 17  2  0
 19 20  2  0
 20 12  1  0
 20 15  1  0
 21 10  1  0
 22 21  2  0
 23 24  1  0
 24 26  1  0
 24 25  2  0
 26 27  1  0
 28 27  1  1
 28 29  1  0
 28 30  1  0
 29 21  1  0
 30 31  2  0
 30 32  1  0
M  END
$$$$
