MWQ.pdb
     RDKit          3D

 32 33  0  0  1  0  0  0  0  0999 V2000
    8.5177  -11.4981   19.4052 C   0  0  0  0  0  0  0  0  0  0  0  0
    7.1449  -12.6210   19.1341 S   0  0  0  0  0  0  0  0  0  0  0  0
    7.3589  -14.2712   19.7601 C   0  0  0  0  0  0  0  0  0  0  0  0
    8.4922  -14.4678   20.7283 C   0  0  0  0  0  0  0  0  0  0  0  0
    8.6417  -15.8954   21.0893 C   0  0  2  0  0  0  0  0  0  0  0  0
    7.3769  -16.5974   21.1620 N   0  0  0  0  0  0  0  0  0  0  0  0
    9.2961  -15.9833   22.4531 C   0  0  0  0  0  0  0  0  0  0  0  0
   10.4237  -15.4871   22.6592 O   0  0  0  0  0  0  0  0  0  0  0  0
    8.6632  -16.6223   23.5324 N   0  0  0  0  0  0  0  0  0  0  0  0
    9.2984  -16.7385   24.8313 C   0  0  1  0  0  0  0  0  0  0  0  0
    8.3233  -16.8634   25.9363 C   0  0  0  0  0  0  0  0  0  0  0  0
    7.3425  -15.7750   25.9237 C   0  0  0  0  0  0  0  0  0  0  0  0
    6.0029  -15.8511   25.6044 C   0  0  0  0  0  0  0  0  0  0  0  0
    5.4560  -14.6262   25.6763 N   0  0  0  0  0  0  0  0  0  0  0  0
    6.4021  -13.7299   26.0387 C   0  0  0  0  0  0  0  0  0  0  0  0
    6.2915  -12.3699   26.2500 C   0  0  0  0  0  0  0  0  0  0  0  0
    7.4269  -11.6900   26.6403 C   0  0  0  0  0  0  0  0  0  0  0  0
    8.6205  -12.3600   26.8086 C   0  0  0  0  0  0  0  0  0  0  0  0
    8.7015  -13.6976   26.5934 C   0  0  0  0  0  0  0  0  0  0  0  0
    7.5807  -14.4372   26.1952 C   0  0  0  0  0  0  0  0  0  0  0  0
   10.4289  -17.6813   24.8044 C   0  0  0  0  0  0  0  0  0  0  0  0
   10.5699  -18.5598   23.9132 O   0  0  0  0  0  0  0  0  0  0  0  0
   16.7706  -16.5367   23.4884 N   0  0  0  0  0  0  0  0  0  0  0  0
   15.6398  -17.3475   23.2553 C   0  0  0  0  0  0  0  0  0  0  0  0
   15.1739  -17.4807   22.1140 O   0  0  0  0  0  0  0  0  0  0  0  0
   14.9507  -18.0839   24.3763 C   0  0  0  0  0  0  0  0  0  0  0  0
   13.5476  -17.6187   24.5443 C   0  0  0  0  0  0  0  0  0  0  0  0
   12.7522  -18.3247   25.6032 C   0  0  2  0  0  0  0  0  0  0  0  0
   11.4596  -17.6668   25.7989 N   0  0  0  0  0  0  0  0  0  0  0  0
   13.4898  -18.2911   26.8786 C   0  0  0  0  0  0  0  0  0  0  0  0
   13.1312  -17.6899   27.9190 O   0  0  0  0  0  0  0  0  0  0  0  0
   14.7099  -18.9958   26.9451 O   0  0  0  0  0  0  0  0  0  0  0  0
  1  2  1  0
  3  2  1  0
  4  3  1  0
  5  4  1  0
  5  6  1  1
  7  5  1  0
  7  8  2  0
  9  7  1  0
 10  9  1  0
 11 12  1  0
 10 11  1  1
 12 13  2  0
 13 14  1  0
 15 14  1  0
 16 15  2  0
 17 16  1  0
 18 19  1  0
 18 17  2  0
 19 20  2  0
 20 12  1  0
 20 15  1  0
 21 10  1  0
 22 21  2  0
 23 24  1  0
 24 26  1  0
 24 25  2  0
 26 27  1  0
 28 27  1  6
 28 29  1  0
 28 30  1  0
 29 21  1  0
 30 31  2  0
 30 32  1  0
M  END
$$$$
