MWQ.pdb
     RDKit          3D

 32 33  0  0  1  0  0  0  0  0999 V2000
    7.6522  -12.5340   16.7667 C   0  0  0  0  0  0  0  0  0  0  0  0
    8.2859  -14.0552   16.0570 S   0  0  0  0  0  0  0  0  0  0  0  0
    9.0690  -15.1736   17.1957 C   0  0  0  0  0  0  0  0  0  0  0  0
    8.8857  -14.8645   18.6556 C   0  0  0  0  0  0  0  0  0  0  0  0
    9.5370  -15.8892   19.5021 C   0  0  2  0  0  0  0  0  0  0  0  0
    8.8736  -17.1756   19.4468 N   0  0  0  0  0  0  0  0  0  0  0  0
    9.5074  -15.4174   20.9416 C   0  0  0  0  0  0  0  0  0  0  0  0
   10.1608  -14.4166   21.3045 O   0  0  0  0  0  0  0  0  0  0  0  0
    8.7478  -16.0832   21.9181 N   0  0  0  0  0  0  0  0  0  0  0  0
    8.5691  -15.5384   23.2505 C   0  0  1  0  0  0  0  0  0  0  0  0
    7.2026  -15.7481   23.7761 C   0  0  0  0  0  0  0  0  0  0  0  0
    7.0577  -15.2322   25.1398 C   0  0  0  0  0  0  0  0  0  0  0  0
    6.8011  -15.9494   26.2896 C   0  0  0  0  0  0  0  0  0  0  0  0
    6.7034  -15.1056   27.3302 N   0  0  0  0  0  0  0  0  0  0  0  0
    6.8904  -13.8364   26.9015 C   0  0  0  0  0  0  0  0  0  0  0  0
    6.8944  -12.6565   27.6186 C   0  0  0  0  0  0  0  0  0  0  0  0
    7.1356  -11.4884   26.9248 C   0  0  0  0  0  0  0  0  0  0  0  0
    7.3626  -11.5167   25.5648 C   0  0  0  0  0  0  0  0  0  0  0  0
    7.3525  -12.6908   24.8840 C   0  0  0  0  0  0  0  0  0  0  0  0
    7.1121  -13.9060   25.5377 C   0  0  0  0  0  0  0  0  0  0  0  0
    9.7011  -15.8683   24.1322 C   0  0  0  0  0  0  0  0  0  0  0  0
   10.2294  -15.0340   24.9136 O   0  0  0  0  0  0  0  0  0  0  0  0
   10.1025  -17.7759   29.1768 N   0  0  0  0  0  0  0  0  0  0  0  0
   10.4397  -18.9804   28.5243 C   0  0  0  0  0  0  0  0  0  0  0  0
   10.3783  -20.0671   29.1180 O   0  0  0  0  0  0  0  0  0  0  0  0
   10.8874  -19.0008   27.0846 C   0  0  0  0  0  0  0  0  0  0  0  0
   10.8522  -17.6376   26.4899 C   0  0  0  0  0  0  0  0  0  0  0  0
   11.3698  -17.5286   25.0854 C   0  0  2  0  0  0  0  0  0  0  0  0
   10.2882  -17.1744   24.1653 N   0  0  0  0  0  0  0  0  0  0  0  0
   11.9331  -18.8241   24.6655 C   0  0  0  0  0  0  0  0  0  0  0  0
   11.4554  -19.5834   23.7893 O   0  0  0  0  0  0  0  0  0  0  0  0
   13.1159  -19.2574   25.3003 O   0  0  0  0  0  0  0  0  0  0  0  0
  1  2  1  0
  3  2  1  0
  4  3  1  0
  5  4  1  0
  5  6  1  1
  7  5  1  0
  7  8  2  0
  9  7  1  0
 10  9  1  0
 11 12  1  0
 10 11  1  1
 12 13  2  0
 13 14  1  0
 15 14  1  0
 16 15  2  0
 17 16  1  0
 18 19  1  0
 18 17  2  0
 19 20  2  0
 20 12  1  0
 20 15  1  0
 21 10  1  0
 22 21  2  0
 23 24  1  0
 24 26  1  0
 24 25  2  0
 26 27  1  0
 28 27  1  1
 28 29  1  0
 28 30  1  0
 29 21  1  0
 30 31  2  0
 30 32  1  0
M  END
$$$$
