MWQ.pdb
     RDKit          3D

 32 33  0  0  1  0  0  0  0  0999 V2000
    8.0222  -11.8535   19.5652 C   0  0  0  0  0  0  0  0  0  0  0  0
    7.1156  -13.3407   19.1348 S   0  0  0  0  0  0  0  0  0  0  0  0
    7.6478  -14.8328   19.9416 C   0  0  0  0  0  0  0  0  0  0  0  0
    8.5217  -14.6531   21.1518 C   0  0  0  0  0  0  0  0  0  0  0  0
    8.9823  -15.9592   21.6740 C   0  0  2  0  0  0  0  0  0  0  0  0
    7.9117  -16.9252   21.8098 N   0  0  0  0  0  0  0  0  0  0  0  0
    9.5862  -15.7452   23.0471 C   0  0  0  0  0  0  0  0  0  0  0  0
   10.5079  -14.9208   23.2235 O   0  0  0  0  0  0  0  0  0  0  0  0
    9.1350  -16.4612   24.1684 N   0  0  0  0  0  0  0  0  0  0  0  0
    9.7909  -16.3553   25.4579 C   0  0  1  0  0  0  0  0  0  0  0  0
    8.8363  -16.3569   26.5875 C   0  0  0  0  0  0  0  0  0  0  0  0
    7.6698  -15.5125   26.3170 C   0  0  0  0  0  0  0  0  0  0  0  0
    6.4387  -15.9051   25.8348 C   0  0  0  0  0  0  0  0  0  0  0  0
    5.6514  -14.8265   25.6886 N   0  0  0  0  0  0  0  0  0  0  0  0
    6.3297  -13.7181   26.0643 C   0  0  0  0  0  0  0  0  0  0  0  0
    5.9155  -12.4014   26.0970 C   0  0  0  0  0  0  0  0  0  0  0  0
    6.8163  -11.4598   26.5507 C   0  0  0  0  0  0  0  0  0  0  0  0
    8.0801  -11.8375   26.9532 C   0  0  0  0  0  0  0  0  0  0  0  0
    8.4617  -13.1394   26.9102 C   0  0  0  0  0  0  0  0  0  0  0  0
    7.5883  -14.1365   26.4576 C   0  0  0  0  0  0  0  0  0  0  0  0
   10.9630  -17.2416   25.5492 C   0  0  0  0  0  0  0  0  0  0  0  0
   11.5947  -17.4372   26.6210 O   0  0  0  0  0  0  0  0  0  0  0  0
   11.4654  -22.5000   22.2907 N   0  0  0  0  0  0  0  0  0  0  0  0
   11.7341  -21.3186   21.5679 C   0  0  0  0  0  0  0  0  0  0  0  0
   11.6581  -21.2959   20.3306 O   0  0  0  0  0  0  0  0  0  0  0  0
   12.1236  -20.0383   22.2627 C   0  0  0  0  0  0  0  0  0  0  0  0
   12.1161  -20.2036   23.7411 C   0  0  0  0  0  0  0  0  0  0  0  0
   12.5012  -18.9878   24.5322 C   0  0  2  0  0  0  0  0  0  0  0  0
   11.4737  -17.9522   24.4153 N   0  0  0  0  0  0  0  0  0  0  0  0
   13.7704  -18.4451   24.0157 C   0  0  0  0  0  0  0  0  0  0  0  0
   14.9044  -18.9585   24.1672 O   0  0  0  0  0  0  0  0  0  0  0  0
   13.7149  -17.2405   23.2840 O   0  0  0  0  0  0  0  0  0  0  0  0
  1  2  1  0
  3  2  1  0
  4  3  1  0
  5  4  1  0
  5  6  1  1
  7  5  1  0
  7  8  2  0
  9  7  1  0
 10  9  1  0
 11 12  1  0
 10 11  1  1
 12 13  2  0
 13 14  1  0
 15 14  1  0
 16 15  2  0
 17 16  1  0
 18 19  1  0
 18 17  2  0
 19 20  2  0
 20 12  1  0
 20 15  1  0
 21 10  1  0
 22 21  2  0
 23 24  1  0
 24 26  1  0
 24 25  2  0
 26 27  1  0
 28 27  1  6
 28 29  1  0
 28 30  1  0
 29 21  1  0
 30 31  2  0
 30 32  1  0
M  END
$$$$
