MWQ.pdb
     RDKit          3D

 32 33  0  0  1  0  0  0  0  0999 V2000
    7.4575  -11.3959   18.9964 C   0  0  0  0  0  0  0  0  0  0  0  0
    7.1963  -12.8672   18.0034 S   0  0  0  0  0  0  0  0  0  0  0  0
    7.7203  -14.3996   18.7369 C   0  0  0  0  0  0  0  0  0  0  0  0
    9.1906  -14.7026   18.6529 C   0  0  0  0  0  0  0  0  0  0  0  0
    9.5175  -15.9545   19.3716 C   0  0  2  0  0  0  0  0  0  0  0  0
    8.5998  -17.0351   19.0748 N   0  0  0  0  0  0  0  0  0  0  0  0
    9.4490  -15.6886   20.8617 C   0  0  0  0  0  0  0  0  0  0  0  0
   10.3095  -14.9838   21.4300 O   0  0  0  0  0  0  0  0  0  0  0  0
    8.4205  -16.2210   21.6571 N   0  0  0  0  0  0  0  0  0  0  0  0
    8.3342  -15.9476   23.0790 C   0  0  1  0  0  0  0  0  0  0  0  0
    6.9637  -15.6002   23.5130 C   0  0  0  0  0  0  0  0  0  0  0  0
    6.8828  -15.4089   24.9634 C   0  0  0  0  0  0  0  0  0  0  0  0
    6.6851  -16.3718   25.9309 C   0  0  0  0  0  0  0  0  0  0  0  0
    6.6345  -15.7874   27.1393 N   0  0  0  0  0  0  0  0  0  0  0  0
    6.7955  -14.4513   27.0018 C   0  0  0  0  0  0  0  0  0  0  0  0
    6.8294  -13.4647   27.9671 C   0  0  0  0  0  0  0  0  0  0  0  0
    7.0320  -12.1664   27.5463 C   0  0  0  0  0  0  0  0  0  0  0  0
    7.1931  -11.8823   26.2064 C   0  0  0  0  0  0  0  0  0  0  0  0
    7.1548  -12.8716   25.2780 C   0  0  0  0  0  0  0  0  0  0  0  0
    6.9512  -14.2068   25.6490 C   0  0  0  0  0  0  0  0  0  0  0  0
    9.0732  -16.9434   23.8728 C   0  0  0  0  0  0  0  0  0  0  0  0
    8.8152  -18.1756   23.8418 O   0  0  0  0  0  0  0  0  0  0  0  0
   14.4401  -17.7738   22.7777 N   0  0  0  0  0  0  0  0  0  0  0  0
   14.3419  -16.8147   23.8077 C   0  0  0  0  0  0  0  0  0  0  0  0
   15.3393  -16.1873   24.1931 O   0  0  0  0  0  0  0  0  0  0  0  0
   13.0279  -16.5113   24.4824 C   0  0  0  0  0  0  0  0  0  0  0  0
   12.2800  -17.7595   24.7915 C   0  0  0  0  0  0  0  0  0  0  0  0
   10.9512  -17.5705   25.4632 C   0  0  2  0  0  0  0  0  0  0  0  0
   10.1491  -16.5790   24.7451 N   0  0  0  0  0  0  0  0  0  0  0  0
   11.1590  -17.0919   26.8415 C   0  0  0  0  0  0  0  0  0  0  0  0
   10.7804  -15.9881   27.3007 O   0  0  0  0  0  0  0  0  0  0  0  0
   11.8441  -17.9449   27.7317 O   0  0  0  0  0  0  0  0  0  0  0  0
  1  2  1  0
  3  2  1  0
  4  3  1  0
  5  4  1  0
  5  6  1  1
  7  5  1  0
  7  8  2  0
  9  7  1  0
 10  9  1  0
 11 12  1  0
 10 11  1  1
 12 13  2  0
 13 14  1  0
 15 14  1  0
 16 15  2  0
 17 16  1  0
 18 19  1  0
 18 17  2  0
 19 20  2  0
 20 12  1  0
 20 15  1  0
 21 10  1  0
 22 21  2  0
 23 24  1  0
 24 26  1  0
 24 25  2  0
 26 27  1  0
 28 27  1  6
 28 29  1  0
 28 30  1  0
 29 21  1  0
 30 31  2  0
 30 32  1  0
M  END
$$$$
