MWQ.pdb
     RDKit          3D

 32 33  0  0  1  0  0  0  0  0999 V2000
   12.8764  -20.4359   18.8345 C   0  0  0  0  0  0  0  0  0  0  0  0
   11.3694  -20.5873   17.8726 S   0  0  0  0  0  0  0  0  0  0  0  0
   10.2747  -19.1874   17.9229 C   0  0  0  0  0  0  0  0  0  0  0  0
   10.2762  -18.3940   19.2001 C   0  0  0  0  0  0  0  0  0  0  0  0
    9.3022  -17.2813   19.1362 C   0  0  2  0  0  0  0  0  0  0  0  0
    9.6109  -16.3162   18.1012 N   0  0  0  0  0  0  0  0  0  0  0  0
    9.3137  -16.5518   20.4641 C   0  0  0  0  0  0  0  0  0  0  0  0
   10.2101  -15.7258   20.7371 O   0  0  0  0  0  0  0  0  0  0  0  0
    8.3220  -16.7746   21.4339 N   0  0  0  0  0  0  0  0  0  0  0  0
    8.3615  -16.1262   22.7309 C   0  0  1  0  0  0  0  0  0  0  0  0
    7.0276  -15.6818   23.1897 C   0  0  0  0  0  0  0  0  0  0  0  0
    7.0665  -15.1645   24.5599 C   0  0  0  0  0  0  0  0  0  0  0  0
    6.8334  -15.8573   25.7295 C   0  0  0  0  0  0  0  0  0  0  0  0
    6.9278  -15.0168   26.7732 N   0  0  0  0  0  0  0  0  0  0  0  0
    7.2206  -13.7739   26.3270 C   0  0  0  0  0  0  0  0  0  0  0  0
    7.4251  -12.6085   27.0386 C   0  0  0  0  0  0  0  0  0  0  0  0
    7.7359  -11.4700   26.3237 C   0  0  0  0  0  0  0  0  0  0  0  0
    7.8348  -11.5125   24.9488 C   0  0  0  0  0  0  0  0  0  0  0  0
    7.6281  -12.6718   24.2739 C   0  0  0  0  0  0  0  0  0  0  0  0
    7.3091  -13.8568   24.9488 C   0  0  0  0  0  0  0  0  0  0  0  0
    9.2041  -16.8651   23.6858 C   0  0  0  0  0  0  0  0  0  0  0  0
    9.0758  -18.0987   23.9040 O   0  0  0  0  0  0  0  0  0  0  0  0
   15.4339  -16.0593   24.7184 N   0  0  0  0  0  0  0  0  0  0  0  0
   14.5271  -15.9837   23.6402 C   0  0  0  0  0  0  0  0  0  0  0  0
   14.8368  -15.4123   22.5843 O   0  0  0  0  0  0  0  0  0  0  0  0
   13.1490  -16.5901   23.7225 C   0  0  0  0  0  0  0  0  0  0  0  0
   12.5790  -16.4492   25.0894 C   0  0  0  0  0  0  0  0  0  0  0  0
   11.1862  -16.9784   25.2695 C   0  0  2  0  0  0  0  0  0  0  0  0
   10.2406  -16.2283   24.4419 N   0  0  0  0  0  0  0  0  0  0  0  0
   10.7839  -16.8380   26.6803 C   0  0  0  0  0  0  0  0  0  0  0  0
   10.3639  -17.7597   27.4196 O   0  0  0  0  0  0  0  0  0  0  0  0
   10.8760  -15.5555   27.2602 O   0  0  0  0  0  0  0  0  0  0  0  0
  1  2  1  0
  3  2  1  0
  4  3  1  0
  5  4  1  0
  5  6  1  6
  7  5  1  0
  7  8  2  0
  9  7  1  0
 10  9  1  0
 11 12  1  0
 10 11  1  1
 12 13  2  0
 13 14  1  0
 15 14  1  0
 16 15  2  0
 17 16  1  0
 18 19  1  0
 18 17  2  0
 19 20  2  0
 20 12  1  0
 20 15  1  0
 21 10  1  0
 22 21  2  0
 23 24  1  0
 24 26  1  0
 24 25  2  0
 26 27  1  0
 28 27  1  1
 28 29  1  0
 28 30  1  0
 29 21  1  0
 30 31  2  0
 30 32  1  0
M  END
$$$$
