MWQ.pdb
     RDKit          3D

 32 33  0  0  1  0  0  0  0  0999 V2000
    7.8568  -11.9369   19.1809 C   0  0  0  0  0  0  0  0  0  0  0  0
    7.1853  -13.5165   18.6583 S   0  0  0  0  0  0  0  0  0  0  0  0
    7.8839  -14.9519   19.4407 C   0  0  0  0  0  0  0  0  0  0  0  0
    8.4688  -14.7386   20.8092 C   0  0  0  0  0  0  0  0  0  0  0  0
    9.0236  -15.9986   21.3528 C   0  0  2  0  0  0  0  0  0  0  0  0
    8.0322  -17.0469   21.4791 N   0  0  0  0  0  0  0  0  0  0  0  0
    9.5824  -15.7245   22.7343 C   0  0  0  0  0  0  0  0  0  0  0  0
   10.4516  -14.8457   22.9144 O   0  0  0  0  0  0  0  0  0  0  0  0
    9.1465  -16.4437   23.8597 N   0  0  0  0  0  0  0  0  0  0  0  0
    9.6571  -16.1670   25.1889 C   0  0  1  0  0  0  0  0  0  0  0  0
    8.6347  -16.3430   26.2430 C   0  0  0  0  0  0  0  0  0  0  0  0
    7.5084  -15.4220   26.0696 C   0  0  0  0  0  0  0  0  0  0  0  0
    6.2708  -15.6967   25.5262 C   0  0  0  0  0  0  0  0  0  0  0  0
    5.5307  -14.5758   25.5108 N   0  0  0  0  0  0  0  0  0  0  0  0
    6.2470  -13.5546   26.0343 C   0  0  0  0  0  0  0  0  0  0  0  0
    5.8863  -12.2365   26.2315 C   0  0  0  0  0  0  0  0  0  0  0  0
    6.8167  -11.4001   26.8135 C   0  0  0  0  0  0  0  0  0  0  0  0
    8.0569  -11.8798   27.1789 C   0  0  0  0  0  0  0  0  0  0  0  0
    8.3858  -13.1804   26.9730 C   0  0  0  0  0  0  0  0  0  0  0  0
    7.4806  -14.0732   26.3854 C   0  0  0  0  0  0  0  0  0  0  0  0
   10.9781  -16.7799   25.4055 C   0  0  0  0  0  0  0  0  0  0  0  0
   11.8215  -16.3242   26.2220 O   0  0  0  0  0  0  0  0  0  0  0  0
   12.1619  -21.9095   27.7756 N   0  0  0  0  0  0  0  0  0  0  0  0
   11.1564  -21.7233   26.8036 C   0  0  0  0  0  0  0  0  0  0  0  0
   10.2276  -22.5356   26.6822 O   0  0  0  0  0  0  0  0  0  0  0  0
   11.1656  -20.5359   25.8743 C   0  0  0  0  0  0  0  0  0  0  0  0
   12.3829  -19.7044   26.0744 C   0  0  0  0  0  0  0  0  0  0  0  0
   12.6380  -18.6637   25.0236 C   0  0  2  0  0  0  0  0  0  0  0  0
   11.4027  -17.9500   24.6969 N   0  0  0  0  0  0  0  0  0  0  0  0
   13.1392  -19.3122   23.7988 C   0  0  0  0  0  0  0  0  0  0  0  0
   12.5146  -19.4208   22.7168 O   0  0  0  0  0  0  0  0  0  0  0  0
   14.4372  -19.8629   23.8368 O   0  0  0  0  0  0  0  0  0  0  0  0
  1  2  1  0
  3  2  1  0
  4  3  1  0
  5  4  1  0
  5  6  1  1
  7  5  1  0
  7  8  2  0
  9  7  1  0
 10  9  1  0
 11 12  1  0
 10 11  1  1
 12 13  2  0
 13 14  1  0
 15 14  1  0
 16 15  2  0
 17 16  1  0
 18 19  1  0
 18 17  2  0
 19 20  2  0
 20 12  1  0
 20 15  1  0
 21 10  1  0
 22 21  2  0
 23 24  1  0
 24 26  1  0
 24 25  2  0
 26 27  1  0
 28 27  1  1
 28 29  1  0
 28 30  1  0
 29 21  1  0
 30 31  2  0
 30 32  1  0
M  END
$$$$
