MWQ.pdb
     RDKit          3D

 32 33  0  0  1  0  0  0  0  0999 V2000
    7.6502  -11.4743   18.9186 C   0  0  0  0  0  0  0  0  0  0  0  0
    7.2690  -12.6794   17.6452 S   0  0  0  0  0  0  0  0  0  0  0  0
    7.6510  -14.3702   18.0398 C   0  0  0  0  0  0  0  0  0  0  0  0
    8.9454  -14.6015   18.7688 C   0  0  0  0  0  0  0  0  0  0  0  0
    8.9049  -15.8663   19.5364 C   0  0  2  0  0  0  0  0  0  0  0  0
    7.7299  -16.6644   19.2530 N   0  0  0  0  0  0  0  0  0  0  0  0
    8.8905  -15.5345   21.0148 C   0  0  0  0  0  0  0  0  0  0  0  0
    8.9941  -14.3543   21.4106 O   0  0  0  0  0  0  0  0  0  0  0  0
    8.7601  -16.5356   21.9918 N   0  0  0  0  0  0  0  0  0  0  0  0
    8.6510  -16.2174   23.4028 C   0  0  1  0  0  0  0  0  0  0  0  0
    7.2645  -15.9082   23.8143 C   0  0  0  0  0  0  0  0  0  0  0  0
    7.1864  -15.5312   25.2280 C   0  0  0  0  0  0  0  0  0  0  0  0
    7.1026  -16.3690   26.3205 C   0  0  0  0  0  0  0  0  0  0  0  0
    7.0108  -15.6341   27.4412 N   0  0  0  0  0  0  0  0  0  0  0  0
    7.0324  -14.3197   27.1223 C   0  0  0  0  0  0  0  0  0  0  0  0
    6.9800  -13.2130   27.9462 C   0  0  0  0  0  0  0  0  0  0  0  0
    7.0427  -11.9699   27.3505 C   0  0  0  0  0  0  0  0  0  0  0  0
    7.1537  -11.8554   25.9806 C   0  0  0  0  0  0  0  0  0  0  0  0
    7.2026  -12.9603   25.1939 C   0  0  0  0  0  0  0  0  0  0  0  0
    7.1420  -14.2465   25.7452 C   0  0  0  0  0  0  0  0  0  0  0  0
    9.4205  -17.1563   24.2359 C   0  0  0  0  0  0  0  0  0  0  0  0
    9.2089  -18.3976   24.2466 O   0  0  0  0  0  0  0  0  0  0  0  0
   15.3183  -17.6460   24.3201 N   0  0  0  0  0  0  0  0  0  0  0  0
   14.6669  -16.4019   24.4553 C   0  0  0  0  0  0  0  0  0  0  0  0
   15.2342  -15.3463   24.1375 O   0  0  0  0  0  0  0  0  0  0  0  0
   13.2604  -16.3002   24.9893 C   0  0  0  0  0  0  0  0  0  0  0  0
   12.7191  -17.6406   25.3406 C   0  0  0  0  0  0  0  0  0  0  0  0
   11.3101  -17.6565   25.8572 C   0  0  2  0  0  0  0  0  0  0  0  0
   10.4753  -16.7214   25.1017 N   0  0  0  0  0  0  0  0  0  0  0  0
   11.2997  -17.2503   27.2739 C   0  0  0  0  0  0  0  0  0  0  0  0
   10.7398  -16.2303   27.7415 O   0  0  0  0  0  0  0  0  0  0  0  0
   11.9776  -18.0766   28.1942 O   0  0  0  0  0  0  0  0  0  0  0  0
  1  2  1  0
  3  2  1  0
  4  3  1  0
  5  4  1  0
  5  6  1  6
  7  5  1  0
  7  8  2  0
  9  7  1  0
 10  9  1  0
 11 12  1  0
 10 11  1  1
 12 13  2  0
 13 14  1  0
 15 14  1  0
 16 15  2  0
 17 16  1  0
 18 19  1  0
 18 17  2  0
 19 20  2  0
 20 12  1  0
 20 15  1  0
 21 10  1  0
 22 21  2  0
 23 24  1  0
 24 26  1  0
 24 25  2  0
 26 27  1  0
 28 27  1  6
 28 29  1  0
 28 30  1  0
 29 21  1  0
 30 31  2  0
 30 32  1  0
M  END
$$$$
