TNG.pdb
     RDKit          3D

 20 19  0  0  1  0  0  0  0  0999 V2000
   27.6450   -8.9955  -17.3730 C   0  0  0  0  0  0  0  0  0  0  0  0
   27.6752   -9.8382  -18.6346 C   0  0  1  0  0  0  0  0  0  0  0  0
   28.9032  -10.4193  -18.8498 O   0  0  0  0  0  0  0  0  0  0  0  0
   26.6349  -10.9017  -18.5153 C   0  0  2  0  0  0  0  0  0  0  0  0
   26.7201  -11.9551  -19.4792 N   0  0  0  0  0  0  0  0  0  0  0  0
   25.2842  -10.2606  -18.5138 C   0  0  0  0  0  0  0  0  0  0  0  0
   24.4375  -10.5731  -19.3874 O   0  0  0  0  0  0  0  0  0  0  0  0
   20.8493   -8.0382  -17.0506 N   0  0  0  0  0  0  0  0  0  0  0  0
   21.2679   -9.3780  -17.1507 C   0  0  0  0  0  0  0  0  0  0  0  0
   20.3813  -10.2775  -17.1219 O   0  0  0  0  0  0  0  0  0  0  0  0
   22.6653   -9.7814  -17.2857 C   0  0  0  0  0  0  0  0  0  0  0  0
   23.6513   -8.6695  -17.4244 C   0  0  2  0  0  0  0  0  0  0  0  0
   24.9735   -9.3120  -17.5343 N   0  0  0  0  0  0  0  0  0  0  0  0
   23.6677   -7.7149  -16.2976 C   0  0  0  0  0  0  0  0  0  0  0  0
   24.0028   -8.1226  -15.1638 O   0  0  0  0  0  0  0  0  0  0  0  0
   23.3126   -6.3755  -16.4985 N   0  0  0  0  0  0  0  0  0  0  0  0
   23.3589   -5.3545  -15.4730 C   0  0  0  0  0  0  0  0  0  0  0  0
   22.1290   -5.3204  -14.6873 C   0  0  0  0  0  0  0  0  0  0  0  0
   21.1434   -6.0486  -14.9468 O   0  0  0  0  0  0  0  0  0  0  0  0
   22.0218   -4.4569  -13.6053 O   0  0  0  0  0  0  0  0  0  0  0  0
  2  1  1  1
  3  2  1  0
  4  5  1  6
  4  2  1  0
  6  4  1  0
  6  7  2  0
  8  9  1  0
  9 11  1  0
 10  9  2  0
 12 11  1  1
 12 13  1  0
 12 14  1  0
 13  6  1  0
 14 15  2  0
 14 16  1  0
 16 17  1  0
 18 17  1  0
 18 20  1  0
 19 18  2  0
M  END
$$$$
