TNG.pdb
     RDKit          3D

 20 19  0  0  1  0  0  0  0  0999 V2000
   24.1092  -12.7172  -21.3776 C   0  0  0  0  0  0  0  0  0  0  0  0
   23.7867  -12.0950  -20.0317 C   0  0  1  0  0  0  0  0  0  0  0  0
   22.5107  -12.3873  -19.6092 O   0  0  0  0  0  0  0  0  0  0  0  0
   24.7711  -12.6017  -19.0309 C   0  0  2  0  0  0  0  0  0  0  0  0
   24.6705  -13.9944  -18.7210 N   0  0  0  0  0  0  0  0  0  0  0  0
   24.6928  -11.7540  -17.8018 C   0  0  0  0  0  0  0  0  0  0  0  0
   24.1365  -12.1961  -16.7659 O   0  0  0  0  0  0  0  0  0  0  0  0
   28.4453  -10.9516  -16.4383 N   0  0  0  0  0  0  0  0  0  0  0  0
   27.4038  -10.2944  -15.7574 C   0  0  0  0  0  0  0  0  0  0  0  0
   27.1470  -10.6609  -14.5759 O   0  0  0  0  0  0  0  0  0  0  0  0
   26.6087   -9.2168  -16.3409 C   0  0  0  0  0  0  0  0  0  0  0  0
   25.1905   -9.5558  -16.6594 C   0  0  2  0  0  0  0  0  0  0  0  0
   25.2421  -10.4680  -17.8163 N   0  0  0  0  0  0  0  0  0  0  0  0
   24.3386   -8.3965  -16.9930 C   0  0  0  0  0  0  0  0  0  0  0  0
   24.4826   -7.8392  -18.1033 O   0  0  0  0  0  0  0  0  0  0  0  0
   23.3864   -7.9304  -16.0784 N   0  0  0  0  0  0  0  0  0  0  0  0
   22.4720   -6.8377  -16.3353 C   0  0  0  0  0  0  0  0  0  0  0  0
   21.6190   -6.5633  -15.1828 C   0  0  0  0  0  0  0  0  0  0  0  0
   21.5951   -7.3019  -14.1714 O   0  0  0  0  0  0  0  0  0  0  0  0
   20.7934   -5.4470  -15.1820 O   0  0  0  0  0  0  0  0  0  0  0  0
  2  1  1  6
  3  2  1  0
  4  5  1  1
  4  2  1  0
  6  4  1  0
  6  7  2  0
  8  9  1  0
  9 11  1  0
 10  9  2  0
 12 11  1  6
 12 13  1  0
 12 14  1  0
 13  6  1  0
 14 15  2  0
 14 16  1  0
 16 17  1  0
 18 17  1  0
 18 20  1  0
 19 18  2  0
M  END
$$$$
