TNG.pdb
     RDKit          3D

 20 19  0  0  1  0  0  0  0  0999 V2000
   24.9893  -25.6294  -15.4669 C   0  0  0  0  0  0  0  0  0  0  0  0
   25.8442  -24.4830  -15.9744 C   0  0  1  0  0  0  0  0  0  0  0  0
   26.4400  -24.7654  -17.1817 O   0  0  0  0  0  0  0  0  0  0  0  0
   24.9774  -23.2765  -16.1169 C   0  0  2  0  0  0  0  0  0  0  0  0
   25.6050  -22.1357  -16.7088 N   0  0  0  0  0  0  0  0  0  0  0  0
   24.3778  -22.9505  -14.7866 C   0  0  0  0  0  0  0  0  0  0  0  0
   23.6719  -23.8000  -14.1885 O   0  0  0  0  0  0  0  0  0  0  0  0
   25.8809  -22.4813  -10.9324 N   0  0  0  0  0  0  0  0  0  0  0  0
   26.0572  -21.1468  -11.3429 C   0  0  0  0  0  0  0  0  0  0  0  0
   27.0459  -20.5119  -10.8788 O   0  0  0  0  0  0  0  0  0  0  0  0
   25.1627  -20.4610  -12.2720 C   0  0  0  0  0  0  0  0  0  0  0  0
   24.0978  -21.3046  -12.8900 C   0  0  2  0  0  0  0  0  0  0  0  0
   24.6087  -21.6945  -14.2166 N   0  0  0  0  0  0  0  0  0  0  0  0
   22.7930  -20.6317  -13.0510 C   0  0  0  0  0  0  0  0  0  0  0  0
   22.2003  -20.2092  -12.0339 O   0  0  0  0  0  0  0  0  0  0  0  0
   22.2306  -20.4715  -14.3231 N   0  0  0  0  0  0  0  0  0  0  0  0
   21.0334  -19.7049  -14.5974 C   0  0  0  0  0  0  0  0  0  0  0  0
   19.8540  -20.5596  -14.6956 C   0  0  0  0  0  0  0  0  0  0  0  0
   19.9008  -21.7967  -14.5051 O   0  0  0  0  0  0  0  0  0  0  0  0
   18.6206  -20.0050  -15.0102 O   0  0  0  0  0  0  0  0  0  0  0  0
  2  1  1  6
  3  2  1  0
  4  5  1  1
  4  2  1  0
  6  4  1  0
  6  7  2  0
  8  9  1  0
  9 11  1  0
 10  9  2  0
 12 11  1  6
 12 13  1  0
 12 14  1  0
 13  6  1  0
 14 15  2  0
 14 16  1  0
 16 17  1  0
 18 17  1  0
 18 20  1  0
 19 18  2  0
M  END
$$$$
