TNG.pdb
     RDKit          3D

 20 19  0  0  1  0  0  0  0  0999 V2000
   26.6446  -10.9199  -14.9088 C   0  0  0  0  0  0  0  0  0  0  0  0
   25.8443   -9.7985  -15.5450 C   0  0  1  0  0  0  0  0  0  0  0  0
   26.5905   -9.0566  -16.4309 O   0  0  0  0  0  0  0  0  0  0  0  0
   24.6775  -10.3981  -16.2568 C   0  0  2  0  0  0  0  0  0  0  0  0
   25.0024  -11.3241  -17.2974 N   0  0  0  0  0  0  0  0  0  0  0  0
   23.7935   -9.2981  -16.7508 C   0  0  0  0  0  0  0  0  0  0  0  0
   23.4988   -9.2258  -17.9697 O   0  0  0  0  0  0  0  0  0  0  0  0
   20.0661   -5.7741  -17.1701 N   0  0  0  0  0  0  0  0  0  0  0  0
   20.0690   -7.1769  -17.2818 C   0  0  0  0  0  0  0  0  0  0  0  0
   19.0670   -7.7288  -17.8178 O   0  0  0  0  0  0  0  0  0  0  0  0
   21.1634   -8.0237  -16.8138 C   0  0  0  0  0  0  0  0  0  0  0  0
   22.3306   -7.3072  -16.2206 C   0  0  2  0  0  0  0  0  0  0  0  0
   23.3000   -8.3527  -15.8460 N   0  0  0  0  0  0  0  0  0  0  0  0
   22.0142   -6.4902  -15.0317 C   0  0  0  0  0  0  0  0  0  0  0  0
   21.6706   -7.0657  -13.9758 O   0  0  0  0  0  0  0  0  0  0  0  0
   22.0978   -5.0937  -15.0889 N   0  0  0  0  0  0  0  0  0  0  0  0
   21.8126   -4.2111  -13.9772 C   0  0  0  0  0  0  0  0  0  0  0  0
   22.0257   -2.8106  -14.3295 C   0  0  0  0  0  0  0  0  0  0  0  0
   22.4176   -2.4535  -15.4644 O   0  0  0  0  0  0  0  0  0  0  0  0
   21.7919   -1.8162  -13.3891 O   0  0  0  0  0  0  0  0  0  0  0  0
  2  1  1  6
  3  2  1  0
  4  5  1  6
  4  2  1  0
  6  4  1  0
  6  7  2  0
  8  9  1  0
  9 11  1  0
 10  9  2  0
 12 11  1  1
 12 13  1  0
 12 14  1  0
 13  6  1  0
 14 15  2  0
 14 16  1  0
 16 17  1  0
 18 17  1  0
 18 20  1  0
 19 18  2  0
M  END
$$$$
