TNG.pdb
     RDKit          3D

 20 19  0  0  1  0  0  0  0  0999 V2000
   25.6167  -10.0066  -15.6797 C   0  0  0  0  0  0  0  0  0  0  0  0
   24.8916  -11.3106  -15.9562 C   0  0  1  0  0  0  0  0  0  0  0  0
   25.3809  -12.3541  -15.2054 O   0  0  0  0  0  0  0  0  0  0  0  0
   23.4428  -11.1167  -15.6549 C   0  0  2  0  0  0  0  0  0  0  0  0
   22.6689  -12.3159  -15.5619 N   0  0  0  0  0  0  0  0  0  0  0  0
   22.8648  -10.1605  -16.6485 C   0  0  0  0  0  0  0  0  0  0  0  0
   22.5695  -10.5545  -17.8040 O   0  0  0  0  0  0  0  0  0  0  0  0
   19.9256   -7.0585  -19.2747 N   0  0  0  0  0  0  0  0  0  0  0  0
   19.5904   -7.6733  -18.0541 C   0  0  0  0  0  0  0  0  0  0  0  0
   18.4081   -7.5380  -17.6297 O   0  0  0  0  0  0  0  0  0  0  0  0
   20.5315   -8.4555  -17.2565 C   0  0  0  0  0  0  0  0  0  0  0  0
   21.8969   -7.8717  -17.1064 C   0  0  2  0  0  0  0  0  0  0  0  0
   22.6575   -8.8272  -16.2807 N   0  0  0  0  0  0  0  0  0  0  0  0
   21.9325   -6.5413  -16.4662 C   0  0  0  0  0  0  0  0  0  0  0  0
   21.4223   -5.5683  -17.0637 O   0  0  0  0  0  0  0  0  0  0  0  0
   22.5294   -6.3749  -15.2106 N   0  0  0  0  0  0  0  0  0  0  0  0
   22.6495   -5.1060  -14.5239 C   0  0  0  0  0  0  0  0  0  0  0  0
   21.3441   -4.5542  -14.1739 C   0  0  0  0  0  0  0  0  0  0  0  0
   20.4757   -5.2158  -13.5597 O   0  0  0  0  0  0  0  0  0  0  0  0
   21.0277   -3.2482  -14.5231 O   0  0  0  0  0  0  0  0  0  0  0  0
  2  1  1  1
  3  2  1  0
  4  5  1  6
  4  2  1  0
  6  4  1  0
  6  7  2  0
  8  9  1  0
  9 11  1  0
 10  9  2  0
 12 11  1  1
 12 13  1  0
 12 14  1  0
 13  6  1  0
 14 15  2  0
 14 16  1  0
 16 17  1  0
 18 17  1  0
 18 20  1  0
 19 18  2  0
M  END
$$$$
