TNG.pdb
     RDKit          3D

 20 19  0  0  1  0  0  0  0  0999 V2000
   15.2881  -11.7673  -16.7173 C   0  0  0  0  0  0  0  0  0  0  0  0
   15.6326  -10.6343  -15.7686 C   0  0  1  0  0  0  0  0  0  0  0  0
   15.0303  -10.7752  -14.5400 O   0  0  0  0  0  0  0  0  0  0  0  0
   17.1146  -10.5993  -15.5957 C   0  0  2  0  0  0  0  0  0  0  0  0
   17.6861  -11.7459  -14.9598 N   0  0  0  0  0  0  0  0  0  0  0  0
   17.4913   -9.3328  -14.8958 C   0  0  0  0  0  0  0  0  0  0  0  0
   17.0598   -8.2297  -15.3138 O   0  0  0  0  0  0  0  0  0  0  0  0
   16.0169   -8.5267  -11.9204 N   0  0  0  0  0  0  0  0  0  0  0  0
   17.1373   -8.6905  -11.0848 C   0  0  0  0  0  0  0  0  0  0  0  0
   16.9318   -8.9370   -9.8629 O   0  0  0  0  0  0  0  0  0  0  0  0
   18.5174   -8.5915  -11.5530 C   0  0  0  0  0  0  0  0  0  0  0  0
   18.6914   -8.1996  -12.9826 C   0  0  2  0  0  0  0  0  0  0  0  0
   18.3265   -9.3876  -13.7755 N   0  0  0  0  0  0  0  0  0  0  0  0
   20.0590   -7.7758  -13.3446 C   0  0  0  0  0  0  0  0  0  0  0  0
   20.9445   -8.6472  -13.4886 O   0  0  0  0  0  0  0  0  0  0  0  0
   20.3568   -6.4193  -13.5223 N   0  0  0  0  0  0  0  0  0  0  0  0
   21.6567   -5.9109  -13.9070 C   0  0  0  0  0  0  0  0  0  0  0  0
   21.6418   -4.4613  -14.0786 C   0  0  0  0  0  0  0  0  0  0  0  0
   20.5908   -3.7844  -14.0003 O   0  0  0  0  0  0  0  0  0  0  0  0
   22.8245   -3.7822  -14.3389 O   0  0  0  0  0  0  0  0  0  0  0  0
  2  1  1  6
  3  2  1  0
  4  5  1  1
  4  2  1  0
  6  4  1  0
  6  7  2  0
  8  9  1  0
  9 11  1  0
 10  9  2  0
 12 11  1  1
 12 13  1  0
 12 14  1  0
 13  6  1  0
 14 15  2  0
 14 16  1  0
 16 17  1  0
 18 17  1  0
 18 20  1  0
 19 18  2  0
M  END
$$$$
