TNG.pdb
     RDKit          3D

 20 19  0  0  1  0  0  0  0  0999 V2000
   27.2200  -14.2544  -15.6799 C   0  0  0  0  0  0  0  0  0  0  0  0
   25.8868  -14.8500  -16.0930 C   0  0  1  0  0  0  0  0  0  0  0  0
   25.2858  -14.1416  -17.1074 O   0  0  0  0  0  0  0  0  0  0  0  0
   26.1166  -16.2565  -16.5360 C   0  0  2  0  0  0  0  0  0  0  0  0
   27.0126  -16.4142  -17.6397 N   0  0  0  0  0  0  0  0  0  0  0  0
   24.7949  -16.9040  -16.7991 C   0  0  0  0  0  0  0  0  0  0  0  0
   24.5303  -17.3549  -17.9413 O   0  0  0  0  0  0  0  0  0  0  0  0
   20.1675  -19.2827  -15.8993 N   0  0  0  0  0  0  0  0  0  0  0  0
   21.1398  -19.3931  -14.8880 C   0  0  0  0  0  0  0  0  0  0  0  0
   20.9254  -20.2111  -13.9494 O   0  0  0  0  0  0  0  0  0  0  0  0
   22.3769  -18.6167  -14.8663 C   0  0  0  0  0  0  0  0  0  0  0  0
   22.5195  -17.5928  -15.9429 C   0  0  2  0  0  0  0  0  0  0  0  0
   23.8583  -17.0020  -15.7651 N   0  0  0  0  0  0  0  0  0  0  0  0
   21.5067  -16.5183  -15.9109 C   0  0  0  0  0  0  0  0  0  0  0  0
   20.2952  -16.8287  -15.8999 O   0  0  0  0  0  0  0  0  0  0  0  0
   21.8996  -15.1745  -15.8941 N   0  0  0  0  0  0  0  0  0  0  0  0
   20.9855  -14.0543  -15.9679 C   0  0  0  0  0  0  0  0  0  0  0  0
   20.7996  -13.5970  -17.3418 C   0  0  0  0  0  0  0  0  0  0  0  0
   21.2920  -14.1980  -18.3243 O   0  0  0  0  0  0  0  0  0  0  0  0
   20.0520  -12.4552  -17.5969 O   0  0  0  0  0  0  0  0  0  0  0  0
  2  1  1  6
  3  2  1  0
  4  5  1  6
  4  2  1  0
  6  4  1  0
  6  7  2  0
  8  9  1  0
  9 11  1  0
 10  9  2  0
 12 11  1  1
 12 13  1  0
 12 14  1  0
 13  6  1  0
 14 15  2  0
 14 16  1  0
 16 17  1  0
 18 17  1  0
 18 20  1  0
 19 18  2  0
M  END
$$$$
