TNG.pdb
     RDKit          3D

 20 19  0  0  1  0  0  0  0  0999 V2000
   16.4737   -5.5629  -10.3361 C   0  0  0  0  0  0  0  0  0  0  0  0
   16.0142   -6.7407   -9.4968 C   0  0  1  0  0  0  0  0  0  0  0  0
   14.8081   -6.5071   -8.8781 O   0  0  0  0  0  0  0  0  0  0  0  0
   15.8954   -7.9340  -10.3853 C   0  0  2  0  0  0  0  0  0  0  0  0
   15.3778   -9.1135   -9.7636 N   0  0  0  0  0  0  0  0  0  0  0  0
   17.2169   -8.1862  -11.0375 C   0  0  0  0  0  0  0  0  0  0  0  0
   18.1261   -8.7829  -10.4088 O   0  0  0  0  0  0  0  0  0  0  0  0
   17.9690  -10.7004  -13.5793 N   0  0  0  0  0  0  0  0  0  0  0  0
   17.9529   -9.7560  -14.6225 C   0  0  0  0  0  0  0  0  0  0  0  0
   17.5854  -10.1460  -15.7666 O   0  0  0  0  0  0  0  0  0  0  0  0
   18.3360   -8.3566  -14.4534 C   0  0  0  0  0  0  0  0  0  0  0  0
   18.7045   -7.9477  -13.0660 C   0  0  2  0  0  0  0  0  0  0  0  0
   17.4311   -7.7523  -12.3496 N   0  0  0  0  0  0  0  0  0  0  0  0
   19.5050   -6.7096  -12.9795 C   0  0  0  0  0  0  0  0  0  0  0  0
   18.9302   -5.6067  -13.1116 O   0  0  0  0  0  0  0  0  0  0  0  0
   20.8854   -6.7726  -12.7538 N   0  0  0  0  0  0  0  0  0  0  0  0
   21.7449   -5.6160  -12.6139 C   0  0  0  0  0  0  0  0  0  0  0  0
   21.8347   -4.8550  -13.8564 C   0  0  0  0  0  0  0  0  0  0  0  0
   21.2272   -5.1924  -14.8985 O   0  0  0  0  0  0  0  0  0  0  0  0
   22.6163   -3.7088  -13.9119 O   0  0  0  0  0  0  0  0  0  0  0  0
  2  1  1  6
  3  2  1  0
  4  5  1  1
  4  2  1  0
  6  4  1  0
  6  7  2  0
  8  9  1  0
  9 11  1  0
 10  9  2  0
 12 11  1  6
 12 13  1  0
 12 14  1  0
 13  6  1  0
 14 15  2  0
 14 16  1  0
 16 17  1  0
 18 17  1  0
 18 20  1  0
 19 18  2  0
M  END
$$$$
