TNG.pdb
     RDKit          3D

 20 19  0  0  1  0  0  0  0  0999 V2000
   27.0482   -9.7994  -15.8847 C   0  0  0  0  0  0  0  0  0  0  0  0
   26.8857  -11.0971  -16.6541 C   0  0  1  0  0  0  0  0  0  0  0  0
   27.8801  -12.0044  -16.3715 O   0  0  0  0  0  0  0  0  0  0  0  0
   25.5596  -11.6874  -16.3069 C   0  0  2  0  0  0  0  0  0  0  0  0
   25.3669  -13.0457  -16.7116 N   0  0  0  0  0  0  0  0  0  0  0  0
   24.4799  -10.7953  -16.8304 C   0  0  0  0  0  0  0  0  0  0  0  0
   23.8359  -11.1218  -17.8582 O   0  0  0  0  0  0  0  0  0  0  0  0
   20.5388   -7.5007  -17.2141 N   0  0  0  0  0  0  0  0  0  0  0  0
   20.5962   -8.8280  -16.7499 C   0  0  0  0  0  0  0  0  0  0  0  0
   19.5080   -9.4575  -16.6248 O   0  0  0  0  0  0  0  0  0  0  0  0
   21.8403   -9.5126  -16.4075 C   0  0  0  0  0  0  0  0  0  0  0  0
   23.0870   -8.7052  -16.5542 C   0  0  2  0  0  0  0  0  0  0  0  0
   24.1951   -9.5972  -16.1675 N   0  0  0  0  0  0  0  0  0  0  0  0
   23.1337   -7.4850  -15.7235 C   0  0  0  0  0  0  0  0  0  0  0  0
   23.0594   -7.5962  -14.4800 O   0  0  0  0  0  0  0  0  0  0  0  0
   23.2583   -6.2251  -16.3214 N   0  0  0  0  0  0  0  0  0  0  0  0
   23.3452   -4.9782  -15.5909 C   0  0  0  0  0  0  0  0  0  0  0  0
   22.0521   -4.5811  -15.0421 C   0  0  0  0  0  0  0  0  0  0  0  0
   21.9016   -3.5453  -14.3540 O   0  0  0  0  0  0  0  0  0  0  0  0
   20.9296   -5.3636  -15.2776 O   0  0  0  0  0  0  0  0  0  0  0  0
  2  1  1  1
  3  2  1  0
  4  5  1  6
  4  2  1  0
  6  4  1  0
  6  7  2  0
  8  9  1  0
  9 11  1  0
 10  9  2  0
 12 11  1  1
 12 13  1  0
 12 14  1  0
 13  6  1  0
 14 15  2  0
 14 16  1  0
 16 17  1  0
 18 17  1  0
 18 20  1  0
 19 18  2  0
M  END
$$$$
