LYP.pdb
     RDKit          3D

 28 29  0  0  1  0  0  0  0  0999 V2000
    9.2671  -17.5428   15.9884 C   0  0  0  0  0  0  0  0  0  0  0  0
    8.5199  -16.3674   16.5766 C   0  0  1  0  0  0  0  0  0  0  0  0
    7.0501  -16.6996   16.7247 C   0  0  0  0  0  0  0  0  0  0  0  0
    9.0496  -15.9815   17.9346 C   0  0  0  0  0  0  0  0  0  0  0  0
    8.2158  -14.8208   18.4341 C   0  0  2  0  0  0  0  0  0  0  0  0
    8.3528  -13.6507   17.6341 N   0  0  0  0  0  0  0  0  0  0  0  0
    8.5336  -14.5044   19.8469 C   0  0  0  0  0  0  0  0  0  0  0  0
    9.5899  -13.9101   20.1886 O   0  0  0  0  0  0  0  0  0  0  0  0
    7.2393  -12.6698   28.3689 O   0  0  0  0  0  0  0  0  0  0  0  0
    7.0950  -12.9739   27.0319 C   0  0  0  0  0  0  0  0  0  0  0  0
    6.5813  -14.1925   26.6538 C   0  0  0  0  0  0  0  0  0  0  0  0
    6.4343  -14.5031   25.3176 C   0  0  0  0  0  0  0  0  0  0  0  0
    6.7840  -13.6342   24.3082 C   0  0  0  0  0  0  0  0  0  0  0  0
    6.6288  -13.9616   22.8802 C   0  0  0  0  0  0  0  0  0  0  0  0
    7.8831  -14.5448   22.2439 C   0  0  2  0  0  0  0  0  0  0  0  0
    7.6150  -14.8817   20.8731 N   0  0  0  0  0  0  0  0  0  0  0  0
    8.4464  -15.6753   22.9758 C   0  0  0  0  0  0  0  0  0  0  0  0
    7.9206  -16.8316   22.7363 O   0  0  0  0  0  0  0  0  0  0  0  0
    7.3048  -12.3991   24.7041 C   0  0  0  0  0  0  0  0  0  0  0  0
    7.4511  -12.0901   26.0382 C   0  0  0  0  0  0  0  0  0  0  0  0
    9.4933  -15.6971   23.9198 N   0  0  0  0  0  0  0  0  0  0  0  0
   10.1562  -14.5821   24.5237 C   0  0  0  0  0  0  0  0  0  0  0  0
   11.0333  -15.1872   25.6364 C   0  0  0  0  0  0  0  0  0  0  0  0
   11.4113  -16.5104   24.9569 C   0  0  0  0  0  0  0  0  0  0  0  0
   10.0632  -16.9349   24.4448 C   0  0  1  0  0  0  0  0  0  0  0  0
    9.2277  -17.4640   25.5552 C   0  0  0  0  0  0  0  0  0  0  0  0
    8.2272  -16.8130   25.9437 O   0  0  0  0  0  0  0  0  0  0  0  0
    9.5451  -18.6600   26.1568 O   0  0  0  0  0  0  0  0  0  0  0  0
  2  1  1  1
  2  4  1  0
  3  2  1  0
  5  4  1  0
  5  6  1  6
  7  5  1  0
  7  8  2  0
  9 10  1  0
 10 11  2  0
 11 12  1  0
 13 12  2  0
 13 14  1  0
 15 14  1  1
 15 16  1  0
 16  7  1  0
 17 15  1  0
 18 17  2  0
 19 13  1  0
 20 10  1  0
 20 19  2  0
 21 17  1  0
 22 21  1  0
 22 23  1  0
 23 24  1  0
 25 21  1  0
 25 24  1  0
 25 26  1  1
 27 26  2  0
 28 26  1  0
M  END
$$$$
