LYP.pdb
     RDKit          3D

 28 29  0  0  1  0  0  0  0  0999 V2000
    6.9244  -21.3063   29.0800 C   0  0  0  0  0  0  0  0  0  0  0  0
    7.1798  -20.9927   27.6233 C   0  0  1  0  0  0  0  0  0  0  0  0
    6.1610  -21.6923   26.7485 C   0  0  0  0  0  0  0  0  0  0  0  0
    7.1005  -19.5139   27.3396 C   0  0  0  0  0  0  0  0  0  0  0  0
    7.3852  -19.3183   25.8656 C   0  0  2  0  0  0  0  0  0  0  0  0
    8.6030  -19.9265   25.4473 N   0  0  0  0  0  0  0  0  0  0  0  0
    7.3932  -17.8794   25.5099 C   0  0  0  0  0  0  0  0  0  0  0  0
    6.4415  -17.1048   25.7926 O   0  0  0  0  0  0  0  0  0  0  0  0
   10.1825  -14.5202   30.3747 O   0  0  0  0  0  0  0  0  0  0  0  0
   10.0846  -14.7082   29.0123 C   0  0  0  0  0  0  0  0  0  0  0  0
    9.3504  -13.8326   28.2468 C   0  0  0  0  0  0  0  0  0  0  0  0
    9.2483  -14.0150   26.8830 C   0  0  0  0  0  0  0  0  0  0  0  0
    9.8597  -15.0578   26.2234 C   0  0  0  0  0  0  0  0  0  0  0  0
    9.7534  -15.2565   24.7675 C   0  0  0  0  0  0  0  0  0  0  0  0
    8.4855  -15.9814   24.3374 C   0  0  2  0  0  0  0  0  0  0  0  0
    8.5180  -17.3347   24.8190 N   0  0  0  0  0  0  0  0  0  0  0  0
    8.2320  -15.9273   22.9007 C   0  0  0  0  0  0  0  0  0  0  0  0
    8.3494  -17.0417   22.2563 O   0  0  0  0  0  0  0  0  0  0  0  0
   10.6030  -15.9411   27.0112 C   0  0  0  0  0  0  0  0  0  0  0  0
   10.7042  -15.7580   28.3724 C   0  0  0  0  0  0  0  0  0  0  0  0
    7.8736  -14.8260   22.0968 N   0  0  0  0  0  0  0  0  0  0  0  0
    7.6005  -13.4848   22.5139 C   0  0  0  0  0  0  0  0  0  0  0  0
    7.5017  -12.6684   21.2111 C   0  0  0  0  0  0  0  0  0  0  0  0
    6.8720  -13.7333   20.3027 C   0  0  0  0  0  0  0  0  0  0  0  0
    7.7380  -14.9133   20.6454 C   0  0  1  0  0  0  0  0  0  0  0  0
    9.0668  -14.7917   19.9893 C   0  0  0  0  0  0  0  0  0  0  0  0
   10.0600  -14.4230   20.6626 O   0  0  0  0  0  0  0  0  0  0  0  0
    9.2122  -15.0805   18.6519 O   0  0  0  0  0  0  0  0  0  0  0  0
  2  1  1  1
  2  4  1  0
  3  2  1  0
  5  4  1  0
  5  6  1  1
  7  5  1  0
  7  8  2  0
  9 10  1  0
 10 11  2  0
 11 12  1  0
 13 12  2  0
 13 14  1  0
 15 14  1  6
 15 16  1  0
 16  7  1  0
 17 15  1  0
 18 17  2  0
 19 13  1  0
 20 10  1  0
 20 19  2  0
 21 17  1  0
 22 21  1  0
 22 23  1  0
 23 24  1  0
 25 21  1  0
 25 24  1  0
 25 26  1  6
 27 26  2  0
 28 26  1  0
M  END
$$$$
