LYP.pdb
     RDKit          3D

 28 29  0  0  1  0  0  0  0  0999 V2000
    9.2055  -13.3680   19.6976 C   0  0  0  0  0  0  0  0  0  0  0  0
    7.8071  -13.6358   20.2060 C   0  0  1  0  0  0  0  0  0  0  0  0
    6.9031  -12.4598   19.9023 C   0  0  0  0  0  0  0  0  0  0  0  0
    7.2009  -14.8644   19.5762 C   0  0  0  0  0  0  0  0  0  0  0  0
    7.8223  -16.0716   20.2459 C   0  0  2  0  0  0  0  0  0  0  0  0
    7.3843  -17.3063   19.6877 N   0  0  0  0  0  0  0  0  0  0  0  0
    7.5685  -16.0615   21.7063 C   0  0  0  0  0  0  0  0  0  0  0  0
    6.4401  -16.3213   22.2012 O   0  0  0  0  0  0  0  0  0  0  0  0
    9.0304  -17.7188   30.1621 O   0  0  0  0  0  0  0  0  0  0  0  0
    9.1027  -17.5454   28.7962 C   0  0  0  0  0  0  0  0  0  0  0  0
   10.1206  -16.7995   28.2492 C   0  0  0  0  0  0  0  0  0  0  0  0
   10.1988  -16.6221   26.8832 C   0  0  0  0  0  0  0  0  0  0  0  0
    9.2859  -17.1670   26.0080 C   0  0  0  0  0  0  0  0  0  0  0  0
    9.3653  -16.9801   24.5488 C   0  0  0  0  0  0  0  0  0  0  0  0
    8.4546  -15.8806   24.0198 C   0  0  2  0  0  0  0  0  0  0  0  0
    8.6361  -15.7466   22.6008 N   0  0  0  0  0  0  0  0  0  0  0  0
    8.6119  -14.6015   24.7057 C   0  0  0  0  0  0  0  0  0  0  0  0
    9.7442  -13.9999   24.5425 O   0  0  0  0  0  0  0  0  0  0  0  0
    8.2560  -17.9228   26.5750 C   0  0  0  0  0  0  0  0  0  0  0  0
    8.1790  -18.0993   27.9387 C   0  0  0  0  0  0  0  0  0  0  0  0
    7.7015  -13.9126   25.5329 N   0  0  0  0  0  0  0  0  0  0  0  0
    6.3946  -14.3290   25.9401 C   0  0  0  0  0  0  0  0  0  0  0  0
    5.9630  -13.3131   27.0149 C   0  0  0  0  0  0  0  0  0  0  0  0
    6.6369  -12.0563   26.4475 C   0  0  0  0  0  0  0  0  0  0  0  0
    7.9966  -12.6117   26.1271 C   0  0  1  0  0  0  0  0  0  0  0  0
    8.7979  -12.7752   27.3689 C   0  0  0  0  0  0  0  0  0  0  0  0
    9.2781  -11.7631   27.9354 O   0  0  0  0  0  0  0  0  0  0  0  0
    9.0146  -14.0266   27.8982 O   0  0  0  0  0  0  0  0  0  0  0  0
  2  1  1  6
  2  4  1  0
  3  2  1  0
  5  4  1  0
  5  6  1  6
  7  5  1  0
  7  8  2  0
  9 10  1  0
 10 11  2  0
 11 12  1  0
 13 12  2  0
 13 14  1  0
 15 14  1  1
 15 16  1  0
 16  7  1  0
 17 15  1  0
 18 17  2  0
 19 13  1  0
 20 10  1  0
 20 19  2  0
 21 17  1  0
 22 21  1  0
 22 23  1  0
 23 24  1  0
 25 21  1  0
 25 24  1  0
 25 26  1  1
 27 26  2  0
 28 26  1  0
M  END
$$$$
