LYP.pdb
     RDKit          3D

 28 29  0  0  1  0  0  0  0  0999 V2000
   12.5644  -21.1566   21.6957 C   0  0  0  0  0  0  0  0  0  0  0  0
   12.1804  -19.8149   21.1143 C   0  0  1  0  0  0  0  0  0  0  0  0
   10.8664  -19.9213   20.3694 C   0  0  0  0  0  0  0  0  0  0  0  0
   12.0280  -18.7585   22.1794 C   0  0  0  0  0  0  0  0  0  0  0  0
   11.5706  -17.4874   21.4961 C   0  0  2  0  0  0  0  0  0  0  0  0
   12.5653  -16.9202   20.6495 N   0  0  0  0  0  0  0  0  0  0  0  0
   11.1199  -16.4812   22.4869 C   0  0  0  0  0  0  0  0  0  0  0  0
   11.8757  -15.5746   22.9258 O   0  0  0  0  0  0  0  0  0  0  0  0
    5.7217  -11.4546   27.3362 O   0  0  0  0  0  0  0  0  0  0  0  0
    6.2527  -12.3496   26.4318 C   0  0  0  0  0  0  0  0  0  0  0  0
    6.1509  -13.7022   26.6599 C   0  0  0  0  0  0  0  0  0  0  0  0
    6.6801  -14.6032   25.7589 C   0  0  0  0  0  0  0  0  0  0  0  0
    7.3254  -14.2125   24.6069 C   0  0  0  0  0  0  0  0  0  0  0  0
    7.8920  -15.1709   23.6422 C   0  0  0  0  0  0  0  0  0  0  0  0
    9.3276  -15.5748   23.9486 C   0  0  2  0  0  0  0  0  0  0  0  0
    9.7779  -16.5284   22.9726 N   0  0  0  0  0  0  0  0  0  0  0  0
    9.5267  -16.0631   25.3099 C   0  0  0  0  0  0  0  0  0  0  0  0
    9.4526  -17.3428   25.4757 O   0  0  0  0  0  0  0  0  0  0  0  0
    7.4229  -12.8359   24.3855 C   0  0  0  0  0  0  0  0  0  0  0  0
    6.8943  -11.9375   25.2855 C   0  0  0  0  0  0  0  0  0  0  0  0
    9.7911  -15.3384   26.4900 N   0  0  0  0  0  0  0  0  0  0  0  0
    9.4563  -13.9779   26.7801 C   0  0  0  0  0  0  0  0  0  0  0  0
    9.7663  -13.7957   28.2782 C   0  0  0  0  0  0  0  0  0  0  0  0
   10.9856  -14.7212   28.3895 C   0  0  0  0  0  0  0  0  0  0  0  0
   10.4713  -15.9208   27.6436 C   0  0  1  0  0  0  0  0  0  0  0  0
    9.5114  -16.6842   28.4843 C   0  0  0  0  0  0  0  0  0  0  0  0
    8.2864  -16.6522   28.2124 O   0  0  0  0  0  0  0  0  0  0  0  0
    9.9585  -17.4232   29.5554 O   0  0  0  0  0  0  0  0  0  0  0  0
  2  1  1  1
  2  4  1  0
  3  2  1  0
  5  4  1  0
  5  6  1  1
  7  5  1  0
  7  8  2  0
  9 10  1  0
 10 11  2  0
 11 12  1  0
 13 12  2  0
 13 14  1  0
 15 14  1  6
 15 16  1  0
 16  7  1  0
 17 15  1  0
 18 17  2  0
 19 13  1  0
 20 10  1  0
 20 19  2  0
 21 17  1  0
 22 21  1  0
 22 23  1  0
 23 24  1  0
 25 21  1  0
 25 24  1  0
 25 26  1  1
 27 26  2  0
 28 26  1  0
M  END
$$$$
