LYP.pdb
     RDKit          3D

 28 29  0  0  1  0  0  0  0  0999 V2000
    7.8893  -13.0590   18.7883 C   0  0  0  0  0  0  0  0  0  0  0  0
    8.5602  -14.4137   18.7977 C   0  0  1  0  0  0  0  0  0  0  0  0
    8.6731  -14.9543   17.3878 C   0  0  0  0  0  0  0  0  0  0  0  0
    9.9470  -14.3552   19.3868 C   0  0  0  0  0  0  0  0  0  0  0  0
   10.0622  -15.4830   20.3901 C   0  0  2  0  0  0  0  0  0  0  0  0
    9.1096  -16.5196   20.1758 N   0  0  0  0  0  0  0  0  0  0  0  0
    9.9501  -14.9758   21.7784 C   0  0  0  0  0  0  0  0  0  0  0  0
   10.7680  -14.1535   22.2690 O   0  0  0  0  0  0  0  0  0  0  0  0
    5.8553  -11.3153   28.5110 O   0  0  0  0  0  0  0  0  0  0  0  0
    6.1682  -12.1344   27.4469 C   0  0  0  0  0  0  0  0  0  0  0  0
    6.5606  -11.5867   26.2478 C   0  0  0  0  0  0  0  0  0  0  0  0
    6.8751  -12.4007   25.1791 C   0  0  0  0  0  0  0  0  0  0  0  0
    6.8166  -13.7748   25.2470 C   0  0  0  0  0  0  0  0  0  0  0  0
    7.1513  -14.6478   24.1085 C   0  0  0  0  0  0  0  0  0  0  0  0
    8.6475  -14.8231   23.8880 C   0  0  2  0  0  0  0  0  0  0  0  0
    8.8772  -15.4281   22.6051 N   0  0  0  0  0  0  0  0  0  0  0  0
    9.3208  -15.5553   24.9566 C   0  0  0  0  0  0  0  0  0  0  0  0
    9.5933  -16.7958   24.7171 O   0  0  0  0  0  0  0  0  0  0  0  0
    6.4167  -14.3201   26.4702 C   0  0  0  0  0  0  0  0  0  0  0  0
    6.1030  -13.5067   27.5363 C   0  0  0  0  0  0  0  0  0  0  0  0
    9.7245  -15.1069   26.2308 N   0  0  0  0  0  0  0  0  0  0  0  0
    9.4125  -13.8628   26.8650 C   0  0  0  0  0  0  0  0  0  0  0  0
    9.9088  -14.0127   28.3158 C   0  0  0  0  0  0  0  0  0  0  0  0
   11.1438  -14.8879   28.0621 C   0  0  0  0  0  0  0  0  0  0  0  0
   10.5535  -15.9072   27.1281 C   0  0  1  0  0  0  0  0  0  0  0  0
    9.7184  -16.8806   27.8803 C   0  0  0  0  0  0  0  0  0  0  0  0
    8.4696  -16.8530   27.7565 O   0  0  0  0  0  0  0  0  0  0  0  0
   10.3064  -17.8085   28.7089 O   0  0  0  0  0  0  0  0  0  0  0  0
  2  1  1  6
  2  4  1  0
  3  2  1  0
  5  4  1  0
  5  6  1  6
  7  5  1  0
  7  8  2  0
  9 10  1  0
 10 11  2  0
 11 12  1  0
 13 12  2  0
 13 14  1  0
 15 14  1  1
 15 16  1  0
 16  7  1  0
 17 15  1  0
 18 17  2  0
 19 13  1  0
 20 10  1  0
 20 19  2  0
 21 17  1  0
 22 21  1  0
 22 23  1  0
 23 24  1  0
 25 21  1  0
 25 24  1  0
 25 26  1  1
 27 26  2  0
 28 26  1  0
M  END
$$$$
