LYP.pdb
     RDKit          3D

 28 29  0  0  1  0  0  0  0  0999 V2000
    7.1206  -14.5274   19.3039 C   0  0  0  0  0  0  0  0  0  0  0  0
    8.5194  -14.5520   18.7309 C   0  0  1  0  0  0  0  0  0  0  0  0
    8.6692  -13.4881   17.6639 C   0  0  0  0  0  0  0  0  0  0  0  0
    9.5682  -14.3052   19.7857 C   0  0  0  0  0  0  0  0  0  0  0  0
    9.6046  -15.5235   20.6836 C   0  0  2  0  0  0  0  0  0  0  0  0
    8.5013  -16.4004   20.4790 N   0  0  0  0  0  0  0  0  0  0  0  0
    9.6783  -15.1322   22.1114 C   0  0  0  0  0  0  0  0  0  0  0  0
   10.5491  -14.3373   22.5535 O   0  0  0  0  0  0  0  0  0  0  0  0
    5.6119  -10.5724   27.8144 O   0  0  0  0  0  0  0  0  0  0  0  0
    5.9846  -11.6662   27.0623 C   0  0  0  0  0  0  0  0  0  0  0  0
    5.6533  -12.9344   27.4790 C   0  0  0  0  0  0  0  0  0  0  0  0
    6.0232  -14.0332   26.7311 C   0  0  0  0  0  0  0  0  0  0  0  0
    6.7282  -13.9288   25.5528 C   0  0  0  0  0  0  0  0  0  0  0  0
    7.1254  -15.0992   24.7511 C   0  0  0  0  0  0  0  0  0  0  0  0
    8.5929  -15.0966   24.3455 C   0  0  2  0  0  0  0  0  0  0  0  0
    8.7309  -15.6694   23.0350 N   0  0  0  0  0  0  0  0  0  0  0  0
    9.4745  -15.7449   25.3117 C   0  0  0  0  0  0  0  0  0  0  0  0
    9.8498  -16.9485   25.0267 O   0  0  0  0  0  0  0  0  0  0  0  0
    7.0594  -12.6356   25.1392 C   0  0  0  0  0  0  0  0  0  0  0  0
    6.6896  -11.5395   25.8866 C   0  0  0  0  0  0  0  0  0  0  0  0
    9.9860  -15.2493   26.5284 N   0  0  0  0  0  0  0  0  0  0  0  0
    9.6894  -14.0021   27.1641 C   0  0  0  0  0  0  0  0  0  0  0  0
   10.3349  -14.0960   28.5598 C   0  0  0  0  0  0  0  0  0  0  0  0
   11.5725  -14.9298   28.2008 C   0  0  0  0  0  0  0  0  0  0  0  0
   10.9328  -15.9943   27.3537 C   0  0  1  0  0  0  0  0  0  0  0  0
   10.2178  -16.9793   28.2077 C   0  0  0  0  0  0  0  0  0  0  0  0
   10.8758  -17.7989   28.8940 O   0  0  0  0  0  0  0  0  0  0  0  0
    8.8425  -16.9964   28.2491 O   0  0  0  0  0  0  0  0  0  0  0  0
  2  1  1  1
  2  4  1  0
  3  2  1  0
  5  4  1  0
  5  6  1  1
  7  5  1  0
  7  8  2  0
  9 10  1  0
 10 11  2  0
 11 12  1  0
 13 12  2  0
 13 14  1  0
 15 14  1  1
 15 16  1  0
 16  7  1  0
 17 15  1  0
 18 17  2  0
 19 13  1  0
 20 10  1  0
 20 19  2  0
 21 17  1  0
 22 21  1  0
 22 23  1  0
 23 24  1  0
 25 21  1  0
 25 24  1  0
 25 26  1  1
 27 26  2  0
 28 26  1  0
M  END
$$$$
