LYP.pdb
     RDKit          3D

 28 29  0  0  1  0  0  0  0  0999 V2000
   13.1351  -20.1195   20.1638 C   0  0  0  0  0  0  0  0  0  0  0  0
   12.1736  -19.8551   21.3001 C   0  0  1  0  0  0  0  0  0  0  0  0
   12.2630  -20.9594   22.3322 C   0  0  0  0  0  0  0  0  0  0  0  0
   12.4601  -18.5463   21.9919 C   0  0  0  0  0  0  0  0  0  0  0  0
   11.6172  -17.4834   21.3200 C   0  0  2  0  0  0  0  0  0  0  0  0
   12.2824  -16.8490   20.2324 N   0  0  0  0  0  0  0  0  0  0  0  0
   11.1651  -16.4642   22.2967 C   0  0  0  0  0  0  0  0  0  0  0  0
   11.8457  -15.4421   22.5756 O   0  0  0  0  0  0  0  0  0  0  0  0
    5.7500  -11.6583   27.3322 O   0  0  0  0  0  0  0  0  0  0  0  0
    6.3015  -12.5352   26.4224 C   0  0  0  0  0  0  0  0  0  0  0  0
    6.1503  -13.8915   26.5936 C   0  0  0  0  0  0  0  0  0  0  0  0
    6.6997  -14.7745   25.6868 C   0  0  0  0  0  0  0  0  0  0  0  0
    7.4140  -14.3614   24.5844 C   0  0  0  0  0  0  0  0  0  0  0  0
    8.0025  -15.3006   23.6137 C   0  0  0  0  0  0  0  0  0  0  0  0
    9.4536  -15.6571   23.9059 C   0  0  2  0  0  0  0  0  0  0  0  0
    9.9098  -16.6338   22.9559 N   0  0  0  0  0  0  0  0  0  0  0  0
    9.6907  -16.0906   25.2796 C   0  0  0  0  0  0  0  0  0  0  0  0
    9.7341  -17.3672   25.4776 O   0  0  0  0  0  0  0  0  0  0  0  0
    7.5613  -12.9813   24.4206 C   0  0  0  0  0  0  0  0  0  0  0  0
    7.0125  -12.1009   25.3263 C   0  0  0  0  0  0  0  0  0  0  0  0
    9.8820  -15.3153   26.4415 N   0  0  0  0  0  0  0  0  0  0  0  0
    9.4879  -13.9585   26.6680 C   0  0  0  0  0  0  0  0  0  0  0  0
    9.7311  -13.7121   28.1693 C   0  0  0  0  0  0  0  0  0  0  0  0
   10.9770  -14.5876   28.3617 C   0  0  0  0  0  0  0  0  0  0  0  0
   10.5356  -15.8310   27.6413 C   0  0  1  0  0  0  0  0  0  0  0  0
    9.5705  -16.5988   28.4718 C   0  0  0  0  0  0  0  0  0  0  0  0
    9.9658  -17.1618   29.5218 O   0  0  0  0  0  0  0  0  0  0  0  0
    8.2503  -16.6949   28.0959 O   0  0  0  0  0  0  0  0  0  0  0  0
  2  1  1  6
  2  4  1  0
  3  2  1  0
  5  4  1  0
  5  6  1  6
  7  5  1  0
  7  8  2  0
  9 10  1  0
 10 11  2  0
 11 12  1  0
 13 12  2  0
 13 14  1  0
 15 14  1  1
 15 16  1  0
 16  7  1  0
 17 15  1  0
 18 17  2  0
 19 13  1  0
 20 10  1  0
 20 19  2  0
 21 17  1  0
 22 21  1  0
 22 23  1  0
 23 24  1  0
 25 21  1  0
 25 24  1  0
 25 26  1  1
 27 26  2  0
 28 26  1  0
M  END
$$$$
