CEI.pdb
     RDKit          3D

 24 23  0  0  1  0  0  0  0  0999 V2000
    7.0165  -15.0550   19.0141 N   0  0  0  0  0  0  0  0  0  0  0  0
    8.0569  -14.5262   19.8372 C   0  0  1  0  0  0  0  0  0  0  0  0
    7.9520  -13.0247   19.9741 C   0  0  0  0  0  0  0  0  0  0  0  0
    8.3129  -12.3126   18.3392 S   0  0  0  0  0  0  0  0  0  0  0  0
    8.1525  -15.2188   21.1213 C   0  0  0  0  0  0  0  0  0  0  0  0
    7.0662  -15.5066   21.7241 O   0  0  0  0  0  0  0  0  0  0  0  0
    9.3408  -15.6024   21.7629 N   0  0  0  0  0  0  0  0  0  0  0  0
    9.3603  -16.3814   22.9582 C   0  0  1  0  0  0  0  0  0  0  0  0
   10.4092  -17.4950   22.8861 C   0  0  0  0  0  0  0  0  0  0  0  0
   10.4386  -18.2427   24.2077 C   0  0  0  0  0  0  0  0  0  0  0  0
   11.4690  -19.2772   24.2348 C   0  0  0  0  0  0  0  0  0  0  0  0
   11.6638  -19.9758   25.2551 O   0  0  0  0  0  0  0  0  0  0  0  0
    9.6759  -15.5817   24.1710 C   0  0  0  0  0  0  0  0  0  0  0  0
   10.7718  -14.9629   24.1743 O   0  0  0  0  0  0  0  0  0  0  0  0
   12.2540  -19.5027   23.1202 O   0  0  0  0  0  0  0  0  0  0  0  0
    6.6679  -11.8925   26.3013 C   0  0  0  0  0  0  0  0  0  0  0  0
    7.8099  -12.7622   25.8791 C   0  0  0  0  0  0  0  0  0  0  0  0
    8.0635  -13.8340   26.9472 C   0  0  2  0  0  0  0  0  0  0  0  0
    8.5382  -13.1019   28.1836 C   0  0  0  0  0  0  0  0  0  0  0  0
    9.1842  -14.7484   26.5065 C   0  0  2  0  0  0  0  0  0  0  0  0
    8.8423  -15.4743   25.2960 N   0  0  0  0  0  0  0  0  0  0  0  0
    9.4097  -15.7480   27.5795 C   0  0  0  0  0  0  0  0  0  0  0  0
    8.8904  -17.0254   27.4554 O   0  0  0  0  0  0  0  0  0  0  0  0
   10.0692  -15.4761   28.6226 O   0  0  0  0  0  0  0  0  0  0  0  0
  2  3  1  0
  2  1  1  1
  4  3  1  0
  5  6  2  0
  5  2  1  0
  7  5  1  0
  8 13  1  0
  8  7  1  0
  8  9  1  6
 10  9  1  0
 10 11  1  0
 11 12  2  0
 13 21  1  0
 14 13  2  0
 15 11  1  0
 17 16  1  0
 18 17  1  0
 18 20  1  0
 18 19  1  1
 20 22  1  0
 20 21  1  6
 22 24  2  0
 22 23  1  0
M  END
$$$$
