CEI.pdb
     RDKit          3D

 24 23  0  0  1  0  0  0  0  0999 V2000
    7.4262  -14.4780   18.3417 N   0  0  0  0  0  0  0  0  0  0  0  0
    8.5321  -14.4113   19.2428 C   0  0  1  0  0  0  0  0  0  0  0  0
    9.0342  -12.9952   19.4068 C   0  0  0  0  0  0  0  0  0  0  0  0
    7.9327  -11.9218   18.4349 S   0  0  0  0  0  0  0  0  0  0  0  0
    8.2509  -15.0763   20.5142 C   0  0  0  0  0  0  0  0  0  0  0  0
    7.0962  -14.9105   21.0294 O   0  0  0  0  0  0  0  0  0  0  0  0
    9.1414  -15.8904   21.2318 N   0  0  0  0  0  0  0  0  0  0  0  0
    8.8060  -16.4946   22.4800 C   0  0  1  0  0  0  0  0  0  0  0  0
    9.4902  -17.8546   22.6479 C   0  0  0  0  0  0  0  0  0  0  0  0
    9.0990  -18.4508   23.9888 C   0  0  0  0  0  0  0  0  0  0  0  0
    9.8131  -19.6930   24.2710 C   0  0  0  0  0  0  0  0  0  0  0  0
   10.7994  -20.0472   23.5863 O   0  0  0  0  0  0  0  0  0  0  0  0
    9.2059  -15.6730   23.6526 C   0  0  0  0  0  0  0  0  0  0  0  0
   10.3638  -15.1802   23.6327 O   0  0  0  0  0  0  0  0  0  0  0  0
    9.4051  -20.5057   25.3114 O   0  0  0  0  0  0  0  0  0  0  0  0
    5.7486  -12.1812   25.7783 C   0  0  0  0  0  0  0  0  0  0  0  0
    6.9872  -12.8600   25.2848 C   0  0  0  0  0  0  0  0  0  0  0  0
    7.5463  -13.7738   26.3831 C   0  0  2  0  0  0  0  0  0  0  0  0
    8.0357  -12.8636   27.4886 C   0  0  0  0  0  0  0  0  0  0  0  0
    8.7445  -14.5351   25.8624 C   0  0  2  0  0  0  0  0  0  0  0  0
    8.3871  -15.4154   24.7639 N   0  0  0  0  0  0  0  0  0  0  0  0
    9.2643  -15.3820   26.9641 C   0  0  0  0  0  0  0  0  0  0  0  0
   10.2523  -14.8959   27.8034 O   0  0  0  0  0  0  0  0  0  0  0  0
    8.8340  -16.5518   27.1720 O   0  0  0  0  0  0  0  0  0  0  0  0
  2  3  1  0
  2  1  1  6
  4  3  1  0
  5  6  2  0
  5  2  1  0
  7  5  1  0
  8 13  1  0
  8  7  1  0
  8  9  1  1
 10  9  1  0
 10 11  1  0
 11 12  2  0
 13 21  1  0
 14 13  2  0
 15 11  1  0
 17 16  1  0
 18 17  1  0
 18 20  1  0
 18 19  1  1
 20 22  1  0
 20 21  1  6
 22 24  2  0
 22 23  1  0
M  END
$$$$
