CEI.pdb
     RDKit          3D

 24 23  0  0  1  0  0  0  0  0999 V2000
    7.0201  -15.8328   18.4587 N   0  0  0  0  0  0  0  0  0  0  0  0
    7.9814  -15.0408   19.1573 C   0  0  1  0  0  0  0  0  0  0  0  0
    7.6532  -13.5675   19.0803 C   0  0  0  0  0  0  0  0  0  0  0  0
    9.0029  -12.6753   19.9124 S   0  0  0  0  0  0  0  0  0  0  0  0
    8.2005  -15.5140   20.5233 C   0  0  0  0  0  0  0  0  0  0  0  0
    7.1761  -15.7022   21.2590 O   0  0  0  0  0  0  0  0  0  0  0  0
    9.4466  -15.7847   21.1105 N   0  0  0  0  0  0  0  0  0  0  0  0
    9.5835  -16.3671   22.4058 C   0  0  1  0  0  0  0  0  0  0  0  0
   10.8943  -17.1488   22.5347 C   0  0  0  0  0  0  0  0  0  0  0  0
   10.8844  -18.3096   21.5554 C   0  0  0  0  0  0  0  0  0  0  0  0
   11.3150  -19.5597   22.1754 C   0  0  0  0  0  0  0  0  0  0  0  0
   12.4962  -19.9624   22.0771 O   0  0  0  0  0  0  0  0  0  0  0  0
    9.5818  -15.3618   23.5011 C   0  0  0  0  0  0  0  0  0  0  0  0
   10.5162  -14.5188   23.4999 O   0  0  0  0  0  0  0  0  0  0  0  0
   10.4132  -20.3260   22.8888 O   0  0  0  0  0  0  0  0  0  0  0  0
    6.1551  -11.4488   26.3609 C   0  0  0  0  0  0  0  0  0  0  0  0
    7.3085  -12.3785   26.5708 C   0  0  0  0  0  0  0  0  0  0  0  0
    7.2986  -13.4645   25.4871 C   0  0  2  0  0  0  0  0  0  0  0  0
    6.1622  -14.4024   25.8320 C   0  0  0  0  0  0  0  0  0  0  0  0
    8.5790  -14.2665   25.5469 C   0  0  2  0  0  0  0  0  0  0  0  0
    8.6192  -15.2939   24.5211 N   0  0  0  0  0  0  0  0  0  0  0  0
    8.6334  -14.9467   26.8643 C   0  0  0  0  0  0  0  0  0  0  0  0
    8.5352  -16.3258   26.9356 O   0  0  0  0  0  0  0  0  0  0  0  0
    8.7683  -14.3064   27.9455 O   0  0  0  0  0  0  0  0  0  0  0  0
  2  3  1  0
  2  1  1  1
  4  3  1  0
  5  6  2  0
  5  2  1  0
  7  5  1  0
  8 13  1  0
  8  7  1  0
  8  9  1  6
 10  9  1  0
 10 11  1  0
 11 12  2  0
 13 21  1  0
 14 13  2  0
 15 11  1  0
 17 16  1  0
 18 17  1  0
 18 20  1  0
 18 19  1  1
 20 22  1  0
 20 21  1  6
 22 24  2  0
 22 23  1  0
M  END
$$$$
