NQG.pdb
     RDKit          3D

 22 21  0  0  1  0  0  0  0  0999 V2000
   26.0064  -22.2161  -11.7822 N   0  0  0  0  0  0  0  0  0  0  0  0
   25.4037  -23.1433  -12.6690 C   0  0  0  0  0  0  0  0  0  0  0  0
   25.5997  -24.3678  -12.5256 O   0  0  0  0  0  0  0  0  0  0  0  0
   24.5420  -22.6476  -13.7639 C   0  0  0  0  0  0  0  0  0  0  0  0
   24.4786  -21.1545  -13.6971 C   0  0  2  0  0  0  0  0  0  0  0  0
   24.4832  -20.7090  -12.3407 N   0  0  0  0  0  0  0  0  0  0  0  0
   23.3195  -20.5739  -14.3894 C   0  0  0  0  0  0  0  0  0  0  0  0
   22.9442  -21.0786  -15.4729 O   0  0  0  0  0  0  0  0  0  0  0  0
   18.0809  -18.5792  -12.0164 N   0  0  0  0  0  0  0  0  0  0  0  0
   18.3385  -19.8723  -12.5751 C   0  0  0  0  0  0  0  0  0  0  0  0
   17.5858  -20.8445  -12.3524 O   0  0  0  0  0  0  0  0  0  0  0  0
   19.5350  -20.0760  -13.4482 C   0  0  0  0  0  0  0  0  0  0  0  0
   20.2910  -18.8041  -13.5961 C   0  0  0  0  0  0  0  0  0  0  0  0
   21.4663  -18.8536  -14.5359 C   0  0  2  0  0  0  0  0  0  0  0  0
   22.6231  -19.4571  -13.8529 N   0  0  0  0  0  0  0  0  0  0  0  0
   21.8189  -17.5237  -15.0427 C   0  0  0  0  0  0  0  0  0  0  0  0
   22.3140  -16.6047  -14.3416 O   0  0  0  0  0  0  0  0  0  0  0  0
   21.5826  -17.2470  -16.4429 N   0  0  0  0  0  0  0  0  0  0  0  0
   21.8947  -15.9309  -16.9264 C   0  0  0  0  0  0  0  0  0  0  0  0
   20.8634  -15.4158  -17.8427 C   0  0  0  0  0  0  0  0  0  0  0  0
   19.8430  -16.1002  -18.1034 O   0  0  0  0  0  0  0  0  0  0  0  0
   21.0177  -14.1772  -18.4174 O   0  0  0  0  0  0  0  0  0  0  0  0
  1  2  1  0
  2  3  2  0
  2  4  1  0
  5  6  1  1
  5  7  1  0
  5  4  1  0
  7  8  2  0
  9 10  1  0
 10 12  1  0
 11 10  2  0
 12 13  1  0
 14 13  1  1
 14 16  1  0
 15  7  1  0
 15 14  1  0
 16 18  1  0
 16 17  2  0
 18 19  1  0
 20 19  1  0
 20 22  1  0
 21 20  2  0
M  END
$$$$
