NQG.pdb
     RDKit          3D

 22 21  0  0  1  0  0  0  0  0999 V2000
   19.2377  -12.7231  -15.4416 N   0  0  0  0  0  0  0  0  0  0  0  0
   19.4795  -11.3848  -15.8416 C   0  0  0  0  0  0  0  0  0  0  0  0
   20.5545  -11.0804  -16.3984 O   0  0  0  0  0  0  0  0  0  0  0  0
   18.4482  -10.3542  -15.5935 C   0  0  0  0  0  0  0  0  0  0  0  0
   17.3009  -10.9778  -14.8638 C   0  0  2  0  0  0  0  0  0  0  0  0
   16.7339  -12.0414  -15.6289 N   0  0  0  0  0  0  0  0  0  0  0  0
   16.2390  -10.0300  -14.4982 C   0  0  0  0  0  0  0  0  0  0  0  0
   15.3778   -9.7231  -15.3550 O   0  0  0  0  0  0  0  0  0  0  0  0
   13.2996  -10.1506   -9.2885 N   0  0  0  0  0  0  0  0  0  0  0  0
   12.6458   -9.0116   -9.8594 C   0  0  0  0  0  0  0  0  0  0  0  0
   11.6130   -8.5253   -9.3511 O   0  0  0  0  0  0  0  0  0  0  0  0
   13.2037   -8.3802  -11.0944 C   0  0  0  0  0  0  0  0  0  0  0  0
   14.4118   -9.1166  -11.5523 C   0  0  0  0  0  0  0  0  0  0  0  0
   15.0763   -8.5685  -12.7872 C   0  0  2  0  0  0  0  0  0  0  0  0
   16.1740   -9.4603  -13.1977 N   0  0  0  0  0  0  0  0  0  0  0  0
   15.5841   -7.2089  -12.5784 C   0  0  0  0  0  0  0  0  0  0  0  0
   16.4932   -6.9075  -11.7634 O   0  0  0  0  0  0  0  0  0  0  0  0
   15.0025   -6.1401  -13.3609 N   0  0  0  0  0  0  0  0  0  0  0  0
   15.4301   -4.7977  -13.0815 C   0  0  0  0  0  0  0  0  0  0  0  0
   16.5450   -4.3774  -13.9468 C   0  0  0  0  0  0  0  0  0  0  0  0
   16.9843   -3.2018  -13.8946 O   0  0  0  0  0  0  0  0  0  0  0  0
   17.1098   -5.2773  -14.8183 O   0  0  0  0  0  0  0  0  0  0  0  0
  1  2  1  0
  2  3  2  0
  2  4  1  0
  5  6  1  6
  5  7  1  0
  5  4  1  0
  7  8  2  0
  9 10  1  0
 10 12  1  0
 11 10  2  0
 12 13  1  0
 14 13  1  1
 14 16  1  0
 15  7  1  0
 15 14  1  0
 16 18  1  0
 16 17  2  0
 18 19  1  0
 20 19  1  0
 20 22  1  0
 21 20  2  0
M  END
$$$$
