NQG.pdb
     RDKit          3D

 22 21  0  0  1  0  0  0  0  0999 V2000
   11.2651  -12.9424   -9.8903 N   0  0  0  0  0  0  0  0  0  0  0  0
   12.1172  -12.2191  -10.7622 C   0  0  0  0  0  0  0  0  0  0  0  0
   12.5274  -12.7443  -11.8178 O   0  0  0  0  0  0  0  0  0  0  0  0
   12.5152  -10.8389  -10.4105 C   0  0  0  0  0  0  0  0  0  0  0  0
   13.8545  -10.5494  -11.0107 C   0  0  2  0  0  0  0  0  0  0  0  0
   14.8417  -11.4444  -10.4982 N   0  0  0  0  0  0  0  0  0  0  0  0
   14.3115   -9.1666  -10.8138 C   0  0  0  0  0  0  0  0  0  0  0  0
   13.5917   -8.2256  -11.2214 O   0  0  0  0  0  0  0  0  0  0  0  0
   15.2035   -4.6891   -8.2276 N   0  0  0  0  0  0  0  0  0  0  0  0
   14.4125   -5.7423   -7.6658 C   0  0  0  0  0  0  0  0  0  0  0  0
   13.3156   -5.5146   -7.1123 O   0  0  0  0  0  0  0  0  0  0  0  0
   14.9012   -7.1534   -7.7374 C   0  0  0  0  0  0  0  0  0  0  0  0
   16.1735   -7.2228   -8.5041 C   0  0  0  0  0  0  0  0  0  0  0  0
   16.0293   -7.5044   -9.9761 C   0  0  2  0  0  0  0  0  0  0  0  0
   15.5479   -8.8822  -10.1732 N   0  0  0  0  0  0  0  0  0  0  0  0
   17.2895   -7.3038  -10.6983 C   0  0  0  0  0  0  0  0  0  0  0  0
   17.9992   -6.2691  -10.6146 O   0  0  0  0  0  0  0  0  0  0  0  0
   17.7500   -8.3655  -11.5664 N   0  0  0  0  0  0  0  0  0  0  0  0
   18.9758   -8.1569  -12.2855 C   0  0  0  0  0  0  0  0  0  0  0  0
   18.7517   -7.5199  -13.5941 C   0  0  0  0  0  0  0  0  0  0  0  0
   17.5993   -7.1567  -13.9373 O   0  0  0  0  0  0  0  0  0  0  0  0
   19.8106   -7.3208  -14.4470 O   0  0  0  0  0  0  0  0  0  0  0  0
  1  2  1  0
  2  3  2  0
  2  4  1  0
  5  6  1  1
  5  7  1  0
  5  4  1  0
  7  8  2  0
  9 10  1  0
 10 12  1  0
 11 10  2  0
 12 13  1  0
 14 13  1  1
 14 16  1  0
 15  7  1  0
 15 14  1  0
 16 18  1  0
 16 17  2  0
 18 19  1  0
 20 19  1  0
 20 22  1  0
 21 20  2  0
M  END
$$$$
