NQG.pdb
     RDKit          3D

 22 21  0  0  1  0  0  0  0  0999 V2000
   16.4500  -12.1884  -16.2516 N   0  0  0  0  0  0  0  0  0  0  0  0
   17.1629  -12.8809  -15.2409 C   0  0  0  0  0  0  0  0  0  0  0  0
   16.6162  -13.8099  -14.6112 O   0  0  0  0  0  0  0  0  0  0  0  0
   18.5580  -12.4935  -14.9397 C   0  0  0  0  0  0  0  0  0  0  0  0
   18.9559  -11.3655  -15.8380 C   0  0  2  0  0  0  0  0  0  0  0  0
   19.0644  -11.8107  -17.1901 N   0  0  0  0  0  0  0  0  0  0  0  0
   20.2091  -10.7042  -15.4481 C   0  0  0  0  0  0  0  0  0  0  0  0
   20.3371  -10.2914  -14.2720 O   0  0  0  0  0  0  0  0  0  0  0  0
   25.3984  -12.0704  -15.7940 N   0  0  0  0  0  0  0  0  0  0  0  0
   25.8582  -10.7210  -15.9286 C   0  0  0  0  0  0  0  0  0  0  0  0
   26.9901  -10.3713  -15.5313 O   0  0  0  0  0  0  0  0  0  0  0  0
   24.9705   -9.6962  -16.5588 C   0  0  0  0  0  0  0  0  0  0  0  0
   23.6418  -10.2851  -16.8738 C   0  0  0  0  0  0  0  0  0  0  0  0
   22.4958   -9.7863  -16.0343 C   0  0  2  0  0  0  0  0  0  0  0  0
   21.2699  -10.5271  -16.3771 N   0  0  0  0  0  0  0  0  0  0  0  0
   22.2777   -8.3464  -16.2049 C   0  0  0  0  0  0  0  0  0  0  0  0
   22.0675   -7.7860  -17.3109 O   0  0  0  0  0  0  0  0  0  0  0  0
   22.3056   -7.5116  -15.0237 N   0  0  0  0  0  0  0  0  0  0  0  0
   22.2015   -6.0907  -15.2065 C   0  0  0  0  0  0  0  0  0  0  0  0
   22.1956   -5.3640  -13.9258 C   0  0  0  0  0  0  0  0  0  0  0  0
   22.1985   -5.9908  -12.8372 O   0  0  0  0  0  0  0  0  0  0  0  0
   22.1868   -3.9899  -13.9203 O   0  0  0  0  0  0  0  0  0  0  0  0
  1  2  1  0
  2  3  2  0
  2  4  1  0
  5  6  1  6
  5  7  1  0
  5  4  1  0
  7  8  2  0
  9 10  1  0
 10 12  1  0
 11 10  2  0
 12 13  1  0
 14 13  1  6
 14 16  1  0
 15  7  1  0
 15 14  1  0
 16 18  1  0
 16 17  2  0
 18 19  1  0
 20 19  1  0
 20 22  1  0
 21 20  2  0
M  END
$$$$
