NQG.pdb
     RDKit          3D

 22 21  0  0  1  0  0  0  0  0999 V2000
   28.9766  -20.6886  -11.7971 N   0  0  0  0  0  0  0  0  0  0  0  0
   27.6777  -21.2457  -11.6877 C   0  0  0  0  0  0  0  0  0  0  0  0
   27.2641  -21.6626  -10.5860 O   0  0  0  0  0  0  0  0  0  0  0  0
   26.8185  -21.3285  -12.8885 C   0  0  0  0  0  0  0  0  0  0  0  0
   25.6929  -20.3528  -12.7511 C   0  0  2  0  0  0  0  0  0  0  0  0
   24.8589  -20.6963  -11.6444 N   0  0  0  0  0  0  0  0  0  0  0  0
   24.8624  -20.2248  -13.9568 C   0  0  0  0  0  0  0  0  0  0  0  0
   25.4230  -20.0673  -15.0661 O   0  0  0  0  0  0  0  0  0  0  0  0
   20.5187  -22.7771  -13.0392 N   0  0  0  0  0  0  0  0  0  0  0  0
   21.5420  -23.4304  -13.7987 C   0  0  0  0  0  0  0  0  0  0  0  0
   21.8950  -24.6031  -13.5506 O   0  0  0  0  0  0  0  0  0  0  0  0
   22.2118  -22.7009  -14.9187 C   0  0  0  0  0  0  0  0  0  0  0  0
   21.6164  -21.3485  -15.0854 C   0  0  0  0  0  0  0  0  0  0  0  0
   22.5953  -20.2044  -15.0860 C   0  0  2  0  0  0  0  0  0  0  0  0
   23.4439  -20.2764  -13.8845 N   0  0  0  0  0  0  0  0  0  0  0  0
   21.9191  -18.9048  -15.1470 C   0  0  0  0  0  0  0  0  0  0  0  0
   21.2711  -18.3959  -14.1970 O   0  0  0  0  0  0  0  0  0  0  0  0
   22.0008  -18.1552  -16.3816 N   0  0  0  0  0  0  0  0  0  0  0  0
   21.3773  -16.8618  -16.4211 C   0  0  0  0  0  0  0  0  0  0  0  0
   19.9445  -16.9446  -16.7505 C   0  0  0  0  0  0  0  0  0  0  0  0
   19.0944  -17.1538  -15.8496 O   0  0  0  0  0  0  0  0  0  0  0  0
   19.5331  -16.7921  -18.0527 O   0  0  0  0  0  0  0  0  0  0  0  0
  1  2  1  0
  2  3  2  0
  2  4  1  0
  5  6  1  1
  5  7  1  0
  5  4  1  0
  7  8  2  0
  9 10  1  0
 10 12  1  0
 11 10  2  0
 12 13  1  0
 14 13  1  1
 14 16  1  0
 15  7  1  0
 15 14  1  0
 16 18  1  0
 16 17  2  0
 18 19  1  0
 20 19  1  0
 20 22  1  0
 21 20  2  0
M  END
$$$$
