NQG.pdb
     RDKit          3D

 22 21  0  0  1  0  0  0  0  0999 V2000
   23.8836  -32.5602   -4.1017 N   0  0  0  0  0  0  0  0  0  0  0  0
   24.8977  -33.2074   -4.8515 C   0  0  0  0  0  0  0  0  0  0  0  0
   24.7604  -33.3730   -6.0812 O   0  0  0  0  0  0  0  0  0  0  0  0
   26.1178  -33.6838   -4.1649 C   0  0  0  0  0  0  0  0  0  0  0  0
   26.0333  -33.3252   -2.7151 C   0  0  2  0  0  0  0  0  0  0  0  0
   26.7912  -32.1467   -2.4413 N   0  0  0  0  0  0  0  0  0  0  0  0
   26.4673  -34.3969   -1.8080 C   0  0  0  0  0  0  0  0  0  0  0  0
   25.6511  -35.2941   -1.4940 O   0  0  0  0  0  0  0  0  0  0  0  0
   29.7892  -39.4972   -1.7824 N   0  0  0  0  0  0  0  0  0  0  0  0
   29.1197  -38.6053   -0.8842 C   0  0  0  0  0  0  0  0  0  0  0  0
   27.9216  -38.7693   -0.5692 O   0  0  0  0  0  0  0  0  0  0  0  0
   29.8625  -37.4455   -0.3025 C   0  0  0  0  0  0  0  0  0  0  0  0
   29.4525  -36.1809   -0.9688 C   0  0  0  0  0  0  0  0  0  0  0  0
   28.2454  -35.4997   -0.3806 C   0  0  2  0  0  0  0  0  0  0  0  0
   27.7884  -34.4311   -1.2852 N   0  0  0  0  0  0  0  0  0  0  0  0
   28.5213  -34.9487    0.9499 C   0  0  0  0  0  0  0  0  0  0  0  0
   28.9940  -35.6107    1.9088 O   0  0  0  0  0  0  0  0  0  0  0  0
   28.2312  -33.5499    1.1780 N   0  0  0  0  0  0  0  0  0  0  0  0
   28.5646  -32.9985    2.4618 C   0  0  0  0  0  0  0  0  0  0  0  0
   27.4415  -33.0796    3.4107 C   0  0  0  0  0  0  0  0  0  0  0  0
   27.1173  -34.1801    3.9222 O   0  0  0  0  0  0  0  0  0  0  0  0
   26.7422  -31.9434    3.7399 O   0  0  0  0  0  0  0  0  0  0  0  0
  1  2  1  0
  2  3  2  0
  2  4  1  0
  5  6  1  6
  5  7  1  0
  5  4  1  0
  7  8  2  0
  9 10  1  0
 10 12  1  0
 11 10  2  0
 12 13  1  0
 14 13  1  6
 14 16  1  0
 15  7  1  0
 15 14  1  0
 16 18  1  0
 16 17  2  0
 18 19  1  0
 20 19  1  0
 20 22  1  0
 21 20  2  0
M  END
$$$$
