NQG.pdb
     RDKit          3D

 22 21  0  0  1  0  0  0  0  0999 V2000
   16.8662  -13.6210  -16.0452 N   0  0  0  0  0  0  0  0  0  0  0  0
   17.4662  -13.6146  -14.7609 C   0  0  0  0  0  0  0  0  0  0  0  0
   17.2268  -14.5343  -13.9514 O   0  0  0  0  0  0  0  0  0  0  0  0
   18.3769  -12.5102  -14.3893 C   0  0  0  0  0  0  0  0  0  0  0  0
   18.4807  -11.5564  -15.5370 C   0  0  2  0  0  0  0  0  0  0  0  0
   19.1336  -12.1716  -16.6476 N   0  0  0  0  0  0  0  0  0  0  0  0
   19.1704  -10.3005  -15.2099 C   0  0  0  0  0  0  0  0  0  0  0  0
   18.7907   -9.6408  -14.2147 O   0  0  0  0  0  0  0  0  0  0  0  0
   24.9681   -8.9310  -17.0096 N   0  0  0  0  0  0  0  0  0  0  0  0
   24.5839   -7.6421  -16.5178 C   0  0  0  0  0  0  0  0  0  0  0  0
   25.3735   -6.6737  -16.5299 O   0  0  0  0  0  0  0  0  0  0  0  0
   23.2062   -7.4383  -15.9739 C   0  0  0  0  0  0  0  0  0  0  0  0
   22.3877   -8.6652  -16.1634 C   0  0  0  0  0  0  0  0  0  0  0  0
   20.9635   -8.5753  -15.6832 C   0  0  2  0  0  0  0  0  0  0  0  0
   20.2531   -9.8262  -15.9990 N   0  0  0  0  0  0  0  0  0  0  0  0
   20.2575   -7.4334  -16.2728 C   0  0  0  0  0  0  0  0  0  0  0  0
   19.9728   -7.3274  -17.4930 O   0  0  0  0  0  0  0  0  0  0  0  0
   19.8606   -6.3546  -15.3944 N   0  0  0  0  0  0  0  0  0  0  0  0
   19.2221   -5.2117  -15.9853 C   0  0  0  0  0  0  0  0  0  0  0  0
   19.0206   -4.1230  -15.0145 C   0  0  0  0  0  0  0  0  0  0  0  0
   18.6012   -3.0010  -15.3929 O   0  0  0  0  0  0  0  0  0  0  0  0
   19.2932   -4.3349  -13.6844 O   0  0  0  0  0  0  0  0  0  0  0  0
  1  2  1  0
  2  3  2  0
  2  4  1  0
  5  6  1  6
  5  7  1  0
  5  4  1  0
  7  8  2  0
  9 10  1  0
 10 12  1  0
 11 10  2  0
 12 13  1  0
 14 13  1  6
 14 16  1  0
 15  7  1  0
 15 14  1  0
 16 18  1  0
 16 17  2  0
 18 19  1  0
 20 19  1  0
 20 22  1  0
 21 20  2  0
M  END
$$$$
