NQG.pdb
     RDKit          3D

 22 21  0  0  1  0  0  0  0  0999 V2000
   27.8550  -18.3604  -18.5793 N   0  0  0  0  0  0  0  0  0  0  0  0
   27.5922  -18.4054  -17.1871 C   0  0  0  0  0  0  0  0  0  0  0  0
   28.2607  -17.7053  -16.3988 O   0  0  0  0  0  0  0  0  0  0  0  0
   26.5203  -19.2879  -16.6776 C   0  0  0  0  0  0  0  0  0  0  0  0
   26.9653  -19.9013  -15.3878 C   0  0  2  0  0  0  0  0  0  0  0  0
   28.1129  -20.7260  -15.5902 N   0  0  0  0  0  0  0  0  0  0  0  0
   25.9244  -20.6851  -14.7082 C   0  0  0  0  0  0  0  0  0  0  0  0
   25.5924  -21.7954  -15.1845 O   0  0  0  0  0  0  0  0  0  0  0  0
   24.9368  -20.6998   -8.6348 N   0  0  0  0  0  0  0  0  0  0  0  0
   26.0398  -21.1875   -9.4070 C   0  0  0  0  0  0  0  0  0  0  0  0
   27.1378  -21.4650   -8.8791 O   0  0  0  0  0  0  0  0  0  0  0  0
   25.8852  -21.3733  -10.8824 C   0  0  0  0  0  0  0  0  0  0  0  0
   24.5402  -20.9181  -11.3238 C   0  0  0  0  0  0  0  0  0  0  0  0
   24.2824  -20.9973  -12.8051 C   0  0  2  0  0  0  0  0  0  0  0  0
   25.2932  -20.2070  -13.5280 N   0  0  0  0  0  0  0  0  0  0  0  0
   22.9364  -20.5311  -13.1527 C   0  0  0  0  0  0  0  0  0  0  0  0
   22.6384  -19.3320  -13.3865 O   0  0  0  0  0  0  0  0  0  0  0  0
   21.8779  -21.5140  -13.2328 N   0  0  0  0  0  0  0  0  0  0  0  0
   20.5367  -21.0380  -13.4268 C   0  0  0  0  0  0  0  0  0  0  0  0
   20.1015  -21.1565  -14.8286 C   0  0  0  0  0  0  0  0  0  0  0  0
   20.9408  -21.3544  -15.7420 O   0  0  0  0  0  0  0  0  0  0  0  0
   18.7676  -21.0500  -15.1409 O   0  0  0  0  0  0  0  0  0  0  0  0
  1  2  1  0
  2  3  2  0
  2  4  1  0
  5  6  1  6
  5  7  1  0
  5  4  1  0
  7  8  2  0
  9 10  1  0
 10 12  1  0
 11 10  2  0
 12 13  1  0
 14 13  1  1
 14 16  1  0
 15  7  1  0
 15 14  1  0
 16 18  1  0
 16 17  2  0
 18 19  1  0
 20 19  1  0
 20 22  1  0
 21 20  2  0
M  END
$$$$
