NQG.pdb
     RDKit          3D

 22 21  0  0  1  0  0  0  0  0999 V2000
   18.9342   -9.9513  -15.0725 N   0  0  0  0  0  0  0  0  0  0  0  0
   17.7615  -10.6926  -14.7816 C   0  0  0  0  0  0  0  0  0  0  0  0
   17.4623  -11.6900  -15.4701 O   0  0  0  0  0  0  0  0  0  0  0  0
   16.8971  -10.2744  -13.6569 C   0  0  0  0  0  0  0  0  0  0  0  0
   17.4816   -9.0534  -13.0202 C   0  0  2  0  0  0  0  0  0  0  0  0
   18.6655   -9.3808  -12.2925 N   0  0  0  0  0  0  0  0  0  0  0  0
   16.5535   -8.3401  -12.1317 C   0  0  0  0  0  0  0  0  0  0  0  0
   15.4784   -7.9017  -12.6026 O   0  0  0  0  0  0  0  0  0  0  0  0
   12.7526   -7.9484   -8.1379 N   0  0  0  0  0  0  0  0  0  0  0  0
   13.0792   -9.1071   -8.9134 C   0  0  0  0  0  0  0  0  0  0  0  0
   12.2101   -9.9432   -9.2407 O   0  0  0  0  0  0  0  0  0  0  0  0
   14.4919   -9.3326   -9.3477 C   0  0  0  0  0  0  0  0  0  0  0  0
   15.3724   -8.2531   -8.8274 C   0  0  0  0  0  0  0  0  0  0  0  0
   15.9811   -7.3536   -9.8702 C   0  0  2  0  0  0  0  0  0  0  0  0
   16.8542   -8.1412  -10.7569 N   0  0  0  0  0  0  0  0  0  0  0  0
   16.7381   -6.2514   -9.2684 C   0  0  0  0  0  0  0  0  0  0  0  0
   17.8437   -6.3847   -8.6842 O   0  0  0  0  0  0  0  0  0  0  0  0
   16.1783   -4.9199   -9.3506 N   0  0  0  0  0  0  0  0  0  0  0  0
   16.9453   -3.8370   -8.8009 C   0  0  0  0  0  0  0  0  0  0  0  0
   16.2500   -2.5447   -8.9228 C   0  0  0  0  0  0  0  0  0  0  0  0
   15.2282   -2.4363   -9.6454 O   0  0  0  0  0  0  0  0  0  0  0  0
   16.7216   -1.4485   -8.2415 O   0  0  0  0  0  0  0  0  0  0  0  0
  1  2  1  0
  2  3  2  0
  2  4  1  0
  5  6  1  1
  5  7  1  0
  5  4  1  0
  7  8  2  0
  9 10  1  0
 10 12  1  0
 11 10  2  0
 12 13  1  0
 14 13  1  1
 14 16  1  0
 15  7  1  0
 15 14  1  0
 16 18  1  0
 16 17  2  0
 18 19  1  0
 20 19  1  0
 20 22  1  0
 21 20  2  0
M  END
$$$$
