NQG.pdb
     RDKit          3D

 22 21  0  0  1  0  0  0  0  0999 V2000
   20.6346  -18.4484  -16.4672 N   0  0  0  0  0  0  0  0  0  0  0  0
   20.8044  -17.1691  -15.8808 C   0  0  0  0  0  0  0  0  0  0  0  0
   21.4026  -17.0521  -14.7913 O   0  0  0  0  0  0  0  0  0  0  0  0
   20.2672  -15.9761  -16.5702 C   0  0  0  0  0  0  0  0  0  0  0  0
   19.7539  -15.0118  -15.5482 C   0  0  2  0  0  0  0  0  0  0  0  0
   18.7620  -15.6273  -14.7263 N   0  0  0  0  0  0  0  0  0  0  0  0
   19.2049  -13.7732  -16.1176 C   0  0  0  0  0  0  0  0  0  0  0  0
   19.7650  -13.2635  -17.1157 O   0  0  0  0  0  0  0  0  0  0  0  0
   14.3503  -14.1361  -15.4694 N   0  0  0  0  0  0  0  0  0  0  0  0
   14.7492  -14.1957  -16.8434 C   0  0  0  0  0  0  0  0  0  0  0  0
   14.3871  -15.1290  -17.5913 O   0  0  0  0  0  0  0  0  0  0  0  0
   15.6205  -13.1201  -17.4082 C   0  0  0  0  0  0  0  0  0  0  0  0
   15.9867  -12.1412  -16.3504 C   0  0  0  0  0  0  0  0  0  0  0  0
   17.4633  -11.9343  -16.1411 C   0  0  2  0  0  0  0  0  0  0  0  0
   18.0572  -13.1492  -15.5579 N   0  0  0  0  0  0  0  0  0  0  0  0
   17.7383  -10.7780  -15.2825 C   0  0  0  0  0  0  0  0  0  0  0  0
   17.6802  -10.7961  -14.0264 O   0  0  0  0  0  0  0  0  0  0  0  0
   18.1010   -9.5310  -15.9200 N   0  0  0  0  0  0  0  0  0  0  0  0
   18.3197   -8.3883  -15.0777 C   0  0  0  0  0  0  0  0  0  0  0  0
   18.6299   -7.1760  -15.8540 C   0  0  0  0  0  0  0  0  0  0  0  0
   18.7267   -7.2279  -17.1053 O   0  0  0  0  0  0  0  0  0  0  0  0
   18.8149   -5.9786  -15.2058 O   0  0  0  0  0  0  0  0  0  0  0  0
  1  2  1  0
  2  3  2  0
  2  4  1  0
  5  6  1  6
  5  7  1  0
  5  4  1  0
  7  8  2  0
  9 10  1  0
 10 12  1  0
 11 10  2  0
 12 13  1  0
 14 13  1  1
 14 16  1  0
 15  7  1  0
 15 14  1  0
 16 18  1  0
 16 17  2  0
 18 19  1  0
 20 19  1  0
 20 22  1  0
 21 20  2  0
M  END
$$$$
