PND.pdb
     RDKit          3D

 24 24  0  0  1  0  0  0  0  0999 V2000
   19.3266  -10.8619  -16.5408 N   0  0  0  0  0  0  0  0  0  0  0  0
   18.5356  -12.0051  -16.9147 C   0  0  0  0  0  0  0  0  0  0  0  0
   19.5274  -13.0807  -17.3057 C   0  0  0  0  0  0  0  0  0  0  0  0
   20.6809  -12.7988  -16.3814 C   0  0  0  0  0  0  0  0  0  0  0  0
   20.5427  -11.3678  -15.9078 C   0  0  1  0  0  0  0  0  0  0  0  0
   21.6696  -10.5087  -16.2971 C   0  0  0  0  0  0  0  0  0  0  0  0
   22.8368  -10.7300  -15.8703 O   0  0  0  0  0  0  0  0  0  0  0  0
   22.0472  -10.0493  -20.9121 N   0  0  0  0  0  0  0  0  0  0  0  0
   22.8339   -9.7434  -19.7421 C   0  0  0  0  0  0  0  0  0  0  0  0
   23.6627  -10.6258  -19.3409 O   0  0  0  0  0  0  0  0  0  0  0  0
   22.6540   -8.4408  -19.0620 C   0  0  0  0  0  0  0  0  0  0  0  0
   22.6670   -8.5620  -17.5423 C   0  0  2  0  0  0  0  0  0  0  0  0
   21.5356   -9.3816  -17.1702 N   0  0  0  0  0  0  0  0  0  0  0  0
   22.5893   -7.2017  -16.9786 C   0  0  0  0  0  0  0  0  0  0  0  0
   23.5340   -6.4041  -17.2371 O   0  0  0  0  0  0  0  0  0  0  0  0
   21.5336   -6.7370  -16.1743 N   0  0  0  0  0  0  0  0  0  0  0  0
   21.5187   -5.4252  -15.5082 C   0  0  1  0  0  0  0  0  0  0  0  0
   20.1778   -4.7629  -15.7370 C   0  0  0  0  0  0  0  0  0  0  0  0
   20.1366   -3.4638  -15.0609 C   0  0  0  0  0  0  0  0  0  0  0  0
   19.2257   -3.1813  -14.2561 O   0  0  0  0  0  0  0  0  0  0  0  0
   21.6319   -5.7369  -14.0630 C   0  0  0  0  0  0  0  0  0  0  0  0
   21.7864   -4.8865  -13.1617 O   0  0  0  0  0  0  0  0  0  0  0  0
   21.1008   -2.4682  -15.2685 O   0  0  0  0  0  0  0  0  0  0  0  0
   21.5676   -7.0621  -13.6206 O   0  0  0  0  0  0  0  0  0  0  0  0
  1  5  1  0
  1  2  1  0
  2  3  1  0
  4  3  1  0
  5  4  1  0
  6  7  2  0
  5  6  1  6
  8  9  1  0
  9 10  2  0
 11  9  1  0
 12 11  1  6
 12 13  1  0
 13  6  1  0
 14 15  2  0
 14 12  1  0
 16 14  1  0
 17 16  1  0
 17 18  1  1
 19 18  1  0
 20 19  2  0
 21 24  1  0
 21 17  1  0
 22 21  2  0
 23 19  1  0
M  END
$$$$
