PND.pdb
     RDKit          3D

 24 24  0  0  1  0  0  0  0  0999 V2000
   45.9469  -10.1645   -6.2401 N   0  0  0  0  0  0  0  0  0  0  0  0
   46.5651  -11.2509   -5.5259 C   0  0  0  0  0  0  0  0  0  0  0  0
   45.8183  -12.4985   -5.9492 C   0  0  0  0  0  0  0  0  0  0  0  0
   45.4625  -12.1852   -7.3774 C   0  0  0  0  0  0  0  0  0  0  0  0
   45.5397  -10.6828   -7.5444 C   0  0  1  0  0  0  0  0  0  0  0  0
   44.2590  -10.0666   -7.9179 C   0  0  0  0  0  0  0  0  0  0  0  0
   43.7082  -10.3254   -9.0239 O   0  0  0  0  0  0  0  0  0  0  0  0
   41.2931  -11.0412   -6.8992 N   0  0  0  0  0  0  0  0  0  0  0  0
   40.8976   -9.9625   -6.0266 C   0  0  0  0  0  0  0  0  0  0  0  0
   40.1563  -10.2513   -5.0298 O   0  0  0  0  0  0  0  0  0  0  0  0
   41.3576   -8.5851   -6.3144 C   0  0  0  0  0  0  0  0  0  0  0  0
   42.3194   -8.5192   -7.4956 C   0  0  2  0  0  0  0  0  0  0  0  0
   43.5524   -9.1477   -7.0772 N   0  0  0  0  0  0  0  0  0  0  0  0
   42.5013   -7.1002   -7.8531 C   0  0  0  0  0  0  0  0  0  0  0  0
   41.5105   -6.4854   -8.3388 O   0  0  0  0  0  0  0  0  0  0  0  0
   43.7035   -6.3898   -7.6880 N   0  0  0  0  0  0  0  0  0  0  0  0
   43.8840   -4.9761   -8.0530 C   0  0  1  0  0  0  0  0  0  0  0  0
   44.5519   -4.2451   -6.9090 C   0  0  0  0  0  0  0  0  0  0  0  0
   43.6797   -4.2493   -5.7318 C   0  0  0  0  0  0  0  0  0  0  0  0
   42.5042   -3.8355   -5.7955 O   0  0  0  0  0  0  0  0  0  0  0  0
   44.8319   -5.0008   -9.1928 C   0  0  0  0  0  0  0  0  0  0  0  0
   46.0248   -5.3627   -9.1185 O   0  0  0  0  0  0  0  0  0  0  0  0
   44.0994   -4.7106   -4.4768 O   0  0  0  0  0  0  0  0  0  0  0  0
   44.4138   -4.6007  -10.4660 O   0  0  0  0  0  0  0  0  0  0  0  0
  1  5  1  0
  1  2  1  0
  2  3  1  0
  4  3  1  0
  5  4  1  0
  6  7  2  0
  5  6  1  1
  8  9  1  0
  9 10  2  0
 11  9  1  0
 12 11  1  1
 12 13  1  0
 13  6  1  0
 14 15  2  0
 14 12  1  0
 16 14  1  0
 17 16  1  0
 17 18  1  1
 19 18  1  0
 20 19  2  0
 21 24  1  0
 21 17  1  0
 22 21  2  0
 23 19  1  0
M  END
$$$$
