PND.pdb
     RDKit          3D

 24 24  0  0  1  0  0  0  0  0999 V2000
   27.1619  -21.3395  -16.4012 N   0  0  0  0  0  0  0  0  0  0  0  0
   28.3454  -21.2394  -17.2147 C   0  0  0  0  0  0  0  0  0  0  0  0
   28.7695  -19.7871  -17.1460 C   0  0  0  0  0  0  0  0  0  0  0  0
   28.3620  -19.4041  -15.7489 C   0  0  0  0  0  0  0  0  0  0  0  0
   27.3225  -20.4041  -15.2899 C   0  0  1  0  0  0  0  0  0  0  0  0
   26.0173  -19.7990  -14.9902 C   0  0  0  0  0  0  0  0  0  0  0  0
   25.8855  -18.9616  -14.0548 O   0  0  0  0  0  0  0  0  0  0  0  0
   24.7894  -17.0177  -16.1667 N   0  0  0  0  0  0  0  0  0  0  0  0
   23.7815  -17.5181  -17.0696 C   0  0  0  0  0  0  0  0  0  0  0  0
   23.5061  -16.8129  -18.0959 O   0  0  0  0  0  0  0  0  0  0  0  0
   23.1155  -18.8076  -16.7775 C   0  0  0  0  0  0  0  0  0  0  0  0
   23.5733  -19.4228  -15.4598 C   0  0  2  0  0  0  0  0  0  0  0  0
   24.8224  -20.1036  -15.7181 N   0  0  0  0  0  0  0  0  0  0  0  0
   22.5155  -20.3393  -14.9958 C   0  0  0  0  0  0  0  0  0  0  0  0
   22.4913  -21.5036  -15.4848 O   0  0  0  0  0  0  0  0  0  0  0  0
   21.5350  -20.0009  -14.0463 N   0  0  0  0  0  0  0  0  0  0  0  0
   20.5051  -20.9301  -13.5559 C   0  0  1  0  0  0  0  0  0  0  0  0
   20.1133  -20.5444  -12.1464 C   0  0  0  0  0  0  0  0  0  0  0  0
   19.1664  -21.5211  -11.6024 C   0  0  0  0  0  0  0  0  0  0  0  0
   18.9284  -22.5924  -12.1963 O   0  0  0  0  0  0  0  0  0  0  0  0
   19.3353  -20.6917  -14.4351 C   0  0  0  0  0  0  0  0  0  0  0  0
   18.5775  -21.5844  -14.8689 O   0  0  0  0  0  0  0  0  0  0  0  0
   18.4763  -21.3216  -10.3990 O   0  0  0  0  0  0  0  0  0  0  0  0
   19.0102  -19.3927  -14.8389 O   0  0  0  0  0  0  0  0  0  0  0  0
  1  5  1  0
  1  2  1  0
  2  3  1  0
  4  3  1  0
  5  4  1  0
  6  7  2  0
  5  6  1  6
  8  9  1  0
  9 10  2  0
 11  9  1  0
 12 11  1  6
 12 13  1  0
 13  6  1  0
 14 15  2  0
 14 12  1  0
 16 14  1  0
 17 16  1  0
 17 18  1  1
 19 18  1  0
 20 19  2  0
 21 24  1  0
 21 17  1  0
 22 21  2  0
 23 19  1  0
M  END
$$$$
