PND.pdb
     RDKit          3D

 24 24  0  0  1  0  0  0  0  0999 V2000
   24.6809  -12.8236  -15.5871 N   0  0  0  0  0  0  0  0  0  0  0  0
   25.2609  -14.1289  -15.7666 C   0  0  0  0  0  0  0  0  0  0  0  0
   24.9411  -14.5280  -17.1921 C   0  0  0  0  0  0  0  0  0  0  0  0
   24.9748  -13.2041  -17.9067 C   0  0  0  0  0  0  0  0  0  0  0  0
   24.7961  -12.1217  -16.8638 C   0  0  1  0  0  0  0  0  0  0  0  0
   23.5902  -11.3062  -17.0642 C   0  0  0  0  0  0  0  0  0  0  0  0
   23.4691  -10.5571  -18.0731 O   0  0  0  0  0  0  0  0  0  0  0  0
   18.8237   -9.3715  -16.9745 N   0  0  0  0  0  0  0  0  0  0  0  0
   18.8203  -10.7569  -16.5720 C   0  0  0  0  0  0  0  0  0  0  0  0
   17.6956  -11.3567  -16.5305 O   0  0  0  0  0  0  0  0  0  0  0  0
   20.0985  -11.4199  -16.2280 C   0  0  0  0  0  0  0  0  0  0  0  0
   21.3030  -10.4996  -16.3910 C   0  0  2  0  0  0  0  0  0  0  0  0
   22.4849  -11.2980  -16.1539 N   0  0  0  0  0  0  0  0  0  0  0  0
   21.1636   -9.3952  -15.4240 C   0  0  0  0  0  0  0  0  0  0  0  0
   21.1684   -9.6868  -14.1950 O   0  0  0  0  0  0  0  0  0  0  0  0
   21.0264   -8.0422  -15.7815 N   0  0  0  0  0  0  0  0  0  0  0  0
   20.9850   -6.9331  -14.8158 C   0  0  1  0  0  0  0  0  0  0  0  0
   22.3191   -6.2195  -14.8155 C   0  0  0  0  0  0  0  0  0  0  0  0
   22.2543   -5.0320  -13.9598 C   0  0  0  0  0  0  0  0  0  0  0  0
   21.9231   -5.1160  -12.7597 O   0  0  0  0  0  0  0  0  0  0  0  0
   19.9696   -5.9996  -15.3597 C   0  0  0  0  0  0  0  0  0  0  0  0
   19.6435   -5.9251  -16.5629 O   0  0  0  0  0  0  0  0  0  0  0  0
   22.5551   -3.7441  -14.4234 O   0  0  0  0  0  0  0  0  0  0  0  0
   19.2969   -5.1162  -14.5092 O   0  0  0  0  0  0  0  0  0  0  0  0
  1  5  1  0
  1  2  1  0
  2  3  1  0
  4  3  1  0
  5  4  1  0
  6  7  2  0
  5  6  1  6
  8  9  1  0
  9 10  2  0
 11  9  1  0
 12 11  1  1
 12 13  1  0
 13  6  1  0
 14 15  2  0
 14 12  1  0
 16 14  1  0
 17 16  1  0
 17 18  1  6
 19 18  1  0
 20 19  2  0
 21 24  1  0
 21 17  1  0
 22 21  2  0
 23 19  1  0
M  END
$$$$
