PND.pdb
     RDKit          3D

 24 24  0  0  1  0  0  0  0  0999 V2000
   19.4062  -10.0216  -15.8861 N   0  0  0  0  0  0  0  0  0  0  0  0
   19.4851  -11.4037  -16.2810 C   0  0  0  0  0  0  0  0  0  0  0  0
   18.5388  -12.1481  -15.3623 C   0  0  0  0  0  0  0  0  0  0  0  0
   17.4527  -11.1315  -15.1355 C   0  0  0  0  0  0  0  0  0  0  0  0
   18.0289   -9.7715  -15.4661 C   0  0  1  0  0  0  0  0  0  0  0  0
   18.0445   -8.8466  -14.3242 C   0  0  0  0  0  0  0  0  0  0  0  0
   16.9789   -8.5300  -13.7262 O   0  0  0  0  0  0  0  0  0  0  0  0
   19.5090   -5.9816  -10.2615 N   0  0  0  0  0  0  0  0  0  0  0  0
   20.4806   -7.0169  -10.5179 C   0  0  0  0  0  0  0  0  0  0  0  0
   21.3633   -7.2325   -9.6230 O   0  0  0  0  0  0  0  0  0  0  0  0
   20.4192   -7.7772  -11.7867 C   0  0  0  0  0  0  0  0  0  0  0  0
   19.2285   -7.3831  -12.6535 C   0  0  2  0  0  0  0  0  0  0  0  0
   19.2402   -8.2474  -13.8125 N   0  0  0  0  0  0  0  0  0  0  0  0
   19.3779   -5.9597  -13.0084 C   0  0  0  0  0  0  0  0  0  0  0  0
   19.2638   -5.1086  -12.0822 O   0  0  0  0  0  0  0  0  0  0  0  0
   19.6387   -5.4909  -14.3082 N   0  0  0  0  0  0  0  0  0  0  0  0
   19.6823   -4.0679  -14.6794 C   0  0  1  0  0  0  0  0  0  0  0  0
   20.5861   -3.8912  -15.8798 C   0  0  0  0  0  0  0  0  0  0  0  0
   20.5648   -2.4953  -16.3244 C   0  0  0  0  0  0  0  0  0  0  0  0
   20.0847   -2.1754  -17.4308 O   0  0  0  0  0  0  0  0  0  0  0  0
   18.2974   -3.7474  -15.1011 C   0  0  0  0  0  0  0  0  0  0  0  0
   17.4663   -4.5850  -15.5100 O   0  0  0  0  0  0  0  0  0  0  0  0
   21.0732   -1.4435  -15.5502 O   0  0  0  0  0  0  0  0  0  0  0  0
   17.8351   -2.4282  -15.0583 O   0  0  0  0  0  0  0  0  0  0  0  0
  1  5  1  0
  1  2  1  0
  2  3  1  0
  4  3  1  0
  5  4  1  0
  6  7  2  0
  5  6  1  1
  8  9  1  0
  9 10  2  0
 11  9  1  0
 12 11  1  1
 12 13  1  0
 13  6  1  0
 14 15  2  0
 14 12  1  0
 16 14  1  0
 17 16  1  0
 17 18  1  6
 19 18  1  0
 20 19  2  0
 21 24  1  0
 21 17  1  0
 22 21  2  0
 23 19  1  0
M  END
$$$$
