PND.pdb
     RDKit          3D

 24 24  0  0  1  0  0  0  0  0999 V2000
   19.5787  -14.0234  -15.5277 N   0  0  0  0  0  0  0  0  0  0  0  0
   19.2143  -15.3673  -15.8933 C   0  0  0  0  0  0  0  0  0  0  0  0
   19.3303  -15.4284  -17.4021 C   0  0  0  0  0  0  0  0  0  0  0  0
   20.4760  -14.4902  -17.6698 C   0  0  0  0  0  0  0  0  0  0  0  0
   20.6152  -13.5888  -16.4618 C   0  0  1  0  0  0  0  0  0  0  0  0
   20.4108  -12.1654  -16.7643 C   0  0  0  0  0  0  0  0  0  0  0  0
   21.1979  -11.5410  -17.5286 O   0  0  0  0  0  0  0  0  0  0  0  0
   17.4326  -10.0594  -19.3845 N   0  0  0  0  0  0  0  0  0  0  0  0
   17.1563  -10.5973  -18.0746 C   0  0  0  0  0  0  0  0  0  0  0  0
   16.5216  -11.7018  -18.0120 O   0  0  0  0  0  0  0  0  0  0  0  0
   17.6107   -9.8617  -16.8729 C   0  0  0  0  0  0  0  0  0  0  0  0
   19.1051  -10.0187  -16.6151 C   0  0  2  0  0  0  0  0  0  0  0  0
   19.3292  -11.3941  -16.2297 N   0  0  0  0  0  0  0  0  0  0  0  0
   19.4848   -9.0659  -15.5558 C   0  0  0  0  0  0  0  0  0  0  0  0
   19.0946   -9.3095  -14.3794 O   0  0  0  0  0  0  0  0  0  0  0  0
   20.2516   -7.9070  -15.7708 N   0  0  0  0  0  0  0  0  0  0  0  0
   20.6883   -6.9956  -14.7016 C   0  0  1  0  0  0  0  0  0  0  0  0
   22.0332   -6.4056  -15.0651 C   0  0  0  0  0  0  0  0  0  0  0  0
   22.4636   -5.4602  -14.0318 C   0  0  0  0  0  0  0  0  0  0  0  0
   22.4491   -4.2290  -14.2340 O   0  0  0  0  0  0  0  0  0  0  0  0
   19.6914   -5.8982  -14.7133 C   0  0  0  0  0  0  0  0  0  0  0  0
   19.0500   -5.5303  -15.7197 O   0  0  0  0  0  0  0  0  0  0  0  0
   22.9125   -5.8681  -12.7684 O   0  0  0  0  0  0  0  0  0  0  0  0
   19.4092   -5.1897  -13.5410 O   0  0  0  0  0  0  0  0  0  0  0  0
  1  5  1  0
  1  2  1  0
  2  3  1  0
  4  3  1  0
  5  4  1  0
  6  7  2  0
  5  6  1  6
  8  9  1  0
  9 10  2  0
 11  9  1  0
 12 11  1  1
 12 13  1  0
 13  6  1  0
 14 15  2  0
 14 12  1  0
 16 14  1  0
 17 16  1  0
 17 18  1  6
 19 18  1  0
 20 19  2  0
 21 24  1  0
 21 17  1  0
 22 21  2  0
 23 19  1  0
M  END
$$$$
