PND.pdb
     RDKit          3D

 24 24  0  0  1  0  0  0  0  0999 V2000
   16.6818  -12.4481  -14.4218 N   0  0  0  0  0  0  0  0  0  0  0  0
   15.9771  -13.6900  -14.6051 C   0  0  0  0  0  0  0  0  0  0  0  0
   16.0998  -14.0184  -16.0784 C   0  0  0  0  0  0  0  0  0  0  0  0
   17.4598  -13.4682  -16.4132 C   0  0  0  0  0  0  0  0  0  0  0  0
   17.8137  -12.4546  -15.3462 C   0  0  1  0  0  0  0  0  0  0  0  0
   18.0042  -11.0942  -15.8683 C   0  0  0  0  0  0  0  0  0  0  0  0
   18.9357  -10.8306  -16.6784 O   0  0  0  0  0  0  0  0  0  0  0  0
   15.4183   -7.7810  -18.6770 N   0  0  0  0  0  0  0  0  0  0  0  0
   15.3796   -8.5353  -17.4477 C   0  0  0  0  0  0  0  0  0  0  0  0
   14.7516   -9.6452  -17.4558 O   0  0  0  0  0  0  0  0  0  0  0  0
   16.0573   -8.0035  -16.2437 C   0  0  0  0  0  0  0  0  0  0  0  0
   17.4157   -8.6505  -15.9972 C   0  0  2  0  0  0  0  0  0  0  0  0
   17.1684   -9.9886  -15.5086 N   0  0  0  0  0  0  0  0  0  0  0  0
   18.1437   -7.8181  -15.0218 C   0  0  0  0  0  0  0  0  0  0  0  0
   17.6545   -7.7085  -13.8625 O   0  0  0  0  0  0  0  0  0  0  0  0
   19.3445   -7.1409  -15.2989 N   0  0  0  0  0  0  0  0  0  0  0  0
   20.0362   -6.2618  -14.3433 C   0  0  1  0  0  0  0  0  0  0  0  0
   21.4566   -6.0329  -14.8114 C   0  0  0  0  0  0  0  0  0  0  0  0
   22.1102   -5.0318  -13.9645 C   0  0  0  0  0  0  0  0  0  0  0  0
   22.0317   -5.0855  -12.7203 O   0  0  0  0  0  0  0  0  0  0  0  0
   19.3141   -4.9699  -14.4311 C   0  0  0  0  0  0  0  0  0  0  0  0
   18.9752   -4.2760  -13.4498 O   0  0  0  0  0  0  0  0  0  0  0  0
   22.8549   -3.9651  -14.4856 O   0  0  0  0  0  0  0  0  0  0  0  0
   18.9618   -4.4427  -15.6778 O   0  0  0  0  0  0  0  0  0  0  0  0
  1  5  1  0
  1  2  1  0
  2  3  1  0
  4  3  1  0
  5  4  1  0
  6  7  2  0
  5  6  1  6
  8  9  1  0
  9 10  2  0
 11  9  1  0
 12 11  1  1
 12 13  1  0
 13  6  1  0
 14 15  2  0
 14 12  1  0
 16 14  1  0
 17 16  1  0
 17 18  1  6
 19 18  1  0
 20 19  2  0
 21 24  1  0
 21 17  1  0
 22 21  2  0
 23 19  1  0
M  END
$$$$
