PND.pdb
     RDKit          3D

 24 24  0  0  1  0  0  0  0  0999 V2000
   25.2125  -12.4545  -16.0607 N   0  0  0  0  0  0  0  0  0  0  0  0
   25.5898  -13.8184  -16.3251 C   0  0  0  0  0  0  0  0  0  0  0  0
   24.8629  -14.2068  -17.5957 C   0  0  0  0  0  0  0  0  0  0  0  0
   24.8369  -12.9080  -18.3552 C   0  0  0  0  0  0  0  0  0  0  0  0
   25.0523  -11.7933  -17.3541 C   0  0  1  0  0  0  0  0  0  0  0  0
   23.9244  -10.8552  -17.2678 C   0  0  0  0  0  0  0  0  0  0  0  0
   23.5871  -10.1474  -18.2571 O   0  0  0  0  0  0  0  0  0  0  0  0
   20.3402  -11.5439  -17.4808 N   0  0  0  0  0  0  0  0  0  0  0  0
   20.0786  -11.4263  -16.0668 C   0  0  0  0  0  0  0  0  0  0  0  0
   19.1292  -12.1263  -15.5820 O   0  0  0  0  0  0  0  0  0  0  0  0
   20.9060  -10.5142  -15.2451 C   0  0  0  0  0  0  0  0  0  0  0  0
   21.9847   -9.8047  -16.0559 C   0  0  2  0  0  0  0  0  0  0  0  0
   23.1387  -10.6752  -16.0843 N   0  0  0  0  0  0  0  0  0  0  0  0
   22.2668   -8.5132  -15.4025 C   0  0  0  0  0  0  0  0  0  0  0  0
   22.9593   -8.5284  -14.3463 O   0  0  0  0  0  0  0  0  0  0  0  0
   21.8158   -7.2695  -15.8791 N   0  0  0  0  0  0  0  0  0  0  0  0
   22.1276   -5.9796  -15.2440 C   0  0  1  0  0  0  0  0  0  0  0  0
   21.6745   -4.8541  -16.1479 C   0  0  0  0  0  0  0  0  0  0  0  0
   21.9204   -3.5614  -15.5036 C   0  0  0  0  0  0  0  0  0  0  0  0
   22.9004   -3.3893  -14.7505 O   0  0  0  0  0  0  0  0  0  0  0  0
   21.2870   -5.9494  -14.0230 C   0  0  0  0  0  0  0  0  0  0  0  0
   20.2270   -6.5922  -13.8729 O   0  0  0  0  0  0  0  0  0  0  0  0
   21.0863   -2.4502  -15.6869 O   0  0  0  0  0  0  0  0  0  0  0  0
   21.6604   -5.1616  -12.9294 O   0  0  0  0  0  0  0  0  0  0  0  0
  1  5  1  0
  1  2  1  0
  2  3  1  0
  4  3  1  0
  5  4  1  0
  6  7  2  0
  5  6  1  1
  8  9  1  0
  9 10  2  0
 11  9  1  0
 12 11  1  1
 12 13  1  0
 13  6  1  0
 14 15  2  0
 14 12  1  0
 16 14  1  0
 17 16  1  0
 17 18  1  6
 19 18  1  0
 20 19  2  0
 21 24  1  0
 21 17  1  0
 22 21  2  0
 23 19  1  0
M  END
$$$$
