CFC.pdb
     RDKit          3D

 24 24  0  0  1  0  0  0  0  0999 V2000
    8.0052  -13.0580   19.8150 N   0  0  0  0  0  0  0  0  0  0  0  0
    7.2106  -13.8641   20.6894 C   0  0  1  0  0  0  0  0  0  0  0  0
    6.7525  -15.0926   19.9591 C   0  0  0  0  0  0  0  0  0  0  0  0
    8.2069  -16.1300   19.6420 S   0  0  0  0  0  0  0  0  0  0  0  0
    7.9904  -14.1876   21.9124 C   0  0  0  0  0  0  0  0  0  0  0  0
    9.2195  -13.9242   21.9718 O   0  0  0  0  0  0  0  0  0  0  0  0
    7.4101  -14.7980   23.0585 N   0  0  0  0  0  0  0  0  0  0  0  0
    8.1370  -15.0937   24.2688 C   0  0  1  0  0  0  0  0  0  0  0  0
    7.2633  -15.0407   25.4933 C   0  0  0  0  0  0  0  0  0  0  0  0
    7.0143  -13.6909   25.9963 C   0  0  0  0  0  0  0  0  0  0  0  0
    8.0435  -12.8705   26.4069 C   0  0  0  0  0  0  0  0  0  0  0  0
    7.8027  -11.5838   26.8865 C   0  0  0  0  0  0  0  0  0  0  0  0
    6.5189  -11.1076   26.9583 C   0  0  0  0  0  0  0  0  0  0  0  0
    5.4785  -11.9035   26.5563 C   0  0  0  0  0  0  0  0  0  0  0  0
    5.7336  -13.1910   26.0776 C   0  0  0  0  0  0  0  0  0  0  0  0
    8.9511  -16.3166   24.1566 C   0  0  0  0  0  0  0  0  0  0  0  0
    8.3906  -17.4149   23.8400 O   0  0  0  0  0  0  0  0  0  0  0  0
   10.3471  -16.3561   24.3813 N   0  0  0  0  0  0  0  0  0  0  0  0
   11.1215  -17.5961   24.2359 C   0  0  1  0  0  0  0  0  0  0  0  0
   12.4617  -17.1647   23.6257 C   0  0  0  0  0  0  0  0  0  0  0  0
   13.1769  -15.7812   24.5161 S   0  0  0  0  0  0  0  0  0  0  0  0
   11.4336  -18.2101   25.5313 C   0  0  0  0  0  0  0  0  0  0  0  0
   12.1972  -19.3706   25.5184 O   0  0  0  0  0  0  0  0  0  0  0  0
   11.0398  -17.7271   26.6098 O   0  0  0  0  0  0  0  0  0  0  0  0
  2  5  1  0
  2  1  1  6
  3  2  1  0
  4  3  1  0
  5  7  1  0
  6  5  2  0
  7  8  1  0
  8  9  1  1
  9 10  1  0
 10 15  2  0
 11 10  1  0
 11 12  2  0
 12 13  1  0
 13 14  2  0
 15 14  1  0
 16 17  2  0
 16  8  1  0
 18 16  1  0
 19 18  1  0
 19 22  1  0
 19 20  1  1
 21 20  1  0
 22 23  1  0
 24 22  2  0
M  END
$$$$
