CFC.pdb
     RDKit          3D

 24 24  0  0  1  0  0  0  0  0999 V2000
   10.8600  -17.2048   19.9489 N   0  0  0  0  0  0  0  0  0  0  0  0
   10.0663  -17.5863   21.0759 C   0  0  1  0  0  0  0  0  0  0  0  0
   10.6502  -18.8171   21.7057 C   0  0  0  0  0  0  0  0  0  0  0  0
   10.9623  -20.0253   20.3884 S   0  0  0  0  0  0  0  0  0  0  0  0
    9.9765  -16.4487   22.0281 C   0  0  0  0  0  0  0  0  0  0  0  0
   10.8799  -15.5733   22.0609 O   0  0  0  0  0  0  0  0  0  0  0  0
    8.8931  -16.2855   22.9351 N   0  0  0  0  0  0  0  0  0  0  0  0
    8.7516  -15.1605   23.8268 C   0  0  1  0  0  0  0  0  0  0  0  0
    7.3155  -14.8848   24.1832 C   0  0  0  0  0  0  0  0  0  0  0  0
    7.1164  -13.6822   24.9901 C   0  0  0  0  0  0  0  0  0  0  0  0
    7.7207  -12.4859   24.6669 C   0  0  0  0  0  0  0  0  0  0  0  0
    7.5291  -11.3408   25.4388 C   0  0  0  0  0  0  0  0  0  0  0  0
    6.7245  -11.3879   26.5480 C   0  0  0  0  0  0  0  0  0  0  0  0
    6.1124  -12.5651   26.8904 C   0  0  0  0  0  0  0  0  0  0  0  0
    6.3128  -13.7054   26.1083 C   0  0  0  0  0  0  0  0  0  0  0  0
    9.6603  -15.2367   24.9840 C   0  0  0  0  0  0  0  0  0  0  0  0
   10.6713  -14.4650   25.0379 O   0  0  0  0  0  0  0  0  0  0  0  0
    9.4826  -16.1294   26.0668 N   0  0  0  0  0  0  0  0  0  0  0  0
   10.4419  -16.2030   27.1771 C   0  0  1  0  0  0  0  0  0  0  0  0
    9.8198  -15.3661   28.3027 C   0  0  0  0  0  0  0  0  0  0  0  0
   10.2444  -13.6301   28.1459 S   0  0  0  0  0  0  0  0  0  0  0  0
   10.5802  -17.5662   27.7011 C   0  0  0  0  0  0  0  0  0  0  0  0
   11.4397  -17.7508   28.7768 O   0  0  0  0  0  0  0  0  0  0  0  0
    9.9616  -18.5325   27.2161 O   0  0  0  0  0  0  0  0  0  0  0  0
  2  5  1  0
  2  1  1  6
  3  2  1  0
  4  3  1  0
  5  7  1  0
  6  5  2  0
  7  8  1  0
  8  9  1  1
  9 10  1  0
 10 15  2  0
 11 10  1  0
 11 12  2  0
 12 13  1  0
 13 14  2  0
 15 14  1  0
 16 17  2  0
 16  8  1  0
 18 16  1  0
 19 18  1  0
 19 22  1  0
 19 20  1  1
 21 20  1  0
 22 23  1  0
 24 22  2  0
M  END
$$$$
