CFC.pdb
     RDKit          3D

 24 24  0  0  1  0  0  0  0  0999 V2000
   10.9109  -16.3832   19.7247 N   0  0  0  0  0  0  0  0  0  0  0  0
    9.9970  -16.9706   20.6550 C   0  0  1  0  0  0  0  0  0  0  0  0
   10.4121  -18.3846   20.9393 C   0  0  0  0  0  0  0  0  0  0  0  0
    9.2412  -19.0813   22.1376 S   0  0  0  0  0  0  0  0  0  0  0  0
    9.9361  -16.1381   21.8846 C   0  0  0  0  0  0  0  0  0  0  0  0
   10.9869  -15.6492   22.3750 O   0  0  0  0  0  0  0  0  0  0  0  0
    8.7192  -15.8517   22.5629 N   0  0  0  0  0  0  0  0  0  0  0  0
    8.6320  -15.0422   23.7537 C   0  0  1  0  0  0  0  0  0  0  0  0
    7.3035  -14.3461   23.8812 C   0  0  0  0  0  0  0  0  0  0  0  0
    7.1540  -13.5546   25.1011 C   0  0  0  0  0  0  0  0  0  0  0  0
    6.3970  -13.9996   26.1640 C   0  0  0  0  0  0  0  0  0  0  0  0
    6.2561  -13.2421   27.3259 C   0  0  0  0  0  0  0  0  0  0  0  0
    6.8778  -12.0245   27.4306 C   0  0  0  0  0  0  0  0  0  0  0  0
    7.6359  -11.5599   26.3879 C   0  0  0  0  0  0  0  0  0  0  0  0
    7.7689  -12.3290   25.2291 C   0  0  0  0  0  0  0  0  0  0  0  0
    9.0559  -15.7671   24.9642 C   0  0  0  0  0  0  0  0  0  0  0  0
    8.4850  -16.8632   25.2697 O   0  0  0  0  0  0  0  0  0  0  0  0
   10.0792  -15.3191   25.8321 N   0  0  0  0  0  0  0  0  0  0  0  0
   10.4735  -16.0808   27.0248 C   0  0  1  0  0  0  0  0  0  0  0  0
   12.0039  -16.1694   26.9582 C   0  0  0  0  0  0  0  0  0  0  0  0
   12.5507  -17.0435   25.4902 S   0  0  0  0  0  0  0  0  0  0  0  0
   10.1524  -15.3705   28.2677 C   0  0  0  0  0  0  0  0  0  0  0  0
   10.4029  -16.0331   29.4627 O   0  0  0  0  0  0  0  0  0  0  0  0
    9.6744  -14.2203   28.2733 O   0  0  0  0  0  0  0  0  0  0  0  0
  2  5  1  0
  2  1  1  6
  3  2  1  0
  4  3  1  0
  5  7  1  0
  6  5  2  0
  7  8  1  0
  8  9  1  1
  9 10  1  0
 10 15  2  0
 11 10  1  0
 11 12  2  0
 12 13  1  0
 13 14  2  0
 15 14  1  0
 16 17  2  0
 16  8  1  0
 18 16  1  0
 19 18  1  0
 19 22  1  0
 19 20  1  6
 21 20  1  0
 22 23  1  0
 24 22  2  0
M  END
$$$$
