CFC.pdb
     RDKit          3D

 24 24  0  0  1  0  0  0  0  0999 V2000
   10.5199  -16.6572   19.3286 N   0  0  0  0  0  0  0  0  0  0  0  0
    9.3317  -16.8803   20.0930 C   0  0  1  0  0  0  0  0  0  0  0  0
    9.1207  -18.3555   20.2708 C   0  0  0  0  0  0  0  0  0  0  0  0
    8.4453  -19.0150   18.7212 S   0  0  0  0  0  0  0  0  0  0  0  0
    9.4323  -16.1603   21.3892 C   0  0  0  0  0  0  0  0  0  0  0  0
   10.5098  -16.1674   22.0392 O   0  0  0  0  0  0  0  0  0  0  0  0
    8.3460  -15.4393   21.9576 N   0  0  0  0  0  0  0  0  0  0  0  0
    8.3623  -14.8709   23.2833 C   0  0  1  0  0  0  0  0  0  0  0  0
    7.1899  -13.9610   23.5345 C   0  0  0  0  0  0  0  0  0  0  0  0
    7.1700  -13.3597   24.8668 C   0  0  0  0  0  0  0  0  0  0  0  0
    6.2895  -13.7843   25.8391 C   0  0  0  0  0  0  0  0  0  0  0  0
    6.2728  -13.2084   27.1087 C   0  0  0  0  0  0  0  0  0  0  0  0
    7.1452  -12.1958   27.4141 C   0  0  0  0  0  0  0  0  0  0  0  0
    8.0303  -11.7558   26.4651 C   0  0  0  0  0  0  0  0  0  0  0  0
    8.0366  -12.3414   25.1966 C   0  0  0  0  0  0  0  0  0  0  0  0
    8.5804  -15.8831   24.3314 C   0  0  0  0  0  0  0  0  0  0  0  0
    7.7814  -16.8698   24.4248 O   0  0  0  0  0  0  0  0  0  0  0  0
    9.6428  -15.8341   25.2640 N   0  0  0  0  0  0  0  0  0  0  0  0
    9.8304  -16.8769   26.2818 C   0  0  1  0  0  0  0  0  0  0  0  0
   11.1773  -17.5304   25.9450 C   0  0  0  0  0  0  0  0  0  0  0  0
   11.6845  -18.6892   27.2171 S   0  0  0  0  0  0  0  0  0  0  0  0
    9.9665  -16.3170   27.6309 C   0  0  0  0  0  0  0  0  0  0  0  0
    9.8642  -17.1987   28.6996 O   0  0  0  0  0  0  0  0  0  0  0  0
   10.1658  -15.1039   27.8320 O   0  0  0  0  0  0  0  0  0  0  0  0
  2  5  1  0
  2  1  1  1
  3  2  1  0
  4  3  1  0
  5  7  1  0
  6  5  2  0
  7  8  1  0
  8  9  1  1
  9 10  1  0
 10 15  2  0
 11 10  1  0
 11 12  2  0
 12 13  1  0
 13 14  2  0
 15 14  1  0
 16 17  2  0
 16  8  1  0
 18 16  1  0
 19 18  1  0
 19 22  1  0
 19 20  1  6
 21 20  1  0
 22 23  1  0
 24 22  2  0
M  END
$$$$
