CFC.pdb
     RDKit          3D

 24 24  0  0  1  0  0  0  0  0999 V2000
   11.5402  -16.5509   19.8617 N   0  0  0  0  0  0  0  0  0  0  0  0
   10.8121  -17.2270   20.8906 C   0  0  1  0  0  0  0  0  0  0  0  0
   11.5941  -18.4207   21.3553 C   0  0  0  0  0  0  0  0  0  0  0  0
   10.7631  -19.9099   20.7354 S   0  0  0  0  0  0  0  0  0  0  0  0
   10.5148  -16.2776   21.9946 C   0  0  0  0  0  0  0  0  0  0  0  0
   11.3992  -15.4825   22.4059 O   0  0  0  0  0  0  0  0  0  0  0  0
    9.2467  -16.2122   22.6355 N   0  0  0  0  0  0  0  0  0  0  0  0
    8.9451  -15.3306   23.7365 C   0  0  1  0  0  0  0  0  0  0  0  0
    7.5138  -14.8647   23.7264 C   0  0  0  0  0  0  0  0  0  0  0  0
    7.1482  -14.0204   24.8624 C   0  0  0  0  0  0  0  0  0  0  0  0
    7.6007  -12.7229   24.9746 C   0  0  0  0  0  0  0  0  0  0  0  0
    7.2505  -11.9203   26.0595 C   0  0  0  0  0  0  0  0  0  0  0  0
    6.4383  -12.4170   27.0463 C   0  0  0  0  0  0  0  0  0  0  0  0
    5.9754  -13.7036   26.9579 C   0  0  0  0  0  0  0  0  0  0  0  0
    6.3339  -14.4973   25.8653 C   0  0  0  0  0  0  0  0  0  0  0  0
    9.4001  -15.8652   25.0319 C   0  0  0  0  0  0  0  0  0  0  0  0
    9.1718  -17.0837   25.3212 O   0  0  0  0  0  0  0  0  0  0  0  0
   10.0909  -15.0998   26.0003 N   0  0  0  0  0  0  0  0  0  0  0  0
   10.7711  -15.7252   27.1425 C   0  0  1  0  0  0  0  0  0  0  0  0
   11.2644  -14.5569   28.0063 C   0  0  0  0  0  0  0  0  0  0  0  0
    9.9024  -13.5403   28.5807 S   0  0  0  0  0  0  0  0  0  0  0  0
    9.8496  -16.5007   27.9801 C   0  0  0  0  0  0  0  0  0  0  0  0
   10.4037  -17.2550   29.0067 O   0  0  0  0  0  0  0  0  0  0  0  0
    8.6177  -16.4970   27.7953 O   0  0  0  0  0  0  0  0  0  0  0  0
  2  5  1  0
  2  1  1  6
  3  2  1  0
  4  3  1  0
  5  7  1  0
  6  5  2  0
  7  8  1  0
  8  9  1  1
  9 10  1  0
 10 15  2  0
 11 10  1  0
 11 12  2  0
 12 13  1  0
 13 14  2  0
 15 14  1  0
 16 17  2  0
 16  8  1  0
 18 16  1  0
 19 18  1  0
 19 22  1  0
 19 20  1  1
 21 20  1  0
 22 23  1  0
 24 22  2  0
M  END
$$$$
