CFC.pdb
     RDKit          3D

 24 24  0  0  1  0  0  0  0  0999 V2000
   11.3395  -16.8151   20.0013 N   0  0  0  0  0  0  0  0  0  0  0  0
   10.2835  -17.2582   20.8581 C   0  0  1  0  0  0  0  0  0  0  0  0
   10.5536  -18.6676   21.2976 C   0  0  0  0  0  0  0  0  0  0  0  0
   10.5654  -19.7217   19.8208 S   0  0  0  0  0  0  0  0  0  0  0  0
   10.1475  -16.3218   22.0041 C   0  0  0  0  0  0  0  0  0  0  0  0
   11.1667  -15.7895   22.5155 O   0  0  0  0  0  0  0  0  0  0  0  0
    8.8911  -15.9801   22.5764 N   0  0  0  0  0  0  0  0  0  0  0  0
    8.7400  -15.2138   23.7891 C   0  0  1  0  0  0  0  0  0  0  0  0
    7.4079  -14.5175   23.8686 C   0  0  0  0  0  0  0  0  0  0  0  0
    7.2239  -13.7068   25.0711 C   0  0  0  0  0  0  0  0  0  0  0  0
    7.7210  -12.4240   25.1618 C   0  0  0  0  0  0  0  0  0  0  0  0
    7.5442  -11.6536   26.3103 C   0  0  0  0  0  0  0  0  0  0  0  0
    6.8629  -12.1680   27.3832 C   0  0  0  0  0  0  0  0  0  0  0  0
    6.3591  -13.4406   27.3179 C   0  0  0  0  0  0  0  0  0  0  0  0
    6.5433  -14.2021   26.1610 C   0  0  0  0  0  0  0  0  0  0  0  0
    9.0952  -15.9836   24.9940 C   0  0  0  0  0  0  0  0  0  0  0  0
    8.5124  -17.0920   25.2232 O   0  0  0  0  0  0  0  0  0  0  0  0
   10.0635  -15.5668   25.9373 N   0  0  0  0  0  0  0  0  0  0  0  0
   10.5531  -16.4625   26.9939 C   0  0  1  0  0  0  0  0  0  0  0  0
   12.0729  -16.2535   27.0267 C   0  0  0  0  0  0  0  0  0  0  0  0
   12.5183  -14.5780   26.5656 S   0  0  0  0  0  0  0  0  0  0  0  0
   10.0530  -16.0817   28.3195 C   0  0  0  0  0  0  0  0  0  0  0  0
   10.4053  -16.8935   29.3903 O   0  0  0  0  0  0  0  0  0  0  0  0
    9.3404  -15.0760   28.4992 O   0  0  0  0  0  0  0  0  0  0  0  0
  2  5  1  0
  2  1  1  6
  3  2  1  0
  4  3  1  0
  5  7  1  0
  6  5  2  0
  7  8  1  0
  8  9  1  1
  9 10  1  0
 10 15  2  0
 11 10  1  0
 11 12  2  0
 12 13  1  0
 13 14  2  0
 15 14  1  0
 16 17  2  0
 16  8  1  0
 18 16  1  0
 19 18  1  0
 19 22  1  0
 19 20  1  1
 21 20  1  0
 22 23  1  0
 24 22  2  0
M  END
$$$$
