CFC.pdb
     RDKit          3D

 24 24  0  0  1  0  0  0  0  0999 V2000
   10.1201  -17.2883   17.3625 N   0  0  0  0  0  0  0  0  0  0  0  0
   10.1656  -18.0684   18.5604 C   0  0  1  0  0  0  0  0  0  0  0  0
   11.2131  -19.1345   18.4240 C   0  0  0  0  0  0  0  0  0  0  0  0
   11.0198  -20.2895   19.8100 S   0  0  0  0  0  0  0  0  0  0  0  0
   10.4098  -17.1773   19.7245 C   0  0  0  0  0  0  0  0  0  0  0  0
   11.2937  -16.2834   19.6673 O   0  0  0  0  0  0  0  0  0  0  0  0
    9.6790  -17.2786   20.9404 N   0  0  0  0  0  0  0  0  0  0  0  0
    9.8949  -16.4257   22.0835 C   0  0  1  0  0  0  0  0  0  0  0  0
    8.6197  -15.8064   22.5894 C   0  0  0  0  0  0  0  0  0  0  0  0
    8.0297  -14.8209   21.6851 C   0  0  0  0  0  0  0  0  0  0  0  0
    6.8676  -15.0810   20.9903 C   0  0  0  0  0  0  0  0  0  0  0  0
    6.3077  -14.1391   20.1283 C   0  0  0  0  0  0  0  0  0  0  0  0
    6.9137  -12.9213   19.9559 C   0  0  0  0  0  0  0  0  0  0  0  0
    8.0696  -12.6385   20.6352 C   0  0  0  0  0  0  0  0  0  0  0  0
    8.6203  -13.5912   21.4961 C   0  0  0  0  0  0  0  0  0  0  0  0
   10.7115  -17.0711   23.1262 C   0  0  0  0  0  0  0  0  0  0  0  0
   10.4471  -18.2655   23.4785 O   0  0  0  0  0  0  0  0  0  0  0  0
   11.7965  -16.4405   23.7790 N   0  0  0  0  0  0  0  0  0  0  0  0
   12.5606  -17.1122   24.8389 C   0  0  1  0  0  0  0  0  0  0  0  0
   13.7365  -16.1746   25.1434 C   0  0  0  0  0  0  0  0  0  0  0  0
   14.7145  -15.8452   23.6760 S   0  0  0  0  0  0  0  0  0  0  0  0
   11.7936  -17.2339   26.0835 C   0  0  0  0  0  0  0  0  0  0  0  0
   12.4436  -17.7846   27.1808 O   0  0  0  0  0  0  0  0  0  0  0  0
   10.6073  -16.8648   26.1739 O   0  0  0  0  0  0  0  0  0  0  0  0
  2  5  1  0
  2  1  1  6
  3  2  1  0
  4  3  1  0
  5  7  1  0
  6  5  2  0
  7  8  1  0
  8  9  1  1
  9 10  1  0
 10 15  2  0
 11 10  1  0
 11 12  2  0
 12 13  1  0
 13 14  2  0
 15 14  1  0
 16 17  2  0
 16  8  1  0
 18 16  1  0
 19 18  1  0
 19 22  1  0
 19 20  1  1
 21 20  1  0
 22 23  1  0
 24 22  2  0
M  END
$$$$
