CFC.pdb
     RDKit          3D

 24 24  0  0  1  0  0  0  0  0999 V2000
   10.3111  -16.3670   19.1047 N   0  0  0  0  0  0  0  0  0  0  0  0
    9.0527  -16.4253   19.7822 C   0  0  1  0  0  0  0  0  0  0  0  0
    8.5821  -17.8491   19.8421 C   0  0  0  0  0  0  0  0  0  0  0  0
    8.5961  -18.5146   18.1541 S   0  0  0  0  0  0  0  0  0  0  0  0
    9.1854  -15.8134   21.1300 C   0  0  0  0  0  0  0  0  0  0  0  0
   10.2554  -15.9342   21.7813 O   0  0  0  0  0  0  0  0  0  0  0  0
    8.1392  -15.0745   21.7483 N   0  0  0  0  0  0  0  0  0  0  0  0
    8.1650  -14.6375   23.1227 C   0  0  1  0  0  0  0  0  0  0  0  0
    7.0624  -13.6625   23.4382 C   0  0  0  0  0  0  0  0  0  0  0  0
    7.0684  -13.1731   24.8157 C   0  0  0  0  0  0  0  0  0  0  0  0
    8.0146  -12.2741   25.2600 C   0  0  0  0  0  0  0  0  0  0  0  0
    8.0177  -11.8097   26.5746 C   0  0  0  0  0  0  0  0  0  0  0  0
    7.0653  -12.2467   27.4588 C   0  0  0  0  0  0  0  0  0  0  0  0
    6.1139  -13.1403   27.0416 C   0  0  0  0  0  0  0  0  0  0  0  0
    6.1220  -13.5978   25.7216 C   0  0  0  0  0  0  0  0  0  0  0  0
    8.2735  -15.7589   24.0721 C   0  0  0  0  0  0  0  0  0  0  0  0
    7.6684  -16.8508   23.8230 O   0  0  0  0  0  0  0  0  0  0  0  0
    9.0225  -15.7056   25.2709 N   0  0  0  0  0  0  0  0  0  0  0  0
    9.3813  -16.9198   26.0162 C   0  0  1  0  0  0  0  0  0  0  0  0
   10.4163  -17.6385   25.1406 C   0  0  0  0  0  0  0  0  0  0  0  0
   11.1054  -19.0698   25.9743 S   0  0  0  0  0  0  0  0  0  0  0  0
   10.0514  -16.6140   27.2850 C   0  0  0  0  0  0  0  0  0  0  0  0
   10.3068  -17.6768   28.1424 O   0  0  0  0  0  0  0  0  0  0  0  0
   10.3859  -15.4562   27.5998 O   0  0  0  0  0  0  0  0  0  0  0  0
  2  5  1  0
  2  1  1  1
  3  2  1  0
  4  3  1  0
  5  7  1  0
  6  5  2  0
  7  8  1  0
  8  9  1  1
  9 10  1  0
 10 15  2  0
 11 10  1  0
 11 12  2  0
 12 13  1  0
 13 14  2  0
 15 14  1  0
 16 17  2  0
 16  8  1  0
 18 16  1  0
 19 18  1  0
 19 22  1  0
 19 20  1  6
 21 20  1  0
 22 23  1  0
 24 22  2  0
M  END
$$$$
