CFC.pdb
     RDKit          3D

 24 24  0  0  1  0  0  0  0  0999 V2000
    4.8454  -19.7968   21.8244 N   0  0  0  0  0  0  0  0  0  0  0  0
    5.4203  -19.8047   23.1340 C   0  0  1  0  0  0  0  0  0  0  0  0
    6.3172  -20.9991   23.2797 C   0  0  0  0  0  0  0  0  0  0  0  0
    6.9070  -21.0500   24.9949 S   0  0  0  0  0  0  0  0  0  0  0  0
    6.1366  -18.5240   23.3697 C   0  0  0  0  0  0  0  0  0  0  0  0
    6.8636  -18.0266   22.4711 O   0  0  0  0  0  0  0  0  0  0  0  0
    6.0459  -17.8030   24.5924 N   0  0  0  0  0  0  0  0  0  0  0  0
    6.8276  -16.6292   24.8952 C   0  0  1  0  0  0  0  0  0  0  0  0
    6.1406  -15.7163   25.8751 C   0  0  0  0  0  0  0  0  0  0  0  0
    6.8535  -14.4667   26.1345 C   0  0  0  0  0  0  0  0  0  0  0  0
    6.6818  -13.3565   25.3352 C   0  0  0  0  0  0  0  0  0  0  0  0
    7.3636  -12.1663   25.5850 C   0  0  0  0  0  0  0  0  0  0  0  0
    8.2282  -12.0807   26.6457 C   0  0  0  0  0  0  0  0  0  0  0  0
    8.4162  -13.1702   27.4552 C   0  0  0  0  0  0  0  0  0  0  0  0
    7.7268  -14.3570   27.1937 C   0  0  0  0  0  0  0  0  0  0  0  0
    8.2230  -16.9512   25.2414 C   0  0  0  0  0  0  0  0  0  0  0  0
    8.4607  -17.7583   26.1967 O   0  0  0  0  0  0  0  0  0  0  0  0
    9.3451  -16.4130   24.5688 N   0  0  0  0  0  0  0  0  0  0  0  0
   10.7097  -16.8886   24.8333 C   0  0  1  0  0  0  0  0  0  0  0  0
   11.4298  -16.8189   23.4801 C   0  0  0  0  0  0  0  0  0  0  0  0
   11.0867  -15.2773   22.6290 S   0  0  0  0  0  0  0  0  0  0  0  0
   11.4418  -15.9970   25.7396 C   0  0  0  0  0  0  0  0  0  0  0  0
   12.7296  -16.3731   26.1001 O   0  0  0  0  0  0  0  0  0  0  0  0
   10.9475  -14.9415   26.1791 O   0  0  0  0  0  0  0  0  0  0  0  0
  2  5  1  0
  2  1  1  6
  3  2  1  0
  4  3  1  0
  5  7  1  0
  6  5  2  0
  7  8  1  0
  8  9  1  1
  9 10  1  0
 10 15  2  0
 11 10  1  0
 11 12  2  0
 12 13  1  0
 13 14  2  0
 15 14  1  0
 16 17  2  0
 16  8  1  0
 18 16  1  0
 19 18  1  0
 19 22  1  0
 19 20  1  6
 21 20  1  0
 22 23  1  0
 24 22  2  0
M  END
$$$$
