ADA.pdb
     RDKit          3D

 19 18  0  0  1  0  0  0  0  0999 V2000
   24.4915  -11.9671  -15.8234 C   0  0  0  0  0  0  0  0  0  0  0  0
   23.0599  -12.2806  -16.2231 C   0  0  2  0  0  0  0  0  0  0  0  0
   23.0240  -13.0482  -17.4547 N   0  0  0  0  0  0  0  0  0  0  0  0
   22.3519  -10.9748  -16.3648 C   0  0  0  0  0  0  0  0  0  0  0  0
   22.6571  -10.2830  -17.3617 O   0  0  0  0  0  0  0  0  0  0  0  0
   21.4023  -10.6012  -15.3929 N   0  0  0  0  0  0  0  0  0  0  0  0
   20.5091   -9.4045  -15.5884 C   0  0  1  0  0  0  0  0  0  0  0  0
   19.2255   -9.7416  -14.9444 C   0  0  0  0  0  0  0  0  0  0  0  0
   18.3602  -10.7626  -15.4408 C   0  0  0  0  0  0  0  0  0  0  0  0
   17.7576  -11.6054  -14.7883 O   0  0  0  0  0  0  0  0  0  0  0  0
   21.2772   -8.2586  -15.0732 C   0  0  0  0  0  0  0  0  0  0  0  0
   21.8371   -8.3142  -13.9060 O   0  0  0  0  0  0  0  0  0  0  0  0
   18.1627  -10.8257  -16.8392 O   0  0  0  0  0  0  0  0  0  0  0  0
   22.4050   -4.8719  -16.2035 C   0  0  0  0  0  0  0  0  0  0  0  0
   22.3666   -5.9836  -15.1455 C   0  0  2  0  0  0  0  0  0  0  0  0
   21.5157   -7.0211  -15.7126 N   0  0  0  0  0  0  0  0  0  0  0  0
   21.8100   -5.4043  -13.9236 C   0  0  0  0  0  0  0  0  0  0  0  0
   22.6305   -4.7046  -13.0466 O   0  0  0  0  0  0  0  0  0  0  0  0
   20.5988   -5.5315  -13.6575 O   0  0  0  0  0  0  0  0  0  0  0  0
  2  3  1  0
  2  1  1  6
  4  5  2  0
  4  2  1  0
  6  4  1  0
  7 11  1  0
  7  6  1  0
  7  8  1  1
  9  8  1  0
 10  9  2  0
 11 12  2  0
 13  9  1  0
 15 14  1  6
 16 15  1  0
 16 11  1  0
 17 18  1  0
 17 15  1  0
 19 17  2  0
M  END
$$$$
