ADA.pdb
     RDKit          3D

 19 18  0  0  1  0  0  0  0  0999 V2000
   16.4655  -11.8635  -16.2085 C   0  0  0  0  0  0  0  0  0  0  0  0
   17.6548  -11.1134  -16.7831 C   0  0  2  0  0  0  0  0  0  0  0  0
   18.7702  -12.0132  -17.0145 N   0  0  0  0  0  0  0  0  0  0  0  0
   18.0043  -10.0394  -15.8080 C   0  0  0  0  0  0  0  0  0  0  0  0
   17.9287  -10.3433  -14.5965 O   0  0  0  0  0  0  0  0  0  0  0  0
   18.3903   -8.7734  -16.2920 N   0  0  0  0  0  0  0  0  0  0  0  0
   18.8651   -7.6891  -15.3608 C   0  0  1  0  0  0  0  0  0  0  0  0
   20.3340   -7.6518  -15.4905 C   0  0  0  0  0  0  0  0  0  0  0  0
   21.2100   -7.8564  -14.3822 C   0  0  0  0  0  0  0  0  0  0  0  0
   21.9174   -8.8323  -14.1667 O   0  0  0  0  0  0  0  0  0  0  0  0
   18.0934   -6.4918  -15.7341 C   0  0  0  0  0  0  0  0  0  0  0  0
   18.0123   -6.1221  -16.9732 O   0  0  0  0  0  0  0  0  0  0  0  0
   21.2844   -6.8298  -13.4130 O   0  0  0  0  0  0  0  0  0  0  0  0
   15.5396   -4.2041  -14.3636 C   0  0  0  0  0  0  0  0  0  0  0  0
   16.6958   -4.4264  -15.3487 C   0  0  2  0  0  0  0  0  0  0  0  0
   17.3718   -5.6282  -14.8792 N   0  0  0  0  0  0  0  0  0  0  0  0
   17.5507   -3.2412  -15.2931 C   0  0  0  0  0  0  0  0  0  0  0  0
   17.1238   -2.0458  -15.8593 O   0  0  0  0  0  0  0  0  0  0  0  0
   18.6663   -3.2910  -14.7391 O   0  0  0  0  0  0  0  0  0  0  0  0
  2  3  1  0
  2  1  1  1
  4  5  2  0
  4  2  1  0
  6  4  1  0
  7 11  1  0
  7  6  1  0
  7  8  1  6
  9  8  1  0
 10  9  2  0
 11 12  2  0
 13  9  1  0
 15 14  1  1
 16 15  1  0
 16 11  1  0
 17 18  1  0
 17 15  1  0
 19 17  2  0
M  END
$$$$
