ADA.pdb
     RDKit          3D

 19 18  0  0  1  0  0  0  0  0999 V2000
   14.9750   -8.6327   -7.1658 C   0  0  0  0  0  0  0  0  0  0  0  0
   14.1986   -7.5556   -7.9036 C   0  0  2  0  0  0  0  0  0  0  0  0
   12.7969   -7.9157   -8.0176 N   0  0  0  0  0  0  0  0  0  0  0  0
   14.8391   -7.3970   -9.2419 C   0  0  0  0  0  0  0  0  0  0  0  0
   14.3316   -8.0495  -10.1812 O   0  0  0  0  0  0  0  0  0  0  0  0
   15.9526   -6.5429   -9.3719 N   0  0  0  0  0  0  0  0  0  0  0  0
   16.5126   -6.1846  -10.7232 C   0  0  1  0  0  0  0  0  0  0  0  0
   16.1644   -4.7690  -10.9488 C   0  0  0  0  0  0  0  0  0  0  0  0
   16.6214   -4.0356  -12.0849 C   0  0  0  0  0  0  0  0  0  0  0  0
   16.5970   -4.3919  -13.2560 O   0  0  0  0  0  0  0  0  0  0  0  0
   17.9352   -6.5605  -10.6657 C   0  0  0  0  0  0  0  0  0  0  0  0
   18.6673   -6.2098   -9.6559 O   0  0  0  0  0  0  0  0  0  0  0  0
   17.1667   -2.7517  -11.8547 O   0  0  0  0  0  0  0  0  0  0  0  0
   20.4606   -8.4968  -12.6290 C   0  0  0  0  0  0  0  0  0  0  0  0
   20.1212   -7.4319  -11.5765 C   0  0  2  0  0  0  0  0  0  0  0  0
   18.6705   -7.3058  -11.6149 N   0  0  0  0  0  0  0  0  0  0  0  0
   20.8042   -6.1992  -11.9669 C   0  0  0  0  0  0  0  0  0  0  0  0
   22.1576   -6.0356  -11.6961 O   0  0  0  0  0  0  0  0  0  0  0  0
   20.1818   -5.2864  -12.5444 O   0  0  0  0  0  0  0  0  0  0  0  0
  2  3  1  0
  2  1  1  1
  4  5  2  0
  4  2  1  0
  6  4  1  0
  7 11  1  0
  7  6  1  0
  7  8  1  1
  9  8  1  0
 10  9  2  0
 11 12  2  0
 13  9  1  0
 15 14  1  6
 16 15  1  0
 16 11  1  0
 17 18  1  0
 17 15  1  0
 19 17  2  0
M  END
$$$$
