ADA.pdb
     RDKit          3D

 19 18  0  0  1  0  0  0  0  0999 V2000
   18.6837  -13.1778  -17.8347 C   0  0  0  0  0  0  0  0  0  0  0  0
   19.5006  -11.9008  -17.7384 C   0  0  2  0  0  0  0  0  0  0  0  0
   20.5216  -12.0169  -16.7130 N   0  0  0  0  0  0  0  0  0  0  0  0
   18.5444  -10.7939  -17.4434 C   0  0  0  0  0  0  0  0  0  0  0  0
   17.7685  -10.4687  -18.3696 O   0  0  0  0  0  0  0  0  0  0  0  0
   18.5668  -10.1902  -16.1702 N   0  0  0  0  0  0  0  0  0  0  0  0
   17.6233   -9.0709  -15.8162 C   0  0  1  0  0  0  0  0  0  0  0  0
   17.1448   -9.3550  -14.4501 C   0  0  0  0  0  0  0  0  0  0  0  0
   16.3851   -8.4157  -13.6898 C   0  0  0  0  0  0  0  0  0  0  0  0
   16.4813   -8.1809  -12.4920 O   0  0  0  0  0  0  0  0  0  0  0  0
   18.3838   -7.8326  -16.0540 C   0  0  0  0  0  0  0  0  0  0  0  0
   19.5686   -7.6822  -15.5514 O   0  0  0  0  0  0  0  0  0  0  0  0
   15.4066   -7.6613  -14.3771 O   0  0  0  0  0  0  0  0  0  0  0  0
   18.4107   -4.8894  -18.2818 C   0  0  0  0  0  0  0  0  0  0  0  0
   18.7960   -5.5014  -16.9276 C   0  0  2  0  0  0  0  0  0  0  0  0
   17.9856   -6.7059  -16.8085 N   0  0  0  0  0  0  0  0  0  0  0  0
   18.4873   -4.5107  -15.8972 C   0  0  0  0  0  0  0  0  0  0  0  0
   19.2712   -3.3702  -15.7688 O   0  0  0  0  0  0  0  0  0  0  0  0
   17.5216   -4.6784  -15.1270 O   0  0  0  0  0  0  0  0  0  0  0  0
  2  3  1  0
  2  1  1  1
  4  5  2  0
  4  2  1  0
  6  4  1  0
  7 11  1  0
  7  6  1  0
  7  8  1  1
  9  8  1  0
 10  9  2  0
 11 12  2  0
 13  9  1  0
 15 14  1  6
 16 15  1  0
 16 11  1  0
 17 18  1  0
 17 15  1  0
 19 17  2  0
M  END
$$$$
