ADA.pdb
     RDKit          3D

 19 18  0  0  1  0  0  0  0  0999 V2000
   13.2339  -13.7063  -13.9019 C   0  0  0  0  0  0  0  0  0  0  0  0
   14.4731  -13.8140  -14.7736 C   0  0  2  0  0  0  0  0  0  0  0  0
   14.8520  -15.2024  -14.9635 N   0  0  0  0  0  0  0  0  0  0  0  0
   15.5505  -13.0348  -14.0964 C   0  0  0  0  0  0  0  0  0  0  0  0
   16.0659  -13.5624  -13.0857 O   0  0  0  0  0  0  0  0  0  0  0  0
   15.9194  -11.7788  -14.6185 N   0  0  0  0  0  0  0  0  0  0  0  0
   17.0333  -10.9713  -14.0058 C   0  0  1  0  0  0  0  0  0  0  0  0
   17.9108  -10.5707  -15.1218 C   0  0  0  0  0  0  0  0  0  0  0  0
   19.0511   -9.7313  -14.9412 C   0  0  0  0  0  0  0  0  0  0  0  0
   19.9069   -9.8207  -14.0702 O   0  0  0  0  0  0  0  0  0  0  0  0
   16.3642   -9.9194  -13.2220 C   0  0  0  0  0  0  0  0  0  0  0  0
   15.3745   -9.2527  -13.7269 O   0  0  0  0  0  0  0  0  0  0  0  0
   19.2318   -8.6720  -15.8599 O   0  0  0  0  0  0  0  0  0  0  0  0
   16.3620   -8.5316   -9.7554 C   0  0  0  0  0  0  0  0  0  0  0  0
   15.9462   -8.4284  -11.2296 C   0  0  2  0  0  0  0  0  0  0  0  0
   16.6599   -9.5044  -11.9039 N   0  0  0  0  0  0  0  0  0  0  0  0
   16.3453   -7.1039  -11.7040 C   0  0  0  0  0  0  0  0  0  0  0  0
   15.6346   -5.9773  -11.3072 O   0  0  0  0  0  0  0  0  0  0  0  0
   17.3232   -6.9727  -12.4659 O   0  0  0  0  0  0  0  0  0  0  0  0
  2  3  1  0
  2  1  1  1
  4  5  2  0
  4  2  1  0
  6  4  1  0
  7 11  1  0
  7  6  1  0
  7  8  1  6
  9  8  1  0
 10  9  2  0
 11 12  2  0
 13  9  1  0
 15 14  1  1
 16 15  1  0
 16 11  1  0
 17 18  1  0
 17 15  1  0
 19 17  2  0
M  END
$$$$
