ITK.pdb
     RDKit          3D

 25 24  0  0  1  0  0  0  0  0999 V2000
    6.5512  -11.3689   27.5570 C   0  0  0  0  0  0  0  0  0  0  0  0
    5.8944  -12.4172   26.7051 C   0  0  0  0  0  0  0  0  0  0  0  0
    6.8922  -13.3457   26.0503 C   0  0  2  0  0  0  0  0  0  0  0  0
    7.9375  -12.6292   25.2608 C   0  0  0  0  0  0  0  0  0  0  0  0
    6.1569  -14.3890   25.2273 C   0  0  2  0  0  0  0  0  0  0  0  0
    5.2041  -15.0310   26.0758 N   0  0  0  0  0  0  0  0  0  0  0  0
    7.1007  -15.3178   24.5838 C   0  0  0  0  0  0  0  0  0  0  0  0
    7.3664  -16.3884   25.2083 O   0  0  0  0  0  0  0  0  0  0  0  0
    7.2886  -15.5234   20.5511 C   0  0  0  0  0  0  0  0  0  0  0  0
    8.6220  -15.8093   21.1785 C   0  0  1  0  0  0  0  0  0  0  0  0
    9.4254  -14.6894   21.0371 O   0  0  0  0  0  0  0  0  0  0  0  0
    8.5073  -16.1323   22.6461 C   0  0  2  0  0  0  0  0  0  0  0  0
    7.7271  -15.1201   23.3459 N   0  0  0  0  0  0  0  0  0  0  0  0
    9.8674  -16.1480   23.2500 C   0  0  0  0  0  0  0  0  0  0  0  0
   10.2973  -15.1159   23.8802 O   0  0  0  0  0  0  0  0  0  0  0  0
   10.7148  -17.2707   23.1570 N   0  0  0  0  0  0  0  0  0  0  0  0
   11.8948  -17.3864   24.0524 C   0  0  1  0  0  0  0  0  0  0  0  0
   11.6878  -18.5535   24.9575 C   0  0  0  0  0  0  0  0  0  0  0  0
   12.2807  -18.4821   26.3053 C   0  0  0  0  0  0  0  0  0  0  0  0
   12.1810  -19.6254   27.2250 C   0  0  0  0  0  0  0  0  0  0  0  0
   12.9433  -19.5336   28.5078 C   0  0  0  0  0  0  0  0  0  0  0  0
   12.6257  -20.6016   29.3900 N   0  0  0  0  0  0  0  0  0  0  0  0
   13.1130  -17.3052   23.2821 C   0  0  0  0  0  0  0  0  0  0  0  0
   14.3689  -16.9219   23.7176 O   0  0  0  0  0  0  0  0  0  0  0  0
   13.0740  -17.6115   22.0341 O   0  0  0  0  0  0  0  0  0  0  0  0
  2  1  1  0
  2  3  1  0
  3  4  1  6
  5  3  1  0
  5  6  1  1
  7  5  1  0
  8  7  2  0
 10  9  1  1
 10 12  1  0
 11 10  1  0
 12 13  1  1
 13  7  1  0
 14 12  1  0
 14 15  2  0
 16 14  1  0
 17 16  1  0
 17 18  1  6
 17 23  1  0
 19 18  1  0
 19 20  1  0
 21 20  1  0
 21 22  1  0
 23 25  2  0
 23 24  1  0
M  END
$$$$
