ITK.pdb
     RDKit          3D

 25 24  0  0  1  0  0  0  0  0999 V2000
    6.7722  -11.2887   27.5320 C   0  0  0  0  0  0  0  0  0  0  0  0
    6.0883  -12.2791   26.6334 C   0  0  0  0  0  0  0  0  0  0  0  0
    7.0444  -13.2964   26.0525 C   0  0  2  0  0  0  0  0  0  0  0  0
    8.2181  -12.6804   25.3650 C   0  0  0  0  0  0  0  0  0  0  0  0
    6.2853  -14.2580   25.1550 C   0  0  2  0  0  0  0  0  0  0  0  0
    5.2010  -14.8036   25.9078 N   0  0  0  0  0  0  0  0  0  0  0  0
    7.1854  -15.2751   24.5868 C   0  0  0  0  0  0  0  0  0  0  0  0
    7.4159  -16.2981   25.2990 O   0  0  0  0  0  0  0  0  0  0  0  0
    7.4881  -15.9879   20.5753 C   0  0  0  0  0  0  0  0  0  0  0  0
    8.8078  -16.0883   21.2836 C   0  0  1  0  0  0  0  0  0  0  0  0
    9.5240  -14.9257   21.0492 O   0  0  0  0  0  0  0  0  0  0  0  0
    8.6476  -16.2583   22.7725 C   0  0  2  0  0  0  0  0  0  0  0  0
    7.8059  -15.2089   23.3320 N   0  0  0  0  0  0  0  0  0  0  0  0
    9.9829  -16.1571   23.4216 C   0  0  0  0  0  0  0  0  0  0  0  0
   10.4212  -15.0129   23.8038 O   0  0  0  0  0  0  0  0  0  0  0  0
   10.7976  -17.2870   23.6381 N   0  0  0  0  0  0  0  0  0  0  0  0
   12.1682  -17.1198   24.1869 C   0  0  1  0  0  0  0  0  0  0  0  0
   12.4510  -18.2601   25.1055 C   0  0  0  0  0  0  0  0  0  0  0  0
   11.8195  -18.2330   26.4373 C   0  0  0  0  0  0  0  0  0  0  0  0
   11.9163  -19.3962   27.3321 C   0  0  0  0  0  0  0  0  0  0  0  0
   11.2564  -19.2816   28.6687 C   0  0  0  0  0  0  0  0  0  0  0  0
   11.2871  -20.5109   29.3813 N   0  0  0  0  0  0  0  0  0  0  0  0
   13.0984  -16.8320   23.1213 C   0  0  0  0  0  0  0  0  0  0  0  0
   14.3072  -16.1643   23.2067 O   0  0  0  0  0  0  0  0  0  0  0  0
   12.8089  -17.2186   21.9298 O   0  0  0  0  0  0  0  0  0  0  0  0
  2  1  1  0
  2  3  1  0
  3  4  1  6
  5  3  1  0
  5  6  1  1
  7  5  1  0
  8  7  2  0
 10  9  1  6
 10 12  1  0
 11 10  1  0
 12 13  1  1
 13  7  1  0
 14 12  1  0
 14 15  2  0
 16 14  1  0
 17 16  1  0
 17 18  1  6
 17 23  1  0
 19 18  1  0
 19 20  1  0
 21 20  1  0
 21 22  1  0
 23 25  2  0
 23 24  1  0
M  END
$$$$
