ITK.pdb
     RDKit          3D

 25 24  0  0  1  0  0  0  0  0999 V2000
   10.8746  -21.5713   21.3497 C   0  0  0  0  0  0  0  0  0  0  0  0
   10.3594  -20.4530   20.4893 C   0  0  0  0  0  0  0  0  0  0  0  0
   10.3507  -19.1220   21.2067 C   0  0  2  0  0  0  0  0  0  0  0  0
    9.7422  -19.1877   22.5687 C   0  0  0  0  0  0  0  0  0  0  0  0
    9.6944  -18.0713   20.3281 C   0  0  2  0  0  0  0  0  0  0  0  0
   10.3802  -18.0508   19.0754 N   0  0  0  0  0  0  0  0  0  0  0  0
    9.6539  -16.7645   21.0051 C   0  0  0  0  0  0  0  0  0  0  0  0
   10.7421  -16.1173   21.0665 O   0  0  0  0  0  0  0  0  0  0  0  0
    7.5847  -13.5983   20.2420 C   0  0  0  0  0  0  0  0  0  0  0  0
    7.3588  -14.0294   21.6620 C   0  0  1  0  0  0  0  0  0  0  0  0
    6.2020  -14.7903   21.7135 O   0  0  0  0  0  0  0  0  0  0  0  0
    8.4987  -14.8569   22.1980 C   0  0  2  0  0  0  0  0  0  0  0  0
    8.5205  -16.1783   21.5843 N   0  0  0  0  0  0  0  0  0  0  0  0
    8.3184  -15.0450   23.6632 C   0  0  0  0  0  0  0  0  0  0  0  0
    7.7291  -16.0967   24.1035 O   0  0  0  0  0  0  0  0  0  0  0  0
    8.7785  -14.0988   24.6015 N   0  0  0  0  0  0  0  0  0  0  0  0
    8.5141  -14.3003   26.0496 C   0  0  1  0  0  0  0  0  0  0  0  0
    9.6610  -15.0497   26.6388 C   0  0  0  0  0  0  0  0  0  0  0  0
    9.6051  -15.3549   28.0800 C   0  0  0  0  0  0  0  0  0  0  0  0
   10.7324  -16.0267   28.7439 C   0  0  0  0  0  0  0  0  0  0  0  0
   10.5849  -16.3195   30.2026 C   0  0  0  0  0  0  0  0  0  0  0  0
   11.7220  -16.9929   30.7251 N   0  0  0  0  0  0  0  0  0  0  0  0
    8.1038  -13.0569   26.6575 C   0  0  0  0  0  0  0  0  0  0  0  0
    7.4800  -12.8742   27.8788 O   0  0  0  0  0  0  0  0  0  0  0  0
    8.3184  -11.9603   26.0218 O   0  0  0  0  0  0  0  0  0  0  0  0
  2  1  1  0
  2  3  1  0
  3  4  1  1
  5  3  1  0
  5  6  1  6
  7  5  1  0
  8  7  2  0
 10  9  1  6
 10 12  1  0
 11 10  1  0
 12 13  1  6
 13  7  1  0
 14 12  1  0
 14 15  2  0
 16 14  1  0
 17 16  1  0
 17 18  1  1
 17 23  1  0
 19 18  1  0
 19 20  1  0
 21 20  1  0
 21 22  1  0
 23 25  2  0
 23 24  1  0
M  END
$$$$
