ITK.pdb
     RDKit          3D

 25 24  0  0  1  0  0  0  0  0999 V2000
    7.7891  -11.5829   19.1746 C   0  0  0  0  0  0  0  0  0  0  0  0
    8.3555  -12.8816   18.6760 C   0  0  0  0  0  0  0  0  0  0  0  0
    8.2931  -13.9810   19.7122 C   0  0  2  0  0  0  0  0  0  0  0  0
    8.9351  -13.6099   21.0082 C   0  0  0  0  0  0  0  0  0  0  0  0
    8.8592  -15.2649   19.1310 C   0  0  2  0  0  0  0  0  0  0  0  0
    8.1038  -15.5932   17.9641 N   0  0  0  0  0  0  0  0  0  0  0  0
    8.8885  -16.3359   20.1408 C   0  0  0  0  0  0  0  0  0  0  0  0
    7.7735  -16.8348   20.4791 O   0  0  0  0  0  0  0  0  0  0  0  0
   10.1439  -19.7767   20.1848 C   0  0  0  0  0  0  0  0  0  0  0  0
   10.7900  -19.0951   21.3559 C   0  0  1  0  0  0  0  0  0  0  0  0
   12.0706  -18.7115   20.9917 O   0  0  0  0  0  0  0  0  0  0  0  0
   10.0314  -17.8694   21.7957 C   0  0  2  0  0  0  0  0  0  0  0  0
   10.0385  -16.8481   20.7565 N   0  0  0  0  0  0  0  0  0  0  0  0
   10.6921  -17.2918   22.9977 C   0  0  0  0  0  0  0  0  0  0  0  0
   11.5160  -16.3167   22.8659 O   0  0  0  0  0  0  0  0  0  0  0  0
   10.4430  -17.7807   24.2963 N   0  0  0  0  0  0  0  0  0  0  0  0
   11.1885  -17.2240   25.4546 C   0  0  1  0  0  0  0  0  0  0  0  0
   10.2661  -16.3472   26.2321 C   0  0  0  0  0  0  0  0  0  0  0  0
   10.7729  -15.7758   27.4930 C   0  0  0  0  0  0  0  0  0  0  0  0
    9.9387  -14.8586   28.2842 C   0  0  0  0  0  0  0  0  0  0  0  0
   10.5381  -14.3052   29.5370 C   0  0  0  0  0  0  0  0  0  0  0  0
    9.6493  -13.4178   30.2021 N   0  0  0  0  0  0  0  0  0  0  0  0
   11.8982  -18.2769   26.1413 C   0  0  0  0  0  0  0  0  0  0  0  0
   13.0237  -18.1629   26.9378 O   0  0  0  0  0  0  0  0  0  0  0  0
   11.4732  -19.4845   26.0235 O   0  0  0  0  0  0  0  0  0  0  0  0
  2  1  1  0
  2  3  1  0
  3  4  1  1
  5  3  1  0
  5  6  1  6
  7  5  1  0
  8  7  2  0
 10  9  1  6
 10 12  1  0
 11 10  1  0
 12 13  1  6
 13  7  1  0
 14 12  1  0
 14 15  2  0
 16 14  1  0
 17 16  1  0
 17 18  1  1
 17 23  1  0
 19 18  1  0
 19 20  1  0
 21 20  1  0
 21 22  1  0
 23 25  2  0
 23 24  1  0
M  END
$$$$
