ITK.pdb
     RDKit          3D

 25 24  0  0  1  0  0  0  0  0999 V2000
    9.0602  -11.8793   27.3486 C   0  0  0  0  0  0  0  0  0  0  0  0
    8.0279  -12.9139   27.0024 C   0  0  0  0  0  0  0  0  0  0  0  0
    7.1055  -12.4679   25.8903 C   0  0  2  0  0  0  0  0  0  0  0  0
    6.3788  -11.2001   26.1969 C   0  0  0  0  0  0  0  0  0  0  0  0
    6.1646  -13.6012   25.5204 C   0  0  2  0  0  0  0  0  0  0  0  0
    5.4302  -13.9663   26.6898 N   0  0  0  0  0  0  0  0  0  0  0  0
    6.8984  -14.7199   24.9059 C   0  0  0  0  0  0  0  0  0  0  0  0
    6.9669  -15.7954   25.5734 O   0  0  0  0  0  0  0  0  0  0  0  0
    6.9547  -15.1729   20.9099 C   0  0  0  0  0  0  0  0  0  0  0  0
    8.2382  -15.6556   21.5204 C   0  0  1  0  0  0  0  0  0  0  0  0
    9.2233  -14.7111   21.2811 O   0  0  0  0  0  0  0  0  0  0  0  0
    8.1238  -15.8591   23.0093 C   0  0  2  0  0  0  0  0  0  0  0  0
    7.5242  -14.6972   23.6523 N   0  0  0  0  0  0  0  0  0  0  0  0
    9.4850  -16.0378   23.5835 C   0  0  0  0  0  0  0  0  0  0  0  0
   10.0452  -15.0679   24.2102 O   0  0  0  0  0  0  0  0  0  0  0  0
   10.1939  -17.2507   23.4657 N   0  0  0  0  0  0  0  0  0  0  0  0
   11.4682  -17.4406   24.2056 C   0  0  1  0  0  0  0  0  0  0  0  0
   11.4550  -18.7958   24.8280 C   0  0  0  0  0  0  0  0  0  0  0  0
   11.8363  -18.8952   26.2485 C   0  0  0  0  0  0  0  0  0  0  0  0
   11.8083  -20.1936   26.9387 C   0  0  0  0  0  0  0  0  0  0  0  0
   12.0756  -20.1867   28.4097 C   0  0  0  0  0  0  0  0  0  0  0  0
   11.9517  -21.4841   28.9764 N   0  0  0  0  0  0  0  0  0  0  0  0
   12.5865  -17.0627   23.3745 C   0  0  0  0  0  0  0  0  0  0  0  0
   13.8893  -16.8122   23.7668 O   0  0  0  0  0  0  0  0  0  0  0  0
   12.3956  -16.9248   22.1106 O   0  0  0  0  0  0  0  0  0  0  0  0
  2  1  1  0
  2  3  1  0
  3  4  1  1
  5  3  1  0
  5  6  1  1
  7  5  1  0
  8  7  2  0
 10  9  1  1
 10 12  1  0
 11 10  1  0
 12 13  1  1
 13  7  1  0
 14 12  1  0
 14 15  2  0
 16 14  1  0
 17 16  1  0
 17 18  1  6
 17 23  1  0
 19 18  1  0
 19 20  1  0
 21 20  1  0
 21 22  1  0
 23 25  2  0
 23 24  1  0
M  END
$$$$
