ITK.pdb
     RDKit          3D

 25 24  0  0  1  0  0  0  0  0999 V2000
    6.9136  -10.6700   27.2199 C   0  0  0  0  0  0  0  0  0  0  0  0
    6.1299  -11.7528   26.5348 C   0  0  0  0  0  0  0  0  0  0  0  0
    7.0130  -12.8384   25.9621 C   0  0  2  0  0  0  0  0  0  0  0  0
    8.0814  -12.3169   25.0588 C   0  0  0  0  0  0  0  0  0  0  0  0
    6.1539  -13.8974   25.2936 C   0  0  2  0  0  0  0  0  0  0  0  0
    5.2043  -14.3666   26.2518 N   0  0  0  0  0  0  0  0  0  0  0  0
    6.9852  -14.9632   24.7098 C   0  0  0  0  0  0  0  0  0  0  0  0
    7.3056  -15.9228   25.4735 O   0  0  0  0  0  0  0  0  0  0  0  0
    6.8799  -15.7523   20.7112 C   0  0  0  0  0  0  0  0  0  0  0  0
    8.2312  -16.0215   21.3068 C   0  0  1  0  0  0  0  0  0  0  0  0
    9.0799  -14.9814   20.9637 O   0  0  0  0  0  0  0  0  0  0  0  0
    8.1850  -16.1237   22.8098 C   0  0  2  0  0  0  0  0  0  0  0  0
    7.4498  -15.0067   23.3884 N   0  0  0  0  0  0  0  0  0  0  0  0
    9.5726  -16.0738   23.3452 C   0  0  0  0  0  0  0  0  0  0  0  0
   10.0688  -14.9536   23.7273 O   0  0  0  0  0  0  0  0  0  0  0  0
   10.3755  -17.2276   23.4524 N   0  0  0  0  0  0  0  0  0  0  0  0
   11.6856  -17.1580   24.1497 C   0  0  1  0  0  0  0  0  0  0  0  0
   11.8996  -18.4400   24.8810 C   0  0  0  0  0  0  0  0  0  0  0  0
   11.7202  -18.4262   26.3441 C   0  0  0  0  0  0  0  0  0  0  0  0
   11.8954  -19.6580   27.1283 C   0  0  0  0  0  0  0  0  0  0  0  0
   11.5416  -19.5953   28.5796 C   0  0  0  0  0  0  0  0  0  0  0  0
   11.3686  -20.8903   29.1388 N   0  0  0  0  0  0  0  0  0  0  0  0
   12.7070  -16.6904   23.2430 C   0  0  0  0  0  0  0  0  0  0  0  0
   13.9194  -16.1039   23.5594 O   0  0  0  0  0  0  0  0  0  0  0  0
   12.5080  -16.8070   21.9782 O   0  0  0  0  0  0  0  0  0  0  0  0
  2  1  1  0
  2  3  1  0
  3  4  1  6
  5  3  1  0
  5  6  1  1
  7  5  1  0
  8  7  2  0
 10  9  1  1
 10 12  1  0
 11 10  1  0
 12 13  1  1
 13  7  1  0
 14 12  1  0
 14 15  2  0
 16 14  1  0
 17 16  1  0
 17 18  1  6
 17 23  1  0
 19 18  1  0
 19 20  1  0
 21 20  1  0
 21 22  1  0
 23 25  2  0
 23 24  1  0
M  END
$$$$
