ITK.pdb
     RDKit          3D

 25 24  0  0  1  0  0  0  0  0999 V2000
    9.0823  -12.8657   27.4210 C   0  0  0  0  0  0  0  0  0  0  0  0
    8.0427  -13.8135   26.8948 C   0  0  0  0  0  0  0  0  0  0  0  0
    7.1513  -13.1801   25.8505 C   0  0  2  0  0  0  0  0  0  0  0  0
    6.4013  -11.9915   26.3547 C   0  0  0  0  0  0  0  0  0  0  0  0
    6.2351  -14.2334   25.2525 C   0  0  2  0  0  0  0  0  0  0  0  0
    5.4973  -14.8344   26.3176 N   0  0  0  0  0  0  0  0  0  0  0  0
    6.9951  -15.1965   24.4386 C   0  0  0  0  0  0  0  0  0  0  0  0
    7.1364  -16.3628   24.9145 O   0  0  0  0  0  0  0  0  0  0  0  0
    7.1520  -15.0512   20.3806 C   0  0  0  0  0  0  0  0  0  0  0  0
    8.4658  -15.4658   20.9767 C   0  0  1  0  0  0  0  0  0  0  0  0
    9.3323  -14.3856   20.9293 O   0  0  0  0  0  0  0  0  0  0  0  0
    8.3305  -15.9066   22.4115 C   0  0  2  0  0  0  0  0  0  0  0  0
    7.5726  -14.9348   23.1888 N   0  0  0  0  0  0  0  0  0  0  0  0
    9.6847  -16.0105   23.0199 C   0  0  0  0  0  0  0  0  0  0  0  0
   10.0697  -15.1325   23.8732 O   0  0  0  0  0  0  0  0  0  0  0  0
   10.5748  -17.0532   22.6915 N   0  0  0  0  0  0  0  0  0  0  0  0
   11.8363  -17.2214   23.4581 C   0  0  1  0  0  0  0  0  0  0  0  0
   11.7095  -18.4354   24.3150 C   0  0  0  0  0  0  0  0  0  0  0  0
   12.8811  -18.8242   25.1208 C   0  0  0  0  0  0  0  0  0  0  0  0
   12.8407  -20.0303   25.9615 C   0  0  0  0  0  0  0  0  0  0  0  0
   14.0901  -20.3839   26.7024 C   0  0  0  0  0  0  0  0  0  0  0  0
   13.8560  -21.3775   27.6913 N   0  0  0  0  0  0  0  0  0  0  0  0
   12.9732  -17.1024   22.5766 C   0  0  0  0  0  0  0  0  0  0  0  0
   14.2816  -16.8047   22.9137 O   0  0  0  0  0  0  0  0  0  0  0  0
   12.7962  -17.2808   21.3157 O   0  0  0  0  0  0  0  0  0  0  0  0
  2  1  1  0
  2  3  1  0
  3  4  1  1
  5  3  1  0
  5  6  1  1
  7  5  1  0
  8  7  2  0
 10  9  1  1
 10 12  1  0
 11 10  1  0
 12 13  1  1
 13  7  1  0
 14 12  1  0
 14 15  2  0
 16 14  1  0
 17 16  1  0
 17 18  1  6
 17 23  1  0
 19 18  1  0
 19 20  1  0
 21 20  1  0
 21 22  1  0
 23 25  2  0
 23 24  1  0
M  END
$$$$
