ITK.pdb
     RDKit          3D

 25 24  0  0  1  0  0  0  0  0999 V2000
    6.9537  -10.8307   27.7150 C   0  0  0  0  0  0  0  0  0  0  0  0
    6.1258  -11.8279   26.9560 C   0  0  0  0  0  0  0  0  0  0  0  0
    6.9671  -12.8666   26.2492 C   0  0  2  0  0  0  0  0  0  0  0  0
    8.0353  -12.2772   25.3884 C   0  0  0  0  0  0  0  0  0  0  0  0
    6.0664  -13.8208   25.4845 C   0  0  2  0  0  0  0  0  0  0  0  0
    5.0960  -14.3393   26.3954 N   0  0  0  0  0  0  0  0  0  0  0  0
    6.8541  -14.8596   24.8005 C   0  0  0  0  0  0  0  0  0  0  0  0
    7.1696  -15.8809   25.4819 O   0  0  0  0  0  0  0  0  0  0  0  0
    6.7548  -15.3336   20.7167 C   0  0  0  0  0  0  0  0  0  0  0  0
    8.0956  -15.6440   21.3160 C   0  0  1  0  0  0  0  0  0  0  0  0
    8.9401  -14.5693   21.0887 O   0  0  0  0  0  0  0  0  0  0  0  0
    8.0176  -15.8837   22.8019 C   0  0  2  0  0  0  0  0  0  0  0  0
    7.2827  -14.8157   23.4669 N   0  0  0  0  0  0  0  0  0  0  0  0
    9.3944  -15.9006   23.3664 C   0  0  0  0  0  0  0  0  0  0  0  0
    9.8759  -14.8399   23.9053 O   0  0  0  0  0  0  0  0  0  0  0  0
   10.2029  -17.0550   23.3334 N   0  0  0  0  0  0  0  0  0  0  0  0
   11.4426  -17.1166   24.1499 C   0  0  1  0  0  0  0  0  0  0  0  0
   11.2453  -18.1236   25.2321 C   0  0  0  0  0  0  0  0  0  0  0  0
   12.4065  -18.4451   26.0815 C   0  0  0  0  0  0  0  0  0  0  0  0
   12.3095  -19.4894   27.1127 C   0  0  0  0  0  0  0  0  0  0  0  0
   13.4816  -19.6526   28.0263 C   0  0  0  0  0  0  0  0  0  0  0  0
   13.2712  -20.6873   28.9776 N   0  0  0  0  0  0  0  0  0  0  0  0
   12.5979  -17.2286   23.2917 C   0  0  0  0  0  0  0  0  0  0  0  0
   13.9035  -16.8685   23.5741 O   0  0  0  0  0  0  0  0  0  0  0  0
   12.4428  -17.7107   22.1100 O   0  0  0  0  0  0  0  0  0  0  0  0
  2  1  1  0
  2  3  1  0
  3  4  1  6
  5  3  1  0
  5  6  1  1
  7  5  1  0
  8  7  2  0
 10  9  1  1
 10 12  1  0
 11 10  1  0
 12 13  1  1
 13  7  1  0
 14 12  1  0
 14 15  2  0
 16 14  1  0
 17 16  1  0
 17 18  1  1
 17 23  1  0
 19 18  1  0
 19 20  1  0
 21 20  1  0
 21 22  1  0
 23 25  2  0
 23 24  1  0
M  END
$$$$
