PHP.pdb
     RDKit          3D

 25 27  0  0  1  0  0  0  0  0999 V2000
   23.7465  -15.8952  -15.1403 N   0  0  0  0  0  0  0  0  0  0  0  0
   24.5362  -17.1007  -14.8516 C   0  0  0  0  0  0  0  0  0  0  0  0
   24.9287  -17.6047  -16.2444 C   0  0  0  0  0  0  0  0  0  0  0  0
   24.6875  -16.4043  -17.1707 C   0  0  0  0  0  0  0  0  0  0  0  0
   24.5710  -15.2953  -16.1888 C   0  0  1  0  0  0  0  0  0  0  0  0
   23.9757  -14.0517  -16.6927 C   0  0  0  0  0  0  0  0  0  0  0  0
   24.5832  -13.3669  -17.5892 O   0  0  0  0  0  0  0  0  0  0  0  0
   22.7261  -13.6333  -16.1708 N   0  0  0  0  0  0  0  0  0  0  0  0
   22.0492  -12.4450  -16.7208 C   0  0  1  0  0  0  0  0  0  0  0  0
   20.5773  -12.7788  -16.8731 C   0  0  0  0  0  0  0  0  0  0  0  0
   19.8555  -11.6560  -17.5068 C   0  0  0  0  0  0  0  0  0  0  0  0
   20.1113  -11.0230  -18.6920 C   0  0  0  0  0  0  0  0  0  0  0  0
   19.1247  -10.1093  -18.9400 N   0  0  0  0  0  0  0  0  0  0  0  0
   18.2617  -10.1713  -17.9230 C   0  0  0  0  0  0  0  0  0  0  0  0
   18.6963  -11.0937  -17.0677 N   0  0  0  0  0  0  0  0  0  0  0  0
   22.1259  -11.3705  -15.7186 C   0  0  0  0  0  0  0  0  0  0  0  0
   21.8832  -11.6490  -14.4959 O   0  0  0  0  0  0  0  0  0  0  0  0
   22.4455  -10.0449  -15.9843 N   0  0  0  0  0  0  0  0  0  0  0  0
   22.7263   -9.4382  -17.2569 C   0  0  0  0  0  0  0  0  0  0  0  0
   22.1134   -8.0259  -17.0262 C   0  0  0  0  0  0  0  0  0  0  0  0
   22.8493   -7.7208  -15.7256 C   0  0  0  0  0  0  0  0  0  0  0  0
   22.5106   -8.9670  -14.9452 C   0  0  1  0  0  0  0  0  0  0  0  0
   21.1894   -8.8073  -14.3188 C   0  0  0  0  0  0  0  0  0  0  0  0
   20.0383   -9.3028  -14.9028 O   0  0  0  0  0  0  0  0  0  0  0  0
   21.0908   -8.2072  -13.2248 O   0  0  0  0  0  0  0  0  0  0  0  0
  1  2  1  0
  3  2  1  0
  4  5  1  0
  4  3  1  0
  5  1  1  0
  5  6  1  6
  6  7  2  0
  8  6  1  0
  8  9  1  0
  9 16  1  0
  9 10  1  1
 10 11  1  0
 11 12  2  0
 11 15  1  0
 12 13  1  0
 13 14  1  0
 15 14  2  0
 16 17  2  0
 18 16  1  0
 18 22  1  0
 19 18  1  0
 20 19  1  0
 20 21  1  0
 21 22  1  0
 22 23  1  6
 23 25  2  0
 23 24  1  0
M  END
$$$$
