PHP.pdb
     RDKit          3D

 25 27  0  0  1  0  0  0  0  0999 V2000
   26.1370  -18.9393  -17.8725 N   0  0  0  0  0  0  0  0  0  0  0  0
   27.5512  -18.9196  -18.2720 C   0  0  0  0  0  0  0  0  0  0  0  0
   27.5707  -17.9337  -19.4448 C   0  0  0  0  0  0  0  0  0  0  0  0
   26.2473  -17.1648  -19.3239 C   0  0  0  0  0  0  0  0  0  0  0  0
   25.8333  -17.5103  -17.9394 C   0  0  1  0  0  0  0  0  0  0  0  0
   24.4290  -17.2446  -17.6042 C   0  0  0  0  0  0  0  0  0  0  0  0
   23.9951  -16.0396  -17.5670 O   0  0  0  0  0  0  0  0  0  0  0  0
   23.5745  -18.3414  -17.3283 N   0  0  0  0  0  0  0  0  0  0  0  0
   22.1323  -18.1264  -17.1131 C   0  0  1  0  0  0  0  0  0  0  0  0
   21.3810  -18.9975  -18.1020 C   0  0  0  0  0  0  0  0  0  0  0  0
   21.3841  -18.3777  -19.4433 C   0  0  0  0  0  0  0  0  0  0  0  0
   20.5075  -17.4759  -19.9809 C   0  0  0  0  0  0  0  0  0  0  0  0
   20.9537  -17.0899  -21.2144 N   0  0  0  0  0  0  0  0  0  0  0  0
   22.0963  -17.7414  -21.4447 C   0  0  0  0  0  0  0  0  0  0  0  0
   22.3543  -18.5095  -20.3890 N   0  0  0  0  0  0  0  0  0  0  0  0
   21.7892  -18.6329  -15.7750 C   0  0  0  0  0  0  0  0  0  0  0  0
   22.1989  -19.7928  -15.4308 O   0  0  0  0  0  0  0  0  0  0  0  0
   21.0404  -17.9501  -14.8247 N   0  0  0  0  0  0  0  0  0  0  0  0
   20.3961  -16.6717  -14.9543 C   0  0  0  0  0  0  0  0  0  0  0  0
   19.1334  -16.9131  -14.0764 C   0  0  0  0  0  0  0  0  0  0  0  0
   19.8694  -17.4043  -12.8341 C   0  0  0  0  0  0  0  0  0  0  0  0
   20.7282  -18.4772  -13.4569 C   0  0  1  0  0  0  0  0  0  0  0  0
   19.9495  -19.7196  -13.5747 C   0  0  0  0  0  0  0  0  0  0  0  0
   19.8451  -20.6192  -12.5300 O   0  0  0  0  0  0  0  0  0  0  0  0
   19.3594  -19.9816  -14.6469 O   0  0  0  0  0  0  0  0  0  0  0  0
  1  2  1  0
  3  2  1  0
  4  5  1  0
  4  3  1  0
  5  1  1  0
  5  6  1  6
  6  7  2  0
  8  6  1  0
  8  9  1  0
  9 16  1  0
  9 10  1  6
 10 11  1  0
 11 12  2  0
 11 15  1  0
 12 13  1  0
 13 14  1  0
 15 14  2  0
 16 17  2  0
 18 16  1  0
 18 22  1  0
 19 18  1  0
 20 19  1  0
 20 21  1  0
 21 22  1  0
 22 23  1  6
 23 25  2  0
 23 24  1  0
M  END
$$$$
