PHP.pdb
     RDKit          3D

 25 27  0  0  1  0  0  0  0  0999 V2000
   22.7186  -12.0491  -17.7666 N   0  0  0  0  0  0  0  0  0  0  0  0
   23.3565  -13.0318  -18.6540 C   0  0  0  0  0  0  0  0  0  0  0  0
   22.2033  -13.4957  -19.5500 C   0  0  0  0  0  0  0  0  0  0  0  0
   21.1200  -12.4227  -19.3704 C   0  0  0  0  0  0  0  0  0  0  0  0
   21.8964  -11.3260  -18.7360 C   0  0  1  0  0  0  0  0  0  0  0  0
   21.1064  -10.2719  -18.0882 C   0  0  0  0  0  0  0  0  0  0  0  0
   20.2242   -9.6279  -18.7580 O   0  0  0  0  0  0  0  0  0  0  0  0
   21.3395   -9.9890  -16.7190 N   0  0  0  0  0  0  0  0  0  0  0  0
   20.4980   -9.0107  -16.0067 C   0  0  1  0  0  0  0  0  0  0  0  0
   19.9071   -9.7038  -14.7935 C   0  0  0  0  0  0  0  0  0  0  0  0
   18.8168  -10.6149  -15.1988 C   0  0  0  0  0  0  0  0  0  0  0  0
   17.5819  -10.3141  -15.7041 C   0  0  0  0  0  0  0  0  0  0  0  0
   16.9358  -11.4712  -16.0410 N   0  0  0  0  0  0  0  0  0  0  0  0
   17.7574  -12.4832  -15.7513 C   0  0  0  0  0  0  0  0  0  0  0  0
   18.8797  -11.9737  -15.2492 N   0  0  0  0  0  0  0  0  0  0  0  0
   21.3726   -7.9474  -15.4877 C   0  0  0  0  0  0  0  0  0  0  0  0
   22.4197   -8.2746  -14.8334 O   0  0  0  0  0  0  0  0  0  0  0  0
   21.1607   -6.5836  -15.6460 N   0  0  0  0  0  0  0  0  0  0  0  0
   20.1007   -5.9280  -16.3624 C   0  0  0  0  0  0  0  0  0  0  0  0
   19.9039   -4.6705  -15.4662 C   0  0  0  0  0  0  0  0  0  0  0  0
   21.3631   -4.2269  -15.4558 C   0  0  0  0  0  0  0  0  0  0  0  0
   22.0169   -5.5186  -15.0308 C   0  0  1  0  0  0  0  0  0  0  0  0
   21.9664   -5.6328  -13.5652 C   0  0  0  0  0  0  0  0  0  0  0  0
   22.8866   -5.0000  -12.7500 O   0  0  0  0  0  0  0  0  0  0  0  0
   21.0690   -6.3202  -13.0278 O   0  0  0  0  0  0  0  0  0  0  0  0
  1  2  1  0
  3  2  1  0
  4  5  1  0
  4  3  1  0
  5  1  1  0
  5  6  1  1
  6  7  2  0
  8  6  1  0
  8  9  1  0
  9 16  1  0
  9 10  1  1
 10 11  1  0
 11 12  2  0
 11 15  1  0
 12 13  1  0
 13 14  1  0
 15 14  2  0
 16 17  2  0
 18 16  1  0
 18 22  1  0
 19 18  1  0
 20 19  1  0
 20 21  1  0
 21 22  1  0
 22 23  1  1
 23 25  2  0
 23 24  1  0
M  END
$$$$
