PHP.pdb
     RDKit          3D

 25 27  0  0  1  0  0  0  0  0999 V2000
   27.0692  -20.6015  -18.4821 N   0  0  0  0  0  0  0  0  0  0  0  0
   27.7537  -20.9568  -19.7332 C   0  0  0  0  0  0  0  0  0  0  0  0
   28.6770  -19.7592  -19.9802 C   0  0  0  0  0  0  0  0  0  0  0  0
   28.7428  -19.0377  -18.6265 C   0  0  0  0  0  0  0  0  0  0  0  0
   28.1977  -20.0762  -17.7144 C   0  0  1  0  0  0  0  0  0  0  0  0
   27.7728  -19.6079  -16.3896 C   0  0  0  0  0  0  0  0  0  0  0  0
   28.6097  -19.0194  -15.6182 O   0  0  0  0  0  0  0  0  0  0  0  0
   26.4291  -19.8183  -15.9905 N   0  0  0  0  0  0  0  0  0  0  0  0
   25.9417  -19.2861  -14.7053 C   0  0  1  0  0  0  0  0  0  0  0  0
   24.7295  -18.4202  -14.9919 C   0  0  0  0  0  0  0  0  0  0  0  0
   25.1358  -17.1675  -15.6620 C   0  0  0  0  0  0  0  0  0  0  0  0
   25.7092  -16.0473  -15.1262 C   0  0  0  0  0  0  0  0  0  0  0  0
   26.0156  -15.1706  -16.1299 N   0  0  0  0  0  0  0  0  0  0  0  0
   25.6398  -15.7365  -17.2794 C   0  0  0  0  0  0  0  0  0  0  0  0
   25.1152  -16.9277  -17.0018 N   0  0  0  0  0  0  0  0  0  0  0  0
   25.4582  -20.4160  -13.8963 C   0  0  0  0  0  0  0  0  0  0  0  0
   24.6761  -21.2702  -14.4351 O   0  0  0  0  0  0  0  0  0  0  0  0
   25.7804  -20.6474  -12.5650 N   0  0  0  0  0  0  0  0  0  0  0  0
   26.6771  -19.8994  -11.7265 C   0  0  0  0  0  0  0  0  0  0  0  0
   25.9447  -20.0311  -10.3592 C   0  0  0  0  0  0  0  0  0  0  0  0
   25.8142  -21.5506  -10.3708 C   0  0  0  0  0  0  0  0  0  0  0  0
   25.1856  -21.7400  -11.7293 C   0  0  1  0  0  0  0  0  0  0  0  0
   23.7314  -21.5441  -11.6266 C   0  0  0  0  0  0  0  0  0  0  0  0
   22.8778  -22.5727  -11.2733 O   0  0  0  0  0  0  0  0  0  0  0  0
   23.2397  -20.4176  -11.8634 O   0  0  0  0  0  0  0  0  0  0  0  0
  1  2  1  0
  3  2  1  0
  4  5  1  0
  4  3  1  0
  5  1  1  0
  5  6  1  1
  6  7  2  0
  8  6  1  0
  8  9  1  0
  9 16  1  0
  9 10  1  6
 10 11  1  0
 11 12  2  0
 11 15  1  0
 12 13  1  0
 13 14  1  0
 15 14  2  0
 16 17  2  0
 18 16  1  0
 18 22  1  0
 19 18  1  0
 20 19  1  0
 20 21  1  0
 21 22  1  0
 22 23  1  1
 23 25  2  0
 23 24  1  0
M  END
$$$$
