PHP.pdb
     RDKit          3D

 25 27  0  0  1  0  0  0  0  0999 V2000
   27.5429  -19.0129  -18.2465 N   0  0  0  0  0  0  0  0  0  0  0  0
   28.5265  -18.8002  -19.3178 C   0  0  0  0  0  0  0  0  0  0  0  0
   28.6794  -17.2761  -19.3560 C   0  0  0  0  0  0  0  0  0  0  0  0
   28.0938  -16.7964  -18.0202 C   0  0  0  0  0  0  0  0  0  0  0  0
   28.0425  -18.0661  -17.2501 C   0  0  1  0  0  0  0  0  0  0  0  0
   27.1971  -18.0552  -16.0501 C   0  0  0  0  0  0  0  0  0  0  0  0
   27.4516  -17.2419  -15.0933 O   0  0  0  0  0  0  0  0  0  0  0  0
   26.1038  -18.9544  -15.9779 N   0  0  0  0  0  0  0  0  0  0  0  0
   25.1750  -18.9077  -14.8343 C   0  0  1  0  0  0  0  0  0  0  0  0
   23.7793  -18.6722  -15.3799 C   0  0  0  0  0  0  0  0  0  0  0  0
   23.6476  -17.2893  -15.8835 C   0  0  0  0  0  0  0  0  0  0  0  0
   23.4774  -16.1269  -15.1830 C   0  0  0  0  0  0  0  0  0  0  0  0
   23.5126  -15.0676  -16.0471 N   0  0  0  0  0  0  0  0  0  0  0  0
   23.7041  -15.5617  -17.2727 C   0  0  0  0  0  0  0  0  0  0  0  0
   23.7851  -16.8866  -17.1764 N   0  0  0  0  0  0  0  0  0  0  0  0
   25.1530  -20.2392  -14.2086 C   0  0  0  0  0  0  0  0  0  0  0  0
   24.8562  -21.2532  -14.9265 O   0  0  0  0  0  0  0  0  0  0  0  0
   25.4315  -20.5047  -12.8738 N   0  0  0  0  0  0  0  0  0  0  0  0
   25.6973  -19.5647  -11.8192 C   0  0  0  0  0  0  0  0  0  0  0  0
   25.0393  -20.3079  -10.6200 C   0  0  0  0  0  0  0  0  0  0  0  0
   25.7609  -21.6374  -10.8147 C   0  0  0  0  0  0  0  0  0  0  0  0
   25.4590  -21.8776  -12.2734 C   0  0  1  0  0  0  0  0  0  0  0  0
   24.1312  -22.4973  -12.4022 C   0  0  0  0  0  0  0  0  0  0  0  0
   23.9557  -23.8678  -12.3525 O   0  0  0  0  0  0  0  0  0  0  0  0
   23.1225  -21.7736  -12.5617 O   0  0  0  0  0  0  0  0  0  0  0  0
  1  2  1  0
  3  2  1  0
  4  5  1  0
  4  3  1  0
  5  1  1  0
  5  6  1  1
  6  7  2  0
  8  6  1  0
  8  9  1  0
  9 16  1  0
  9 10  1  6
 10 11  1  0
 11 12  2  0
 11 15  1  0
 12 13  1  0
 13 14  1  0
 15 14  2  0
 16 17  2  0
 18 16  1  0
 18 22  1  0
 19 18  1  0
 20 19  1  0
 20 21  1  0
 21 22  1  0
 22 23  1  1
 23 25  2  0
 23 24  1  0
M  END
$$$$
