PHP.pdb
     RDKit          3D

 25 27  0  0  1  0  0  0  0  0999 V2000
   27.9258  -21.5688  -12.7822 N   0  0  0  0  0  0  0  0  0  0  0  0
   28.5749  -21.6953  -14.0947 C   0  0  0  0  0  0  0  0  0  0  0  0
   27.8404  -20.6581  -14.9506 C   0  0  0  0  0  0  0  0  0  0  0  0
   27.1397  -19.7459  -13.9338 C   0  0  0  0  0  0  0  0  0  0  0  0
   27.8436  -20.1124  -12.6776 C   0  0  1  0  0  0  0  0  0  0  0  0
   27.1876  -19.7009  -11.4306 C   0  0  0  0  0  0  0  0  0  0  0  0
   26.8656  -18.4740  -11.2496 O   0  0  0  0  0  0  0  0  0  0  0  0
   26.9201  -20.6831  -10.4444 N   0  0  0  0  0  0  0  0  0  0  0  0
   26.2639  -20.3087   -9.1788 C   0  0  1  0  0  0  0  0  0  0  0  0
   25.0019  -21.1402   -9.0472 C   0  0  0  0  0  0  0  0  0  0  0  0
   24.0014  -20.7237  -10.0515 C   0  0  0  0  0  0  0  0  0  0  0  0
   23.7726  -21.2252  -11.3033 C   0  0  0  0  0  0  0  0  0  0  0  0
   22.6771  -20.6113  -11.8444 N   0  0  0  0  0  0  0  0  0  0  0  0
   22.2255  -19.7375  -10.9413 C   0  0  0  0  0  0  0  0  0  0  0  0
   23.0143  -19.8039   -9.8714 N   0  0  0  0  0  0  0  0  0  0  0  0
   27.1421  -20.7155   -8.0705 C   0  0  0  0  0  0  0  0  0  0  0  0
   27.2525  -21.9580   -7.7953 O   0  0  0  0  0  0  0  0  0  0  0  0
   27.8823  -19.8519   -7.2730 N   0  0  0  0  0  0  0  0  0  0  0  0
   27.9359  -18.4166   -7.3321 C   0  0  0  0  0  0  0  0  0  0  0  0
   28.1048  -18.0881   -5.8198 C   0  0  0  0  0  0  0  0  0  0  0  0
   29.2995  -19.0026   -5.5695 C   0  0  0  0  0  0  0  0  0  0  0  0
   28.7549  -20.2906   -6.1363 C   0  0  1  0  0  0  0  0  0  0  0  0
   27.9345  -20.9644   -5.1182 C   0  0  0  0  0  0  0  0  0  0  0  0
   28.5001  -21.6429   -4.0546 O   0  0  0  0  0  0  0  0  0  0  0  0
   26.6864  -20.9298   -5.2059 O   0  0  0  0  0  0  0  0  0  0  0  0
  1  2  1  0
  3  2  1  0
  4  5  1  0
  4  3  1  0
  5  1  1  0
  5  6  1  1
  6  7  2  0
  8  6  1  0
  8  9  1  0
  9 16  1  0
  9 10  1  1
 10 11  1  0
 11 12  2  0
 11 15  1  0
 12 13  1  0
 13 14  1  0
 15 14  2  0
 16 17  2  0
 18 16  1  0
 18 22  1  0
 19 18  1  0
 20 19  1  0
 20 21  1  0
 21 22  1  0
 22 23  1  1
 23 25  2  0
 23 24  1  0
M  END
$$$$
