PHP.pdb
     RDKit          3D

 25 27  0  0  1  0  0  0  0  0999 V2000
   28.0463  -18.5285  -17.6951 N   0  0  0  0  0  0  0  0  0  0  0  0
   29.1247  -17.9845  -18.5325 C   0  0  0  0  0  0  0  0  0  0  0  0
   28.9038  -16.4705  -18.4490 C   0  0  0  0  0  0  0  0  0  0  0  0
   27.9869  -16.2814  -17.2321 C   0  0  0  0  0  0  0  0  0  0  0  0
   28.1100  -17.6031  -16.5644 C   0  0  1  0  0  0  0  0  0  0  0  0
   27.0851  -17.9128  -15.5601 C   0  0  0  0  0  0  0  0  0  0  0  0
   27.0078  -17.2174  -14.4867 O   0  0  0  0  0  0  0  0  0  0  0  0
   26.1922  -18.9859  -15.8054 N   0  0  0  0  0  0  0  0  0  0  0  0
   25.1546  -19.3324  -14.8175 C   0  0  1  0  0  0  0  0  0  0  0  0
   23.9535  -19.8668  -15.5745 C   0  0  0  0  0  0  0  0  0  0  0  0
   22.8831  -20.2596  -14.6348 C   0  0  0  0  0  0  0  0  0  0  0  0
   22.5776  -21.4981  -14.1413 C   0  0  0  0  0  0  0  0  0  0  0  0
   21.5769  -21.3834  -13.2166 N   0  0  0  0  0  0  0  0  0  0  0  0
   21.2615  -20.0887  -13.1318 C   0  0  0  0  0  0  0  0  0  0  0  0
   22.0401  -19.4173  -13.9769 N   0  0  0  0  0  0  0  0  0  0  0  0
   25.6560  -20.4487  -14.0004 C   0  0  0  0  0  0  0  0  0  0  0  0
   26.1586  -21.4657  -14.5876 O   0  0  0  0  0  0  0  0  0  0  0  0
   25.6329  -20.5026  -12.6125 N   0  0  0  0  0  0  0  0  0  0  0  0
   25.0419  -19.5639  -11.6981 C   0  0  0  0  0  0  0  0  0  0  0  0
   24.5645  -20.5366  -10.5804 C   0  0  0  0  0  0  0  0  0  0  0  0
   25.9005  -21.2427  -10.3737 C   0  0  0  0  0  0  0  0  0  0  0  0
   26.2087  -21.6232  -11.8009 C   0  0  1  0  0  0  0  0  0  0  0  0
   25.5156  -22.8774  -12.1328 C   0  0  0  0  0  0  0  0  0  0  0  0
   26.0443  -24.1132  -11.8091 O   0  0  0  0  0  0  0  0  0  0  0  0
   24.4140  -22.8383  -12.7258 O   0  0  0  0  0  0  0  0  0  0  0  0
  1  2  1  0
  3  2  1  0
  4  5  1  0
  4  3  1  0
  5  1  1  0
  5  6  1  1
  6  7  2  0
  8  6  1  0
  8  9  1  0
  9 16  1  0
  9 10  1  6
 10 11  1  0
 11 12  2  0
 11 15  1  0
 12 13  1  0
 13 14  1  0
 15 14  2  0
 16 17  2  0
 18 16  1  0
 18 22  1  0
 19 18  1  0
 20 19  1  0
 20 21  1  0
 21 22  1  0
 22 23  1  6
 23 25  2  0
 23 24  1  0
M  END
$$$$
