PHP.pdb
     RDKit          3D

 25 27  0  0  1  0  0  0  0  0999 V2000
   25.7538  -23.1045  -13.0129 N   0  0  0  0  0  0  0  0  0  0  0  0
   25.9380  -23.8713  -14.2531 C   0  0  0  0  0  0  0  0  0  0  0  0
   25.8064  -22.8063  -15.3468 C   0  0  0  0  0  0  0  0  0  0  0  0
   25.9870  -21.4720  -14.6091 C   0  0  0  0  0  0  0  0  0  0  0  0
   26.5655  -21.9269  -13.3183 C   0  0  1  0  0  0  0  0  0  0  0  0
   26.5308  -20.9529  -12.2206 C   0  0  0  0  0  0  0  0  0  0  0  0
   26.9354  -19.7527  -12.4148 O   0  0  0  0  0  0  0  0  0  0  0  0
   26.0425  -21.3674  -10.9562 N   0  0  0  0  0  0  0  0  0  0  0  0
   25.6746  -20.3693   -9.9359 C   0  0  1  0  0  0  0  0  0  0  0  0
   24.2138  -20.5810   -9.5857 C   0  0  0  0  0  0  0  0  0  0  0  0
   23.3496  -20.2040  -10.7234 C   0  0  0  0  0  0  0  0  0  0  0  0
   22.8764  -18.9707  -11.0779 C   0  0  0  0  0  0  0  0  0  0  0  0
   22.2011  -19.0677  -12.2630 N   0  0  0  0  0  0  0  0  0  0  0  0
   22.2527  -20.3460  -12.6455 C   0  0  0  0  0  0  0  0  0  0  0  0
   22.9377  -21.0247  -11.7283 N   0  0  0  0  0  0  0  0  0  0  0  0
   26.4377  -20.6631   -8.7128 C   0  0  0  0  0  0  0  0  0  0  0  0
   26.3925  -21.8433   -8.2262 O   0  0  0  0  0  0  0  0  0  0  0  0
   27.2239  -19.7528   -8.0177 N   0  0  0  0  0  0  0  0  0  0  0  0
   27.4431  -18.3631   -8.3131 C   0  0  0  0  0  0  0  0  0  0  0  0
   27.5609  -17.7933   -6.8692 C   0  0  0  0  0  0  0  0  0  0  0  0
   28.6278  -18.7664   -6.3784 C   0  0  0  0  0  0  0  0  0  0  0  0
   27.9744  -20.0717   -6.7604 C   0  0  1  0  0  0  0  0  0  0  0  0
   27.0257  -20.4694   -5.7090 C   0  0  0  0  0  0  0  0  0  0  0  0
   27.4467  -21.0349   -4.5196 O   0  0  0  0  0  0  0  0  0  0  0  0
   25.7985  -20.2961   -5.8839 O   0  0  0  0  0  0  0  0  0  0  0  0
  1  2  1  0
  3  2  1  0
  4  5  1  0
  4  3  1  0
  5  1  1  0
  5  6  1  1
  6  7  2  0
  8  6  1  0
  8  9  1  0
  9 16  1  0
  9 10  1  1
 10 11  1  0
 11 12  2  0
 11 15  1  0
 12 13  1  0
 13 14  1  0
 15 14  2  0
 16 17  2  0
 18 16  1  0
 18 22  1  0
 19 18  1  0
 20 19  1  0
 20 21  1  0
 21 22  1  0
 22 23  1  1
 23 25  2  0
 23 24  1  0
M  END
$$$$
