PHP.pdb
     RDKit          3D

 25 27  0  0  1  0  0  0  0  0999 V2000
   25.8354  -24.0319  -16.9871 N   0  0  0  0  0  0  0  0  0  0  0  0
   26.1534  -25.0417  -18.0067 C   0  0  0  0  0  0  0  0  0  0  0  0
   27.3051  -24.4006  -18.7880 C   0  0  0  0  0  0  0  0  0  0  0  0
   27.8143  -23.2783  -17.8724 C   0  0  0  0  0  0  0  0  0  0  0  0
   27.1862  -23.6488  -16.5778 C   0  0  1  0  0  0  0  0  0  0  0  0
   27.1578  -22.5972  -15.5539 C   0  0  0  0  0  0  0  0  0  0  0  0
   28.2491  -22.1970  -15.0148 O   0  0  0  0  0  0  0  0  0  0  0  0
   25.9083  -22.0405  -15.1826 N   0  0  0  0  0  0  0  0  0  0  0  0
   25.8489  -20.8927  -14.2597 C   0  0  1  0  0  0  0  0  0  0  0  0
   25.2279  -19.7281  -15.0075 C   0  0  0  0  0  0  0  0  0  0  0  0
   26.1885  -19.1670  -15.9799 C   0  0  0  0  0  0  0  0  0  0  0  0
   27.2567  -18.3412  -15.7616 C   0  0  0  0  0  0  0  0  0  0  0  0
   27.9352  -18.1580  -16.9345 N   0  0  0  0  0  0  0  0  0  0  0  0
   27.2998  -18.8618  -17.8746 C   0  0  0  0  0  0  0  0  0  0  0  0
   26.2579  -19.4643  -17.3064 N   0  0  0  0  0  0  0  0  0  0  0  0
   24.9160  -21.2281  -13.1724 C   0  0  0  0  0  0  0  0  0  0  0  0
   23.8188  -21.8153  -13.4604 O   0  0  0  0  0  0  0  0  0  0  0  0
   25.1213  -20.9583  -11.8253 N   0  0  0  0  0  0  0  0  0  0  0  0
   26.2477  -20.3086  -11.2125 C   0  0  0  0  0  0  0  0  0  0  0  0
   25.5301  -19.5536  -10.0556 C   0  0  0  0  0  0  0  0  0  0  0  0
   24.7932  -20.7601   -9.4834 C   0  0  0  0  0  0  0  0  0  0  0  0
   24.1369  -21.2750  -10.7406 C   0  0  1  0  0  0  0  0  0  0  0  0
   22.8882  -20.5348  -10.9784 C   0  0  0  0  0  0  0  0  0  0  0  0
   21.6975  -20.8960  -10.3756 O   0  0  0  0  0  0  0  0  0  0  0  0
   22.8904  -19.5469  -11.7471 O   0  0  0  0  0  0  0  0  0  0  0  0
  1  2  1  0
  3  2  1  0
  4  5  1  0
  4  3  1  0
  5  1  1  0
  5  6  1  1
  6  7  2  0
  8  6  1  0
  8  9  1  0
  9 16  1  0
  9 10  1  6
 10 11  1  0
 11 12  2  0
 11 15  1  0
 12 13  1  0
 13 14  1  0
 15 14  2  0
 16 17  2  0
 18 16  1  0
 18 22  1  0
 19 18  1  0
 20 19  1  0
 20 21  1  0
 21 22  1  0
 22 23  1  6
 23 25  2  0
 23 24  1  0
M  END
$$$$
