WLL.pdb
     RDKit          3D

 31 32  0  0  1  0  0  0  0  0999 V2000
   23.4169  -20.2645  -16.1057 N   0  0  0  0  0  0  0  0  0  0  0  0
   23.7176  -20.2142  -14.6871 C   0  0  1  0  0  0  0  0  0  0  0  0
   22.4856  -20.7101  -13.9612 C   0  0  0  0  0  0  0  0  0  0  0  0
   21.3486  -19.7821  -14.0528 C   0  0  0  0  0  0  0  0  0  0  0  0
   20.5493  -19.5537  -15.1528 C   0  0  0  0  0  0  0  0  0  0  0  0
   19.6326  -18.6362  -14.8150 N   0  0  0  0  0  0  0  0  0  0  0  0
   19.7783  -18.2377  -13.5409 C   0  0  0  0  0  0  0  0  0  0  0  0
   19.0928  -17.3341  -12.7571 C   0  0  0  0  0  0  0  0  0  0  0  0
   19.4813  -17.1350  -11.4653 C   0  0  0  0  0  0  0  0  0  0  0  0
   20.5467  -17.8361  -10.9669 C   0  0  0  0  0  0  0  0  0  0  0  0
   21.2208  -18.7268  -11.7424 C   0  0  0  0  0  0  0  0  0  0  0  0
   20.8669  -18.9640  -13.0556 C   0  0  0  0  0  0  0  0  0  0  0  0
   24.8235  -21.1408  -14.3414 C   0  0  0  0  0  0  0  0  0  0  0  0
   24.8412  -22.3393  -14.6962 O   0  0  0  0  0  0  0  0  0  0  0  0
   30.0967  -19.3738  -13.6781 C   0  0  0  0  0  0  0  0  0  0  0  0
   28.5491  -19.4766  -13.7208 C   0  0  1  0  0  0  0  0  0  0  0  0
   28.1395  -18.7861  -14.9757 C   0  0  0  0  0  0  0  0  0  0  0  0
   28.2790  -20.9241  -13.6228 C   0  0  0  0  0  0  0  0  0  0  0  0
   26.9993  -21.4128  -13.0879 C   0  0  2  0  0  0  0  0  0  0  0  0
   25.9009  -20.6397  -13.5774 N   0  0  0  0  0  0  0  0  0  0  0  0
   26.9610  -21.6614  -11.6393 C   0  0  0  0  0  0  0  0  0  0  0  0
   27.6798  -22.5247  -11.0556 O   0  0  0  0  0  0  0  0  0  0  0  0
   28.0552  -19.1774   -6.6068 C   0  0  0  0  0  0  0  0  0  0  0  0
   27.0646  -20.1128   -7.2054 C   0  0  1  0  0  0  0  0  0  0  0  0
   25.6921  -19.9194   -6.5322 C   0  0  0  0  0  0  0  0  0  0  0  0
   26.9287  -20.1831   -8.6638 C   0  0  0  0  0  0  0  0  0  0  0  0
   26.0544  -21.1669   -9.3249 C   0  0  2  0  0  0  0  0  0  0  0  0
   26.0925  -20.9256  -10.8023 N   0  0  0  0  0  0  0  0  0  0  0  0
   24.6479  -21.1788   -8.9487 C   0  0  0  0  0  0  0  0  0  0  0  0
   23.6838  -20.6585   -9.5523 O   0  0  0  0  0  0  0  0  0  0  0  0
   24.2546  -21.8495   -7.7562 O   0  0  0  0  0  0  0  0  0  0  0  0
  2  1  1  6
  2 13  1  0
  2  3  1  0
  3  4  1  0
  4  5  2  0
  6  5  1  0
  7  6  1  0
  8  7  2  0
  9  8  1  0
 10  9  2  0
 10 11  1  0
 11 12  2  0
 12  7  1  0
 12  4  1  0
 13 14  2  0
 16 15  1  6
 17 16  1  0
 18 16  1  0
 19 18  1  1
 20 19  1  0
 20 13  1  0
 21 19  1  0
 22 21  2  0
 24 23  1  6
 24 26  1  0
 24 25  1  0
 27 26  1  1
 27 29  1  0
 27 28  1  0
 28 21  1  0
 29 31  1  0
 30 29  2  0
M  END
$$$$
