WLL.pdb
     RDKit          3D

 31 32  0  0  1  0  0  0  0  0999 V2000
   26.0959  -17.0667  -15.0139 N   0  0  0  0  0  0  0  0  0  0  0  0
   25.6516  -18.3735  -14.5665 C   0  0  1  0  0  0  0  0  0  0  0  0
   25.3803  -19.1924  -15.8101 C   0  0  0  0  0  0  0  0  0  0  0  0
   24.2234  -18.7093  -16.5787 C   0  0  0  0  0  0  0  0  0  0  0  0
   24.1297  -18.5848  -17.9487 C   0  0  0  0  0  0  0  0  0  0  0  0
   22.9107  -18.1092  -18.2386 N   0  0  0  0  0  0  0  0  0  0  0  0
   22.1817  -17.9084  -17.1289 C   0  0  0  0  0  0  0  0  0  0  0  0
   20.9010  -17.4423  -16.9201 C   0  0  0  0  0  0  0  0  0  0  0  0
   20.4205  -17.3454  -15.6477 C   0  0  0  0  0  0  0  0  0  0  0  0
   21.2180  -17.7128  -14.5970 C   0  0  0  0  0  0  0  0  0  0  0  0
   22.4807  -18.1721  -14.8060 C   0  0  0  0  0  0  0  0  0  0  0  0
   23.0132  -18.2887  -16.0745 C   0  0  0  0  0  0  0  0  0  0  0  0
   26.7216  -19.0739  -13.8145 C   0  0  0  0  0  0  0  0  0  0  0  0
   27.8911  -19.1844  -14.2419 O   0  0  0  0  0  0  0  0  0  0  0  0
   25.1615  -20.9503   -8.6856 C   0  0  0  0  0  0  0  0  0  0  0  0
   25.4768  -20.2378  -10.0274 C   0  0  1  0  0  0  0  0  0  0  0  0
   25.8736  -18.8506   -9.6570 C   0  0  0  0  0  0  0  0  0  0  0  0
   26.5012  -21.0916  -10.6593 C   0  0  0  0  0  0  0  0  0  0  0  0
   26.8827  -20.8884  -12.0649 C   0  0  2  0  0  0  0  0  0  0  0  0
   26.3975  -19.6384  -12.5608 N   0  0  0  0  0  0  0  0  0  0  0  0
   26.6454  -22.0254  -12.9663 C   0  0  0  0  0  0  0  0  0  0  0  0
   26.9546  -23.2205  -12.6857 O   0  0  0  0  0  0  0  0  0  0  0  0
   21.8482  -23.3258  -14.8361 C   0  0  0  0  0  0  0  0  0  0  0  0
   23.2848  -23.3404  -14.4482 C   0  0  1  0  0  0  0  0  0  0  0  0
   23.6254  -24.6761  -13.7597 C   0  0  0  0  0  0  0  0  0  0  0  0
   24.3038  -22.9873  -15.4419 C   0  0  0  0  0  0  0  0  0  0  0  0
   25.7428  -22.9930  -15.1278 C   0  0  2  0  0  0  0  0  0  0  0  0
   26.0418  -21.8330  -14.2293 N   0  0  0  0  0  0  0  0  0  0  0  0
   26.6761  -22.8988  -16.2414 C   0  0  0  0  0  0  0  0  0  0  0  0
   27.5144  -21.9992  -16.4709 O   0  0  0  0  0  0  0  0  0  0  0  0
   26.6867  -23.9266  -17.2262 O   0  0  0  0  0  0  0  0  0  0  0  0
  2  1  1  6
  2 13  1  0
  2  3  1  0
  3  4  1  0
  4  5  2  0
  6  5  1  0
  7  6  1  0
  8  7  2  0
  9  8  1  0
 10  9  2  0
 10 11  1  0
 11 12  2  0
 12  7  1  0
 12  4  1  0
 13 14  2  0
 16 15  1  1
 17 16  1  0
 18 16  1  0
 19 18  1  1
 20 19  1  0
 20 13  1  0
 21 19  1  0
 22 21  2  0
 24 23  1  6
 24 26  1  0
 24 25  1  0
 27 26  1  6
 27 29  1  0
 27 28  1  0
 28 21  1  0
 29 31  1  0
 30 29  2  0
M  END
$$$$
