WLL.pdb
     RDKit          3D

 31 32  0  0  1  0  0  0  0  0999 V2000
   22.4960  -20.4140  -15.4953 N   0  0  0  0  0  0  0  0  0  0  0  0
   23.2780  -19.8727  -14.3996 C   0  0  1  0  0  0  0  0  0  0  0  0
   22.5693  -20.2652  -13.1211 C   0  0  0  0  0  0  0  0  0  0  0  0
   21.2713  -19.5955  -12.9513 C   0  0  0  0  0  0  0  0  0  0  0  0
   20.5405  -18.9423  -13.9211 C   0  0  0  0  0  0  0  0  0  0  0  0
   19.4215  -18.4742  -13.3509 N   0  0  0  0  0  0  0  0  0  0  0  0
   19.3662  -18.7818  -12.0450 C   0  0  0  0  0  0  0  0  0  0  0  0
   18.4362  -18.5252  -11.0600 C   0  0  0  0  0  0  0  0  0  0  0  0
   18.6585  -18.9759   -9.7924 C   0  0  0  0  0  0  0  0  0  0  0  0
   19.8024  -19.6764   -9.5178 C   0  0  0  0  0  0  0  0  0  0  0  0
   20.7179  -19.9280  -10.4914 C   0  0  0  0  0  0  0  0  0  0  0  0
   20.5393  -19.4934  -11.7896 C   0  0  0  0  0  0  0  0  0  0  0  0
   24.6273  -20.4875  -14.3503 C   0  0  0  0  0  0  0  0  0  0  0  0
   24.8466  -21.6717  -14.6854 O   0  0  0  0  0  0  0  0  0  0  0  0
   28.8508  -17.3786  -15.5753 C   0  0  0  0  0  0  0  0  0  0  0  0
   27.6077  -18.2835  -15.3667 C   0  0  1  0  0  0  0  0  0  0  0  0
   27.2948  -18.8448  -16.7106 C   0  0  0  0  0  0  0  0  0  0  0  0
   28.0217  -19.2314  -14.3142 C   0  0  0  0  0  0  0  0  0  0  0  0
   27.0474  -20.1523  -13.7100 C   0  0  2  0  0  0  0  0  0  0  0  0
   25.7074  -19.6938  -13.9043 N   0  0  0  0  0  0  0  0  0  0  0  0
   27.3404  -20.5877  -12.3365 C   0  0  0  0  0  0  0  0  0  0  0  0
   28.3995  -21.1961  -12.0035 O   0  0  0  0  0  0  0  0  0  0  0  0
   28.3735  -20.6531   -7.0949 C   0  0  0  0  0  0  0  0  0  0  0  0
   27.1052  -20.0214   -7.5496 C   0  0  1  0  0  0  0  0  0  0  0  0
   26.8471  -18.7325   -6.7455 C   0  0  0  0  0  0  0  0  0  0  0  0
   26.8828  -19.7997   -8.9821 C   0  0  0  0  0  0  0  0  0  0  0  0
   26.6439  -20.9090   -9.9210 C   0  0  2  0  0  0  0  0  0  0  0  0
   26.4251  -20.3404  -11.2890 N   0  0  0  0  0  0  0  0  0  0  0  0
   25.5109  -21.7841   -9.6560 C   0  0  0  0  0  0  0  0  0  0  0  0
   25.3325  -22.5388   -8.6746 O   0  0  0  0  0  0  0  0  0  0  0  0
   24.4387  -21.8330  -10.5912 O   0  0  0  0  0  0  0  0  0  0  0  0
  2  1  1  6
  2 13  1  0
  2  3  1  0
  3  4  1  0
  4  5  2  0
  6  5  1  0
  7  6  1  0
  8  7  2  0
  9  8  1  0
 10  9  2  0
 10 11  1  0
 11 12  2  0
 12  7  1  0
 12  4  1  0
 13 14  2  0
 16 15  1  6
 17 16  1  0
 18 16  1  0
 19 18  1  1
 20 19  1  0
 20 13  1  0
 21 19  1  0
 22 21  2  0
 24 23  1  6
 24 26  1  0
 24 25  1  0
 27 26  1  1
 27 29  1  0
 27 28  1  0
 28 21  1  0
 29 31  1  0
 30 29  2  0
M  END
$$$$
