GFG.pdb
     RDKit          3D

 20 20  0  0  1  0  0  0  0  0999 V2000
   30.9392  -21.4067  -10.4578 N   0  0  0  0  0  0  0  0  0  0  0  0
   29.7303  -20.7171  -10.7004 C   0  0  0  0  0  0  0  0  0  0  0  0
   28.6506  -21.0706   -9.7554 C   0  0  0  0  0  0  0  0  0  0  0  0
   28.5299  -22.2713   -9.4252 O   0  0  0  0  0  0  0  0  0  0  0  0
   27.7582  -20.1165   -9.2154 N   0  0  0  0  0  0  0  0  0  0  0  0
   26.6664  -20.4121   -8.3205 C   0  0  1  0  0  0  0  0  0  0  0  0
   26.5396  -19.4572   -7.1923 C   0  0  0  0  0  0  0  0  0  0  0  0
   27.6042  -19.6152   -6.1685 C   0  0  0  0  0  0  0  0  0  0  0  0
   27.6100  -20.7996   -5.4631 C   0  0  0  0  0  0  0  0  0  0  0  0
   28.5459  -21.0569   -4.4931 C   0  0  0  0  0  0  0  0  0  0  0  0
   29.5067  -20.1064   -4.2156 C   0  0  0  0  0  0  0  0  0  0  0  0
   29.4871  -18.9212   -4.9336 C   0  0  0  0  0  0  0  0  0  0  0  0
   28.5478  -18.6588   -5.9095 C   0  0  0  0  0  0  0  0  0  0  0  0
   25.3690  -20.4901   -9.0837 C   0  0  0  0  0  0  0  0  0  0  0  0
   24.2803  -20.7481   -8.5303 O   0  0  0  0  0  0  0  0  0  0  0  0
   25.3688  -20.2636  -10.4864 N   0  0  0  0  0  0  0  0  0  0  0  0
   24.1295  -19.9901  -11.2173 C   0  0  0  0  0  0  0  0  0  0  0  0
   23.7956  -21.1557  -12.0572 C   0  0  0  0  0  0  0  0  0  0  0  0
   22.6454  -21.1379  -12.8558 O   0  0  0  0  0  0  0  0  0  0  0  0
   24.5044  -22.1895  -12.0963 O   0  0  0  0  0  0  0  0  0  0  0  0
  2  1  1  0
  3  2  1  0
  4  3  2  0
  5  3  1  0
  6  5  1  0
  6  7  1  1
  8  7  1  0
  9  8  2  0
 10  9  1  0
 11 12  1  0
 11 10  2  0
 12 13  2  0
 13  8  1  0
 14 15  2  0
 14  6  1  0
 16 14  1  0
 17 18  1  0
 17 16  1  0
 18 19  1  0
 20 18  2  0
M  END
$$$$
