GFG.pdb
     RDKit          3D

 20 20  0  0  1  0  0  0  0  0999 V2000
   28.8423  -18.6841  -14.0862 N   0  0  0  0  0  0  0  0  0  0  0  0
   27.8952  -18.4808  -13.0579 C   0  0  0  0  0  0  0  0  0  0  0  0
   27.3563  -19.7370  -12.4965 C   0  0  0  0  0  0  0  0  0  0  0  0
   27.6904  -20.8133  -13.0400 O   0  0  0  0  0  0  0  0  0  0  0  0
   26.4878  -19.7710  -11.3817 N   0  0  0  0  0  0  0  0  0  0  0  0
   25.8262  -20.9497  -10.8786 C   0  0  1  0  0  0  0  0  0  0  0  0
   25.6464  -20.9548   -9.4060 C   0  0  0  0  0  0  0  0  0  0  0  0
   26.8653  -20.5399   -8.6655 C   0  0  0  0  0  0  0  0  0  0  0  0
   27.9928  -21.3107   -8.8532 C   0  0  0  0  0  0  0  0  0  0  0  0
   29.1765  -21.0233   -8.2214 C   0  0  0  0  0  0  0  0  0  0  0  0
   29.2415  -19.9348   -7.3760 C   0  0  0  0  0  0  0  0  0  0  0  0
   28.0994  -19.1702   -7.1982 C   0  0  0  0  0  0  0  0  0  0  0  0
   26.9075  -19.4560   -7.8315 C   0  0  0  0  0  0  0  0  0  0  0  0
   24.4977  -21.1389  -11.5650 C   0  0  0  0  0  0  0  0  0  0  0  0
   23.6771  -20.2088  -11.7052 O   0  0  0  0  0  0  0  0  0  0  0  0
   24.1521  -22.4183  -12.0776 N   0  0  0  0  0  0  0  0  0  0  0  0
   23.9959  -22.6501  -13.5152 C   0  0  0  0  0  0  0  0  0  0  0  0
   22.7375  -22.0306  -13.9715 C   0  0  0  0  0  0  0  0  0  0  0  0
   21.5278  -22.7243  -13.8432 O   0  0  0  0  0  0  0  0  0  0  0  0
   22.6904  -20.8860  -14.4817 O   0  0  0  0  0  0  0  0  0  0  0  0
  2  1  1  0
  3  2  1  0
  4  3  2  0
  5  3  1  0
  6  5  1  0
  6  7  1  1
  8  7  1  0
  9  8  2  0
 10  9  1  0
 11 12  1  0
 11 10  2  0
 12 13  2  0
 13  8  1  0
 14 15  2  0
 14  6  1  0
 16 14  1  0
 17 18  1  0
 17 16  1  0
 18 19  1  0
 20 18  2  0
M  END
$$$$
