GFG.pdb
     RDKit          3D

 20 20  0  0  1  0  0  0  0  0999 V2000
   26.3478  -12.0033  -20.3248 N   0  0  0  0  0  0  0  0  0  0  0  0
   25.4818  -10.8948  -20.1950 C   0  0  0  0  0  0  0  0  0  0  0  0
   24.8717  -10.7777  -18.8542 C   0  0  0  0  0  0  0  0  0  0  0  0
   24.0555  -11.6581  -18.5022 O   0  0  0  0  0  0  0  0  0  0  0  0
   25.1704   -9.7219  -17.9629 N   0  0  0  0  0  0  0  0  0  0  0  0
   24.6872   -9.6154  -16.6082 C   0  0  1  0  0  0  0  0  0  0  0  0
   25.7641   -9.5595  -15.5893 C   0  0  0  0  0  0  0  0  0  0  0  0
   26.8098  -10.5962  -15.7846 C   0  0  0  0  0  0  0  0  0  0  0  0
   26.5774  -11.8236  -15.2015 C   0  0  0  0  0  0  0  0  0  0  0  0
   27.4729  -12.8571  -15.3148 C   0  0  0  0  0  0  0  0  0  0  0  0
   28.6366  -12.6643  -16.0306 C   0  0  0  0  0  0  0  0  0  0  0  0
   28.8551  -11.4247  -16.6106 C   0  0  0  0  0  0  0  0  0  0  0  0
   27.9572  -10.3832  -16.4989 C   0  0  0  0  0  0  0  0  0  0  0  0
   23.7767   -8.4223  -16.4681 C   0  0  0  0  0  0  0  0  0  0  0  0
   24.1903   -7.2486  -16.5646 O   0  0  0  0  0  0  0  0  0  0  0  0
   22.3930   -8.6251  -16.2171 N   0  0  0  0  0  0  0  0  0  0  0  0
   21.4401   -7.5132  -16.2396 C   0  0  0  0  0  0  0  0  0  0  0  0
   21.2533   -7.0081  -14.8665 C   0  0  0  0  0  0  0  0  0  0  0  0
   22.0119   -7.5379  -13.8153 O   0  0  0  0  0  0  0  0  0  0  0  0
   20.4302   -6.1059  -14.5812 O   0  0  0  0  0  0  0  0  0  0  0  0
  2  1  1  0
  3  2  1  0
  4  3  2  0
  5  3  1  0
  6  5  1  0
  6  7  1  1
  8  7  1  0
  9  8  2  0
 10  9  1  0
 11 12  1  0
 11 10  2  0
 12 13  2  0
 13  8  1  0
 14 15  2  0
 14  6  1  0
 16 14  1  0
 17 18  1  0
 17 16  1  0
 18 19  1  0
 20 18  2  0
M  END
$$$$
