GFG.pdb
     RDKit          3D

 20 20  0  0  1  0  0  0  0  0999 V2000
   25.3030   -8.7751  -20.9630 N   0  0  0  0  0  0  0  0  0  0  0  0
   24.4917   -9.7889  -20.4066 C   0  0  0  0  0  0  0  0  0  0  0  0
   24.0948   -9.5245  -19.0080 C   0  0  0  0  0  0  0  0  0  0  0  0
   23.4054  -10.3877  -18.4206 O   0  0  0  0  0  0  0  0  0  0  0  0
   24.4590   -8.3478  -18.3145 N   0  0  0  0  0  0  0  0  0  0  0  0
   24.1762   -8.0796  -16.9258 C   0  0  1  0  0  0  0  0  0  0  0  0
   25.3872   -7.8516  -16.0997 C   0  0  0  0  0  0  0  0  0  0  0  0
   26.3449   -8.9863  -16.1382 C   0  0  0  0  0  0  0  0  0  0  0  0
   26.0615  -10.0600  -15.3212 C   0  0  0  0  0  0  0  0  0  0  0  0
   26.8745  -11.1643  -15.2733 C   0  0  0  0  0  0  0  0  0  0  0  0
   28.0054  -11.2026  -16.0628 C   0  0  0  0  0  0  0  0  0  0  0  0
   28.2760  -10.1153  -16.8784 C   0  0  0  0  0  0  0  0  0  0  0  0
   27.4611   -9.0033  -16.9293 C   0  0  0  0  0  0  0  0  0  0  0  0
   23.2327   -6.9110  -16.7987 C   0  0  0  0  0  0  0  0  0  0  0  0
   23.5731   -5.7418  -17.0730 O   0  0  0  0  0  0  0  0  0  0  0  0
   21.9023   -7.1327  -16.3515 N   0  0  0  0  0  0  0  0  0  0  0  0
   20.9221   -6.0460  -16.2975 C   0  0  0  0  0  0  0  0  0  0  0  0
   19.6353   -6.5786  -15.8117 C   0  0  0  0  0  0  0  0  0  0  0  0
   18.8063   -5.7852  -15.0091 O   0  0  0  0  0  0  0  0  0  0  0  0
   19.2322   -7.7342  -16.0856 O   0  0  0  0  0  0  0  0  0  0  0  0
  2  1  1  0
  3  2  1  0
  4  3  2  0
  5  3  1  0
  6  5  1  0
  6  7  1  1
  8  7  1  0
  9  8  2  0
 10  9  1  0
 11 12  1  0
 11 10  2  0
 12 13  2  0
 13  8  1  0
 14 15  2  0
 14  6  1  0
 16 14  1  0
 17 18  1  0
 17 16  1  0
 18 19  1  0
 20 18  2  0
M  END
$$$$
