GFG.pdb
     RDKit          3D

 20 20  0  0  1  0  0  0  0  0999 V2000
   21.1955  -18.2155  -14.6210 N   0  0  0  0  0  0  0  0  0  0  0  0
   22.0585  -17.1513  -14.2769 C   0  0  0  0  0  0  0  0  0  0  0  0
   23.2146  -17.0127  -15.1867 C   0  0  0  0  0  0  0  0  0  0  0  0
   23.1251  -17.5138  -16.3296 O   0  0  0  0  0  0  0  0  0  0  0  0
   24.4051  -16.3437  -14.8212 N   0  0  0  0  0  0  0  0  0  0  0  0
   25.5204  -16.0911  -15.7001 C   0  0  1  0  0  0  0  0  0  0  0  0
   26.0033  -14.6887  -15.6694 C   0  0  0  0  0  0  0  0  0  0  0  0
   25.1167  -13.7476  -16.4006 C   0  0  0  0  0  0  0  0  0  0  0  0
   24.4101  -12.8453  -15.6344 C   0  0  0  0  0  0  0  0  0  0  0  0
   23.5604  -11.9282  -16.2001 C   0  0  0  0  0  0  0  0  0  0  0  0
   23.4084  -11.9075  -17.5713 C   0  0  0  0  0  0  0  0  0  0  0  0
   24.1258  -12.8211  -18.3272 C   0  0  0  0  0  0  0  0  0  0  0  0
   24.9810  -13.7446  -17.7621 C   0  0  0  0  0  0  0  0  0  0  0  0
   26.6532  -17.0376  -15.3954 C   0  0  0  0  0  0  0  0  0  0  0  0
   27.7176  -17.0410  -16.0475 O   0  0  0  0  0  0  0  0  0  0  0  0
   26.5197  -17.9666  -14.3286 N   0  0  0  0  0  0  0  0  0  0  0  0
   27.6231  -18.8465  -13.9374 C   0  0  0  0  0  0  0  0  0  0  0  0
   27.4722  -20.1451  -14.6203 C   0  0  0  0  0  0  0  0  0  0  0  0
   28.3806  -21.1802  -14.3668 O   0  0  0  0  0  0  0  0  0  0  0  0
   26.5501  -20.3792  -15.4373 O   0  0  0  0  0  0  0  0  0  0  0  0
  2  1  1  0
  3  2  1  0
  4  3  2  0
  5  3  1  0
  6  5  1  0
  6  7  1  1
  8  7  1  0
  9  8  2  0
 10  9  1  0
 11 12  1  0
 11 10  2  0
 12 13  2  0
 13  8  1  0
 14 15  2  0
 14  6  1  0
 16 14  1  0
 17 18  1  0
 17 16  1  0
 18 19  1  0
 20 18  2  0
M  END
$$$$
