GFG.pdb
     RDKit          3D

 20 20  0  0  1  0  0  0  0  0999 V2000
   28.7096  -19.2140  -15.1827 N   0  0  0  0  0  0  0  0  0  0  0  0
   28.3783  -19.1351  -13.8117 C   0  0  0  0  0  0  0  0  0  0  0  0
   27.4247  -20.1761  -13.3752 C   0  0  0  0  0  0  0  0  0  0  0  0
   26.9136  -20.9081  -14.2517 O   0  0  0  0  0  0  0  0  0  0  0  0
   27.0707  -20.3760  -12.0213 N   0  0  0  0  0  0  0  0  0  0  0  0
   26.1162  -21.3471  -11.5459 C   0  0  1  0  0  0  0  0  0  0  0  0
   26.5361  -22.0442  -10.3055 C   0  0  0  0  0  0  0  0  0  0  0  0
   27.0213  -21.1194   -9.2492 C   0  0  0  0  0  0  0  0  0  0  0  0
   28.3693  -21.1631   -8.9634 C   0  0  0  0  0  0  0  0  0  0  0  0
   28.9304  -20.3550   -8.0069 C   0  0  0  0  0  0  0  0  0  0  0  0
   28.1258  -19.4754   -7.3122 C   0  0  0  0  0  0  0  0  0  0  0  0
   26.7730  -19.4437   -7.6115 C   0  0  0  0  0  0  0  0  0  0  0  0
   26.2052  -20.2546   -8.5724 C   0  0  0  0  0  0  0  0  0  0  0  0
   24.7672  -20.7041  -11.3494 C   0  0  0  0  0  0  0  0  0  0  0  0
   24.6367  -19.5079  -11.0174 O   0  0  0  0  0  0  0  0  0  0  0  0
   23.5902  -21.4755  -11.5461 N   0  0  0  0  0  0  0  0  0  0  0  0
   22.2581  -20.8716  -11.4721 C   0  0  0  0  0  0  0  0  0  0  0  0
   21.7948  -20.5526  -12.8357 C   0  0  0  0  0  0  0  0  0  0  0  0
   20.4506  -20.2321  -13.0623 O   0  0  0  0  0  0  0  0  0  0  0  0
   22.5594  -20.5528  -13.8297 O   0  0  0  0  0  0  0  0  0  0  0  0
  2  1  1  0
  3  2  1  0
  4  3  2  0
  5  3  1  0
  6  5  1  0
  6  7  1  1
  8  7  1  0
  9  8  2  0
 10  9  1  0
 11 12  1  0
 11 10  2  0
 12 13  2  0
 13  8  1  0
 14 15  2  0
 14  6  1  0
 16 14  1  0
 17 18  1  0
 17 16  1  0
 18 19  1  0
 20 18  2  0
M  END
$$$$
