GFG.pdb
     RDKit          3D

 20 20  0  0  1  0  0  0  0  0999 V2000
   22.3567  -21.8203   -5.8867 N   0  0  0  0  0  0  0  0  0  0  0  0
   23.6421  -22.2389   -6.2970 C   0  0  0  0  0  0  0  0  0  0  0  0
   24.3526  -21.2382   -7.1202 C   0  0  0  0  0  0  0  0  0  0  0  0
   23.6797  -20.3178   -7.6352 O   0  0  0  0  0  0  0  0  0  0  0  0
   25.7473  -21.2790   -7.3466 N   0  0  0  0  0  0  0  0  0  0  0  0
   26.4733  -20.3957   -8.2258 C   0  0  1  0  0  0  0  0  0  0  0  0
   27.8878  -20.1853   -7.8313 C   0  0  0  0  0  0  0  0  0  0  0  0
   28.0408  -19.6994   -6.4359 C   0  0  0  0  0  0  0  0  0  0  0  0
   28.5284  -20.6051   -5.5180 C   0  0  0  0  0  0  0  0  0  0  0  0
   28.7116  -20.2689   -4.2003 C   0  0  0  0  0  0  0  0  0  0  0  0
   28.4002  -18.9916   -3.7818 C   0  0  0  0  0  0  0  0  0  0  0  0
   27.9111  -18.0932   -4.7169 C   0  0  0  0  0  0  0  0  0  0  0  0
   27.7256  -18.4275   -6.0425 C   0  0  0  0  0  0  0  0  0  0  0  0
   26.3984  -20.8922   -9.6470 C   0  0  0  0  0  0  0  0  0  0  0  0
   27.1242  -21.8135  -10.0743 O   0  0  0  0  0  0  0  0  0  0  0  0
   25.4717  -20.2994  -10.5463 N   0  0  0  0  0  0  0  0  0  0  0  0
   25.4093  -20.6980  -11.9541 C   0  0  0  0  0  0  0  0  0  0  0  0
   24.3649  -19.9095  -12.6346 C   0  0  0  0  0  0  0  0  0  0  0  0
   24.1949  -20.0193  -14.0202 O   0  0  0  0  0  0  0  0  0  0  0  0
   23.6004  -19.1252  -12.0238 O   0  0  0  0  0  0  0  0  0  0  0  0
  2  1  1  0
  3  2  1  0
  4  3  2  0
  5  3  1  0
  6  5  1  0
  6  7  1  1
  8  7  1  0
  9  8  2  0
 10  9  1  0
 11 12  1  0
 11 10  2  0
 12 13  2  0
 13  8  1  0
 14 15  2  0
 14  6  1  0
 16 14  1  0
 17 18  1  0
 17 16  1  0
 18 19  1  0
 20 18  2  0
M  END
$$$$
