GFG.pdb
     RDKit          3D

 20 20  0  0  1  0  0  0  0  0999 V2000
   25.1710  -24.2115  -15.0608 N   0  0  0  0  0  0  0  0  0  0  0  0
   25.0031  -23.1794  -14.1108 C   0  0  0  0  0  0  0  0  0  0  0  0
   25.9198  -22.0381  -14.3128 C   0  0  0  0  0  0  0  0  0  0  0  0
   26.6744  -22.0612  -15.3104 O   0  0  0  0  0  0  0  0  0  0  0  0
   25.9775  -20.9331  -13.4331 N   0  0  0  0  0  0  0  0  0  0  0  0
   25.2415  -20.8135  -12.1985 C   0  0  1  0  0  0  0  0  0  0  0  0
   25.8812  -19.9194  -11.2024 C   0  0  0  0  0  0  0  0  0  0  0  0
   27.1260  -20.4847  -10.6217 C   0  0  0  0  0  0  0  0  0  0  0  0
   27.1827  -20.5669   -9.2467 C   0  0  0  0  0  0  0  0  0  0  0  0
   28.2820  -21.0718   -8.5990 C   0  0  0  0  0  0  0  0  0  0  0  0
   29.3593  -21.5090   -9.3419 C   0  0  0  0  0  0  0  0  0  0  0  0
   29.2865  -21.4196  -10.7230 C   0  0  0  0  0  0  0  0  0  0  0  0
   28.1830  -20.9126  -11.3778 C   0  0  0  0  0  0  0  0  0  0  0  0
   23.8295  -20.3621  -12.4711 C   0  0  0  0  0  0  0  0  0  0  0  0
   23.5617  -19.4504  -13.2806 O   0  0  0  0  0  0  0  0  0  0  0  0
   22.7518  -20.9883  -11.7890 N   0  0  0  0  0  0  0  0  0  0  0  0
   21.3610  -20.6037  -12.0390 C   0  0  0  0  0  0  0  0  0  0  0  0
   20.8509  -21.3592  -13.1986 C   0  0  0  0  0  0  0  0  0  0  0  0
   19.8460  -22.3185  -13.0233 O   0  0  0  0  0  0  0  0  0  0  0  0
   21.2794  -21.1846  -14.3642 O   0  0  0  0  0  0  0  0  0  0  0  0
  2  1  1  0
  3  2  1  0
  4  3  2  0
  5  3  1  0
  6  5  1  0
  6  7  1  1
  8  7  1  0
  9  8  2  0
 10  9  1  0
 11 12  1  0
 11 10  2  0
 12 13  2  0
 13  8  1  0
 14 15  2  0
 14  6  1  0
 16 14  1  0
 17 18  1  0
 17 16  1  0
 18 19  1  0
 20 18  2  0
M  END
$$$$
