QSC.pdb
     RDKit          3D

 22 21  0  0  1  0  0  0  0  0999 V2000
   18.5381  -15.2222  -15.8708 N   0  0  0  0  0  0  0  0  0  0  0  0
   17.5675  -14.7391  -16.7712 C   0  0  0  0  0  0  0  0  0  0  0  0
   16.7607  -15.5172  -17.3264 O   0  0  0  0  0  0  0  0  0  0  0  0
   17.4888  -13.3086  -17.0721 C   0  0  0  0  0  0  0  0  0  0  0  0
   18.5533  -12.5027  -16.3513 C   0  0  0  0  0  0  0  0  0  0  0  0
   18.4982  -11.0660  -16.8599 C   0  0  2  0  0  0  0  0  0  0  0  0
   18.7698  -11.0629  -18.2687 N   0  0  0  0  0  0  0  0  0  0  0  0
   19.5436  -10.2801  -16.1338 C   0  0  0  0  0  0  0  0  0  0  0  0
   19.5311  -10.2060  -14.8793 O   0  0  0  0  0  0  0  0  0  0  0  0
   22.0853   -7.8055  -18.3165 O   0  0  0  0  0  0  0  0  0  0  0  0
   22.6543   -8.4233  -17.2263 C   0  0  0  0  0  0  0  0  0  0  0  0
   21.6046   -8.8828  -16.2222 C   0  0  2  0  0  0  0  0  0  0  0  0
   20.5505   -9.6180  -16.8706 N   0  0  0  0  0  0  0  0  0  0  0  0
   21.0322   -7.6935  -15.5450 C   0  0  0  0  0  0  0  0  0  0  0  0
   19.9904   -7.1406  -16.0155 O   0  0  0  0  0  0  0  0  0  0  0  0
   21.6524   -7.1903  -14.3853 N   0  0  0  0  0  0  0  0  0  0  0  0
   21.1405   -5.9983  -13.7431 C   0  0  1  0  0  0  0  0  0  0  0  0
   21.2120   -6.2510  -12.2447 C   0  0  0  0  0  0  0  0  0  0  0  0
   20.1048   -7.5891  -11.7623 S   0  0  0  0  0  0  0  0  0  0  0  0
   21.9625   -4.8419  -14.1418 C   0  0  0  0  0  0  0  0  0  0  0  0
   22.9899   -5.0058  -14.8499 O   0  0  0  0  0  0  0  0  0  0  0  0
   21.6647   -3.5373  -13.7728 O   0  0  0  0  0  0  0  0  0  0  0  0
  2  1  1  0
  2  3  2  0
  4  5  1  0
  4  2  1  0
  6  8  1  0
  6  5  1  0
  6  7  1  6
  8 13  1  0
  9  8  2  0
 10 11  1  0
 12 11  1  6
 12 14  1  0
 13 12  1  0
 14 15  2  0
 14 16  1  0
 16 17  1  0
 17 18  1  1
 17 20  1  0
 19 18  1  0
 20 22  1  0
 21 20  2  0
M  END
$$$$
