QSC.pdb
     RDKit          3D

 22 21  0  0  1  0  0  0  0  0999 V2000
   28.1106  -18.9259  -17.3481 N   0  0  0  0  0  0  0  0  0  0  0  0
   28.0628  -20.2022  -16.7524 C   0  0  0  0  0  0  0  0  0  0  0  0
   29.0003  -21.0169  -16.9003 O   0  0  0  0  0  0  0  0  0  0  0  0
   26.9065  -20.5961  -15.9457 C   0  0  0  0  0  0  0  0  0  0  0  0
   25.8968  -19.4745  -15.7892 C   0  0  0  0  0  0  0  0  0  0  0  0
   26.3442  -18.5790  -14.6386 C   0  0  2  0  0  0  0  0  0  0  0  0
   26.0296  -19.2275  -13.3980 N   0  0  0  0  0  0  0  0  0  0  0  0
   25.5997  -17.2859  -14.7451 C   0  0  0  0  0  0  0  0  0  0  0  0
   24.4532  -17.1655  -14.2444 O   0  0  0  0  0  0  0  0  0  0  0  0
   27.4598  -13.5926  -14.7921 O   0  0  0  0  0  0  0  0  0  0  0  0
   26.5690  -13.8120  -15.8178 C   0  0  0  0  0  0  0  0  0  0  0  0
   25.5634  -14.9033  -15.4728 C   0  0  2  0  0  0  0  0  0  0  0  0
   26.1961  -16.1950  -15.4153 N   0  0  0  0  0  0  0  0  0  0  0  0
   24.4983  -14.9212  -16.5052 C   0  0  0  0  0  0  0  0  0  0  0  0
   24.6651  -15.5903  -17.5714 O   0  0  0  0  0  0  0  0  0  0  0  0
   23.3119  -14.1940  -16.2904 N   0  0  0  0  0  0  0  0  0  0  0  0
   22.2174  -14.2888  -17.2329 C   0  0  1  0  0  0  0  0  0  0  0  0
   20.9563  -14.5031  -16.4096 C   0  0  0  0  0  0  0  0  0  0  0  0
   20.8891  -13.3554  -15.0214 S   0  0  0  0  0  0  0  0  0  0  0  0
   22.1493  -13.0467  -18.0231 C   0  0  0  0  0  0  0  0  0  0  0  0
   22.8842  -12.0671  -17.7328 O   0  0  0  0  0  0  0  0  0  0  0  0
   21.2957  -12.8829  -19.1054 O   0  0  0  0  0  0  0  0  0  0  0  0
  2  1  1  0
  2  3  2  0
  4  5  1  0
  4  2  1  0
  6  8  1  0
  6  5  1  0
  6  7  1  1
  8 13  1  0
  9  8  2  0
 10 11  1  0
 12 11  1  6
 12 14  1  0
 13 12  1  0
 14 15  2  0
 14 16  1  0
 16 17  1  0
 17 18  1  1
 17 20  1  0
 19 18  1  0
 20 22  1  0
 21 20  2  0
M  END
$$$$
