QSC.pdb
     RDKit          3D

 22 21  0  0  1  0  0  0  0  0999 V2000
   27.1313  -18.1947  -17.9194 N   0  0  0  0  0  0  0  0  0  0  0  0
   28.2910  -17.8821  -17.1822 C   0  0  0  0  0  0  0  0  0  0  0  0
   29.1937  -17.1696  -17.6742 O   0  0  0  0  0  0  0  0  0  0  0  0
   28.4574  -18.3905  -15.8196 C   0  0  0  0  0  0  0  0  0  0  0  0
   27.2202  -19.1060  -15.3103 C   0  0  0  0  0  0  0  0  0  0  0  0
   27.6536  -20.4139  -14.6563 C   0  0  2  0  0  0  0  0  0  0  0  0
   28.1722  -21.2881  -15.6688 N   0  0  0  0  0  0  0  0  0  0  0  0
   26.4504  -21.0287  -14.0144 C   0  0  0  0  0  0  0  0  0  0  0  0
   25.6337  -21.6975  -14.6967 O   0  0  0  0  0  0  0  0  0  0  0  0
   25.4596  -19.9660  -10.0495 O   0  0  0  0  0  0  0  0  0  0  0  0
   25.1747  -21.2475  -10.4623 C   0  0  0  0  0  0  0  0  0  0  0  0
   25.0495  -21.3411  -11.9779 C   0  0  2  0  0  0  0  0  0  0  0  0
   26.2363  -20.8523  -12.6295 N   0  0  0  0  0  0  0  0  0  0  0  0
   23.8807  -20.5391  -12.4154 C   0  0  0  0  0  0  0  0  0  0  0  0
   23.9756  -19.2751  -12.4895 O   0  0  0  0  0  0  0  0  0  0  0  0
   22.6765  -21.1907  -12.7441 N   0  0  0  0  0  0  0  0  0  0  0  0
   21.5223  -20.4232  -13.1615 C   0  0  1  0  0  0  0  0  0  0  0  0
   21.2687  -20.7828  -14.6177 C   0  0  0  0  0  0  0  0  0  0  0  0
   21.0029  -22.5554  -14.8078 S   0  0  0  0  0  0  0  0  0  0  0  0
   20.3740  -20.7703  -12.3053 C   0  0  0  0  0  0  0  0  0  0  0  0
   20.4710  -21.6926  -11.4544 O   0  0  0  0  0  0  0  0  0  0  0  0
   19.1493  -20.1215  -12.3805 O   0  0  0  0  0  0  0  0  0  0  0  0
  2  1  1  0
  2  3  2  0
  4  5  1  0
  4  2  1  0
  6  8  1  0
  6  5  1  0
  6  7  1  6
  8 13  1  0
  9  8  2  0
 10 11  1  0
 12 11  1  1
 12 14  1  0
 13 12  1  0
 14 15  2  0
 14 16  1  0
 16 17  1  0
 17 18  1  6
 17 20  1  0
 19 18  1  0
 20 22  1  0
 21 20  2  0
M  END
$$$$
