QSC.pdb
     RDKit          3D

 22 21  0  0  1  0  0  0  0  0999 V2000
   29.3589  -17.5620  -16.8901 N   0  0  0  0  0  0  0  0  0  0  0  0
   28.6454  -18.0585  -17.9995 C   0  0  0  0  0  0  0  0  0  0  0  0
   29.1164  -17.9789  -19.1555 O   0  0  0  0  0  0  0  0  0  0  0  0
   27.3328  -18.6792  -17.8137 C   0  0  0  0  0  0  0  0  0  0  0  0
   26.8783  -18.6574  -16.3662 C   0  0  0  0  0  0  0  0  0  0  0  0
   27.5013  -19.8489  -15.6465 C   0  0  2  0  0  0  0  0  0  0  0  0
   28.0454  -20.7473  -16.6239 N   0  0  0  0  0  0  0  0  0  0  0  0
   26.4225  -20.5313  -14.8665 C   0  0  0  0  0  0  0  0  0  0  0  0
   25.4258  -21.0252  -15.4515 O   0  0  0  0  0  0  0  0  0  0  0  0
   24.8220  -21.6151  -10.3817 O   0  0  0  0  0  0  0  0  0  0  0  0
   25.8321  -21.1142  -11.1708 C   0  0  0  0  0  0  0  0  0  0  0  0
   25.4640  -21.1411  -12.6490 C   0  0  2  0  0  0  0  0  0  0  0  0
   26.5313  -20.6177  -13.4609 N   0  0  0  0  0  0  0  0  0  0  0  0
   24.2416  -20.3267  -12.8563 C   0  0  0  0  0  0  0  0  0  0  0  0
   24.3344  -19.0642  -12.9549 O   0  0  0  0  0  0  0  0  0  0  0  0
   22.9893  -20.9648  -12.9413 N   0  0  0  0  0  0  0  0  0  0  0  0
   21.7803  -20.1823  -13.0880 C   0  0  1  0  0  0  0  0  0  0  0  0
   21.7226  -19.7464  -14.5443 C   0  0  0  0  0  0  0  0  0  0  0  0
   20.1599  -18.9265  -14.9110 S   0  0  0  0  0  0  0  0  0  0  0  0
   20.6188  -21.0113  -12.7196 C   0  0  0  0  0  0  0  0  0  0  0  0
   20.7225  -22.2645  -12.6683 O   0  0  0  0  0  0  0  0  0  0  0  0
   19.3738  -20.4786  -12.4148 O   0  0  0  0  0  0  0  0  0  0  0  0
  2  1  1  0
  2  3  2  0
  4  5  1  0
  4  2  1  0
  6  8  1  0
  6  5  1  0
  6  7  1  6
  8 13  1  0
  9  8  2  0
 10 11  1  0
 12 11  1  1
 12 14  1  0
 13 12  1  0
 14 15  2  0
 14 16  1  0
 16 17  1  0
 17 18  1  6
 17 20  1  0
 19 18  1  0
 20 22  1  0
 21 20  2  0
M  END
$$$$
