QSC.pdb
     RDKit          3D

 22 21  0  0  1  0  0  0  0  0999 V2000
   23.4232  -21.4483   -9.6754 N   0  0  0  0  0  0  0  0  0  0  0  0
   23.0608  -20.8166  -10.8819 C   0  0  0  0  0  0  0  0  0  0  0  0
   21.9223  -20.9756  -11.3748 O   0  0  0  0  0  0  0  0  0  0  0  0
   24.0189  -19.9587  -11.5812 C   0  0  0  0  0  0  0  0  0  0  0  0
   25.3880  -19.9614  -10.9273 C   0  0  0  0  0  0  0  0  0  0  0  0
   26.2300  -21.0562  -11.5742 C   0  0  2  0  0  0  0  0  0  0  0  0
   27.3089  -21.3933  -10.6906 N   0  0  0  0  0  0  0  0  0  0  0  0
   26.7697  -20.5213  -12.8627 C   0  0  0  0  0  0  0  0  0  0  0  0
   27.6238  -19.5992  -12.8640 O   0  0  0  0  0  0  0  0  0  0  0  0
   27.0103  -22.9077  -16.2160 O   0  0  0  0  0  0  0  0  0  0  0  0
   26.5021  -21.6505  -16.4503 C   0  0  0  0  0  0  0  0  0  0  0  0
   26.8813  -20.6703  -15.3472 C   0  0  2  0  0  0  0  0  0  0  0  0
   26.3115  -21.0615  -14.0846 N   0  0  0  0  0  0  0  0  0  0  0  0
   26.3896  -19.3193  -15.7130 C   0  0  0  0  0  0  0  0  0  0  0  0
   25.2272  -18.9535  -15.3560 O   0  0  0  0  0  0  0  0  0  0  0  0
   27.2197  -18.4561  -16.4536 N   0  0  0  0  0  0  0  0  0  0  0  0
   26.7253  -17.1691  -16.8946 C   0  0  1  0  0  0  0  0  0  0  0  0
   27.3616  -16.1281  -15.9861 C   0  0  0  0  0  0  0  0  0  0  0  0
   26.9003  -14.4610  -16.4927 S   0  0  0  0  0  0  0  0  0  0  0  0
   27.0985  -16.9641  -18.3055 C   0  0  0  0  0  0  0  0  0  0  0  0
   28.0707  -17.5893  -18.8036 O   0  0  0  0  0  0  0  0  0  0  0  0
   26.4219  -16.0944  -19.1497 O   0  0  0  0  0  0  0  0  0  0  0  0
  2  1  1  0
  2  3  2  0
  4  5  1  0
  4  2  1  0
  6  8  1  0
  6  5  1  0
  6  7  1  1
  8 13  1  0
  9  8  2  0
 10 11  1  0
 12 11  1  6
 12 14  1  0
 13 12  1  0
 14 15  2  0
 14 16  1  0
 16 17  1  0
 17 18  1  1
 17 20  1  0
 19 18  1  0
 20 22  1  0
 21 20  2  0
M  END
$$$$
