QSC.pdb
     RDKit          3D

 22 21  0  0  1  0  0  0  0  0999 V2000
   15.3091  -13.4078  -14.1739 N   0  0  0  0  0  0  0  0  0  0  0  0
   15.0489  -13.6911  -15.5297 C   0  0  0  0  0  0  0  0  0  0  0  0
   14.2243  -14.5732  -15.8560 O   0  0  0  0  0  0  0  0  0  0  0  0
   15.7452  -12.9516  -16.5838 C   0  0  0  0  0  0  0  0  0  0  0  0
   16.5761  -11.8050  -16.0388 C   0  0  0  0  0  0  0  0  0  0  0  0
   18.0476  -12.1998  -16.1074 C   0  0  2  0  0  0  0  0  0  0  0  0
   18.3024  -13.2094  -15.1202 N   0  0  0  0  0  0  0  0  0  0  0  0
   18.8654  -10.9811  -15.8181 C   0  0  0  0  0  0  0  0  0  0  0  0
   18.7573  -10.3857  -14.7166 O   0  0  0  0  0  0  0  0  0  0  0  0
   22.8595  -10.4095  -16.5289 O   0  0  0  0  0  0  0  0  0  0  0  0
   21.9977   -9.6119  -17.2465 C   0  0  0  0  0  0  0  0  0  0  0  0
   20.6708   -9.4159  -16.5239 C   0  0  2  0  0  0  0  0  0  0  0  0
   19.7648  -10.5009  -16.7956 N   0  0  0  0  0  0  0  0  0  0  0  0
   20.0614   -8.1401  -16.9728 C   0  0  0  0  0  0  0  0  0  0  0  0
   19.3258   -8.1226  -18.0077 O   0  0  0  0  0  0  0  0  0  0  0  0
   20.3064   -6.9603  -16.2443 N   0  0  0  0  0  0  0  0  0  0  0  0
   19.7780   -5.6945  -16.7067 C   0  0  1  0  0  0  0  0  0  0  0  0
   18.7132   -5.2788  -15.7030 C   0  0  0  0  0  0  0  0  0  0  0  0
   18.2351   -3.5579  -15.9447 S   0  0  0  0  0  0  0  0  0  0  0  0
   20.8727   -4.7104  -16.7806 C   0  0  0  0  0  0  0  0  0  0  0  0
   21.8973   -4.8437  -16.0621 O   0  0  0  0  0  0  0  0  0  0  0  0
   20.8440   -3.6070  -17.6222 O   0  0  0  0  0  0  0  0  0  0  0  0
  2  1  1  0
  2  3  2  0
  4  5  1  0
  4  2  1  0
  6  8  1  0
  6  5  1  0
  6  7  1  1
  8 13  1  0
  9  8  2  0
 10 11  1  0
 12 11  1  6
 12 14  1  0
 13 12  1  0
 14 15  2  0
 14 16  1  0
 16 17  1  0
 17 18  1  1
 17 20  1  0
 19 18  1  0
 20 22  1  0
 21 20  2  0
M  END
$$$$
