YPA.pdb
     RDKit          3D

 25 26  0  0  1  0  0  0  0  0999 V2000
   11.3575  -14.8498   29.5726 O   0  0  0  0  0  0  0  0  0  0  0  0
   10.3248  -14.8313   28.6427 C   0  0  0  0  0  0  0  0  0  0  0  0
    9.8083  -16.0013   28.1355 C   0  0  0  0  0  0  0  0  0  0  0  0
    8.7690  -15.9992   27.1991 C   0  0  0  0  0  0  0  0  0  0  0  0
    8.2148  -14.8258   26.7418 C   0  0  0  0  0  0  0  0  0  0  0  0
    7.1063  -14.7837   25.7555 C   0  0  0  0  0  0  0  0  0  0  0  0
    6.6065  -16.1387   25.3405 C   0  0  2  0  0  0  0  0  0  0  0  0
    6.6436  -17.1310   26.3847 N   0  0  0  0  0  0  0  0  0  0  0  0
    7.3130  -16.5569   24.1167 C   0  0  0  0  0  0  0  0  0  0  0  0
    7.6421  -17.7569   23.9472 O   0  0  0  0  0  0  0  0  0  0  0  0
    8.7495  -13.6461   27.2654 C   0  0  0  0  0  0  0  0  0  0  0  0
    9.7738  -13.6478   28.1885 C   0  0  0  0  0  0  0  0  0  0  0  0
    7.6702  -15.6330   23.0500 N   0  0  0  0  0  0  0  0  0  0  0  0
    7.5241  -14.2065   23.0963 C   0  0  0  0  0  0  0  0  0  0  0  0
    7.9053  -13.7090   21.7338 C   0  0  0  0  0  0  0  0  0  0  0  0
    7.8133  -14.9559   20.8349 C   0  0  0  0  0  0  0  0  0  0  0  0
    8.2404  -16.0148   21.7863 C   0  0  1  0  0  0  0  0  0  0  0  0
    9.7113  -16.1834   21.8584 C   0  0  0  0  0  0  0  0  0  0  0  0
   10.3527  -15.3581   22.5488 O   0  0  0  0  0  0  0  0  0  0  0  0
   12.0248  -19.0558   21.1191 C   0  0  0  0  0  0  0  0  0  0  0  0
   11.7596  -17.6115   21.4828 C   0  0  2  0  0  0  0  0  0  0  0  0
   10.4196  -17.2033   21.2039 N   0  0  0  0  0  0  0  0  0  0  0  0
   12.6897  -16.7860   20.6871 C   0  0  0  0  0  0  0  0  0  0  0  0
   12.1874  -15.9790   19.6858 O   0  0  0  0  0  0  0  0  0  0  0  0
   13.9235  -16.7925   20.8897 O   0  0  0  0  0  0  0  0  0  0  0  0
  1  2  1  0
  2  3  2  0
  2 12  1  0
  3  4  1  0
  4  5  2  0
  5  6  1  0
  6  7  1  0
  7  9  1  0
  7  8  1  1
  9 13  1  0
 10  9  2  0
 11  5  1  0
 12 11  2  0
 13 14  1  0
 13 17  1  0
 14 15  1  0
 15 16  1  0
 17 16  1  0
 18 22  1  0
 17 18  1  1
 19 18  2  0
 21 20  1  6
 21 22  1  0
 21 23  1  0
 23 24  1  0
 25 23  2  0
M  END
$$$$
