YPA.pdb
     RDKit          3D

 25 26  0  0  1  0  0  0  0  0999 V2000
   10.9601  -14.9621   30.0856 O   0  0  0  0  0  0  0  0  0  0  0  0
   10.2321  -14.7804   28.9158 C   0  0  0  0  0  0  0  0  0  0  0  0
    9.4620  -13.6557   28.7290 C   0  0  0  0  0  0  0  0  0  0  0  0
    8.7237  -13.4584   27.5572 C   0  0  0  0  0  0  0  0  0  0  0  0
    8.7338  -14.3809   26.5365 C   0  0  0  0  0  0  0  0  0  0  0  0
    7.9704  -14.2028   25.2759 C   0  0  0  0  0  0  0  0  0  0  0  0
    6.9804  -15.2994   25.0014 C   0  0  2  0  0  0  0  0  0  0  0  0
    6.7729  -16.2023   26.1051 N   0  0  0  0  0  0  0  0  0  0  0  0
    7.3579  -15.9855   23.7531 C   0  0  0  0  0  0  0  0  0  0  0  0
    7.3924  -17.2396   23.6983 O   0  0  0  0  0  0  0  0  0  0  0  0
    9.5198  -15.5177   26.7403 C   0  0  0  0  0  0  0  0  0  0  0  0
   10.2478  -15.7124   27.8951 C   0  0  0  0  0  0  0  0  0  0  0  0
    7.7090  -15.2763   22.5312 N   0  0  0  0  0  0  0  0  0  0  0  0
    7.8233  -13.8527   22.3947 C   0  0  0  0  0  0  0  0  0  0  0  0
    8.0793  -13.5977   20.9391 C   0  0  0  0  0  0  0  0  0  0  0  0
    7.6382  -14.8983   20.2425 C   0  0  0  0  0  0  0  0  0  0  0  0
    8.0098  -15.9033   21.2724 C   0  0  1  0  0  0  0  0  0  0  0  0
    9.4227  -16.3427   21.1839 C   0  0  0  0  0  0  0  0  0  0  0  0
   10.2872  -15.6159   21.7256 O   0  0  0  0  0  0  0  0  0  0  0  0
   11.0928  -19.6014   20.2242 C   0  0  0  0  0  0  0  0  0  0  0  0
   11.1015  -18.1677   20.7068 C   0  0  2  0  0  0  0  0  0  0  0  0
    9.8435  -17.5137   20.5342 N   0  0  0  0  0  0  0  0  0  0  0  0
   12.1275  -17.4522   19.9226 C   0  0  0  0  0  0  0  0  0  0  0  0
   11.7304  -16.5390   18.9663 O   0  0  0  0  0  0  0  0  0  0  0  0
   13.3507  -17.6459   20.0953 O   0  0  0  0  0  0  0  0  0  0  0  0
  1  2  1  0
  2  3  2  0
  2 12  1  0
  3  4  1  0
  4  5  2  0
  5  6  1  0
  6  7  1  0
  7  9  1  0
  7  8  1  1
  9 13  1  0
 10  9  2  0
 11  5  1  0
 12 11  2  0
 13 14  1  0
 13 17  1  0
 14 15  1  0
 15 16  1  0
 17 16  1  0
 18 22  1  0
 17 18  1  1
 19 18  2  0
 21 20  1  6
 21 22  1  0
 21 23  1  0
 23 24  1  0
 25 23  2  0
M  END
$$$$
