YPA.pdb
     RDKit          3D

 25 26  0  0  1  0  0  0  0  0999 V2000
    6.1735  -10.2646   27.7159 O   0  0  0  0  0  0  0  0  0  0  0  0
    6.5900  -11.5034   27.2437 C   0  0  0  0  0  0  0  0  0  0  0  0
    5.6873  -12.4036   26.7264 C   0  0  0  0  0  0  0  0  0  0  0  0
    6.0910  -13.6544   26.2471 C   0  0  0  0  0  0  0  0  0  0  0  0
    7.4109  -14.0422   26.2709 C   0  0  0  0  0  0  0  0  0  0  0  0
    7.8782  -15.3570   25.7644 C   0  0  0  0  0  0  0  0  0  0  0  0
    6.8546  -16.0964   24.9497 C   0  0  2  0  0  0  0  0  0  0  0  0
    6.1862  -17.1586   25.6579 N   0  0  0  0  0  0  0  0  0  0  0  0
    7.4740  -16.5396   23.6882 C   0  0  0  0  0  0  0  0  0  0  0  0
    7.6241  -17.7624   23.4450 O   0  0  0  0  0  0  0  0  0  0  0  0
    8.3158  -13.1182   26.7991 C   0  0  0  0  0  0  0  0  0  0  0  0
    7.9183  -11.8853   27.2714 C   0  0  0  0  0  0  0  0  0  0  0  0
    7.9436  -15.6159   22.6657 N   0  0  0  0  0  0  0  0  0  0  0  0
    7.9195  -14.1844   22.7581 C   0  0  0  0  0  0  0  0  0  0  0  0
    8.3858  -13.6777   21.4258 C   0  0  0  0  0  0  0  0  0  0  0  0
    8.2157  -14.8818   20.4810 C   0  0  0  0  0  0  0  0  0  0  0  0
    8.5192  -16.0044   21.4065 C   0  0  1  0  0  0  0  0  0  0  0  0
    9.9670  -16.3028   21.5156 C   0  0  0  0  0  0  0  0  0  0  0  0
   10.6526  -15.5661   22.2614 O   0  0  0  0  0  0  0  0  0  0  0  0
   12.0872  -19.2823   20.5218 C   0  0  0  0  0  0  0  0  0  0  0  0
   11.8568  -17.9463   21.1931 C   0  0  2  0  0  0  0  0  0  0  0  0
   10.6076  -17.3519   20.8378 N   0  0  0  0  0  0  0  0  0  0  0  0
   12.9529  -17.0529   20.7688 C   0  0  0  0  0  0  0  0  0  0  0  0
   12.6823  -16.0243   19.8886 O   0  0  0  0  0  0  0  0  0  0  0  0
   14.1245  -17.1965   21.1813 O   0  0  0  0  0  0  0  0  0  0  0  0
  1  2  1  0
  2  3  2  0
  2 12  1  0
  3  4  1  0
  4  5  2  0
  5  6  1  0
  6  7  1  0
  7  9  1  0
  7  8  1  1
  9 13  1  0
 10  9  2  0
 11  5  1  0
 12 11  2  0
 13 14  1  0
 13 17  1  0
 14 15  1  0
 15 16  1  0
 17 16  1  0
 18 22  1  0
 17 18  1  1
 19 18  2  0
 21 20  1  6
 21 22  1  0
 21 23  1  0
 23 24  1  0
 25 23  2  0
M  END
$$$$
