YPA.pdb
     RDKit          3D

 25 26  0  0  1  0  0  0  0  0999 V2000
   11.3035  -14.9097   29.5118 O   0  0  0  0  0  0  0  0  0  0  0  0
   10.2249  -14.9797   28.6382 C   0  0  0  0  0  0  0  0  0  0  0  0
    9.6283  -16.1844   28.3456 C   0  0  0  0  0  0  0  0  0  0  0  0
    8.5419  -16.2711   27.4684 C   0  0  0  0  0  0  0  0  0  0  0  0
    8.0195  -15.1545   26.8575 C   0  0  0  0  0  0  0  0  0  0  0  0
    6.8633  -15.2058   25.9279 C   0  0  0  0  0  0  0  0  0  0  0  0
    6.6078  -16.5674   25.3458 C   0  0  2  0  0  0  0  0  0  0  0  0
    6.7302  -17.6495   26.2896 N   0  0  0  0  0  0  0  0  0  0  0  0
    7.4489  -16.7433   24.1487 C   0  0  0  0  0  0  0  0  0  0  0  0
    7.9345  -17.8669   23.8683 O   0  0  0  0  0  0  0  0  0  0  0  0
    8.6355  -13.9387   27.1639 C   0  0  0  0  0  0  0  0  0  0  0  0
    9.7062  -13.8528   28.0285 C   0  0  0  0  0  0  0  0  0  0  0  0
    7.7678  -15.6562   23.2346 N   0  0  0  0  0  0  0  0  0  0  0  0
    7.5481  -14.2609   23.4865 C   0  0  0  0  0  0  0  0  0  0  0  0
    7.9156  -13.5505   22.2179 C   0  0  0  0  0  0  0  0  0  0  0  0
    7.8961  -14.6548   21.1449 C   0  0  0  0  0  0  0  0  0  0  0  0
    8.3685  -15.8195   21.9383 C   0  0  1  0  0  0  0  0  0  0  0  0
    9.8454  -15.9237   22.0094 C   0  0  0  0  0  0  0  0  0  0  0  0
   10.4707  -15.9975   20.9265 O   0  0  0  0  0  0  0  0  0  0  0  0
   12.5000  -15.4332   24.6403 C   0  0  0  0  0  0  0  0  0  0  0  0
   11.9986  -15.9917   23.3268 C   0  0  2  0  0  0  0  0  0  0  0  0
   10.5760  -15.9449   23.2078 N   0  0  0  0  0  0  0  0  0  0  0  0
   12.4415  -17.3983   23.2561 C   0  0  0  0  0  0  0  0  0  0  0  0
   13.7919  -17.6777   23.1902 O   0  0  0  0  0  0  0  0  0  0  0  0
   11.6314  -18.3507   23.2537 O   0  0  0  0  0  0  0  0  0  0  0  0
  1  2  1  0
  2  3  2  0
  2 12  1  0
  3  4  1  0
  4  5  2  0
  5  6  1  0
  6  7  1  0
  7  9  1  0
  7  8  1  1
  9 13  1  0
 10  9  2  0
 11  5  1  0
 12 11  2  0
 13 14  1  0
 13 17  1  0
 14 15  1  0
 15 16  1  0
 17 16  1  0
 18 22  1  0
 17 18  1  1
 19 18  2  0
 21 20  1  1
 21 22  1  0
 21 23  1  0
 23 24  1  0
 25 23  2  0
M  END
$$$$
