YPA.pdb
     RDKit          3D

 25 26  0  0  1  0  0  0  0  0999 V2000
   10.5481  -13.8801   30.3294 O   0  0  0  0  0  0  0  0  0  0  0  0
   10.1772  -14.2715   29.0485 C   0  0  0  0  0  0  0  0  0  0  0  0
   10.3796  -15.5619   28.6164 C   0  0  0  0  0  0  0  0  0  0  0  0
   10.0116  -15.9710   27.3302 C   0  0  0  0  0  0  0  0  0  0  0  0
    9.4298  -15.1009   26.4372 C   0  0  0  0  0  0  0  0  0  0  0  0
    9.0188  -15.5001   25.0678 C   0  0  0  0  0  0  0  0  0  0  0  0
    7.5311  -15.6029   24.8824 C   0  0  2  0  0  0  0  0  0  0  0  0
    6.8775  -16.4944   25.8069 N   0  0  0  0  0  0  0  0  0  0  0  0
    7.2438  -15.9169   23.4716 C   0  0  0  0  0  0  0  0  0  0  0  0
    6.6543  -16.9813   23.1609 O   0  0  0  0  0  0  0  0  0  0  0  0
    9.2309  -13.7943   26.8898 C   0  0  0  0  0  0  0  0  0  0  0  0
    9.5933  -13.3907   28.1575 C   0  0  0  0  0  0  0  0  0  0  0  0
    7.6148  -15.0398   22.3706 N   0  0  0  0  0  0  0  0  0  0  0  0
    8.1583  -13.7185   22.5015 C   0  0  0  0  0  0  0  0  0  0  0  0
    8.2592  -13.1746   21.1075 C   0  0  0  0  0  0  0  0  0  0  0  0
    7.3237  -14.0753   20.2799 C   0  0  0  0  0  0  0  0  0  0  0  0
    7.5041  -15.3756   20.9767 C   0  0  1  0  0  0  0  0  0  0  0  0
    8.6704  -16.1490   20.4879 C   0  0  0  0  0  0  0  0  0  0  0  0
    9.7937  -15.8575   20.9595 O   0  0  0  0  0  0  0  0  0  0  0  0
    9.1368  -19.2264   18.3038 C   0  0  0  0  0  0  0  0  0  0  0  0
    9.6039  -18.1416   19.2491 C   0  0  2  0  0  0  0  0  0  0  0  0
    8.5897  -17.1777   19.5363 N   0  0  0  0  0  0  0  0  0  0  0  0
   10.7435  -17.4626   18.6011 C   0  0  0  0  0  0  0  0  0  0  0  0
   11.9487  -18.1266   18.4883 O   0  0  0  0  0  0  0  0  0  0  0  0
   10.6545  -16.3004   18.1485 O   0  0  0  0  0  0  0  0  0  0  0  0
  1  2  1  0
  2  3  2  0
  2 12  1  0
  3  4  1  0
  4  5  2  0
  5  6  1  0
  6  7  1  0
  7  9  1  0
  7  8  1  1
  9 13  1  0
 10  9  2  0
 11  5  1  0
 12 11  2  0
 13 14  1  0
 13 17  1  0
 14 15  1  0
 15 16  1  0
 17 16  1  0
 18 22  1  0
 17 18  1  6
 19 18  2  0
 21 20  1  6
 21 22  1  0
 21 23  1  0
 23 24  1  0
 25 23  2  0
M  END
$$$$
