YPA.pdb
     RDKit          3D

 25 26  0  0  1  0  0  0  0  0999 V2000
   11.5355  -14.9402   29.2161 O   0  0  0  0  0  0  0  0  0  0  0  0
   10.3816  -14.9688   28.4421 C   0  0  0  0  0  0  0  0  0  0  0  0
   10.1001  -13.9564   27.5540 C   0  0  0  0  0  0  0  0  0  0  0  0
    8.9428  -13.9709   26.7679 C   0  0  0  0  0  0  0  0  0  0  0  0
    8.0322  -14.9993   26.8469 C   0  0  0  0  0  0  0  0  0  0  0  0
    6.7980  -15.0534   26.0238 C   0  0  0  0  0  0  0  0  0  0  0  0
    6.5080  -16.4103   25.4467 C   0  0  2  0  0  0  0  0  0  0  0  0
    6.4969  -17.4776   26.4148 N   0  0  0  0  0  0  0  0  0  0  0  0
    7.4243  -16.6584   24.3195 C   0  0  0  0  0  0  0  0  0  0  0  0
    8.0078  -17.7641   24.2017 O   0  0  0  0  0  0  0  0  0  0  0  0
    8.3312  -16.0197   27.7529 C   0  0  0  0  0  0  0  0  0  0  0  0
    9.4718  -16.0058   28.5278 C   0  0  0  0  0  0  0  0  0  0  0  0
    7.7099  -15.6655   23.2940 N   0  0  0  0  0  0  0  0  0  0  0  0
    7.2923  -14.2931   23.3201 C   0  0  0  0  0  0  0  0  0  0  0  0
    7.7132  -13.7094   22.0044 C   0  0  0  0  0  0  0  0  0  0  0  0
    7.9537  -14.9357   21.1045 C   0  0  0  0  0  0  0  0  0  0  0  0
    8.4715  -15.9112   22.0991 C   0  0  1  0  0  0  0  0  0  0  0  0
    9.9319  -15.8005   22.3276 C   0  0  0  0  0  0  0  0  0  0  0  0
   10.3246  -14.9225   23.1302 O   0  0  0  0  0  0  0  0  0  0  0  0
   12.2542  -18.3363   22.7922 C   0  0  0  0  0  0  0  0  0  0  0  0
   12.1827  -16.9396   22.2155 C   0  0  2  0  0  0  0  0  0  0  0  0
   10.8901  -16.6137   21.7025 N   0  0  0  0  0  0  0  0  0  0  0  0
   13.1672  -16.8727   21.1174 C   0  0  0  0  0  0  0  0  0  0  0  0
   12.7199  -16.8369   19.8117 O   0  0  0  0  0  0  0  0  0  0  0  0
   14.3991  -16.8473   21.3301 O   0  0  0  0  0  0  0  0  0  0  0  0
  1  2  1  0
  2  3  2  0
  2 12  1  0
  3  4  1  0
  4  5  2  0
  5  6  1  0
  6  7  1  0
  7  9  1  0
  7  8  1  1
  9 13  1  0
 10  9  2  0
 11  5  1  0
 12 11  2  0
 13 14  1  0
 13 17  1  0
 14 15  1  0
 15 16  1  0
 17 16  1  0
 18 22  1  0
 17 18  1  1
 19 18  2  0
 21 20  1  6
 21 22  1  0
 21 23  1  0
 23 24  1  0
 25 23  2  0
M  END
$$$$
