YPA.pdb
     RDKit          3D

 25 26  0  0  1  0  0  0  0  0999 V2000
    6.0389  -10.6427   27.1795 O   0  0  0  0  0  0  0  0  0  0  0  0
    6.3995  -11.9668   26.9600 C   0  0  0  0  0  0  0  0  0  0  0  0
    7.6935  -12.3033   26.6357 C   0  0  0  0  0  0  0  0  0  0  0  0
    8.0720  -13.6314   26.4118 C   0  0  0  0  0  0  0  0  0  0  0  0
    7.1667  -14.6632   26.5058 C   0  0  0  0  0  0  0  0  0  0  0  0
    7.5324  -16.0846   26.2834 C   0  0  0  0  0  0  0  0  0  0  0  0
    6.7528  -16.7510   25.1851 C   0  0  2  0  0  0  0  0  0  0  0  0
    6.0529  -17.9430   25.5923 N   0  0  0  0  0  0  0  0  0  0  0  0
    7.6404  -16.9655   24.0284 C   0  0  0  0  0  0  0  0  0  0  0  0
    8.1406  -18.0960   23.8077 O   0  0  0  0  0  0  0  0  0  0  0  0
    5.8569  -14.3064   26.8354 C   0  0  0  0  0  0  0  0  0  0  0  0
    5.4835  -12.9975   27.0563 C   0  0  0  0  0  0  0  0  0  0  0  0
    7.9905  -15.9103   23.0887 N   0  0  0  0  0  0  0  0  0  0  0  0
    7.7140  -14.5130   23.2602 C   0  0  0  0  0  0  0  0  0  0  0  0
    8.1480  -13.8480   21.9879 C   0  0  0  0  0  0  0  0  0  0  0  0
    8.2346  -14.9988   20.9684 C   0  0  0  0  0  0  0  0  0  0  0  0
    8.6840  -16.1116   21.8451 C   0  0  1  0  0  0  0  0  0  0  0  0
   10.1549  -16.1655   22.0212 C   0  0  0  0  0  0  0  0  0  0  0  0
   10.6425  -15.5394   22.9903 O   0  0  0  0  0  0  0  0  0  0  0  0
   13.0950  -15.6923   21.7550 C   0  0  0  0  0  0  0  0  0  0  0  0
   12.4392  -16.9859   21.3245 C   0  0  2  0  0  0  0  0  0  0  0  0
   11.0237  -16.8698   21.1729 N   0  0  0  0  0  0  0  0  0  0  0  0
   12.7309  -17.9884   22.3682 C   0  0  0  0  0  0  0  0  0  0  0  0
   11.6838  -18.5849   23.0420 O   0  0  0  0  0  0  0  0  0  0  0  0
   13.9000  -18.3179   22.6649 O   0  0  0  0  0  0  0  0  0  0  0  0
  1  2  1  0
  2  3  2  0
  2 12  1  0
  3  4  1  0
  4  5  2  0
  5  6  1  0
  6  7  1  0
  7  9  1  0
  7  8  1  1
  9 13  1  0
 10  9  2  0
 11  5  1  0
 12 11  2  0
 13 14  1  0
 13 17  1  0
 14 15  1  0
 15 16  1  0
 17 16  1  0
 18 22  1  0
 17 18  1  1
 19 18  2  0
 21 20  1  1
 21 22  1  0
 21 23  1  0
 23 24  1  0
 25 23  2  0
M  END
$$$$
