YPA.pdb
     RDKit          3D

 25 26  0  0  1  0  0  0  0  0999 V2000
    6.0029  -10.4557   27.1456 O   0  0  0  0  0  0  0  0  0  0  0  0
    6.4294  -11.7375   26.8193 C   0  0  0  0  0  0  0  0  0  0  0  0
    5.5237  -12.7420   26.5673 C   0  0  0  0  0  0  0  0  0  0  0  0
    5.9374  -14.0371   26.2376 C   0  0  0  0  0  0  0  0  0  0  0  0
    7.2704  -14.3662   26.1500 C   0  0  0  0  0  0  0  0  0  0  0  0
    7.7474  -15.7265   25.7952 C   0  0  0  0  0  0  0  0  0  0  0  0
    6.7857  -16.5085   24.9458 C   0  0  2  0  0  0  0  0  0  0  0  0
    6.1652  -17.6202   25.6209 N   0  0  0  0  0  0  0  0  0  0  0  0
    7.4561  -16.8923   23.6909 C   0  0  0  0  0  0  0  0  0  0  0  0
    7.6992  -18.0983   23.4391 O   0  0  0  0  0  0  0  0  0  0  0  0
    8.1783  -13.3364   26.4087 C   0  0  0  0  0  0  0  0  0  0  0  0
    7.7709  -12.0598   26.7336 C   0  0  0  0  0  0  0  0  0  0  0  0
    7.8731  -15.9263   22.6849 N   0  0  0  0  0  0  0  0  0  0  0  0
    7.7785  -14.4998   22.8062 C   0  0  0  0  0  0  0  0  0  0  0  0
    8.2111  -13.9442   21.4821 C   0  0  0  0  0  0  0  0  0  0  0  0
    8.0953  -15.1362   20.5141 C   0  0  0  0  0  0  0  0  0  0  0  0
    8.4597  -16.2605   21.4152 C   0  0  1  0  0  0  0  0  0  0  0  0
    9.9212  -16.4886   21.5110 C   0  0  0  0  0  0  0  0  0  0  0  0
   10.5626  -15.7826   22.3230 O   0  0  0  0  0  0  0  0  0  0  0  0
   11.9954  -19.4542   20.4918 C   0  0  0  0  0  0  0  0  0  0  0  0
   11.8348  -18.0912   21.1282 C   0  0  2  0  0  0  0  0  0  0  0  0
   10.6207  -17.4397   20.7517 N   0  0  0  0  0  0  0  0  0  0  0  0
   12.9790  -17.2690   20.6875 C   0  0  0  0  0  0  0  0  0  0  0  0
   12.7548  -16.1956   19.8486 O   0  0  0  0  0  0  0  0  0  0  0  0
   14.1508  -17.5126   21.0495 O   0  0  0  0  0  0  0  0  0  0  0  0
  1  2  1  0
  2  3  2  0
  2 12  1  0
  3  4  1  0
  4  5  2  0
  5  6  1  0
  6  7  1  0
  7  9  1  0
  7  8  1  1
  9 13  1  0
 10  9  2  0
 11  5  1  0
 12 11  2  0
 13 14  1  0
 13 17  1  0
 14 15  1  0
 15 16  1  0
 17 16  1  0
 18 22  1  0
 17 18  1  1
 19 18  2  0
 21 20  1  6
 21 22  1  0
 21 23  1  0
 23 24  1  0
 25 23  2  0
M  END
$$$$
