KWK.pdb
     RDKit          3D

 33 34  0  0  1  0  0  0  0  0999 V2000
   28.3655  -21.5565  -14.9168 N   0  0  0  0  0  0  0  0  0  0  0  0
   27.5725  -20.6423  -14.1201 C   0  0  1  0  0  0  0  0  0  0  0  0
   26.6843  -19.8629  -15.0462 C   0  0  0  0  0  0  0  0  0  0  0  0
   27.3412  -19.2581  -16.2279 C   0  0  0  0  0  0  0  0  0  0  0  0
   27.3061  -17.7758  -16.3415 C   0  0  0  0  0  0  0  0  0  0  0  0
   28.0110  -17.4386  -17.6729 C   0  0  0  0  0  0  0  0  0  0  0  0
   28.0048  -15.9735  -17.7556 N   0  0  0  0  0  0  0  0  0  0  0  0
   26.6728  -21.4407  -13.2265 C   0  0  0  0  0  0  0  0  0  0  0  0
   26.9166  -22.6739  -13.0409 O   0  0  0  0  0  0  0  0  0  0  0  0
   25.5536  -20.9054  -12.5663 N   0  0  0  0  0  0  0  0  0  0  0  0
   25.5058  -20.7744  -11.0993 C   0  0  1  0  0  0  0  0  0  0  0  0
   26.6247  -19.8440  -10.7415 C   0  0  0  0  0  0  0  0  0  0  0  0
   27.6047  -20.3683   -9.7978 C   0  0  0  0  0  0  0  0  0  0  0  0
   28.5865  -21.2842  -10.0992 C   0  0  0  0  0  0  0  0  0  0  0  0
   29.2892  -21.5241   -8.9934 N   0  0  0  0  0  0  0  0  0  0  0  0
   28.8061  -20.7971   -7.9669 C   0  0  0  0  0  0  0  0  0  0  0  0
   29.1840  -20.6961   -6.6351 C   0  0  0  0  0  0  0  0  0  0  0  0
   28.4982  -19.8556   -5.7775 C   0  0  0  0  0  0  0  0  0  0  0  0
   27.4370  -19.1336   -6.3039 C   0  0  0  0  0  0  0  0  0  0  0  0
   27.0436  -19.2144   -7.6134 C   0  0  0  0  0  0  0  0  0  0  0  0
   27.7415  -20.0627   -8.4630 C   0  0  0  0  0  0  0  0  0  0  0  0
   24.1673  -20.1505  -10.7790 C   0  0  0  0  0  0  0  0  0  0  0  0
   23.7760  -20.0606   -9.5835 O   0  0  0  0  0  0  0  0  0  0  0  0
   23.3278  -19.6554  -11.7964 N   0  0  0  0  0  0  0  0  0  0  0  0
   21.9498  -20.2593  -12.0151 C   0  0  1  0  0  0  0  0  0  0  0  0
   22.1539  -21.5526  -12.6655 C   0  0  0  0  0  0  0  0  0  0  0  0
   21.4647  -22.0095  -13.8698 C   0  0  0  0  0  0  0  0  0  0  0  0
   21.7320  -23.3740  -14.3995 C   0  0  0  0  0  0  0  0  0  0  0  0
   20.9581  -23.5153  -15.7072 C   0  0  0  0  0  0  0  0  0  0  0  0
   21.1523  -24.8732  -16.1670 N   0  0  0  0  0  0  0  0  0  0  0  0
   21.2204  -20.1220  -10.7674 C   0  0  0  0  0  0  0  0  0  0  0  0
   20.2144  -19.2987  -10.6924 O   0  0  0  0  0  0  0  0  0  0  0  0
   21.4367  -20.7760   -9.5765 O   0  0  0  0  0  0  0  0  0  0  0  0
  2  1  1  6
  2  3  1  0
  4  3  1  0
  4  5  1  0
  5  6  1  0
  6  7  1  0
  8  2  1  0
  9  8  2  0
 10  8  1  0
 11 12  1  6
 11 10  1  0
 12 13  1  0
 13 14  2  0
 14 15  1  0
 16 15  1  0
 17 16  2  0
 18 17  1  0
 19 20  1  0
 19 18  2  0
 20 21  2  0
 21 13  1  0
 21 16  1  0
 22 11  1  0
 23 22  2  0
 24 22  1  0
 25 31  1  0
 25 24  1  0
 25 26  1  1
 27 26  1  0
 27 28  1  0
 29 28  1  0
 29 30  1  0
 31 33  1  0
 32 31  2  0
M  END
$$$$
