KWK.pdb
     RDKit          3D

 33 34  0  0  1  0  0  0  0  0999 V2000
   27.4493  -19.5878  -14.7043 N   0  0  0  0  0  0  0  0  0  0  0  0
   27.1337  -20.9924  -14.8687 C   0  0  1  0  0  0  0  0  0  0  0  0
   28.4218  -21.7461  -15.0326 C   0  0  0  0  0  0  0  0  0  0  0  0
   29.0707  -21.6515  -16.3606 C   0  0  0  0  0  0  0  0  0  0  0  0
   28.2663  -22.0631  -17.5417 C   0  0  0  0  0  0  0  0  0  0  0  0
   29.1425  -21.7572  -18.7754 C   0  0  0  0  0  0  0  0  0  0  0  0
   28.2766  -21.9962  -19.9358 N   0  0  0  0  0  0  0  0  0  0  0  0
   26.4966  -21.4920  -13.6077 C   0  0  0  0  0  0  0  0  0  0  0  0
   26.4341  -22.7434  -13.3967 O   0  0  0  0  0  0  0  0  0  0  0  0
   25.9520  -20.6510  -12.6223 N   0  0  0  0  0  0  0  0  0  0  0  0
   25.3372  -21.1880  -11.3955 C   0  0  1  0  0  0  0  0  0  0  0  0
   25.7937  -20.2869  -10.2886 C   0  0  0  0  0  0  0  0  0  0  0  0
   27.0947  -20.6040   -9.7119 C   0  0  0  0  0  0  0  0  0  0  0  0
   28.0494  -21.4036  -10.2974 C   0  0  0  0  0  0  0  0  0  0  0  0
   29.1020  -21.4636   -9.4834 N   0  0  0  0  0  0  0  0  0  0  0  0
   28.8778  -20.7295   -8.3760 C   0  0  0  0  0  0  0  0  0  0  0  0
   29.6502  -20.4777   -7.2505 C   0  0  0  0  0  0  0  0  0  0  0  0
   29.1646  -19.6710   -6.2378 C   0  0  0  0  0  0  0  0  0  0  0  0
   27.8945  -19.1371   -6.4001 C   0  0  0  0  0  0  0  0  0  0  0  0
   27.1119  -19.3692   -7.4999 C   0  0  0  0  0  0  0  0  0  0  0  0
   27.6125  -20.1814   -8.5089 C   0  0  0  0  0  0  0  0  0  0  0  0
   23.8433  -21.0780  -11.5941 C   0  0  0  0  0  0  0  0  0  0  0  0
   23.0540  -21.3285  -10.6430 O   0  0  0  0  0  0  0  0  0  0  0  0
   23.2956  -20.6950  -12.8344 N   0  0  0  0  0  0  0  0  0  0  0  0
   21.7910  -20.7256  -13.0505 C   0  0  1  0  0  0  0  0  0  0  0  0
   21.3710  -22.1178  -12.8996 C   0  0  0  0  0  0  0  0  0  0  0  0
   20.0218  -22.6230  -13.1415 C   0  0  0  0  0  0  0  0  0  0  0  0
   19.7709  -24.0895  -13.1321 C   0  0  0  0  0  0  0  0  0  0  0  0
   18.2808  -24.2989  -13.3866 C   0  0  0  0  0  0  0  0  0  0  0  0
   18.0342  -25.7217  -13.2982 N   0  0  0  0  0  0  0  0  0  0  0  0
   21.2236  -19.6509  -12.2564 C   0  0  0  0  0  0  0  0  0  0  0  0
   20.7390  -18.5960  -12.8463 O   0  0  0  0  0  0  0  0  0  0  0  0
   21.1034  -19.5731  -10.8881 O   0  0  0  0  0  0  0  0  0  0  0  0
  2  1  1  1
  2  3  1  0
  4  3  1  0
  4  5  1  0
  5  6  1  0
  6  7  1  0
  8  2  1  0
  9  8  2  0
 10  8  1  0
 11 12  1  1
 11 10  1  0
 12 13  1  0
 13 14  2  0
 14 15  1  0
 16 15  1  0
 17 16  2  0
 18 17  1  0
 19 20  1  0
 19 18  2  0
 20 21  2  0
 21 13  1  0
 21 16  1  0
 22 11  1  0
 23 22  2  0
 24 22  1  0
 25 31  1  0
 25 24  1  0
 25 26  1  1
 27 26  1  0
 27 28  1  0
 29 28  1  0
 29 30  1  0
 31 33  1  0
 32 31  2  0
M  END
$$$$
