KWK.pdb
     RDKit          3D

 33 34  0  0  1  0  0  0  0  0999 V2000
   28.0631  -22.3386  -14.9973 N   0  0  0  0  0  0  0  0  0  0  0  0
   27.5128  -21.0908  -14.5077 C   0  0  1  0  0  0  0  0  0  0  0  0
   26.6600  -20.4974  -15.5915 C   0  0  0  0  0  0  0  0  0  0  0  0
   27.3813  -19.9198  -16.7490 C   0  0  0  0  0  0  0  0  0  0  0  0
   28.0698  -18.6182  -16.5410 C   0  0  0  0  0  0  0  0  0  0  0  0
   28.6890  -18.2464  -17.9054 C   0  0  0  0  0  0  0  0  0  0  0  0
   29.3541  -16.9559  -17.6914 N   0  0  0  0  0  0  0  0  0  0  0  0
   26.6035  -21.3871  -13.3540 C   0  0  0  0  0  0  0  0  0  0  0  0
   25.8569  -22.4143  -13.3993 O   0  0  0  0  0  0  0  0  0  0  0  0
   26.5193  -20.5878  -12.2013 N   0  0  0  0  0  0  0  0  0  0  0  0
   25.5655  -20.8842  -11.1179 C   0  0  1  0  0  0  0  0  0  0  0  0
   26.0397  -20.0937   -9.9364 C   0  0  0  0  0  0  0  0  0  0  0  0
   27.3036  -20.5269   -9.3527 C   0  0  0  0  0  0  0  0  0  0  0  0
   28.2116  -21.3655   -9.9575 C   0  0  0  0  0  0  0  0  0  0  0  0
   29.2410  -21.5353   -9.1294 N   0  0  0  0  0  0  0  0  0  0  0  0
   29.0464  -20.8365   -7.9940 C   0  0  0  0  0  0  0  0  0  0  0  0
   29.8118  -20.6896   -6.8453 C   0  0  0  0  0  0  0  0  0  0  0  0
   29.3635  -19.8958   -5.8055 C   0  0  0  0  0  0  0  0  0  0  0  0
   28.1373  -19.2669   -5.9649 C   0  0  0  0  0  0  0  0  0  0  0  0
   27.3626  -19.3947   -7.0872 C   0  0  0  0  0  0  0  0  0  0  0  0
   27.8254  -20.1952   -8.1233 C   0  0  0  0  0  0  0  0  0  0  0  0
   24.2225  -20.3816  -11.5945 C   0  0  0  0  0  0  0  0  0  0  0  0
   24.1472  -19.3456  -12.3096 O   0  0  0  0  0  0  0  0  0  0  0  0
   23.0288  -21.0501  -11.2580 N   0  0  0  0  0  0  0  0  0  0  0  0
   21.7869  -20.8819  -12.1186 C   0  0  1  0  0  0  0  0  0  0  0  0
   22.0003  -21.6756  -13.3276 C   0  0  0  0  0  0  0  0  0  0  0  0
   21.0754  -21.7609  -14.4551 C   0  0  0  0  0  0  0  0  0  0  0  0
   21.4254  -22.5980  -15.6343 C   0  0  0  0  0  0  0  0  0  0  0  0
   20.3205  -22.4112  -16.6704 C   0  0  0  0  0  0  0  0  0  0  0  0
   20.7323  -23.1261  -17.8588 N   0  0  0  0  0  0  0  0  0  0  0  0
   20.6378  -21.0759  -11.2528 C   0  0  0  0  0  0  0  0  0  0  0  0
   19.4495  -20.7448  -11.6697 O   0  0  0  0  0  0  0  0  0  0  0  0
   20.6071  -21.5971   -9.9800 O   0  0  0  0  0  0  0  0  0  0  0  0
  2  1  1  6
  2  3  1  0
  4  3  1  0
  4  5  1  0
  5  6  1  0
  6  7  1  0
  8  2  1  0
  9  8  2  0
 10  8  1  0
 11 12  1  1
 11 10  1  0
 12 13  1  0
 13 14  2  0
 14 15  1  0
 16 15  1  0
 17 16  2  0
 18 17  1  0
 19 20  1  0
 19 18  2  0
 20 21  2  0
 21 13  1  0
 21 16  1  0
 22 11  1  0
 23 22  2  0
 24 22  1  0
 25 31  1  0
 25 24  1  0
 25 26  1  6
 27 26  1  0
 27 28  1  0
 29 28  1  0
 29 30  1  0
 31 33  1  0
 32 31  2  0
M  END
$$$$
