KWK.pdb
     RDKit          3D

 33 34  0  0  1  0  0  0  0  0999 V2000
   28.6345  -20.4879  -17.4485 N   0  0  0  0  0  0  0  0  0  0  0  0
   27.4359  -19.7956  -17.0200 C   0  0  1  0  0  0  0  0  0  0  0  0
   26.4111  -19.9138  -18.1108 C   0  0  0  0  0  0  0  0  0  0  0  0
   26.7607  -19.2889  -19.4073 C   0  0  0  0  0  0  0  0  0  0  0  0
   27.4123  -20.1544  -20.4260 C   0  0  0  0  0  0  0  0  0  0  0  0
   27.5402  -19.2866  -21.6964 C   0  0  0  0  0  0  0  0  0  0  0  0
   28.3628  -20.0731  -22.6228 N   0  0  0  0  0  0  0  0  0  0  0  0
   26.8768  -20.5007  -15.8217 C   0  0  0  0  0  0  0  0  0  0  0  0
   27.1424  -21.7306  -15.6445 O   0  0  0  0  0  0  0  0  0  0  0  0
   26.0609  -19.8795  -14.8608 N   0  0  0  0  0  0  0  0  0  0  0  0
   25.6993  -20.5485  -13.5987 C   0  0  1  0  0  0  0  0  0  0  0  0
   26.0006  -19.5567  -12.5165 C   0  0  0  0  0  0  0  0  0  0  0  0
   26.4885  -20.1186  -11.2627 C   0  0  0  0  0  0  0  0  0  0  0  0
   25.7612  -20.2126  -10.0982 C   0  0  0  0  0  0  0  0  0  0  0  0
   26.5299  -20.7778   -9.1688 N   0  0  0  0  0  0  0  0  0  0  0  0
   27.7443  -21.0628   -9.6781 C   0  0  0  0  0  0  0  0  0  0  0  0
   28.8765  -21.6435   -9.1234 C   0  0  0  0  0  0  0  0  0  0  0  0
   30.0154  -21.8200   -9.8877 C   0  0  0  0  0  0  0  0  0  0  0  0
   29.9701  -21.3973  -11.2082 C   0  0  0  0  0  0  0  0  0  0  0  0
   28.8666  -20.8219  -11.7802 C   0  0  0  0  0  0  0  0  0  0  0  0
   27.7302  -20.6507  -11.0006 C   0  0  0  0  0  0  0  0  0  0  0  0
   24.2148  -20.8187  -13.6794 C   0  0  0  0  0  0  0  0  0  0  0  0
   23.4373  -19.9607  -14.1790 O   0  0  0  0  0  0  0  0  0  0  0  0
   23.6631  -22.0251  -13.2048 N   0  0  0  0  0  0  0  0  0  0  0  0
   22.1558  -22.2224  -13.1822 C   0  0  1  0  0  0  0  0  0  0  0  0
   21.9199  -23.6591  -13.0493 C   0  0  0  0  0  0  0  0  0  0  0  0
   20.6072  -24.2945  -12.9664 C   0  0  0  0  0  0  0  0  0  0  0  0
   20.5102  -25.7751  -12.8556 C   0  0  0  0  0  0  0  0  0  0  0  0
   19.0278  -26.1313  -12.7879 C   0  0  0  0  0  0  0  0  0  0  0  0
   18.9474  -27.5573  -12.5571 N   0  0  0  0  0  0  0  0  0  0  0  0
   21.6123  -21.2545  -12.2465 C   0  0  0  0  0  0  0  0  0  0  0  0
   22.2603  -20.9776  -11.1517 O   0  0  0  0  0  0  0  0  0  0  0  0
   20.4464  -20.5314  -12.3483 O   0  0  0  0  0  0  0  0  0  0  0  0
  2  1  1  6
  2  3  1  0
  4  3  1  0
  4  5  1  0
  5  6  1  0
  6  7  1  0
  8  2  1  0
  9  8  2  0
 10  8  1  0
 11 12  1  1
 11 10  1  0
 12 13  1  0
 13 14  2  0
 14 15  1  0
 16 15  1  0
 17 16  2  0
 18 17  1  0
 19 20  1  0
 19 18  2  0
 20 21  2  0
 21 13  1  0
 21 16  1  0
 22 11  1  0
 23 22  2  0
 24 22  1  0
 25 31  1  0
 25 24  1  0
 25 26  1  1
 27 26  1  0
 27 28  1  0
 29 28  1  0
 29 30  1  0
 31 33  1  0
 32 31  2  0
M  END
$$$$
