KWK.pdb
     RDKit          3D

 33 34  0  0  1  0  0  0  0  0999 V2000
   28.1942  -21.1424  -14.6321 N   0  0  0  0  0  0  0  0  0  0  0  0
   27.3706  -20.0659  -14.1200 C   0  0  1  0  0  0  0  0  0  0  0  0
   26.2768  -19.7994  -15.1134 C   0  0  0  0  0  0  0  0  0  0  0  0
   26.7059  -19.3050  -16.4420 C   0  0  0  0  0  0  0  0  0  0  0  0
   25.8764  -18.2447  -17.0737 C   0  0  0  0  0  0  0  0  0  0  0  0
   26.5184  -17.9723  -18.4511 C   0  0  0  0  0  0  0  0  0  0  0  0
   25.6667  -16.9580  -19.0828 N   0  0  0  0  0  0  0  0  0  0  0  0
   26.7070  -20.5277  -12.8583 C   0  0  0  0  0  0  0  0  0  0  0  0
   25.7415  -21.3507  -12.9294 O   0  0  0  0  0  0  0  0  0  0  0  0
   27.0892  -20.1022  -11.5746 N   0  0  0  0  0  0  0  0  0  0  0  0
   26.6096  -20.7789  -10.3567 C   0  0  1  0  0  0  0  0  0  0  0  0
   27.4766  -20.2700   -9.2454 C   0  0  0  0  0  0  0  0  0  0  0  0
   26.9893  -20.5276   -7.8955 C   0  0  0  0  0  0  0  0  0  0  0  0
   25.9294  -21.3452   -7.5763 C   0  0  0  0  0  0  0  0  0  0  0  0
   25.7783  -21.3375   -6.2530 N   0  0  0  0  0  0  0  0  0  0  0  0
   26.7036  -20.5414   -5.6825 C   0  0  0  0  0  0  0  0  0  0  0  0
   26.9594  -20.2064   -4.3599 C   0  0  0  0  0  0  0  0  0  0  0  0
   27.9944  -19.3445   -4.0466 C   0  0  0  0  0  0  0  0  0  0  0  0
   28.7483  -18.8431   -5.0977 C   0  0  0  0  0  0  0  0  0  0  0  0
   28.5175  -19.1574   -6.4107 C   0  0  0  0  0  0  0  0  0  0  0  0
   27.4746  -20.0240   -6.7104 C   0  0  0  0  0  0  0  0  0  0  0  0
   25.1785  -20.3326  -10.1667 C   0  0  0  0  0  0  0  0  0  0  0  0
   24.8751  -19.1116  -10.2531 O   0  0  0  0  0  0  0  0  0  0  0  0
   24.1529  -21.2587   -9.8918 N   0  0  0  0  0  0  0  0  0  0  0  0
   22.6975  -20.8197   -9.9126 C   0  0  1  0  0  0  0  0  0  0  0  0
   22.0552  -21.5385  -11.0117 C   0  0  0  0  0  0  0  0  0  0  0  0
   20.6720  -21.3565  -11.4447 C   0  0  0  0  0  0  0  0  0  0  0  0
   20.1645  -22.1053  -12.6261 C   0  0  0  0  0  0  0  0  0  0  0  0
   18.7226  -21.6639  -12.8608 C   0  0  0  0  0  0  0  0  0  0  0  0
   18.2359  -22.4053  -14.0039 N   0  0  0  0  0  0  0  0  0  0  0  0
   22.2106  -20.8901   -8.5467 C   0  0  0  0  0  0  0  0  0  0  0  0
   22.7695  -21.7076   -7.7012 O   0  0  0  0  0  0  0  0  0  0  0  0
   21.1886  -20.1741   -7.9674 O   0  0  0  0  0  0  0  0  0  0  0  0
  2  1  1  6
  2  3  1  0
  4  3  1  0
  4  5  1  0
  5  6  1  0
  6  7  1  0
  8  2  1  0
  9  8  2  0
 10  8  1  0
 11 12  1  1
 11 10  1  0
 12 13  1  0
 13 14  2  0
 14 15  1  0
 16 15  1  0
 17 16  2  0
 18 17  1  0
 19 20  1  0
 19 18  2  0
 20 21  2  0
 21 13  1  0
 21 16  1  0
 22 11  1  0
 23 22  2  0
 24 22  1  0
 25 31  1  0
 25 24  1  0
 25 26  1  6
 27 26  1  0
 27 28  1  0
 29 28  1  0
 29 30  1  0
 31 33  1  0
 32 31  2  0
M  END
$$$$
