KWK.pdb
     RDKit          3D

 33 34  0  0  1  0  0  0  0  0999 V2000
   28.5458  -22.0105  -15.2722 N   0  0  0  0  0  0  0  0  0  0  0  0
   28.5031  -20.8215  -14.4453 C   0  0  1  0  0  0  0  0  0  0  0  0
   27.8016  -19.7401  -15.2152 C   0  0  0  0  0  0  0  0  0  0  0  0
   28.2441  -19.5411  -16.6146 C   0  0  0  0  0  0  0  0  0  0  0  0
   27.3502  -20.0481  -17.6894 C   0  0  0  0  0  0  0  0  0  0  0  0
   28.0184  -19.6406  -19.0201 C   0  0  0  0  0  0  0  0  0  0  0  0
   27.1196  -20.1298  -20.0719 N   0  0  0  0  0  0  0  0  0  0  0  0
   27.6642  -21.1071  -13.2369 C   0  0  0  0  0  0  0  0  0  0  0  0
   26.6474  -21.8606  -13.3504 O   0  0  0  0  0  0  0  0  0  0  0  0
   27.9325  -20.5860  -11.9597 N   0  0  0  0  0  0  0  0  0  0  0  0
   27.1134  -20.9416  -10.7874 C   0  0  1  0  0  0  0  0  0  0  0  0
   27.8293  -20.3622   -9.6053 C   0  0  0  0  0  0  0  0  0  0  0  0
   27.1022  -20.4072   -8.3423 C   0  0  0  0  0  0  0  0  0  0  0  0
   25.7786  -20.7555   -8.1998 C   0  0  0  0  0  0  0  0  0  0  0  0
   25.4635  -20.6842   -6.9076 N   0  0  0  0  0  0  0  0  0  0  0  0
   26.5350  -20.3000   -6.1868 C   0  0  0  0  0  0  0  0  0  0  0  0
   26.7167  -20.0820   -4.8280 C   0  0  0  0  0  0  0  0  0  0  0  0
   27.9486  -19.6803   -4.3448 C   0  0  0  0  0  0  0  0  0  0  0  0
   28.9716  -19.5106   -5.2664 C   0  0  0  0  0  0  0  0  0  0  0  0
   28.8194  -19.7190   -6.6115 C   0  0  0  0  0  0  0  0  0  0  0  0
   27.5767  -20.1219   -7.0824 C   0  0  0  0  0  0  0  0  0  0  0  0
   25.7780  -20.2641  -10.9897 C   0  0  0  0  0  0  0  0  0  0  0  0
   25.7214  -19.0294  -11.2400 O   0  0  0  0  0  0  0  0  0  0  0  0
   24.5707  -20.9856  -10.9066 N   0  0  0  0  0  0  0  0  0  0  0  0
   23.2685  -20.3582  -11.3779 C   0  0  1  0  0  0  0  0  0  0  0  0
   23.0543  -20.8110  -12.7513 C   0  0  0  0  0  0  0  0  0  0  0  0
   23.0731  -19.9547  -13.9347 C   0  0  0  0  0  0  0  0  0  0  0  0
   22.8798  -20.5549  -15.2824 C   0  0  0  0  0  0  0  0  0  0  0  0
   22.9647  -19.4229  -16.3023 C   0  0  0  0  0  0  0  0  0  0  0  0
   22.7938  -20.0196  -17.6091 N   0  0  0  0  0  0  0  0  0  0  0  0
   22.2886  -20.5679  -10.3274 C   0  0  0  0  0  0  0  0  0  0  0  0
   22.5060  -21.4645   -9.4086 O   0  0  0  0  0  0  0  0  0  0  0  0
   21.0915  -19.9177  -10.1353 O   0  0  0  0  0  0  0  0  0  0  0  0
  2  1  1  6
  2  3  1  0
  4  3  1  0
  4  5  1  0
  5  6  1  0
  6  7  1  0
  8  2  1  0
  9  8  2  0
 10  8  1  0
 11 12  1  1
 11 10  1  0
 12 13  1  0
 13 14  2  0
 14 15  1  0
 16 15  1  0
 17 16  2  0
 18 17  1  0
 19 20  1  0
 19 18  2  0
 20 21  2  0
 21 13  1  0
 21 16  1  0
 22 11  1  0
 23 22  2  0
 24 22  1  0
 25 31  1  0
 25 24  1  0
 25 26  1  6
 27 26  1  0
 27 28  1  0
 29 28  1  0
 29 30  1  0
 31 33  1  0
 32 31  2  0
M  END
$$$$
