KWK.pdb
     RDKit          3D

 33 34  0  0  1  0  0  0  0  0999 V2000
   27.7334  -24.2277  -17.0108 N   0  0  0  0  0  0  0  0  0  0  0  0
   27.7491  -22.8589  -16.5358 C   0  0  1  0  0  0  0  0  0  0  0  0
   27.0142  -22.0088  -17.5315 C   0  0  0  0  0  0  0  0  0  0  0  0
   27.7035  -21.7667  -18.8199 C   0  0  0  0  0  0  0  0  0  0  0  0
   29.0590  -21.1578  -18.7624 C   0  0  0  0  0  0  0  0  0  0  0  0
   29.4646  -20.8936  -20.2283 C   0  0  0  0  0  0  0  0  0  0  0  0
   30.8367  -20.3772  -20.1647 N   0  0  0  0  0  0  0  0  0  0  0  0
   26.9786  -22.7873  -15.2525 C   0  0  0  0  0  0  0  0  0  0  0  0
   26.1479  -23.7077  -14.9744 O   0  0  0  0  0  0  0  0  0  0  0  0
   27.1161  -21.7481  -14.3165 N   0  0  0  0  0  0  0  0  0  0  0  0
   26.4610  -21.7984  -12.9976 C   0  0  1  0  0  0  0  0  0  0  0  0
   27.2559  -20.8820  -12.1179 C   0  0  0  0  0  0  0  0  0  0  0  0
   26.7269  -20.6800  -10.7743 C   0  0  0  0  0  0  0  0  0  0  0  0
   25.4175  -20.3829  -10.4727 C   0  0  0  0  0  0  0  0  0  0  0  0
   25.3073  -20.2719   -9.1499 N   0  0  0  0  0  0  0  0  0  0  0  0
   26.5010  -20.4860   -8.5628 C   0  0  0  0  0  0  0  0  0  0  0  0
   26.9020  -20.4815   -7.2339 C   0  0  0  0  0  0  0  0  0  0  0  0
   28.2201  -20.7365   -6.9024 C   0  0  0  0  0  0  0  0  0  0  0  0
   29.1021  -20.9921   -7.9423 C   0  0  0  0  0  0  0  0  0  0  0  0
   28.7329  -21.0027   -9.2612 C   0  0  0  0  0  0  0  0  0  0  0  0
   27.4059  -20.7448   -9.5792 C   0  0  0  0  0  0  0  0  0  0  0  0
   25.0632  -21.2629  -13.2047 C   0  0  0  0  0  0  0  0  0  0  0  0
   24.8742  -20.2272  -13.8990 O   0  0  0  0  0  0  0  0  0  0  0  0
   23.9430  -21.8997  -12.6349 N   0  0  0  0  0  0  0  0  0  0  0  0
   22.5379  -21.5078  -13.0632 C   0  0  1  0  0  0  0  0  0  0  0  0
   21.7410  -22.7335  -13.0695 C   0  0  0  0  0  0  0  0  0  0  0  0
   20.3235  -22.8165  -13.4126 C   0  0  0  0  0  0  0  0  0  0  0  0
   19.6765  -24.1486  -13.5566 C   0  0  0  0  0  0  0  0  0  0  0  0
   18.1954  -23.9085  -13.8352 C   0  0  0  0  0  0  0  0  0  0  0  0
   17.5902  -25.2059  -14.0437 N   0  0  0  0  0  0  0  0  0  0  0  0
   22.1643  -20.3404  -12.2853 C   0  0  0  0  0  0  0  0  0  0  0  0
   22.7093  -20.1368  -11.1204 O   0  0  0  0  0  0  0  0  0  0  0  0
   21.2712  -19.3467  -12.6134 O   0  0  0  0  0  0  0  0  0  0  0  0
  2  1  1  6
  2  3  1  0
  4  3  1  0
  4  5  1  0
  5  6  1  0
  6  7  1  0
  8  2  1  0
  9  8  2  0
 10  8  1  0
 11 12  1  1
 11 10  1  0
 12 13  1  0
 13 14  2  0
 14 15  1  0
 16 15  1  0
 17 16  2  0
 18 17  1  0
 19 20  1  0
 19 18  2  0
 20 21  2  0
 21 13  1  0
 21 16  1  0
 22 11  1  0
 23 22  2  0
 24 22  1  0
 25 31  1  0
 25 24  1  0
 25 26  1  1
 27 26  1  0
 27 28  1  0
 29 28  1  0
 29 30  1  0
 31 33  1  0
 32 31  2  0
M  END
$$$$
