KWK.pdb
     RDKit          3D

 33 34  0  0  1  0  0  0  0  0999 V2000
   27.8453  -23.6152  -15.6318 N   0  0  0  0  0  0  0  0  0  0  0  0
   26.8530  -22.5700  -15.7814 C   0  0  1  0  0  0  0  0  0  0  0  0
   25.8026  -23.0546  -16.7384 C   0  0  0  0  0  0  0  0  0  0  0  0
   26.0484  -22.7809  -18.1731 C   0  0  0  0  0  0  0  0  0  0  0  0
   26.7836  -21.5334  -18.5115 C   0  0  0  0  0  0  0  0  0  0  0  0
   26.8115  -21.4660  -20.0535 C   0  0  0  0  0  0  0  0  0  0  0  0
   27.5660  -20.2492  -20.3756 N   0  0  0  0  0  0  0  0  0  0  0  0
   26.1739  -22.3606  -14.4621 C   0  0  0  0  0  0  0  0  0  0  0  0
   25.3577  -23.2369  -14.0374 O   0  0  0  0  0  0  0  0  0  0  0  0
   26.3837  -21.2358  -13.6462 N   0  0  0  0  0  0  0  0  0  0  0  0
   25.7128  -21.0849  -12.3429 C   0  0  1  0  0  0  0  0  0  0  0  0
   26.4910  -20.0360  -11.6084 C   0  0  0  0  0  0  0  0  0  0  0  0
   27.6299  -20.5190  -10.8366 C   0  0  0  0  0  0  0  0  0  0  0  0
   28.7142  -21.1888  -11.3556 C   0  0  0  0  0  0  0  0  0  0  0  0
   29.5500  -21.4697  -10.3572 N   0  0  0  0  0  0  0  0  0  0  0  0
   29.0562  -21.0081   -9.1917 C   0  0  0  0  0  0  0  0  0  0  0  0
   29.5393  -21.0502   -7.8910 C   0  0  0  0  0  0  0  0  0  0  0  0
   28.8115  -20.4878   -6.8583 C   0  0  0  0  0  0  0  0  0  0  0  0
   27.6010  -19.8918   -7.1808 C   0  0  0  0  0  0  0  0  0  0  0  0
   27.1016  -19.8363   -8.4549 C   0  0  0  0  0  0  0  0  0  0  0  0
   27.8431  -20.4054   -9.4819 C   0  0  0  0  0  0  0  0  0  0  0  0
   24.3143  -20.5998  -12.6466 C   0  0  0  0  0  0  0  0  0  0  0  0
   24.1297  -19.6640  -13.4715 O   0  0  0  0  0  0  0  0  0  0  0  0
   23.1885  -21.1744  -12.0240 N   0  0  0  0  0  0  0  0  0  0  0  0
   21.7947  -20.6436  -12.3193 C   0  0  1  0  0  0  0  0  0  0  0  0
   21.1786  -21.5762  -13.2617 C   0  0  0  0  0  0  0  0  0  0  0  0
   20.0953  -21.2495  -14.1856 C   0  0  0  0  0  0  0  0  0  0  0  0
   19.5234  -22.3117  -15.0566 C   0  0  0  0  0  0  0  0  0  0  0  0
   18.4646  -21.6569  -15.9392 C   0  0  0  0  0  0  0  0  0  0  0  0
   17.9140  -22.6980  -16.7794 N   0  0  0  0  0  0  0  0  0  0  0  0
   21.1859  -20.3095  -11.0444 C   0  0  0  0  0  0  0  0  0  0  0  0
   21.5889  -20.9045   -9.9586 O   0  0  0  0  0  0  0  0  0  0  0  0
   20.1897  -19.3960  -10.7881 O   0  0  0  0  0  0  0  0  0  0  0  0
  2  1  1  1
  2  3  1  0
  4  3  1  0
  4  5  1  0
  5  6  1  0
  6  7  1  0
  8  2  1  0
  9  8  2  0
 10  8  1  0
 11 12  1  1
 11 10  1  0
 12 13  1  0
 13 14  2  0
 14 15  1  0
 16 15  1  0
 17 16  2  0
 18 17  1  0
 19 20  1  0
 19 18  2  0
 20 21  2  0
 21 13  1  0
 21 16  1  0
 22 11  1  0
 23 22  2  0
 24 22  1  0
 25 31  1  0
 25 24  1  0
 25 26  1  1
 27 26  1  0
 27 28  1  0
 29 28  1  0
 29 30  1  0
 31 33  1  0
 32 31  2  0
M  END
$$$$
