SQD.pdb
     RDKit          3D

 24 23  0  0  1  0  0  0  0  0999 V2000
    7.0697  -18.0936   14.8922 O   0  0  0  0  0  0  0  0  0  0  0  0
    8.0155  -17.4806   15.7101 C   0  0  0  0  0  0  0  0  0  0  0  0
    8.1187  -18.2307   17.0252 C   0  0  2  0  0  0  0  0  0  0  0  0
    6.8247  -18.7386   17.4425 N   0  0  0  0  0  0  0  0  0  0  0  0
    8.6270  -17.2578   18.0410 C   0  0  0  0  0  0  0  0  0  0  0  0
    9.7512  -16.7337   17.8890 O   0  0  0  0  0  0  0  0  0  0  0  0
    7.6697  -12.6401   20.3279 N   0  0  0  0  0  0  0  0  0  0  0  0
    7.5716  -13.1020   21.6636 C   0  0  0  0  0  0  0  0  0  0  0  0
    7.8063  -12.2975   22.5919 O   0  0  0  0  0  0  0  0  0  0  0  0
    7.2031  -14.4967   21.9684 C   0  0  0  0  0  0  0  0  0  0  0  0
    7.0434  -15.3777   20.7784 C   0  0  0  0  0  0  0  0  0  0  0  0
    8.2939  -15.8929   20.1567 C   0  0  2  0  0  0  0  0  0  0  0  0
    7.8785  -16.9025   19.1805 N   0  0  0  0  0  0  0  0  0  0  0  0
    9.2888  -16.4498   21.0995 C   0  0  0  0  0  0  0  0  0  0  0  0
    9.0732  -17.6043   21.5521 O   0  0  0  0  0  0  0  0  0  0  0  0
   10.4446  -15.7763   21.5144 N   0  0  0  0  0  0  0  0  0  0  0  0
   11.4278  -16.4918   22.3582 C   0  0  1  0  0  0  0  0  0  0  0  0
   12.7916  -15.9474   22.1194 C   0  0  0  0  0  0  0  0  0  0  0  0
   13.7823  -16.5522   23.0198 C   0  0  0  0  0  0  0  0  0  0  0  0
   13.8088  -17.7820   23.2211 O   0  0  0  0  0  0  0  0  0  0  0  0
   11.0451  -16.3067   23.7721 C   0  0  0  0  0  0  0  0  0  0  0  0
    9.9501  -15.6314   24.2158 O   0  0  0  0  0  0  0  0  0  0  0  0
   14.7411  -15.7814   23.6933 O   0  0  0  0  0  0  0  0  0  0  0  0
   11.8036  -16.8219   24.6624 O   0  0  0  0  0  0  0  0  0  0  0  0
  2  1  1  0
  3  5  1  0
  3  2  1  0
  3  4  1  1
  5  6  2  0
  7  8  1  0
  8 10  1  0
  8  9  2  0
 10 11  1  0
 12 11  1  1
 13 12  1  0
 13  5  1  0
 14 15  2  0
 14 12  1  0
 16 14  1  0
 17 16  1  0
 17 21  1  0
 17 18  1  1
 19 18  1  0
 19 23  1  0
 20 19  2  0
 21 24  2  0
 21 22  1  0
M  END
$$$$
