SQD.pdb
     RDKit          3D

 24 23  0  0  1  0  0  0  0  0999 V2000
    8.1996  -15.7848   19.4088 O   0  0  0  0  0  0  0  0  0  0  0  0
    6.9866  -15.1073   19.5030 C   0  0  0  0  0  0  0  0  0  0  0  0
    7.2353  -13.6642   19.9006 C   0  0  2  0  0  0  0  0  0  0  0  0
    7.9625  -12.9526   18.8656 N   0  0  0  0  0  0  0  0  0  0  0  0
    8.0487  -13.6937   21.1552 C   0  0  0  0  0  0  0  0  0  0  0  0
    9.2774  -13.4718   21.1026 O   0  0  0  0  0  0  0  0  0  0  0  0
    5.5437  -12.1558   26.6096 N   0  0  0  0  0  0  0  0  0  0  0  0
    6.8699  -12.4744   26.9926 C   0  0  0  0  0  0  0  0  0  0  0  0
    7.2374  -12.1992   28.1560 O   0  0  0  0  0  0  0  0  0  0  0  0
    7.8077  -13.1150   26.0523 C   0  0  0  0  0  0  0  0  0  0  0  0
    7.3006  -13.2557   24.6591 C   0  0  0  0  0  0  0  0  0  0  0  0
    8.2111  -13.9108   23.6804 C   0  0  2  0  0  0  0  0  0  0  0  0
    7.4775  -13.9657   22.4140 N   0  0  0  0  0  0  0  0  0  0  0  0
    8.6974  -15.2536   24.0661 C   0  0  0  0  0  0  0  0  0  0  0  0
    7.8910  -16.2139   23.9573 O   0  0  0  0  0  0  0  0  0  0  0  0
    9.9885  -15.5182   24.5404 N   0  0  0  0  0  0  0  0  0  0  0  0
   10.3585  -16.9118   24.8741 C   0  0  1  0  0  0  0  0  0  0  0  0
   11.8331  -17.0823   24.7739 C   0  0  0  0  0  0  0  0  0  0  0  0
   12.3263  -16.7580   23.4287 C   0  0  0  0  0  0  0  0  0  0  0  0
   11.8322  -17.2853   22.4131 O   0  0  0  0  0  0  0  0  0  0  0  0
    9.9049  -17.1936   26.2506 C   0  0  0  0  0  0  0  0  0  0  0  0
    9.8100  -18.4269   26.8178 O   0  0  0  0  0  0  0  0  0  0  0  0
   13.3708  -15.8452   23.2214 O   0  0  0  0  0  0  0  0  0  0  0  0
    9.5701  -16.1979   26.9784 O   0  0  0  0  0  0  0  0  0  0  0  0
  2  1  1  0
  3  5  1  0
  3  2  1  0
  3  4  1  6
  5  6  2  0
  7  8  1  0
  8 10  1  0
  8  9  2  0
 10 11  1  0
 12 11  1  1
 13 12  1  0
 13  5  1  0
 14 15  2  0
 14 12  1  0
 16 14  1  0
 17 16  1  0
 17 21  1  0
 17 18  1  1
 19 18  1  0
 19 23  1  0
 20 19  2  0
 21 24  2  0
 21 22  1  0
M  END
$$$$
