SQD.pdb
     RDKit          3D

 24 23  0  0  1  0  0  0  0  0999 V2000
   10.3076  -20.4448   12.6866 O   0  0  0  0  0  0  0  0  0  0  0  0
    9.2231  -21.1892   13.1438 C   0  0  0  0  0  0  0  0  0  0  0  0
    8.2489  -20.2814   13.8716 C   0  0  2  0  0  0  0  0  0  0  0  0
    8.2553  -18.9445   13.3066 N   0  0  0  0  0  0  0  0  0  0  0  0
    8.6917  -20.2248   15.2989 C   0  0  0  0  0  0  0  0  0  0  0  0
    9.2768  -19.2068   15.7264 O   0  0  0  0  0  0  0  0  0  0  0  0
    5.6901  -22.1655   20.8917 N   0  0  0  0  0  0  0  0  0  0  0  0
    6.8707  -22.8463   20.5045 C   0  0  0  0  0  0  0  0  0  0  0  0
    6.9684  -24.0659   20.7637 O   0  0  0  0  0  0  0  0  0  0  0  0
    7.9683  -22.1466   19.8120 C   0  0  0  0  0  0  0  0  0  0  0  0
    7.7821  -21.9867   18.3431 C   0  0  0  0  0  0  0  0  0  0  0  0
    8.8592  -21.2688   17.6081 C   0  0  2  0  0  0  0  0  0  0  0  0
    8.4728  -21.2893   16.1955 N   0  0  0  0  0  0  0  0  0  0  0  0
   10.2229  -21.8131   17.7890 C   0  0  0  0  0  0  0  0  0  0  0  0
   10.7860  -22.3094   16.7787 O   0  0  0  0  0  0  0  0  0  0  0  0
   10.9181  -21.8094   19.0050 N   0  0  0  0  0  0  0  0  0  0  0  0
   12.3958  -21.7301   18.9860 C   0  0  1  0  0  0  0  0  0  0  0  0
   12.8322  -20.6158   18.1020 C   0  0  0  0  0  0  0  0  0  0  0  0
   14.2963  -20.5146   18.0397 C   0  0  0  0  0  0  0  0  0  0  0  0
   15.0166  -21.5318   18.0417 O   0  0  0  0  0  0  0  0  0  0  0  0
   12.8642  -21.4989   20.3670 C   0  0  0  0  0  0  0  0  0  0  0  0
   14.1621  -21.5034   20.7758 O   0  0  0  0  0  0  0  0  0  0  0  0
   14.9524  -19.2766   17.9755 O   0  0  0  0  0  0  0  0  0  0  0  0
   11.9795  -21.2750   21.2618 O   0  0  0  0  0  0  0  0  0  0  0  0
  2  1  1  0
  3  5  1  0
  3  2  1  0
  3  4  1  6
  5  6  2  0
  7  8  1  0
  8 10  1  0
  8  9  2  0
 10 11  1  0
 12 11  1  1
 13 12  1  0
 13  5  1  0
 14 15  2  0
 14 12  1  0
 16 14  1  0
 17 16  1  0
 17 21  1  0
 17 18  1  6
 19 18  1  0
 19 23  1  0
 20 19  2  0
 21 24  2  0
 21 22  1  0
M  END
$$$$
