SQD.pdb
     RDKit          3D

 24 23  0  0  1  0  0  0  0  0999 V2000
    8.7757  -19.4384   19.0030 O   0  0  0  0  0  0  0  0  0  0  0  0
    7.8469  -18.6305   18.3520 C   0  0  0  0  0  0  0  0  0  0  0  0
    8.5641  -17.5055   17.6289 C   0  0  2  0  0  0  0  0  0  0  0  0
    9.5944  -18.0217   16.7466 N   0  0  0  0  0  0  0  0  0  0  0  0
    9.1888  -16.6433   18.6791 C   0  0  0  0  0  0  0  0  0  0  0  0
   10.4327  -16.6101   18.7945 O   0  0  0  0  0  0  0  0  0  0  0  0
    6.8112  -14.2968   18.3153 N   0  0  0  0  0  0  0  0  0  0  0  0
    7.3394  -13.0259   18.6515 C   0  0  0  0  0  0  0  0  0  0  0  0
    7.2358  -12.0977   17.8197 O   0  0  0  0  0  0  0  0  0  0  0  0
    7.9998  -12.7875   19.9480 C   0  0  0  0  0  0  0  0  0  0  0  0
    7.9864  -13.9479   20.8814 C   0  0  0  0  0  0  0  0  0  0  0  0
    8.9830  -15.0231   20.6241 C   0  0  2  0  0  0  0  0  0  0  0  0
    8.4202  -15.8546   19.5578 N   0  0  0  0  0  0  0  0  0  0  0  0
    9.3458  -15.8467   21.7983 C   0  0  0  0  0  0  0  0  0  0  0  0
    8.5366  -16.7460   22.1458 O   0  0  0  0  0  0  0  0  0  0  0  0
   10.5237  -15.6875   22.5391 N   0  0  0  0  0  0  0  0  0  0  0  0
   10.8562  -16.6848   23.5809 C   0  0  1  0  0  0  0  0  0  0  0  0
   12.3327  -16.7841   23.7345 C   0  0  0  0  0  0  0  0  0  0  0  0
   12.7043  -17.6897   24.8298 C   0  0  0  0  0  0  0  0  0  0  0  0
   11.8381  -18.2793   25.5048 O   0  0  0  0  0  0  0  0  0  0  0  0
   10.2394  -16.2506   24.8501 C   0  0  0  0  0  0  0  0  0  0  0  0
    9.4587  -15.1485   25.0167 O   0  0  0  0  0  0  0  0  0  0  0  0
   14.0432  -17.9345   25.1683 O   0  0  0  0  0  0  0  0  0  0  0  0
   10.4535  -16.9665   25.8869 O   0  0  0  0  0  0  0  0  0  0  0  0
  2  1  1  0
  3  5  1  0
  3  2  1  0
  3  4  1  6
  5  6  2  0
  7  8  1  0
  8 10  1  0
  8  9  2  0
 10 11  1  0
 12 11  1  1
 13 12  1  0
 13  5  1  0
 14 15  2  0
 14 12  1  0
 16 14  1  0
 17 16  1  0
 17 21  1  0
 17 18  1  1
 19 18  1  0
 19 23  1  0
 20 19  2  0
 21 24  2  0
 21 22  1  0
M  END
$$$$
