SQD.pdb
     RDKit          3D

 24 23  0  0  1  0  0  0  0  0999 V2000
   12.1136  -17.6725   17.2444 O   0  0  0  0  0  0  0  0  0  0  0  0
   11.4231  -17.7140   16.0358 C   0  0  0  0  0  0  0  0  0  0  0  0
   11.5620  -16.3829   15.3205 C   0  0  2  0  0  0  0  0  0  0  0  0
   12.8282  -16.2951   14.6166 N   0  0  0  0  0  0  0  0  0  0  0  0
   11.4958  -15.3180   16.3685 C   0  0  0  0  0  0  0  0  0  0  0  0
   12.5215  -14.6631   16.6522 O   0  0  0  0  0  0  0  0  0  0  0  0
    7.3383  -12.4157   21.4142 N   0  0  0  0  0  0  0  0  0  0  0  0
    7.4425  -13.1296   20.1950 C   0  0  0  0  0  0  0  0  0  0  0  0
    6.8342  -14.2169   20.0863 O   0  0  0  0  0  0  0  0  0  0  0  0
    8.2468  -12.6160   19.0709 C   0  0  0  0  0  0  0  0  0  0  0  0
    8.6810  -13.6470   18.0878 C   0  0  0  0  0  0  0  0  0  0  0  0
   10.1461  -13.8829   17.9713 C   0  0  2  0  0  0  0  0  0  0  0  0
   10.3054  -15.0182   17.0599 N   0  0  0  0  0  0  0  0  0  0  0  0
   10.8530  -14.1287   19.2474 C   0  0  0  0  0  0  0  0  0  0  0  0
   10.9282  -13.1708   20.0604 O   0  0  0  0  0  0  0  0  0  0  0  0
   11.4378  -15.3510   19.6018 N   0  0  0  0  0  0  0  0  0  0  0  0
   12.0435  -15.4938   20.9446 C   0  0  1  0  0  0  0  0  0  0  0  0
   11.4628  -16.6742   21.6395 C   0  0  0  0  0  0  0  0  0  0  0  0
   12.0657  -16.8746   22.9640 C   0  0  0  0  0  0  0  0  0  0  0  0
   12.9004  -16.0713   23.4239 O   0  0  0  0  0  0  0  0  0  0  0  0
   13.5005  -15.6655   20.7787 C   0  0  0  0  0  0  0  0  0  0  0  0
   14.1726  -15.6418   19.5956 O   0  0  0  0  0  0  0  0  0  0  0  0
   11.7345  -17.9725   23.7716 O   0  0  0  0  0  0  0  0  0  0  0  0
   14.1977  -15.8539   21.8331 O   0  0  0  0  0  0  0  0  0  0  0  0
  2  1  1  0
  3  5  1  0
  3  2  1  0
  3  4  1  1
  5  6  2  0
  7  8  1  0
  8 10  1  0
  8  9  2  0
 10 11  1  0
 12 11  1  1
 13 12  1  0
 13  5  1  0
 14 15  2  0
 14 12  1  0
 16 14  1  0
 17 16  1  0
 17 21  1  0
 17 18  1  6
 19 18  1  0
 19 23  1  0
 20 19  2  0
 21 24  2  0
 21 22  1  0
M  END
$$$$
