SQD.pdb
     RDKit          3D

 24 23  0  0  1  0  0  0  0  0999 V2000
    9.3611  -14.7472   15.3427 O   0  0  0  0  0  0  0  0  0  0  0  0
    9.7235  -14.5859   16.6776 C   0  0  0  0  0  0  0  0  0  0  0  0
    8.4913  -14.2836   17.5101 C   0  0  2  0  0  0  0  0  0  0  0  0
    7.9702  -12.9615   17.2151 N   0  0  0  0  0  0  0  0  0  0  0  0
    8.9098  -14.3493   18.9444 C   0  0  0  0  0  0  0  0  0  0  0  0
    9.2869  -13.3107   19.5281 O   0  0  0  0  0  0  0  0  0  0  0  0
    6.6806  -14.6677   22.9044 N   0  0  0  0  0  0  0  0  0  0  0  0
    6.1521  -15.5794   21.9576 C   0  0  0  0  0  0  0  0  0  0  0  0
    4.9266  -15.5402   21.7110 O   0  0  0  0  0  0  0  0  0  0  0  0
    7.0142  -16.5588   21.2710 C   0  0  0  0  0  0  0  0  0  0  0  0
    8.4260  -16.5918   21.7438 C   0  0  0  0  0  0  0  0  0  0  0  0
    9.3834  -15.6872   21.0505 C   0  0  2  0  0  0  0  0  0  0  0  0
    8.8960  -15.5532   19.6759 N   0  0  0  0  0  0  0  0  0  0  0  0
   10.7966  -16.1247   21.0680 C   0  0  0  0  0  0  0  0  0  0  0  0
   11.0227  -17.3546   20.9255 O   0  0  0  0  0  0  0  0  0  0  0  0
   11.8870  -15.2611   21.2319 N   0  0  0  0  0  0  0  0  0  0  0  0
   13.2548  -15.8263   21.2385 C   0  0  1  0  0  0  0  0  0  0  0  0
   14.2257  -14.8092   20.7523 C   0  0  0  0  0  0  0  0  0  0  0  0
   14.2182  -14.7094   19.2867 C   0  0  0  0  0  0  0  0  0  0  0  0
   13.5980  -15.5317   18.5847 O   0  0  0  0  0  0  0  0  0  0  0  0
   13.5837  -16.2250   22.6215 C   0  0  0  0  0  0  0  0  0  0  0  0
   14.6525  -16.9791   22.9971 O   0  0  0  0  0  0  0  0  0  0  0  0
   14.9038  -13.6909   18.6088 O   0  0  0  0  0  0  0  0  0  0  0  0
   12.8009  -15.8322   23.5523 O   0  0  0  0  0  0  0  0  0  0  0  0
  2  1  1  0
  3  5  1  0
  3  2  1  0
  3  4  1  6
  5  6  2  0
  7  8  1  0
  8 10  1  0
  8  9  2  0
 10 11  1  0
 12 11  1  1
 13 12  1  0
 13  5  1  0
 14 15  2  0
 14 12  1  0
 16 14  1  0
 17 16  1  0
 17 21  1  0
 17 18  1  1
 19 18  1  0
 19 23  1  0
 20 19  2  0
 21 24  2  0
 21 22  1  0
M  END
$$$$
