QHK.pdb
     RDKit          3D

 29 29  0  0  1  0  0  0  0  0999 V2000
    7.8149  -12.8849   16.4892 N   0  0  0  0  0  0  0  0  0  0  0  0
    7.7174  -14.3198   16.3325 C   0  0  0  0  0  0  0  0  0  0  0  0
    6.9731  -14.6803   15.3995 O   0  0  0  0  0  0  0  0  0  0  0  0
    8.4721  -15.1780   17.2523 C   0  0  0  0  0  0  0  0  0  0  0  0
    9.2435  -14.5396   18.3383 C   0  0  0  0  0  0  0  0  0  0  0  0
    9.9132  -15.4119   19.3340 C   0  0  2  0  0  0  0  0  0  0  0  0
   10.4664  -16.5491   18.5878 N   0  0  0  0  0  0  0  0  0  0  0  0
    9.1747  -15.7923   20.5331 C   0  0  0  0  0  0  0  0  0  0  0  0
    8.5338  -14.9620   21.2526 O   0  0  0  0  0  0  0  0  0  0  0  0
    9.1394  -17.1470   20.9633 N   0  0  0  0  0  0  0  0  0  0  0  0
    8.3589  -17.6123   22.0889 C   0  0  1  0  0  0  0  0  0  0  0  0
    8.3606  -19.0900   22.2708 C   0  0  0  0  0  0  0  0  0  0  0  0
    7.5644  -19.5709   23.4072 C   0  0  0  0  0  0  0  0  0  0  0  0
    6.8195  -18.8493   24.2915 C   0  0  0  0  0  0  0  0  0  0  0  0
    6.2663  -19.7152   25.1634 N   0  0  0  0  0  0  0  0  0  0  0  0
    6.6603  -20.9577   24.8279 C   0  0  0  0  0  0  0  0  0  0  0  0
    7.4538  -20.8629   23.7535 N   0  0  0  0  0  0  0  0  0  0  0  0
    8.6662  -16.8597   23.3303 C   0  0  0  0  0  0  0  0  0  0  0  0
    9.8687  -16.7610   23.7032 O   0  0  0  0  0  0  0  0  0  0  0  0
    7.6941  -16.2389   24.1331 N   0  0  0  0  0  0  0  0  0  0  0  0
    8.0611  -15.3215   25.2639 C   0  0  1  0  0  0  0  0  0  0  0  0
    6.9260  -14.4263   25.5118 C   0  0  0  0  0  0  0  0  0  0  0  0
    7.0449  -13.0629   26.0086 C   0  0  0  0  0  0  0  0  0  0  0  0
    5.8941  -12.1793   26.2478 C   0  0  0  0  0  0  0  0  0  0  0  0
    6.5078  -10.8203   26.7250 C   0  0  0  0  0  0  0  0  0  0  0  0
    5.4258   -9.8883   26.8748 N   0  0  0  0  0  0  0  0  0  0  0  0
    8.3797  -16.2732   26.3561 C   0  0  0  0  0  0  0  0  0  0  0  0
    7.7453  -17.3962   26.4091 O   0  0  0  0  0  0  0  0  0  0  0  0
    9.3032  -16.1082   27.3539 O   0  0  0  0  0  0  0  0  0  0  0  0
  1  2  1  0
  2  3  2  0
  4  5  1  0
  4  2  1  0
  5  6  1  0
  6  7  1  6
  8 10  1  0
  8  6  1  0
  9  8  2  0
 11 10  1  0
 12 13  1  0
 11 12  1  1
 13 17  1  0
 14 15  1  0
 14 13  2  0
 15 16  1  0
 16 17  2  0
 18 11  1  0
 18 19  2  0
 20 18  1  0
 21 20  1  0
 21 27  1  0
 21 22  1  1
 23 22  1  0
 24 23  1  0
 25 24  1  0
 26 25  1  0
 27 28  2  0
 27 29  1  0
M  END
$$$$
