QHK.pdb
     RDKit          3D

 29 29  0  0  1  0  0  0  0  0999 V2000
    8.1236  -13.1584   15.4688 N   0  0  0  0  0  0  0  0  0  0  0  0
    8.1529  -14.6024   15.5515 C   0  0  0  0  0  0  0  0  0  0  0  0
    7.5800  -15.1780   14.6055 O   0  0  0  0  0  0  0  0  0  0  0  0
    8.8254  -15.2253   16.6969 C   0  0  0  0  0  0  0  0  0  0  0  0
    9.3656  -14.3504   17.7575 C   0  0  0  0  0  0  0  0  0  0  0  0
    9.9306  -14.9841   18.9740 C   0  0  2  0  0  0  0  0  0  0  0  0
    9.9562  -16.4298   18.7183 N   0  0  0  0  0  0  0  0  0  0  0  0
    9.3702  -14.6212   20.2710 C   0  0  0  0  0  0  0  0  0  0  0  0
    9.3858  -13.4361   20.7327 O   0  0  0  0  0  0  0  0  0  0  0  0
    8.7661  -15.6053   21.1004 N   0  0  0  0  0  0  0  0  0  0  0  0
    8.2990  -15.3460   22.4448 C   0  0  1  0  0  0  0  0  0  0  0  0
    6.9513  -15.9022   22.7466 C   0  0  0  0  0  0  0  0  0  0  0  0
    6.4229  -15.5503   24.0709 C   0  0  0  0  0  0  0  0  0  0  0  0
    6.1823  -14.3136   24.5909 C   0  0  0  0  0  0  0  0  0  0  0  0
    5.7003  -14.4806   25.8382 N   0  0  0  0  0  0  0  0  0  0  0  0
    5.6412  -15.8011   26.0920 C   0  0  0  0  0  0  0  0  0  0  0  0
    6.0844  -16.4497   25.0077 N   0  0  0  0  0  0  0  0  0  0  0  0
    9.3228  -15.6804   23.4655 C   0  0  0  0  0  0  0  0  0  0  0  0
   10.1972  -16.5496   23.1922 O   0  0  0  0  0  0  0  0  0  0  0  0
    9.3870  -15.0860   24.7374 N   0  0  0  0  0  0  0  0  0  0  0  0
   10.4417  -15.4585   25.7393 C   0  0  1  0  0  0  0  0  0  0  0  0
   10.1836  -14.7088   26.9733 C   0  0  0  0  0  0  0  0  0  0  0  0
   10.8952  -14.9146   28.2267 C   0  0  0  0  0  0  0  0  0  0  0  0
   10.6245  -14.1493   29.4528 C   0  0  0  0  0  0  0  0  0  0  0  0
   11.6089  -14.7248   30.5257 C   0  0  0  0  0  0  0  0  0  0  0  0
   11.4029  -13.9857   31.7394 N   0  0  0  0  0  0  0  0  0  0  0  0
   10.2838  -16.9301   25.8363 C   0  0  0  0  0  0  0  0  0  0  0  0
    9.1136  -17.4447   25.6565 O   0  0  0  0  0  0  0  0  0  0  0  0
   11.2626  -17.8517   26.0978 O   0  0  0  0  0  0  0  0  0  0  0  0
  1  2  1  0
  2  3  2  0
  4  5  1  0
  4  2  1  0
  5  6  1  0
  6  7  1  6
  8 10  1  0
  8  6  1  0
  9  8  2  0
 11 10  1  0
 12 13  1  0
 11 12  1  1
 13 17  1  0
 14 15  1  0
 14 13  2  0
 15 16  1  0
 16 17  2  0
 18 11  1  0
 18 19  2  0
 20 18  1  0
 21 20  1  0
 21 27  1  0
 21 22  1  1
 23 22  1  0
 24 23  1  0
 25 24  1  0
 26 25  1  0
 27 28  2  0
 27 29  1  0
M  END
$$$$
