QHK.pdb
     RDKit          3D

 29 29  0  0  1  0  0  0  0  0999 V2000
   16.8412  -13.6807   19.0039 N   0  0  0  0  0  0  0  0  0  0  0  0
   16.3837  -14.5037   17.9055 C   0  0  0  0  0  0  0  0  0  0  0  0
   17.3024  -14.9932   17.2195 O   0  0  0  0  0  0  0  0  0  0  0  0
   14.9395  -14.6738   17.7115 C   0  0  0  0  0  0  0  0  0  0  0  0
   14.0189  -14.0087   18.6560 C   0  0  0  0  0  0  0  0  0  0  0  0
   13.2499  -14.8529   19.6030 C   0  0  2  0  0  0  0  0  0  0  0  0
   13.1791  -16.1924   19.0057 N   0  0  0  0  0  0  0  0  0  0  0  0
   11.9705  -14.3553   20.0965 C   0  0  0  0  0  0  0  0  0  0  0  0
   11.8113  -13.1868   20.5730 O   0  0  0  0  0  0  0  0  0  0  0  0
   10.8123  -15.1795   20.0671 N   0  0  0  0  0  0  0  0  0  0  0  0
    9.4983  -14.7332   20.4759 C   0  0  1  0  0  0  0  0  0  0  0  0
    8.3766  -15.3258   19.6966 C   0  0  0  0  0  0  0  0  0  0  0  0
    8.2841  -14.8664   18.3049 C   0  0  0  0  0  0  0  0  0  0  0  0
    8.5876  -13.6413   17.7903 C   0  0  0  0  0  0  0  0  0  0  0  0
    8.3457  -13.6823   16.4652 N   0  0  0  0  0  0  0  0  0  0  0  0
    7.8983  -14.9140   16.1583 C   0  0  0  0  0  0  0  0  0  0  0  0
    7.8628  -15.6332   17.2871 N   0  0  0  0  0  0  0  0  0  0  0  0
    9.3121  -14.8185   21.9455 C   0  0  0  0  0  0  0  0  0  0  0  0
    9.9917  -15.6579   22.5999 O   0  0  0  0  0  0  0  0  0  0  0  0
    8.4157  -14.0155   22.6713 N   0  0  0  0  0  0  0  0  0  0  0  0
    8.2615  -14.1378   24.1600 C   0  0  1  0  0  0  0  0  0  0  0  0
    7.2597  -13.1594   24.5967 C   0  0  0  0  0  0  0  0  0  0  0  0
    6.7586  -13.0450   25.9588 C   0  0  0  0  0  0  0  0  0  0  0  0
    6.6384  -11.7684   26.6785 C   0  0  0  0  0  0  0  0  0  0  0  0
    6.0765  -12.1412   28.0916 C   0  0  0  0  0  0  0  0  0  0  0  0
    6.0352  -10.9354   28.8702 N   0  0  0  0  0  0  0  0  0  0  0  0
    7.8834  -15.5624   24.3255 C   0  0  0  0  0  0  0  0  0  0  0  0
    8.0702  -16.1279   25.4709 O   0  0  0  0  0  0  0  0  0  0  0  0
    7.3338  -16.3876   23.3807 O   0  0  0  0  0  0  0  0  0  0  0  0
  1  2  1  0
  2  3  2  0
  4  5  1  0
  4  2  1  0
  5  6  1  0
  6  7  1  6
  8 10  1  0
  8  6  1  0
  9  8  2  0
 11 10  1  0
 12 13  1  0
 11 12  1  6
 13 17  1  0
 14 15  1  0
 14 13  2  0
 15 16  1  0
 16 17  2  0
 18 11  1  0
 18 19  2  0
 20 18  1  0
 21 20  1  0
 21 27  1  0
 21 22  1  6
 23 22  1  0
 24 23  1  0
 25 24  1  0
 26 25  1  0
 27 28  2  0
 27 29  1  0
M  END
$$$$
