QHK.pdb
     RDKit          3D

 29 29  0  0  1  0  0  0  0  0999 V2000
   16.3559  -18.6705   18.3770 N   0  0  0  0  0  0  0  0  0  0  0  0
   15.5495  -18.8237   17.1858 C   0  0  0  0  0  0  0  0  0  0  0  0
   16.1421  -19.3754   16.2377 O   0  0  0  0  0  0  0  0  0  0  0  0
   14.1675  -18.3322   17.2071 C   0  0  0  0  0  0  0  0  0  0  0  0
   13.6327  -17.7888   18.4724 C   0  0  0  0  0  0  0  0  0  0  0  0
   12.1866  -17.4657   18.5452 C   0  0  2  0  0  0  0  0  0  0  0  0
   11.8313  -16.8490   17.2609 N   0  0  0  0  0  0  0  0  0  0  0  0
   11.6950  -16.7367   19.7091 C   0  0  0  0  0  0  0  0  0  0  0  0
   12.4256  -15.9708   20.4145 O   0  0  0  0  0  0  0  0  0  0  0  0
   10.3387  -16.8552   20.1188 N   0  0  0  0  0  0  0  0  0  0  0  0
    9.7906  -16.1943   21.2831 C   0  0  1  0  0  0  0  0  0  0  0  0
    8.4448  -15.5931   21.0735 C   0  0  0  0  0  0  0  0  0  0  0  0
    8.4219  -14.4358   20.1697 C   0  0  0  0  0  0  0  0  0  0  0  0
    9.4582  -13.8588   19.4981 C   0  0  0  0  0  0  0  0  0  0  0  0
    8.9626  -12.8241   18.7911 N   0  0  0  0  0  0  0  0  0  0  0  0
    7.6376  -12.7570   19.0184 C   0  0  0  0  0  0  0  0  0  0  0  0
    7.3132  -13.7448   19.8620 N   0  0  0  0  0  0  0  0  0  0  0  0
    9.8818  -17.0395   22.4992 C   0  0  0  0  0  0  0  0  0  0  0  0
    9.6063  -18.2688   22.4112 O   0  0  0  0  0  0  0  0  0  0  0  0
   10.2600  -16.5574   23.7640 N   0  0  0  0  0  0  0  0  0  0  0  0
   10.4613  -17.4714   24.9383 C   0  0  1  0  0  0  0  0  0  0  0  0
   11.9001  -17.7160   25.0846 C   0  0  0  0  0  0  0  0  0  0  0  0
   12.4761  -18.9132   25.6800 C   0  0  0  0  0  0  0  0  0  0  0  0
   13.9209  -19.1812   25.7363 C   0  0  0  0  0  0  0  0  0  0  0  0
   14.0554  -20.5829   26.4208 C   0  0  0  0  0  0  0  0  0  0  0  0
   15.4559  -20.8889   26.5035 N   0  0  0  0  0  0  0  0  0  0  0  0
    9.8219  -16.7164   26.0434 C   0  0  0  0  0  0  0  0  0  0  0  0
    9.4558  -15.4963   25.8346 O   0  0  0  0  0  0  0  0  0  0  0  0
    9.5542  -17.1689   27.3080 O   0  0  0  0  0  0  0  0  0  0  0  0
  1  2  1  0
  2  3  2  0
  4  5  1  0
  4  2  1  0
  5  6  1  0
  6  7  1  6
  8 10  1  0
  8  6  1  0
  9  8  2  0
 11 10  1  0
 12 13  1  0
 11 12  1  6
 13 17  1  0
 14 15  1  0
 14 13  2  0
 15 16  1  0
 16 17  2  0
 18 11  1  0
 18 19  2  0
 20 18  1  0
 21 20  1  0
 21 27  1  0
 21 22  1  1
 23 22  1  0
 24 23  1  0
 25 24  1  0
 26 25  1  0
 27 28  2  0
 27 29  1  0
M  END
$$$$
