QHK.pdb
     RDKit          3D

 29 29  0  0  1  0  0  0  0  0999 V2000
   10.8452  -16.9426   13.4166 N   0  0  0  0  0  0  0  0  0  0  0  0
    9.6458  -16.6459   14.1691 C   0  0  0  0  0  0  0  0  0  0  0  0
    8.8907  -15.8207   13.6184 O   0  0  0  0  0  0  0  0  0  0  0  0
    9.4433  -17.3166   15.4580 C   0  0  0  0  0  0  0  0  0  0  0  0
   10.5371  -17.2809   16.4501 C   0  0  0  0  0  0  0  0  0  0  0  0
   10.2931  -17.8698   17.7897 C   0  0  2  0  0  0  0  0  0  0  0  0
    9.0239  -18.6026   17.6988 N   0  0  0  0  0  0  0  0  0  0  0  0
   10.3953  -17.0035   18.9589 C   0  0  0  0  0  0  0  0  0  0  0  0
   11.4071  -16.2718   19.2008 O   0  0  0  0  0  0  0  0  0  0  0  0
    9.3382  -16.9387   19.9075 N   0  0  0  0  0  0  0  0  0  0  0  0
    9.3696  -16.1052   21.0894 C   0  0  1  0  0  0  0  0  0  0  0  0
    8.2285  -15.1558   21.2039 C   0  0  0  0  0  0  0  0  0  0  0  0
    8.0448  -14.2720   20.0456 C   0  0  0  0  0  0  0  0  0  0  0  0
    8.5511  -13.0237   19.8378 C   0  0  0  0  0  0  0  0  0  0  0  0
    8.1152  -12.6000   18.6350 N   0  0  0  0  0  0  0  0  0  0  0  0
    7.3490  -13.5692   18.1011 C   0  0  0  0  0  0  0  0  0  0  0  0
    7.3097  -14.5887   18.9682 N   0  0  0  0  0  0  0  0  0  0  0  0
    9.6132  -16.8941   22.3223 C   0  0  0  0  0  0  0  0  0  0  0  0
    8.8046  -17.8145   22.6286 O   0  0  0  0  0  0  0  0  0  0  0  0
   10.7006  -16.6834   23.1873 N   0  0  0  0  0  0  0  0  0  0  0  0
   11.0550  -17.6568   24.2744 C   0  0  1  0  0  0  0  0  0  0  0  0
   12.4273  -18.1199   24.0424 C   0  0  0  0  0  0  0  0  0  0  0  0
   13.0335  -19.2657   24.7053 C   0  0  0  0  0  0  0  0  0  0  0  0
   14.4258  -19.6879   24.4923 C   0  0  0  0  0  0  0  0  0  0  0  0
   14.6288  -20.9300   25.4237 C   0  0  0  0  0  0  0  0  0  0  0  0
   15.9219  -21.4812   25.1305 N   0  0  0  0  0  0  0  0  0  0  0  0
   10.8471  -16.8523   25.5031 C   0  0  0  0  0  0  0  0  0  0  0  0
   10.8625  -15.5646   25.4150 O   0  0  0  0  0  0  0  0  0  0  0  0
   10.6264  -17.3206   26.7711 O   0  0  0  0  0  0  0  0  0  0  0  0
  1  2  1  0
  2  3  2  0
  4  5  1  0
  4  2  1  0
  5  6  1  0
  6  7  1  6
  8 10  1  0
  8  6  1  0
  9  8  2  0
 11 10  1  0
 12 13  1  0
 11 12  1  1
 13 17  1  0
 14 15  1  0
 14 13  2  0
 15 16  1  0
 16 17  2  0
 18 11  1  0
 18 19  2  0
 20 18  1  0
 21 20  1  0
 21 27  1  0
 21 22  1  6
 23 22  1  0
 24 23  1  0
 25 24  1  0
 26 25  1  0
 27 28  2  0
 27 29  1  0
M  END
$$$$
