QHK.pdb
     RDKit          3D

 29 29  0  0  1  0  0  0  0  0999 V2000
   15.4323  -15.4294   13.7911 N   0  0  0  0  0  0  0  0  0  0  0  0
   13.9936  -15.3185   13.6881 C   0  0  0  0  0  0  0  0  0  0  0  0
   13.5422  -15.5874   12.5575 O   0  0  0  0  0  0  0  0  0  0  0  0
   13.2351  -14.9137   14.8768 C   0  0  0  0  0  0  0  0  0  0  0  0
   13.9620  -14.7412   16.1511 C   0  0  0  0  0  0  0  0  0  0  0  0
   13.5967  -15.6131   17.2945 C   0  0  2  0  0  0  0  0  0  0  0  0
   12.7311  -16.6691   16.7544 N   0  0  0  0  0  0  0  0  0  0  0  0
   13.0832  -14.9885   18.5085 C   0  0  0  0  0  0  0  0  0  0  0  0
   13.5916  -13.9439   19.0264 O   0  0  0  0  0  0  0  0  0  0  0  0
   11.9604  -15.5371   19.1866 N   0  0  0  0  0  0  0  0  0  0  0  0
   11.5104  -15.0906   20.4869 C   0  0  1  0  0  0  0  0  0  0  0  0
   10.0318  -15.0933   20.6613 C   0  0  0  0  0  0  0  0  0  0  0  0
    9.3060  -14.1752   19.7741 C   0  0  0  0  0  0  0  0  0  0  0  0
    9.8087  -13.3033   18.8550 C   0  0  0  0  0  0  0  0  0  0  0  0
    8.7679  -12.6702   18.2789 N   0  0  0  0  0  0  0  0  0  0  0  0
    7.6335  -13.1402   18.8303 C   0  0  0  0  0  0  0  0  0  0  0  0
    7.9691  -14.0599   19.7438 N   0  0  0  0  0  0  0  0  0  0  0  0
   12.2408  -15.7610   21.5909 C   0  0  0  0  0  0  0  0  0  0  0  0
   12.6874  -16.9280   21.4081 O   0  0  0  0  0  0  0  0  0  0  0  0
   12.4735  -15.1763   22.8475 N   0  0  0  0  0  0  0  0  0  0  0  0
   13.0062  -15.9661   24.0082 C   0  0  1  0  0  0  0  0  0  0  0  0
   12.2238  -17.2021   24.1163 C   0  0  0  0  0  0  0  0  0  0  0  0
   11.4673  -17.5979   25.2956 C   0  0  0  0  0  0  0  0  0  0  0  0
   11.6298  -18.8939   25.9710 C   0  0  0  0  0  0  0  0  0  0  0  0
   10.5835  -18.8877   27.1358 C   0  0  0  0  0  0  0  0  0  0  0  0
   10.6087  -20.1882   27.7440 N   0  0  0  0  0  0  0  0  0  0  0  0
   14.4345  -16.1390   23.6476 C   0  0  0  0  0  0  0  0  0  0  0  0
   15.0124  -17.2628   23.9112 O   0  0  0  0  0  0  0  0  0  0  0  0
   15.2513  -15.2224   23.0405 O   0  0  0  0  0  0  0  0  0  0  0  0
  1  2  1  0
  2  3  2  0
  4  5  1  0
  4  2  1  0
  5  6  1  0
  6  7  1  6
  8 10  1  0
  8  6  1  0
  9  8  2  0
 11 10  1  0
 12 13  1  0
 11 12  1  1
 13 17  1  0
 14 15  1  0
 14 13  2  0
 15 16  1  0
 16 17  2  0
 18 11  1  0
 18 19  2  0
 20 18  1  0
 21 20  1  0
 21 27  1  0
 21 22  1  6
 23 22  1  0
 24 23  1  0
 25 24  1  0
 26 25  1  0
 27 28  2  0
 27 29  1  0
M  END
$$$$
