QHK.pdb
     RDKit          3D

 29 29  0  0  1  0  0  0  0  0999 V2000
    8.9518  -14.3519   15.3468 N   0  0  0  0  0  0  0  0  0  0  0  0
    7.6553  -14.6745   15.9018 C   0  0  0  0  0  0  0  0  0  0  0  0
    6.9511  -15.3929   15.1654 O   0  0  0  0  0  0  0  0  0  0  0  0
    7.3075  -14.1437   17.2244 C   0  0  0  0  0  0  0  0  0  0  0  0
    8.2282  -13.1797   17.8608 C   0  0  0  0  0  0  0  0  0  0  0  0
    9.3903  -13.7084   18.6164 C   0  0  2  0  0  0  0  0  0  0  0  0
   10.2814  -14.3315   17.6297 N   0  0  0  0  0  0  0  0  0  0  0  0
    9.1376  -14.5341   19.7920 C   0  0  0  0  0  0  0  0  0  0  0  0
    8.1638  -14.3398   20.5870 O   0  0  0  0  0  0  0  0  0  0  0  0
    9.9946  -15.6229   20.1108 N   0  0  0  0  0  0  0  0  0  0  0  0
    9.8067  -16.4838   21.2581 C   0  0  1  0  0  0  0  0  0  0  0  0
   10.6502  -17.7107   21.2521 C   0  0  0  0  0  0  0  0  0  0  0  0
   10.3777  -18.6501   22.3475 C   0  0  0  0  0  0  0  0  0  0  0  0
    9.3203  -18.6724   23.2072 C   0  0  0  0  0  0  0  0  0  0  0  0
    9.4950  -19.7139   24.0443 N   0  0  0  0  0  0  0  0  0  0  0  0
   10.6437  -20.3315   23.7117 C   0  0  0  0  0  0  0  0  0  0  0  0
   11.1787  -19.6764   22.6737 N   0  0  0  0  0  0  0  0  0  0  0  0
    9.8607  -15.7309   22.5356 C   0  0  0  0  0  0  0  0  0  0  0  0
   10.7456  -14.8424   22.6844 O   0  0  0  0  0  0  0  0  0  0  0  0
    8.9794  -15.9428   23.6097 N   0  0  0  0  0  0  0  0  0  0  0  0
    8.9627  -15.0483   24.8157 C   0  0  1  0  0  0  0  0  0  0  0  0
    7.7442  -14.2337   24.7627 C   0  0  0  0  0  0  0  0  0  0  0  0
    7.4213  -13.1715   25.7046 C   0  0  0  0  0  0  0  0  0  0  0  0
    6.0639  -12.9127   26.2072 C   0  0  0  0  0  0  0  0  0  0  0  0
    6.2058  -11.6860   27.1698 C   0  0  0  0  0  0  0  0  0  0  0  0
    4.8963  -11.3799   27.6730 N   0  0  0  0  0  0  0  0  0  0  0  0
    9.0385  -16.0196   25.9342 C   0  0  0  0  0  0  0  0  0  0  0  0
    8.4430  -17.1584   25.8122 O   0  0  0  0  0  0  0  0  0  0  0  0
    9.6912  -15.8581   27.1274 O   0  0  0  0  0  0  0  0  0  0  0  0
  1  2  1  0
  2  3  2  0
  4  5  1  0
  4  2  1  0
  5  6  1  0
  6  7  1  6
  8 10  1  0
  8  6  1  0
  9  8  2  0
 11 10  1  0
 12 13  1  0
 11 12  1  1
 13 17  1  0
 14 15  1  0
 14 13  2  0
 15 16  1  0
 16 17  2  0
 18 11  1  0
 18 19  2  0
 20 18  1  0
 21 20  1  0
 21 27  1  0
 21 22  1  1
 23 22  1  0
 24 23  1  0
 25 24  1  0
 26 25  1  0
 27 28  2  0
 27 29  1  0
M  END
$$$$
