ENN.pdb
     RDKit          3D

 26 25  0  0  1  0  0  0  0  0999 V2000
    8.6816  -19.3654   19.2890 N   0  0  0  0  0  0  0  0  0  0  0  0
    9.6938  -18.3700   18.8983 C   0  0  1  0  0  0  0  0  0  0  0  0
    9.8410  -18.3476   17.4131 C   0  0  0  0  0  0  0  0  0  0  0  0
    8.5384  -18.6404   16.7332 C   0  0  0  0  0  0  0  0  0  0  0  0
    8.5532  -18.2298   15.3039 C   0  0  0  0  0  0  0  0  0  0  0  0
    9.4061  -18.5879   14.4652 O   0  0  0  0  0  0  0  0  0  0  0  0
    9.2837  -17.0806   19.5041 C   0  0  0  0  0  0  0  0  0  0  0  0
    9.9091  -15.9910   19.2653 O   0  0  0  0  0  0  0  0  0  0  0  0
    7.5533  -17.3746   14.8104 O   0  0  0  0  0  0  0  0  0  0  0  0
    6.4550  -17.7919   22.5590 N   0  0  0  0  0  0  0  0  0  0  0  0
    5.7909  -16.6627   22.0199 C   0  0  0  0  0  0  0  0  0  0  0  0
    4.5443  -16.6151   22.2254 O   0  0  0  0  0  0  0  0  0  0  0  0
    6.4982  -15.6008   21.2632 C   0  0  0  0  0  0  0  0  0  0  0  0
    7.9789  -15.8896   21.2158 C   0  0  2  0  0  0  0  0  0  0  0  0
    8.1711  -17.0430   20.3718 N   0  0  0  0  0  0  0  0  0  0  0  0
    8.5012  -16.2514   22.5711 C   0  0  0  0  0  0  0  0  0  0  0  0
    8.4628  -15.4078   23.5157 O   0  0  0  0  0  0  0  0  0  0  0  0
    7.6758  -17.1889   25.7590 N   0  0  0  0  0  0  0  0  0  0  0  0
    8.0510  -18.5551   25.7369 C   0  0  0  0  0  0  0  0  0  0  0  0
    7.4248  -19.3909   26.4607 O   0  0  0  0  0  0  0  0  0  0  0  0
    9.1704  -18.9703   24.8638 C   0  0  0  0  0  0  0  0  0  0  0  0
    9.7159  -17.7606   24.1500 C   0  0  2  0  0  0  0  0  0  0  0  0
    9.0578  -17.5096   22.8983 N   0  0  0  0  0  0  0  0  0  0  0  0
   11.1756  -18.0500   23.9097 C   0  0  0  0  0  0  0  0  0  0  0  0
   11.6568  -18.1201   22.7608 O   0  0  0  0  0  0  0  0  0  0  0  0
   12.0003  -18.2428   24.9992 O   0  0  0  0  0  0  0  0  0  0  0  0
  2  1  1  6
  3  2  1  0
  4  3  1  0
  5  4  1  0
  5  6  2  0
  7  2  1  0
  7  8  2  0
  9  5  1  0
 10 11  1  0
 11 13  1  0
 12 11  2  0
 14 13  1  1
 14 15  1  0
 15  7  1  0
 16 14  1  0
 17 16  2  0
 19 21  1  0
 19 18  1  0
 20 19  2  0
 22 23  1  0
 22 21  1  6
 23 16  1  0
 24 22  1  0
 25 24  2  0
 26 24  1  0
M  END
$$$$
