ENN.pdb
     RDKit          3D

 26 25  0  0  1  0  0  0  0  0999 V2000
   12.6252  -17.3938   17.4389 N   0  0  0  0  0  0  0  0  0  0  0  0
   12.2674  -16.0411   16.9808 C   0  0  1  0  0  0  0  0  0  0  0  0
   11.2734  -16.1245   15.8705 C   0  0  0  0  0  0  0  0  0  0  0  0
   10.9695  -14.7688   15.3098 C   0  0  0  0  0  0  0  0  0  0  0  0
    9.9496  -14.8303   14.2292 C   0  0  0  0  0  0  0  0  0  0  0  0
   10.1983  -15.0180   13.0201 O   0  0  0  0  0  0  0  0  0  0  0  0
   11.8079  -15.2915   18.1744 C   0  0  0  0  0  0  0  0  0  0  0  0
   12.5102  -14.3621   18.7020 O   0  0  0  0  0  0  0  0  0  0  0  0
    8.5886  -14.6710   14.5407 O   0  0  0  0  0  0  0  0  0  0  0  0
    8.3254  -12.4082   18.9514 N   0  0  0  0  0  0  0  0  0  0  0  0
    8.2339  -13.8137   18.7994 C   0  0  0  0  0  0  0  0  0  0  0  0
    7.7894  -14.2127   17.6850 O   0  0  0  0  0  0  0  0  0  0  0  0
    8.6292  -14.7642   19.8674 C   0  0  0  0  0  0  0  0  0  0  0  0
   10.1323  -14.8866   19.9292 C   0  0  2  0  0  0  0  0  0  0  0  0
   10.5597  -15.6048   18.7540 N   0  0  0  0  0  0  0  0  0  0  0  0
   10.5588  -15.6978   21.1128 C   0  0  0  0  0  0  0  0  0  0  0  0
   10.2502  -16.9242   21.1904 O   0  0  0  0  0  0  0  0  0  0  0  0
   13.7063  -16.5051   21.7056 N   0  0  0  0  0  0  0  0  0  0  0  0
   14.0683  -15.9260   22.9471 C   0  0  0  0  0  0  0  0  0  0  0  0
   15.2917  -15.6928   23.1992 O   0  0  0  0  0  0  0  0  0  0  0  0
   13.0012  -15.6075   23.9205 C   0  0  0  0  0  0  0  0  0  0  0  0
   11.6668  -15.9890   23.3340 C   0  0  2  0  0  0  0  0  0  0  0  0
   11.3090  -15.1871   22.1974 N   0  0  0  0  0  0  0  0  0  0  0  0
   10.6607  -15.7863   24.4381 C   0  0  0  0  0  0  0  0  0  0  0  0
    9.7813  -14.9033   24.3793 O   0  0  0  0  0  0  0  0  0  0  0  0
   10.7198  -16.6065   25.5462 O   0  0  0  0  0  0  0  0  0  0  0  0
  2  1  1  1
  3  2  1  0
  4  3  1  0
  5  4  1  0
  5  6  2  0
  7  2  1  0
  7  8  2  0
  9  5  1  0
 10 11  1  0
 11 13  1  0
 12 11  2  0
 14 13  1  6
 14 15  1  0
 15  7  1  0
 16 14  1  0
 17 16  2  0
 19 21  1  0
 19 18  1  0
 20 19  2  0
 22 23  1  0
 22 21  1  1
 23 16  1  0
 24 22  1  0
 25 24  2  0
 26 24  1  0
M  END
$$$$
