ENN.pdb
     RDKit          3D

 26 25  0  0  1  0  0  0  0  0999 V2000
    8.7886  -17.8518   20.8137 N   0  0  0  0  0  0  0  0  0  0  0  0
    7.3826  -17.4858   21.0526 C   0  0  1  0  0  0  0  0  0  0  0  0
    6.4844  -18.3412   20.2224 C   0  0  0  0  0  0  0  0  0  0  0  0
    7.2018  -19.5577   19.7222 C   0  0  0  0  0  0  0  0  0  0  0  0
    6.3151  -20.4293   18.9062 C   0  0  0  0  0  0  0  0  0  0  0  0
    5.8290  -20.1190   17.7986 O   0  0  0  0  0  0  0  0  0  0  0  0
    7.1574  -17.5798   22.5148 C   0  0  0  0  0  0  0  0  0  0  0  0
    6.0201  -17.3270   23.0424 O   0  0  0  0  0  0  0  0  0  0  0  0
    5.9679  -21.7084   19.3730 O   0  0  0  0  0  0  0  0  0  0  0  0
    6.7722  -21.4034   24.0948 N   0  0  0  0  0  0  0  0  0  0  0  0
    6.9507  -20.3386   25.0120 C   0  0  0  0  0  0  0  0  0  0  0  0
    5.9546  -20.0806   25.7467 O   0  0  0  0  0  0  0  0  0  0  0  0
    8.2154  -19.5700   25.1136 C   0  0  0  0  0  0  0  0  0  0  0  0
    7.9755  -18.1198   24.7709 C   0  0  2  0  0  0  0  0  0  0  0  0
    8.2228  -17.9589   23.3593 N   0  0  0  0  0  0  0  0  0  0  0  0
    8.9440  -17.2298   25.4856 C   0  0  0  0  0  0  0  0  0  0  0  0
    9.6415  -16.3946   24.8365 O   0  0  0  0  0  0  0  0  0  0  0  0
   11.0931  -13.3549   27.9364 N   0  0  0  0  0  0  0  0  0  0  0  0
   10.1555  -14.1275   28.6655 C   0  0  0  0  0  0  0  0  0  0  0  0
   10.1138  -14.0346   29.9322 O   0  0  0  0  0  0  0  0  0  0  0  0
    9.2454  -15.0265   27.9232 C   0  0  0  0  0  0  0  0  0  0  0  0
    9.9879  -16.2833   27.5497 C   0  0  2  0  0  0  0  0  0  0  0  0
    9.1541  -17.2448   26.8840 N   0  0  0  0  0  0  0  0  0  0  0  0
   10.4959  -16.8600   28.8465 C   0  0  0  0  0  0  0  0  0  0  0  0
   11.3523  -16.2761   29.5409 O   0  0  0  0  0  0  0  0  0  0  0  0
    9.9941  -18.0725   29.2734 O   0  0  0  0  0  0  0  0  0  0  0  0
  2  1  1  1
  3  2  1  0
  4  3  1  0
  5  4  1  0
  5  6  2  0
  7  2  1  0
  7  8  2  0
  9  5  1  0
 10 11  1  0
 11 13  1  0
 12 11  2  0
 14 13  1  1
 14 15  1  0
 15  7  1  0
 16 14  1  0
 17 16  2  0
 19 21  1  0
 19 18  1  0
 20 19  2  0
 22 23  1  0
 22 21  1  1
 23 16  1  0
 24 22  1  0
 25 24  2  0
 26 24  1  0
M  END
$$$$
