ENN.pdb
     RDKit          3D

 26 25  0  0  1  0  0  0  0  0999 V2000
   10.1854  -17.1086   15.7290 N   0  0  0  0  0  0  0  0  0  0  0  0
   11.6130  -16.8079   15.9274 C   0  0  1  0  0  0  0  0  0  0  0  0
   12.1758  -16.1707   14.7006 C   0  0  0  0  0  0  0  0  0  0  0  0
   11.3738  -16.5268   13.4863 C   0  0  0  0  0  0  0  0  0  0  0  0
   11.9656  -15.9619   12.2443 C   0  0  0  0  0  0  0  0  0  0  0  0
   11.3299  -15.7068   11.2003 O   0  0  0  0  0  0  0  0  0  0  0  0
   11.7115  -15.9871   17.1579 C   0  0  0  0  0  0  0  0  0  0  0  0
   12.8126  -15.4529   17.5292 O   0  0  0  0  0  0  0  0  0  0  0  0
   13.3405  -15.6761   12.1907 O   0  0  0  0  0  0  0  0  0  0  0  0
    7.6374  -13.9300   17.7070 N   0  0  0  0  0  0  0  0  0  0  0  0
    8.6227  -13.6062   18.6719 C   0  0  0  0  0  0  0  0  0  0  0  0
    8.9452  -12.3851   18.7316 O   0  0  0  0  0  0  0  0  0  0  0  0
    9.2426  -14.6213   19.5583 C   0  0  0  0  0  0  0  0  0  0  0  0
   10.6504  -14.9224   19.1051 C   0  0  2  0  0  0  0  0  0  0  0  0
   10.5620  -15.7825   17.9509 N   0  0  0  0  0  0  0  0  0  0  0  0
   11.4040  -15.6793   20.1539 C   0  0  0  0  0  0  0  0  0  0  0  0
   11.2517  -16.9317   20.2701 O   0  0  0  0  0  0  0  0  0  0  0  0
   15.0608  -17.5960   22.9857 N   0  0  0  0  0  0  0  0  0  0  0  0
   15.1866  -16.1954   23.1593 C   0  0  0  0  0  0  0  0  0  0  0  0
   15.9256  -15.7408   24.0877 O   0  0  0  0  0  0  0  0  0  0  0  0
   14.4474  -15.2971   22.2460 C   0  0  0  0  0  0  0  0  0  0  0  0
   13.0691  -15.8579   22.0091 C   0  0  2  0  0  0  0  0  0  0  0  0
   12.3099  -15.0872   21.0643 N   0  0  0  0  0  0  0  0  0  0  0  0
   12.3827  -15.8392   23.3511 C   0  0  0  0  0  0  0  0  0  0  0  0
   11.4329  -15.0691   23.5989 O   0  0  0  0  0  0  0  0  0  0  0  0
   12.8237  -16.7035   24.3322 O   0  0  0  0  0  0  0  0  0  0  0  0
  2  1  1  6
  3  2  1  0
  4  3  1  0
  5  4  1  0
  5  6  2  0
  7  2  1  0
  7  8  2  0
  9  5  1  0
 10 11  1  0
 11 13  1  0
 12 11  2  0
 14 13  1  1
 14 15  1  0
 15  7  1  0
 16 14  1  0
 17 16  2  0
 19 21  1  0
 19 18  1  0
 20 19  2  0
 22 23  1  0
 22 21  1  1
 23 16  1  0
 24 22  1  0
 25 24  2  0
 26 24  1  0
M  END
$$$$
