ENN.pdb
     RDKit          3D

 26 25  0  0  1  0  0  0  0  0999 V2000
    8.7360  -13.2369   17.4218 N   0  0  0  0  0  0  0  0  0  0  0  0
    9.4469  -14.2268   18.2480 C   0  0  1  0  0  0  0  0  0  0  0  0
   10.9216  -14.0536   18.0963 C   0  0  0  0  0  0  0  0  0  0  0  0
   11.3878  -14.5171   16.7500 C   0  0  0  0  0  0  0  0  0  0  0  0
   12.8658  -14.4263   16.6123 C   0  0  0  0  0  0  0  0  0  0  0  0
   13.5089  -13.3633   16.4870 O   0  0  0  0  0  0  0  0  0  0  0  0
    8.9400  -14.0731   19.6326 C   0  0  0  0  0  0  0  0  0  0  0  0
    8.0931  -13.1679   19.9471 O   0  0  0  0  0  0  0  0  0  0  0  0
   13.6431  -15.5969   16.6175 O   0  0  0  0  0  0  0  0  0  0  0  0
    5.2059  -17.2287   21.7957 N   0  0  0  0  0  0  0  0  0  0  0  0
    6.3937  -16.5224   22.1071 C   0  0  0  0  0  0  0  0  0  0  0  0
    6.6603  -16.4226   23.3390 O   0  0  0  0  0  0  0  0  0  0  0  0
    7.2738  -15.9342   21.0680 C   0  0  0  0  0  0  0  0  0  0  0  0
    8.4997  -15.3251   21.7038 C   0  0  2  0  0  0  0  0  0  0  0  0
    9.3989  -14.9466   20.6418 N   0  0  0  0  0  0  0  0  0  0  0  0
    9.2230  -16.3270   22.5487 C   0  0  0  0  0  0  0  0  0  0  0  0
    9.1356  -17.5636   22.2874 O   0  0  0  0  0  0  0  0  0  0  0  0
   14.4481  -17.2898   23.5887 N   0  0  0  0  0  0  0  0  0  0  0  0
   13.5407  -16.8444   24.5816 C   0  0  0  0  0  0  0  0  0  0  0  0
   13.7004  -17.2091   25.7884 O   0  0  0  0  0  0  0  0  0  0  0  0
   12.4252  -15.9604   24.1795 C   0  0  0  0  0  0  0  0  0  0  0  0
   11.1662  -16.7787   24.0540 C   0  0  2  0  0  0  0  0  0  0  0  0
   10.0294  -15.9935   23.6616 N   0  0  0  0  0  0  0  0  0  0  0  0
   10.9276  -17.3756   25.4175 C   0  0  0  0  0  0  0  0  0  0  0  0
   11.3823  -18.4914   25.7411 O   0  0  0  0  0  0  0  0  0  0  0  0
   10.1817  -16.6603   26.3319 O   0  0  0  0  0  0  0  0  0  0  0  0
  2  1  1  6
  3  2  1  0
  4  3  1  0
  5  4  1  0
  5  6  2  0
  7  2  1  0
  7  8  2  0
  9  5  1  0
 10 11  1  0
 11 13  1  0
 12 11  2  0
 14 13  1  6
 14 15  1  0
 15  7  1  0
 16 14  1  0
 17 16  2  0
 19 21  1  0
 19 18  1  0
 20 19  2  0
 22 23  1  0
 22 21  1  1
 23 16  1  0
 24 22  1  0
 25 24  2  0
 26 24  1  0
M  END
$$$$
