STM.pdb
     RDKit          3D

 22 21  0  0  1  0  0  0  0  0999 V2000
   14.9808  -11.7262  -10.3454 O   0  0  0  0  0  0  0  0  0  0  0  0
   15.8348  -11.4808  -11.4154 C   0  0  0  0  0  0  0  0  0  0  0  0
   15.0222  -11.1858  -12.6643 C   0  0  2  0  0  0  0  0  0  0  0  0
   14.2572  -12.3586  -12.9999 N   0  0  0  0  0  0  0  0  0  0  0  0
   15.8741  -10.7764  -13.7895 C   0  0  0  0  0  0  0  0  0  0  0  0
   16.2218  -11.5777  -14.6898 O   0  0  0  0  0  0  0  0  0  0  0  0
   17.1444   -7.0760  -16.6719 C   0  0  0  0  0  0  0  0  0  0  0  0
   16.3459   -7.7208  -15.5388 C   0  0  1  0  0  0  0  0  0  0  0  0
   15.1564   -8.1667  -16.1076 O   0  0  0  0  0  0  0  0  0  0  0  0
   17.1207   -8.9020  -14.9503 C   0  0  2  0  0  0  0  0  0  0  0  0
   16.3324   -9.4447  -13.8887 N   0  0  0  0  0  0  0  0  0  0  0  0
   18.4733   -8.5106  -14.5483 C   0  0  0  0  0  0  0  0  0  0  0  0
   18.6455   -7.6980  -13.6056 O   0  0  0  0  0  0  0  0  0  0  0  0
   25.2050  -11.7421  -14.7145 C   0  0  0  0  0  0  0  0  0  0  0  0
   24.6583  -10.3145  -15.6160 S   0  0  0  0  0  0  0  0  0  0  0  0
   23.3911   -9.3131  -14.8552 C   0  0  0  0  0  0  0  0  0  0  0  0
   21.9985   -9.5430  -15.3161 C   0  0  0  0  0  0  0  0  0  0  0  0
   20.9740   -8.6649  -14.6968 C   0  0  2  0  0  0  0  0  0  0  0  0
   19.6363   -9.0173  -15.1885 N   0  0  0  0  0  0  0  0  0  0  0  0
   21.2245   -7.2255  -14.8134 C   0  0  0  0  0  0  0  0  0  0  0  0
   21.7718   -6.5002  -13.9592 O   0  0  0  0  0  0  0  0  0  0  0  0
   20.8148   -6.5768  -15.9987 O   0  0  0  0  0  0  0  0  0  0  0  0
  2  1  1  0
  3  5  1  0
  3  2  1  0
  3  4  1  6
  5 11  1  0
  6  5  2  0
  8  7  1  6
  9  8  1  0
 10 12  1  0
 10  8  1  0
 10 11  1  1
 12 19  1  0
 12 13  2  0
 15 14  1  0
 15 16  1  0
 16 17  1  0
 18 17  1  6
 18 20  1  0
 19 18  1  0
 20 21  2  0
 20 22  1  0
M  END
$$$$
