STM.pdb
     RDKit          3D

 22 21  0  0  1  0  0  0  0  0999 V2000
   16.0924  -10.5002  -16.9795 O   0  0  0  0  0  0  0  0  0  0  0  0
   16.3010  -10.3428  -15.6135 C   0  0  0  0  0  0  0  0  0  0  0  0
   17.7731  -10.5363  -15.2929 C   0  0  2  0  0  0  0  0  0  0  0  0
   18.1204  -11.9099  -15.5495 N   0  0  0  0  0  0  0  0  0  0  0  0
   18.0858  -10.1674  -13.9052 C   0  0  0  0  0  0  0  0  0  0  0  0
   18.0739  -11.0060  -12.9724 O   0  0  0  0  0  0  0  0  0  0  0  0
   21.0756   -8.0626  -12.9376 C   0  0  0  0  0  0  0  0  0  0  0  0
   19.8450   -7.3497  -12.3767 C   0  0  1  0  0  0  0  0  0  0  0  0
   19.5395   -6.3351  -13.2793 O   0  0  0  0  0  0  0  0  0  0  0  0
   18.6711   -8.3257  -12.2682 C   0  0  2  0  0  0  0  0  0  0  0  0
   18.4141   -8.8334  -13.5792 N   0  0  0  0  0  0  0  0  0  0  0  0
   17.5094   -7.7001  -11.6329 C   0  0  0  0  0  0  0  0  0  0  0  0
   16.6497   -7.1037  -12.3284 O   0  0  0  0  0  0  0  0  0  0  0  0
   11.3729   -7.7261   -6.9585 C   0  0  0  0  0  0  0  0  0  0  0  0
   12.8368   -8.4504   -7.6529 S   0  0  0  0  0  0  0  0  0  0  0  0
   14.0416   -7.3317   -8.3490 C   0  0  0  0  0  0  0  0  0  0  0  0
   15.2524   -7.9494   -8.9465 C   0  0  0  0  0  0  0  0  0  0  0  0
   16.1760   -7.0045   -9.6235 C   0  0  2  0  0  0  0  0  0  0  0  0
   17.2977   -7.7337  -10.2282 N   0  0  0  0  0  0  0  0  0  0  0  0
   16.6464   -5.8858   -8.8016 C   0  0  0  0  0  0  0  0  0  0  0  0
   17.7581   -5.7967   -8.2435 O   0  0  0  0  0  0  0  0  0  0  0  0
   15.7733   -4.7929   -8.6099 O   0  0  0  0  0  0  0  0  0  0  0  0
  2  1  1  0
  3  5  1  0
  3  2  1  0
  3  4  1  1
  5 11  1  0
  6  5  2  0
  8  7  1  6
  9  8  1  0
 10 12  1  0
 10  8  1  0
 10 11  1  6
 12 19  1  0
 12 13  2  0
 15 14  1  0
 15 16  1  0
 16 17  1  0
 18 17  1  1
 18 20  1  0
 19 18  1  0
 20 21  2  0
 20 22  1  0
M  END
$$$$
