STM.pdb
     RDKit          3D

 22 21  0  0  1  0  0  0  0  0999 V2000
   20.5421  -20.2680  -11.6790 O   0  0  0  0  0  0  0  0  0  0  0  0
   21.4885  -20.1626  -12.6927 C   0  0  0  0  0  0  0  0  0  0  0  0
   20.8224  -20.3732  -14.0415 C   0  0  2  0  0  0  0  0  0  0  0  0
   20.3915  -21.7443  -14.1297 N   0  0  0  0  0  0  0  0  0  0  0  0
   21.7185  -20.0330  -15.1554 C   0  0  0  0  0  0  0  0  0  0  0  0
   22.5571  -20.8475  -15.6104 O   0  0  0  0  0  0  0  0  0  0  0  0
   20.8470  -16.3591  -17.1705 C   0  0  0  0  0  0  0  0  0  0  0  0
   21.3714  -17.6302  -17.8389 C   0  0  1  0  0  0  0  0  0  0  0  0
   22.0059  -17.2202  -19.0079 O   0  0  0  0  0  0  0  0  0  0  0  0
   22.3704  -18.3379  -16.9207 C   0  0  2  0  0  0  0  0  0  0  0  0
   21.6579  -18.7559  -15.7543 N   0  0  0  0  0  0  0  0  0  0  0  0
   23.5325  -17.4928  -16.6383 C   0  0  0  0  0  0  0  0  0  0  0  0
   23.4765  -16.6152  -15.7409 O   0  0  0  0  0  0  0  0  0  0  0  0
   31.3619  -16.2227  -17.8184 C   0  0  0  0  0  0  0  0  0  0  0  0
   29.8858  -17.1746  -18.0725 S   0  0  0  0  0  0  0  0  0  0  0  0
   28.3805  -16.5424  -17.3499 C   0  0  0  0  0  0  0  0  0  0  0  0
   27.1614  -17.3716  -17.5257 C   0  0  0  0  0  0  0  0  0  0  0  0
   25.9063  -16.7681  -17.0114 C   0  0  2  0  0  0  0  0  0  0  0  0
   24.7572  -17.6176  -17.3480 N   0  0  0  0  0  0  0  0  0  0  0  0
   25.6725  -15.3741  -17.3994 C   0  0  0  0  0  0  0  0  0  0  0  0
   25.9651  -14.3631  -16.7305 O   0  0  0  0  0  0  0  0  0  0  0  0
   25.0580  -15.1289  -18.6467 O   0  0  0  0  0  0  0  0  0  0  0  0
  2  1  1  0
  3  5  1  0
  3  2  1  0
  3  4  1  6
  5 11  1  0
  6  5  2  0
  8  7  1  1
  9  8  1  0
 10 12  1  0
 10  8  1  0
 10 11  1  1
 12 19  1  0
 12 13  2  0
 15 14  1  0
 15 16  1  0
 16 17  1  0
 18 17  1  6
 18 20  1  0
 19 18  1  0
 20 21  2  0
 20 22  1  0
M  END
$$$$
