STM.pdb
     RDKit          3D

 22 21  0  0  1  0  0  0  0  0999 V2000
   27.4814  -15.9145  -14.9762 O   0  0  0  0  0  0  0  0  0  0  0  0
   26.4650  -15.5612  -15.8574 C   0  0  0  0  0  0  0  0  0  0  0  0
   25.2161  -16.3703  -15.5524 C   0  0  2  0  0  0  0  0  0  0  0  0
   25.5412  -17.7693  -15.6548 N   0  0  0  0  0  0  0  0  0  0  0  0
   24.1049  -16.0237  -16.4493 C   0  0  0  0  0  0  0  0  0  0  0  0
   23.6103  -16.8523  -17.2509 O   0  0  0  0  0  0  0  0  0  0  0  0
   21.5230  -16.6424  -16.9985 C   0  0  0  0  0  0  0  0  0  0  0  0
   21.2251  -15.1744  -16.6926 C   0  0  1  0  0  0  0  0  0  0  0  0
   21.0687  -15.0899  -15.3121 O   0  0  0  0  0  0  0  0  0  0  0  0
   22.3916  -14.2922  -17.1429 C   0  0  2  0  0  0  0  0  0  0  0  0
   23.5540  -14.7239  -16.4320 N   0  0  0  0  0  0  0  0  0  0  0  0
   22.0851  -12.8699  -16.9764 C   0  0  0  0  0  0  0  0  0  0  0  0
   22.2102  -12.3205  -15.8534 O   0  0  0  0  0  0  0  0  0  0  0  0
   22.8049   -6.9730  -20.9874 C   0  0  0  0  0  0  0  0  0  0  0  0
   21.1755   -7.5047  -20.5268 S   0  0  0  0  0  0  0  0  0  0  0  0
   21.0285   -8.4509  -19.0199 C   0  0  0  0  0  0  0  0  0  0  0  0
   21.3009   -9.9069  -19.1220 C   0  0  0  0  0  0  0  0  0  0  0  0
   21.3119  -10.6404  -17.8313 C   0  0  2  0  0  0  0  0  0  0  0  0
   21.6400  -12.0544  -18.0516 N   0  0  0  0  0  0  0  0  0  0  0  0
   20.1051  -10.4928  -17.0126 C   0  0  0  0  0  0  0  0  0  0  0  0
   19.1041  -11.2363  -17.0333 O   0  0  0  0  0  0  0  0  0  0  0  0
   20.0488   -9.4116  -16.1064 O   0  0  0  0  0  0  0  0  0  0  0  0
  2  1  1  0
  3  5  1  0
  3  2  1  0
  3  4  1  6
  5 11  1  0
  6  5  2  0
  8  7  1  1
  9  8  1  0
 10 12  1  0
 10  8  1  0
 10 11  1  1
 12 19  1  0
 12 13  2  0
 15 14  1  0
 15 16  1  0
 16 17  1  0
 18 17  1  6
 18 20  1  0
 19 18  1  0
 20 21  2  0
 20 22  1  0
M  END
$$$$
