STM.pdb
     RDKit          3D

 22 21  0  0  1  0  0  0  0  0999 V2000
   20.1408  -15.8743  -15.7591 O   0  0  0  0  0  0  0  0  0  0  0  0
   20.4415  -14.6067  -16.2461 C   0  0  0  0  0  0  0  0  0  0  0  0
   19.1678  -13.9158  -16.7020 C   0  0  2  0  0  0  0  0  0  0  0  0
   18.6721  -14.5954  -17.8706 N   0  0  0  0  0  0  0  0  0  0  0  0
   19.3861  -12.4892  -16.9788 C   0  0  0  0  0  0  0  0  0  0  0  0
   19.9616  -12.0915  -18.0200 O   0  0  0  0  0  0  0  0  0  0  0  0
   17.4446   -9.8116  -14.3486 C   0  0  0  0  0  0  0  0  0  0  0  0
   17.8210   -9.4241  -15.7788 C   0  0  1  0  0  0  0  0  0  0  0  0
   17.9759   -8.0408  -15.7779 O   0  0  0  0  0  0  0  0  0  0  0  0
   19.1344  -10.0983  -16.1821 C   0  0  2  0  0  0  0  0  0  0  0  0
   18.9452  -11.5099  -16.0623 N   0  0  0  0  0  0  0  0  0  0  0  0
   20.2641   -9.5805  -15.4074 C   0  0  0  0  0  0  0  0  0  0  0  0
   20.6860  -10.2070  -14.4034 O   0  0  0  0  0  0  0  0  0  0  0  0
   26.1975  -11.0779  -14.7444 C   0  0  0  0  0  0  0  0  0  0  0  0
   25.9971   -9.4754  -15.4804 S   0  0  0  0  0  0  0  0  0  0  0  0
   24.6139   -8.4949  -14.9209 C   0  0  0  0  0  0  0  0  0  0  0  0
   23.3259   -8.6996  -15.6308 C   0  0  0  0  0  0  0  0  0  0  0  0
   22.1637   -7.9789  -15.0529 C   0  0  2  0  0  0  0  0  0  0  0  0
   20.9277   -8.3695  -15.7424 N   0  0  0  0  0  0  0  0  0  0  0  0
   22.2984   -6.5210  -14.9819 C   0  0  0  0  0  0  0  0  0  0  0  0
   23.1156   -5.8888  -14.2836 O   0  0  0  0  0  0  0  0  0  0  0  0
   21.4293   -5.7373  -15.7719 O   0  0  0  0  0  0  0  0  0  0  0  0
  2  1  1  0
  3  5  1  0
  3  2  1  0
  3  4  1  6
  5 11  1  0
  6  5  2  0
  8  7  1  1
  9  8  1  0
 10 12  1  0
 10  8  1  0
 10 11  1  1
 12 19  1  0
 12 13  2  0
 15 14  1  0
 15 16  1  0
 16 17  1  0
 18 17  1  6
 18 20  1  0
 19 18  1  0
 20 21  2  0
 20 22  1  0
M  END
$$$$
