STM.pdb
     RDKit          3D

 22 21  0  0  1  0  0  0  0  0999 V2000
   25.9462  -21.2619  -19.3486 O   0  0  0  0  0  0  0  0  0  0  0  0
   26.2233  -22.4703  -18.7182 C   0  0  0  0  0  0  0  0  0  0  0  0
   27.4076  -22.3018  -17.7821 C   0  0  2  0  0  0  0  0  0  0  0  0
   27.9326  -20.9708  -17.9437 N   0  0  0  0  0  0  0  0  0  0  0  0
   28.4490  -23.3091  -18.0276 C   0  0  0  0  0  0  0  0  0  0  0  0
   29.6403  -22.9943  -18.2628 O   0  0  0  0  0  0  0  0  0  0  0  0
   30.6772  -24.2367  -16.9091 C   0  0  0  0  0  0  0  0  0  0  0  0
   30.0209  -25.6173  -16.8874 C   0  0  1  0  0  0  0  0  0  0  0  0
   29.3162  -25.6929  -15.6895 O   0  0  0  0  0  0  0  0  0  0  0  0
   29.0614  -25.7663  -18.0703 C   0  0  2  0  0  0  0  0  0  0  0  0
   28.1299  -24.6842  -18.0047 N   0  0  0  0  0  0  0  0  0  0  0  0
   28.4363  -27.0904  -18.0915 C   0  0  0  0  0  0  0  0  0  0  0  0
   27.2210  -27.2237  -17.8020 O   0  0  0  0  0  0  0  0  0  0  0  0
   30.9115  -30.8931  -23.2932 C   0  0  0  0  0  0  0  0  0  0  0  0
   30.5124  -31.3516  -21.6258 S   0  0  0  0  0  0  0  0  0  0  0  0
   29.5914  -30.1666  -20.6588 C   0  0  0  0  0  0  0  0  0  0  0  0
   29.2966  -30.5437  -19.2532 C   0  0  0  0  0  0  0  0  0  0  0  0
   28.4741  -29.5672  -18.4955 C   0  0  2  0  0  0  0  0  0  0  0  0
   29.1548  -28.2679  -18.4329 N   0  0  0  0  0  0  0  0  0  0  0  0
   28.0387  -30.0073  -17.1669 C   0  0  0  0  0  0  0  0  0  0  0  0
   28.4707  -29.5911  -16.0735 O   0  0  0  0  0  0  0  0  0  0  0  0
   27.0345  -30.9971  -17.0942 O   0  0  0  0  0  0  0  0  0  0  0  0
  2  1  1  0
  3  5  1  0
  3  2  1  0
  3  4  1  6
  5 11  1  0
  6  5  2  0
  8  7  1  6
  9  8  1  0
 10 12  1  0
 10  8  1  0
 10 11  1  1
 12 19  1  0
 12 13  2  0
 15 14  1  0
 15 16  1  0
 16 17  1  0
 18 17  1  1
 18 20  1  0
 19 18  1  0
 20 21  2  0
 20 22  1  0
M  END
$$$$
