STM.pdb
     RDKit          3D

 22 21  0  0  1  0  0  0  0  0999 V2000
   29.1232  -22.0773  -16.0603 O   0  0  0  0  0  0  0  0  0  0  0  0
   28.0825  -22.9596  -15.7906 C   0  0  0  0  0  0  0  0  0  0  0  0
   26.7560  -22.2216  -15.8453 C   0  0  2  0  0  0  0  0  0  0  0  0
   26.5402  -21.7681  -17.1948 N   0  0  0  0  0  0  0  0  0  0  0  0
   26.7148  -21.0959  -14.9016 C   0  0  0  0  0  0  0  0  0  0  0  0
   26.8797  -19.9085  -15.2710 O   0  0  0  0  0  0  0  0  0  0  0  0
   24.7435  -19.3170  -14.4481 C   0  0  0  0  0  0  0  0  0  0  0  0
   24.6723  -19.8579  -13.0200 C   0  0  1  0  0  0  0  0  0  0  0  0
   23.7695  -20.9169  -13.0509 O   0  0  0  0  0  0  0  0  0  0  0  0
   26.0488  -20.3555  -12.5729 C   0  0  2  0  0  0  0  0  0  0  0  0
   26.4840  -21.3258  -13.5278 N   0  0  0  0  0  0  0  0  0  0  0  0
   26.0204  -20.8474  -11.1939 C   0  0  0  0  0  0  0  0  0  0  0  0
   25.7149  -22.0418  -10.9518 O   0  0  0  0  0  0  0  0  0  0  0  0
   28.1117  -19.6777   -3.5606 C   0  0  0  0  0  0  0  0  0  0  0  0
   28.0243  -19.1227   -5.2441 S   0  0  0  0  0  0  0  0  0  0  0  0
   27.0538  -20.1090   -6.3723 C   0  0  0  0  0  0  0  0  0  0  0  0
   27.0955  -19.7139   -7.8029 C   0  0  0  0  0  0  0  0  0  0  0  0
   26.2763  -20.5516   -8.7147 C   0  0  2  0  0  0  0  0  0  0  0  0
   26.3296  -20.0187  -10.0817 N   0  0  0  0  0  0  0  0  0  0  0  0
   24.8944  -20.7842   -8.2850 C   0  0  0  0  0  0  0  0  0  0  0  0
   23.8778  -20.2153   -8.7299 O   0  0  0  0  0  0  0  0  0  0  0  0
   24.6693  -21.7402   -7.2707 O   0  0  0  0  0  0  0  0  0  0  0  0
  2  1  1  0
  3  5  1  0
  3  2  1  0
  3  4  1  6
  5 11  1  0
  6  5  2  0
  8  7  1  6
  9  8  1  0
 10 12  1  0
 10  8  1  0
 10 11  1  6
 12 19  1  0
 12 13  2  0
 15 14  1  0
 15 16  1  0
 16 17  1  0
 18 17  1  1
 18 20  1  0
 19 18  1  0
 20 21  2  0
 20 22  1  0
M  END
$$$$
