STM.pdb
     RDKit          3D

 22 21  0  0  1  0  0  0  0  0999 V2000
   16.4051   -9.5886  -16.9091 O   0  0  0  0  0  0  0  0  0  0  0  0
   16.4974   -9.4804  -15.5256 C   0  0  0  0  0  0  0  0  0  0  0  0
   17.9166   -9.7873  -15.0796 C   0  0  2  0  0  0  0  0  0  0  0  0
   18.2252  -11.1469  -15.4393 N   0  0  0  0  0  0  0  0  0  0  0  0
   18.0971   -9.5732  -13.6370 C   0  0  0  0  0  0  0  0  0  0  0  0
   17.9408  -10.4949  -12.8005 O   0  0  0  0  0  0  0  0  0  0  0  0
   21.0907   -7.9589  -12.1210 C   0  0  0  0  0  0  0  0  0  0  0  0
   19.8981   -7.1290  -11.6452 C   0  0  1  0  0  0  0  0  0  0  0  0
   19.8446   -6.0144  -12.4772 O   0  0  0  0  0  0  0  0  0  0  0  0
   18.6057   -7.9389  -11.7702 C   0  0  2  0  0  0  0  0  0  0  0  0
   18.4581   -8.2999  -13.1452 N   0  0  0  0  0  0  0  0  0  0  0  0
   17.4605   -7.2117  -11.2186 C   0  0  0  0  0  0  0  0  0  0  0  0
   16.7126   -6.5394  -11.9717 O   0  0  0  0  0  0  0  0  0  0  0  0
   11.3438   -6.9730   -6.3470 C   0  0  0  0  0  0  0  0  0  0  0  0
   12.7322   -7.7618   -7.1214 S   0  0  0  0  0  0  0  0  0  0  0  0
   13.9140   -6.7015   -7.9379 C   0  0  0  0  0  0  0  0  0  0  0  0
   15.0704   -7.3718   -8.5845 C   0  0  0  0  0  0  0  0  0  0  0  0
   15.9915   -6.4716   -9.3229 C   0  0  2  0  0  0  0  0  0  0  0  0
   17.1418   -7.2274   -9.8339 N   0  0  0  0  0  0  0  0  0  0  0  0
   16.4198   -5.2737   -8.5948 C   0  0  0  0  0  0  0  0  0  0  0  0
   17.4809   -5.1401   -7.9535 O   0  0  0  0  0  0  0  0  0  0  0  0
   15.5638   -4.1509   -8.6073 O   0  0  0  0  0  0  0  0  0  0  0  0
  2  1  1  0
  3  5  1  0
  3  2  1  0
  3  4  1  1
  5 11  1  0
  6  5  2  0
  8  7  1  6
  9  8  1  0
 10 12  1  0
 10  8  1  0
 10 11  1  6
 12 19  1  0
 12 13  2  0
 15 14  1  0
 15 16  1  0
 16 17  1  0
 18 17  1  1
 18 20  1  0
 19 18  1  0
 20 21  2  0
 20 22  1  0
M  END
$$$$
