STM.pdb
     RDKit          3D

 22 21  0  0  1  0  0  0  0  0999 V2000
   16.9806  -12.3600  -16.4379 O   0  0  0  0  0  0  0  0  0  0  0  0
   16.3092  -11.7808  -15.3664 C   0  0  0  0  0  0  0  0  0  0  0  0
   15.6026  -10.5169  -15.8253 C   0  0  2  0  0  0  0  0  0  0  0  0
   14.7462  -10.8487  -16.9343 N   0  0  0  0  0  0  0  0  0  0  0  0
   16.5538   -9.4600  -16.1960 C   0  0  0  0  0  0  0  0  0  0  0  0
   17.0380   -9.3720  -17.3498 O   0  0  0  0  0  0  0  0  0  0  0  0
   15.8052   -5.9921  -16.0459 C   0  0  0  0  0  0  0  0  0  0  0  0
   17.0338   -6.1142  -15.1442 C   0  0  1  0  0  0  0  0  0  0  0  0
   16.5521   -6.1882  -13.8404 O   0  0  0  0  0  0  0  0  0  0  0  0
   17.8178   -7.3832  -15.4862 C   0  0  2  0  0  0  0  0  0  0  0  0
   16.9556   -8.4971  -15.2446 N   0  0  0  0  0  0  0  0  0  0  0  0
   19.0871   -7.4430  -14.7582 C   0  0  0  0  0  0  0  0  0  0  0  0
   19.2880   -8.3431  -13.9050 O   0  0  0  0  0  0  0  0  0  0  0  0
   25.8763  -10.0451  -14.3720 C   0  0  0  0  0  0  0  0  0  0  0  0
   24.2728   -9.6630  -15.0298 S   0  0  0  0  0  0  0  0  0  0  0  0
   23.4678   -8.1987  -14.4012 C   0  0  0  0  0  0  0  0  0  0  0  0
   22.1010   -7.9227  -14.9112 C   0  0  0  0  0  0  0  0  0  0  0  0
   21.4529   -6.7069  -14.3582 C   0  0  2  0  0  0  0  0  0  0  0  0
   20.1348   -6.5075  -14.9732 N   0  0  0  0  0  0  0  0  0  0  0  0
   22.2587   -5.4836  -14.4123 C   0  0  0  0  0  0  0  0  0  0  0  0
   22.2959   -4.6658  -15.3530 O   0  0  0  0  0  0  0  0  0  0  0  0
   23.0793   -5.1826  -13.3035 O   0  0  0  0  0  0  0  0  0  0  0  0
  2  1  1  0
  3  5  1  0
  3  2  1  0
  3  4  1  6
  5 11  1  0
  6  5  2  0
  8  7  1  6
  9  8  1  0
 10 12  1  0
 10  8  1  0
 10 11  1  1
 12 19  1  0
 12 13  2  0
 15 14  1  0
 15 16  1  0
 16 17  1  0
 18 17  1  6
 18 20  1  0
 19 18  1  0
 20 21  2  0
 20 22  1  0
M  END
$$$$
