STM.pdb
     RDKit          3D

 22 21  0  0  1  0  0  0  0  0999 V2000
   27.5829  -23.8858  -16.2065 O   0  0  0  0  0  0  0  0  0  0  0  0
   26.9853  -23.0533  -17.1467 C   0  0  0  0  0  0  0  0  0  0  0  0
   27.9088  -21.8895  -17.4633 C   0  0  2  0  0  0  0  0  0  0  0  0
   29.1825  -22.4164  -17.8795 N   0  0  0  0  0  0  0  0  0  0  0  0
   28.0657  -20.9854  -16.3155 C   0  0  0  0  0  0  0  0  0  0  0  0
   28.8566  -20.0120  -16.3355 O   0  0  0  0  0  0  0  0  0  0  0  0
   25.5056  -18.1357  -13.9691 C   0  0  0  0  0  0  0  0  0  0  0  0
   26.0970  -19.1498  -14.9485 C   0  0  1  0  0  0  0  0  0  0  0  0
   26.9083  -18.4239  -15.8157 O   0  0  0  0  0  0  0  0  0  0  0  0
   26.9317  -20.1884  -14.1957 C   0  0  2  0  0  0  0  0  0  0  0  0
   27.3158  -21.1927  -15.1373 N   0  0  0  0  0  0  0  0  0  0  0  0
   26.2169  -20.7082  -13.0281 C   0  0  0  0  0  0  0  0  0  0  0  0
   25.2500  -21.4970  -13.1747 O   0  0  0  0  0  0  0  0  0  0  0  0
   27.4174  -18.8350   -6.5924 C   0  0  0  0  0  0  0  0  0  0  0  0
   26.3000  -20.2110   -6.5031 S   0  0  0  0  0  0  0  0  0  0  0  0
   25.7183  -20.8830   -8.0515 C   0  0  0  0  0  0  0  0  0  0  0  0
   26.3900  -20.3924   -9.2814 C   0  0  0  0  0  0  0  0  0  0  0  0
   25.8414  -20.9210  -10.5557 C   0  0  2  0  0  0  0  0  0  0  0  0
   26.5708  -20.3561  -11.6977 N   0  0  0  0  0  0  0  0  0  0  0  0
   24.3922  -20.7799  -10.7241 C   0  0  0  0  0  0  0  0  0  0  0  0
   23.8002  -19.8107  -11.2392 O   0  0  0  0  0  0  0  0  0  0  0  0
   23.5677  -21.8307  -10.2661 O   0  0  0  0  0  0  0  0  0  0  0  0
  2  1  1  0
  3  5  1  0
  3  2  1  0
  3  4  1  1
  5 11  1  0
  6  5  2  0
  8  7  1  1
  9  8  1  0
 10 12  1  0
 10  8  1  0
 10 11  1  6
 12 19  1  0
 12 13  2  0
 15 14  1  0
 15 16  1  0
 16 17  1  0
 18 17  1  1
 18 20  1  0
 19 18  1  0
 20 21  2  0
 20 22  1  0
M  END
$$$$
