SWN.pdb
     RDKit          3D

 29 30  0  0  1  0  0  0  0  0999 V2000
   26.9953  -19.7065  -16.7529 O   0  0  0  0  0  0  0  0  0  0  0  0
   28.2936  -19.9325  -16.2898 C   0  0  0  0  0  0  0  0  0  0  0  0
   28.3693  -21.3718  -15.8152 C   0  0  2  0  0  0  0  0  0  0  0  0
   27.9805  -22.2927  -16.8623 N   0  0  0  0  0  0  0  0  0  0  0  0
   27.4552  -21.5677  -14.6656 C   0  0  0  0  0  0  0  0  0  0  0  0
   26.3657  -22.1864  -14.8662 O   0  0  0  0  0  0  0  0  0  0  0  0
   27.7817  -21.0833  -13.3864 N   0  0  0  0  0  0  0  0  0  0  0  0
   26.8557  -21.3415  -12.2737 C   0  0  1  0  0  0  0  0  0  0  0  0
   27.6455  -21.0802  -11.0413 C   0  0  0  0  0  0  0  0  0  0  0  0
   26.8866  -20.8647   -9.8059 C   0  0  0  0  0  0  0  0  0  0  0  0
   25.4964  -20.8163   -9.6955 C   0  0  0  0  0  0  0  0  0  0  0  0
   25.1636  -20.5738   -8.4175 N   0  0  0  0  0  0  0  0  0  0  0  0
   26.2830  -20.4619   -7.6855 C   0  0  0  0  0  0  0  0  0  0  0  0
   26.4502  -20.2264   -6.3209 C   0  0  0  0  0  0  0  0  0  0  0  0
   27.7086  -20.1644   -5.7654 C   0  0  0  0  0  0  0  0  0  0  0  0
   28.7736  -20.3438   -6.6117 C   0  0  0  0  0  0  0  0  0  0  0  0
   28.6026  -20.5755   -7.9596 C   0  0  0  0  0  0  0  0  0  0  0  0
   27.3611  -20.6411   -8.5369 C   0  0  0  0  0  0  0  0  0  0  0  0
   25.6575  -20.5394  -12.4913 C   0  0  0  0  0  0  0  0  0  0  0  0
   25.6926  -19.3034  -12.6998 O   0  0  0  0  0  0  0  0  0  0  0  0
   23.6887  -18.4638  -14.7392 N   0  0  0  0  0  0  0  0  0  0  0  0
   22.9877  -19.6546  -15.0635 C   0  0  0  0  0  0  0  0  0  0  0  0
   22.6805  -19.7805  -16.2893 O   0  0  0  0  0  0  0  0  0  0  0  0
   22.6345  -20.6800  -14.0798 C   0  0  0  0  0  0  0  0  0  0  0  0
   23.1853  -20.3239  -12.7090 C   0  0  2  0  0  0  0  0  0  0  0  0
   24.3812  -21.1544  -12.4725 N   0  0  0  0  0  0  0  0  0  0  0  0
   22.2048  -20.7615  -11.6928 C   0  0  0  0  0  0  0  0  0  0  0  0
   21.2990  -19.8703  -11.1649 O   0  0  0  0  0  0  0  0  0  0  0  0
   22.1991  -21.9477  -11.3116 O   0  0  0  0  0  0  0  0  0  0  0  0
  2  1  1  0
  3  5  1  0
  3  2  1  0
  3  4  1  6
  5  6  2  0
  7  8  1  0
  7  5  1  0
  8  9  1  1
 10 18  1  0
 10  9  1  0
 11 10  2  0
 12 11  1  0
 12 13  1  0
 13 18  2  0
 14 13  1  0
 14 15  2  0
 15 16  1  0
 16 17  2  0
 18 17  1  0
 19 26  1  0
 19  8  1  0
 20 19  2  0
 22 21  1  0
 23 22  2  0
 24 22  1  0
 25 24  1  6
 25 26  1  0
 27 25  1  0
 27 28  1  0
 29 27  2  0
M  END
$$$$
