SWN.pdb
     RDKit          3D

 29 30  0  0  1  0  0  0  0  0999 V2000
   16.5409   -9.8462  -19.0663 O   0  0  0  0  0  0  0  0  0  0  0  0
   16.8308   -8.9152  -18.0662 C   0  0  0  0  0  0  0  0  0  0  0  0
   18.0701   -9.3961  -17.3345 C   0  0  2  0  0  0  0  0  0  0  0  0
   17.7941  -10.5851  -16.5563 N   0  0  0  0  0  0  0  0  0  0  0  0
   18.5462   -8.3400  -16.4104 C   0  0  0  0  0  0  0  0  0  0  0  0
   17.9755   -8.2305  -15.2824 O   0  0  0  0  0  0  0  0  0  0  0  0
   19.6003   -7.4812  -16.7692 N   0  0  0  0  0  0  0  0  0  0  0  0
   20.1287   -6.5493  -15.7619 C   0  0  1  0  0  0  0  0  0  0  0  0
   21.5986   -6.7727  -15.7579 C   0  0  0  0  0  0  0  0  0  0  0  0
   22.0812   -7.9694  -15.0623 C   0  0  0  0  0  0  0  0  0  0  0  0
   22.8098   -9.0126  -15.6348 C   0  0  0  0  0  0  0  0  0  0  0  0
   23.0502   -9.9471  -14.7010 N   0  0  0  0  0  0  0  0  0  0  0  0
   22.5073   -9.5558  -13.5377 C   0  0  0  0  0  0  0  0  0  0  0  0
   22.5030  -10.1766  -12.2887 C   0  0  0  0  0  0  0  0  0  0  0  0
   21.8904   -9.5822  -11.2082 C   0  0  0  0  0  0  0  0  0  0  0  0
   21.2934   -8.3653  -11.4212 C   0  0  0  0  0  0  0  0  0  0  0  0
   21.3001   -7.7565  -12.6577 C   0  0  0  0  0  0  0  0  0  0  0  0
   21.9022   -8.3275  -13.7488 C   0  0  0  0  0  0  0  0  0  0  0  0
   19.6492   -5.2123  -16.0919 C   0  0  0  0  0  0  0  0  0  0  0  0
   19.5007   -4.8126  -17.2712 O   0  0  0  0  0  0  0  0  0  0  0  0
   17.8535   -0.3515  -15.6893 N   0  0  0  0  0  0  0  0  0  0  0  0
   17.2730   -1.2097  -14.7192 C   0  0  0  0  0  0  0  0  0  0  0  0
   16.3087   -0.7059  -14.0643 O   0  0  0  0  0  0  0  0  0  0  0  0
   17.7292   -2.5789  -14.4725 C   0  0  0  0  0  0  0  0  0  0  0  0
   18.8620   -2.9476  -15.4160 C   0  0  2  0  0  0  0  0  0  0  0  0
   19.3280   -4.3000  -15.0564 N   0  0  0  0  0  0  0  0  0  0  0  0
   20.0063   -2.0565  -15.1291 C   0  0  0  0  0  0  0  0  0  0  0  0
   20.1547   -0.8679  -15.8065 O   0  0  0  0  0  0  0  0  0  0  0  0
   20.8430   -2.3850  -14.2664 O   0  0  0  0  0  0  0  0  0  0  0  0
  2  1  1  0
  3  5  1  0
  3  2  1  0
  3  4  1  1
  5  6  2  0
  7  8  1  0
  7  5  1  0
  8  9  1  6
 10 18  1  0
 10  9  1  0
 11 10  2  0
 12 11  1  0
 12 13  1  0
 13 18  2  0
 14 13  1  0
 14 15  2  0
 15 16  1  0
 16 17  2  0
 18 17  1  0
 19 26  1  0
 19  8  1  0
 20 19  2  0
 22 21  1  0
 23 22  2  0
 24 22  1  0
 25 24  1  1
 25 26  1  0
 27 25  1  0
 27 28  1  0
 29 27  2  0
M  END
$$$$
