SWN.pdb
     RDKit          3D

 29 30  0  0  1  0  0  0  0  0999 V2000
   26.5818  -19.9408  -15.4349 O   0  0  0  0  0  0  0  0  0  0  0  0
   27.9174  -20.1758  -15.1000 C   0  0  0  0  0  0  0  0  0  0  0  0
   27.9827  -21.5058  -14.3725 C   0  0  2  0  0  0  0  0  0  0  0  0
   27.5419  -22.5925  -15.2212 N   0  0  0  0  0  0  0  0  0  0  0  0
   27.1046  -21.4665  -13.1795 C   0  0  0  0  0  0  0  0  0  0  0  0
   26.0178  -22.1205  -13.2150 O   0  0  0  0  0  0  0  0  0  0  0  0
   27.4617  -20.7269  -12.0381 N   0  0  0  0  0  0  0  0  0  0  0  0
   26.5174  -20.6613  -10.9127 C   0  0  1  0  0  0  0  0  0  0  0  0
   27.2727  -20.0132   -9.8080 C   0  0  0  0  0  0  0  0  0  0  0  0
   26.7947  -20.2669   -8.4458 C   0  0  0  0  0  0  0  0  0  0  0  0
   25.5261  -20.7303   -8.0950 C   0  0  0  0  0  0  0  0  0  0  0  0
   25.4416  -20.8147   -6.7576 N   0  0  0  0  0  0  0  0  0  0  0  0
   26.6070  -20.4247   -6.2181 C   0  0  0  0  0  0  0  0  0  0  0  0
   27.0050  -20.3517   -4.8833 C   0  0  0  0  0  0  0  0  0  0  0  0
   28.2729  -19.9323   -4.5477 C   0  0  0  0  0  0  0  0  0  0  0  0
   29.1118  -19.5950   -5.5797 C   0  0  0  0  0  0  0  0  0  0  0  0
   28.7131  -19.6684   -6.8970 C   0  0  0  0  0  0  0  0  0  0  0  0
   27.4568  -20.0819   -7.2571 C   0  0  0  0  0  0  0  0  0  0  0  0
   25.3053  -19.9999  -11.3816 C   0  0  0  0  0  0  0  0  0  0  0  0
   25.3046  -19.1526  -12.3061 O   0  0  0  0  0  0  0  0  0  0  0  0
   20.7850  -22.2558  -13.5936 N   0  0  0  0  0  0  0  0  0  0  0  0
   21.6744  -21.1518  -13.5240 C   0  0  0  0  0  0  0  0  0  0  0  0
   21.3202  -20.1333  -14.1947 O   0  0  0  0  0  0  0  0  0  0  0  0
   22.9129  -21.1574  -12.7431 C   0  0  0  0  0  0  0  0  0  0  0  0
   22.8289  -20.1682  -11.5927 C   0  0  2  0  0  0  0  0  0  0  0  0
   24.0565  -20.3065  -10.7867 N   0  0  0  0  0  0  0  0  0  0  0  0
   21.7310  -20.5955  -10.6994 C   0  0  0  0  0  0  0  0  0  0  0  0
   20.4654  -20.0764  -10.8484 O   0  0  0  0  0  0  0  0  0  0  0  0
   21.9544  -21.4330   -9.8044 O   0  0  0  0  0  0  0  0  0  0  0  0
  2  1  1  0
  3  5  1  0
  3  2  1  0
  3  4  1  6
  5  6  2  0
  7  8  1  0
  7  5  1  0
  8  9  1  1
 10 18  1  0
 10  9  1  0
 11 10  2  0
 12 11  1  0
 12 13  1  0
 13 18  2  0
 14 13  1  0
 14 15  2  0
 15 16  1  0
 16 17  2  0
 18 17  1  0
 19 26  1  0
 19  8  1  0
 20 19  2  0
 22 21  1  0
 23 22  2  0
 24 22  1  0
 25 24  1  6
 25 26  1  0
 27 25  1  0
 27 28  1  0
 29 27  2  0
M  END
$$$$
