SWN.pdb
     RDKit          3D

 29 30  0  0  1  0  0  0  0  0999 V2000
   26.8170  -20.1703  -16.3169 O   0  0  0  0  0  0  0  0  0  0  0  0
   27.7065  -19.5323  -15.4494 C   0  0  0  0  0  0  0  0  0  0  0  0
   28.3550  -20.5997  -14.5876 C   0  0  2  0  0  0  0  0  0  0  0  0
   28.7296  -21.7557  -15.3742 N   0  0  0  0  0  0  0  0  0  0  0  0
   27.4044  -21.0423  -13.5406 C   0  0  0  0  0  0  0  0  0  0  0  0
   26.9917  -22.2416  -13.5757 O   0  0  0  0  0  0  0  0  0  0  0  0
   26.9693  -20.1614  -12.5344 N   0  0  0  0  0  0  0  0  0  0  0  0
   26.0183  -20.6524  -11.5261 C   0  0  1  0  0  0  0  0  0  0  0  0
   26.3540  -19.9120  -10.2811 C   0  0  0  0  0  0  0  0  0  0  0  0
   27.4923  -20.4115   -9.5043 C   0  0  0  0  0  0  0  0  0  0  0  0
   28.4915  -21.2664   -9.9711 C   0  0  0  0  0  0  0  0  0  0  0  0
   29.3490  -21.5296   -8.9719 N   0  0  0  0  0  0  0  0  0  0  0  0
   28.9503  -20.8792   -7.8678 C   0  0  0  0  0  0  0  0  0  0  0  0
   29.5164  -20.8304   -6.5940 C   0  0  0  0  0  0  0  0  0  0  0  0
   28.9424  -20.0752   -5.5959 C   0  0  0  0  0  0  0  0  0  0  0  0
   27.8014  -19.3833   -5.9152 C   0  0  0  0  0  0  0  0  0  0  0  0
   27.2457  -19.4356   -7.1754 C   0  0  0  0  0  0  0  0  0  0  0  0
   27.7972  -20.1801   -8.1856 C   0  0  0  0  0  0  0  0  0  0  0  0
   24.6721  -20.4946  -12.0641 C   0  0  0  0  0  0  0  0  0  0  0  0
   24.3264  -19.5096  -12.7589 O   0  0  0  0  0  0  0  0  0  0  0  0
   19.8964  -21.5262  -13.7570 N   0  0  0  0  0  0  0  0  0  0  0  0
   20.4491  -22.7036  -13.1887 C   0  0  0  0  0  0  0  0  0  0  0  0
   19.7466  -23.7514  -13.3342 O   0  0  0  0  0  0  0  0  0  0  0  0
   21.7325  -22.7377  -12.4847 C   0  0  0  0  0  0  0  0  0  0  0  0
   22.3688  -21.3580  -12.4573 C   0  0  2  0  0  0  0  0  0  0  0  0
   23.6876  -21.4809  -11.8083 N   0  0  0  0  0  0  0  0  0  0  0  0
   21.5717  -20.5031  -11.5519 C   0  0  0  0  0  0  0  0  0  0  0  0
   20.5639  -19.7079  -12.0472 O   0  0  0  0  0  0  0  0  0  0  0  0
   21.8150  -20.5035  -10.3300 O   0  0  0  0  0  0  0  0  0  0  0  0
  2  1  1  0
  3  5  1  0
  3  2  1  0
  3  4  1  6
  5  6  2  0
  7  8  1  0
  7  5  1  0
  8  9  1  1
 10 18  1  0
 10  9  1  0
 11 10  2  0
 12 11  1  0
 12 13  1  0
 13 18  2  0
 14 13  1  0
 14 15  2  0
 15 16  1  0
 16 17  2  0
 18 17  1  0
 19 26  1  0
 19  8  1  0
 20 19  2  0
 22 21  1  0
 23 22  2  0
 24 22  1  0
 25 24  1  1
 25 26  1  0
 27 25  1  0
 27 28  1  0
 29 27  2  0
M  END
$$$$
