SWN.pdb
     RDKit          3D

 29 30  0  0  1  0  0  0  0  0999 V2000
   27.9580  -19.0032  -14.2617 O   0  0  0  0  0  0  0  0  0  0  0  0
   28.0981  -20.3391  -13.8786 C   0  0  0  0  0  0  0  0  0  0  0  0
   28.7123  -20.3584  -12.4912 C   0  0  2  0  0  0  0  0  0  0  0  0
   29.8853  -21.2055  -12.4464 N   0  0  0  0  0  0  0  0  0  0  0  0
   27.7274  -20.8822  -11.5158 C   0  0  0  0  0  0  0  0  0  0  0  0
   27.6393  -22.1397  -11.3713 O   0  0  0  0  0  0  0  0  0  0  0  0
   26.9113  -20.0138  -10.7691 N   0  0  0  0  0  0  0  0  0  0  0  0
   25.7220  -20.5607  -10.0993 C   0  0  1  0  0  0  0  0  0  0  0  0
   25.5779  -19.7655   -8.8512 C   0  0  0  0  0  0  0  0  0  0  0  0
   26.7818  -19.6029   -8.0311 C   0  0  0  0  0  0  0  0  0  0  0  0
   27.8998  -18.8351   -8.3591 C   0  0  0  0  0  0  0  0  0  0  0  0
   28.8146  -18.9484   -7.3827 N   0  0  0  0  0  0  0  0  0  0  0  0
   28.3385  -19.7610   -6.4266 C   0  0  0  0  0  0  0  0  0  0  0  0
   28.9099  -20.1700   -5.2217 C   0  0  0  0  0  0  0  0  0  0  0  0
   28.2291  -21.0085   -4.3675 C   0  0  0  0  0  0  0  0  0  0  0  0
   26.9779  -21.4145   -4.7577 C   0  0  0  0  0  0  0  0  0  0  0  0
   26.4183  -21.0078   -5.9498 C   0  0  0  0  0  0  0  0  0  0  0  0
   27.0753  -20.1744   -6.8175 C   0  0  0  0  0  0  0  0  0  0  0  0
   24.6173  -20.5311  -11.0508 C   0  0  0  0  0  0  0  0  0  0  0  0
   24.6290  -19.8261  -12.0878 O   0  0  0  0  0  0  0  0  0  0  0  0
   20.2201  -21.7704  -13.5480 N   0  0  0  0  0  0  0  0  0  0  0  0
   20.7026  -22.8683  -12.7887 C   0  0  0  0  0  0  0  0  0  0  0  0
   20.0960  -23.9663  -12.9864 O   0  0  0  0  0  0  0  0  0  0  0  0
   21.8164  -22.7720  -11.8432 C   0  0  0  0  0  0  0  0  0  0  0  0
   22.4185  -21.3769  -11.8603 C   0  0  2  0  0  0  0  0  0  0  0  0
   23.4650  -21.3232  -10.8222 N   0  0  0  0  0  0  0  0  0  0  0  0
   21.3810  -20.4240  -11.4116 C   0  0  0  0  0  0  0  0  0  0  0  0
   21.0466  -20.3292  -10.0802 O   0  0  0  0  0  0  0  0  0  0  0  0
   20.8051  -19.7006  -12.2467 O   0  0  0  0  0  0  0  0  0  0  0  0
  2  1  1  0
  3  5  1  0
  3  2  1  0
  3  4  1  6
  5  6  2  0
  7  8  1  0
  7  5  1  0
  8  9  1  1
 10 18  1  0
 10  9  1  0
 11 10  2  0
 12 11  1  0
 12 13  1  0
 13 18  2  0
 14 13  1  0
 14 15  2  0
 15 16  1  0
 16 17  2  0
 18 17  1  0
 19 26  1  0
 19  8  1  0
 20 19  2  0
 22 21  1  0
 23 22  2  0
 24 22  1  0
 25 24  1  1
 25 26  1  0
 27 25  1  0
 27 28  1  0
 29 27  2  0
M  END
$$$$
