SWN.pdb
     RDKit          3D

 29 30  0  0  1  0  0  0  0  0999 V2000
   27.1417  -12.5178  -21.3125 O   0  0  0  0  0  0  0  0  0  0  0  0
   28.3091  -11.8904  -20.8718 C   0  0  0  0  0  0  0  0  0  0  0  0
   28.6743  -12.4894  -19.5263 C   0  0  2  0  0  0  0  0  0  0  0  0
   28.9515  -13.9057  -19.6383 N   0  0  0  0  0  0  0  0  0  0  0  0
   27.5489  -12.3129  -18.5787 C   0  0  0  0  0  0  0  0  0  0  0  0
   26.8566  -13.3322  -18.2757 O   0  0  0  0  0  0  0  0  0  0  0  0
   27.2529  -11.0532  -18.0281 N   0  0  0  0  0  0  0  0  0  0  0  0
   26.1337  -10.9396  -17.0810 C   0  0  1  0  0  0  0  0  0  0  0  0
   26.4809   -9.7901  -16.2042 C   0  0  0  0  0  0  0  0  0  0  0  0
   25.4150   -9.2757  -15.3395 C   0  0  0  0  0  0  0  0  0  0  0  0
   24.7501   -9.9917  -14.3433 C   0  0  0  0  0  0  0  0  0  0  0  0
   23.8191   -9.2043  -13.7809 N   0  0  0  0  0  0  0  0  0  0  0  0
   23.8488   -7.9989  -14.3702 C   0  0  0  0  0  0  0  0  0  0  0  0
   23.0892   -6.8549  -14.1257 C   0  0  0  0  0  0  0  0  0  0  0  0
   23.2986   -5.7019  -14.8488 C   0  0  0  0  0  0  0  0  0  0  0  0
   24.2790   -5.7367  -15.8081 C   0  0  0  0  0  0  0  0  0  0  0  0
   25.0262   -6.8701  -16.0461 C   0  0  0  0  0  0  0  0  0  0  0  0
   24.8369   -8.0302  -15.3408 C   0  0  0  0  0  0  0  0  0  0  0  0
   24.8995  -10.8523  -17.8528 C   0  0  0  0  0  0  0  0  0  0  0  0
   24.8496  -10.3639  -19.0067 O   0  0  0  0  0  0  0  0  0  0  0  0
   19.9682  -11.3745  -19.3955 N   0  0  0  0  0  0  0  0  0  0  0  0
   20.3856  -12.4769  -18.6048 C   0  0  0  0  0  0  0  0  0  0  0  0
   19.5958  -13.4714  -18.6097 O   0  0  0  0  0  0  0  0  0  0  0  0
   21.6299  -12.4953  -17.8334 C   0  0  0  0  0  0  0  0  0  0  0  0
   22.4536  -11.2486  -18.1097 C   0  0  2  0  0  0  0  0  0  0  0  0
   23.6853  -11.3322  -17.3024 N   0  0  0  0  0  0  0  0  0  0  0  0
   21.7182  -10.0844  -17.5716 C   0  0  0  0  0  0  0  0  0  0  0  0
   21.3969   -9.0225  -18.3856 O   0  0  0  0  0  0  0  0  0  0  0  0
   21.3866  -10.0653  -16.3708 O   0  0  0  0  0  0  0  0  0  0  0  0
  2  1  1  0
  3  5  1  0
  3  2  1  0
  3  4  1  6
  5  6  2  0
  7  8  1  0
  7  5  1  0
  8  9  1  6
 10 18  1  0
 10  9  1  0
 11 10  2  0
 12 11  1  0
 12 13  1  0
 13 18  2  0
 14 13  1  0
 14 15  2  0
 15 16  1  0
 16 17  2  0
 18 17  1  0
 19 26  1  0
 19  8  1  0
 20 19  2  0
 22 21  1  0
 23 22  2  0
 24 22  1  0
 25 24  1  1
 25 26  1  0
 27 25  1  0
 27 28  1  0
 29 27  2  0
M  END
$$$$
