SWN.pdb
     RDKit          3D

 29 30  0  0  1  0  0  0  0  0999 V2000
   18.6990  -10.2762  -21.6600 O   0  0  0  0  0  0  0  0  0  0  0  0
   20.0642  -10.5657  -21.6027 C   0  0  0  0  0  0  0  0  0  0  0  0
   20.3035  -11.4153  -20.3684 C   0  0  2  0  0  0  0  0  0  0  0  0
   19.5089  -12.6249  -20.3996 N   0  0  0  0  0  0  0  0  0  0  0  0
   19.9317  -10.6500  -19.1552 C   0  0  0  0  0  0  0  0  0  0  0  0
   18.7977  -10.8731  -18.6315 O   0  0  0  0  0  0  0  0  0  0  0  0
   20.8078   -9.7025  -18.5965 N   0  0  0  0  0  0  0  0  0  0  0  0
   20.4133   -9.0180  -17.3563 C   0  0  1  0  0  0  0  0  0  0  0  0
   21.6850   -8.7698  -16.6270 C   0  0  0  0  0  0  0  0  0  0  0  0
   21.6089   -7.9066  -15.4448 C   0  0  0  0  0  0  0  0  0  0  0  0
   21.2071   -8.2992  -14.1675 C   0  0  0  0  0  0  0  0  0  0  0  0
   21.2361   -7.2348  -13.3494 N   0  0  0  0  0  0  0  0  0  0  0  0
   21.6423   -6.1592  -14.0418 C   0  0  0  0  0  0  0  0  0  0  0  0
   21.8404   -4.8415  -13.6298 C   0  0  0  0  0  0  0  0  0  0  0  0
   22.2835   -3.8850  -14.5156 C   0  0  0  0  0  0  0  0  0  0  0  0
   22.5167   -4.2899  -15.8057 C   0  0  0  0  0  0  0  0  0  0  0  0
   22.3186   -5.5933  -16.2077 C   0  0  0  0  0  0  0  0  0  0  0  0
   21.8776   -6.5637  -15.3459 C   0  0  0  0  0  0  0  0  0  0  0  0
   19.6058   -7.8595  -17.7201 C   0  0  0  0  0  0  0  0  0  0  0  0
   19.7912   -7.2019  -18.7717 O   0  0  0  0  0  0  0  0  0  0  0  0
   16.5286   -7.0556  -19.5631 N   0  0  0  0  0  0  0  0  0  0  0  0
   15.7660   -6.9553  -18.3701 C   0  0  0  0  0  0  0  0  0  0  0  0
   14.5417   -7.2717  -18.4868 O   0  0  0  0  0  0  0  0  0  0  0  0
   16.3233   -6.5250  -17.0864 C   0  0  0  0  0  0  0  0  0  0  0  0
   17.8046   -6.2131  -17.2195 C   0  0  2  0  0  0  0  0  0  0  0  0
   18.5569   -7.4324  -16.8687 N   0  0  0  0  0  0  0  0  0  0  0  0
   18.1612   -5.2268  -16.1776 C   0  0  0  0  0  0  0  0  0  0  0  0
   17.8780   -3.8915  -16.3516 O   0  0  0  0  0  0  0  0  0  0  0  0
   18.7228   -5.6086  -15.1330 O   0  0  0  0  0  0  0  0  0  0  0  0
  2  1  1  0
  3  5  1  0
  3  2  1  0
  3  4  1  6
  5  6  2  0
  7  8  1  0
  7  5  1  0
  8  9  1  6
 10 18  1  0
 10  9  1  0
 11 10  2  0
 12 11  1  0
 12 13  1  0
 13 18  2  0
 14 13  1  0
 14 15  2  0
 15 16  1  0
 16 17  2  0
 18 17  1  0
 19 26  1  0
 19  8  1  0
 20 19  2  0
 22 21  1  0
 23 22  2  0
 24 22  1  0
 25 24  1  1
 25 26  1  0
 27 25  1  0
 27 28  1  0
 29 27  2  0
M  END
$$$$
