SWN.pdb
     RDKit          3D

 29 30  0  0  1  0  0  0  0  0999 V2000
   27.2283  -19.0288  -15.1289 O   0  0  0  0  0  0  0  0  0  0  0  0
   28.5604  -19.2330  -14.7620 C   0  0  0  0  0  0  0  0  0  0  0  0
   28.7220  -20.7006  -14.4119 C   0  0  2  0  0  0  0  0  0  0  0  0
   28.3452  -21.5511  -15.5211 N   0  0  0  0  0  0  0  0  0  0  0  0
   27.8564  -21.0373  -13.2574 C   0  0  0  0  0  0  0  0  0  0  0  0
   26.8063  -21.7156  -13.4748 O   0  0  0  0  0  0  0  0  0  0  0  0
   28.1855  -20.6191  -11.9557 N   0  0  0  0  0  0  0  0  0  0  0  0
   27.2469  -20.9067  -10.8609 C   0  0  1  0  0  0  0  0  0  0  0  0
   27.9452  -20.4675   -9.6239 C   0  0  0  0  0  0  0  0  0  0  0  0
   27.1357  -20.3841   -8.4048 C   0  0  0  0  0  0  0  0  0  0  0  0
   25.7458  -20.4863   -8.3349 C   0  0  0  0  0  0  0  0  0  0  0  0
   25.3558  -20.3330   -7.0592 N   0  0  0  0  0  0  0  0  0  0  0  0
   26.4375  -20.1347   -6.2898 C   0  0  0  0  0  0  0  0  0  0  0  0
   26.5431  -19.9396   -4.9128 C   0  0  0  0  0  0  0  0  0  0  0  0
   27.7728  -19.7689   -4.3173 C   0  0  0  0  0  0  0  0  0  0  0  0
   28.8726  -19.8005   -5.1371 C   0  0  0  0  0  0  0  0  0  0  0  0
   28.7625  -19.9930   -6.4974 C   0  0  0  0  0  0  0  0  0  0  0  0
   27.5504  -20.1645   -7.1143 C   0  0  0  0  0  0  0  0  0  0  0  0
   25.9747  -20.2700  -11.1812 C   0  0  0  0  0  0  0  0  0  0  0  0
   25.8870  -19.0856  -11.5839 O   0  0  0  0  0  0  0  0  0  0  0  0
   21.0674  -21.9318  -13.9494 N   0  0  0  0  0  0  0  0  0  0  0  0
   22.0677  -20.9836  -13.6103 C   0  0  0  0  0  0  0  0  0  0  0  0
   21.7909  -19.7806  -13.9084 O   0  0  0  0  0  0  0  0  0  0  0  0
   23.3322  -21.3369  -12.9622 C   0  0  0  0  0  0  0  0  0  0  0  0
   23.5522  -20.4958  -11.7159 C   0  0  2  0  0  0  0  0  0  0  0  0
   24.7654  -20.9951  -11.0417 N   0  0  0  0  0  0  0  0  0  0  0  0
   22.4464  -20.7728  -10.7745 C   0  0  0  0  0  0  0  0  0  0  0  0
   21.2621  -20.0775  -10.8619 O   0  0  0  0  0  0  0  0  0  0  0  0
   22.5886  -21.6435   -9.8947 O   0  0  0  0  0  0  0  0  0  0  0  0
  2  1  1  0
  3  5  1  0
  3  2  1  0
  3  4  1  6
  5  6  2  0
  7  8  1  0
  7  5  1  0
  8  9  1  1
 10 18  1  0
 10  9  1  0
 11 10  2  0
 12 11  1  0
 12 13  1  0
 13 18  2  0
 14 13  1  0
 14 15  2  0
 15 16  1  0
 16 17  2  0
 18 17  1  0
 19 26  1  0
 19  8  1  0
 20 19  2  0
 22 21  1  0
 23 22  2  0
 24 22  1  0
 25 24  1  6
 25 26  1  0
 27 25  1  0
 27 28  1  0
 29 27  2  0
M  END
$$$$
