SWN.pdb
     RDKit          3D

 29 30  0  0  1  0  0  0  0  0999 V2000
   32.2558  -32.6413  -20.0321 O   0  0  0  0  0  0  0  0  0  0  0  0
   32.6381  -31.3239  -20.2950 C   0  0  0  0  0  0  0  0  0  0  0  0
   33.0701  -30.6987  -18.9815 C   0  0  2  0  0  0  0  0  0  0  0  0
   33.8511  -31.6249  -18.1892 N   0  0  0  0  0  0  0  0  0  0  0  0
   31.8751  -30.3124  -18.1951 C   0  0  0  0  0  0  0  0  0  0  0  0
   31.8072  -30.6901  -16.9856 O   0  0  0  0  0  0  0  0  0  0  0  0
   30.8430  -29.5487  -18.7687 N   0  0  0  0  0  0  0  0  0  0  0  0
   29.7475  -29.0784  -17.9078 C   0  0  1  0  0  0  0  0  0  0  0  0
   29.2962  -27.7989  -18.5160 C   0  0  0  0  0  0  0  0  0  0  0  0
   28.1695  -27.1223  -17.8670 C   0  0  0  0  0  0  0  0  0  0  0  0
   28.2060  -26.4664  -16.6359 C   0  0  0  0  0  0  0  0  0  0  0  0
   26.9819  -25.9935  -16.3516 N   0  0  0  0  0  0  0  0  0  0  0  0
   26.1442  -26.3139  -17.3500 C   0  0  0  0  0  0  0  0  0  0  0  0
   24.7876  -26.0349  -17.5158 C   0  0  0  0  0  0  0  0  0  0  0  0
   24.1150  -26.4513  -18.6428 C   0  0  0  0  0  0  0  0  0  0  0  0
   24.8380  -27.1446  -19.5803 C   0  0  0  0  0  0  0  0  0  0  0  0
   26.1782  -27.4183  -19.4111 C   0  0  0  0  0  0  0  0  0  0  0  0
   26.8703  -27.0156  -18.2985 C   0  0  0  0  0  0  0  0  0  0  0  0
   28.7705  -30.1552  -17.7959 C   0  0  0  0  0  0  0  0  0  0  0  0
   28.5096  -30.9402  -18.7383 O   0  0  0  0  0  0  0  0  0  0  0  0
   25.6860  -33.8064  -15.8890 N   0  0  0  0  0  0  0  0  0  0  0  0
   26.1624  -33.0008  -14.8219 C   0  0  0  0  0  0  0  0  0  0  0  0
   25.9863  -33.4867  -13.6618 O   0  0  0  0  0  0  0  0  0  0  0  0
   26.8146  -31.7042  -15.0145 C   0  0  0  0  0  0  0  0  0  0  0  0
   27.0984  -31.4573  -16.4868 C   0  0  2  0  0  0  0  0  0  0  0  0
   28.0677  -30.3496  -16.5810 N   0  0  0  0  0  0  0  0  0  0  0  0
   25.8619  -30.9419  -17.1122 C   0  0  0  0  0  0  0  0  0  0  0  0
   25.2235  -31.6605  -18.0969 O   0  0  0  0  0  0  0  0  0  0  0  0
   25.3942  -29.8474  -16.7439 O   0  0  0  0  0  0  0  0  0  0  0  0
  2  1  1  0
  3  5  1  0
  3  2  1  0
  3  4  1  1
  5  6  2  0
  7  8  1  0
  7  5  1  0
  8  9  1  6
 10 18  1  0
 10  9  1  0
 11 10  2  0
 12 11  1  0
 12 13  1  0
 13 18  2  0
 14 13  1  0
 14 15  2  0
 15 16  1  0
 16 17  2  0
 18 17  1  0
 19 26  1  0
 19  8  1  0
 20 19  2  0
 22 21  1  0
 23 22  2  0
 24 22  1  0
 25 24  1  1
 25 26  1  0
 27 25  1  0
 27 28  1  0
 29 27  2  0
M  END
$$$$
