YHH.pdb
     RDKit          3D

 33 35  0  0  1  0  0  0  0  0999 V2000
    5.0034  -12.4468   18.5947 O   0  0  0  0  0  0  0  0  0  0  0  0
    6.2339  -13.0810   18.6674 C   0  0  0  0  0  0  0  0  0  0  0  0
    6.7674  -13.5874   17.5066 C   0  0  0  0  0  0  0  0  0  0  0  0
    7.9845  -14.2168   17.5681 C   0  0  0  0  0  0  0  0  0  0  0  0
    8.6468  -14.3319   18.7721 C   0  0  0  0  0  0  0  0  0  0  0  0
    9.9662  -15.0224   18.7966 C   0  0  0  0  0  0  0  0  0  0  0  0
   11.0963  -14.0478   18.7752 C   0  0  2  0  0  0  0  0  0  0  0  0
   11.0487  -13.1255   17.6831 N   0  0  0  0  0  0  0  0  0  0  0  0
   12.3734  -14.7967   18.8483 C   0  0  0  0  0  0  0  0  0  0  0  0
   12.3317  -15.9178   19.4418 O   0  0  0  0  0  0  0  0  0  0  0  0
    8.0971  -13.8208   19.9129 C   0  0  0  0  0  0  0  0  0  0  0  0
    6.8822  -13.1877   19.8771 C   0  0  0  0  0  0  0  0  0  0  0  0
   13.5943  -14.3259   18.3008 N   0  0  0  0  0  0  0  0  0  0  0  0
   14.7760  -15.1225   18.4496 C   0  0  1  0  0  0  0  0  0  0  0  0
   15.8129  -14.8842   17.4031 C   0  0  0  0  0  0  0  0  0  0  0  0
   15.4791  -15.4347   16.0774 C   0  0  0  0  0  0  0  0  0  0  0  0
   14.8839  -16.6731   15.9355 C   0  0  0  0  0  0  0  0  0  0  0  0
   14.7146  -16.8774   14.6142 N   0  0  0  0  0  0  0  0  0  0  0  0
   15.1755  -15.8259   13.9271 C   0  0  0  0  0  0  0  0  0  0  0  0
   15.6354  -14.9630   14.8498 N   0  0  0  0  0  0  0  0  0  0  0  0
   15.3015  -14.9261   19.8352 C   0  0  0  0  0  0  0  0  0  0  0  0
   15.6146  -13.7810   20.2530 O   0  0  0  0  0  0  0  0  0  0  0  0
   15.4682  -16.0121   20.7300 N   0  0  0  0  0  0  0  0  0  0  0  0
   15.8226  -15.7933   22.1588 C   0  0  1  0  0  0  0  0  0  0  0  0
   15.1683  -16.9362   22.8942 C   0  0  0  0  0  0  0  0  0  0  0  0
   13.7033  -16.8996   22.9296 C   0  0  0  0  0  0  0  0  0  0  0  0
   12.9879  -15.7928   22.4835 C   0  0  0  0  0  0  0  0  0  0  0  0
   11.6852  -16.0531   22.6395 N   0  0  0  0  0  0  0  0  0  0  0  0
   11.5876  -17.2679   23.1599 C   0  0  0  0  0  0  0  0  0  0  0  0
   12.8055  -17.7905   23.3399 N   0  0  0  0  0  0  0  0  0  0  0  0
   17.2839  -15.7380   22.2967 C   0  0  0  0  0  0  0  0  0  0  0  0
   17.7848  -15.5309   23.4301 O   0  0  0  0  0  0  0  0  0  0  0  0
   18.1428  -15.9035   21.2396 O   0  0  0  0  0  0  0  0  0  0  0  0
  2  3  2  0
  2  1  1  0
  4  3  1  0
  5  4  2  0
  6  7  1  0
  6  5  1  0
  7  8  1  6
  9  7  1  0
  9 10  2  0
 11  5  1  0
 11 12  2  0
 12  2  1  0
 13  9  1  0
 14 13  1  0
 14 15  1  6
 16 15  1  0
 17 16  2  0
 18 19  1  0
 18 17  1  0
 19 20  2  0
 20 16  1  0
 21 14  1  0
 22 21  2  0
 23 21  1  0
 24 23  1  0
 24 25  1  1
 25 26  1  0
 26 27  2  0
 26 30  1  0
 27 28  1  0
 28 29  1  0
 30 29  2  0
 31 24  1  0
 32 31  2  0
 33 31  1  0
M  END
$$$$
