YHH.pdb
     RDKit          3D

 33 35  0  0  1  0  0  0  0  0999 V2000
    7.8882  -11.9049   16.9712 O   0  0  0  0  0  0  0  0  0  0  0  0
    7.9497  -12.7256   18.0866 C   0  0  0  0  0  0  0  0  0  0  0  0
    9.0154  -13.5866   18.1951 C   0  0  0  0  0  0  0  0  0  0  0  0
    9.0854  -14.4028   19.2952 C   0  0  0  0  0  0  0  0  0  0  0  0
    8.1035  -14.3510   20.2620 C   0  0  0  0  0  0  0  0  0  0  0  0
    8.2161  -15.2537   21.4413 C   0  0  0  0  0  0  0  0  0  0  0  0
    8.3338  -16.6833   21.0292 C   0  0  2  0  0  0  0  0  0  0  0  0
    7.2192  -17.1644   20.2728 N   0  0  0  0  0  0  0  0  0  0  0  0
    8.6189  -17.5039   22.2301 C   0  0  0  0  0  0  0  0  0  0  0  0
    7.6100  -17.8934   22.8944 O   0  0  0  0  0  0  0  0  0  0  0  0
    7.0537  -13.4874   20.1329 C   0  0  0  0  0  0  0  0  0  0  0  0
    6.9615  -12.6618   19.0429 C   0  0  0  0  0  0  0  0  0  0  0  0
    9.9270  -17.8572   22.6495 N   0  0  0  0  0  0  0  0  0  0  0  0
   10.0896  -18.6206   23.8511 C   0  0  1  0  0  0  0  0  0  0  0  0
   11.1275  -19.6894   23.7640 C   0  0  0  0  0  0  0  0  0  0  0  0
   10.7152  -20.8787   22.9976 C   0  0  0  0  0  0  0  0  0  0  0  0
    9.4442  -20.9961   22.4694 C   0  0  0  0  0  0  0  0  0  0  0  0
    9.3915  -22.1844   21.8357 N   0  0  0  0  0  0  0  0  0  0  0  0
   10.5682  -22.8119   21.9440 C   0  0  0  0  0  0  0  0  0  0  0  0
   11.3542  -21.9881   22.6590 N   0  0  0  0  0  0  0  0  0  0  0  0
   10.3352  -17.6710   24.9793 C   0  0  0  0  0  0  0  0  0  0  0  0
   11.1746  -16.7396   24.8708 O   0  0  0  0  0  0  0  0  0  0  0  0
    9.6390  -17.7782   26.2088 N   0  0  0  0  0  0  0  0  0  0  0  0
    9.8737  -16.8165   27.3201 C   0  0  1  0  0  0  0  0  0  0  0  0
    8.5008  -16.3052   27.6792 C   0  0  0  0  0  0  0  0  0  0  0  0
    7.9055  -15.3795   26.7110 C   0  0  0  0  0  0  0  0  0  0  0  0
    8.5778  -14.9987   25.5539 C   0  0  0  0  0  0  0  0  0  0  0  0
    7.7895  -14.1564   24.8768 N   0  0  0  0  0  0  0  0  0  0  0  0
    6.6734  -14.0152   25.5772 C   0  0  0  0  0  0  0  0  0  0  0  0
    6.7331  -14.7526   26.6914 N   0  0  0  0  0  0  0  0  0  0  0  0
   10.5752  -17.4981   28.4160 C   0  0  0  0  0  0  0  0  0  0  0  0
   10.7154  -18.7457   28.3714 O   0  0  0  0  0  0  0  0  0  0  0  0
   11.0932  -16.8356   29.5001 O   0  0  0  0  0  0  0  0  0  0  0  0
  2  3  2  0
  2  1  1  0
  4  3  1  0
  5  4  2  0
  6  7  1  0
  6  5  1  0
  7  8  1  1
  9  7  1  0
  9 10  2  0
 11  5  1  0
 11 12  2  0
 12  2  1  0
 13  9  1  0
 14 13  1  0
 14 15  1  6
 16 15  1  0
 17 16  2  0
 18 19  1  0
 18 17  1  0
 19 20  2  0
 20 16  1  0
 21 14  1  0
 22 21  2  0
 23 21  1  0
 24 23  1  0
 24 25  1  1
 25 26  1  0
 26 27  2  0
 26 30  1  0
 27 28  1  0
 28 29  1  0
 30 29  2  0
 31 24  1  0
 32 31  2  0
 33 31  1  0
M  END
$$$$
