YHH.pdb
     RDKit          3D

 33 35  0  0  1  0  0  0  0  0999 V2000
   10.4948  -12.1295   19.4382 O   0  0  0  0  0  0  0  0  0  0  0  0
    9.4181  -12.9440   19.7528 C   0  0  0  0  0  0  0  0  0  0  0  0
    9.0075  -13.8603   18.8145 C   0  0  0  0  0  0  0  0  0  0  0  0
    7.9430  -14.6708   19.1162 C   0  0  0  0  0  0  0  0  0  0  0  0
    7.3085  -14.5590   20.3354 C   0  0  0  0  0  0  0  0  0  0  0  0
    6.1565  -15.4576   20.6245 C   0  0  0  0  0  0  0  0  0  0  0  0
    6.4667  -16.8761   20.2799 C   0  0  2  0  0  0  0  0  0  0  0  0
    5.3430  -17.7563   20.3714 N   0  0  0  0  0  0  0  0  0  0  0  0
    7.6226  -17.3227   21.0933 C   0  0  0  0  0  0  0  0  0  0  0  0
    7.3638  -17.6863   22.2815 O   0  0  0  0  0  0  0  0  0  0  0  0
    7.7341  -13.6410   21.2524 C   0  0  0  0  0  0  0  0  0  0  0  0
    8.7955  -12.8198   20.9743 C   0  0  0  0  0  0  0  0  0  0  0  0
    8.9566  -17.3579   20.6126 N   0  0  0  0  0  0  0  0  0  0  0  0
    9.9716  -17.9644   21.4219 C   0  0  1  0  0  0  0  0  0  0  0  0
   11.1985  -18.3631   20.6717 C   0  0  0  0  0  0  0  0  0  0  0  0
   11.0917  -19.6549   19.9705 C   0  0  0  0  0  0  0  0  0  0  0  0
    9.9828  -20.4666   20.1109 C   0  0  0  0  0  0  0  0  0  0  0  0
   10.1967  -21.5575   19.3491 N   0  0  0  0  0  0  0  0  0  0  0  0
   11.3850  -21.4639   18.7414 C   0  0  0  0  0  0  0  0  0  0  0  0
   11.9058  -20.2909   19.1419 N   0  0  0  0  0  0  0  0  0  0  0  0
   10.2687  -17.0479   22.5649 C   0  0  0  0  0  0  0  0  0  0  0  0
   10.5418  -15.8352   22.3685 O   0  0  0  0  0  0  0  0  0  0  0  0
   10.2556  -17.5018   23.9072 N   0  0  0  0  0  0  0  0  0  0  0  0
   10.6914  -16.6244   25.0275 C   0  0  1  0  0  0  0  0  0  0  0  0
    9.4485  -16.4179   25.8568 C   0  0  0  0  0  0  0  0  0  0  0  0
    8.3753  -15.6671   25.1985 C   0  0  0  0  0  0  0  0  0  0  0  0
    8.4537  -14.2907   25.0111 C   0  0  0  0  0  0  0  0  0  0  0  0
    7.3375  -13.8946   24.3895 N   0  0  0  0  0  0  0  0  0  0  0  0
    6.5926  -14.9733   24.1957 C   0  0  0  0  0  0  0  0  0  0  0  0
    7.2125  -16.0539   24.6825 N   0  0  0  0  0  0  0  0  0  0  0  0
   11.8025  -17.2635   25.7449 C   0  0  0  0  0  0  0  0  0  0  0  0
   12.1694  -18.4157   25.4043 O   0  0  0  0  0  0  0  0  0  0  0  0
   12.4704  -16.6607   26.7807 O   0  0  0  0  0  0  0  0  0  0  0  0
  2  3  2  0
  2  1  1  0
  4  3  1  0
  5  4  2  0
  6  7  1  0
  6  5  1  0
  7  8  1  1
  9  7  1  0
  9 10  2  0
 11  5  1  0
 11 12  2  0
 12  2  1  0
 13  9  1  0
 14 13  1  0
 14 15  1  6
 16 15  1  0
 17 16  2  0
 18 19  1  0
 18 17  1  0
 19 20  2  0
 20 16  1  0
 21 14  1  0
 22 21  2  0
 23 21  1  0
 24 23  1  0
 24 25  1  1
 25 26  1  0
 26 27  2  0
 26 30  1  0
 27 28  1  0
 28 29  1  0
 30 29  2  0
 31 24  1  0
 32 31  2  0
 33 31  1  0
M  END
$$$$
