YHH.pdb
     RDKit          3D

 33 35  0  0  1  0  0  0  0  0999 V2000
    8.7047  -12.0774   17.7801 O   0  0  0  0  0  0  0  0  0  0  0  0
    8.4145  -12.7274   18.9696 C   0  0  0  0  0  0  0  0  0  0  0  0
    9.4581  -13.0240   19.8130 C   0  0  0  0  0  0  0  0  0  0  0  0
    9.1814  -13.6671   20.9925 C   0  0  0  0  0  0  0  0  0  0  0  0
    7.8827  -14.0025   21.3125 C   0  0  0  0  0  0  0  0  0  0  0  0
    7.6239  -14.7001   22.6027 C   0  0  0  0  0  0  0  0  0  0  0  0
    7.5851  -16.1817   22.4276 C   0  0  2  0  0  0  0  0  0  0  0  0
    6.2725  -16.7080   22.2134 N   0  0  0  0  0  0  0  0  0  0  0  0
    8.2863  -16.8155   23.5694 C   0  0  0  0  0  0  0  0  0  0  0  0
    7.5647  -17.1283   24.5656 O   0  0  0  0  0  0  0  0  0  0  0  0
    6.8615  -13.6975   20.4587 C   0  0  0  0  0  0  0  0  0  0  0  0
    7.1126  -13.0553   19.2743 C   0  0  0  0  0  0  0  0  0  0  0  0
    9.6804  -17.0759   23.5904 N   0  0  0  0  0  0  0  0  0  0  0  0
   10.2495  -17.7244   24.7343 C   0  0  1  0  0  0  0  0  0  0  0  0
   11.4668  -18.5355   24.4381 C   0  0  0  0  0  0  0  0  0  0  0  0
   11.2167  -19.7323   23.6152 C   0  0  0  0  0  0  0  0  0  0  0  0
    9.9442  -20.0738   23.2000 C   0  0  0  0  0  0  0  0  0  0  0  0
   10.0587  -21.2042   22.4754 N   0  0  0  0  0  0  0  0  0  0  0  0
   11.3408  -21.5827   22.4195 C   0  0  0  0  0  0  0  0  0  0  0  0
   12.0215  -20.6629   23.1253 N   0  0  0  0  0  0  0  0  0  0  0  0
   10.4893  -16.6908   25.7873 C   0  0  0  0  0  0  0  0  0  0  0  0
   11.0686  -15.6080   25.5120 O   0  0  0  0  0  0  0  0  0  0  0  0
   10.0780  -16.8847   27.1294 N   0  0  0  0  0  0  0  0  0  0  0  0
   10.5030  -15.9574   28.2131 C   0  0  1  0  0  0  0  0  0  0  0  0
    9.2232  -15.3215   28.6956 C   0  0  0  0  0  0  0  0  0  0  0  0
    8.5032  -14.5284   27.6949 C   0  0  0  0  0  0  0  0  0  0  0  0
    8.6053  -13.1416   27.6486 C   0  0  0  0  0  0  0  0  0  0  0  0
    7.8431  -12.7051   26.6397 N   0  0  0  0  0  0  0  0  0  0  0  0
    7.2882  -13.7696   26.0785 C   0  0  0  0  0  0  0  0  0  0  0  0
    7.6816  -14.8807   26.7105 N   0  0  0  0  0  0  0  0  0  0  0  0
   11.2340  -16.7099   29.2412 C   0  0  0  0  0  0  0  0  0  0  0  0
   11.3301  -17.9579   29.1346 O   0  0  0  0  0  0  0  0  0  0  0  0
   11.8262  -16.1142   30.3261 O   0  0  0  0  0  0  0  0  0  0  0  0
  2  3  2  0
  2  1  1  0
  4  3  1  0
  5  4  2  0
  6  7  1  0
  6  5  1  0
  7  8  1  1
  9  7  1  0
  9 10  2  0
 11  5  1  0
 11 12  2  0
 12  2  1  0
 13  9  1  0
 14 13  1  0
 14 15  1  6
 16 15  1  0
 17 16  2  0
 18 19  1  0
 18 17  1  0
 19 20  2  0
 20 16  1  0
 21 14  1  0
 22 21  2  0
 23 21  1  0
 24 23  1  0
 24 25  1  1
 25 26  1  0
 26 27  2  0
 26 30  1  0
 27 28  1  0
 28 29  1  0
 30 29  2  0
 31 24  1  0
 32 31  2  0
 33 31  1  0
M  END
$$$$
