YHH.pdb
     RDKit          3D

 33 35  0  0  1  0  0  0  0  0999 V2000
    7.8464  -11.5700   17.5765 O   0  0  0  0  0  0  0  0  0  0  0  0
    8.0691  -12.4647   18.6116 C   0  0  0  0  0  0  0  0  0  0  0  0
    9.3447  -12.9458   18.7842 C   0  0  0  0  0  0  0  0  0  0  0  0
    9.5754  -13.8317   19.8056 C   0  0  0  0  0  0  0  0  0  0  0  0
    8.5433  -14.2221   20.6326 C   0  0  0  0  0  0  0  0  0  0  0  0
    8.8350  -15.1857   21.7302 C   0  0  0  0  0  0  0  0  0  0  0  0
    8.8961  -16.5893   21.2267 C   0  0  2  0  0  0  0  0  0  0  0  0
    7.6793  -17.0471   20.6305 N   0  0  0  0  0  0  0  0  0  0  0  0
    9.3739  -17.4680   22.3206 C   0  0  0  0  0  0  0  0  0  0  0  0
    8.4780  -17.9750   23.0631 O   0  0  0  0  0  0  0  0  0  0  0  0
    7.2836  -13.7307   20.4420 C   0  0  0  0  0  0  0  0  0  0  0  0
    7.0280  -12.8445   19.4283 C   0  0  0  0  0  0  0  0  0  0  0  0
   10.7425  -17.7530   22.5603 N   0  0  0  0  0  0  0  0  0  0  0  0
   11.0875  -18.7014   23.5775 C   0  0  1  0  0  0  0  0  0  0  0  0
   12.3679  -19.4275   23.3313 C   0  0  0  0  0  0  0  0  0  0  0  0
   12.3234  -20.3774   22.2053 C   0  0  0  0  0  0  0  0  0  0  0  0
   11.1559  -21.0230   21.8470 C   0  0  0  0  0  0  0  0  0  0  0  0
   11.4511  -21.8108   20.7942 N   0  0  0  0  0  0  0  0  0  0  0  0
   12.7457  -21.6867   20.4801 C   0  0  0  0  0  0  0  0  0  0  0  0
   13.2496  -20.8043   21.3606 N   0  0  0  0  0  0  0  0  0  0  0  0
   11.0689  -17.9997   24.8973 C   0  0  0  0  0  0  0  0  0  0  0  0
   11.7534  -16.9611   25.0884 O   0  0  0  0  0  0  0  0  0  0  0  0
   10.2861  -18.4703   25.9807 N   0  0  0  0  0  0  0  0  0  0  0  0
   10.2389  -17.7425   27.2780 C   0  0  1  0  0  0  0  0  0  0  0  0
    8.7697  -17.5222   27.5392 C   0  0  0  0  0  0  0  0  0  0  0  0
    8.1195  -16.5414   26.6652 C   0  0  0  0  0  0  0  0  0  0  0  0
    8.8524  -15.6011   25.9479 C   0  0  0  0  0  0  0  0  0  0  0  0
    7.9917  -14.8531   25.2487 N   0  0  0  0  0  0  0  0  0  0  0  0
    6.7743  -15.3035   25.5150 C   0  0  0  0  0  0  0  0  0  0  0  0
    6.8400  -16.3274   26.3730 N   0  0  0  0  0  0  0  0  0  0  0  0
   10.9282  -18.5323   28.3068 C   0  0  0  0  0  0  0  0  0  0  0  0
   11.3173  -19.6941   28.0287 O   0  0  0  0  0  0  0  0  0  0  0  0
   11.1740  -18.0624   29.5721 O   0  0  0  0  0  0  0  0  0  0  0  0
  2  3  2  0
  2  1  1  0
  4  3  1  0
  5  4  2  0
  6  7  1  0
  6  5  1  0
  7  8  1  1
  9  7  1  0
  9 10  2  0
 11  5  1  0
 11 12  2  0
 12  2  1  0
 13  9  1  0
 14 13  1  0
 14 15  1  6
 16 15  1  0
 17 16  2  0
 18 19  1  0
 18 17  1  0
 19 20  2  0
 20 16  1  0
 21 14  1  0
 22 21  2  0
 23 21  1  0
 24 23  1  0
 24 25  1  1
 25 26  1  0
 26 27  2  0
 26 30  1  0
 27 28  1  0
 28 29  1  0
 30 29  2  0
 31 24  1  0
 32 31  2  0
 33 31  1  0
M  END
$$$$
