YHH.pdb
     RDKit          3D

 33 35  0  0  1  0  0  0  0  0999 V2000
    7.1281  -12.9360   14.4698 O   0  0  0  0  0  0  0  0  0  0  0  0
    7.6116  -13.6042   15.5840 C   0  0  0  0  0  0  0  0  0  0  0  0
    7.4098  -13.0313   16.8167 C   0  0  0  0  0  0  0  0  0  0  0  0
    7.8844  -13.6846   17.9254 C   0  0  0  0  0  0  0  0  0  0  0  0
    8.5467  -14.8868   17.7927 C   0  0  0  0  0  0  0  0  0  0  0  0
    9.0468  -15.5645   19.0211 C   0  0  0  0  0  0  0  0  0  0  0  0
    8.6453  -17.0014   19.0573 C   0  0  2  0  0  0  0  0  0  0  0  0
    7.2367  -17.2154   18.9326 N   0  0  0  0  0  0  0  0  0  0  0  0
    9.2232  -17.6276   20.2702 C   0  0  0  0  0  0  0  0  0  0  0  0
    8.6018  -17.4204   21.3573 O   0  0  0  0  0  0  0  0  0  0  0  0
    8.7357  -15.4370   16.5573 C   0  0  0  0  0  0  0  0  0  0  0  0
    8.2707  -14.8035   15.4345 C   0  0  0  0  0  0  0  0  0  0  0  0
   10.3998  -18.4197   20.2626 N   0  0  0  0  0  0  0  0  0  0  0  0
   10.9318  -18.8866   21.5083 C   0  0  1  0  0  0  0  0  0  0  0  0
   10.9042  -20.3699   21.6705 C   0  0  0  0  0  0  0  0  0  0  0  0
    9.5563  -20.9636   21.6219 C   0  0  0  0  0  0  0  0  0  0  0  0
    8.7840  -21.1030   22.7587 C   0  0  0  0  0  0  0  0  0  0  0  0
    7.6238  -21.6726   22.3768 N   0  0  0  0  0  0  0  0  0  0  0  0
    7.6368  -21.8944   21.0574 C   0  0  0  0  0  0  0  0  0  0  0  0
    8.8305  -21.4502   20.6267 N   0  0  0  0  0  0  0  0  0  0  0  0
   12.3031  -18.3152   21.6753 C   0  0  0  0  0  0  0  0  0  0  0  0
   13.2784  -18.7707   21.0232 O   0  0  0  0  0  0  0  0  0  0  0  0
   12.5612  -17.2451   22.5676 N   0  0  0  0  0  0  0  0  0  0  0  0
   13.9362  -16.7090   22.7596 C   0  0  1  0  0  0  0  0  0  0  0  0
   13.8125  -15.2317   22.4815 C   0  0  0  0  0  0  0  0  0  0  0  0
   13.6691  -14.8715   21.0678 C   0  0  0  0  0  0  0  0  0  0  0  0
   13.7872  -15.8190   20.0557 C   0  0  0  0  0  0  0  0  0  0  0  0
   13.6089  -15.1967   18.8851 N   0  0  0  0  0  0  0  0  0  0  0  0
   13.3890  -13.9172   19.1506 C   0  0  0  0  0  0  0  0  0  0  0  0
   13.4233  -13.7089   20.4713 N   0  0  0  0  0  0  0  0  0  0  0  0
   14.4037  -17.0365   24.1130 C   0  0  0  0  0  0  0  0  0  0  0  0
   15.5707  -16.7177   24.4518 O   0  0  0  0  0  0  0  0  0  0  0  0
   13.6230  -17.6798   25.0398 O   0  0  0  0  0  0  0  0  0  0  0  0
  2  3  2  0
  2  1  1  0
  4  3  1  0
  5  4  2  0
  6  7  1  0
  6  5  1  0
  7  8  1  1
  9  7  1  0
  9 10  2  0
 11  5  1  0
 11 12  2  0
 12  2  1  0
 13  9  1  0
 14 13  1  0
 14 15  1  6
 16 15  1  0
 17 16  2  0
 18 19  1  0
 18 17  1  0
 19 20  2  0
 20 16  1  0
 21 14  1  0
 22 21  2  0
 23 21  1  0
 24 23  1  0
 24 25  1  1
 25 26  1  0
 26 27  2  0
 26 30  1  0
 27 28  1  0
 28 29  1  0
 30 29  2  0
 31 24  1  0
 32 31  2  0
 33 31  1  0
M  END
$$$$
