YHH.pdb
     RDKit          3D

 33 35  0  0  1  0  0  0  0  0999 V2000
    8.0222  -12.0778   17.1986 O   0  0  0  0  0  0  0  0  0  0  0  0
    8.1148  -12.8009   18.3776 C   0  0  0  0  0  0  0  0  0  0  0  0
    6.9467  -13.1735   18.9983 C   0  0  0  0  0  0  0  0  0  0  0  0
    7.0276  -13.8894   20.1655 C   0  0  0  0  0  0  0  0  0  0  0  0
    8.2578  -14.2209   20.6930 C   0  0  0  0  0  0  0  0  0  0  0  0
    8.3029  -14.9990   21.9622 C   0  0  0  0  0  0  0  0  0  0  0  0
    8.7439  -16.4055   21.7285 C   0  0  2  0  0  0  0  0  0  0  0  0
    7.8726  -17.1545   20.8767 N   0  0  0  0  0  0  0  0  0  0  0  0
    8.9760  -17.0566   23.0396 C   0  0  0  0  0  0  0  0  0  0  0  0
    7.9554  -17.5564   23.6049 O   0  0  0  0  0  0  0  0  0  0  0  0
    9.4054  -13.8397   20.0585 C   0  0  0  0  0  0  0  0  0  0  0  0
    9.3505  -13.1239   18.8911 C   0  0  0  0  0  0  0  0  0  0  0  0
   10.2473  -17.1393   23.6633 N   0  0  0  0  0  0  0  0  0  0  0  0
   10.3608  -17.8095   24.9246 C   0  0  1  0  0  0  0  0  0  0  0  0
   11.3092  -18.9617   24.9247 C   0  0  0  0  0  0  0  0  0  0  0  0
   10.8747  -20.1093   24.1085 C   0  0  0  0  0  0  0  0  0  0  0  0
   11.2602  -20.2481   22.7893 C   0  0  0  0  0  0  0  0  0  0  0  0
   10.7009  -21.3872   22.3355 N   0  0  0  0  0  0  0  0  0  0  0  0
    9.9861  -21.9639   23.3085 C   0  0  0  0  0  0  0  0  0  0  0  0
   10.1129  -21.1586   24.3776 N   0  0  0  0  0  0  0  0  0  0  0  0
   10.6927  -16.7912   25.9675 C   0  0  0  0  0  0  0  0  0  0  0  0
   11.5880  -15.9293   25.7693 O   0  0  0  0  0  0  0  0  0  0  0  0
   10.0190  -16.7535   27.2135 N   0  0  0  0  0  0  0  0  0  0  0  0
   10.3874  -15.7673   28.2655 C   0  0  1  0  0  0  0  0  0  0  0  0
    9.0841  -15.1108   28.6470 C   0  0  0  0  0  0  0  0  0  0  0  0
    8.4240  -14.3614   27.5739 C   0  0  0  0  0  0  0  0  0  0  0  0
    8.9981  -14.2293   26.3135 C   0  0  0  0  0  0  0  0  0  0  0  0
    8.1700  -13.5001   25.5572 N   0  0  0  0  0  0  0  0  0  0  0  0
    7.1241  -13.1889   26.3089 C   0  0  0  0  0  0  0  0  0  0  0  0
    7.2676  -13.7062   27.5339 N   0  0  0  0  0  0  0  0  0  0  0  0
   11.0656  -16.4603   29.3688 C   0  0  0  0  0  0  0  0  0  0  0  0
   11.5053  -15.7892   30.3356 O   0  0  0  0  0  0  0  0  0  0  0  0
   11.2462  -17.8200   29.4008 O   0  0  0  0  0  0  0  0  0  0  0  0
  2  3  2  0
  2  1  1  0
  4  3  1  0
  5  4  2  0
  6  7  1  0
  6  5  1  0
  7  8  1  1
  9  7  1  0
  9 10  2  0
 11  5  1  0
 11 12  2  0
 12  2  1  0
 13  9  1  0
 14 13  1  0
 14 15  1  6
 16 15  1  0
 17 16  2  0
 18 19  1  0
 18 17  1  0
 19 20  2  0
 20 16  1  0
 21 14  1  0
 22 21  2  0
 23 21  1  0
 24 23  1  0
 24 25  1  1
 25 26  1  0
 26 27  2  0
 26 30  1  0
 27 28  1  0
 28 29  1  0
 30 29  2  0
 31 24  1  0
 32 31  2  0
 33 31  1  0
M  END
$$$$
