YHH.pdb
     RDKit          3D

 33 35  0  0  1  0  0  0  0  0999 V2000
    8.0024  -13.0919   14.9969 O   0  0  0  0  0  0  0  0  0  0  0  0
    8.2063  -13.2429   16.3598 C   0  0  0  0  0  0  0  0  0  0  0  0
    7.2122  -12.8224   17.2104 C   0  0  0  0  0  0  0  0  0  0  0  0
    7.4043  -12.9674   18.5607 C   0  0  0  0  0  0  0  0  0  0  0  0
    8.5715  -13.5233   19.0404 C   0  0  0  0  0  0  0  0  0  0  0  0
    8.7415  -13.6633   20.5134 C   0  0  0  0  0  0  0  0  0  0  0  0
   10.0642  -14.2619   20.8590 C   0  0  2  0  0  0  0  0  0  0  0  0
   10.9058  -14.5055   19.7285 N   0  0  0  0  0  0  0  0  0  0  0  0
    9.8390  -15.4705   21.6871 C   0  0  0  0  0  0  0  0  0  0  0  0
    8.9542  -15.3723   22.5917 O   0  0  0  0  0  0  0  0  0  0  0  0
    9.5456  -13.9340   18.1760 C   0  0  0  0  0  0  0  0  0  0  0  0
    9.3771  -13.7997   16.8226 C   0  0  0  0  0  0  0  0  0  0  0  0
   10.5480  -16.6867   21.5136 N   0  0  0  0  0  0  0  0  0  0  0  0
   10.4000  -17.7234   22.4916 C   0  0  1  0  0  0  0  0  0  0  0  0
   10.9672  -19.0411   22.0803 C   0  0  0  0  0  0  0  0  0  0  0  0
   10.2683  -19.6801   20.9510 C   0  0  0  0  0  0  0  0  0  0  0  0
    8.9152  -19.9544   20.9974 C   0  0  0  0  0  0  0  0  0  0  0  0
    8.5919  -20.5311   19.8231 N   0  0  0  0  0  0  0  0  0  0  0  0
    9.6782  -20.6289   19.0482 C   0  0  0  0  0  0  0  0  0  0  0  0
   10.6846  -20.1004   19.7662 N   0  0  0  0  0  0  0  0  0  0  0  0
   10.9668  -17.2316   23.7845 C   0  0  0  0  0  0  0  0  0  0  0  0
   12.0879  -16.6612   23.8249 O   0  0  0  0  0  0  0  0  0  0  0  0
   10.2716  -17.3854   25.0096 N   0  0  0  0  0  0  0  0  0  0  0  0
   10.8100  -16.8327   26.2822 C   0  0  1  0  0  0  0  0  0  0  0  0
    9.8036  -15.7905   26.7021 C   0  0  0  0  0  0  0  0  0  0  0  0
    9.9882  -15.2517   28.0528 C   0  0  0  0  0  0  0  0  0  0  0  0
   11.0186  -15.6875   28.8800 C   0  0  0  0  0  0  0  0  0  0  0  0
   10.9300  -15.0204   30.0360 N   0  0  0  0  0  0  0  0  0  0  0  0
    9.8913  -14.2033   29.9386 C   0  0  0  0  0  0  0  0  0  0  0  0
    9.3128  -14.3353   28.7400 N   0  0  0  0  0  0  0  0  0  0  0  0
   10.9960  -17.9232   27.2485 C   0  0  0  0  0  0  0  0  0  0  0  0
   10.2103  -18.9032   27.2249 O   0  0  0  0  0  0  0  0  0  0  0  0
   11.9961  -17.9291   28.1877 O   0  0  0  0  0  0  0  0  0  0  0  0
  2  3  2  0
  2  1  1  0
  4  3  1  0
  5  4  2  0
  6  7  1  0
  6  5  1  0
  7  8  1  6
  9  7  1  0
  9 10  2  0
 11  5  1  0
 11 12  2  0
 12  2  1  0
 13  9  1  0
 14 13  1  0
 14 15  1  6
 16 15  1  0
 17 16  2  0
 18 19  1  0
 18 17  1  0
 19 20  2  0
 20 16  1  0
 21 14  1  0
 22 21  2  0
 23 21  1  0
 24 23  1  0
 24 25  1  1
 25 26  1  0
 26 27  2  0
 26 30  1  0
 27 28  1  0
 28 29  1  0
 30 29  2  0
 31 24  1  0
 32 31  2  0
 33 31  1  0
M  END
$$$$
