YHH.pdb
     RDKit          3D

 33 35  0  0  1  0  0  0  0  0999 V2000
    8.4665  -13.6404   23.2103 O   0  0  0  0  0  0  0  0  0  0  0  0
    8.2963  -13.9598   21.8722 C   0  0  0  0  0  0  0  0  0  0  0  0
    8.3028  -12.9329   20.9588 C   0  0  0  0  0  0  0  0  0  0  0  0
    8.1352  -13.2385   19.6323 C   0  0  0  0  0  0  0  0  0  0  0  0
    7.9651  -14.5488   19.2375 C   0  0  0  0  0  0  0  0  0  0  0  0
    7.7862  -14.8389   17.7877 C   0  0  0  0  0  0  0  0  0  0  0  0
    9.0458  -14.6063   17.0217 C   0  0  2  0  0  0  0  0  0  0  0  0
    9.0018  -15.0784   15.6724 N   0  0  0  0  0  0  0  0  0  0  0  0
   10.1830  -15.1601   17.7945 C   0  0  0  0  0  0  0  0  0  0  0  0
   10.3042  -16.4235   17.7846 O   0  0  0  0  0  0  0  0  0  0  0  0
    7.9621  -15.5528   20.1631 C   0  0  0  0  0  0  0  0  0  0  0  0
    8.1277  -15.2728   21.4945 C   0  0  0  0  0  0  0  0  0  0  0  0
   11.1063  -14.3620   18.5174 N   0  0  0  0  0  0  0  0  0  0  0  0
   12.1703  -15.0035   19.2311 C   0  0  1  0  0  0  0  0  0  0  0  0
   13.3711  -14.1439   19.4464 C   0  0  0  0  0  0  0  0  0  0  0  0
   14.2861  -14.0746   18.2933 C   0  0  0  0  0  0  0  0  0  0  0  0
   14.1840  -14.9540   17.2328 C   0  0  0  0  0  0  0  0  0  0  0  0
   15.1545  -14.6260   16.3571 N   0  0  0  0  0  0  0  0  0  0  0  0
   15.8554  -13.5852   16.8213 C   0  0  0  0  0  0  0  0  0  0  0  0
   15.2999  -13.2728   18.0051 N   0  0  0  0  0  0  0  0  0  0  0  0
   11.6159  -15.5475   20.5084 C   0  0  0  0  0  0  0  0  0  0  0  0
   10.9022  -14.8342   21.2604 O   0  0  0  0  0  0  0  0  0  0  0  0
   11.8682  -16.8787   20.9233 N   0  0  0  0  0  0  0  0  0  0  0  0
   11.4862  -17.3542   22.2808 C   0  0  1  0  0  0  0  0  0  0  0  0
   11.1692  -18.8175   22.0979 C   0  0  0  0  0  0  0  0  0  0  0  0
   10.9058  -19.5595   23.3344 C   0  0  0  0  0  0  0  0  0  0  0  0
    9.7471  -19.3558   24.0772 C   0  0  0  0  0  0  0  0  0  0  0  0
    9.7898  -20.1678   25.1394 N   0  0  0  0  0  0  0  0  0  0  0  0
   10.9236  -20.8498   25.0663 C   0  0  0  0  0  0  0  0  0  0  0  0
   11.6082  -20.4888   23.9755 N   0  0  0  0  0  0  0  0  0  0  0  0
   12.5819  -17.0817   23.2203 C   0  0  0  0  0  0  0  0  0  0  0  0
   13.7282  -16.8345   22.7694 O   0  0  0  0  0  0  0  0  0  0  0  0
   12.4179  -17.0819   24.5825 O   0  0  0  0  0  0  0  0  0  0  0  0
  2  3  2  0
  2  1  1  0
  4  3  1  0
  5  4  2  0
  6  7  1  0
  6  5  1  0
  7  8  1  6
  9  7  1  0
  9 10  2  0
 11  5  1  0
 11 12  2  0
 12  2  1  0
 13  9  1  0
 14 13  1  0
 14 15  1  1
 16 15  1  0
 17 16  2  0
 18 19  1  0
 18 17  1  0
 19 20  2  0
 20 16  1  0
 21 14  1  0
 22 21  2  0
 23 21  1  0
 24 23  1  0
 24 25  1  6
 25 26  1  0
 26 27  2  0
 26 30  1  0
 27 28  1  0
 28 29  1  0
 30 29  2  0
 31 24  1  0
 32 31  2  0
 33 31  1  0
M  END
$$$$
