AGT.pdb
     RDKit          3D

 17 16  0  0  1  0  0  0  0  0999 V2000
   15.6732  -12.0406  -15.1869 C   0  0  0  0  0  0  0  0  0  0  0  0
   16.6892  -11.3907  -16.1162 C   0  0  2  0  0  0  0  0  0  0  0  0
   17.9662  -12.0664  -16.0005 N   0  0  0  0  0  0  0  0  0  0  0  0
   16.8392   -9.9874  -15.7090 C   0  0  0  0  0  0  0  0  0  0  0  0
   15.8700   -9.1819  -15.8557 O   0  0  0  0  0  0  0  0  0  0  0  0
   18.0256   -9.4497  -15.1460 N   0  0  0  0  0  0  0  0  0  0  0  0
   18.1014   -8.0823  -14.7337 C   0  0  0  0  0  0  0  0  0  0  0  0
   19.4563   -7.7341  -14.2249 C   0  0  0  0  0  0  0  0  0  0  0  0
   19.8895   -8.3763  -13.2474 O   0  0  0  0  0  0  0  0  0  0  0  0
   22.4901   -7.8502  -16.2824 C   0  0  0  0  0  0  0  0  0  0  0  0
   22.5495   -6.4729  -15.6492 C   0  0  1  0  0  0  0  0  0  0  0  0
   22.1073   -5.5890  -16.6428 O   0  0  0  0  0  0  0  0  0  0  0  0
   21.6172   -6.4737  -14.4684 C   0  0  2  0  0  0  0  0  0  0  0  0
   20.2523   -6.7152  -14.8064 N   0  0  0  0  0  0  0  0  0  0  0  0
   21.7933   -5.1922  -13.7169 C   0  0  0  0  0  0  0  0  0  0  0  0
   20.7161   -4.3411  -13.6570 O   0  0  0  0  0  0  0  0  0  0  0  0
   22.8612   -4.8846  -13.1593 O   0  0  0  0  0  0  0  0  0  0  0  0
  2  1  1  1
  2  3  1  0
  4  5  2  0
  4  2  1  0
  6  4  1  0
  7  8  1  0
  7  6  1  0
  8  9  2  0
 11 10  1  6
 11 13  1  0
 12 11  1  0
 13 15  1  0
 13 14  1  6
 14  8  1  0
 15 17  2  0
 15 16  1  0
M  END
$$$$
