AGT.pdb
     RDKit          3D

 17 16  0  0  1  0  0  0  0  0999 V2000
   18.9817  -14.3008  -17.9556 C   0  0  0  0  0  0  0  0  0  0  0  0
   20.0915  -14.0050  -16.9560 C   0  0  2  0  0  0  0  0  0  0  0  0
   19.5177  -13.6176  -15.6826 N   0  0  0  0  0  0  0  0  0  0  0  0
   20.8941  -12.8963  -17.4888 C   0  0  0  0  0  0  0  0  0  0  0  0
   21.6896  -13.1024  -18.4555 O   0  0  0  0  0  0  0  0  0  0  0  0
   20.8437  -11.5703  -16.9861 N   0  0  0  0  0  0  0  0  0  0  0  0
   21.7362  -10.5588  -17.4613 C   0  0  0  0  0  0  0  0  0  0  0  0
   21.4951   -9.2515  -16.7913 C   0  0  0  0  0  0  0  0  0  0  0  0
   22.2803   -8.3171  -17.0477 O   0  0  0  0  0  0  0  0  0  0  0  0
   17.9056   -7.7419  -16.4812 C   0  0  0  0  0  0  0  0  0  0  0  0
   18.5877   -7.5878  -15.1350 C   0  0  1  0  0  0  0  0  0  0  0  0
   18.0626   -8.6110  -14.3342 O   0  0  0  0  0  0  0  0  0  0  0  0
   20.0657   -7.7700  -15.3496 C   0  0  2  0  0  0  0  0  0  0  0  0
   20.4216   -9.0417  -15.8894 N   0  0  0  0  0  0  0  0  0  0  0  0
   20.7760   -7.4846  -14.0643 C   0  0  0  0  0  0  0  0  0  0  0  0
   21.5719   -8.4785  -13.5474 O   0  0  0  0  0  0  0  0  0  0  0  0
   20.6683   -6.3996  -13.4665 O   0  0  0  0  0  0  0  0  0  0  0  0
  2  1  1  6
  2  3  1  0
  4  5  2  0
  4  2  1  0
  6  4  1  0
  7  8  1  0
  7  6  1  0
  8  9  2  0
 11 10  1  6
 11 13  1  0
 12 11  1  0
 13 15  1  0
 13 14  1  1
 14  8  1  0
 15 17  2  0
 15 16  1  0
M  END
$$$$
