AGT.pdb
     RDKit          3D

 17 16  0  0  1  0  0  0  0  0999 V2000
   13.5556  -24.6159   -3.4257 C   0  0  0  0  0  0  0  0  0  0  0  0
   13.7767  -23.1237   -3.2187 C   0  0  2  0  0  0  0  0  0  0  0  0
   15.1812  -22.8059   -3.3827 N   0  0  0  0  0  0  0  0  0  0  0  0
   13.3560  -22.7913   -1.8512 C   0  0  0  0  0  0  0  0  0  0  0  0
   12.1711  -23.0474   -1.4769 O   0  0  0  0  0  0  0  0  0  0  0  0
   14.2040  -22.1857   -0.8879 N   0  0  0  0  0  0  0  0  0  0  0  0
   13.7263  -21.8459    0.4166 C   0  0  0  0  0  0  0  0  0  0  0  0
   14.7757  -21.1729    1.2301 C   0  0  0  0  0  0  0  0  0  0  0  0
   15.9544  -21.2477    0.8294 O   0  0  0  0  0  0  0  0  0  0  0  0
   13.9911  -17.6996    3.0495 C   0  0  0  0  0  0  0  0  0  0  0  0
   14.8057  -18.5847    3.9739 C   0  0  1  0  0  0  0  0  0  0  0  0
   13.8839  -19.1149    4.8866 O   0  0  0  0  0  0  0  0  0  0  0  0
   15.4263  -19.6694    3.1362 C   0  0  2  0  0  0  0  0  0  0  0  0
   14.4809  -20.4642    2.4221 N   0  0  0  0  0  0  0  0  0  0  0  0
   16.3159  -20.4988    4.0073 C   0  0  0  0  0  0  0  0  0  0  0  0
   17.4241  -19.8881    4.5432 O   0  0  0  0  0  0  0  0  0  0  0  0
   16.0851  -21.6957    4.2529 O   0  0  0  0  0  0  0  0  0  0  0  0
  2  1  1  1
  2  3  1  0
  4  5  2  0
  4  2  1  0
  6  4  1  0
  7  8  1  0
  7  6  1  0
  8  9  2  0
 11 10  1  6
 11 13  1  0
 12 11  1  0
 13 15  1  0
 13 14  1  1
 14  8  1  0
 15 17  2  0
 15 16  1  0
M  END
$$$$
