AGT.pdb
     RDKit          3D

 17 16  0  0  1  0  0  0  0  0999 V2000
   14.9951  -11.7705  -15.6978 C   0  0  0  0  0  0  0  0  0  0  0  0
   16.5056  -11.6163  -15.5839 C   0  0  2  0  0  0  0  0  0  0  0  0
   16.9447  -12.0237  -14.2641 N   0  0  0  0  0  0  0  0  0  0  0  0
   16.8308  -10.1991  -15.7921 C   0  0  0  0  0  0  0  0  0  0  0  0
   16.6607   -9.6752  -16.9350 O   0  0  0  0  0  0  0  0  0  0  0  0
   17.3371   -9.3463  -14.7772 N   0  0  0  0  0  0  0  0  0  0  0  0
   17.7435   -8.0055  -15.0647 C   0  0  0  0  0  0  0  0  0  0  0  0
   18.8970   -7.5862  -14.2223 C   0  0  0  0  0  0  0  0  0  0  0  0
   18.8927   -7.9305  -13.0236 O   0  0  0  0  0  0  0  0  0  0  0  0
   22.1186   -8.7271  -14.1247 C   0  0  0  0  0  0  0  0  0  0  0  0
   22.3752   -7.2580  -14.4029 C   0  0  1  0  0  0  0  0  0  0  0  0
   22.5781   -7.1729  -15.7869 O   0  0  0  0  0  0  0  0  0  0  0  0
   21.1482   -6.4941  -13.9855 C   0  0  2  0  0  0  0  0  0  0  0  0
   19.9776   -6.8230  -14.7318 N   0  0  0  0  0  0  0  0  0  0  0  0
   21.4544   -5.0305  -14.0338 C   0  0  0  0  0  0  0  0  0  0  0  0
   22.3790   -4.5480  -13.1390 O   0  0  0  0  0  0  0  0  0  0  0  0
   20.9086   -4.2588  -14.8415 O   0  0  0  0  0  0  0  0  0  0  0  0
  2  1  1  1
  2  3  1  0
  4  5  2  0
  4  2  1  0
  6  4  1  0
  7  8  1  0
  7  6  1  0
  8  9  2  0
 11 10  1  6
 11 13  1  0
 12 11  1  0
 13 15  1  0
 13 14  1  6
 14  8  1  0
 15 17  2  0
 15 16  1  0
M  END
$$$$
