AGT.pdb
     RDKit          3D

 17 16  0  0  1  0  0  0  0  0999 V2000
   16.7025  -12.0414  -17.3522 C   0  0  0  0  0  0  0  0  0  0  0  0
   17.9432  -11.2238  -17.6845 C   0  0  2  0  0  0  0  0  0  0  0  0
   19.1136  -11.8413  -17.0932 N   0  0  0  0  0  0  0  0  0  0  0  0
   17.7614   -9.8797  -17.1208 C   0  0  0  0  0  0  0  0  0  0  0  0
   16.9470   -9.0733  -17.6649 O   0  0  0  0  0  0  0  0  0  0  0  0
   18.4513   -9.4018  -15.9765 N   0  0  0  0  0  0  0  0  0  0  0  0
   18.3226   -8.0456  -15.5412 C   0  0  0  0  0  0  0  0  0  0  0  0
   19.4791   -7.6228  -14.7046 C   0  0  0  0  0  0  0  0  0  0  0  0
   19.5212   -8.0322  -13.5272 O   0  0  0  0  0  0  0  0  0  0  0  0
   23.0420   -8.2462  -15.5019 C   0  0  0  0  0  0  0  0  0  0  0  0
   22.9706   -6.7523  -15.2474 C   0  0  1  0  0  0  0  0  0  0  0  0
   22.9264   -6.1618  -16.5175 O   0  0  0  0  0  0  0  0  0  0  0  0
   21.7066   -6.4811  -14.4777 C   0  0  2  0  0  0  0  0  0  0  0  0
   20.5124   -6.7861  -15.1964 N   0  0  0  0  0  0  0  0  0  0  0  0
   21.7303   -5.0636  -14.0001 C   0  0  0  0  0  0  0  0  0  0  0  0
   22.6926   -4.7221  -13.0806 O   0  0  0  0  0  0  0  0  0  0  0  0
   20.9230   -4.2080  -14.4029 O   0  0  0  0  0  0  0  0  0  0  0  0
  2  1  1  1
  2  3  1  0
  4  5  2  0
  4  2  1  0
  6  4  1  0
  7  8  1  0
  7  6  1  0
  8  9  2  0
 11 10  1  6
 11 13  1  0
 12 11  1  0
 13 15  1  0
 13 14  1  6
 14  8  1  0
 15 17  2  0
 15 16  1  0
M  END
$$$$
