AGT.pdb
     RDKit          3D

 17 16  0  0  1  0  0  0  0  0999 V2000
   15.5670  -14.5768  -16.9740 C   0  0  0  0  0  0  0  0  0  0  0  0
   16.9535  -14.3973  -16.3709 C   0  0  2  0  0  0  0  0  0  0  0  0
   16.8837  -14.5218  -14.9286 N   0  0  0  0  0  0  0  0  0  0  0  0
   17.4278  -13.0527  -16.7238 C   0  0  0  0  0  0  0  0  0  0  0  0
   17.7643  -12.7973  -17.9201 O   0  0  0  0  0  0  0  0  0  0  0  0
   17.5407  -11.9849  -15.7960 N   0  0  0  0  0  0  0  0  0  0  0  0
   18.0202  -10.6982  -16.1955 C   0  0  0  0  0  0  0  0  0  0  0  0
   18.9720  -10.1311  -15.2013 C   0  0  0  0  0  0  0  0  0  0  0  0
   18.7662  -10.3804  -13.9967 O   0  0  0  0  0  0  0  0  0  0  0  0
   22.5467  -10.8080  -14.9729 C   0  0  0  0  0  0  0  0  0  0  0  0
   22.4823   -9.2939  -15.0424 C   0  0  1  0  0  0  0  0  0  0  0  0
   22.7651   -8.9717  -16.3766 O   0  0  0  0  0  0  0  0  0  0  0  0
   21.0853   -8.8797  -14.6676 C   0  0  2  0  0  0  0  0  0  0  0  0
   20.0821   -9.3327  -15.5753 N   0  0  0  0  0  0  0  0  0  0  0  0
   21.0561   -7.3944  -14.4911 C   0  0  0  0  0  0  0  0  0  0  0  0
   20.2272   -6.6755  -15.3183 O   0  0  0  0  0  0  0  0  0  0  0  0
   21.7445   -6.8081  -13.6376 O   0  0  0  0  0  0  0  0  0  0  0  0
  2  1  1  6
  2  3  1  0
  4  5  2  0
  4  2  1  0
  6  4  1  0
  7  8  1  0
  7  6  1  0
  8  9  2  0
 11 10  1  6
 11 13  1  0
 12 11  1  0
 13 15  1  0
 13 14  1  6
 14  8  1  0
 15 17  2  0
 15 16  1  0
M  END
$$$$
