AGT.pdb
     RDKit          3D

 17 16  0  0  1  0  0  0  0  0999 V2000
   15.3734  -10.2243  -17.0396 C   0  0  0  0  0  0  0  0  0  0  0  0
   16.8562   -9.8862  -17.1127 C   0  0  2  0  0  0  0  0  0  0  0  0
   17.5640  -10.5346  -16.0268 N   0  0  0  0  0  0  0  0  0  0  0  0
   16.9929   -8.4293  -16.9853 C   0  0  0  0  0  0  0  0  0  0  0  0
   16.5240   -7.6713  -17.8882 O   0  0  0  0  0  0  0  0  0  0  0  0
   17.6308   -7.7873  -15.8923 N   0  0  0  0  0  0  0  0  0  0  0  0
   17.8444   -6.3732  -15.8802 C   0  0  0  0  0  0  0  0  0  0  0  0
   18.7064   -5.9554  -14.7407 C   0  0  0  0  0  0  0  0  0  0  0  0
   18.1423   -5.6476  -13.6717 O   0  0  0  0  0  0  0  0  0  0  0  0
   20.9609   -8.1320  -13.1441 C   0  0  0  0  0  0  0  0  0  0  0  0
   21.8670   -6.9584  -13.4653 C   0  0  1  0  0  0  0  0  0  0  0  0
   22.5556   -7.3292  -14.6281 O   0  0  0  0  0  0  0  0  0  0  0  0
   20.9908   -5.7603  -13.7111 C   0  0  2  0  0  0  0  0  0  0  0  0
   20.1199   -5.8983  -14.8327 N   0  0  0  0  0  0  0  0  0  0  0  0
   21.8576   -4.5455  -13.8169 C   0  0  0  0  0  0  0  0  0  0  0  0
   21.8465   -3.8627  -15.0094 O   0  0  0  0  0  0  0  0  0  0  0  0
   22.5695   -4.1474  -12.8785 O   0  0  0  0  0  0  0  0  0  0  0  0
  2  1  1  1
  2  3  1  0
  4  5  2  0
  4  2  1  0
  6  4  1  0
  7  8  1  0
  7  6  1  0
  8  9  2  0
 11 10  1  6
 11 13  1  0
 12 11  1  0
 13 15  1  0
 13 14  1  6
 14  8  1  0
 15 17  2  0
 15 16  1  0
M  END
$$$$
