AGT.pdb
     RDKit          3D

 17 16  0  0  1  0  0  0  0  0999 V2000
   15.2537  -11.1788  -15.8289 C   0  0  0  0  0  0  0  0  0  0  0  0
   16.6786  -10.7943  -16.2031 C   0  0  2  0  0  0  0  0  0  0  0  0
   17.6203  -11.5950  -15.4463 N   0  0  0  0  0  0  0  0  0  0  0  0
   16.8645   -9.3757  -15.8709 C   0  0  0  0  0  0  0  0  0  0  0  0
   16.2156   -8.4897  -16.5062 O   0  0  0  0  0  0  0  0  0  0  0  0
   17.7440   -8.9087  -14.8599 N   0  0  0  0  0  0  0  0  0  0  0  0
   17.8696   -7.5144  -14.5674 C   0  0  0  0  0  0  0  0  0  0  0  0
   19.1459   -7.2114  -13.8636 C   0  0  0  0  0  0  0  0  0  0  0  0
   19.3008   -7.6821  -12.7191 O   0  0  0  0  0  0  0  0  0  0  0  0
   22.3841   -8.2444  -14.9957 C   0  0  0  0  0  0  0  0  0  0  0  0
   22.5805   -6.7542  -14.7898 C   0  0  1  0  0  0  0  0  0  0  0  0
   22.4798   -6.1872  -16.0674 O   0  0  0  0  0  0  0  0  0  0  0  0
   21.4757   -6.2690  -13.8911 C   0  0  2  0  0  0  0  0  0  0  0  0
   20.1691   -6.4200  -14.4438 N   0  0  0  0  0  0  0  0  0  0  0  0
   21.7619   -4.8537  -13.5000 C   0  0  0  0  0  0  0  0  0  0  0  0
   22.8844   -4.6217  -12.7421 O   0  0  0  0  0  0  0  0  0  0  0  0
   21.0298   -3.9058  -13.8340 O   0  0  0  0  0  0  0  0  0  0  0  0
  2  1  1  1
  2  3  1  0
  4  5  2  0
  4  2  1  0
  6  4  1  0
  7  8  1  0
  7  6  1  0
  8  9  2  0
 11 10  1  6
 11 13  1  0
 12 11  1  0
 13 15  1  0
 13 14  1  6
 14  8  1  0
 15 17  2  0
 15 16  1  0
M  END
$$$$
