DDP.pdb
     RDKit          3D

 24 24  0  0  1  0  0  0  0  0999 V2000
   20.2415  -11.0873  -15.7270 N   0  0  0  0  0  0  0  0  0  0  0  0
   19.4153   -9.9174  -15.6988 C   0  0  1  0  0  0  0  0  0  0  0  0
   17.9573  -10.3259  -15.5516 C   0  0  0  0  0  0  0  0  0  0  0  0
   17.4589  -10.9817  -16.7783 C   0  0  0  0  0  0  0  0  0  0  0  0
   17.0961  -12.1840  -16.7392 O   0  0  0  0  0  0  0  0  0  0  0  0
   19.7808   -9.0801  -14.5050 C   0  0  0  0  0  0  0  0  0  0  0  0
   19.9691   -9.5918  -13.3838 O   0  0  0  0  0  0  0  0  0  0  0  0
   17.3784  -10.3074  -17.9780 O   0  0  0  0  0  0  0  0  0  0  0  0
   19.9133   -7.6892  -14.6551 N   0  0  0  0  0  0  0  0  0  0  0  0
   20.2826   -6.7991  -13.5404 C   0  0  1  0  0  0  0  0  0  0  0  0
   21.3403   -5.8739  -14.1364 C   0  0  0  0  0  0  0  0  0  0  0  0
   21.8229   -4.8705  -13.1671 C   0  0  0  0  0  0  0  0  0  0  0  0
   22.1103   -5.2444  -12.0074 O   0  0  0  0  0  0  0  0  0  0  0  0
   19.0931   -5.9628  -13.2432 C   0  0  0  0  0  0  0  0  0  0  0  0
   18.5067   -5.3871  -14.2206 O   0  0  0  0  0  0  0  0  0  0  0  0
   21.9761   -3.5296  -13.4715 O   0  0  0  0  0  0  0  0  0  0  0  0
   18.5552   -5.7578  -11.9397 N   0  0  0  0  0  0  0  0  0  0  0  0
   19.0995   -6.3665  -10.7489 C   0  0  0  0  0  0  0  0  0  0  0  0
   17.9208   -6.3739   -9.7705 C   0  0  0  0  0  0  0  0  0  0  0  0
   17.3470   -4.9855  -10.0940 C   0  0  0  0  0  0  0  0  0  0  0  0
   17.4236   -4.9776  -11.5894 C   0  0  1  0  0  0  0  0  0  0  0  0
   17.4584   -3.6024  -12.1469 C   0  0  0  0  0  0  0  0  0  0  0  0
   18.6009   -2.9671  -12.6003 O   0  0  0  0  0  0  0  0  0  0  0  0
   16.3713   -2.9760  -12.2087 O   0  0  0  0  0  0  0  0  0  0  0  0
  2  1  1  1
  3  2  1  0
  3  4  1  0
  4  8  1  0
  5  4  2  0
  6  7  2  0
  6  2  1  0
  9  6  1  0
 10 14  1  0
 10  9  1  0
 10 11  1  6
 12 16  1  0
 12 11  1  0
 13 12  2  0
 14 17  1  0
 15 14  2  0
 17 21  1  0
 17 18  1  0
 18 19  1  0
 20 19  1  0
 21 20  1  0
 21 22  1  1
 22 24  2  0
 22 23  1  0
M  END
$$$$
