DDP.pdb
     RDKit          3D

 24 24  0  0  1  0  0  0  0  0999 V2000
   24.9153   -8.7574  -20.6361 N   0  0  0  0  0  0  0  0  0  0  0  0
   24.0581   -9.4805  -19.7447 C   0  0  1  0  0  0  0  0  0  0  0  0
   24.7156  -10.7976  -19.3609 C   0  0  0  0  0  0  0  0  0  0  0  0
   24.7047  -11.7502  -20.4904 C   0  0  0  0  0  0  0  0  0  0  0  0
   25.3887  -12.8021  -20.4255 O   0  0  0  0  0  0  0  0  0  0  0  0
   23.8620   -8.6809  -18.4870 C   0  0  0  0  0  0  0  0  0  0  0  0
   24.8303   -8.2237  -17.8483 O   0  0  0  0  0  0  0  0  0  0  0  0
   23.9584  -11.5180  -21.6260 O   0  0  0  0  0  0  0  0  0  0  0  0
   22.5583   -8.4430  -18.0195 N   0  0  0  0  0  0  0  0  0  0  0  0
   22.2762   -7.6205  -16.8299 C   0  0  1  0  0  0  0  0  0  0  0  0
   21.8997   -6.2557  -17.4005 C   0  0  0  0  0  0  0  0  0  0  0  0
   21.4766   -5.3041  -16.3543 C   0  0  0  0  0  0  0  0  0  0  0  0
   20.3692   -4.7325  -16.4737 O   0  0  0  0  0  0  0  0  0  0  0  0
   21.0542   -8.1786  -16.1990 C   0  0  0  0  0  0  0  0  0  0  0  0
   20.0308   -8.3665  -16.9391 O   0  0  0  0  0  0  0  0  0  0  0  0
   22.2420   -5.0067  -15.2408 O   0  0  0  0  0  0  0  0  0  0  0  0
   20.9423   -8.5232  -14.8208 N   0  0  0  0  0  0  0  0  0  0  0  0
   22.0448   -8.4559  -13.8911 C   0  0  0  0  0  0  0  0  0  0  0  0
   21.6507   -9.4393  -12.7847 C   0  0  0  0  0  0  0  0  0  0  0  0
   20.1555   -9.0956  -12.6957 C   0  0  0  0  0  0  0  0  0  0  0  0
   19.7899   -8.9995  -14.1446 C   0  0  1  0  0  0  0  0  0  0  0  0
   18.5846   -8.1630  -14.3697 C   0  0  0  0  0  0  0  0  0  0  0  0
   18.6103   -6.8136  -14.6748 O   0  0  0  0  0  0  0  0  0  0  0  0
   17.4651   -8.7250  -14.2751 O   0  0  0  0  0  0  0  0  0  0  0  0
  2  1  1  6
  3  2  1  0
  3  4  1  0
  4  8  1  0
  5  4  2  0
  6  7  2  0
  6  2  1  0
  9  6  1  0
 10 14  1  0
 10  9  1  0
 10 11  1  6
 12 16  1  0
 12 11  1  0
 13 12  2  0
 14 17  1  0
 15 14  2  0
 17 21  1  0
 17 18  1  0
 18 19  1  0
 20 19  1  0
 21 20  1  0
 21 22  1  1
 22 24  2  0
 22 23  1  0
M  END
$$$$
