DDP.pdb
     RDKit          3D

 24 24  0  0  1  0  0  0  0  0999 V2000
   18.3804  -13.3651  -16.7271 N   0  0  0  0  0  0  0  0  0  0  0  0
   18.0534  -12.0373  -16.3000 C   0  0  1  0  0  0  0  0  0  0  0  0
   17.3534  -12.0933  -14.9505 C   0  0  0  0  0  0  0  0  0  0  0  0
   16.0253  -12.7312  -15.0627 C   0  0  0  0  0  0  0  0  0  0  0  0
   15.3251  -12.5371  -16.0878 O   0  0  0  0  0  0  0  0  0  0  0  0
   19.3194  -11.2451  -16.1287 C   0  0  0  0  0  0  0  0  0  0  0  0
   20.3374  -11.7477  -15.6133 O   0  0  0  0  0  0  0  0  0  0  0  0
   15.5252  -13.5422  -14.0665 O   0  0  0  0  0  0  0  0  0  0  0  0
   19.3573   -9.9078  -16.5586 N   0  0  0  0  0  0  0  0  0  0  0  0
   20.5957   -9.1093  -16.5698 C   0  0  1  0  0  0  0  0  0  0  0  0
   20.8708   -8.8683  -18.0518 C   0  0  0  0  0  0  0  0  0  0  0  0
   22.0756   -8.0451  -18.2752 C   0  0  0  0  0  0  0  0  0  0  0  0
   22.0023   -7.0722  -19.0597 O   0  0  0  0  0  0  0  0  0  0  0  0
   20.2658   -7.7923  -15.9704 C   0  0  0  0  0  0  0  0  0  0  0  0
   19.2160   -7.1930  -16.3824 O   0  0  0  0  0  0  0  0  0  0  0  0
   23.2908   -8.2912  -17.6610 O   0  0  0  0  0  0  0  0  0  0  0  0
   21.0390   -7.1474  -14.9620 N   0  0  0  0  0  0  0  0  0  0  0  0
   22.1662   -7.7661  -14.3054 C   0  0  0  0  0  0  0  0  0  0  0  0
   22.2715   -7.0152  -12.9744 C   0  0  0  0  0  0  0  0  0  0  0  0
   21.9815   -5.5965  -13.4892 C   0  0  0  0  0  0  0  0  0  0  0  0
   20.8385   -5.8510  -14.4223 C   0  0  1  0  0  0  0  0  0  0  0  0
   20.7061   -4.7944  -15.4563 C   0  0  0  0  0  0  0  0  0  0  0  0
   21.0780   -4.9403  -16.7810 O   0  0  0  0  0  0  0  0  0  0  0  0
   20.2220   -3.6921  -15.0977 O   0  0  0  0  0  0  0  0  0  0  0  0
  2  1  1  1
  3  2  1  0
  3  4  1  0
  4  8  1  0
  5  4  2  0
  6  7  2  0
  6  2  1  0
  9  6  1  0
 10 14  1  0
 10  9  1  0
 10 11  1  6
 12 16  1  0
 12 11  1  0
 13 12  2  0
 14 17  1  0
 15 14  2  0
 17 21  1  0
 17 18  1  0
 18 19  1  0
 20 19  1  0
 21 20  1  0
 21 22  1  6
 22 24  2  0
 22 23  1  0
M  END
$$$$
