DDP.pdb
     RDKit          3D

 24 24  0  0  1  0  0  0  0  0999 V2000
   18.8730  -14.0338  -16.4670 N   0  0  0  0  0  0  0  0  0  0  0  0
   18.0872  -12.8361  -16.4796 C   0  0  1  0  0  0  0  0  0  0  0  0
   16.6141  -13.1909  -16.3431 C   0  0  0  0  0  0  0  0  0  0  0  0
   16.0914  -13.7934  -17.5869 C   0  0  0  0  0  0  0  0  0  0  0  0
   16.0952  -15.0423  -17.7243 O   0  0  0  0  0  0  0  0  0  0  0  0
   18.4653  -11.9819  -15.3018 C   0  0  0  0  0  0  0  0  0  0  0  0
   18.6434  -12.4746  -14.1704 O   0  0  0  0  0  0  0  0  0  0  0  0
   15.5938  -13.0188  -18.6130 O   0  0  0  0  0  0  0  0  0  0  0  0
   18.6215  -10.5967  -15.4789 N   0  0  0  0  0  0  0  0  0  0  0  0
   19.1490   -9.7131  -14.4242 C   0  0  1  0  0  0  0  0  0  0  0  0
   20.1454   -8.8154  -15.1533 C   0  0  0  0  0  0  0  0  0  0  0  0
   20.8631   -7.9082  -14.2362 C   0  0  0  0  0  0  0  0  0  0  0  0
   21.5887   -7.0117  -14.7231 O   0  0  0  0  0  0  0  0  0  0  0  0
   18.0265   -8.8473  -13.9848 C   0  0  0  0  0  0  0  0  0  0  0  0
   17.3687   -8.2190  -14.8810 O   0  0  0  0  0  0  0  0  0  0  0  0
   20.7778   -7.9946  -12.8580 O   0  0  0  0  0  0  0  0  0  0  0  0
   17.6274   -8.6686  -12.6286 N   0  0  0  0  0  0  0  0  0  0  0  0
   18.1841   -9.4207  -11.5290 C   0  0  0  0  0  0  0  0  0  0  0  0
   17.0980   -9.3508  -10.4511 C   0  0  0  0  0  0  0  0  0  0  0  0
   16.6829   -7.8833  -10.6401 C   0  0  0  0  0  0  0  0  0  0  0  0
   16.6379   -7.7812  -12.1333 C   0  0  1  0  0  0  0  0  0  0  0  0
   16.8036   -6.3855  -12.6103 C   0  0  0  0  0  0  0  0  0  0  0  0
   17.9566   -5.8842  -13.1882 O   0  0  0  0  0  0  0  0  0  0  0  0
   15.8250   -5.6090  -12.4772 O   0  0  0  0  0  0  0  0  0  0  0  0
  2  1  1  1
  3  2  1  0
  3  4  1  0
  4  8  1  0
  5  4  2  0
  6  7  2  0
  6  2  1  0
  9  6  1  0
 10 14  1  0
 10  9  1  0
 10 11  1  6
 12 16  1  0
 12 11  1  0
 13 12  2  0
 14 17  1  0
 15 14  2  0
 17 21  1  0
 17 18  1  0
 18 19  1  0
 20 19  1  0
 21 20  1  0
 21 22  1  1
 22 24  2  0
 22 23  1  0
M  END
$$$$
