DDP.pdb
     RDKit          3D

 24 24  0  0  1  0  0  0  0  0999 V2000
   19.2639  -12.0171  -16.1577 N   0  0  0  0  0  0  0  0  0  0  0  0
   18.7296  -10.8527  -16.7988 C   0  0  1  0  0  0  0  0  0  0  0  0
   17.2393  -11.0414  -17.0395 C   0  0  0  0  0  0  0  0  0  0  0  0
   16.9882  -12.1085  -18.0302 C   0  0  0  0  0  0  0  0  0  0  0  0
   16.6776  -11.8042  -19.2090 O   0  0  0  0  0  0  0  0  0  0  0  0
   18.9023   -9.6647  -15.8942 C   0  0  0  0  0  0  0  0  0  0  0  0
   18.4911   -9.6771  -14.7172 O   0  0  0  0  0  0  0  0  0  0  0  0
   17.0857  -13.4427  -17.6975 O   0  0  0  0  0  0  0  0  0  0  0  0
   19.5413   -8.5135  -16.3853 N   0  0  0  0  0  0  0  0  0  0  0  0
   19.8102   -7.3322  -15.5464 C   0  0  1  0  0  0  0  0  0  0  0  0
   21.3208   -7.3643  -15.3300 C   0  0  0  0  0  0  0  0  0  0  0  0
   21.7128   -8.2553  -14.2203 C   0  0  0  0  0  0  0  0  0  0  0  0
   21.1189   -8.1470  -13.1235 O   0  0  0  0  0  0  0  0  0  0  0  0
   19.5164   -6.1374  -16.3762 C   0  0  0  0  0  0  0  0  0  0  0  0
   20.0047   -6.0925  -17.5553 O   0  0  0  0  0  0  0  0  0  0  0  0
   22.7080   -9.2108  -14.3259 O   0  0  0  0  0  0  0  0  0  0  0  0
   18.7230   -5.0332  -15.9499 N   0  0  0  0  0  0  0  0  0  0  0  0
   17.9952   -5.0100  -14.7031 C   0  0  0  0  0  0  0  0  0  0  0  0
   16.8811   -3.9877  -14.9490 C   0  0  0  0  0  0  0  0  0  0  0  0
   17.6964   -2.9450  -15.7298 C   0  0  0  0  0  0  0  0  0  0  0  0
   18.4896   -3.8213  -16.6490 C   0  0  1  0  0  0  0  0  0  0  0  0
   19.7329   -3.1643  -17.1242 C   0  0  0  0  0  0  0  0  0  0  0  0
   19.7689   -2.0508  -17.9447 O   0  0  0  0  0  0  0  0  0  0  0  0
   20.8263   -3.6585  -16.7523 O   0  0  0  0  0  0  0  0  0  0  0  0
  2  1  1  1
  3  2  1  0
  3  4  1  0
  4  8  1  0
  5  4  2  0
  6  7  2  0
  6  2  1  0
  9  6  1  0
 10 14  1  0
 10  9  1  0
 10 11  1  6
 12 16  1  0
 12 11  1  0
 13 12  2  0
 14 17  1  0
 15 14  2  0
 17 21  1  0
 17 18  1  0
 18 19  1  0
 20 19  1  0
 21 20  1  0
 21 22  1  1
 22 24  2  0
 22 23  1  0
M  END
$$$$
