DDP.pdb
     RDKit          3D

 24 24  0  0  1  0  0  0  0  0999 V2000
   16.0405   -9.9261  -10.0989 N   0  0  0  0  0  0  0  0  0  0  0  0
   15.4388   -8.7540  -10.6614 C   0  0  1  0  0  0  0  0  0  0  0  0
   14.9020   -7.8703   -9.5455 C   0  0  0  0  0  0  0  0  0  0  0  0
   13.7589   -8.5087   -8.8605 C   0  0  0  0  0  0  0  0  0  0  0  0
   13.3698   -9.6463   -9.2254 O   0  0  0  0  0  0  0  0  0  0  0  0
   16.4821   -7.9697  -11.4072 C   0  0  0  0  0  0  0  0  0  0  0  0
   16.2955   -6.7799  -11.7298 O   0  0  0  0  0  0  0  0  0  0  0  0
   13.0990   -7.8879   -7.8215 O   0  0  0  0  0  0  0  0  0  0  0  0
   17.6954   -8.5908  -11.7493 N   0  0  0  0  0  0  0  0  0  0  0  0
   18.7516   -7.9076  -12.5168 C   0  0  1  0  0  0  0  0  0  0  0  0
   19.9912   -8.7702  -12.2949 C   0  0  0  0  0  0  0  0  0  0  0  0
   21.1714   -8.2583  -13.0190 C   0  0  0  0  0  0  0  0  0  0  0  0
   21.8783   -9.0658  -13.6637 O   0  0  0  0  0  0  0  0  0  0  0  0
   18.3902   -8.0290  -13.9511 C   0  0  0  0  0  0  0  0  0  0  0  0
   18.1193   -9.1918  -14.4040 O   0  0  0  0  0  0  0  0  0  0  0  0
   21.5427   -6.9254  -13.0244 O   0  0  0  0  0  0  0  0  0  0  0  0
   18.3214   -6.9353  -14.8620 N   0  0  0  0  0  0  0  0  0  0  0  0
   18.3852   -5.5524  -14.4520 C   0  0  0  0  0  0  0  0  0  0  0  0
   17.6902   -4.8006  -15.5915 C   0  0  0  0  0  0  0  0  0  0  0  0
   18.2699   -5.5923  -16.7742 C   0  0  0  0  0  0  0  0  0  0  0  0
   18.1579   -6.9976  -16.2696 C   0  0  1  0  0  0  0  0  0  0  0  0
   19.1150   -7.9160  -16.9357 C   0  0  0  0  0  0  0  0  0  0  0  0
   19.0417   -8.2995  -18.2631 O   0  0  0  0  0  0  0  0  0  0  0  0
   20.0554   -8.3745  -16.2404 O   0  0  0  0  0  0  0  0  0  0  0  0
  2  1  1  1
  3  2  1  0
  3  4  1  0
  4  8  1  0
  5  4  2  0
  6  7  2  0
  6  2  1  0
  9  6  1  0
 10 14  1  0
 10  9  1  0
 10 11  1  6
 12 16  1  0
 12 11  1  0
 13 12  2  0
 14 17  1  0
 15 14  2  0
 17 21  1  0
 17 18  1  0
 18 19  1  0
 20 19  1  0
 21 20  1  0
 21 22  1  6
 22 24  2  0
 22 23  1  0
M  END
$$$$
