DDP.pdb
     RDKit          3D

 24 24  0  0  1  0  0  0  0  0999 V2000
   20.2258  -12.1296  -16.8354 N   0  0  0  0  0  0  0  0  0  0  0  0
   20.1573  -10.9652  -17.6670 C   0  0  1  0  0  0  0  0  0  0  0  0
   19.2327  -11.2333  -18.8450 C   0  0  0  0  0  0  0  0  0  0  0  0
   19.7646  -12.3075  -19.7089 C   0  0  0  0  0  0  0  0  0  0  0  0
   20.8798  -12.1622  -20.2693 O   0  0  0  0  0  0  0  0  0  0  0  0
   19.5772   -9.8249  -16.8776 C   0  0  0  0  0  0  0  0  0  0  0  0
   18.4769   -9.9259  -16.3001 O   0  0  0  0  0  0  0  0  0  0  0  0
   19.0676  -13.4777  -19.9213 O   0  0  0  0  0  0  0  0  0  0  0  0
   20.2903   -8.6174  -16.7882 N   0  0  0  0  0  0  0  0  0  0  0  0
   19.8149   -7.4679  -15.9984 C   0  0  1  0  0  0  0  0  0  0  0  0
   20.8296   -7.3492  -14.8642 C   0  0  0  0  0  0  0  0  0  0  0  0
   20.4258   -8.1086  -13.6644 C   0  0  0  0  0  0  0  0  0  0  0  0
   19.3229   -8.7009  -13.6706 O   0  0  0  0  0  0  0  0  0  0  0  0
   19.9742   -6.2631  -16.8503 C   0  0  0  0  0  0  0  0  0  0  0  0
   21.0541   -6.1425  -17.5209 O   0  0  0  0  0  0  0  0  0  0  0  0
   21.2047   -8.2026  -12.5248 O   0  0  0  0  0  0  0  0  0  0  0  0
   19.0025   -5.2282  -16.9754 N   0  0  0  0  0  0  0  0  0  0  0  0
   17.7133   -5.2637  -16.3264 C   0  0  0  0  0  0  0  0  0  0  0  0
   16.8459   -4.3384  -17.1853 C   0  0  0  0  0  0  0  0  0  0  0  0
   17.8806   -3.2327  -17.4462 C   0  0  0  0  0  0  0  0  0  0  0  0
   19.1049   -4.0412  -17.7451 C   0  0  1  0  0  0  0  0  0  0  0  0
   20.3574   -3.2836  -17.4992 C   0  0  0  0  0  0  0  0  0  0  0  0
   21.2896   -3.6007  -16.5272 O   0  0  0  0  0  0  0  0  0  0  0  0
   20.5814   -2.2849  -18.2276 O   0  0  0  0  0  0  0  0  0  0  0  0
  2  1  1  1
  3  2  1  0
  3  4  1  0
  4  8  1  0
  5  4  2  0
  6  7  2  0
  6  2  1  0
  9  6  1  0
 10 14  1  0
 10  9  1  0
 10 11  1  1
 12 16  1  0
 12 11  1  0
 13 12  2  0
 14 17  1  0
 15 14  2  0
 17 21  1  0
 17 18  1  0
 18 19  1  0
 20 19  1  0
 21 20  1  0
 21 22  1  1
 22 24  2  0
 22 23  1  0
M  END
$$$$
