NQC.pdb
     RDKit          3D

 24 23  0  0  1  0  0  0  0  0999 V2000
   16.9120  -14.0380  -16.9839 N   0  0  0  0  0  0  0  0  0  0  0  0
   17.4607  -13.4877  -15.7968 C   0  0  0  0  0  0  0  0  0  0  0  0
   17.0345  -13.7817  -14.6687 O   0  0  0  0  0  0  0  0  0  0  0  0
   18.5823  -12.5305  -15.9494 C   0  0  0  0  0  0  0  0  0  0  0  0
   18.8636  -12.2728  -17.4358 C   0  0  2  0  0  0  0  0  0  0  0  0
   19.5159  -13.4577  -17.9365 N   0  0  0  0  0  0  0  0  0  0  0  0
   19.8124  -11.1334  -17.5416 C   0  0  0  0  0  0  0  0  0  0  0  0
   21.0498  -11.3324  -17.6516 O   0  0  0  0  0  0  0  0  0  0  0  0
   19.4418   -8.2668  -21.5488 N   0  0  0  0  0  0  0  0  0  0  0  0
   18.4321   -7.7149  -20.7392 C   0  0  0  0  0  0  0  0  0  0  0  0
   17.3132   -7.3389  -21.1148 O   0  0  0  0  0  0  0  0  0  0  0  0
   18.7661   -7.5741  -19.2609 C   0  0  0  0  0  0  0  0  0  0  0  0
   20.1731   -8.0180  -19.0174 C   0  0  0  0  0  0  0  0  0  0  0  0
   20.3238   -8.6585  -17.6902 C   0  0  2  0  0  0  0  0  0  0  0  0
   19.3938   -9.7787  -17.5258 N   0  0  0  0  0  0  0  0  0  0  0  0
   19.9924   -7.6932  -16.6209 C   0  0  0  0  0  0  0  0  0  0  0  0
   18.8162   -7.3898  -16.2963 O   0  0  0  0  0  0  0  0  0  0  0  0
   21.0193   -7.0342  -15.8777 N   0  0  0  0  0  0  0  0  0  0  0  0
   20.7802   -6.1154  -14.8083 C   0  0  1  0  0  0  0  0  0  0  0  0
   21.8402   -6.1123  -13.7534 C   0  0  0  0  0  0  0  0  0  0  0  0
   21.8790   -7.7560  -12.9528 S   0  0  0  0  0  0  0  0  0  0  0  0
   20.6802   -4.7496  -15.3936 C   0  0  0  0  0  0  0  0  0  0  0  0
   20.9488   -4.4921  -16.5943 O   0  0  0  0  0  0  0  0  0  0  0  0
   20.2714   -3.7175  -14.5721 O   0  0  0  0  0  0  0  0  0  0  0  0
  2  1  1  0
  2  3  2  0
  4  2  1  0
  5  4  1  0
  5  6  1  1
  7  5  1  0
  8  7  2  0
 10 12  1  0
 10  9  1  0
 11 10  2  0
 13 12  1  0
 14 13  1  6
 14 15  1  0
 15  7  1  0
 16 14  1  0
 16 17  2  0
 18 16  1  0
 19 18  1  0
 19 20  1  1
 20 21  1  0
 22 19  1  0
 23 22  2  0
 24 22  1  0
M  END
$$$$
