NQC.pdb
     RDKit          3D

 24 23  0  0  1  0  0  0  0  0999 V2000
   15.0515  -14.4048  -14.6555 N   0  0  0  0  0  0  0  0  0  0  0  0
   15.1995  -13.2187  -15.4201 C   0  0  0  0  0  0  0  0  0  0  0  0
   14.2611  -12.7192  -16.0609 O   0  0  0  0  0  0  0  0  0  0  0  0
   16.5379  -12.5815  -15.4296 C   0  0  0  0  0  0  0  0  0  0  0  0
   17.1012  -12.5478  -16.8566 C   0  0  2  0  0  0  0  0  0  0  0  0
   17.4968  -13.8992  -17.1686 N   0  0  0  0  0  0  0  0  0  0  0  0
   18.3151  -11.6898  -16.8601 C   0  0  0  0  0  0  0  0  0  0  0  0
   19.4329  -12.1522  -16.5145 O   0  0  0  0  0  0  0  0  0  0  0  0
   19.7543   -7.7707  -21.1315 N   0  0  0  0  0  0  0  0  0  0  0  0
   20.8991   -7.5598  -20.3413 C   0  0  0  0  0  0  0  0  0  0  0  0
   21.9209   -6.9458  -20.6779 O   0  0  0  0  0  0  0  0  0  0  0  0
   20.8591   -8.1512  -18.9393 C   0  0  0  0  0  0  0  0  0  0  0  0
   19.5894   -8.9185  -18.7519 C   0  0  0  0  0  0  0  0  0  0  0  0
   19.5094   -9.5246  -17.4026 C   0  0  2  0  0  0  0  0  0  0  0  0
   18.2925  -10.3252  -17.2449 N   0  0  0  0  0  0  0  0  0  0  0  0
   19.4365   -8.4651  -16.3744 C   0  0  0  0  0  0  0  0  0  0  0  0
   18.4221   -7.7468  -16.1850 O   0  0  0  0  0  0  0  0  0  0  0  0
   20.5458   -8.1921  -15.5164 N   0  0  0  0  0  0  0  0  0  0  0  0
   20.5402   -7.2119  -14.4752 C   0  0  1  0  0  0  0  0  0  0  0  0
   21.4013   -7.5576  -13.3024 C   0  0  0  0  0  0  0  0  0  0  0  0
   20.6231   -8.9362  -12.3866 S   0  0  0  0  0  0  0  0  0  0  0  0
   21.0138   -5.9253  -15.0568 C   0  0  0  0  0  0  0  0  0  0  0  0
   21.0235   -4.8420  -14.4191 O   0  0  0  0  0  0  0  0  0  0  0  0
   21.4638   -5.9274  -16.3624 O   0  0  0  0  0  0  0  0  0  0  0  0
  2  1  1  0
  2  3  2  0
  4  2  1  0
  5  4  1  0
  5  6  1  1
  7  5  1  0
  8  7  2  0
 10 12  1  0
 10  9  1  0
 11 10  2  0
 13 12  1  0
 14 13  1  6
 14 15  1  0
 15  7  1  0
 16 14  1  0
 16 17  2  0
 18 16  1  0
 19 18  1  0
 19 20  1  1
 20 21  1  0
 22 19  1  0
 23 22  2  0
 24 22  1  0
M  END
$$$$
