NQC.pdb
     RDKit          3D

 24 23  0  0  1  0  0  0  0  0999 V2000
   14.5972  -11.9346  -15.5934 N   0  0  0  0  0  0  0  0  0  0  0  0
   13.8373  -11.5907  -14.4457 C   0  0  0  0  0  0  0  0  0  0  0  0
   12.6040  -11.7242  -14.4000 O   0  0  0  0  0  0  0  0  0  0  0  0
   14.5779  -11.0555  -13.2783 C   0  0  0  0  0  0  0  0  0  0  0  0
   16.0853  -11.0404  -13.5657 C   0  0  2  0  0  0  0  0  0  0  0  0
   16.5683  -12.3664  -13.2680 N   0  0  0  0  0  0  0  0  0  0  0  0
   16.7304  -10.0836  -12.6287 C   0  0  0  0  0  0  0  0  0  0  0  0
   16.6253  -10.2297  -11.3836 O   0  0  0  0  0  0  0  0  0  0  0  0
   21.3020   -6.0817  -14.0175 N   0  0  0  0  0  0  0  0  0  0  0  0
   21.1893   -5.7820  -12.6475 C   0  0  0  0  0  0  0  0  0  0  0  0
   21.8621   -4.9530  -12.0193 O   0  0  0  0  0  0  0  0  0  0  0  0
   20.1323   -6.5629  -11.8794 C   0  0  0  0  0  0  0  0  0  0  0  0
   19.3561   -7.4238  -12.8240 C   0  0  0  0  0  0  0  0  0  0  0  0
   18.2224   -8.0958  -12.1475 C   0  0  2  0  0  0  0  0  0  0  0  0
   17.4892   -8.9690  -13.0677 N   0  0  0  0  0  0  0  0  0  0  0  0
   17.2467   -7.0912  -11.6744 C   0  0  0  0  0  0  0  0  0  0  0  0
   16.4441   -6.4888  -12.4320 O   0  0  0  0  0  0  0  0  0  0  0  0
   17.1606   -6.7403  -10.2922 N   0  0  0  0  0  0  0  0  0  0  0  0
   16.2067   -5.8238   -9.7488 C   0  0  1  0  0  0  0  0  0  0  0  0
   15.9945   -5.9610   -8.2749 C   0  0  0  0  0  0  0  0  0  0  0  0
   15.3119   -7.6223   -7.9304 S   0  0  0  0  0  0  0  0  0  0  0  0
   16.6832   -4.4431  -10.0396 C   0  0  0  0  0  0  0  0  0  0  0  0
   17.7814   -4.1956  -10.5990 O   0  0  0  0  0  0  0  0  0  0  0  0
   15.8745   -3.3848   -9.6745 O   0  0  0  0  0  0  0  0  0  0  0  0
  2  1  1  0
  2  3  2  0
  4  2  1  0
  5  4  1  0
  5  6  1  1
  7  5  1  0
  8  7  2  0
 10 12  1  0
 10  9  1  0
 11 10  2  0
 13 12  1  0
 14 13  1  6
 14 15  1  0
 15  7  1  0
 16 14  1  0
 16 17  2  0
 18 16  1  0
 19 18  1  0
 19 20  1  1
 20 21  1  0
 22 19  1  0
 23 22  2  0
 24 22  1  0
M  END
$$$$
