NQC.pdb
     RDKit          3D

 24 23  0  0  1  0  0  0  0  0999 V2000
   26.0664  -33.2143  -14.1593 N   0  0  0  0  0  0  0  0  0  0  0  0
   25.5055  -34.1288  -13.2307 C   0  0  0  0  0  0  0  0  0  0  0  0
   25.3155  -35.3241  -13.5065 O   0  0  0  0  0  0  0  0  0  0  0  0
   25.1461  -33.6009  -11.8929 C   0  0  0  0  0  0  0  0  0  0  0  0
   25.2687  -34.7052  -10.8344 C   0  0  2  0  0  0  0  0  0  0  0  0
   24.0647  -35.4936  -10.9294 N   0  0  0  0  0  0  0  0  0  0  0  0
   25.3071  -34.0654   -9.4933 C   0  0  0  0  0  0  0  0  0  0  0  0
   26.2541  -33.3032   -9.1690 O   0  0  0  0  0  0  0  0  0  0  0  0
   20.7644  -34.0757   -5.1600 N   0  0  0  0  0  0  0  0  0  0  0  0
   21.6157  -33.1180   -4.5791 C   0  0  0  0  0  0  0  0  0  0  0  0
   21.3858  -32.4534   -3.5593 O   0  0  0  0  0  0  0  0  0  0  0  0
   22.9438  -32.8903   -5.2870 C   0  0  0  0  0  0  0  0  0  0  0  0
   23.0071  -33.7305   -6.5224 C   0  0  0  0  0  0  0  0  0  0  0  0
   24.3071  -33.5858   -7.2175 C   0  0  2  0  0  0  0  0  0  0  0  0
   24.3014  -34.2678   -8.5144 N   0  0  0  0  0  0  0  0  0  0  0  0
   25.3794  -34.2248   -6.4257 C   0  0  0  0  0  0  0  0  0  0  0  0
   25.4634  -35.4655   -6.2400 O   0  0  0  0  0  0  0  0  0  0  0  0
   26.4069  -33.4454   -5.8110 N   0  0  0  0  0  0  0  0  0  0  0  0
   27.4647  -33.9861   -5.0149 C   0  0  1  0  0  0  0  0  0  0  0  0
   28.6810  -33.1193   -4.9399 C   0  0  0  0  0  0  0  0  0  0  0  0
   30.1036  -34.1446   -4.4211 S   0  0  0  0  0  0  0  0  0  0  0  0
   26.9381  -34.1960   -3.6377 C   0  0  0  0  0  0  0  0  0  0  0  0
   25.8144  -33.7799   -3.2577 O   0  0  0  0  0  0  0  0  0  0  0  0
   27.7276  -34.8828   -2.7364 O   0  0  0  0  0  0  0  0  0  0  0  0
  2  1  1  0
  2  3  2  0
  4  2  1  0
  5  4  1  0
  5  6  1  1
  7  5  1  0
  8  7  2  0
 10 12  1  0
 10  9  1  0
 11 10  2  0
 13 12  1  0
 14 13  1  1
 14 15  1  0
 15  7  1  0
 16 14  1  0
 16 17  2  0
 18 16  1  0
 19 18  1  0
 19 20  1  1
 20 21  1  0
 22 19  1  0
 23 22  2  0
 24 22  1  0
M  END
$$$$
