NQC.pdb
     RDKit          3D

 24 23  0  0  1  0  0  0  0  0999 V2000
   26.1877  -14.1012  -17.4311 N   0  0  0  0  0  0  0  0  0  0  0  0
   25.2440  -13.5315  -16.5377 C   0  0  0  0  0  0  0  0  0  0  0  0
   25.0381  -13.9937  -15.4043 O   0  0  0  0  0  0  0  0  0  0  0  0
   24.4960  -12.3421  -17.0105 C   0  0  0  0  0  0  0  0  0  0  0  0
   23.0961  -12.3095  -16.3827 C   0  0  2  0  0  0  0  0  0  0  0  0
   22.3279  -13.3308  -17.0512 N   0  0  0  0  0  0  0  0  0  0  0  0
   22.4813  -10.9890  -16.6791 C   0  0  0  0  0  0  0  0  0  0  0  0
   22.6669  -10.4254  -17.7884 O   0  0  0  0  0  0  0  0  0  0  0  0
   17.6898  -10.8412  -14.6527 N   0  0  0  0  0  0  0  0  0  0  0  0
   17.8985  -11.1899  -15.9997 C   0  0  0  0  0  0  0  0  0  0  0  0
   17.3778  -12.1390  -16.6017 O   0  0  0  0  0  0  0  0  0  0  0  0
   18.8612  -10.3026  -16.7760 C   0  0  0  0  0  0  0  0  0  0  0  0
   19.4529   -9.2788  -15.8607 C   0  0  0  0  0  0  0  0  0  0  0  0
   20.9018   -9.0949  -16.1078 C   0  0  2  0  0  0  0  0  0  0  0  0
   21.6639  -10.2946  -15.7516 N   0  0  0  0  0  0  0  0  0  0  0  0
   21.4280   -8.0092  -15.2537 C   0  0  0  0  0  0  0  0  0  0  0  0
   21.7479   -8.1645  -14.0477 O   0  0  0  0  0  0  0  0  0  0  0  0
   21.6061   -6.6877  -15.7664 N   0  0  0  0  0  0  0  0  0  0  0  0
   22.0617   -5.5749  -14.9923 C   0  0  1  0  0  0  0  0  0  0  0  0
   22.5226   -4.4084  -15.8067 C   0  0  0  0  0  0  0  0  0  0  0  0
   23.0105   -3.0567  -14.6756 S   0  0  0  0  0  0  0  0  0  0  0  0
   20.9388   -5.1370  -14.1176 C   0  0  0  0  0  0  0  0  0  0  0  0
   19.7783   -4.9119  -14.5452 O   0  0  0  0  0  0  0  0  0  0  0  0
   21.1898   -4.9712  -12.7697 O   0  0  0  0  0  0  0  0  0  0  0  0
  2  1  1  0
  2  3  2  0
  4  2  1  0
  5  4  1  0
  5  6  1  6
  7  5  1  0
  8  7  2  0
 10 12  1  0
 10  9  1  0
 11 10  2  0
 13 12  1  0
 14 13  1  1
 14 15  1  0
 15  7  1  0
 16 14  1  0
 16 17  2  0
 18 16  1  0
 19 18  1  0
 19 20  1  6
 20 21  1  0
 22 19  1  0
 23 22  2  0
 24 22  1  0
M  END
$$$$
