NQC.pdb
     RDKit          3D

 24 23  0  0  1  0  0  0  0  0999 V2000
   14.0808  -12.9279  -15.8611 N   0  0  0  0  0  0  0  0  0  0  0  0
   14.3586  -12.0041  -14.8206 C   0  0  0  0  0  0  0  0  0  0  0  0
   13.4663  -11.5148  -14.1098 O   0  0  0  0  0  0  0  0  0  0  0  0
   15.7777  -11.6339  -14.6045 C   0  0  0  0  0  0  0  0  0  0  0  0
   16.6779  -12.3677  -15.6075 C   0  0  2  0  0  0  0  0  0  0  0  0
   17.1592  -13.5479  -14.9327 N   0  0  0  0  0  0  0  0  0  0  0  0
   17.8412  -11.4956  -15.9171 C   0  0  0  0  0  0  0  0  0  0  0  0
   18.9880  -11.7702  -15.4787 O   0  0  0  0  0  0  0  0  0  0  0  0
   18.2835   -7.6692  -20.7565 N   0  0  0  0  0  0  0  0  0  0  0  0
   19.5807   -7.4775  -20.2463 C   0  0  0  0  0  0  0  0  0  0  0  0
   20.4943   -6.8371  -20.7845 O   0  0  0  0  0  0  0  0  0  0  0  0
   19.8702   -8.1279  -18.9010 C   0  0  0  0  0  0  0  0  0  0  0  0
   18.6551   -8.8551  -18.4207 C   0  0  0  0  0  0  0  0  0  0  0  0
   18.9027   -9.5458  -17.1338 C   0  0  2  0  0  0  0  0  0  0  0  0
   17.7362  -10.3240  -16.7089 N   0  0  0  0  0  0  0  0  0  0  0  0
   19.1430   -8.5543  -16.0642 C   0  0  0  0  0  0  0  0  0  0  0  0
   18.2241   -8.0002  -15.4086 O   0  0  0  0  0  0  0  0  0  0  0  0
   20.4692   -8.1605  -15.7075 N   0  0  0  0  0  0  0  0  0  0  0  0
   20.7820   -7.1867  -14.7081 C   0  0  1  0  0  0  0  0  0  0  0  0
   22.0867   -7.4168  -14.0142 C   0  0  0  0  0  0  0  0  0  0  0  0
   22.3025   -6.1363  -12.7265 S   0  0  0  0  0  0  0  0  0  0  0  0
   20.8166   -5.8514  -15.3667 C   0  0  0  0  0  0  0  0  0  0  0  0
   21.2183   -5.6731  -16.5445 O   0  0  0  0  0  0  0  0  0  0  0  0
   20.3845   -4.7572  -14.6434 O   0  0  0  0  0  0  0  0  0  0  0  0
  2  1  1  0
  2  3  2  0
  4  2  1  0
  5  4  1  0
  5  6  1  1
  7  5  1  0
  8  7  2  0
 10 12  1  0
 10  9  1  0
 11 10  2  0
 13 12  1  0
 14 13  1  6
 14 15  1  0
 15  7  1  0
 16 14  1  0
 16 17  2  0
 18 16  1  0
 19 18  1  0
 19 20  1  6
 20 21  1  0
 22 19  1  0
 23 22  2  0
 24 22  1  0
M  END
$$$$
