KIV.pdb
     RDKit          3D

 25 24  0  0  1  0  0  0  0  0999 V2000
    9.0227  -15.8039   20.2140 N   0  0  0  0  0  0  0  0  0  0  0  0
    8.3535  -16.3851   21.2979 C   0  0  1  0  0  0  0  0  0  0  0  0
    8.5232  -17.7997   21.6381 C   0  0  0  0  0  0  0  0  0  0  0  0
    8.3725  -18.9202   20.7395 C   0  0  0  0  0  0  0  0  0  0  0  0
    8.4533  -20.3363   21.0872 C   0  0  0  0  0  0  0  0  0  0  0  0
    8.1839  -21.3726   20.0825 C   0  0  0  0  0  0  0  0  0  0  0  0
    8.2727  -22.6822   20.7955 N   0  0  0  0  0  0  0  0  0  0  0  0
    8.7250  -15.5420   22.5157 C   0  0  0  0  0  0  0  0  0  0  0  0
    9.9131  -15.1306   22.5212 O   0  0  0  0  0  0  0  0  0  0  0  0
    6.3218  -11.7952   26.4862 C   0  0  0  0  0  0  0  0  0  0  0  0
    7.5641  -12.5854   26.0638 C   0  0  0  0  0  0  0  0  0  0  0  0
    7.1040  -13.6821   25.1438 C   0  0  2  0  0  0  0  0  0  0  0  0
    5.9977  -14.5145   25.7576 C   0  0  0  0  0  0  0  0  0  0  0  0
    8.2561  -14.5118   24.6965 C   0  0  2  0  0  0  0  0  0  0  0  0
    7.7927  -15.2635   23.5352 N   0  0  0  0  0  0  0  0  0  0  0  0
    8.8481  -15.3953   25.7045 C   0  0  0  0  0  0  0  0  0  0  0  0
    8.6952  -16.6346   25.7528 O   0  0  0  0  0  0  0  0  0  0  0  0
   12.1398  -15.7962   29.3720 C   0  0  0  0  0  0  0  0  0  0  0  0
   11.4295  -14.8451   28.4367 C   0  0  2  0  0  0  0  0  0  0  0  0
   10.5542  -13.8995   29.2290 C   0  0  0  0  0  0  0  0  0  0  0  0
   10.6217  -15.6720   27.4592 C   0  0  2  0  0  0  0  0  0  0  0  0
    9.6824  -14.8402   26.7464 N   0  0  0  0  0  0  0  0  0  0  0  0
    9.8896  -16.7182   28.1822 C   0  0  0  0  0  0  0  0  0  0  0  0
   10.5500  -17.8309   28.6775 O   0  0  0  0  0  0  0  0  0  0  0  0
    8.6347  -16.6235   28.3681 O   0  0  0  0  0  0  0  0  0  0  0  0
  2  1  1  6
  3  2  1  0
  4  3  1  0
  5  4  1  0
  6  7  1  0
  6  5  1  0
  8  2  1  0
  8  9  2  0
 11 10  1  0
 12 14  1  0
 12 11  1  0
 12 13  1  1
 14 15  1  6
 15  8  1  0
 16 14  1  0
 17 16  2  0
 19 18  1  1
 19 20  1  0
 19 21  1  0
 21 23  1  0
 21 22  1  1
 22 16  1  0
 23 24  1  0
 25 23  2  0
M  END
$$$$
