KIV.pdb
     RDKit          3D

 25 24  0  0  1  0  0  0  0  0999 V2000
    6.9547  -15.0985   20.6558 N   0  0  0  0  0  0  0  0  0  0  0  0
    6.5337  -15.7842   21.8017 C   0  0  1  0  0  0  0  0  0  0  0  0
    6.4392  -17.2456   21.8327 C   0  0  0  0  0  0  0  0  0  0  0  0
    5.6305  -18.0696   20.9651 C   0  0  0  0  0  0  0  0  0  0  0  0
    5.0366  -19.3631   21.2924 C   0  0  0  0  0  0  0  0  0  0  0  0
    4.2501  -20.1016   20.2965 C   0  0  0  0  0  0  0  0  0  0  0  0
    2.9630  -19.3593   20.1430 N   0  0  0  0  0  0  0  0  0  0  0  0
    7.4665  -15.3313   22.9227 C   0  0  0  0  0  0  0  0  0  0  0  0
    8.6843  -15.3122   22.6107 O   0  0  0  0  0  0  0  0  0  0  0  0
    6.0221  -11.5160   26.1728 C   0  0  0  0  0  0  0  0  0  0  0  0
    6.7858  -12.4616   25.2407 C   0  0  0  0  0  0  0  0  0  0  0  0
    7.3033  -13.5955   26.0817 C   0  0  2  0  0  0  0  0  0  0  0  0
    8.2161  -13.1131   27.1897 C   0  0  0  0  0  0  0  0  0  0  0  0
    7.9460  -14.6325   25.2290 C   0  0  2  0  0  0  0  0  0  0  0  0
    6.9755  -14.9701   24.1934 N   0  0  0  0  0  0  0  0  0  0  0  0
    8.4300  -15.8306   25.9200 C   0  0  0  0  0  0  0  0  0  0  0  0
    7.7181  -16.6142   26.5838 O   0  0  0  0  0  0  0  0  0  0  0  0
   12.5947  -16.8877   25.7399 C   0  0  0  0  0  0  0  0  0  0  0  0
   11.5038  -17.9282   25.6340 C   0  0  2  0  0  0  0  0  0  0  0  0
   11.1665  -18.1762   24.1804 C   0  0  0  0  0  0  0  0  0  0  0  0
   10.3055  -17.4253   26.4105 C   0  0  2  0  0  0  0  0  0  0  0  0
    9.8319  -16.1780   25.8606 N   0  0  0  0  0  0  0  0  0  0  0  0
   10.6749  -17.2248   27.8164 C   0  0  0  0  0  0  0  0  0  0  0  0
   10.9674  -18.3057   28.6324 O   0  0  0  0  0  0  0  0  0  0  0  0
   10.7337  -16.0550   28.3128 O   0  0  0  0  0  0  0  0  0  0  0  0
  2  1  1  6
  3  2  1  0
  4  3  1  0
  5  4  1  0
  6  7  1  0
  6  5  1  0
  8  2  1  0
  8  9  2  0
 11 10  1  0
 12 14  1  0
 12 11  1  0
 12 13  1  1
 14 15  1  6
 15  8  1  0
 16 14  1  0
 17 16  2  0
 19 18  1  6
 19 20  1  0
 19 21  1  0
 21 23  1  0
 21 22  1  6
 22 16  1  0
 23 24  1  0
 25 23  2  0
M  END
$$$$
