KIV.pdb
     RDKit          3D

 25 24  0  0  1  0  0  0  0  0999 V2000
    8.4172  -14.5458   20.5636 N   0  0  0  0  0  0  0  0  0  0  0  0
    7.6421  -15.2434   21.4979 C   0  0  1  0  0  0  0  0  0  0  0  0
    7.4289  -16.6890   21.3950 C   0  0  0  0  0  0  0  0  0  0  0  0
    7.1256  -17.4257   20.1905 C   0  0  0  0  0  0  0  0  0  0  0  0
    6.7723  -18.8396   20.0965 C   0  0  0  0  0  0  0  0  0  0  0  0
    6.4111  -19.4391   18.8057 C   0  0  0  0  0  0  0  0  0  0  0  0
    6.0831  -20.8695   19.0839 N   0  0  0  0  0  0  0  0  0  0  0  0
    8.2590  -14.9366   22.8608 C   0  0  0  0  0  0  0  0  0  0  0  0
    9.5162  -14.9461   22.8771 O   0  0  0  0  0  0  0  0  0  0  0  0
    5.9282  -11.4548   26.0956 C   0  0  0  0  0  0  0  0  0  0  0  0
    6.9061  -12.2793   25.2530 C   0  0  0  0  0  0  0  0  0  0  0  0
    7.2365  -13.5185   26.0378 C   0  0  2  0  0  0  0  0  0  0  0  0
    7.7925  -13.1939   27.4086 C   0  0  0  0  0  0  0  0  0  0  0  0
    8.1368  -14.4111   25.2579 C   0  0  2  0  0  0  0  0  0  0  0  0
    7.4609  -14.6685   23.9909 N   0  0  0  0  0  0  0  0  0  0  0  0
    8.5388  -15.6586   25.9131 C   0  0  0  0  0  0  0  0  0  0  0  0
    7.7531  -16.5285   26.3461 O   0  0  0  0  0  0  0  0  0  0  0  0
   12.6794  -16.7565   26.0957 C   0  0  0  0  0  0  0  0  0  0  0  0
   11.5586  -17.7682   26.0303 C   0  0  2  0  0  0  0  0  0  0  0  0
   11.2494  -18.1034   24.5880 C   0  0  0  0  0  0  0  0  0  0  0  0
   10.3583  -17.1778   26.7392 C   0  0  2  0  0  0  0  0  0  0  0  0
    9.9417  -15.9541   26.0979 N   0  0  0  0  0  0  0  0  0  0  0  0
   10.6978  -16.8988   28.1393 C   0  0  0  0  0  0  0  0  0  0  0  0
   10.7245  -15.5980   28.6155 O   0  0  0  0  0  0  0  0  0  0  0  0
   10.9739  -17.8459   28.9425 O   0  0  0  0  0  0  0  0  0  0  0  0
  2  1  1  6
  3  2  1  0
  4  3  1  0
  5  4  1  0
  6  7  1  0
  6  5  1  0
  8  2  1  0
  8  9  2  0
 11 10  1  0
 12 14  1  0
 12 11  1  0
 12 13  1  1
 14 15  1  6
 15  8  1  0
 16 14  1  0
 17 16  2  0
 19 18  1  6
 19 20  1  0
 19 21  1  0
 21 23  1  0
 21 22  1  6
 22 16  1  0
 23 24  1  0
 25 23  2  0
M  END
$$$$
