KIV.pdb
     RDKit          3D

 25 24  0  0  1  0  0  0  0  0999 V2000
    4.7973  -17.6386   24.4852 N   0  0  0  0  0  0  0  0  0  0  0  0
    5.9439  -17.8970   23.7243 C   0  0  1  0  0  0  0  0  0  0  0  0
    5.8954  -17.9773   22.2625 C   0  0  0  0  0  0  0  0  0  0  0  0
    5.1494  -18.9367   21.4823 C   0  0  0  0  0  0  0  0  0  0  0  0
    4.3925  -18.6711   20.2619 C   0  0  0  0  0  0  0  0  0  0  0  0
    3.6425  -19.7431   19.5954 C   0  0  0  0  0  0  0  0  0  0  0  0
    2.9791  -19.1185   18.4118 N   0  0  0  0  0  0  0  0  0  0  0  0
    6.9559  -16.8244   24.1211 C   0  0  0  0  0  0  0  0  0  0  0  0
    7.9728  -16.7700   23.3838 O   0  0  0  0  0  0  0  0  0  0  0  0
    5.6655  -12.1058   26.0621 C   0  0  0  0  0  0  0  0  0  0  0  0
    6.3876  -13.2252   25.3058 C   0  0  0  0  0  0  0  0  0  0  0  0
    7.2618  -13.9417   26.2973 C   0  0  2  0  0  0  0  0  0  0  0  0
    8.3072  -13.0272   26.9011 C   0  0  0  0  0  0  0  0  0  0  0  0
    7.8595  -15.1609   25.6874 C   0  0  2  0  0  0  0  0  0  0  0  0
    6.7422  -15.9786   25.2280 N   0  0  0  0  0  0  0  0  0  0  0  0
    8.7716  -15.9302   26.5380 C   0  0  0  0  0  0  0  0  0  0  0  0
    8.4553  -16.4883   27.6104 O   0  0  0  0  0  0  0  0  0  0  0  0
   13.0081  -18.4456   26.6510 C   0  0  0  0  0  0  0  0  0  0  0  0
   12.1847  -17.4060   25.9264 C   0  0  2  0  0  0  0  0  0  0  0  0
   13.0329  -16.1882   25.6334 C   0  0  0  0  0  0  0  0  0  0  0  0
   10.9953  -17.0651   26.7987 C   0  0  2  0  0  0  0  0  0  0  0  0
   10.1558  -16.0859   26.1517 N   0  0  0  0  0  0  0  0  0  0  0  0
   11.4605  -16.5301   28.0835 C   0  0  0  0  0  0  0  0  0  0  0  0
   11.3548  -15.1780   28.3672 O   0  0  0  0  0  0  0  0  0  0  0  0
   11.9697  -17.2973   28.9612 O   0  0  0  0  0  0  0  0  0  0  0  0
  2  1  1  6
  3  2  1  0
  4  3  1  0
  5  4  1  0
  6  7  1  0
  6  5  1  0
  8  2  1  0
  8  9  2  0
 11 10  1  0
 12 14  1  0
 12 11  1  0
 12 13  1  6
 14 15  1  1
 15  8  1  0
 16 14  1  0
 17 16  2  0
 19 18  1  1
 19 20  1  0
 19 21  1  0
 21 23  1  0
 21 22  1  6
 22 16  1  0
 23 24  1  0
 25 23  2  0
M  END
$$$$
