KIV.pdb
     RDKit          3D

 25 24  0  0  1  0  0  0  0  0999 V2000
    6.7384  -16.1842   22.1804 N   0  0  0  0  0  0  0  0  0  0  0  0
    8.1108  -16.0770   21.9245 C   0  0  1  0  0  0  0  0  0  0  0  0
    8.6209  -15.3794   20.7418 C   0  0  0  0  0  0  0  0  0  0  0  0
    8.5010  -15.8183   19.3711 C   0  0  0  0  0  0  0  0  0  0  0  0
    8.0458  -17.1268   18.9092 C   0  0  0  0  0  0  0  0  0  0  0  0
    7.9805  -17.4358   17.4752 C   0  0  0  0  0  0  0  0  0  0  0  0
    7.4062  -18.8104   17.3674 N   0  0  0  0  0  0  0  0  0  0  0  0
    8.7163  -15.4335   23.1700 C   0  0  0  0  0  0  0  0  0  0  0  0
    9.9556  -15.2326   23.1020 O   0  0  0  0  0  0  0  0  0  0  0  0
    6.2724  -11.7668   25.8723 C   0  0  0  0  0  0  0  0  0  0  0  0
    7.3072  -12.6545   25.1740 C   0  0  0  0  0  0  0  0  0  0  0  0
    7.7523  -13.6892   26.1699 C   0  0  2  0  0  0  0  0  0  0  0  0
    8.4142  -13.0668   27.3816 C   0  0  0  0  0  0  0  0  0  0  0  0
    8.6137  -14.7123   25.5166 C   0  0  2  0  0  0  0  0  0  0  0  0
    7.9273  -15.1023   24.2898 N   0  0  0  0  0  0  0  0  0  0  0  0
    8.9621  -15.8806   26.3295 C   0  0  0  0  0  0  0  0  0  0  0  0
    8.1403  -16.6403   26.8854 O   0  0  0  0  0  0  0  0  0  0  0  0
   13.1138  -17.0676   26.9697 C   0  0  0  0  0  0  0  0  0  0  0  0
   11.9628  -18.0282   26.7792 C   0  0  2  0  0  0  0  0  0  0  0  0
   11.8147  -18.3720   25.3136 C   0  0  0  0  0  0  0  0  0  0  0  0
   10.7148  -17.3726   27.3310 C   0  0  2  0  0  0  0  0  0  0  0  0
   10.3508  -16.2249   26.5357 N   0  0  0  0  0  0  0  0  0  0  0  0
   10.9498  -16.9468   28.7154 C   0  0  0  0  0  0  0  0  0  0  0  0
   10.9837  -15.6018   29.0464 O   0  0  0  0  0  0  0  0  0  0  0  0
   11.1269  -17.8044   29.6382 O   0  0  0  0  0  0  0  0  0  0  0  0
  2  1  1  1
  3  2  1  0
  4  3  1  0
  5  4  1  0
  6  7  1  0
  6  5  1  0
  8  2  1  0
  8  9  2  0
 11 10  1  0
 12 14  1  0
 12 11  1  0
 12 13  1  1
 14 15  1  6
 15  8  1  0
 16 14  1  0
 17 16  2  0
 19 18  1  6
 19 20  1  0
 19 21  1  0
 21 23  1  0
 21 22  1  6
 22 16  1  0
 23 24  1  0
 25 23  2  0
M  END
$$$$
