KIV.pdb
     RDKit          3D

 25 24  0  0  1  0  0  0  0  0999 V2000
    8.2535  -17.9313   17.4633 N   0  0  0  0  0  0  0  0  0  0  0  0
    9.6423  -17.8586   17.6262 C   0  0  1  0  0  0  0  0  0  0  0  0
   10.5285  -17.4893   16.5198 C   0  0  0  0  0  0  0  0  0  0  0  0
   10.5765  -18.1115   15.2174 C   0  0  0  0  0  0  0  0  0  0  0  0
    9.6077  -19.0528   14.6624 C   0  0  0  0  0  0  0  0  0  0  0  0
    9.7758  -19.5913   13.3067 C   0  0  0  0  0  0  0  0  0  0  0  0
    8.6594  -20.5616   13.0987 N   0  0  0  0  0  0  0  0  0  0  0  0
    9.8745  -16.8885   18.7825 C   0  0  0  0  0  0  0  0  0  0  0  0
   11.0785  -16.5769   18.9667 O   0  0  0  0  0  0  0  0  0  0  0  0
    7.0540  -12.6085   19.6344 C   0  0  0  0  0  0  0  0  0  0  0  0
    8.2149  -13.6055   19.5668 C   0  0  0  0  0  0  0  0  0  0  0  0
    8.1068  -14.4986   20.7716 C   0  0  2  0  0  0  0  0  0  0  0  0
    8.1534  -13.7162   22.0674 C   0  0  0  0  0  0  0  0  0  0  0  0
    9.1335  -15.5753   20.7224 C   0  0  2  0  0  0  0  0  0  0  0  0
    8.8081  -16.3985   19.5628 N   0  0  0  0  0  0  0  0  0  0  0  0
    9.2777  -16.3886   21.9327 C   0  0  0  0  0  0  0  0  0  0  0  0
    8.3563  -17.0300   22.4815 O   0  0  0  0  0  0  0  0  0  0  0  0
   13.1783  -17.0294   23.5847 C   0  0  0  0  0  0  0  0  0  0  0  0
   12.1020  -18.0902   23.5760 C   0  0  2  0  0  0  0  0  0  0  0  0
   12.2002  -18.9148   22.3117 C   0  0  0  0  0  0  0  0  0  0  0  0
   10.7626  -17.3936   23.6894 C   0  0  2  0  0  0  0  0  0  0  0  0
   10.5654  -16.4902   22.5816 N   0  0  0  0  0  0  0  0  0  0  0  0
   10.7019  -16.6384   24.9461 C   0  0  0  0  0  0  0  0  0  0  0  0
   10.6358  -17.2953   26.1642 O   0  0  0  0  0  0  0  0  0  0  0  0
   10.7089  -15.3663   24.9411 O   0  0  0  0  0  0  0  0  0  0  0  0
  2  1  1  6
  3  2  1  0
  4  3  1  0
  5  4  1  0
  6  7  1  0
  6  5  1  0
  8  2  1  0
  8  9  2  0
 11 10  1  0
 12 14  1  0
 12 11  1  0
 12 13  1  1
 14 15  1  6
 15  8  1  0
 16 14  1  0
 17 16  2  0
 19 18  1  6
 19 20  1  0
 19 21  1  0
 21 23  1  0
 21 22  1  6
 22 16  1  0
 23 24  1  0
 25 23  2  0
M  END
$$$$
