ITN.pdb
     RDKit          3D

 24 23  0  0  1  0  0  0  0  0999 V2000
    6.8612  -13.6575   20.4466 C   0  0  0  0  0  0  0  0  0  0  0  0
    7.8650  -12.9385   19.5840 C   0  0  0  0  0  0  0  0  0  0  0  0
    8.5674  -13.8395   18.6083 C   0  0  2  0  0  0  0  0  0  0  0  0
    7.6423  -14.0187   17.4176 C   0  0  0  0  0  0  0  0  0  0  0  0
    8.9583  -15.1660   19.1746 C   0  0  2  0  0  0  0  0  0  0  0  0
    7.6988  -15.9122   19.3589 N   0  0  0  0  0  0  0  0  0  0  0  0
    9.6625  -15.0248   20.4657 C   0  0  0  0  0  0  0  0  0  0  0  0
   10.6947  -14.3309   20.5511 O   0  0  0  0  0  0  0  0  0  0  0  0
    8.2897  -14.1092   23.9953 C   0  0  0  0  0  0  0  0  0  0  0  0
    9.0240  -15.4066   24.0314 C   0  0  1  0  0  0  0  0  0  0  0  0
    8.1094  -16.4597   24.0117 O   0  0  0  0  0  0  0  0  0  0  0  0
    9.9729  -15.5968   22.8689 C   0  0  2  0  0  0  0  0  0  0  0  0
    9.2053  -15.6655   21.6648 N   0  0  0  0  0  0  0  0  0  0  0  0
   10.7546  -16.8249   23.1367 C   0  0  0  0  0  0  0  0  0  0  0  0
   10.3123  -17.9082   22.6755 O   0  0  0  0  0  0  0  0  0  0  0  0
   15.3951  -18.0493   22.2303 N   0  0  0  0  0  0  0  0  0  0  0  0
   14.7768  -17.1811   23.1733 C   0  0  0  0  0  0  0  0  0  0  0  0
   14.8309  -15.9498   22.9241 O   0  0  0  0  0  0  0  0  0  0  0  0
   14.1372  -17.7891   24.3407 C   0  0  0  0  0  0  0  0  0  0  0  0
   12.6746  -18.0853   24.1734 C   0  0  2  0  0  0  0  0  0  0  0  0
   11.9546  -16.8715   23.8679 N   0  0  0  0  0  0  0  0  0  0  0  0
   12.0994  -18.8563   25.2696 C   0  0  0  0  0  0  0  0  0  0  0  0
   11.5252  -18.2656   26.2097 O   0  0  0  0  0  0  0  0  0  0  0  0
   12.1531  -20.2345   25.3313 O   0  0  0  0  0  0  0  0  0  0  0  0
  2  1  1  0
  3  2  1  0
  3  4  1  6
  3  5  1  0
  5  6  1  1
  7  5  1  0
  7  8  2  0
 10  9  1  6
 10 12  1  0
 10 11  1  0
 12 13  1  6
 13  7  1  0
 14 12  1  0
 15 14  2  0
 16 17  1  0
 17 18  2  0
 19 17  1  0
 20 19  1  1
 20 21  1  0
 21 14  1  0
 22 20  1  0
 23 22  2  0
 24 22  1  0
M  END
$$$$
