ITN.pdb
     RDKit          3D

 24 23  0  0  1  0  0  0  0  0999 V2000
    6.2121  -11.2274   27.3492 C   0  0  0  0  0  0  0  0  0  0  0  0
    5.6922  -12.4532   26.6451 C   0  0  0  0  0  0  0  0  0  0  0  0
    6.7766  -13.2983   26.0392 C   0  0  2  0  0  0  0  0  0  0  0  0
    7.5663  -12.4067   25.0973 C   0  0  0  0  0  0  0  0  0  0  0  0
    6.2771  -14.5099   25.3209 C   0  0  2  0  0  0  0  0  0  0  0  0
    5.5392  -15.2984   26.3264 N   0  0  0  0  0  0  0  0  0  0  0  0
    7.3848  -15.3085   24.7573 C   0  0  0  0  0  0  0  0  0  0  0  0
    8.0771  -16.0387   25.4933 O   0  0  0  0  0  0  0  0  0  0  0  0
    7.2229  -16.0872   20.7533 C   0  0  0  0  0  0  0  0  0  0  0  0
    8.6065  -16.1184   21.3086 C   0  0  1  0  0  0  0  0  0  0  0  0
    9.2820  -14.9546   20.9410 O   0  0  0  0  0  0  0  0  0  0  0  0
    8.6503  -16.2213   22.8171 C   0  0  2  0  0  0  0  0  0  0  0  0
    7.7158  -15.2866   23.3618 N   0  0  0  0  0  0  0  0  0  0  0  0
   10.0471  -15.9644   23.2343 C   0  0  0  0  0  0  0  0  0  0  0  0
   10.3832  -14.7695   23.4375 O   0  0  0  0  0  0  0  0  0  0  0  0
   11.1915  -19.3185   24.4708 N   0  0  0  0  0  0  0  0  0  0  0  0
   12.4325  -18.8936   25.0230 C   0  0  0  0  0  0  0  0  0  0  0  0
   13.2194  -19.7987   25.4008 O   0  0  0  0  0  0  0  0  0  0  0  0
   12.6845  -17.4543   25.1032 C   0  0  0  0  0  0  0  0  0  0  0  0
   12.3810  -16.6917   23.8458 C   0  0  2  0  0  0  0  0  0  0  0  0
   11.0266  -16.9558   23.4205 N   0  0  0  0  0  0  0  0  0  0  0  0
   13.3773  -16.8653   22.7951 C   0  0  0  0  0  0  0  0  0  0  0  0
   14.5870  -16.6812   23.0501 O   0  0  0  0  0  0  0  0  0  0  0  0
   13.0547  -17.2300   21.5032 O   0  0  0  0  0  0  0  0  0  0  0  0
  2  1  1  0
  3  2  1  0
  3  4  1  6
  3  5  1  0
  5  6  1  1
  7  5  1  0
  7  8  2  0
 10  9  1  1
 10 12  1  0
 10 11  1  0
 12 13  1  1
 13  7  1  0
 14 12  1  0
 15 14  2  0
 16 17  1  0
 17 18  2  0
 19 17  1  0
 20 19  1  1
 20 21  1  0
 21 14  1  0
 22 20  1  0
 23 22  2  0
 24 22  1  0
M  END
$$$$
