ITN.pdb
     RDKit          3D

 24 23  0  0  1  0  0  0  0  0999 V2000
    7.1088  -11.6812   19.4534 C   0  0  0  0  0  0  0  0  0  0  0  0
    7.6224  -12.6486   18.4194 C   0  0  0  0  0  0  0  0  0  0  0  0
    8.7910  -13.4648   18.8941 C   0  0  2  0  0  0  0  0  0  0  0  0
    9.9050  -12.4931   19.2414 C   0  0  0  0  0  0  0  0  0  0  0  0
    9.2680  -14.4801   17.9067 C   0  0  2  0  0  0  0  0  0  0  0  0
    8.0673  -15.2272   17.4854 N   0  0  0  0  0  0  0  0  0  0  0  0
   10.2596  -15.3996   18.5016 C   0  0  0  0  0  0  0  0  0  0  0  0
    9.8985  -16.2978   19.2871 O   0  0  0  0  0  0  0  0  0  0  0  0
   13.0108  -17.2130   16.5875 C   0  0  0  0  0  0  0  0  0  0  0  0
   13.6166  -16.6212   17.8149 C   0  0  1  0  0  0  0  0  0  0  0  0
   14.3730  -15.5019   17.4673 O   0  0  0  0  0  0  0  0  0  0  0  0
   12.5963  -16.1880   18.8441 C   0  0  2  0  0  0  0  0  0  0  0  0
   11.6617  -15.3094   18.2129 N   0  0  0  0  0  0  0  0  0  0  0  0
   13.3376  -15.5536   19.9572 C   0  0  0  0  0  0  0  0  0  0  0  0
   13.1057  -14.3402   20.1938 O   0  0  0  0  0  0  0  0  0  0  0  0
   11.8241  -15.6831   24.8886 N   0  0  0  0  0  0  0  0  0  0  0  0
   12.9888  -16.2342   24.2842 C   0  0  0  0  0  0  0  0  0  0  0  0
   13.9065  -16.6003   25.0618 O   0  0  0  0  0  0  0  0  0  0  0  0
   13.0187  -16.3268   22.8240 C   0  0  0  0  0  0  0  0  0  0  0  0
   14.3599  -16.0585   22.2043 C   0  0  2  0  0  0  0  0  0  0  0  0
   14.2817  -16.2054   20.7700 N   0  0  0  0  0  0  0  0  0  0  0  0
   15.4534  -16.8031   22.8182 C   0  0  0  0  0  0  0  0  0  0  0  0
   16.2188  -16.2308   23.6237 O   0  0  0  0  0  0  0  0  0  0  0  0
   15.6987  -18.1361   22.5552 O   0  0  0  0  0  0  0  0  0  0  0  0
  2  1  1  0
  3  2  1  0
  3  4  1  6
  3  5  1  0
  5  6  1  1
  7  5  1  0
  7  8  2  0
 10  9  1  6
 10 12  1  0
 10 11  1  0
 12 13  1  6
 13  7  1  0
 14 12  1  0
 15 14  2  0
 16 17  1  0
 17 18  2  0
 19 17  1  0
 20 19  1  1
 20 21  1  0
 21 14  1  0
 22 20  1  0
 23 22  2  0
 24 22  1  0
M  END
$$$$
