ITN.pdb
     RDKit          3D

 24 23  0  0  1  0  0  0  0  0999 V2000
    6.8131  -11.1471   27.4760 C   0  0  0  0  0  0  0  0  0  0  0  0
    6.0451  -12.1388   26.6422 C   0  0  0  0  0  0  0  0  0  0  0  0
    6.9161  -13.1849   26.0062 C   0  0  2  0  0  0  0  0  0  0  0  0
    7.9497  -12.4569   25.1653 C   0  0  0  0  0  0  0  0  0  0  0  0
    6.1696  -14.1792   25.1771 C   0  0  2  0  0  0  0  0  0  0  0  0
    5.1952  -14.8116   26.0869 N   0  0  0  0  0  0  0  0  0  0  0  0
    7.0701  -15.2000   24.6028 C   0  0  0  0  0  0  0  0  0  0  0  0
    7.4192  -16.1881   25.2782 O   0  0  0  0  0  0  0  0  0  0  0  0
    7.0100  -15.9163   20.6302 C   0  0  0  0  0  0  0  0  0  0  0  0
    8.3787  -16.0292   21.2112 C   0  0  1  0  0  0  0  0  0  0  0  0
    9.1220  -14.8978   20.8746 O   0  0  0  0  0  0  0  0  0  0  0  0
    8.3871  -16.1560   22.7185 C   0  0  2  0  0  0  0  0  0  0  0  0
    7.5799  -15.1103   23.2652 N   0  0  0  0  0  0  0  0  0  0  0  0
    9.7998  -16.0959   23.1563 C   0  0  0  0  0  0  0  0  0  0  0  0
   10.2464  -14.9807   23.5291 O   0  0  0  0  0  0  0  0  0  0  0  0
   11.9281  -17.8687   26.6729 N   0  0  0  0  0  0  0  0  0  0  0  0
   11.7147  -18.7535   25.5788 C   0  0  0  0  0  0  0  0  0  0  0  0
   10.9490  -19.7293   25.7856 O   0  0  0  0  0  0  0  0  0  0  0  0
   12.3975  -18.4555   24.3193 C   0  0  0  0  0  0  0  0  0  0  0  0
   12.0286  -17.1381   23.7004 C   0  0  2  0  0  0  0  0  0  0  0  0
   10.6801  -17.1917   23.1868 N   0  0  0  0  0  0  0  0  0  0  0  0
   13.0091  -16.6409   22.7420 C   0  0  0  0  0  0  0  0  0  0  0  0
   12.7871  -16.7448   21.5164 O   0  0  0  0  0  0  0  0  0  0  0  0
   14.1975  -16.0475   23.1186 O   0  0  0  0  0  0  0  0  0  0  0  0
  2  1  1  0
  3  2  1  0
  3  4  1  6
  3  5  1  0
  5  6  1  1
  7  5  1  0
  7  8  2  0
 10  9  1  1
 10 12  1  0
 10 11  1  0
 12 13  1  1
 13  7  1  0
 14 12  1  0
 15 14  2  0
 16 17  1  0
 17 18  2  0
 19 17  1  0
 20 19  1  6
 20 21  1  0
 21 14  1  0
 22 20  1  0
 23 22  2  0
 24 22  1  0
M  END
$$$$
