ITN.pdb
     RDKit          3D

 24 23  0  0  1  0  0  0  0  0999 V2000
    5.9014  -11.2124   25.6594 C   0  0  0  0  0  0  0  0  0  0  0  0
    6.9394  -12.2659   25.3740 C   0  0  0  0  0  0  0  0  0  0  0  0
    6.7688  -13.5104   26.1982 C   0  0  2  0  0  0  0  0  0  0  0  0
    6.9582  -13.1149   27.6519 C   0  0  0  0  0  0  0  0  0  0  0  0
    7.7003  -14.6193   25.8295 C   0  0  2  0  0  0  0  0  0  0  0  0
    9.0584  -14.0481   25.9103 N   0  0  0  0  0  0  0  0  0  0  0  0
    7.4385  -15.1246   24.4662 C   0  0  0  0  0  0  0  0  0  0  0  0
    6.4575  -15.8603   24.2413 O   0  0  0  0  0  0  0  0  0  0  0  0
    8.4601  -13.0056   21.1348 C   0  0  0  0  0  0  0  0  0  0  0  0
    7.5044  -14.1490   21.1908 C   0  0  1  0  0  0  0  0  0  0  0  0
    7.2856  -14.6362   19.9021 O   0  0  0  0  0  0  0  0  0  0  0  0
    7.9883  -15.3002   22.0442 C   0  0  2  0  0  0  0  0  0  0  0  0
    8.2819  -14.8022   23.3517 N   0  0  0  0  0  0  0  0  0  0  0  0
    9.1639  -15.8878   21.3631 C   0  0  0  0  0  0  0  0  0  0  0  0
    8.9864  -16.3860   20.2219 O   0  0  0  0  0  0  0  0  0  0  0  0
   12.4016  -19.6204   22.3360 N   0  0  0  0  0  0  0  0  0  0  0  0
   11.4281  -19.2605   23.3098 C   0  0  0  0  0  0  0  0  0  0  0  0
   11.2246  -20.0882   24.2343 O   0  0  0  0  0  0  0  0  0  0  0  0
   10.7539  -17.9711   23.1539 C   0  0  0  0  0  0  0  0  0  0  0  0
   11.2559  -17.1327   22.0138 C   0  0  2  0  0  0  0  0  0  0  0  0
   10.4643  -15.9309   21.8960 N   0  0  0  0  0  0  0  0  0  0  0  0
   11.4087  -17.8675   20.7633 C   0  0  0  0  0  0  0  0  0  0  0  0
   10.3949  -18.2471   20.1385 O   0  0  0  0  0  0  0  0  0  0  0  0
   12.6380  -18.1760   20.2157 O   0  0  0  0  0  0  0  0  0  0  0  0
  2  1  1  0
  3  2  1  0
  3  4  1  1
  3  5  1  0
  5  6  1  6
  7  5  1  0
  7  8  2  0
 10  9  1  6
 10 12  1  0
 10 11  1  0
 12 13  1  1
 13  7  1  0
 14 12  1  0
 15 14  2  0
 16 17  1  0
 17 18  2  0
 19 17  1  0
 20 19  1  1
 20 21  1  0
 21 14  1  0
 22 20  1  0
 23 22  2  0
 24 22  1  0
M  END
$$$$
