ITN.pdb
     RDKit          3D

 24 23  0  0  1  0  0  0  0  0999 V2000
    6.2877  -11.4780   27.4439 C   0  0  0  0  0  0  0  0  0  0  0  0
    5.7182  -12.6574   26.7001 C   0  0  0  0  0  0  0  0  0  0  0  0
    6.7572  -13.4618   25.9716 C   0  0  2  0  0  0  0  0  0  0  0  0
    7.4448  -12.5255   24.9938 C   0  0  0  0  0  0  0  0  0  0  0  0
    6.2146  -14.6588   25.2601 C   0  0  2  0  0  0  0  0  0  0  0  0
    5.5862  -15.4952   26.3007 N   0  0  0  0  0  0  0  0  0  0  0  0
    7.2793  -15.4155   24.5699 C   0  0  0  0  0  0  0  0  0  0  0  0
    7.9686  -16.2481   25.1912 O   0  0  0  0  0  0  0  0  0  0  0  0
    6.7516  -16.3638   20.7343 C   0  0  0  0  0  0  0  0  0  0  0  0
    8.1861  -16.0859   21.0323 C   0  0  1  0  0  0  0  0  0  0  0  0
    8.5341  -14.8360   20.5201 O   0  0  0  0  0  0  0  0  0  0  0  0
    8.5075  -16.0855   22.5103 C   0  0  2  0  0  0  0  0  0  0  0  0
    7.5706  -15.2360   23.1770 N   0  0  0  0  0  0  0  0  0  0  0  0
    9.9108  -15.6373   22.6544 C   0  0  0  0  0  0  0  0  0  0  0  0
   10.1154  -14.5470   23.2472 O   0  0  0  0  0  0  0  0  0  0  0  0
   14.3773  -16.9878   24.6276 N   0  0  0  0  0  0  0  0  0  0  0  0
   13.1263  -17.5194   25.0496 C   0  0  0  0  0  0  0  0  0  0  0  0
   13.1305  -18.1919   26.1120 O   0  0  0  0  0  0  0  0  0  0  0  0
   11.9537  -17.2408   24.2196 C   0  0  0  0  0  0  0  0  0  0  0  0
   12.2504  -16.5319   22.9296 C   0  0  2  0  0  0  0  0  0  0  0  0
   11.0325  -16.3388   22.1784 N   0  0  0  0  0  0  0  0  0  0  0  0
   13.3328  -17.1347   22.1601 C   0  0  0  0  0  0  0  0  0  0  0  0
   14.4532  -16.5816   22.1263 O   0  0  0  0  0  0  0  0  0  0  0  0
   13.1889  -18.3095   21.4493 O   0  0  0  0  0  0  0  0  0  0  0  0
  2  1  1  0
  3  2  1  0
  3  4  1  6
  3  5  1  0
  5  6  1  1
  7  5  1  0
  7  8  2  0
 10  9  1  1
 10 12  1  0
 10 11  1  0
 12 13  1  1
 13  7  1  0
 14 12  1  0
 15 14  2  0
 16 17  1  0
 17 18  2  0
 19 17  1  0
 20 19  1  1
 20 21  1  0
 21 14  1  0
 22 20  1  0
 23 22  2  0
 24 22  1  0
M  END
$$$$
