ITN.pdb
     RDKit          3D

 24 23  0  0  1  0  0  0  0  0999 V2000
    6.7862  -10.8279   27.4768 C   0  0  0  0  0  0  0  0  0  0  0  0
    6.0135  -11.8340   26.6646 C   0  0  0  0  0  0  0  0  0  0  0  0
    6.8681  -12.9415   26.1167 C   0  0  2  0  0  0  0  0  0  0  0  0
    7.9549  -12.2951   25.2760 C   0  0  0  0  0  0  0  0  0  0  0  0
    6.1157  -13.9538   25.3152 C   0  0  2  0  0  0  0  0  0  0  0  0
    5.1190  -14.5354   26.2346 N   0  0  0  0  0  0  0  0  0  0  0  0
    7.0060  -15.0101   24.7916 C   0  0  0  0  0  0  0  0  0  0  0  0
    7.2918  -16.0014   25.4916 O   0  0  0  0  0  0  0  0  0  0  0  0
    6.9389  -15.7029   20.8406 C   0  0  0  0  0  0  0  0  0  0  0  0
    8.2877  -15.9488   21.4270 C   0  0  1  0  0  0  0  0  0  0  0  0
    9.1397  -14.8962   21.0924 O   0  0  0  0  0  0  0  0  0  0  0  0
    8.2779  -16.0741   22.9344 C   0  0  2  0  0  0  0  0  0  0  0  0
    7.5772  -14.9524   23.4772 N   0  0  0  0  0  0  0  0  0  0  0  0
    9.6880  -16.1547   23.3774 C   0  0  0  0  0  0  0  0  0  0  0  0
   10.2369  -15.0925   23.7677 O   0  0  0  0  0  0  0  0  0  0  0  0
   12.1429  -18.5963   26.9944 N   0  0  0  0  0  0  0  0  0  0  0  0
   11.4086  -18.8159   25.7952 C   0  0  0  0  0  0  0  0  0  0  0  0
   10.1958  -19.1207   25.9261 O   0  0  0  0  0  0  0  0  0  0  0  0
   12.1203  -18.6696   24.5249 C   0  0  0  0  0  0  0  0  0  0  0  0
   11.8463  -17.3864   23.7947 C   0  0  2  0  0  0  0  0  0  0  0  0
   10.4600  -17.3297   23.3948 N   0  0  0  0  0  0  0  0  0  0  0  0
   12.7870  -17.1091   22.7153 C   0  0  0  0  0  0  0  0  0  0  0  0
   12.3786  -17.0518   21.5354 O   0  0  0  0  0  0  0  0  0  0  0  0
   14.1356  -16.9009   22.9255 O   0  0  0  0  0  0  0  0  0  0  0  0
  2  1  1  0
  3  2  1  0
  3  4  1  6
  3  5  1  0
  5  6  1  1
  7  5  1  0
  7  8  2  0
 10  9  1  1
 10 12  1  0
 10 11  1  0
 12 13  1  1
 13  7  1  0
 14 12  1  0
 15 14  2  0
 16 17  1  0
 17 18  2  0
 19 17  1  0
 20 19  1  6
 20 21  1  0
 21 14  1  0
 22 20  1  0
 23 22  2  0
 24 22  1  0
M  END
$$$$
