ITN.pdb
     RDKit          3D

 24 23  0  0  1  0  0  0  0  0999 V2000
    6.4917  -12.4226   18.5007 C   0  0  0  0  0  0  0  0  0  0  0  0
    7.7422  -12.4324   19.3402 C   0  0  0  0  0  0  0  0  0  0  0  0
    7.8487  -13.6320   20.2384 C   0  0  2  0  0  0  0  0  0  0  0  0
    9.0414  -13.4049   21.1503 C   0  0  0  0  0  0  0  0  0  0  0  0
    7.9835  -14.9300   19.5100 C   0  0  2  0  0  0  0  0  0  0  0  0
    6.6990  -15.1364   18.8139 N   0  0  0  0  0  0  0  0  0  0  0  0
    8.2504  -16.0517   20.4337 C   0  0  0  0  0  0  0  0  0  0  0  0
    7.3682  -16.4471   21.2208 O   0  0  0  0  0  0  0  0  0  0  0  0
    8.3401  -19.3902   20.0834 C   0  0  0  0  0  0  0  0  0  0  0  0
    9.6797  -19.1047   20.6731 C   0  0  1  0  0  0  0  0  0  0  0  0
   10.6379  -19.0763   19.6598 O   0  0  0  0  0  0  0  0  0  0  0  0
    9.7471  -17.7854   21.4100 C   0  0  2  0  0  0  0  0  0  0  0  0
    9.5129  -16.7313   20.4731 N   0  0  0  0  0  0  0  0  0  0  0  0
   11.0768  -17.7108   22.0560 C   0  0  0  0  0  0  0  0  0  0  0  0
   11.9800  -17.0729   21.4565 O   0  0  0  0  0  0  0  0  0  0  0  0
   15.2227  -15.4112   24.0871 N   0  0  0  0  0  0  0  0  0  0  0  0
   14.5810  -16.5832   23.5968 C   0  0  0  0  0  0  0  0  0  0  0  0
   15.2916  -17.3750   22.9266 O   0  0  0  0  0  0  0  0  0  0  0  0
   13.1635  -16.7650   23.9113 C   0  0  0  0  0  0  0  0  0  0  0  0
   12.6999  -18.1932   23.9221 C   0  0  2  0  0  0  0  0  0  0  0  0
   11.4063  -18.2995   23.2896 N   0  0  0  0  0  0  0  0  0  0  0  0
   12.7732  -18.8277   25.2333 C   0  0  0  0  0  0  0  0  0  0  0  0
   13.8775  -18.9396   25.8080 O   0  0  0  0  0  0  0  0  0  0  0  0
   11.6668  -19.3242   25.8933 O   0  0  0  0  0  0  0  0  0  0  0  0
  2  1  1  0
  3  2  1  0
  3  4  1  1
  3  5  1  0
  5  6  1  1
  7  5  1  0
  7  8  2  0
 10  9  1  6
 10 12  1  0
 10 11  1  0
 12 13  1  6
 13  7  1  0
 14 12  1  0
 15 14  2  0
 16 17  1  0
 17 18  2  0
 19 17  1  0
 20 19  1  1
 20 21  1  0
 21 14  1  0
 22 20  1  0
 23 22  2  0
 24 22  1  0
M  END
$$$$
