ITN.pdb
     RDKit          3D

 24 23  0  0  1  0  0  0  0  0999 V2000
    7.2874  -11.8943   19.7871 C   0  0  0  0  0  0  0  0  0  0  0  0
    7.8779  -12.9686   18.9120 C   0  0  0  0  0  0  0  0  0  0  0  0
    8.3532  -14.1694   19.6797 C   0  0  2  0  0  0  0  0  0  0  0  0
    9.4136  -13.6877   20.6540 C   0  0  0  0  0  0  0  0  0  0  0  0
    8.8885  -15.2699   18.8220 C   0  0  2  0  0  0  0  0  0  0  0  0
    7.7935  -15.6321   17.9017 N   0  0  0  0  0  0  0  0  0  0  0  0
    9.2916  -16.4433   19.6240 C   0  0  0  0  0  0  0  0  0  0  0  0
    8.4379  -17.1164   20.2341 O   0  0  0  0  0  0  0  0  0  0  0  0
   10.9445  -19.6647   18.8406 C   0  0  0  0  0  0  0  0  0  0  0  0
   11.7808  -18.9660   19.8586 C   0  0  1  0  0  0  0  0  0  0  0  0
   12.8574  -18.3424   19.2279 O   0  0  0  0  0  0  0  0  0  0  0  0
   11.0280  -17.9112   20.6387 C   0  0  2  0  0  0  0  0  0  0  0  0
   10.6586  -16.8618   19.7408 N   0  0  0  0  0  0  0  0  0  0  0  0
   11.9143  -17.4597   21.7349 C   0  0  0  0  0  0  0  0  0  0  0  0
   12.6246  -16.4427   21.5274 O   0  0  0  0  0  0  0  0  0  0  0  0
   11.0077  -15.4336   24.4153 N   0  0  0  0  0  0  0  0  0  0  0  0
   10.9227  -16.6370   25.1702 C   0  0  0  0  0  0  0  0  0  0  0  0
    9.7978  -16.9175   25.6569 O   0  0  0  0  0  0  0  0  0  0  0  0
   12.1394  -17.4373   25.3144 C   0  0  0  0  0  0  0  0  0  0  0  0
   12.9097  -17.6453   24.0424 C   0  0  2  0  0  0  0  0  0  0  0  0
   12.0219  -18.0824   22.9909 N   0  0  0  0  0  0  0  0  0  0  0  0
   14.0969  -18.4774   24.2006 C   0  0  0  0  0  0  0  0  0  0  0  0
   15.0011  -18.1255   24.9885 O   0  0  0  0  0  0  0  0  0  0  0  0
   14.2852  -19.6604   23.5141 O   0  0  0  0  0  0  0  0  0  0  0  0
  2  1  1  0
  3  2  1  0
  3  4  1  1
  3  5  1  0
  5  6  1  6
  7  5  1  0
  7  8  2  0
 10  9  1  6
 10 12  1  0
 10 11  1  0
 12 13  1  6
 13  7  1  0
 14 12  1  0
 15 14  2  0
 16 17  1  0
 17 18  2  0
 19 17  1  0
 20 19  1  1
 20 21  1  0
 21 14  1  0
 22 20  1  0
 23 22  2  0
 24 22  1  0
M  END
$$$$
