DAE.pdb
     RDKit          3D

 23 22  0  0  1  0  0  0  0  0999 V2000
    8.2961  -12.9818   17.6632 N   0  0  0  0  0  0  0  0  0  0  0  0
    8.0430  -14.1424   18.4553 C   0  0  1  0  0  0  0  0  0  0  0  0
    8.6728  -15.3352   17.7674 C   0  0  0  0  0  0  0  0  0  0  0  0
    7.9766  -15.5110   16.4671 C   0  0  0  0  0  0  0  0  0  0  0  0
    7.1301  -14.6511   16.1399 O   0  0  0  0  0  0  0  0  0  0  0  0
    8.5530  -14.0528   19.8327 C   0  0  0  0  0  0  0  0  0  0  0  0
    9.7690  -13.8554   20.1057 O   0  0  0  0  0  0  0  0  0  0  0  0
    8.2351  -16.5759   15.6299 O   0  0  0  0  0  0  0  0  0  0  0  0
    7.1223  -13.7010   23.3126 C   0  0  0  0  0  0  0  0  0  0  0  0
    8.1844  -14.0856   22.3080 C   0  0  2  0  0  0  0  0  0  0  0  0
    7.6876  -14.1862   20.9758 N   0  0  0  0  0  0  0  0  0  0  0  0
    8.8526  -15.3496   22.6977 C   0  0  0  0  0  0  0  0  0  0  0  0
    8.3484  -16.4836   22.3718 O   0  0  0  0  0  0  0  0  0  0  0  0
   10.0598  -15.2796   23.4374 N   0  0  0  0  0  0  0  0  0  0  0  0
   10.7940  -16.4636   23.8384 C   0  0  1  0  0  0  0  0  0  0  0  0
   12.2480  -16.1966   23.6239 C   0  0  0  0  0  0  0  0  0  0  0  0
   13.1863  -17.2909   23.9801 C   0  0  0  0  0  0  0  0  0  0  0  0
   14.6218  -16.9602   23.8142 C   0  0  0  0  0  0  0  0  0  0  0  0
   14.9787  -15.7644   23.6550 O   0  0  0  0  0  0  0  0  0  0  0  0
   10.4401  -16.9244   25.1815 C   0  0  0  0  0  0  0  0  0  0  0  0
    9.8928  -16.2574   26.0693 O   0  0  0  0  0  0  0  0  0  0  0  0
   15.6402  -17.9008   23.8203 O   0  0  0  0  0  0  0  0  0  0  0  0
   10.7452  -18.2532   25.5119 O   0  0  0  0  0  0  0  0  0  0  0  0
  2  1  1  6
  2  3  1  0
  3  4  1  0
  4  8  1  0
  4  5  2  0
  6  2  1  0
  7  6  2  0
 10  9  1  1
 10 11  1  0
 11  6  1  0
 12 10  1  0
 12 14  1  0
 13 12  2  0
 15 14  1  0
 15 16  1  1
 15 20  1  0
 16 17  1  0
 17 18  1  0
 18 22  1  0
 19 18  2  0
 20 21  2  0
 20 23  1  0
M  END
$$$$
