DAE.pdb
     RDKit          3D

 23 22  0  0  1  0  0  0  0  0999 V2000
    8.3496  -16.5646   16.4939 N   0  0  0  0  0  0  0  0  0  0  0  0
    9.3521  -15.5850   16.2224 C   0  0  1  0  0  0  0  0  0  0  0  0
    9.1295  -15.0506   14.8234 C   0  0  0  0  0  0  0  0  0  0  0  0
    9.3255  -16.1841   13.8835 C   0  0  0  0  0  0  0  0  0  0  0  0
    8.3655  -16.5028   13.1487 O   0  0  0  0  0  0  0  0  0  0  0  0
    9.3678  -14.4618   17.1730 C   0  0  0  0  0  0  0  0  0  0  0  0
   10.2983  -13.6108   17.2187 O   0  0  0  0  0  0  0  0  0  0  0  0
   10.5143  -16.8784   13.8028 O   0  0  0  0  0  0  0  0  0  0  0  0
    7.0737  -12.7540   19.6215 C   0  0  0  0  0  0  0  0  0  0  0  0
    8.4134  -13.2850   19.1651 C   0  0  2  0  0  0  0  0  0  0  0  0
    8.3089  -14.2560   18.1269 N   0  0  0  0  0  0  0  0  0  0  0  0
    9.1819  -13.8401   20.3041 C   0  0  0  0  0  0  0  0  0  0  0  0
    9.3994  -13.1335   21.3528 O   0  0  0  0  0  0  0  0  0  0  0  0
    9.6713  -15.1671   20.2108 N   0  0  0  0  0  0  0  0  0  0  0  0
   10.3603  -15.8191   21.3071 C   0  0  1  0  0  0  0  0  0  0  0  0
   10.2649  -17.2948   21.0964 C   0  0  0  0  0  0  0  0  0  0  0  0
   10.9180  -18.1571   22.1138 C   0  0  0  0  0  0  0  0  0  0  0  0
   10.8650  -19.6103   21.8263 C   0  0  0  0  0  0  0  0  0  0  0  0
    9.8184  -20.1208   21.3503 O   0  0  0  0  0  0  0  0  0  0  0  0
   11.7166  -15.3085   21.5101 C   0  0  0  0  0  0  0  0  0  0  0  0
   12.4580  -14.8219   20.6463 O   0  0  0  0  0  0  0  0  0  0  0  0
   11.9179  -20.4841   22.0498 O   0  0  0  0  0  0  0  0  0  0  0  0
   12.2443  -15.3697   22.8085 O   0  0  0  0  0  0  0  0  0  0  0  0
  2  1  1  1
  2  3  1  0
  3  4  1  0
  4  8  1  0
  4  5  2  0
  6  2  1  0
  7  6  2  0
 10  9  1  1
 10 11  1  0
 11  6  1  0
 12 10  1  0
 12 14  1  0
 13 12  2  0
 15 14  1  0
 15 16  1  6
 15 20  1  0
 16 17  1  0
 17 18  1  0
 18 22  1  0
 19 18  2  0
 20 21  2  0
 20 23  1  0
M  END
$$$$
