DAE.pdb
     RDKit          3D

 23 22  0  0  1  0  0  0  0  0999 V2000
    9.4091  -17.6199   19.1827 N   0  0  0  0  0  0  0  0  0  0  0  0
   10.7468  -17.4566   19.6542 C   0  0  1  0  0  0  0  0  0  0  0  0
   11.5402  -16.7251   18.5923 C   0  0  0  0  0  0  0  0  0  0  0  0
   11.4730  -17.5413   17.3530 C   0  0  0  0  0  0  0  0  0  0  0  0
   12.0148  -18.6679   17.3687 O   0  0  0  0  0  0  0  0  0  0  0  0
   10.8503  -16.7243   20.9264 C   0  0  0  0  0  0  0  0  0  0  0  0
   11.9500  -16.3470   21.4166 O   0  0  0  0  0  0  0  0  0  0  0  0
   10.8414  -17.0970   16.2104 O   0  0  0  0  0  0  0  0  0  0  0  0
    8.5909  -14.9463   23.3622 C   0  0  0  0  0  0  0  0  0  0  0  0
    9.8002  -15.7732   22.9896 C   0  0  2  0  0  0  0  0  0  0  0  0
    9.6889  -16.3851   21.7071 N   0  0  0  0  0  0  0  0  0  0  0  0
   10.0802  -16.8009   24.0200 C   0  0  0  0  0  0  0  0  0  0  0  0
    9.4048  -17.8912   24.0569 O   0  0  0  0  0  0  0  0  0  0  0  0
   11.1090  -16.5541   24.9634 N   0  0  0  0  0  0  0  0  0  0  0  0
   11.4196  -17.4816   26.0333 C   0  0  1  0  0  0  0  0  0  0  0  0
   12.9019  -17.6638   26.0669 C   0  0  0  0  0  0  0  0  0  0  0  0
   13.5728  -17.9116   24.7656 C   0  0  0  0  0  0  0  0  0  0  0  0
   15.0344  -18.1433   24.8518 C   0  0  0  0  0  0  0  0  0  0  0  0
   15.7140  -18.2788   23.8018 O   0  0  0  0  0  0  0  0  0  0  0  0
   10.8130  -17.1011   27.3095 C   0  0  0  0  0  0  0  0  0  0  0  0
   10.2112  -16.0474   27.5546 O   0  0  0  0  0  0  0  0  0  0  0  0
   15.7376  -18.2262   26.0437 O   0  0  0  0  0  0  0  0  0  0  0  0
   10.9154  -18.0111   28.3723 O   0  0  0  0  0  0  0  0  0  0  0  0
  2  1  1  6
  2  3  1  0
  3  4  1  0
  4  8  1  0
  4  5  2  0
  6  2  1  0
  7  6  2  0
 10  9  1  1
 10 11  1  0
 11  6  1  0
 12 10  1  0
 12 14  1  0
 13 12  2  0
 15 14  1  0
 15 16  1  1
 15 20  1  0
 16 17  1  0
 17 18  1  0
 18 22  1  0
 19 18  2  0
 20 21  2  0
 20 23  1  0
M  END
$$$$
