DAE.pdb
     RDKit          3D

 23 22  0  0  1  0  0  0  0  0999 V2000
    9.4803  -13.7633   18.4275 N   0  0  0  0  0  0  0  0  0  0  0  0
   10.1869  -14.6513   19.2938 C   0  0  1  0  0  0  0  0  0  0  0  0
   11.4792  -13.9817   19.7111 C   0  0  0  0  0  0  0  0  0  0  0  0
   12.4306  -14.1179   18.5785 C   0  0  0  0  0  0  0  0  0  0  0  0
   12.2399  -15.0504   17.7679 O   0  0  0  0  0  0  0  0  0  0  0  0
    9.4344  -15.0433   20.4962 C   0  0  0  0  0  0  0  0  0  0  0  0
    8.7189  -14.2387   21.1539 O   0  0  0  0  0  0  0  0  0  0  0  0
   13.4957  -13.2598   18.4026 O   0  0  0  0  0  0  0  0  0  0  0  0
    8.4804  -18.2914   22.2030 C   0  0  0  0  0  0  0  0  0  0  0  0
    8.6454  -16.7921   22.1034 C   0  0  2  0  0  0  0  0  0  0  0  0
    9.4647  -16.3884   21.0091 N   0  0  0  0  0  0  0  0  0  0  0  0
    9.1743  -16.2297   23.3684 C   0  0  0  0  0  0  0  0  0  0  0  0
   10.4250  -15.9748   23.4985 O   0  0  0  0  0  0  0  0  0  0  0  0
    8.2699  -15.9793   24.4308 N   0  0  0  0  0  0  0  0  0  0  0  0
    8.7013  -15.4448   25.7074 C   0  0  1  0  0  0  0  0  0  0  0  0
    7.6514  -14.4963   26.1864 C   0  0  0  0  0  0  0  0  0  0  0  0
    7.8389  -13.0644   25.8410 C   0  0  0  0  0  0  0  0  0  0  0  0
    6.7403  -12.1690   26.2756 C   0  0  0  0  0  0  0  0  0  0  0  0
    5.7162  -12.6494   26.8260 O   0  0  0  0  0  0  0  0  0  0  0  0
    9.0765  -16.4878   26.6629 C   0  0  0  0  0  0  0  0  0  0  0  0
    8.7250  -17.6745   26.6346 O   0  0  0  0  0  0  0  0  0  0  0  0
    6.7532  -10.7919   26.1166 O   0  0  0  0  0  0  0  0  0  0  0  0
    9.9186  -16.1221   27.7236 O   0  0  0  0  0  0  0  0  0  0  0  0
  2  1  1  1
  2  3  1  0
  3  4  1  0
  4  8  1  0
  4  5  2  0
  6  2  1  0
  7  6  2  0
 10  9  1  1
 10 11  1  0
 11  6  1  0
 12 10  1  0
 12 14  1  0
 13 12  2  0
 15 14  1  0
 15 16  1  1
 15 20  1  0
 16 17  1  0
 17 18  1  0
 18 22  1  0
 19 18  2  0
 20 21  2  0
 20 23  1  0
M  END
$$$$
