FIL.pdb
     RDKit          3D

 28 28  0  0  1  0  0  0  0  0999 V2000
   28.4045  -21.3609   -9.1753 N   0  0  0  0  0  0  0  0  0  0  0  0
   27.1259  -20.7087   -9.2425 C   0  0  1  0  0  0  0  0  0  0  0  0
   27.0709  -19.4301   -8.4354 C   0  0  0  0  0  0  0  0  0  0  0  0
   27.5064  -19.6460   -7.0442 C   0  0  0  0  0  0  0  0  0  0  0  0
   28.5957  -18.9489   -6.5095 C   0  0  0  0  0  0  0  0  0  0  0  0
   28.9789  -19.1750   -5.1998 C   0  0  0  0  0  0  0  0  0  0  0  0
   28.3089  -20.0787   -4.3987 C   0  0  0  0  0  0  0  0  0  0  0  0
   27.2353  -20.7528   -4.9564 C   0  0  0  0  0  0  0  0  0  0  0  0
   26.8294  -20.5516   -6.2525 C   0  0  0  0  0  0  0  0  0  0  0  0
   26.6821  -20.4678  -10.6230 C   0  0  0  0  0  0  0  0  0  0  0  0
   27.4711  -19.9320  -11.4737 O   0  0  0  0  0  0  0  0  0  0  0  0
   24.8355  -23.8024  -14.9154 C   0  0  0  0  0  0  0  0  0  0  0  0
   24.7711  -22.3746  -14.4250 C   0  0  0  0  0  0  0  0  0  0  0  0
   25.1288  -22.2856  -12.9454 C   0  0  2  0  0  0  0  0  0  0  0  0
   24.0891  -23.1160  -12.2324 C   0  0  0  0  0  0  0  0  0  0  0  0
   25.0832  -20.8450  -12.4764 C   0  0  2  0  0  0  0  0  0  0  0  0
   25.3744  -20.8298  -11.0158 N   0  0  0  0  0  0  0  0  0  0  0  0
   23.6833  -20.3611  -12.5583 C   0  0  0  0  0  0  0  0  0  0  0  0
   22.8759  -20.4809  -11.5593 O   0  0  0  0  0  0  0  0  0  0  0  0
   21.2039  -16.3607  -13.2334 C   0  0  0  0  0  0  0  0  0  0  0  0
   21.8595  -16.9031  -14.5058 C   0  0  2  0  0  0  0  0  0  0  0  0
   21.8073  -15.9330  -15.6373 C   0  0  0  0  0  0  0  0  0  0  0  0
   21.4556  -18.2968  -14.8186 C   0  0  0  0  0  0  0  0  0  0  0  0
   21.7075  -19.3262  -13.7707 C   0  0  2  0  0  0  0  0  0  0  0  0
   23.0932  -19.7372  -13.6850 N   0  0  0  0  0  0  0  0  0  0  0  0
   20.8044  -20.4847  -13.8093 C   0  0  0  0  0  0  0  0  0  0  0  0
   19.5564  -20.5023  -13.2091 O   0  0  0  0  0  0  0  0  0  0  0  0
   21.1517  -21.5319  -14.4103 O   0  0  0  0  0  0  0  0  0  0  0  0
  2  1  1  6
  2  3  1  0
  2 10  1  0
  3  4  1  0
  4  9  2  0
  5  4  1  0
  5  6  2  0
  6  7  1  0
  7  8  2  0
  9  8  1  0
 10 17  1  0
 10 11  2  0
 13 12  1  0
 14 13  1  0
 14 15  1  1
 16 14  1  0
 16 17  1  1
 18 16  1  0
 18 19  2  0
 21 20  1  1
 21 23  1  0
 22 21  1  0
 24 23  1  6
 24 25  1  0
 25 18  1  0
 26 27  1  0
 26 24  1  0
 28 26  2  0
M  END
$$$$
