FIL.pdb
     RDKit          3D

 28 28  0  0  1  0  0  0  0  0999 V2000
   28.1294  -19.6774  -15.0595 N   0  0  0  0  0  0  0  0  0  0  0  0
   27.1881  -19.2140  -14.0777 C   0  0  1  0  0  0  0  0  0  0  0  0
   26.0452  -18.4261  -14.6796 C   0  0  0  0  0  0  0  0  0  0  0  0
   26.5266  -17.2345  -15.4008 C   0  0  0  0  0  0  0  0  0  0  0  0
   27.0401  -16.1294  -14.7127 C   0  0  0  0  0  0  0  0  0  0  0  0
   27.4838  -15.0265  -15.4198 C   0  0  0  0  0  0  0  0  0  0  0  0
   27.4330  -14.9867  -16.7994 C   0  0  0  0  0  0  0  0  0  0  0  0
   26.9197  -16.0954  -17.4516 C   0  0  0  0  0  0  0  0  0  0  0  0
   26.4711  -17.2056  -16.7797 C   0  0  0  0  0  0  0  0  0  0  0  0
   26.6765  -20.2964  -13.2247 C   0  0  0  0  0  0  0  0  0  0  0  0
   26.8185  -21.5181  -13.5722 O   0  0  0  0  0  0  0  0  0  0  0  0
   26.4665  -19.4801   -7.7573 C   0  0  0  0  0  0  0  0  0  0  0  0
   26.7122  -20.2216   -9.0506 C   0  0  0  0  0  0  0  0  0  0  0  0
   25.3983  -20.5765   -9.7382 C   0  0  2  0  0  0  0  0  0  0  0  0
   24.7554  -21.6200   -8.8569 C   0  0  0  0  0  0  0  0  0  0  0  0
   25.6599  -21.1287  -11.1253 C   0  0  2  0  0  0  0  0  0  0  0  0
   26.0227  -19.9877  -12.0113 N   0  0  0  0  0  0  0  0  0  0  0  0
   24.3797  -21.6179  -11.6929 C   0  0  0  0  0  0  0  0  0  0  0  0
   23.7643  -22.6285  -11.1788 O   0  0  0  0  0  0  0  0  0  0  0  0
   20.5927  -18.7431  -11.0772 C   0  0  0  0  0  0  0  0  0  0  0  0
   21.2931  -19.2863  -12.3252 C   0  0  2  0  0  0  0  0  0  0  0  0
   20.8759  -18.5807  -13.5711 C   0  0  0  0  0  0  0  0  0  0  0  0
   21.3057  -20.7694  -12.3851 C   0  0  0  0  0  0  0  0  0  0  0  0
   22.3636  -21.4043  -13.2210 C   0  0  2  0  0  0  0  0  0  0  0  0
   23.7090  -21.0614  -12.8098 N   0  0  0  0  0  0  0  0  0  0  0  0
   22.1876  -21.2450  -14.6711 C   0  0  0  0  0  0  0  0  0  0  0  0
   23.1532  -20.7051  -15.5043 O   0  0  0  0  0  0  0  0  0  0  0  0
   21.1156  -21.6073  -15.2172 O   0  0  0  0  0  0  0  0  0  0  0  0
  2  1  1  6
  2  3  1  0
  2 10  1  0
  3  4  1  0
  4  9  2  0
  5  4  1  0
  5  6  2  0
  6  7  1  0
  7  8  2  0
  9  8  1  0
 10 17  1  0
 10 11  2  0
 13 12  1  0
 14 13  1  0
 14 15  1  1
 16 14  1  0
 16 17  1  6
 18 16  1  0
 18 19  2  0
 21 20  1  1
 21 23  1  0
 22 21  1  0
 24 23  1  1
 24 25  1  0
 25 18  1  0
 26 27  1  0
 26 24  1  0
 28 26  2  0
M  END
$$$$
