FIL.pdb
     RDKit          3D

 28 28  0  0  1  0  0  0  0  0999 V2000
   21.9337  -19.6473  -17.1279 N   0  0  0  0  0  0  0  0  0  0  0  0
   22.5324  -18.9658  -16.0135 C   0  0  1  0  0  0  0  0  0  0  0  0
   21.6096  -18.8613  -14.8190 C   0  0  0  0  0  0  0  0  0  0  0  0
   20.3393  -18.2016  -15.1694 C   0  0  0  0  0  0  0  0  0  0  0  0
   19.1499  -18.9309  -15.2779 C   0  0  0  0  0  0  0  0  0  0  0  0
   17.9745  -18.2812  -15.6086 C   0  0  0  0  0  0  0  0  0  0  0  0
   17.9433  -16.9194  -15.8365 C   0  0  0  0  0  0  0  0  0  0  0  0
   19.1362  -16.2253  -15.7214 C   0  0  0  0  0  0  0  0  0  0  0  0
   20.3198  -16.8399  -15.3950 C   0  0  0  0  0  0  0  0  0  0  0  0
   23.8242  -19.5461  -15.6191 C   0  0  0  0  0  0  0  0  0  0  0  0
   23.9476  -20.8086  -15.4637 O   0  0  0  0  0  0  0  0  0  0  0  0
   28.4125  -17.4279  -17.7035 C   0  0  0  0  0  0  0  0  0  0  0  0
   27.3280  -18.3498  -17.1967 C   0  0  0  0  0  0  0  0  0  0  0  0
   27.3385  -18.4248  -15.6738 C   0  0  2  0  0  0  0  0  0  0  0  0
   28.7077  -18.9455  -15.3089 C   0  0  0  0  0  0  0  0  0  0  0  0
   26.2554  -19.3650  -15.1834 C   0  0  2  0  0  0  0  0  0  0  0  0
   24.9395  -18.7050  -15.4096 N   0  0  0  0  0  0  0  0  0  0  0  0
   26.3456  -19.4668  -13.7062 C   0  0  0  0  0  0  0  0  0  0  0  0
   26.3641  -18.4118  -12.9641 O   0  0  0  0  0  0  0  0  0  0  0  0
   26.5533  -19.8600   -8.6831 C   0  0  0  0  0  0  0  0  0  0  0  0
   25.2167  -20.0732   -9.3979 C   0  0  2  0  0  0  0  0  0  0  0  0
   24.4607  -21.2434   -8.8656 C   0  0  0  0  0  0  0  0  0  0  0  0
   25.3271  -19.9816  -10.8754 C   0  0  0  0  0  0  0  0  0  0  0  0
   26.4219  -20.7588  -11.5221 C   0  0  2  0  0  0  0  0  0  0  0  0
   26.4156  -20.6737  -12.9676 N   0  0  0  0  0  0  0  0  0  0  0  0
   26.5484  -22.1499  -11.0660 C   0  0  0  0  0  0  0  0  0  0  0  0
   27.2527  -22.5226   -9.9332 O   0  0  0  0  0  0  0  0  0  0  0  0
   26.0010  -23.0759  -11.7151 O   0  0  0  0  0  0  0  0  0  0  0  0
  2  1  1  6
  2  3  1  0
  2 10  1  0
  3  4  1  0
  4  9  2  0
  5  4  1  0
  5  6  2  0
  6  7  1  0
  7  8  2  0
  9  8  1  0
 10 17  1  0
 10 11  2  0
 13 12  1  0
 14 13  1  0
 14 15  1  6
 16 14  1  0
 16 17  1  1
 18 16  1  0
 18 19  2  0
 21 20  1  1
 21 23  1  0
 22 21  1  0
 24 23  1  6
 24 25  1  0
 25 18  1  0
 26 27  1  0
 26 24  1  0
 28 26  2  0
M  END
$$$$
