FIL.pdb
     RDKit          3D

 28 28  0  0  1  0  0  0  0  0999 V2000
   26.6153  -18.2281  -16.9149 N   0  0  0  0  0  0  0  0  0  0  0  0
   26.1388  -18.0399  -15.5725 C   0  0  1  0  0  0  0  0  0  0  0  0
   24.9429  -17.1162  -15.4933 C   0  0  0  0  0  0  0  0  0  0  0  0
   25.2653  -15.7659  -15.9875 C   0  0  0  0  0  0  0  0  0  0  0  0
   26.1760  -14.9454  -15.3123 C   0  0  0  0  0  0  0  0  0  0  0  0
   26.4565  -13.6829  -15.8028 C   0  0  0  0  0  0  0  0  0  0  0  0
   25.8562  -13.2063  -16.9516 C   0  0  0  0  0  0  0  0  0  0  0  0
   24.9597  -14.0415  -17.5972 C   0  0  0  0  0  0  0  0  0  0  0  0
   24.6594  -15.2997  -17.1368 C   0  0  0  0  0  0  0  0  0  0  0  0
   25.8579  -19.3087  -14.8854 C   0  0  0  0  0  0  0  0  0  0  0  0
   25.6074  -20.3676  -15.5557 O   0  0  0  0  0  0  0  0  0  0  0  0
   29.1689  -21.0577  -11.3482 C   0  0  0  0  0  0  0  0  0  0  0  0
   28.0844  -21.0521  -12.4003 C   0  0  0  0  0  0  0  0  0  0  0  0
   26.7079  -20.8733  -11.7691 C   0  0  2  0  0  0  0  0  0  0  0  0
   26.4629  -22.1371  -10.9807 C   0  0  0  0  0  0  0  0  0  0  0  0
   25.6532  -20.6943  -12.8429 C   0  0  2  0  0  0  0  0  0  0  0  0
   25.8640  -19.3617  -13.4739 N   0  0  0  0  0  0  0  0  0  0  0  0
   24.3267  -20.5662  -12.1914 C   0  0  0  0  0  0  0  0  0  0  0  0
   24.1039  -19.6573  -11.3034 O   0  0  0  0  0  0  0  0  0  0  0  0
   19.3524  -20.1904  -14.0757 C   0  0  0  0  0  0  0  0  0  0  0  0
   20.4094  -19.1308  -13.7548 C   0  0  2  0  0  0  0  0  0  0  0  0
   20.3394  -17.9544  -14.6687 C   0  0  0  0  0  0  0  0  0  0  0  0
   21.7591  -19.7062  -13.5296 C   0  0  0  0  0  0  0  0  0  0  0  0
   21.8481  -20.8932  -12.6329 C   0  0  2  0  0  0  0  0  0  0  0  0
   23.1991  -21.3827  -12.4539 N   0  0  0  0  0  0  0  0  0  0  0  0
   20.9190  -21.9851  -12.9548 C   0  0  0  0  0  0  0  0  0  0  0  0
   19.6917  -22.1530  -12.3352 O   0  0  0  0  0  0  0  0  0  0  0  0
   21.2226  -22.8295  -13.8341 O   0  0  0  0  0  0  0  0  0  0  0  0
  2  1  1  6
  2  3  1  0
  2 10  1  0
  3  4  1  0
  4  9  2  0
  5  4  1  0
  5  6  2  0
  6  7  1  0
  7  8  2  0
  9  8  1  0
 10 17  1  0
 10 11  2  0
 13 12  1  0
 14 13  1  0
 14 15  1  6
 16 14  1  0
 16 17  1  1
 18 16  1  0
 18 19  2  0
 21 20  1  6
 21 23  1  0
 22 21  1  0
 24 23  1  6
 24 25  1  0
 25 18  1  0
 26 27  1  0
 26 24  1  0
 28 26  2  0
M  END
$$$$
