FIL.pdb
     RDKit          3D

 28 28  0  0  1  0  0  0  0  0999 V2000
   28.3913  -22.5449  -16.7141 N   0  0  0  0  0  0  0  0  0  0  0  0
   27.4665  -21.5129  -16.3341 C   0  0  1  0  0  0  0  0  0  0  0  0
   26.6985  -20.9453  -17.5077 C   0  0  0  0  0  0  0  0  0  0  0  0
   27.5876  -20.2459  -18.4522 C   0  0  0  0  0  0  0  0  0  0  0  0
   28.0904  -18.9717  -18.1659 C   0  0  0  0  0  0  0  0  0  0  0  0
   28.9227  -18.3426  -19.0741 C   0  0  0  0  0  0  0  0  0  0  0  0
   29.2737  -18.9441  -20.2667 C   0  0  0  0  0  0  0  0  0  0  0  0
   28.7601  -20.2049  -20.5213 C   0  0  0  0  0  0  0  0  0  0  0  0
   27.9318  -20.8565  -19.6413 C   0  0  0  0  0  0  0  0  0  0  0  0
   26.5450  -21.9382  -15.2707 C   0  0  0  0  0  0  0  0  0  0  0  0
   26.0665  -23.1232  -15.2627 O   0  0  0  0  0  0  0  0  0  0  0  0
   25.5811  -21.0150   -9.3524 C   0  0  0  0  0  0  0  0  0  0  0  0
   25.0177  -21.4930  -10.6704 C   0  0  0  0  0  0  0  0  0  0  0  0
   25.8952  -21.0496  -11.8359 C   0  0  2  0  0  0  0  0  0  0  0  0
   25.8824  -19.5406  -11.7939 C   0  0  0  0  0  0  0  0  0  0  0  0
   25.3290  -21.5576  -13.1469 C   0  0  2  0  0  0  0  0  0  0  0  0
   26.1835  -21.0330  -14.2483 N   0  0  0  0  0  0  0  0  0  0  0  0
   24.0168  -20.9075  -13.3833 C   0  0  0  0  0  0  0  0  0  0  0  0
   23.9346  -19.7664  -13.9793 O   0  0  0  0  0  0  0  0  0  0  0  0
   21.7026  -20.2986  -16.5911 C   0  0  0  0  0  0  0  0  0  0  0  0
   21.9356  -21.7294  -16.1000 C   0  0  2  0  0  0  0  0  0  0  0  0
   21.7985  -22.7399  -17.1883 C   0  0  0  0  0  0  0  0  0  0  0  0
   21.2250  -22.0314  -14.8322 C   0  0  0  0  0  0  0  0  0  0  0  0
   21.5052  -21.1413  -13.6703 C   0  0  2  0  0  0  0  0  0  0  0  0
   22.7575  -21.4352  -13.0054 N   0  0  0  0  0  0  0  0  0  0  0  0
   20.4027  -21.0122  -12.7075 C   0  0  0  0  0  0  0  0  0  0  0  0
   19.3447  -20.1332  -12.8691 O   0  0  0  0  0  0  0  0  0  0  0  0
   20.3876  -21.7221  -11.6710 O   0  0  0  0  0  0  0  0  0  0  0  0
  2  1  1  6
  2  3  1  0
  2 10  1  0
  3  4  1  0
  4  9  2  0
  5  4  1  0
  5  6  2  0
  6  7  1  0
  7  8  2  0
  9  8  1  0
 10 17  1  0
 10 11  2  0
 13 12  1  0
 14 13  1  0
 14 15  1  6
 16 14  1  0
 16 17  1  6
 18 16  1  0
 18 19  2  0
 21 20  1  6
 21 23  1  0
 22 21  1  0
 24 23  1  6
 24 25  1  0
 25 18  1  0
 26 27  1  0
 26 24  1  0
 28 26  2  0
M  END
$$$$
