FIL.pdb
     RDKit          3D

 28 28  0  0  1  0  0  0  0  0999 V2000
   27.7134  -18.9713  -16.7155 N   0  0  0  0  0  0  0  0  0  0  0  0
   27.2763  -18.5159  -15.4246 C   0  0  1  0  0  0  0  0  0  0  0  0
   26.1431  -17.5165  -15.5025 C   0  0  0  0  0  0  0  0  0  0  0  0
   26.5702  -16.2588  -16.1409 C   0  0  0  0  0  0  0  0  0  0  0  0
   26.2358  -15.9702  -17.4687 C   0  0  0  0  0  0  0  0  0  0  0  0
   26.6524  -14.7805  -18.0382 C   0  0  0  0  0  0  0  0  0  0  0  0
   27.3965  -13.8616  -17.3245 C   0  0  0  0  0  0  0  0  0  0  0  0
   27.7116  -14.1758  -16.0129 C   0  0  0  0  0  0  0  0  0  0  0  0
   27.3136  -15.3476  -15.4182 C   0  0  0  0  0  0  0  0  0  0  0  0
   26.9295  -19.6207  -14.5191 C   0  0  0  0  0  0  0  0  0  0  0  0
   26.4056  -20.6933  -14.9756 O   0  0  0  0  0  0  0  0  0  0  0  0
   30.3066  -21.3242  -10.8964 C   0  0  0  0  0  0  0  0  0  0  0  0
   29.1601  -21.3307  -11.8806 C   0  0  0  0  0  0  0  0  0  0  0  0
   27.8737  -20.8360  -11.2283 C   0  0  2  0  0  0  0  0  0  0  0  0
   27.4895  -21.9092  -10.2386 C   0  0  0  0  0  0  0  0  0  0  0  0
   26.7895  -20.6509  -12.2712 C   0  0  2  0  0  0  0  0  0  0  0  0
   27.1757  -19.4994  -13.1335 N   0  0  0  0  0  0  0  0  0  0  0  0
   25.5541  -20.1829  -11.5966 C   0  0  0  0  0  0  0  0  0  0  0  0
   25.3885  -18.9398  -11.2940 O   0  0  0  0  0  0  0  0  0  0  0  0
   20.4487  -21.0252  -12.9029 C   0  0  0  0  0  0  0  0  0  0  0  0
   21.4220  -19.8951  -13.2471 C   0  0  2  0  0  0  0  0  0  0  0  0
   21.2063  -19.3488  -14.6180 C   0  0  0  0  0  0  0  0  0  0  0  0
   22.8261  -20.2053  -12.8789 C   0  0  0  0  0  0  0  0  0  0  0  0
   23.0700  -20.6966  -11.4932 C   0  0  2  0  0  0  0  0  0  0  0  0
   24.4596  -21.0017  -11.2241 N   0  0  0  0  0  0  0  0  0  0  0  0
   22.1860  -21.7860  -11.0566 C   0  0  0  0  0  0  0  0  0  0  0  0
   21.0173  -21.5831  -10.3417 O   0  0  0  0  0  0  0  0  0  0  0  0
   22.4760  -22.9777  -11.3292 O   0  0  0  0  0  0  0  0  0  0  0  0
  2  1  1  6
  2  3  1  0
  2 10  1  0
  3  4  1  0
  4  9  2  0
  5  4  1  0
  5  6  2  0
  6  7  1  0
  7  8  2  0
  9  8  1  0
 10 17  1  0
 10 11  2  0
 13 12  1  0
 14 13  1  0
 14 15  1  1
 16 14  1  0
 16 17  1  6
 18 16  1  0
 18 19  2  0
 21 20  1  6
 21 23  1  0
 22 21  1  0
 24 23  1  6
 24 25  1  0
 25 18  1  0
 26 27  1  0
 26 24  1  0
 28 26  2  0
M  END
$$$$
