FIL.pdb
     RDKit          3D

 28 28  0  0  1  0  0  0  0  0999 V2000
   23.3115  -21.4139  -17.5574 N   0  0  0  0  0  0  0  0  0  0  0  0
   23.6374  -20.3818  -16.6122 C   0  0  1  0  0  0  0  0  0  0  0  0
   22.4160  -19.6925  -16.0444 C   0  0  0  0  0  0  0  0  0  0  0  0
   21.6894  -18.9346  -17.0785 C   0  0  0  0  0  0  0  0  0  0  0  0
   20.4546  -19.3760  -17.5670 C   0  0  0  0  0  0  0  0  0  0  0  0
   19.7985  -18.6412  -18.5380 C   0  0  0  0  0  0  0  0  0  0  0  0
   20.3346  -17.4727  -19.0426 C   0  0  0  0  0  0  0  0  0  0  0  0
   21.5578  -17.0620  -18.5393 C   0  0  0  0  0  0  0  0  0  0  0  0
   22.2347  -17.7681  -17.5758 C   0  0  0  0  0  0  0  0  0  0  0  0
   24.5122  -20.8567  -15.5305 C   0  0  0  0  0  0  0  0  0  0  0  0
   24.3896  -22.0428  -15.0707 O   0  0  0  0  0  0  0  0  0  0  0  0
   29.0969  -21.8103  -13.1662 C   0  0  0  0  0  0  0  0  0  0  0  0
   28.7018  -20.3609  -13.0040 C   0  0  0  0  0  0  0  0  0  0  0  0
   27.7636  -19.9191  -14.1218 C   0  0  2  0  0  0  0  0  0  0  0  0
   27.6622  -18.4189  -13.9886 C   0  0  0  0  0  0  0  0  0  0  0  0
   26.4038  -20.5684  -13.9580 C   0  0  2  0  0  0  0  0  0  0  0  0
   25.4968  -19.9983  -14.9928 N   0  0  0  0  0  0  0  0  0  0  0  0
   25.8072  -20.1094  -12.6798 C   0  0  0  0  0  0  0  0  0  0  0  0
   25.4867  -18.8730  -12.4985 O   0  0  0  0  0  0  0  0  0  0  0  0
   22.1825  -19.8208  -11.4245 C   0  0  0  0  0  0  0  0  0  0  0  0
   22.5856  -21.2224  -10.9596 C   0  0  2  0  0  0  0  0  0  0  0  0
   21.4096  -22.0803  -10.6351 C   0  0  0  0  0  0  0  0  0  0  0  0
   23.6831  -21.2097   -9.9602 C   0  0  0  0  0  0  0  0  0  0  0  0
   24.9245  -20.4713  -10.3271 C   0  0  2  0  0  0  0  0  0  0  0  0
   25.5280  -20.9315  -11.5603 N   0  0  0  0  0  0  0  0  0  0  0  0
   25.9192  -20.3570   -9.2517 C   0  0  0  0  0  0  0  0  0  0  0  0
   25.7614  -19.5360   -8.1475 O   0  0  0  0  0  0  0  0  0  0  0  0
   26.9815  -21.0258   -9.3050 O   0  0  0  0  0  0  0  0  0  0  0  0
  2  1  1  1
  2  3  1  0
  2 10  1  0
  3  4  1  0
  4  9  2  0
  5  4  1  0
  5  6  2  0
  6  7  1  0
  7  8  2  0
  9  8  1  0
 10 17  1  0
 10 11  2  0
 13 12  1  0
 14 13  1  0
 14 15  1  1
 16 14  1  0
 16 17  1  6
 18 16  1  0
 18 19  2  0
 21 20  1  1
 21 23  1  0
 22 21  1  0
 24 23  1  1
 24 25  1  0
 25 18  1  0
 26 27  1  0
 26 24  1  0
 28 26  2  0
M  END
$$$$
