FIL.pdb
     RDKit          3D

 28 28  0  0  1  0  0  0  0  0999 V2000
   16.9536   -8.8719  -11.5988 N   0  0  0  0  0  0  0  0  0  0  0  0
   17.3679   -8.7717  -12.9710 C   0  0  1  0  0  0  0  0  0  0  0  0
   16.2862   -8.2259  -13.8772 C   0  0  0  0  0  0  0  0  0  0  0  0
   15.1689   -9.1756  -14.0232 C   0  0  0  0  0  0  0  0  0  0  0  0
   15.2784  -10.3022  -14.8462 C   0  0  0  0  0  0  0  0  0  0  0  0
   14.2108  -11.1741  -14.9613 C   0  0  0  0  0  0  0  0  0  0  0  0
   13.0289  -10.9604  -14.2795 C   0  0  0  0  0  0  0  0  0  0  0  0
   12.9513   -9.8370  -13.4732 C   0  0  0  0  0  0  0  0  0  0  0  0
   13.9922   -8.9521  -13.3371 C   0  0  0  0  0  0  0  0  0  0  0  0
   18.6132   -8.0078  -13.1349 C   0  0  0  0  0  0  0  0  0  0  0  0
   18.9018   -7.0577  -12.3303 O   0  0  0  0  0  0  0  0  0  0  0  0
   23.1146  -10.5875  -14.2827 C   0  0  0  0  0  0  0  0  0  0  0  0
   22.1293   -9.5766  -13.7441 C   0  0  0  0  0  0  0  0  0  0  0  0
   21.8544   -8.4792  -14.7664 C   0  0  2  0  0  0  0  0  0  0  0  0
   23.1630   -7.7433  -14.9242 C   0  0  0  0  0  0  0  0  0  0  0  0
   20.7691   -7.5482  -14.2636 C   0  0  2  0  0  0  0  0  0  0  0  0
   19.4997   -8.3235  -14.1883 N   0  0  0  0  0  0  0  0  0  0  0  0
   20.4945   -6.5293  -15.3062 C   0  0  0  0  0  0  0  0  0  0  0  0
   19.7922   -6.8145  -16.3500 O   0  0  0  0  0  0  0  0  0  0  0  0
   18.1839   -3.9629  -18.1299 C   0  0  0  0  0  0  0  0  0  0  0  0
   17.9295   -4.5700  -16.7480 C   0  0  2  0  0  0  0  0  0  0  0  0
   16.4788   -4.6395  -16.4093 C   0  0  0  0  0  0  0  0  0  0  0  0
   18.8219   -4.0183  -15.6979 C   0  0  0  0  0  0  0  0  0  0  0  0
   20.2887   -4.0830  -15.9532 C   0  0  2  0  0  0  0  0  0  0  0  0
   20.9444   -5.1861  -15.2824 N   0  0  0  0  0  0  0  0  0  0  0  0
   21.0112   -2.8207  -15.7441 C   0  0  0  0  0  0  0  0  0  0  0  0
   22.0561   -2.6768  -14.8466 O   0  0  0  0  0  0  0  0  0  0  0  0
   20.6896   -1.7972  -16.3980 O   0  0  0  0  0  0  0  0  0  0  0  0
  2  1  1  1
  2  3  1  0
  2 10  1  0
  3  4  1  0
  4  9  2  0
  5  4  1  0
  5  6  2  0
  6  7  1  0
  7  8  2  0
  9  8  1  0
 10 17  1  0
 10 11  2  0
 13 12  1  0
 14 13  1  0
 14 15  1  1
 16 14  1  0
 16 17  1  6
 18 16  1  0
 18 19  2  0
 21 20  1  6
 21 23  1  0
 22 21  1  0
 24 23  1  1
 24 25  1  0
 25 18  1  0
 26 27  1  0
 26 24  1  0
 28 26  2  0
M  END
$$$$
