FIL.pdb
     RDKit          3D

 28 28  0  0  1  0  0  0  0  0999 V2000
   21.3160  -19.5556  -12.2394 N   0  0  0  0  0  0  0  0  0  0  0  0
   22.6015  -19.7696  -12.8447 C   0  0  1  0  0  0  0  0  0  0  0  0
   23.1584  -21.1509  -12.5780 C   0  0  0  0  0  0  0  0  0  0  0  0
   23.6584  -21.2784  -11.1976 C   0  0  0  0  0  0  0  0  0  0  0  0
   22.7791  -21.4331  -10.1199 C   0  0  0  0  0  0  0  0  0  0  0  0
   23.2810  -21.5500   -8.8363 C   0  0  0  0  0  0  0  0  0  0  0  0
   24.6392  -21.5177   -8.5878 C   0  0  0  0  0  0  0  0  0  0  0  0
   25.4836  -21.3634   -9.6747 C   0  0  0  0  0  0  0  0  0  0  0  0
   25.0178  -21.2447  -10.9608 C   0  0  0  0  0  0  0  0  0  0  0  0
   22.6070  -19.4798  -14.2859 C   0  0  0  0  0  0  0  0  0  0  0  0
   21.5145  -19.2350  -14.9023 O   0  0  0  0  0  0  0  0  0  0  0  0
   27.2380  -16.1014  -16.1373 C   0  0  0  0  0  0  0  0  0  0  0  0
   25.8854  -16.6705  -16.4976 C   0  0  0  0  0  0  0  0  0  0  0  0
   25.4552  -17.7384  -15.4979 C   0  0  2  0  0  0  0  0  0  0  0  0
   26.5149  -18.8106  -15.5779 C   0  0  0  0  0  0  0  0  0  0  0  0
   24.0956  -18.2949  -15.8713 C   0  0  2  0  0  0  0  0  0  0  0  0
   23.8269  -19.4711  -14.9979 N   0  0  0  0  0  0  0  0  0  0  0  0
   24.1778  -18.8815  -17.2313 C   0  0  0  0  0  0  0  0  0  0  0  0
   24.8518  -19.9585  -17.4543 O   0  0  0  0  0  0  0  0  0  0  0  0
   20.8011  -18.3777  -20.4348 C   0  0  0  0  0  0  0  0  0  0  0  0
   21.9166  -17.3469  -20.6242 C   0  0  2  0  0  0  0  0  0  0  0  0
   21.5522  -16.2788  -21.5992 C   0  0  0  0  0  0  0  0  0  0  0  0
   23.2549  -17.9647  -20.7990 C   0  0  0  0  0  0  0  0  0  0  0  0
   23.7178  -18.8919  -19.7280 C   0  0  2  0  0  0  0  0  0  0  0  0
   23.5551  -18.3589  -18.3915 N   0  0  0  0  0  0  0  0  0  0  0  0
   25.0645  -19.4453  -19.9258 C   0  0  0  0  0  0  0  0  0  0  0  0
   26.2205  -18.8200  -19.4888 O   0  0  0  0  0  0  0  0  0  0  0  0
   25.2116  -20.5428  -20.5195 O   0  0  0  0  0  0  0  0  0  0  0  0
  2  1  1  6
  2  3  1  0
  2 10  1  0
  3  4  1  0
  4  9  2  0
  5  4  1  0
  5  6  2  0
  6  7  1  0
  7  8  2  0
  9  8  1  0
 10 17  1  0
 10 11  2  0
 13 12  1  0
 14 13  1  0
 14 15  1  6
 16 14  1  0
 16 17  1  1
 18 16  1  0
 18 19  2  0
 21 20  1  6
 21 23  1  0
 22 21  1  0
 24 23  1  6
 24 25  1  0
 25 18  1  0
 26 27  1  0
 26 24  1  0
 28 26  2  0
M  END
$$$$
