FIL.pdb
     RDKit          3D

 28 28  0  0  1  0  0  0  0  0999 V2000
   19.4325  -18.6929   -1.1021 N   0  0  0  0  0  0  0  0  0  0  0  0
   19.6936  -19.0797    0.2570 C   0  0  1  0  0  0  0  0  0  0  0  0
   21.0085  -18.5460    0.7817 C   0  0  0  0  0  0  0  0  0  0  0  0
   22.0951  -18.7175   -0.1989 C   0  0  0  0  0  0  0  0  0  0  0  0
   22.4792  -19.9889   -0.6398 C   0  0  0  0  0  0  0  0  0  0  0  0
   23.5031  -20.1153   -1.5611 C   0  0  0  0  0  0  0  0  0  0  0  0
   24.1624  -19.0099   -2.0620 C   0  0  0  0  0  0  0  0  0  0  0  0
   23.7596  -17.7655   -1.6065 C   0  0  0  0  0  0  0  0  0  0  0  0
   22.7472  -17.6057   -0.6929 C   0  0  0  0  0  0  0  0  0  0  0  0
   18.5942  -18.7318    1.1686 C   0  0  0  0  0  0  0  0  0  0  0  0
   17.7982  -17.7720    0.8881 O   0  0  0  0  0  0  0  0  0  0  0  0
   17.2906  -22.4501    3.2173 C   0  0  0  0  0  0  0  0  0  0  0  0
   16.3224  -21.3351    3.5375 C   0  0  0  0  0  0  0  0  0  0  0  0
   17.0300  -20.1755    4.2301 C   0  0  2  0  0  0  0  0  0  0  0  0
   16.0898  -19.7299    5.3239 C   0  0  0  0  0  0  0  0  0  0  0  0
   17.2865  -19.0501    3.2476 C   0  0  2  0  0  0  0  0  0  0  0  0
   18.4131  -19.4614    2.3644 N   0  0  0  0  0  0  0  0  0  0  0  0
   17.8307  -17.8857    3.9881 C   0  0  0  0  0  0  0  0  0  0  0  0
   19.0629  -17.8528    4.3685 O   0  0  0  0  0  0  0  0  0  0  0  0
   17.3078  -11.8071    4.3231 C   0  0  0  0  0  0  0  0  0  0  0  0
   18.0022  -13.0574    4.8687 C   0  0  2  0  0  0  0  0  0  0  0  0
   19.4789  -12.8878    4.9893 C   0  0  0  0  0  0  0  0  0  0  0  0
   17.5372  -14.3095    4.2210 C   0  0  0  0  0  0  0  0  0  0  0  0
   17.6645  -15.5675    5.0098 C   0  0  2  0  0  0  0  0  0  0  0  0
   17.1015  -16.7252    4.3469 N   0  0  0  0  0  0  0  0  0  0  0  0
   17.2122  -15.4738    6.4047 C   0  0  0  0  0  0  0  0  0  0  0  0
   18.0172  -15.0336    7.4421 O   0  0  0  0  0  0  0  0  0  0  0  0
   16.0381  -15.8028    6.7077 O   0  0  0  0  0  0  0  0  0  0  0  0
  2  1  1  6
  2  3  1  0
  2 10  1  0
  3  4  1  0
  4  9  2  0
  5  4  1  0
  5  6  2  0
  6  7  1  0
  7  8  2  0
  9  8  1  0
 10 17  1  0
 10 11  2  0
 13 12  1  0
 14 13  1  0
 14 15  1  1
 16 14  1  0
 16 17  1  6
 18 16  1  0
 18 19  2  0
 21 20  1  6
 21 23  1  0
 22 21  1  0
 24 23  1  6
 24 25  1  0
 25 18  1  0
 26 27  1  0
 26 24  1  0
 28 26  2  0
M  END
$$$$
