FIL.pdb
     RDKit          3D

 28 28  0  0  1  0  0  0  0  0999 V2000
   28.6966  -20.9385  -14.7598 N   0  0  0  0  0  0  0  0  0  0  0  0
   28.8900  -20.9692  -13.3363 C   0  0  1  0  0  0  0  0  0  0  0  0
   30.2232  -20.3961  -12.9080 C   0  0  0  0  0  0  0  0  0  0  0  0
   31.2400  -21.4499  -12.7424 C   0  0  0  0  0  0  0  0  0  0  0  0
   31.5728  -21.9431  -11.4757 C   0  0  0  0  0  0  0  0  0  0  0  0
   32.5317  -22.9325  -11.3549 C   0  0  0  0  0  0  0  0  0  0  0  0
   33.1754  -23.4512  -12.4612 C   0  0  0  0  0  0  0  0  0  0  0  0
   32.8245  -22.9428  -13.7008 C   0  0  0  0  0  0  0  0  0  0  0  0
   31.8771  -21.9611  -13.8551 C   0  0  0  0  0  0  0  0  0  0  0  0
   27.7914  -20.3286  -12.5990 C   0  0  0  0  0  0  0  0  0  0  0  0
   27.5521  -19.0818  -12.7459 O   0  0  0  0  0  0  0  0  0  0  0  0
   22.9245  -21.0663  -13.1686 C   0  0  0  0  0  0  0  0  0  0  0  0
   24.2591  -20.4971  -12.7468 C   0  0  0  0  0  0  0  0  0  0  0  0
   24.6035  -20.9055  -11.3186 C   0  0  2  0  0  0  0  0  0  0  0  0
   23.5185  -20.3040  -10.4585 C   0  0  0  0  0  0  0  0  0  0  0  0
   25.9642  -20.3641  -10.9276 C   0  0  2  0  0  0  0  0  0  0  0  0
   26.9923  -21.0937  -11.7207 N   0  0  0  0  0  0  0  0  0  0  0  0
   26.2529  -20.7652   -9.5289 C   0  0  0  0  0  0  0  0  0  0  0  0
   26.1502  -21.9947   -9.1522 O   0  0  0  0  0  0  0  0  0  0  0  0
   26.8781  -19.8040   -4.1952 C   0  0  0  0  0  0  0  0  0  0  0  0
   28.1684  -19.6367   -5.0014 C   0  0  2  0  0  0  0  0  0  0  0  0
   29.1499  -18.7339   -4.3338 C   0  0  0  0  0  0  0  0  0  0  0  0
   27.9238  -19.3865   -6.4439 C   0  0  0  0  0  0  0  0  0  0  0  0
   26.9810  -20.3067   -7.1404 C   0  0  2  0  0  0  0  0  0  0  0  0
   26.6590  -19.8920   -8.4899 N   0  0  0  0  0  0  0  0  0  0  0  0
   25.7710  -20.6478   -6.3796 C   0  0  0  0  0  0  0  0  0  0  0  0
   25.6736  -21.7547   -5.5529 O   0  0  0  0  0  0  0  0  0  0  0  0
   24.7517  -19.9177   -6.4604 O   0  0  0  0  0  0  0  0  0  0  0  0
  2  1  1  6
  2  3  1  0
  2 10  1  0
  3  4  1  0
  4  9  2  0
  5  4  1  0
  5  6  2  0
  6  7  1  0
  7  8  2  0
  9  8  1  0
 10 17  1  0
 10 11  2  0
 13 12  1  0
 14 13  1  0
 14 15  1  1
 16 14  1  0
 16 17  1  6
 18 16  1  0
 18 19  2  0
 21 20  1  1
 21 23  1  0
 22 21  1  0
 24 23  1  1
 24 25  1  0
 25 18  1  0
 26 27  1  0
 26 24  1  0
 28 26  2  0
M  END
$$$$
