VYC.pdb
     RDKit          3D

 26 26  0  0  1  0  0  0  0  0999 V2000
   10.4200  -20.5875   21.0227 C   0  0  0  0  0  0  0  0  0  0  0  0
    8.9550  -20.3232   20.7476 C   0  0  2  0  0  0  0  0  0  0  0  0
    8.5555  -21.2242   19.5946 C   0  0  0  0  0  0  0  0  0  0  0  0
    8.7615  -18.9063   20.3169 C   0  0  2  0  0  0  0  0  0  0  0  0
    9.5846  -18.6779   19.1480 N   0  0  0  0  0  0  0  0  0  0  0  0
    9.0395  -17.8975   21.3208 C   0  0  0  0  0  0  0  0  0  0  0  0
   10.2072  -17.4336   21.4055 O   0  0  0  0  0  0  0  0  0  0  0  0
    7.8111  -12.1859   18.4830 O   0  0  0  0  0  0  0  0  0  0  0  0
    7.7824  -12.9346   19.6741 C   0  0  0  0  0  0  0  0  0  0  0  0
    6.8113  -13.8896   19.8585 C   0  0  0  0  0  0  0  0  0  0  0  0
    6.7875  -14.6303   21.0434 C   0  0  0  0  0  0  0  0  0  0  0  0
    7.7208  -14.4210   22.0321 C   0  0  0  0  0  0  0  0  0  0  0  0
    7.7218  -15.1722   23.2696 C   0  0  0  0  0  0  0  0  0  0  0  0
    8.4768  -16.4612   23.2568 C   0  0  2  0  0  0  0  0  0  0  0  0
    8.0896  -17.3724   22.2400 N   0  0  0  0  0  0  0  0  0  0  0  0
    8.3245  -17.0551   24.6385 C   0  0  0  0  0  0  0  0  0  0  0  0
    7.2697  -17.6538   24.9394 O   0  0  0  0  0  0  0  0  0  0  0  0
    8.6793  -13.4564   21.8139 C   0  0  0  0  0  0  0  0  0  0  0  0
    8.7262  -12.7063   20.6466 C   0  0  0  0  0  0  0  0  0  0  0  0
    9.3512  -16.9510   25.6078 N   0  0  0  0  0  0  0  0  0  0  0  0
    9.7513  -17.9518   26.5576 C   0  0  1  0  0  0  0  0  0  0  0  0
    9.8750  -19.3333   26.0225 C   0  0  0  0  0  0  0  0  0  0  0  0
    9.6915  -20.4949   27.4170 S   0  0  0  0  0  0  0  0  0  0  0  0
   10.9032  -17.5617   27.4209 C   0  0  0  0  0  0  0  0  0  0  0  0
   11.8207  -16.8697   26.9550 O   0  0  0  0  0  0  0  0  0  0  0  0
   10.9842  -17.9527   28.7476 O   0  0  0  0  0  0  0  0  0  0  0  0
  2  1  1  6
  2  4  1  0
  3  2  1  0
  4  6  1  0
  4  5  1  6
  6  7  2  0
  9  8  1  0
  9 19  2  0
 10  9  1  0
 11 10  2  0
 11 12  1  0
 12 18  2  0
 14 13  1  1
 13 12  1  0
 15 14  1  0
 15  6  1  0
 16 17  2  0
 16 14  1  0
 18 19  1  0
 20 16  1  0
 21 24  1  0
 21 20  1  0
 21 22  1  6
 23 22  1  0
 24 26  1  0
 25 24  2  0
M  END
$$$$
