VYC.pdb
     RDKit          3D

 26 26  0  0  1  0  0  0  0  0999 V2000
    6.8721  -14.7567   18.2498 C   0  0  0  0  0  0  0  0  0  0  0  0
    7.5729  -14.9136   19.5826 C   0  0  2  0  0  0  0  0  0  0  0  0
    6.8368  -16.0024   20.3397 C   0  0  0  0  0  0  0  0  0  0  0  0
    7.4668  -13.6490   20.3699 C   0  0  2  0  0  0  0  0  0  0  0  0
    7.9888  -12.5709   19.5566 N   0  0  0  0  0  0  0  0  0  0  0  0
    8.1225  -13.6533   21.6632 C   0  0  0  0  0  0  0  0  0  0  0  0
    9.3517  -13.3852   21.7195 O   0  0  0  0  0  0  0  0  0  0  0  0
   10.2266  -14.4920   30.2186 O   0  0  0  0  0  0  0  0  0  0  0  0
    9.5332  -14.3257   29.0054 C   0  0  0  0  0  0  0  0  0  0  0  0
    8.9989  -15.4196   28.3675 C   0  0  0  0  0  0  0  0  0  0  0  0
    8.3112  -15.2487   27.1629 C   0  0  0  0  0  0  0  0  0  0  0  0
    8.1585  -14.0020   26.6016 C   0  0  0  0  0  0  0  0  0  0  0  0
    7.4517  -13.7936   25.3555 C   0  0  0  0  0  0  0  0  0  0  0  0
    8.2339  -14.0370   24.1062 C   0  0  2  0  0  0  0  0  0  0  0  0
    7.4874  -13.9397   22.9032 N   0  0  0  0  0  0  0  0  0  0  0  0
    8.8764  -15.3958   24.2665 C   0  0  0  0  0  0  0  0  0  0  0  0
    9.6735  -15.5936   25.2084 O   0  0  0  0  0  0  0  0  0  0  0  0
    8.7066  -12.9285   27.2677 C   0  0  0  0  0  0  0  0  0  0  0  0
    9.3944  -13.0696   28.4654 C   0  0  0  0  0  0  0  0  0  0  0  0
    8.5980  -16.4579   23.3728 N   0  0  0  0  0  0  0  0  0  0  0  0
    9.1230  -17.7942   23.4241 C   0  0  1  0  0  0  0  0  0  0  0  0
    8.1222  -18.8843   23.2820 C   0  0  0  0  0  0  0  0  0  0  0  0
    6.7876  -18.5830   24.4885 S   0  0  0  0  0  0  0  0  0  0  0  0
   10.3394  -18.0146   22.5897 C   0  0  0  0  0  0  0  0  0  0  0  0
   10.8896  -19.1258   22.5771 O   0  0  0  0  0  0  0  0  0  0  0  0
   10.8844  -17.0031   21.8154 O   0  0  0  0  0  0  0  0  0  0  0  0
  2  1  1  6
  2  4  1  0
  3  2  1  0
  4  6  1  0
  4  5  1  6
  6  7  2  0
  9  8  1  0
  9 19  2  0
 10  9  1  0
 11 10  2  0
 11 12  1  0
 12 18  2  0
 14 13  1  1
 13 12  1  0
 15 14  1  0
 15  6  1  0
 16 17  2  0
 16 14  1  0
 18 19  1  0
 20 16  1  0
 21 24  1  0
 21 20  1  0
 21 22  1  6
 23 22  1  0
 24 26  1  0
 25 24  2  0
M  END
$$$$
