VYC.pdb
     RDKit          3D

 26 26  0  0  1  0  0  0  0  0999 V2000
    7.1622  -13.2038   18.6331 C   0  0  0  0  0  0  0  0  0  0  0  0
    8.2894  -13.9995   19.2560 C   0  0  2  0  0  0  0  0  0  0  0  0
    8.8454  -13.1591   20.3896 C   0  0  0  0  0  0  0  0  0  0  0  0
    9.3802  -14.2113   18.2581 C   0  0  2  0  0  0  0  0  0  0  0  0
    8.8140  -14.8970   17.1155 N   0  0  0  0  0  0  0  0  0  0  0  0
   10.5443  -14.9305   18.7379 C   0  0  0  0  0  0  0  0  0  0  0  0
   10.5009  -16.1881   18.7873 O   0  0  0  0  0  0  0  0  0  0  0  0
   16.7638  -14.9822   14.7963 O   0  0  0  0  0  0  0  0  0  0  0  0
   16.1087  -14.8751   16.0371 C   0  0  0  0  0  0  0  0  0  0  0  0
   15.8829  -16.0019   16.7910 C   0  0  0  0  0  0  0  0  0  0  0  0
   15.2318  -15.8898   18.0224 C   0  0  0  0  0  0  0  0  0  0  0  0
   14.8111  -14.6687   18.4961 C   0  0  0  0  0  0  0  0  0  0  0  0
   14.1343  -14.5210   19.7674 C   0  0  0  0  0  0  0  0  0  0  0  0
   12.7523  -15.0825   19.8467 C   0  0  2  0  0  0  0  0  0  0  0  0
   11.7594  -14.3292   19.1679 N   0  0  0  0  0  0  0  0  0  0  0  0
   12.4409  -15.2354   21.3180 C   0  0  0  0  0  0  0  0  0  0  0  0
   11.9294  -14.2813   21.9423 O   0  0  0  0  0  0  0  0  0  0  0  0
   15.0537  -13.5607   17.7149 C   0  0  0  0  0  0  0  0  0  0  0  0
   15.6982  -13.6435   16.4880 C   0  0  0  0  0  0  0  0  0  0  0  0
   12.7147  -16.4381   22.0130 N   0  0  0  0  0  0  0  0  0  0  0  0
   12.1420  -16.8694   23.2579 C   0  0  1  0  0  0  0  0  0  0  0  0
   10.6569  -16.9246   23.2976 C   0  0  0  0  0  0  0  0  0  0  0  0
   10.1547  -17.3269   25.0046 S   0  0  0  0  0  0  0  0  0  0  0  0
   12.7809  -18.0815   23.8470 C   0  0  0  0  0  0  0  0  0  0  0  0
   12.6150  -18.3488   25.0465 O   0  0  0  0  0  0  0  0  0  0  0  0
   13.5665  -18.9328   23.0870 O   0  0  0  0  0  0  0  0  0  0  0  0
  2  1  1  6
  2  4  1  0
  3  2  1  0
  4  6  1  0
  4  5  1  6
  6  7  2  0
  9  8  1  0
  9 19  2  0
 10  9  1  0
 11 10  2  0
 11 12  1  0
 12 18  2  0
 14 13  1  1
 13 12  1  0
 15 14  1  0
 15  6  1  0
 16 17  2  0
 16 14  1  0
 18 19  1  0
 20 16  1  0
 21 24  1  0
 21 20  1  0
 21 22  1  6
 23 22  1  0
 24 26  1  0
 25 24  2  0
M  END
$$$$
