VYC.pdb
     RDKit          3D

 26 26  0  0  1  0  0  0  0  0999 V2000
    4.4082  -19.6547   23.0610 C   0  0  0  0  0  0  0  0  0  0  0  0
    3.8534  -18.4625   22.3109 C   0  0  2  0  0  0  0  0  0  0  0  0
    2.5797  -18.9263   21.6303 C   0  0  0  0  0  0  0  0  0  0  0  0
    4.8138  -18.0306   21.2519 C   0  0  2  0  0  0  0  0  0  0  0  0
    5.0726  -19.1667   20.3926 N   0  0  0  0  0  0  0  0  0  0  0  0
    6.0667  -17.4740   21.7244 C   0  0  0  0  0  0  0  0  0  0  0  0
    7.0569  -18.2405   21.8591 O   0  0  0  0  0  0  0  0  0  0  0  0
    8.7603  -12.7559   16.9261 O   0  0  0  0  0  0  0  0  0  0  0  0
    8.5207  -13.1152   18.2654 C   0  0  0  0  0  0  0  0  0  0  0  0
    7.3680  -12.7009   18.8891 C   0  0  0  0  0  0  0  0  0  0  0  0
    7.1352  -13.0607   20.2193 C   0  0  0  0  0  0  0  0  0  0  0  0
    8.0409  -13.8242   20.9187 C   0  0  0  0  0  0  0  0  0  0  0  0
    7.8274  -14.2125   22.2970 C   0  0  0  0  0  0  0  0  0  0  0  0
    7.5410  -15.6589   22.5367 C   0  0  2  0  0  0  0  0  0  0  0  0
    6.2831  -16.1083   22.0572 N   0  0  0  0  0  0  0  0  0  0  0  0
    7.6927  -15.8800   24.0243 C   0  0  0  0  0  0  0  0  0  0  0  0
    6.9503  -15.2632   24.8181 O   0  0  0  0  0  0  0  0  0  0  0  0
    9.1848  -14.2217   20.2628 C   0  0  0  0  0  0  0  0  0  0  0  0
    9.4412  -13.8787   18.9423 C   0  0  0  0  0  0  0  0  0  0  0  0
    8.6593  -16.7728   24.5467 N   0  0  0  0  0  0  0  0  0  0  0  0
    9.0107  -16.9592   25.9272 C   0  0  1  0  0  0  0  0  0  0  0  0
    8.1394  -17.8894   26.6925 C   0  0  0  0  0  0  0  0  0  0  0  0
    6.6486  -18.2144   25.6926 S   0  0  0  0  0  0  0  0  0  0  0  0
   10.4629  -17.1964   26.1704 C   0  0  0  0  0  0  0  0  0  0  0  0
   10.8846  -17.3241   27.3296 O   0  0  0  0  0  0  0  0  0  0  0  0
   11.3717  -17.2802   25.1280 O   0  0  0  0  0  0  0  0  0  0  0  0
  2  1  1  6
  2  4  1  0
  3  2  1  0
  4  6  1  0
  4  5  1  6
  6  7  2  0
  9  8  1  0
  9 19  2  0
 10  9  1  0
 11 10  2  0
 11 12  1  0
 12 18  2  0
 14 13  1  1
 13 12  1  0
 15 14  1  0
 15  6  1  0
 16 17  2  0
 16 14  1  0
 18 19  1  0
 20 16  1  0
 21 24  1  0
 21 20  1  0
 21 22  1  6
 23 22  1  0
 24 26  1  0
 25 24  2  0
M  END
$$$$
