VYC.pdb
     RDKit          3D

 26 26  0  0  1  0  0  0  0  0999 V2000
    8.1418  -16.0818   19.8400 C   0  0  0  0  0  0  0  0  0  0  0  0
    7.0393  -15.1427   20.2809 C   0  0  2  0  0  0  0  0  0  0  0  0
    6.2995  -14.7157   19.0275 C   0  0  0  0  0  0  0  0  0  0  0  0
    7.6263  -13.9225   20.9108 C   0  0  2  0  0  0  0  0  0  0  0  0
    8.4551  -13.2640   19.9231 N   0  0  0  0  0  0  0  0  0  0  0  0
    8.3871  -14.1426   22.1256 C   0  0  0  0  0  0  0  0  0  0  0  0
    9.6413  -14.2252   22.0476 O   0  0  0  0  0  0  0  0  0  0  0  0
   11.0997  -15.4718   30.4418 O   0  0  0  0  0  0  0  0  0  0  0  0
   10.3271  -15.1757   29.3035 C   0  0  0  0  0  0  0  0  0  0  0  0
    9.5321  -16.1477   28.7447 C   0  0  0  0  0  0  0  0  0  0  0  0
    8.7669  -15.8482   27.6143 C   0  0  0  0  0  0  0  0  0  0  0  0
    8.7943  -14.5946   27.0483 C   0  0  0  0  0  0  0  0  0  0  0  0
    8.0131  -14.2546   25.8779 C   0  0  0  0  0  0  0  0  0  0  0  0
    8.6546  -14.5263   24.5564 C   0  0  2  0  0  0  0  0  0  0  0  0
    7.8311  -14.2766   23.4278 N   0  0  0  0  0  0  0  0  0  0  0  0
    9.1320  -15.9598   24.6039 C   0  0  0  0  0  0  0  0  0  0  0  0
    8.3191  -16.8873   24.4025 O   0  0  0  0  0  0  0  0  0  0  0  0
    9.6018  -13.6452   27.6342 C   0  0  0  0  0  0  0  0  0  0  0  0
   10.3721  -13.9156   28.7571 C   0  0  0  0  0  0  0  0  0  0  0  0
   10.4841  -16.2826   24.8723 N   0  0  0  0  0  0  0  0  0  0  0  0
   11.0977  -17.5792   24.7936 C   0  0  1  0  0  0  0  0  0  0  0  0
   11.5038  -18.0169   23.4320 C   0  0  0  0  0  0  0  0  0  0  0  0
   11.4040  -19.8374   23.3735 S   0  0  0  0  0  0  0  0  0  0  0  0
   12.1515  -17.8294   25.8188 C   0  0  0  0  0  0  0  0  0  0  0  0
   12.4870  -16.9239   26.5969 O   0  0  0  0  0  0  0  0  0  0  0  0
   12.7788  -19.0595   25.9333 O   0  0  0  0  0  0  0  0  0  0  0  0
  2  1  1  6
  2  4  1  0
  3  2  1  0
  4  6  1  0
  4  5  1  6
  6  7  2  0
  9  8  1  0
  9 19  2  0
 10  9  1  0
 11 10  2  0
 11 12  1  0
 12 18  2  0
 14 13  1  1
 13 12  1  0
 15 14  1  0
 15  6  1  0
 16 17  2  0
 16 14  1  0
 18 19  1  0
 20 16  1  0
 21 24  1  0
 21 20  1  0
 21 22  1  6
 23 22  1  0
 24 26  1  0
 25 24  2  0
M  END
$$$$
