VYC.pdb
     RDKit          3D

 26 26  0  0  1  0  0  0  0  0999 V2000
    6.8649  -12.9992   18.4599 C   0  0  0  0  0  0  0  0  0  0  0  0
    8.0659  -13.7019   19.0563 C   0  0  2  0  0  0  0  0  0  0  0  0
    8.8737  -12.6464   19.7869 C   0  0  0  0  0  0  0  0  0  0  0  0
    8.9196  -14.2695   17.9702 C   0  0  2  0  0  0  0  0  0  0  0  0
    8.1270  -15.2330   17.2357 N   0  0  0  0  0  0  0  0  0  0  0  0
   10.1642  -14.8783   18.3982 C   0  0  0  0  0  0  0  0  0  0  0  0
   10.1498  -16.0763   18.7864 O   0  0  0  0  0  0  0  0  0  0  0  0
   18.5538  -17.0613   20.0322 O   0  0  0  0  0  0  0  0  0  0  0  0
   17.3875  -16.3841   19.6304 C   0  0  0  0  0  0  0  0  0  0  0  0
   16.5563  -16.9502   18.6936 C   0  0  0  0  0  0  0  0  0  0  0  0
   15.3993  -16.2733   18.2982 C   0  0  0  0  0  0  0  0  0  0  0  0
   15.0755  -15.0469   18.8307 C   0  0  0  0  0  0  0  0  0  0  0  0
   13.8845  -14.3220   18.4411 C   0  0  0  0  0  0  0  0  0  0  0  0
   12.5852  -14.8876   18.9141 C   0  0  2  0  0  0  0  0  0  0  0  0
   11.4294  -14.2291   18.4195 N   0  0  0  0  0  0  0  0  0  0  0  0
   12.6424  -14.8747   20.4246 C   0  0  0  0  0  0  0  0  0  0  0  0
   12.2549  -13.8632   21.0476 O   0  0  0  0  0  0  0  0  0  0  0  0
   15.9308  -14.5094   19.7668 C   0  0  0  0  0  0  0  0  0  0  0  0
   17.0864  -15.1599   20.1775 C   0  0  0  0  0  0  0  0  0  0  0  0
   13.1264  -15.9849   21.1579 N   0  0  0  0  0  0  0  0  0  0  0  0
   12.7901  -16.3456   22.5072 C   0  0  1  0  0  0  0  0  0  0  0  0
   11.3365  -16.4359   22.8055 C   0  0  0  0  0  0  0  0  0  0  0  0
   11.1475  -16.7440   24.5936 S   0  0  0  0  0  0  0  0  0  0  0  0
   13.5641  -17.4983   23.0518 C   0  0  0  0  0  0  0  0  0  0  0  0
   14.0209  -18.3571   22.2827 O   0  0  0  0  0  0  0  0  0  0  0  0
   13.7937  -17.6445   24.4103 O   0  0  0  0  0  0  0  0  0  0  0  0
  2  1  1  6
  2  4  1  0
  3  2  1  0
  4  6  1  0
  4  5  1  1
  6  7  2  0
  9  8  1  0
  9 19  2  0
 10  9  1  0
 11 10  2  0
 11 12  1  0
 12 18  2  0
 14 13  1  6
 13 12  1  0
 15 14  1  0
 15  6  1  0
 16 17  2  0
 16 14  1  0
 18 19  1  0
 20 16  1  0
 21 24  1  0
 21 20  1  0
 21 22  1  6
 23 22  1  0
 24 26  1  0
 25 24  2  0
M  END
$$$$
