YEP.pdb
     RDKit          3D

 29 30  0  0  1  0  0  0  0  0999 V2000
   11.7014  -14.7895  -18.1626 O   0  0  0  0  0  0  0  0  0  0  0  0
   12.7837  -14.1205  -17.5759 C   0  0  0  0  0  0  0  0  0  0  0  0
   13.1808  -14.3546  -16.2860 C   0  0  0  0  0  0  0  0  0  0  0  0
   14.2576  -13.6688  -15.7478 C   0  0  0  0  0  0  0  0  0  0  0  0
   14.9664  -12.7304  -16.4843 C   0  0  0  0  0  0  0  0  0  0  0  0
   16.1247  -11.9869  -15.9181 C   0  0  0  0  0  0  0  0  0  0  0  0
   17.3707  -12.5865  -16.5207 C   0  0  2  0  0  0  0  0  0  0  0  0
   17.5298  -13.9094  -15.9805 N   0  0  0  0  0  0  0  0  0  0  0  0
   18.5845  -11.7775  -16.1865 C   0  0  0  0  0  0  0  0  0  0  0  0
   19.0201  -11.7513  -15.0068 O   0  0  0  0  0  0  0  0  0  0  0  0
   14.5313  -12.5237  -17.7858 C   0  0  0  0  0  0  0  0  0  0  0  0
   13.4626  -13.2020  -18.3254 C   0  0  0  0  0  0  0  0  0  0  0  0
   19.2159  -11.0544  -17.2258 N   0  0  0  0  0  0  0  0  0  0  0  0
   20.3848  -10.2206  -17.0092 C   0  0  1  0  0  0  0  0  0  0  0  0
   21.1238  -10.1894  -18.3322 C   0  0  0  0  0  0  0  0  0  0  0  0
   22.3885   -9.3707  -18.0899 C   0  0  0  0  0  0  0  0  0  0  0  0
   23.1431   -9.1834  -19.3597 C   0  0  0  0  0  0  0  0  0  0  0  0
   24.1534   -8.4404  -19.4122 O   0  0  0  0  0  0  0  0  0  0  0  0
   20.0170   -8.8876  -16.5007 C   0  0  0  0  0  0  0  0  0  0  0  0
   19.2109   -8.1601  -17.1787 O   0  0  0  0  0  0  0  0  0  0  0  0
   22.7434   -9.8296  -20.5180 O   0  0  0  0  0  0  0  0  0  0  0  0
   20.4939   -8.3244  -15.2846 N   0  0  0  0  0  0  0  0  0  0  0  0
   21.3138   -8.9414  -14.2634 C   0  0  0  0  0  0  0  0  0  0  0  0
   22.2636   -7.7878  -13.9078 C   0  0  0  0  0  0  0  0  0  0  0  0
   21.1876   -6.7158  -13.6499 C   0  0  0  0  0  0  0  0  0  0  0  0
   20.1943   -6.9798  -14.7856 C   0  0  1  0  0  0  0  0  0  0  0  0
   20.4191   -5.9358  -15.8028 C   0  0  0  0  0  0  0  0  0  0  0  0
   19.9646   -4.7891  -15.6209 O   0  0  0  0  0  0  0  0  0  0  0  0
   21.1255   -6.1979  -16.9599 O   0  0  0  0  0  0  0  0  0  0  0  0
  2  1  1  0
  2 12  2  0
  3  2  1  0
  4  3  2  0
  4  5  1  0
  5 11  2  0
  6  5  1  0
  7  9  1  0
  7  6  1  0
  7  8  1  1
  9 10  2  0
 11 12  1  0
 13 14  1  0
 13  9  1  0
 14 19  1  0
 15 16  1  0
 14 15  1  6
 16 17  1  0
 17 21  1  0
 17 18  2  0
 19 20  2  0
 22 19  1  0
 22 26  1  0
 23 24  1  0
 23 22  1  0
 25 24  1  0
 25 26  1  0
 26 27  1  6
 27 28  2  0
 27 29  1  0
M  END
$$$$
