YEP.pdb
     RDKit          3D

 29 30  0  0  1  0  0  0  0  0999 V2000
   19.3677  -18.4826  -15.0827 O   0  0  0  0  0  0  0  0  0  0  0  0
   20.2909  -18.9509  -14.1386 C   0  0  0  0  0  0  0  0  0  0  0  0
   21.5761  -18.4818  -14.0717 C   0  0  0  0  0  0  0  0  0  0  0  0
   22.4546  -18.9749  -13.1205 C   0  0  0  0  0  0  0  0  0  0  0  0
   22.0721  -19.9500  -12.2106 C   0  0  0  0  0  0  0  0  0  0  0  0
   23.0057  -20.4881  -11.1840 C   0  0  0  0  0  0  0  0  0  0  0  0
   24.2288  -20.9818  -11.9157 C   0  0  2  0  0  0  0  0  0  0  0  0
   23.8675  -22.1820  -12.6200 N   0  0  0  0  0  0  0  0  0  0  0  0
   25.3450  -21.2931  -10.9688 C   0  0  0  0  0  0  0  0  0  0  0  0
   25.2229  -22.2267  -10.1348 O   0  0  0  0  0  0  0  0  0  0  0  0
   20.7624  -20.3974  -12.3128 C   0  0  0  0  0  0  0  0  0  0  0  0
   19.8857  -19.9113  -13.2555 C   0  0  0  0  0  0  0  0  0  0  0  0
   26.5238  -20.5141  -11.0419 N   0  0  0  0  0  0  0  0  0  0  0  0
   27.6149  -20.6438  -10.0927 C   0  0  1  0  0  0  0  0  0  0  0  0
   28.8268  -20.0315  -10.7665 C   0  0  0  0  0  0  0  0  0  0  0  0
   29.2876  -21.0463  -11.8088 C   0  0  0  0  0  0  0  0  0  0  0  0
   28.9672  -20.5694  -13.1824 C   0  0  0  0  0  0  0  0  0  0  0  0
   28.4842  -19.4275  -13.3782 O   0  0  0  0  0  0  0  0  0  0  0  0
   27.2831  -20.0323   -8.7939 C   0  0  0  0  0  0  0  0  0  0  0  0
   26.5949  -18.9533   -8.7681 O   0  0  0  0  0  0  0  0  0  0  0  0
   29.1970  -21.3815  -14.2810 O   0  0  0  0  0  0  0  0  0  0  0  0
   27.6724  -20.5550   -7.5294 N   0  0  0  0  0  0  0  0  0  0  0  0
   28.2684  -21.8391   -7.2270 C   0  0  0  0  0  0  0  0  0  0  0  0
   29.3090  -21.4420   -6.1692 C   0  0  0  0  0  0  0  0  0  0  0  0
   28.3592  -20.6662   -5.2366 C   0  0  0  0  0  0  0  0  0  0  0  0
   27.4914  -19.8935   -6.2346 C   0  0  1  0  0  0  0  0  0  0  0  0
   27.9783  -18.5014   -6.2376 C   0  0  0  0  0  0  0  0  0  0  0  0
   28.7479  -18.1189   -7.1410 O   0  0  0  0  0  0  0  0  0  0  0  0
   27.6007  -17.6042   -5.2584 O   0  0  0  0  0  0  0  0  0  0  0  0
  2  1  1  0
  2 12  2  0
  3  2  1  0
  4  3  2  0
  4  5  1  0
  5 11  2  0
  6  5  1  0
  7  9  1  0
  7  6  1  0
  7  8  1  1
  9 10  2  0
 11 12  1  0
 13 14  1  0
 13  9  1  0
 14 19  1  0
 15 16  1  0
 14 15  1  6
 16 17  1  0
 17 21  1  0
 17 18  2  0
 19 20  2  0
 22 19  1  0
 22 26  1  0
 23 24  1  0
 23 22  1  0
 25 24  1  0
 25 26  1  0
 26 27  1  6
 27 28  2  0
 27 29  1  0
M  END
$$$$
