YEP.pdb
     RDKit          3D

 29 30  0  0  1  0  0  0  0  0999 V2000
   10.9019   -6.3221  -17.9498 O   0  0  0  0  0  0  0  0  0  0  0  0
   11.9171   -6.9658  -17.2299 C   0  0  0  0  0  0  0  0  0  0  0  0
   13.2318   -6.5915  -17.3184 C   0  0  0  0  0  0  0  0  0  0  0  0
   14.2019   -7.2578  -16.5872 C   0  0  0  0  0  0  0  0  0  0  0  0
   13.8840   -8.3160  -15.7479 C   0  0  0  0  0  0  0  0  0  0  0  0
   14.9163   -9.0399  -14.9571 C   0  0  0  0  0  0  0  0  0  0  0  0
   15.3882  -10.1968  -15.8021 C   0  0  2  0  0  0  0  0  0  0  0  0
   14.6902  -11.3757  -15.3659 N   0  0  0  0  0  0  0  0  0  0  0  0
   16.8599  -10.4212  -15.6506 C   0  0  0  0  0  0  0  0  0  0  0  0
   17.3333  -11.5832  -15.7384 O   0  0  0  0  0  0  0  0  0  0  0  0
   12.5416   -8.6627  -15.6876 C   0  0  0  0  0  0  0  0  0  0  0  0
   11.5740   -8.0045  -16.4115 C   0  0  0  0  0  0  0  0  0  0  0  0
   17.6882   -9.2998  -15.4091 N   0  0  0  0  0  0  0  0  0  0  0  0
   19.1381   -9.3668  -15.4506 C   0  0  1  0  0  0  0  0  0  0  0  0
   19.4901   -9.8999  -16.8252 C   0  0  0  0  0  0  0  0  0  0  0  0
   21.0144   -9.9406  -16.8843 C   0  0  0  0  0  0  0  0  0  0  0  0
   21.4772  -10.2641  -18.2620 C   0  0  0  0  0  0  0  0  0  0  0  0
   20.7304  -10.0920  -19.2561 O   0  0  0  0  0  0  0  0  0  0  0  0
   19.7531   -8.0641  -15.1415 C   0  0  0  0  0  0  0  0  0  0  0  0
   19.6575   -7.1102  -15.9897 O   0  0  0  0  0  0  0  0  0  0  0  0
   22.7506  -10.7652  -18.4773 O   0  0  0  0  0  0  0  0  0  0  0  0
   20.4634   -7.7670  -13.9452 N   0  0  0  0  0  0  0  0  0  0  0  0
   20.6478   -8.5974  -12.7739 C   0  0  0  0  0  0  0  0  0  0  0  0
   22.1183   -8.3106  -12.4349 C   0  0  0  0  0  0  0  0  0  0  0  0
   22.0238   -6.7729  -12.4229 C   0  0  0  0  0  0  0  0  0  0  0  0
   21.1258   -6.4980  -13.6329 C   0  0  1  0  0  0  0  0  0  0  0  0
   22.0051   -6.0356  -14.7228 C   0  0  0  0  0  0  0  0  0  0  0  0
   22.4348   -4.8652  -14.7144 O   0  0  0  0  0  0  0  0  0  0  0  0
   22.3674   -6.8721  -15.7599 O   0  0  0  0  0  0  0  0  0  0  0  0
  2  1  1  0
  2 12  2  0
  3  2  1  0
  4  3  2  0
  4  5  1  0
  5 11  2  0
  6  5  1  0
  7  9  1  0
  7  6  1  0
  7  8  1  1
  9 10  2  0
 11 12  1  0
 13 14  1  0
 13  9  1  0
 14 19  1  0
 15 16  1  0
 14 15  1  6
 16 17  1  0
 17 21  1  0
 17 18  2  0
 19 20  2  0
 22 19  1  0
 22 26  1  0
 23 24  1  0
 23 22  1  0
 25 24  1  0
 25 26  1  0
 26 27  1  6
 27 28  2  0
 27 29  1  0
M  END
$$$$
