YEP.pdb
     RDKit          3D

 29 30  0  0  1  0  0  0  0  0999 V2000
   15.3571  -17.0308  -15.6583 O   0  0  0  0  0  0  0  0  0  0  0  0
   16.3270  -16.0238  -15.7515 C   0  0  0  0  0  0  0  0  0  0  0  0
   16.0270  -14.6971  -15.5898 C   0  0  0  0  0  0  0  0  0  0  0  0
   17.0197  -13.7358  -15.6908 C   0  0  0  0  0  0  0  0  0  0  0  0
   18.3388  -14.0748  -15.9560 C   0  0  0  0  0  0  0  0  0  0  0  0
   19.4144  -13.0521  -16.0669 C   0  0  0  0  0  0  0  0  0  0  0  0
   19.3810  -12.5284  -17.4809 C   0  0  2  0  0  0  0  0  0  0  0  0
   19.9451  -13.5354  -18.3382 N   0  0  0  0  0  0  0  0  0  0  0  0
   20.1812  -11.2713  -17.6184 C   0  0  0  0  0  0  0  0  0  0  0  0
   21.1082  -11.2031  -18.4658 O   0  0  0  0  0  0  0  0  0  0  0  0
   18.5993  -15.4288  -16.1127 C   0  0  0  0  0  0  0  0  0  0  0  0
   17.6174  -16.3878  -16.0136 C   0  0  0  0  0  0  0  0  0  0  0  0
   19.8649  -10.1792  -16.7764 N   0  0  0  0  0  0  0  0  0  0  0  0
   20.4816   -8.8719  -16.9151 C   0  0  1  0  0  0  0  0  0  0  0  0
   20.3347   -8.4963  -18.3762 C   0  0  0  0  0  0  0  0  0  0  0  0
   20.9694   -7.1164  -18.5230 C   0  0  0  0  0  0  0  0  0  0  0  0
   20.1176   -6.2347  -19.3679 C   0  0  0  0  0  0  0  0  0  0  0  0
   18.8651   -6.2958  -19.3149 O   0  0  0  0  0  0  0  0  0  0  0  0
   19.8945   -7.8908  -15.9859 C   0  0  0  0  0  0  0  0  0  0  0  0
   18.6962   -7.4846  -16.1800 O   0  0  0  0  0  0  0  0  0  0  0  0
   20.6936   -5.3218  -20.2363 O   0  0  0  0  0  0  0  0  0  0  0  0
   20.5648   -7.3417  -14.8577 N   0  0  0  0  0  0  0  0  0  0  0  0
   21.8893   -7.6442  -14.3579 C   0  0  0  0  0  0  0  0  0  0  0  0
   22.3903   -6.2431  -13.9768 C   0  0  0  0  0  0  0  0  0  0  0  0
   21.1886   -5.8321  -13.1047 C   0  0  0  0  0  0  0  0  0  0  0  0
   20.0056   -6.3670  -13.9175 C   0  0  1  0  0  0  0  0  0  0  0  0
   19.3956   -5.2098  -14.5985 C   0  0  0  0  0  0  0  0  0  0  0  0
   19.6870   -4.9691  -15.7867 O   0  0  0  0  0  0  0  0  0  0  0  0
   18.5033   -4.3800  -13.9491 O   0  0  0  0  0  0  0  0  0  0  0  0
  2  1  1  0
  2 12  2  0
  3  2  1  0
  4  3  2  0
  4  5  1  0
  5 11  2  0
  6  5  1  0
  7  9  1  0
  7  6  1  0
  7  8  1  6
  9 10  2  0
 11 12  1  0
 13 14  1  0
 13  9  1  0
 14 19  1  0
 15 16  1  0
 14 15  1  6
 16 17  1  0
 17 21  1  0
 17 18  2  0
 19 20  2  0
 22 19  1  0
 22 26  1  0
 23 24  1  0
 23 22  1  0
 25 24  1  0
 25 26  1  0
 26 27  1  6
 27 28  2  0
 27 29  1  0
M  END
$$$$
