YEP.pdb
     RDKit          3D

 29 30  0  0  1  0  0  0  0  0999 V2000
   20.2151  -20.4774  -14.4878 O   0  0  0  0  0  0  0  0  0  0  0  0
   20.6601  -19.2074  -14.8780 C   0  0  0  0  0  0  0  0  0  0  0  0
   21.7165  -19.0288  -15.7315 C   0  0  0  0  0  0  0  0  0  0  0  0
   22.1215  -17.7531  -16.0896 C   0  0  0  0  0  0  0  0  0  0  0  0
   21.4815  -16.6217  -15.6042 C   0  0  0  0  0  0  0  0  0  0  0  0
   21.9064  -15.2460  -15.9810 C   0  0  0  0  0  0  0  0  0  0  0  0
   21.0591  -14.8292  -17.1572 C   0  0  2  0  0  0  0  0  0  0  0  0
   21.5045  -15.5694  -18.3065 N   0  0  0  0  0  0  0  0  0  0  0  0
   21.1965  -13.3662  -17.4401 C   0  0  0  0  0  0  0  0  0  0  0  0
   22.1880  -12.9388  -18.0854 O   0  0  0  0  0  0  0  0  0  0  0  0
   20.4169  -16.8472  -14.7429 C   0  0  0  0  0  0  0  0  0  0  0  0
   20.0104  -18.1119  -14.3839 C   0  0  0  0  0  0  0  0  0  0  0  0
   20.1894  -12.4934  -16.9648 N   0  0  0  0  0  0  0  0  0  0  0  0
   20.1973  -11.0647  -17.2239 C   0  0  1  0  0  0  0  0  0  0  0  0
   19.0310  -10.8053  -18.1566 C   0  0  0  0  0  0  0  0  0  0  0  0
   19.0169   -9.2999  -18.4059 C   0  0  0  0  0  0  0  0  0  0  0  0
   19.7792   -8.9658  -19.6405 C   0  0  0  0  0  0  0  0  0  0  0  0
   19.7456   -9.7137  -20.6479 O   0  0  0  0  0  0  0  0  0  0  0  0
   20.1468  -10.2840  -15.9755 C   0  0  0  0  0  0  0  0  0  0  0  0
   19.2185  -10.5210  -15.1266 O   0  0  0  0  0  0  0  0  0  0  0  0
   20.5468   -7.8143  -19.7038 O   0  0  0  0  0  0  0  0  0  0  0  0
   21.0695   -9.2605  -15.6221 N   0  0  0  0  0  0  0  0  0  0  0  0
   22.2532   -8.8261  -16.3333 C   0  0  0  0  0  0  0  0  0  0  0  0
   22.1610   -7.3025  -16.1610 C   0  0  0  0  0  0  0  0  0  0  0  0
   21.9930   -7.2849  -14.6296 C   0  0  0  0  0  0  0  0  0  0  0  0
   21.0296   -8.4533  -14.4000 C   0  0  1  0  0  0  0  0  0  0  0  0
   19.6986   -7.8687  -14.1513 C   0  0  0  0  0  0  0  0  0  0  0  0
   18.8898   -7.7532  -15.0931 O   0  0  0  0  0  0  0  0  0  0  0  0
   19.3227   -7.4431  -12.8928 O   0  0  0  0  0  0  0  0  0  0  0  0
  2  1  1  0
  2 12  2  0
  3  2  1  0
  4  3  2  0
  4  5  1  0
  5 11  2  0
  6  5  1  0
  7  9  1  0
  7  6  1  0
  7  8  1  6
  9 10  2  0
 11 12  1  0
 13 14  1  0
 13  9  1  0
 14 19  1  0
 15 16  1  0
 14 15  1  6
 16 17  1  0
 17 21  1  0
 17 18  2  0
 19 20  2  0
 22 19  1  0
 22 26  1  0
 23 24  1  0
 23 22  1  0
 25 24  1  0
 25 26  1  0
 26 27  1  6
 27 28  2  0
 27 29  1  0
M  END
$$$$
