YEP.pdb
     RDKit          3D

 29 30  0  0  1  0  0  0  0  0999 V2000
   17.4410  -16.1364  -19.0121 O   0  0  0  0  0  0  0  0  0  0  0  0
   18.1572  -16.6364  -17.9165 C   0  0  0  0  0  0  0  0  0  0  0  0
   17.7141  -16.5053  -16.6270 C   0  0  0  0  0  0  0  0  0  0  0  0
   18.4565  -17.0161  -15.5745 C   0  0  0  0  0  0  0  0  0  0  0  0
   19.6616  -17.6716  -15.7827 C   0  0  0  0  0  0  0  0  0  0  0  0
   20.4686  -18.2248  -14.6612 C   0  0  0  0  0  0  0  0  0  0  0  0
   20.2088  -19.7100  -14.6216 C   0  0  2  0  0  0  0  0  0  0  0  0
   18.9678  -19.9228  -13.9275 N   0  0  0  0  0  0  0  0  0  0  0  0
   21.2989  -20.4376  -13.8994 C   0  0  0  0  0  0  0  0  0  0  0  0
   21.2982  -20.4886  -12.6426 O   0  0  0  0  0  0  0  0  0  0  0  0
   20.0737  -17.7825  -17.1033 C   0  0  0  0  0  0  0  0  0  0  0  0
   19.3404  -17.2771  -18.1523 C   0  0  0  0  0  0  0  0  0  0  0  0
   22.3145  -21.0566  -14.6656 N   0  0  0  0  0  0  0  0  0  0  0  0
   23.4546  -21.7285  -14.0679 C   0  0  1  0  0  0  0  0  0  0  0  0
   23.6079  -23.0353  -14.8204 C   0  0  0  0  0  0  0  0  0  0  0  0
   24.7967  -23.7509  -14.1853 C   0  0  0  0  0  0  0  0  0  0  0  0
   25.0808  -25.0279  -14.8961 C   0  0  0  0  0  0  0  0  0  0  0  0
   25.7411  -25.0451  -15.9633 O   0  0  0  0  0  0  0  0  0  0  0  0
   24.6603  -20.8821  -14.0921 C   0  0  0  0  0  0  0  0  0  0  0  0
   24.9829  -20.2837  -15.1768 O   0  0  0  0  0  0  0  0  0  0  0  0
   24.6191  -26.2324  -14.3910 O   0  0  0  0  0  0  0  0  0  0  0  0
   25.5208  -20.6659  -12.9801 N   0  0  0  0  0  0  0  0  0  0  0  0
   25.3236  -21.0467  -11.5975 C   0  0  0  0  0  0  0  0  0  0  0  0
   26.7338  -21.5211  -11.2159 C   0  0  0  0  0  0  0  0  0  0  0  0
   27.4995  -20.2704  -11.6882 C   0  0  0  0  0  0  0  0  0  0  0  0
   26.7954  -19.9438  -13.0086 C   0  0  1  0  0  0  0  0  0  0  0  0
   27.6826  -20.4048  -14.0928 C   0  0  0  0  0  0  0  0  0  0  0  0
   28.5841  -19.6534  -14.5138 O   0  0  0  0  0  0  0  0  0  0  0  0
   27.5392  -21.6566  -14.6575 O   0  0  0  0  0  0  0  0  0  0  0  0
  2  1  1  0
  2 12  2  0
  3  2  1  0
  4  3  2  0
  4  5  1  0
  5 11  2  0
  6  5  1  0
  7  9  1  0
  7  6  1  0
  7  8  1  1
  9 10  2  0
 11 12  1  0
 13 14  1  0
 13  9  1  0
 14 19  1  0
 15 16  1  0
 14 15  1  6
 16 17  1  0
 17 21  1  0
 17 18  2  0
 19 20  2  0
 22 19  1  0
 22 26  1  0
 23 24  1  0
 23 22  1  0
 25 24  1  0
 25 26  1  0
 26 27  1  6
 27 28  2  0
 27 29  1  0
M  END
$$$$
