YEP.pdb
     RDKit          3D

 29 30  0  0  1  0  0  0  0  0999 V2000
   25.4076  -21.0088   -7.7386 O   0  0  0  0  0  0  0  0  0  0  0  0
   24.6747  -20.6029   -8.8617 C   0  0  0  0  0  0  0  0  0  0  0  0
   25.2678  -20.0517   -9.9665 C   0  0  0  0  0  0  0  0  0  0  0  0
   24.5021  -19.6649  -11.0546 C   0  0  0  0  0  0  0  0  0  0  0  0
   23.1232  -19.8187  -11.0675 C   0  0  0  0  0  0  0  0  0  0  0  0
   22.2893  -19.4075  -12.2297 C   0  0  0  0  0  0  0  0  0  0  0  0
   22.2268  -20.5874  -13.1672 C   0  0  2  0  0  0  0  0  0  0  0  0
   21.7190  -21.7116  -12.4286 N   0  0  0  0  0  0  0  0  0  0  0  0
   23.5802  -20.9322  -13.7045 C   0  0  0  0  0  0  0  0  0  0  0  0
   24.2834  -21.8036  -13.1314 O   0  0  0  0  0  0  0  0  0  0  0  0
   22.5630  -20.3808   -9.9290 C   0  0  0  0  0  0  0  0  0  0  0  0
   23.3185  -20.7667   -8.8456 C   0  0  0  0  0  0  0  0  0  0  0  0
   24.0353  -20.2558  -14.8609 N   0  0  0  0  0  0  0  0  0  0  0  0
   25.2496  -20.6272  -15.5652 C   0  0  1  0  0  0  0  0  0  0  0  0
   25.0161  -22.0326  -16.0828 C   0  0  0  0  0  0  0  0  0  0  0  0
   25.4236  -22.9720  -14.9515 C   0  0  0  0  0  0  0  0  0  0  0  0
   25.4042  -24.3876  -15.4127 C   0  0  0  0  0  0  0  0  0  0  0  0
   26.4125  -25.1250  -15.2910 O   0  0  0  0  0  0  0  0  0  0  0  0
   25.5888  -19.6535  -16.6176 C   0  0  0  0  0  0  0  0  0  0  0  0
   24.7790  -19.4796  -17.5936 O   0  0  0  0  0  0  0  0  0  0  0  0
   24.2649  -24.9243  -15.9898 O   0  0  0  0  0  0  0  0  0  0  0  0
   26.7734  -18.8661  -16.6414 N   0  0  0  0  0  0  0  0  0  0  0  0
   27.8004  -18.7480  -15.6281 C   0  0  0  0  0  0  0  0  0  0  0  0
   29.0703  -18.7349  -16.4921 C   0  0  0  0  0  0  0  0  0  0  0  0
   28.6446  -17.6101  -17.4551 C   0  0  0  0  0  0  0  0  0  0  0  0
   27.1729  -17.9484  -17.7114 C   0  0  1  0  0  0  0  0  0  0  0  0
   27.1026  -18.5714  -19.0464 C   0  0  0  0  0  0  0  0  0  0  0  0
   26.9829  -17.8517  -20.0575 O   0  0  0  0  0  0  0  0  0  0  0  0
   27.1666  -19.9413  -19.2062 O   0  0  0  0  0  0  0  0  0  0  0  0
  2  1  1  0
  2 12  2  0
  3  2  1  0
  4  3  2  0
  4  5  1  0
  5 11  2  0
  6  5  1  0
  7  9  1  0
  7  6  1  0
  7  8  1  1
  9 10  2  0
 11 12  1  0
 13 14  1  0
 13  9  1  0
 14 19  1  0
 15 16  1  0
 14 15  1  6
 16 17  1  0
 17 21  1  0
 17 18  2  0
 19 20  2  0
 22 19  1  0
 22 26  1  0
 23 24  1  0
 23 22  1  0
 25 24  1  0
 25 26  1  0
 26 27  1  6
 27 28  2  0
 27 29  1  0
M  END
$$$$
