YEP.pdb
     RDKit          3D

 29 30  0  0  1  0  0  0  0  0999 V2000
   26.7174  -19.6132   -5.6474 O   0  0  0  0  0  0  0  0  0  0  0  0
   26.8356  -19.7980   -7.0312 C   0  0  0  0  0  0  0  0  0  0  0  0
   26.9506  -18.7499   -7.9056 C   0  0  0  0  0  0  0  0  0  0  0  0
   27.0652  -18.9810   -9.2669 C   0  0  0  0  0  0  0  0  0  0  0  0
   27.0679  -20.2658   -9.7908 C   0  0  0  0  0  0  0  0  0  0  0  0
   27.1904  -20.5277  -11.2507 C   0  0  0  0  0  0  0  0  0  0  0  0
   25.7894  -20.6500  -11.7959 C   0  0  2  0  0  0  0  0  0  0  0  0
   25.2366  -21.8887  -11.3192 N   0  0  0  0  0  0  0  0  0  0  0  0
   25.7831  -20.6607  -13.2923 C   0  0  0  0  0  0  0  0  0  0  0  0
   26.1100  -21.7022  -13.9172 O   0  0  0  0  0  0  0  0  0  0  0  0
   26.9494  -21.2982   -8.8709 C   0  0  0  0  0  0  0  0  0  0  0  0
   26.8353  -21.0745   -7.5180 C   0  0  0  0  0  0  0  0  0  0  0  0
   25.4030  -19.4783  -13.9702 N   0  0  0  0  0  0  0  0  0  0  0  0
   25.3254  -19.3892  -15.4174 C   0  0  1  0  0  0  0  0  0  0  0  0
   23.8478  -19.3906  -15.7551 C   0  0  0  0  0  0  0  0  0  0  0  0
   23.3711  -20.8266  -15.5571 C   0  0  0  0  0  0  0  0  0  0  0  0
   21.9360  -20.9590  -15.9313 C   0  0  0  0  0  0  0  0  0  0  0  0
   21.5884  -21.5775  -16.9666 O   0  0  0  0  0  0  0  0  0  0  0  0
   26.0528  -18.2154  -15.9311 C   0  0  0  0  0  0  0  0  0  0  0  0
   25.5359  -17.0519  -15.7984 O   0  0  0  0  0  0  0  0  0  0  0  0
   20.9475  -20.3983  -15.1391 O   0  0  0  0  0  0  0  0  0  0  0  0
   27.3180  -18.2663  -16.5794 N   0  0  0  0  0  0  0  0  0  0  0  0
   28.2583  -19.3652  -16.6411 C   0  0  0  0  0  0  0  0  0  0  0  0
   28.7273  -19.2734  -18.1009 C   0  0  0  0  0  0  0  0  0  0  0  0
   29.1103  -17.7812  -18.0937 C   0  0  0  0  0  0  0  0  0  0  0  0
   27.9626  -17.1601  -17.2919 C   0  0  1  0  0  0  0  0  0  0  0  0
   27.0622  -16.5123  -18.2639 C   0  0  0  0  0  0  0  0  0  0  0  0
   26.0560  -17.1231  -18.6750 O   0  0  0  0  0  0  0  0  0  0  0  0
   27.3070  -15.2372  -18.7337 O   0  0  0  0  0  0  0  0  0  0  0  0
  2  1  1  0
  2 12  2  0
  3  2  1  0
  4  3  2  0
  4  5  1  0
  5 11  2  0
  6  5  1  0
  7  9  1  0
  7  6  1  0
  7  8  1  1
  9 10  2  0
 11 12  1  0
 13 14  1  0
 13  9  1  0
 14 19  1  0
 15 16  1  0
 14 15  1  1
 16 17  1  0
 17 21  1  0
 17 18  2  0
 19 20  2  0
 22 19  1  0
 22 26  1  0
 23 24  1  0
 23 22  1  0
 25 24  1  0
 25 26  1  0
 26 27  1  6
 27 28  2  0
 27 29  1  0
M  END
$$$$
