YEP.pdb
     RDKit          3D

 29 30  0  0  1  0  0  0  0  0999 V2000
   15.2296    1.1462  -14.3627 O   0  0  0  0  0  0  0  0  0  0  0  0
   15.3765   -0.1699  -14.8205 C   0  0  0  0  0  0  0  0  0  0  0  0
   15.9636   -1.1498  -14.0646 C   0  0  0  0  0  0  0  0  0  0  0  0
   16.0872   -2.4382  -14.5592 C   0  0  0  0  0  0  0  0  0  0  0  0
   15.6273   -2.7816  -15.8224 C   0  0  0  0  0  0  0  0  0  0  0  0
   15.7539   -4.1615  -16.3654 C   0  0  0  0  0  0  0  0  0  0  0  0
   17.1124   -4.2576  -17.0137 C   0  0  2  0  0  0  0  0  0  0  0  0
   17.0258   -3.6476  -18.3128 N   0  0  0  0  0  0  0  0  0  0  0  0
   17.5429   -5.6816  -17.1749 C   0  0  0  0  0  0  0  0  0  0  0  0
   17.0564   -6.3875  -18.0953 O   0  0  0  0  0  0  0  0  0  0  0  0
   15.0395   -1.7596  -16.5546 C   0  0  0  0  0  0  0  0  0  0  0  0
   14.9142   -0.4784  -16.0684 C   0  0  0  0  0  0  0  0  0  0  0  0
   18.5005   -6.1995  -16.2712 N   0  0  0  0  0  0  0  0  0  0  0  0
   18.9891   -7.5653  -16.3369 C   0  0  1  0  0  0  0  0  0  0  0  0
   20.2892   -7.5793  -15.5577 C   0  0  0  0  0  0  0  0  0  0  0  0
   20.8645   -8.9830  -15.7221 C   0  0  0  0  0  0  0  0  0  0  0  0
   22.1680   -9.1019  -15.0123 C   0  0  0  0  0  0  0  0  0  0  0  0
   22.6439   -8.1402  -14.3612 O   0  0  0  0  0  0  0  0  0  0  0  0
   17.9880   -8.5267  -15.8428 C   0  0  0  0  0  0  0  0  0  0  0  0
   17.4926   -8.3684  -14.6732 O   0  0  0  0  0  0  0  0  0  0  0  0
   22.8879  -10.2847  -15.0559 O   0  0  0  0  0  0  0  0  0  0  0  0
   17.5101   -9.6477  -16.5767 N   0  0  0  0  0  0  0  0  0  0  0  0
   17.7559   -9.9931  -17.9609 C   0  0  0  0  0  0  0  0  0  0  0  0
   17.9510  -11.5132  -17.8578 C   0  0  0  0  0  0  0  0  0  0  0  0
   16.6564  -11.8283  -17.0841 C   0  0  0  0  0  0  0  0  0  0  0  0
   16.6011  -10.6800  -16.0719 C   0  0  1  0  0  0  0  0  0  0  0  0
   17.0355  -11.2311  -14.7747 C   0  0  0  0  0  0  0  0  0  0  0  0
   18.1980  -11.0238  -14.3746 O   0  0  0  0  0  0  0  0  0  0  0  0
   16.1812  -11.9762  -13.9863 O   0  0  0  0  0  0  0  0  0  0  0  0
  2  1  1  0
  2 12  2  0
  3  2  1  0
  4  3  2  0
  4  5  1  0
  5 11  2  0
  6  5  1  0
  7  9  1  0
  7  6  1  0
  7  8  1  6
  9 10  2  0
 11 12  1  0
 13 14  1  0
 13  9  1  0
 14 19  1  0
 15 16  1  0
 14 15  1  1
 16 17  1  0
 17 21  1  0
 17 18  2  0
 19 20  2  0
 22 19  1  0
 22 26  1  0
 23 24  1  0
 23 22  1  0
 25 24  1  0
 25 26  1  0
 26 27  1  1
 27 28  2  0
 27 29  1  0
M  END
$$$$
