ERP.pdb
     RDKit          3D

 28 28  0  0  1  0  0  0  0  0999 V2000
   13.0070  -17.1631   23.1918 N   0  0  0  0  0  0  0  0  0  0  0  0
   11.6464  -17.4241   23.4431 C   0  0  1  0  0  0  0  0  0  0  0  0
   11.3040  -18.4067   24.5042 C   0  0  0  0  0  0  0  0  0  0  0  0
   11.5788  -18.0351   25.9092 C   0  0  0  0  0  0  0  0  0  0  0  0
   11.2907  -19.0246   26.9374 C   0  0  0  0  0  0  0  0  0  0  0  0
   11.4615  -18.8218   28.1454 O   0  0  0  0  0  0  0  0  0  0  0  0
   10.7854  -16.2236   23.6521 C   0  0  0  0  0  0  0  0  0  0  0  0
   11.2828  -15.3276   24.3745 O   0  0  0  0  0  0  0  0  0  0  0  0
   10.7981  -20.2641   26.5531 O   0  0  0  0  0  0  0  0  0  0  0  0
    7.9817  -12.4198   19.0352 N   0  0  0  0  0  0  0  0  0  0  0  0
    8.1222  -13.5674   18.2207 C   0  0  0  0  0  0  0  0  0  0  0  0
    8.7793  -13.5390   17.1097 N   0  0  0  0  0  0  0  0  0  0  0  0
    7.5204  -14.7737   18.6488 N   0  0  0  0  0  0  0  0  0  0  0  0
    6.9122  -14.9382   19.9662 C   0  0  0  0  0  0  0  0  0  0  0  0
    7.9427  -14.6841   21.0371 C   0  0  0  0  0  0  0  0  0  0  0  0
    7.4776  -14.9365   22.4240 C   0  0  0  0  0  0  0  0  0  0  0  0
    8.6488  -14.9028   23.3926 C   0  0  2  0  0  0  0  0  0  0  0  0
    9.4978  -16.0316   23.1146 N   0  0  0  0  0  0  0  0  0  0  0  0
    8.1924  -14.8392   24.7815 C   0  0  0  0  0  0  0  0  0  0  0  0
    8.2979  -15.9439   25.4344 O   0  0  0  0  0  0  0  0  0  0  0  0
    8.9234  -14.4089   16.5605 N   0  0  0  0  0  0  0  0  0  0  0  0
    7.6650  -13.7308   25.4660 C   0  0  0  0  0  0  0  0  0  0  0  0
    7.3719  -12.4089   24.9634 C   0  0  0  0  0  0  0  0  0  0  0  0
    6.5391  -11.7116   26.0508 C   0  0  0  0  0  0  0  0  0  0  0  0
    7.1391  -12.3462   27.2924 C   0  0  1  0  0  0  0  0  0  0  0  0
    7.3245  -13.7885   26.8969 C   0  0  0  0  0  0  0  0  0  0  0  0
    6.0703  -14.5421   27.0941 O   0  0  0  0  0  0  0  0  0  0  0  0
    5.3363  -14.8117   26.1134 O   0  0  0  0  0  0  0  0  0  0  0  0
  2  3  1  0
  2  1  1  1
  4  3  1  0
  5  9  1  0
  5  4  1  0
  6  5  2  0
  7  8  2  0
  7  2  1  0
 11 10  1  0
 11 12  2  0
 13 14  1  0
 13 11  1  0
 15 16  1  0
 15 14  1  0
 17 16  1  6
 17 18  1  0
 18  7  1  0
 19 17  1  0
 20 19  2  0
 21 19  1  0
 22 21  1  0
 23 24  1  0
 23 22  1  0
 24 25  1  0
 25 21  1  0
 26 28  1  0
 25 26  1  1
 27 26  2  0
M  END
$$$$
