ERP.pdb
     RDKit          3D

 28 28  0  0  1  0  0  0  0  0999 V2000
    8.9208  -13.8629   18.1305 N   0  0  0  0  0  0  0  0  0  0  0  0
    9.2960  -14.6593   19.2294 C   0  0  1  0  0  0  0  0  0  0  0  0
   10.7430  -14.9188   19.4471 C   0  0  0  0  0  0  0  0  0  0  0  0
   11.3859  -14.3143   20.6342 C   0  0  0  0  0  0  0  0  0  0  0  0
   12.8107  -14.5466   20.8215 C   0  0  0  0  0  0  0  0  0  0  0  0
   13.2912  -15.0434   21.8470 O   0  0  0  0  0  0  0  0  0  0  0  0
    8.7108  -14.2646   20.5438 C   0  0  0  0  0  0  0  0  0  0  0  0
    8.5925  -13.0299   20.7279 O   0  0  0  0  0  0  0  0  0  0  0  0
   13.6849  -14.1959   19.8020 O   0  0  0  0  0  0  0  0  0  0  0  0
    4.8077  -20.9887   23.1835 N   0  0  0  0  0  0  0  0  0  0  0  0
    6.0359  -20.7608   23.8466 C   0  0  0  0  0  0  0  0  0  0  0  0
    6.5643  -21.6441   24.6260 N   0  0  0  0  0  0  0  0  0  0  0  0
    6.6926  -19.5252   23.6400 N   0  0  0  0  0  0  0  0  0  0  0  0
    5.9819  -18.2825   23.3517 C   0  0  0  0  0  0  0  0  0  0  0  0
    6.9746  -17.1718   23.1181 C   0  0  0  0  0  0  0  0  0  0  0  0
    6.3724  -15.8507   22.8089 C   0  0  0  0  0  0  0  0  0  0  0  0
    7.4545  -14.7921   22.6700 C   0  0  2  0  0  0  0  0  0  0  0  0
    8.2963  -15.1494   21.5583 N   0  0  0  0  0  0  0  0  0  0  0  0
    8.1853  -14.6068   23.9242 C   0  0  0  0  0  0  0  0  0  0  0  0
    9.3459  -15.1631   23.9587 O   0  0  0  0  0  0  0  0  0  0  0  0
    7.4603  -21.4477   25.1137 N   0  0  0  0  0  0  0  0  0  0  0  0
    7.7704  -13.9038   25.0683 C   0  0  0  0  0  0  0  0  0  0  0  0
    6.5202  -13.2228   25.3116 C   0  0  0  0  0  0  0  0  0  0  0  0
    6.4917  -12.9026   26.8144 C   0  0  0  0  0  0  0  0  0  0  0  0
    7.9721  -12.6811   27.0667 C   0  0  2  0  0  0  0  0  0  0  0  0
    8.6343  -13.7619   26.2516 C   0  0  0  0  0  0  0  0  0  0  0  0
    8.6745  -15.0279   27.0102 O   0  0  0  0  0  0  0  0  0  0  0  0
    7.8861  -15.9601   26.7226 O   0  0  0  0  0  0  0  0  0  0  0  0
  2  3  1  0
  2  1  1  6
  4  3  1  0
  5  9  1  0
  5  4  1  0
  6  5  2  0
  7  8  2  0
  7  2  1  0
 11 10  1  0
 11 12  2  0
 13 14  1  0
 13 11  1  0
 15 16  1  0
 15 14  1  0
 17 16  1  1
 17 18  1  0
 18  7  1  0
 19 17  1  0
 20 19  2  0
 21 19  1  0
 22 21  1  0
 23 24  1  0
 23 22  1  0
 24 25  1  0
 25 21  1  0
 26 28  1  0
 25 26  1  1
 27 26  2  0
M  END
$$$$
