ERP.pdb
     RDKit          3D

 28 28  0  0  1  0  0  0  0  0999 V2000
    8.4611  -12.7237   18.5340 N   0  0  0  0  0  0  0  0  0  0  0  0
    8.8241  -13.9692   19.0814 C   0  0  1  0  0  0  0  0  0  0  0  0
   10.2513  -14.3777   19.0123 C   0  0  0  0  0  0  0  0  0  0  0  0
   11.2539  -13.5116   19.6698 C   0  0  0  0  0  0  0  0  0  0  0  0
   12.6481  -13.9257   19.6069 C   0  0  0  0  0  0  0  0  0  0  0  0
   13.5676  -13.3100   20.1591 O   0  0  0  0  0  0  0  0  0  0  0  0
    8.3537  -14.2253   20.4740 C   0  0  0  0  0  0  0  0  0  0  0  0
    8.2482  -13.2077   21.1989 O   0  0  0  0  0  0  0  0  0  0  0  0
   12.9739  -15.0703   18.8925 O   0  0  0  0  0  0  0  0  0  0  0  0
    6.2488  -20.8971   26.1859 N   0  0  0  0  0  0  0  0  0  0  0  0
    7.1537  -20.1433   25.4029 C   0  0  0  0  0  0  0  0  0  0  0  0
    8.3172  -19.8007   25.8454 N   0  0  0  0  0  0  0  0  0  0  0  0
    6.7588  -19.7613   24.0995 N   0  0  0  0  0  0  0  0  0  0  0  0
    5.7143  -18.7745   23.8395 C   0  0  0  0  0  0  0  0  0  0  0  0
    6.3311  -17.4054   23.7030 C   0  0  0  0  0  0  0  0  0  0  0  0
    6.9998  -17.1484   22.4029 C   0  0  0  0  0  0  0  0  0  0  0  0
    7.4566  -15.7010   22.3164 C   0  0  2  0  0  0  0  0  0  0  0  0
    8.0310  -15.4854   21.0142 N   0  0  0  0  0  0  0  0  0  0  0  0
    8.3554  -15.3572   23.4190 C   0  0  0  0  0  0  0  0  0  0  0  0
    9.5412  -15.8489   23.3206 O   0  0  0  0  0  0  0  0  0  0  0  0
    9.0352  -19.4190   25.1990 N   0  0  0  0  0  0  0  0  0  0  0  0
    8.0740  -14.5669   24.5465 C   0  0  0  0  0  0  0  0  0  0  0  0
    6.8564  -13.8670   24.8835 C   0  0  0  0  0  0  0  0  0  0  0  0
    7.0041  -13.4311   26.3498 C   0  0  0  0  0  0  0  0  0  0  0  0
    8.5023  -13.1933   26.4064 C   0  0  2  0  0  0  0  0  0  0  0  0
    9.0711  -14.3351   25.6042 C   0  0  0  0  0  0  0  0  0  0  0  0
    9.2107  -15.5385   26.4481 O   0  0  0  0  0  0  0  0  0  0  0  0
    8.4525  -16.5223   26.2729 O   0  0  0  0  0  0  0  0  0  0  0  0
  2  3  1  0
  2  1  1  1
  4  3  1  0
  5  9  1  0
  5  4  1  0
  6  5  2  0
  7  8  2  0
  7  2  1  0
 11 10  1  0
 11 12  2  0
 13 14  1  0
 13 11  1  0
 15 16  1  0
 15 14  1  0
 17 16  1  1
 17 18  1  0
 18  7  1  0
 19 17  1  0
 20 19  2  0
 21 19  1  0
 22 21  1  0
 23 24  1  0
 23 22  1  0
 24 25  1  0
 25 21  1  0
 26 28  1  0
 25 26  1  1
 27 26  2  0
M  END
$$$$
