ERP.pdb
     RDKit          3D

 28 28  0  0  1  0  0  0  0  0999 V2000
    8.4933  -13.2608   19.0418 N   0  0  0  0  0  0  0  0  0  0  0  0
    8.8882  -14.3319   19.8660 C   0  0  1  0  0  0  0  0  0  0  0  0
   10.3420  -14.5938   20.0289 C   0  0  0  0  0  0  0  0  0  0  0  0
   11.2921  -13.6070   19.4709 C   0  0  0  0  0  0  0  0  0  0  0  0
   12.7140  -13.8850   19.6121 C   0  0  0  0  0  0  0  0  0  0  0  0
   13.3837  -13.5321   20.5901 O   0  0  0  0  0  0  0  0  0  0  0  0
    8.2744  -14.3621   21.2256 C   0  0  0  0  0  0  0  0  0  0  0  0
    8.0468  -13.2393   21.7351 O   0  0  0  0  0  0  0  0  0  0  0  0
   13.3624  -14.5820   18.6019 O   0  0  0  0  0  0  0  0  0  0  0  0
    8.6212  -17.8362   27.3036 N   0  0  0  0  0  0  0  0  0  0  0  0
    7.8549  -19.0060   27.0927 C   0  0  0  0  0  0  0  0  0  0  0  0
    7.7223  -19.9085   28.0063 N   0  0  0  0  0  0  0  0  0  0  0  0
    7.2213  -19.1781   25.8398 N   0  0  0  0  0  0  0  0  0  0  0  0
    6.0357  -18.4274   25.4357 C   0  0  0  0  0  0  0  0  0  0  0  0
    6.4376  -17.0445   24.9892 C   0  0  0  0  0  0  0  0  0  0  0  0
    7.0003  -16.9698   23.6176 C   0  0  0  0  0  0  0  0  0  0  0  0
    7.3338  -15.5312   23.2568 C   0  0  2  0  0  0  0  0  0  0  0  0
    7.9441  -15.5221   21.9530 N   0  0  0  0  0  0  0  0  0  0  0  0
    8.1503  -14.8959   24.2918 C   0  0  0  0  0  0  0  0  0  0  0  0
    9.3658  -15.3163   24.3527 O   0  0  0  0  0  0  0  0  0  0  0  0
    7.1537  -20.7593   27.8278 N   0  0  0  0  0  0  0  0  0  0  0  0
    7.7636  -13.8998   25.2046 C   0  0  0  0  0  0  0  0  0  0  0  0
    6.5010  -13.2065   25.3108 C   0  0  0  0  0  0  0  0  0  0  0  0
    6.5319  -12.4629   26.6555 C   0  0  0  0  0  0  0  0  0  0  0  0
    8.0130  -12.1434   26.7481 C   0  0  2  0  0  0  0  0  0  0  0  0
    8.6768  -13.3992   26.2449 C   0  0  0  0  0  0  0  0  0  0  0  0
    8.8021  -14.3878   27.3343 O   0  0  0  0  0  0  0  0  0  0  0  0
    8.0778  -15.4119   27.3422 O   0  0  0  0  0  0  0  0  0  0  0  0
  2  3  1  0
  2  1  1  1
  4  3  1  0
  5  9  1  0
  5  4  1  0
  6  5  2  0
  7  8  2  0
  7  2  1  0
 11 10  1  0
 11 12  2  0
 13 14  1  0
 13 11  1  0
 15 16  1  0
 15 14  1  0
 17 16  1  1
 17 18  1  0
 18  7  1  0
 19 17  1  0
 20 19  2  0
 21 19  1  0
 22 21  1  0
 23 24  1  0
 23 22  1  0
 24 25  1  0
 25 21  1  0
 26 28  1  0
 25 26  1  1
 27 26  2  0
M  END
$$$$
