ERP.pdb
     RDKit          3D

 28 28  0  0  1  0  0  0  0  0999 V2000
   13.5497  -17.0174   20.9052 N   0  0  0  0  0  0  0  0  0  0  0  0
   12.2193  -17.4725   20.9780 C   0  0  1  0  0  0  0  0  0  0  0  0
   11.9790  -18.8733   21.4124 C   0  0  0  0  0  0  0  0  0  0  0  0
   12.9318  -19.4766   22.3694 C   0  0  0  0  0  0  0  0  0  0  0  0
   12.7153  -20.8641   22.7530 C   0  0  0  0  0  0  0  0  0  0  0  0
   11.8603  -21.5899   22.2317 O   0  0  0  0  0  0  0  0  0  0  0  0
   11.2785  -16.6013   21.7409 C   0  0  0  0  0  0  0  0  0  0  0  0
   11.7692  -16.0354   22.7465 O   0  0  0  0  0  0  0  0  0  0  0  0
   13.5042  -21.4115   23.7553 O   0  0  0  0  0  0  0  0  0  0  0  0
    7.3126  -12.4665   17.3889 N   0  0  0  0  0  0  0  0  0  0  0  0
    7.7711  -13.6775   16.8202 C   0  0  0  0  0  0  0  0  0  0  0  0
    8.3582  -13.7120   15.6708 N   0  0  0  0  0  0  0  0  0  0  0  0
    7.5742  -14.8771   17.5433 N   0  0  0  0  0  0  0  0  0  0  0  0
    7.0684  -14.9092   18.9128 C   0  0  0  0  0  0  0  0  0  0  0  0
    8.2141  -15.1050   19.8733 C   0  0  0  0  0  0  0  0  0  0  0  0
    7.8194  -15.2327   21.2986 C   0  0  0  0  0  0  0  0  0  0  0  0
    9.0357  -15.5205   22.1638 C   0  0  2  0  0  0  0  0  0  0  0  0
    9.9248  -16.3769   21.4233 N   0  0  0  0  0  0  0  0  0  0  0  0
    8.6487  -16.0621   23.4671 C   0  0  0  0  0  0  0  0  0  0  0  0
    8.7192  -17.3442   23.5601 O   0  0  0  0  0  0  0  0  0  0  0  0
    8.6854  -14.6142   15.2733 N   0  0  0  0  0  0  0  0  0  0  0  0
    8.2198  -15.3535   24.6025 C   0  0  0  0  0  0  0  0  0  0  0  0
    8.0300  -13.9311   24.7668 C   0  0  0  0  0  0  0  0  0  0  0  0
    7.2673  -13.7501   26.0887 C   0  0  0  0  0  0  0  0  0  0  0  0
    7.8260  -14.9192   26.8797 C   0  0  1  0  0  0  0  0  0  0  0  0
    7.8898  -16.0325   25.8661 C   0  0  0  0  0  0  0  0  0  0  0  0
    6.5805  -16.7063   25.7578 O   0  0  0  0  0  0  0  0  0  0  0  0
    5.8168  -16.4487   24.7967 O   0  0  0  0  0  0  0  0  0  0  0  0
  2  3  1  0
  2  1  1  1
  4  3  1  0
  5  9  1  0
  5  4  1  0
  6  5  2  0
  7  8  2  0
  7  2  1  0
 11 10  1  0
 11 12  2  0
 13 14  1  0
 13 11  1  0
 15 16  1  0
 15 14  1  0
 17 16  1  6
 17 18  1  0
 18  7  1  0
 19 17  1  0
 20 19  2  0
 21 19  1  0
 22 21  1  0
 23 24  1  0
 23 22  1  0
 24 25  1  0
 25 21  1  0
 26 28  1  0
 25 26  1  6
 27 26  2  0
M  END
$$$$
