ERP.pdb
     RDKit          3D

 28 28  0  0  1  0  0  0  0  0999 V2000
   14.2255  -17.0465   23.6785 N   0  0  0  0  0  0  0  0  0  0  0  0
   12.9017  -17.4948   23.5081 C   0  0  1  0  0  0  0  0  0  0  0  0
   12.4255  -18.6177   24.3572 C   0  0  0  0  0  0  0  0  0  0  0  0
   12.4371  -18.4319   25.8245 C   0  0  0  0  0  0  0  0  0  0  0  0
   11.9384  -19.5246   26.6469 C   0  0  0  0  0  0  0  0  0  0  0  0
   11.8659  -19.4713   27.8804 O   0  0  0  0  0  0  0  0  0  0  0  0
   11.8512  -16.4356   23.5389 C   0  0  0  0  0  0  0  0  0  0  0  0
   12.0289  -15.5301   24.3878 O   0  0  0  0  0  0  0  0  0  0  0  0
   11.5193  -20.6924   26.0245 O   0  0  0  0  0  0  0  0  0  0  0  0
    6.7884  -14.8170   17.1734 N   0  0  0  0  0  0  0  0  0  0  0  0
    7.5209  -13.7980   17.8254 C   0  0  0  0  0  0  0  0  0  0  0  0
    7.8061  -12.6826   17.2412 N   0  0  0  0  0  0  0  0  0  0  0  0
    7.9462  -14.0216   19.1558 N   0  0  0  0  0  0  0  0  0  0  0  0
    7.0201  -14.2444   20.2626 C   0  0  0  0  0  0  0  0  0  0  0  0
    7.7927  -14.4033   21.5476 C   0  0  0  0  0  0  0  0  0  0  0  0
    8.9556  -15.3224   21.4677 C   0  0  0  0  0  0  0  0  0  0  0  0
    9.6692  -15.3956   22.8080 C   0  0  2  0  0  0  0  0  0  0  0  0
   10.7129  -16.3822   22.7111 N   0  0  0  0  0  0  0  0  0  0  0  0
    8.7286  -15.6413   23.9018 C   0  0  0  0  0  0  0  0  0  0  0  0
    8.5074  -16.8845   24.1530 O   0  0  0  0  0  0  0  0  0  0  0  0
    8.3964  -11.9736   17.7187 N   0  0  0  0  0  0  0  0  0  0  0  0
    8.0566  -14.6920   24.6909 C   0  0  0  0  0  0  0  0  0  0  0  0
    8.0280  -13.2545   24.5540 C   0  0  0  0  0  0  0  0  0  0  0  0
    6.9080  -12.7577   25.4818 C   0  0  0  0  0  0  0  0  0  0  0  0
    7.0042  -13.7902   26.5905 C   0  0  1  0  0  0  0  0  0  0  0  0
    7.2376  -15.0819   25.8501 C   0  0  0  0  0  0  0  0  0  0  0  0
    5.9544  -15.6566   25.3996 O   0  0  0  0  0  0  0  0  0  0  0  0
    5.5905  -15.5273   24.2062 O   0  0  0  0  0  0  0  0  0  0  0  0
  2  3  1  0
  2  1  1  1
  4  3  1  0
  5  9  1  0
  5  4  1  0
  6  5  2  0
  7  8  2  0
  7  2  1  0
 11 10  1  0
 11 12  2  0
 13 14  1  0
 13 11  1  0
 15 16  1  0
 15 14  1  0
 17 16  1  6
 17 18  1  0
 18  7  1  0
 19 17  1  0
 20 19  2  0
 21 19  1  0
 22 21  1  0
 23 24  1  0
 23 22  1  0
 24 25  1  0
 25 21  1  0
 26 28  1  0
 25 26  1  6
 27 26  2  0
M  END
$$$$
