ERP.pdb
     RDKit          3D

 28 28  0  0  1  0  0  0  0  0999 V2000
   13.2950  -16.5980   21.4481 N   0  0  0  0  0  0  0  0  0  0  0  0
   12.0467  -16.9387   22.0035 C   0  0  1  0  0  0  0  0  0  0  0  0
   12.0124  -17.9666   23.0763 C   0  0  0  0  0  0  0  0  0  0  0  0
   12.6878  -19.2577   22.8226 C   0  0  0  0  0  0  0  0  0  0  0  0
   12.6863  -20.2421   23.8951 C   0  0  0  0  0  0  0  0  0  0  0  0
   12.2473  -20.0143   25.0287 O   0  0  0  0  0  0  0  0  0  0  0  0
   11.2060  -15.7925   22.4567 C   0  0  0  0  0  0  0  0  0  0  0  0
   11.8371  -14.8285   22.9513 O   0  0  0  0  0  0  0  0  0  0  0  0
   13.2021  -21.5059   23.6434 O   0  0  0  0  0  0  0  0  0  0  0  0
    8.4969  -15.4128   18.3682 N   0  0  0  0  0  0  0  0  0  0  0  0
    7.9059  -14.1740   18.0277 C   0  0  0  0  0  0  0  0  0  0  0  0
    8.3568  -13.4458   17.0616 N   0  0  0  0  0  0  0  0  0  0  0  0
    6.7892  -13.7333   18.7757 N   0  0  0  0  0  0  0  0  0  0  0  0
    6.5091  -14.1890   20.1345 C   0  0  0  0  0  0  0  0  0  0  0  0
    7.7892  -14.2318   20.9302 C   0  0  0  0  0  0  0  0  0  0  0  0
    7.6364  -14.6859   22.3352 C   0  0  0  0  0  0  0  0  0  0  0  0
    8.9878  -14.7304   23.0300 C   0  0  2  0  0  0  0  0  0  0  0  0
    9.8020  -15.7184   22.3719 N   0  0  0  0  0  0  0  0  0  0  0  0
    8.8420  -14.9533   24.4690 C   0  0  0  0  0  0  0  0  0  0  0  0
    9.1635  -16.1350   24.8663 O   0  0  0  0  0  0  0  0  0  0  0  0
    7.9176  -12.5302   16.8427 N   0  0  0  0  0  0  0  0  0  0  0  0
    8.4014  -14.0407   25.4427 C   0  0  0  0  0  0  0  0  0  0  0  0
    7.8204  -12.7308   25.2622 C   0  0  0  0  0  0  0  0  0  0  0  0
    7.2534  -12.3209   26.6306 C   0  0  0  0  0  0  0  0  0  0  0  0
    8.2537  -13.0021   27.5472 C   0  0  1  0  0  0  0  0  0  0  0  0
    8.4913  -14.3334   26.8824 C   0  0  0  0  0  0  0  0  0  0  0  0
    7.4454  -15.2990   27.2743 O   0  0  0  0  0  0  0  0  0  0  0  0
    6.4784  -15.5258   26.5083 O   0  0  0  0  0  0  0  0  0  0  0  0
  2  3  1  0
  2  1  1  1
  4  3  1  0
  5  9  1  0
  5  4  1  0
  6  5  2  0
  7  8  2  0
  7  2  1  0
 11 10  1  0
 11 12  2  0
 13 14  1  0
 13 11  1  0
 15 16  1  0
 15 14  1  0
 17 16  1  6
 17 18  1  0
 18  7  1  0
 19 17  1  0
 20 19  2  0
 21 19  1  0
 22 21  1  0
 23 24  1  0
 23 22  1  0
 24 25  1  0
 25 21  1  0
 26 28  1  0
 25 26  1  6
 27 26  2  0
M  END
$$$$
