IHK.pdb
     RDKit          3D

 28 28  0  0  1  0  0  0  0  0999 V2000
   17.9180  -13.3542  -17.6231 C   0  0  0  0  0  0  0  0  0  0  0  0
   19.3351  -13.2953  -17.1645 C   0  0  0  0  0  0  0  0  0  0  0  0
   20.3382  -12.9122  -18.2179 C   0  0  2  0  0  0  0  0  0  0  0  0
   20.2345  -13.9284  -19.3597 C   0  0  0  0  0  0  0  0  0  0  0  0
   21.7089  -12.8756  -17.6437 C   0  0  2  0  0  0  0  0  0  0  0  0
   22.0392  -14.1235  -17.0385 N   0  0  0  0  0  0  0  0  0  0  0  0
   21.9285  -11.7171  -16.7415 C   0  0  0  0  0  0  0  0  0  0  0  0
   21.7420  -11.8410  -15.5145 O   0  0  0  0  0  0  0  0  0  0  0  0
   22.3503  -10.4263  -17.1748 N   0  0  0  0  0  0  0  0  0  0  0  0
   22.5449   -9.3133  -16.3212 C   0  0  1  0  0  0  0  0  0  0  0  0
   23.8842   -8.7720  -16.1169 C   0  0  0  0  0  0  0  0  0  0  0  0
   24.9792   -9.6589  -15.7784 C   0  0  0  0  0  0  0  0  0  0  0  0
   25.0728  -10.9921  -15.5906 C   0  0  0  0  0  0  0  0  0  0  0  0
   26.3579  -11.3566  -15.2955 N   0  0  0  0  0  0  0  0  0  0  0  0
   27.0358  -10.1962  -15.3124 C   0  0  0  0  0  0  0  0  0  0  0  0
   26.2467   -9.1749  -15.5952 N   0  0  0  0  0  0  0  0  0  0  0  0
   21.5459   -8.2338  -16.6672 C   0  0  0  0  0  0  0  0  0  0  0  0
   21.4404   -7.9461  -17.8803 O   0  0  0  0  0  0  0  0  0  0  0  0
   20.7668   -7.5725  -15.7129 N   0  0  0  0  0  0  0  0  0  0  0  0
   19.8066   -6.5247  -16.0444 C   0  0  1  0  0  0  0  0  0  0  0  0
   18.4667   -6.8199  -15.4104 C   0  0  0  0  0  0  0  0  0  0  0  0
   17.4205   -5.7998  -15.6967 C   0  0  0  0  0  0  0  0  0  0  0  0
   16.0710   -6.1321  -15.1227 C   0  0  0  0  0  0  0  0  0  0  0  0
   14.9848   -5.2218  -15.6179 C   0  0  0  0  0  0  0  0  0  0  0  0
   13.7260   -5.6740  -15.0130 N   0  0  0  0  0  0  0  0  0  0  0  0
   20.3733   -5.2422  -15.5960 C   0  0  0  0  0  0  0  0  0  0  0  0
   19.9844   -4.0375  -16.1488 O   0  0  0  0  0  0  0  0  0  0  0  0
   21.2341   -5.2343  -14.6869 O   0  0  0  0  0  0  0  0  0  0  0  0
  2  1  1  0
  2  3  1  0
  3  5  1  0
  3  4  1  6
  5  7  1  0
  5  6  1  1
  7  8  2  0
  9 10  1  0
  9  7  1  0
 10 11  1  6
 11 12  1  0
 12 16  1  0
 13 14  1  0
 13 12  2  0
 14 15  1  0
 15 16  2  0
 17 18  2  0
 17 10  1  0
 19 17  1  0
 20 19  1  0
 20 21  1  1
 22 21  1  0
 23 22  1  0
 24 23  1  0
 24 25  1  0
 26 20  1  0
 26 27  1  0
 28 26  2  0
M  END
$$$$
