IHK.pdb
     RDKit          3D

 28 28  0  0  1  0  0  0  0  0999 V2000
   27.6974  -20.9285   -7.7470 C   0  0  0  0  0  0  0  0  0  0  0  0
   27.9495  -21.1845   -9.1937 C   0  0  0  0  0  0  0  0  0  0  0  0
   26.8341  -20.7891  -10.1223 C   0  0  2  0  0  0  0  0  0  0  0  0
   25.5970  -21.6130   -9.7512 C   0  0  0  0  0  0  0  0  0  0  0  0
   27.2313  -21.0098  -11.5377 C   0  0  2  0  0  0  0  0  0  0  0  0
   28.5364  -20.4920  -11.7854 N   0  0  0  0  0  0  0  0  0  0  0  0
   26.2191  -20.5194  -12.5068 C   0  0  0  0  0  0  0  0  0  0  0  0
   25.8871  -19.3171  -12.5036 O   0  0  0  0  0  0  0  0  0  0  0  0
   25.5696  -21.3368  -13.4774 N   0  0  0  0  0  0  0  0  0  0  0  0
   24.5986  -20.8760  -14.3994 C   0  0  1  0  0  0  0  0  0  0  0  0
   24.9913  -20.5125  -15.7566 C   0  0  0  0  0  0  0  0  0  0  0  0
   26.0945  -19.5973  -15.9700 C   0  0  0  0  0  0  0  0  0  0  0  0
   26.8911  -18.8907  -15.1408 C   0  0  0  0  0  0  0  0  0  0  0  0
   27.8156  -18.1695  -15.8454 N   0  0  0  0  0  0  0  0  0  0  0  0
   27.5485  -18.4664  -17.1287 C   0  0  0  0  0  0  0  0  0  0  0  0
   26.5358  -19.3086  -17.2334 N   0  0  0  0  0  0  0  0  0  0  0  0
   23.4101  -21.8090  -14.3858 C   0  0  0  0  0  0  0  0  0  0  0  0
   23.6525  -23.0099  -14.1320 O   0  0  0  0  0  0  0  0  0  0  0  0
   22.1003  -21.3896  -14.6380 N   0  0  0  0  0  0  0  0  0  0  0  0
   20.9408  -22.2704  -14.5403 C   0  0  1  0  0  0  0  0  0  0  0  0
   20.0389  -21.8289  -13.4107 C   0  0  0  0  0  0  0  0  0  0  0  0
   18.7683  -22.5988  -13.3106 C   0  0  0  0  0  0  0  0  0  0  0  0
   17.8498  -22.1213  -12.2201 C   0  0  0  0  0  0  0  0  0  0  0  0
   16.5559  -22.8809  -12.1711 C   0  0  0  0  0  0  0  0  0  0  0  0
   15.7385  -22.2838  -11.1080 N   0  0  0  0  0  0  0  0  0  0  0  0
   20.2595  -22.2572  -15.8453 C   0  0  0  0  0  0  0  0  0  0  0  0
   20.3153  -21.1645  -16.6885 O   0  0  0  0  0  0  0  0  0  0  0  0
   19.6079  -23.2624  -16.2092 O   0  0  0  0  0  0  0  0  0  0  0  0
  2  1  1  0
  2  3  1  0
  3  5  1  0
  3  4  1  1
  5  7  1  0
  5  6  1  6
  7  8  2  0
  9 10  1  0
  9  7  1  0
 10 11  1  6
 11 12  1  0
 12 16  1  0
 13 14  1  0
 13 12  2  0
 14 15  1  0
 15 16  2  0
 17 18  2  0
 17 10  1  0
 19 17  1  0
 20 19  1  0
 20 21  1  1
 22 21  1  0
 23 22  1  0
 24 23  1  0
 24 25  1  0
 26 20  1  0
 26 27  1  0
 28 26  2  0
M  END
$$$$
