IHK.pdb
     RDKit          3D

 28 28  0  0  1  0  0  0  0  0999 V2000
   28.1920  -12.3940  -24.4112 C   0  0  0  0  0  0  0  0  0  0  0  0
   27.5831  -11.2422  -23.6868 C   0  0  0  0  0  0  0  0  0  0  0  0
   26.8496  -11.5916  -22.4209 C   0  0  2  0  0  0  0  0  0  0  0  0
   25.7556  -12.6044  -22.7740 C   0  0  0  0  0  0  0  0  0  0  0  0
   26.2796  -10.3699  -21.7946 C   0  0  2  0  0  0  0  0  0  0  0  0
   27.2870   -9.3789  -21.6060 N   0  0  0  0  0  0  0  0  0  0  0  0
   25.5103  -10.6579  -20.5578 C   0  0  0  0  0  0  0  0  0  0  0  0
   24.6835  -11.5917  -20.5435 O   0  0  0  0  0  0  0  0  0  0  0  0
   25.6411   -9.9303  -19.3391 N   0  0  0  0  0  0  0  0  0  0  0  0
   24.9287  -10.2163  -18.1492 C   0  0  1  0  0  0  0  0  0  0  0  0
   25.6500  -10.5449  -16.9244 C   0  0  0  0  0  0  0  0  0  0  0  0
   26.5129  -11.7084  -16.8829 C   0  0  0  0  0  0  0  0  0  0  0  0
   26.8029  -12.6839  -17.7693 C   0  0  0  0  0  0  0  0  0  0  0  0
   27.7092  -13.5663  -17.2483 N   0  0  0  0  0  0  0  0  0  0  0  0
   27.9555  -13.0883  -16.0166 C   0  0  0  0  0  0  0  0  0  0  0  0
   27.2624  -11.9902  -15.7724 N   0  0  0  0  0  0  0  0  0  0  0  0
   23.8834   -9.1494  -17.9203 C   0  0  0  0  0  0  0  0  0  0  0  0
   24.2461   -7.9684  -18.1178 O   0  0  0  0  0  0  0  0  0  0  0  0
   22.5759   -9.4289  -17.5112 N   0  0  0  0  0  0  0  0  0  0  0  0
   21.5423   -8.4087  -17.3682 C   0  0  1  0  0  0  0  0  0  0  0  0
   20.1911   -9.0542  -17.1633 C   0  0  0  0  0  0  0  0  0  0  0  0
   19.0647   -8.0863  -17.0558 C   0  0  0  0  0  0  0  0  0  0  0  0
   17.7182   -8.7335  -16.8855 C   0  0  0  0  0  0  0  0  0  0  0  0
   16.5917   -7.7416  -16.8602 C   0  0  0  0  0  0  0  0  0  0  0  0
   15.3375   -8.5037  -16.8893 N   0  0  0  0  0  0  0  0  0  0  0  0
   21.9280   -7.5372  -16.2461 C   0  0  0  0  0  0  0  0  0  0  0  0
   21.5730   -6.2031  -16.2006 O   0  0  0  0  0  0  0  0  0  0  0  0
   22.5978   -8.0118  -15.3008 O   0  0  0  0  0  0  0  0  0  0  0  0
  2  1  1  0
  2  3  1  0
  3  5  1  0
  3  4  1  6
  5  7  1  0
  5  6  1  1
  7  8  2  0
  9 10  1  0
  9  7  1  0
 10 11  1  1
 11 12  1  0
 12 16  1  0
 13 14  1  0
 13 12  2  0
 14 15  1  0
 15 16  2  0
 17 18  2  0
 17 10  1  0
 19 17  1  0
 20 19  1  0
 20 21  1  1
 22 21  1  0
 23 22  1  0
 24 23  1  0
 24 25  1  0
 26 20  1  0
 26 27  1  0
 28 26  2  0
M  END
$$$$
