IHK.pdb
     RDKit          3D

 28 28  0  0  1  0  0  0  0  0999 V2000
   12.7047  -27.0230   -2.8661 C   0  0  0  0  0  0  0  0  0  0  0  0
   13.5472  -25.8004   -2.9994 C   0  0  0  0  0  0  0  0  0  0  0  0
   14.0474  -25.2179   -1.7059 C   0  0  2  0  0  0  0  0  0  0  0  0
   12.8298  -24.8620   -0.8469 C   0  0  0  0  0  0  0  0  0  0  0  0
   14.8984  -24.0269   -1.9652 C   0  0  2  0  0  0  0  0  0  0  0  0
   15.9662  -24.3495   -2.8530 N   0  0  0  0  0  0  0  0  0  0  0  0
   15.3596  -23.3622   -0.7202 C   0  0  0  0  0  0  0  0  0  0  0  0
   16.2574  -23.8871   -0.0317 O   0  0  0  0  0  0  0  0  0  0  0  0
   14.8440  -22.1286   -0.2262 N   0  0  0  0  0  0  0  0  0  0  0  0
   15.2924  -21.4812    0.9507 C   0  0  1  0  0  0  0  0  0  0  0  0
   15.1183  -20.0412    1.1064 C   0  0  0  0  0  0  0  0  0  0  0  0
   15.6856  -19.3638    2.2552 C   0  0  0  0  0  0  0  0  0  0  0  0
   16.4472  -19.7702    3.2926 C   0  0  0  0  0  0  0  0  0  0  0  0
   16.7416  -18.7245    4.1240 N   0  0  0  0  0  0  0  0  0  0  0  0
   16.1309  -17.6733    3.5511 C   0  0  0  0  0  0  0  0  0  0  0  0
   15.4984  -18.0208    2.4443 N   0  0  0  0  0  0  0  0  0  0  0  0
   14.8043  -22.2435    2.1607 C   0  0  0  0  0  0  0  0  0  0  0  0
   13.6237  -22.6550    2.1158 O   0  0  0  0  0  0  0  0  0  0  0  0
   15.5985  -22.4933    3.2840 N   0  0  0  0  0  0  0  0  0  0  0  0
   15.1166  -23.1938    4.4701 C   0  0  1  0  0  0  0  0  0  0  0  0
   15.5874  -24.6300    4.4600 C   0  0  0  0  0  0  0  0  0  0  0  0
   15.1312  -25.4278    5.6316 C   0  0  0  0  0  0  0  0  0  0  0  0
   15.6284  -26.8469    5.6344 C   0  0  0  0  0  0  0  0  0  0  0  0
   15.0812  -27.6558    6.7744 C   0  0  0  0  0  0  0  0  0  0  0  0
   15.6159  -29.0164    6.6412 N   0  0  0  0  0  0  0  0  0  0  0  0
   15.5912  -22.4521    5.6498 C   0  0  0  0  0  0  0  0  0  0  0  0
   14.9576  -22.5419    6.8739 O   0  0  0  0  0  0  0  0  0  0  0  0
   16.5987  -21.7157    5.5491 O   0  0  0  0  0  0  0  0  0  0  0  0
  2  1  1  0
  2  3  1  0
  3  5  1  0
  3  4  1  1
  5  7  1  0
  5  6  1  1
  7  8  2  0
  9 10  1  0
  9  7  1  0
 10 11  1  1
 11 12  1  0
 12 16  1  0
 13 14  1  0
 13 12  2  0
 14 15  1  0
 15 16  2  0
 17 18  2  0
 17 10  1  0
 19 17  1  0
 20 19  1  0
 20 21  1  1
 22 21  1  0
 23 22  1  0
 24 23  1  0
 24 25  1  0
 26 20  1  0
 26 27  1  0
 28 26  2  0
M  END
$$$$
