IHK.pdb
     RDKit          3D

 28 28  0  0  1  0  0  0  0  0999 V2000
   29.0873  -20.5861   -4.3062 C   0  0  0  0  0  0  0  0  0  0  0  0
   27.7562  -20.5282   -4.9747 C   0  0  0  0  0  0  0  0  0  0  0  0
   27.7877  -20.2352   -6.4498 C   0  0  2  0  0  0  0  0  0  0  0  0
   28.4538  -18.8694   -6.6452 C   0  0  0  0  0  0  0  0  0  0  0  0
   26.4130  -20.2569   -7.0150 C   0  0  2  0  0  0  0  0  0  0  0  0
   25.6908  -21.3948   -6.5501 N   0  0  0  0  0  0  0  0  0  0  0  0
   26.3921  -20.1208   -8.4934 C   0  0  0  0  0  0  0  0  0  0  0  0
   27.0066  -19.1830   -9.0398 O   0  0  0  0  0  0  0  0  0  0  0  0
   25.7031  -21.0042   -9.3747 N   0  0  0  0  0  0  0  0  0  0  0  0
   25.6894  -20.8861  -10.7858 C   0  0  1  0  0  0  0  0  0  0  0  0
   26.4084  -21.8525  -11.6089 C   0  0  0  0  0  0  0  0  0  0  0  0
   27.0655  -21.4194  -12.8258 C   0  0  0  0  0  0  0  0  0  0  0  0
   27.1515  -20.2343  -13.4658 C   0  0  0  0  0  0  0  0  0  0  0  0
   27.9181  -20.3407  -14.5937 N   0  0  0  0  0  0  0  0  0  0  0  0
   28.2917  -21.6316  -14.6111 C   0  0  0  0  0  0  0  0  0  0  0  0
   27.8026  -22.2943  -13.5779 N   0  0  0  0  0  0  0  0  0  0  0  0
   24.2685  -20.6866  -11.2597 C   0  0  0  0  0  0  0  0  0  0  0  0
   23.3688  -21.1309  -10.5124 O   0  0  0  0  0  0  0  0  0  0  0  0
   23.9405  -20.0470  -12.4590 N   0  0  0  0  0  0  0  0  0  0  0  0
   22.5686  -19.8448  -12.9136 C   0  0  1  0  0  0  0  0  0  0  0  0
   22.5308  -18.8353  -14.0379 C   0  0  0  0  0  0  0  0  0  0  0  0
   21.1670  -18.5756  -14.5764 C   0  0  0  0  0  0  0  0  0  0  0  0
   21.1463  -17.6623  -15.7707 C   0  0  0  0  0  0  0  0  0  0  0  0
   19.7596  -17.4004  -16.2825 C   0  0  0  0  0  0  0  0  0  0  0  0
   19.8718  -16.4143  -17.3641 N   0  0  0  0  0  0  0  0  0  0  0  0
   22.0335  -21.1565  -13.3141 C   0  0  0  0  0  0  0  0  0  0  0  0
   20.7038  -21.4879  -13.1405 O   0  0  0  0  0  0  0  0  0  0  0  0
   22.7998  -22.0025  -13.8282 O   0  0  0  0  0  0  0  0  0  0  0  0
  2  1  1  0
  2  3  1  0
  3  5  1  0
  3  4  1  1
  5  7  1  0
  5  6  1  6
  7  8  2  0
  9 10  1  0
  9  7  1  0
 10 11  1  6
 11 12  1  0
 12 16  1  0
 13 14  1  0
 13 12  2  0
 14 15  1  0
 15 16  2  0
 17 18  2  0
 17 10  1  0
 19 17  1  0
 20 19  1  0
 20 21  1  6
 22 21  1  0
 23 22  1  0
 24 23  1  0
 24 25  1  0
 26 20  1  0
 26 27  1  0
 28 26  2  0
M  END
$$$$
