ADI.pdb
     RDKit          3D

 22 21  0  0  1  0  0  0  0  0999 V2000
   32.3030  -24.8104  -19.1285 C   0  0  0  0  0  0  0  0  0  0  0  0
   32.0454  -24.4990  -17.6524 C   0  0  2  0  0  0  0  0  0  0  0  0
   32.6954  -25.5643  -16.8946 N   0  0  0  0  0  0  0  0  0  0  0  0
   30.5876  -24.4758  -17.3667 C   0  0  0  0  0  0  0  0  0  0  0  0
   30.0670  -25.4744  -16.7906 O   0  0  0  0  0  0  0  0  0  0  0  0
   29.7393  -23.4018  -17.6996 N   0  0  0  0  0  0  0  0  0  0  0  0
   28.3132  -23.4347  -17.2244 C   0  0  1  0  0  0  0  0  0  0  0  0
   28.1478  -22.0471  -16.6476 C   0  0  0  0  0  0  0  0  0  0  0  0
   26.8848  -21.6783  -16.0711 C   0  0  0  0  0  0  0  0  0  0  0  0
   25.8399  -22.3384  -15.9324 O   0  0  0  0  0  0  0  0  0  0  0  0
   27.4486  -23.5835  -18.3967 C   0  0  0  0  0  0  0  0  0  0  0  0
   27.7827  -22.9370  -19.4614 O   0  0  0  0  0  0  0  0  0  0  0  0
   26.7820  -20.3481  -15.5686 O   0  0  0  0  0  0  0  0  0  0  0  0
   26.6059  -26.7854  -22.4630 C   0  0  0  0  0  0  0  0  0  0  0  0
   26.4904  -25.5447  -21.6625 C   0  0  0  0  0  0  0  0  0  0  0  0
   25.4764  -25.5281  -20.5762 C   0  0  2  0  0  0  0  0  0  0  0  0
   24.0975  -25.9745  -21.0469 C   0  0  0  0  0  0  0  0  0  0  0  0
   25.4344  -24.3055  -19.7257 C   0  0  2  0  0  0  0  0  0  0  0  0
   26.2797  -24.3471  -18.5501 N   0  0  0  0  0  0  0  0  0  0  0  0
   24.0294  -24.0768  -19.2985 C   0  0  0  0  0  0  0  0  0  0  0  0
   23.5158  -24.5733  -18.1116 O   0  0  0  0  0  0  0  0  0  0  0  0
   23.2340  -23.4066  -20.0172 O   0  0  0  0  0  0  0  0  0  0  0  0
  2  1  1  6
  2  3  1  0
  4  2  1  0
  5  4  2  0
  6  4  1  0
  7  6  1  0
  7 11  1  0
  7  8  1  6
  9 10  2  0
  9  8  1  0
 11 12  2  0
 11 19  1  0
 13  9  1  0
 15 14  1  0
 16 15  1  0
 16 17  1  6
 18 16  1  0
 18 20  1  0
 18 19  1  1
 20 21  1  0
 22 20  2  0
M  END
$$$$
