ADI.pdb
     RDKit          3D

 22 21  0  0  1  0  0  0  0  0999 V2000
   15.9038  -11.4274  -17.4424 C   0  0  0  0  0  0  0  0  0  0  0  0
   16.8575  -11.0818  -16.2964 C   0  0  2  0  0  0  0  0  0  0  0  0
   16.0804  -11.2183  -15.0680 N   0  0  0  0  0  0  0  0  0  0  0  0
   17.3653   -9.6925  -16.4360 C   0  0  0  0  0  0  0  0  0  0  0  0
   18.1203   -9.4186  -17.4133 O   0  0  0  0  0  0  0  0  0  0  0  0
   17.0564   -8.6500  -15.5406 N   0  0  0  0  0  0  0  0  0  0  0  0
   17.6676   -7.2957  -15.7716 C   0  0  1  0  0  0  0  0  0  0  0  0
   16.5070   -6.3768  -15.4648 C   0  0  0  0  0  0  0  0  0  0  0  0
   16.7341   -4.9591  -15.4200 C   0  0  0  0  0  0  0  0  0  0  0  0
   16.0232   -4.0439  -14.9684 O   0  0  0  0  0  0  0  0  0  0  0  0
   18.7233   -7.0997  -14.7761 C   0  0  0  0  0  0  0  0  0  0  0  0
   18.4401   -7.3894  -13.5517 O   0  0  0  0  0  0  0  0  0  0  0  0
   17.9632   -4.4964  -15.9746 O   0  0  0  0  0  0  0  0  0  0  0  0
   23.9086   -8.7534  -15.5151 C   0  0  0  0  0  0  0  0  0  0  0  0
   22.8939   -7.6913  -15.3262 C   0  0  0  0  0  0  0  0  0  0  0  0
   22.0804   -7.7412  -14.0836 C   0  0  2  0  0  0  0  0  0  0  0  0
   21.5450   -9.1357  -13.7823 C   0  0  0  0  0  0  0  0  0  0  0  0
   21.0533   -6.6744  -13.9190 C   0  0  2  0  0  0  0  0  0  0  0  0
   20.0377   -6.6366  -14.9513 N   0  0  0  0  0  0  0  0  0  0  0  0
   21.7433   -5.3588  -13.8764 C   0  0  0  0  0  0  0  0  0  0  0  0
   22.5035   -4.9450  -12.7947 O   0  0  0  0  0  0  0  0  0  0  0  0
   21.6606   -4.5514  -14.8457 O   0  0  0  0  0  0  0  0  0  0  0  0
  2  1  1  6
  2  3  1  0
  4  2  1  0
  5  4  2  0
  6  4  1  0
  7  6  1  0
  7 11  1  0
  7  8  1  1
  9 10  2  0
  9  8  1  0
 11 12  2  0
 11 19  1  0
 13  9  1  0
 15 14  1  0
 16 15  1  0
 16 17  1  6
 18 16  1  0
 18 20  1  0
 18 19  1  6
 20 21  1  0
 22 20  2  0
M  END
$$$$
