ADI.pdb
     RDKit          3D

 22 21  0  0  1  0  0  0  0  0999 V2000
   19.3248  -10.9403  -20.8092 C   0  0  0  0  0  0  0  0  0  0  0  0
   19.3412  -10.6512  -19.3064 C   0  0  2  0  0  0  0  0  0  0  0  0
   17.9477  -10.4577  -18.9163 N   0  0  0  0  0  0  0  0  0  0  0  0
   20.1350   -9.4296  -19.0147 C   0  0  0  0  0  0  0  0  0  0  0  0
   21.3792   -9.5477  -18.8196 O   0  0  0  0  0  0  0  0  0  0  0  0
   19.5850   -8.1350  -18.9410 N   0  0  0  0  0  0  0  0  0  0  0  0
   20.5022   -6.9762  -18.6637 C   0  0  1  0  0  0  0  0  0  0  0  0
   19.7414   -5.8255  -19.2822 C   0  0  0  0  0  0  0  0  0  0  0  0
   20.2910   -5.1660  -20.4339 C   0  0  0  0  0  0  0  0  0  0  0  0
   19.7562   -4.3985  -21.2536 O   0  0  0  0  0  0  0  0  0  0  0  0
   20.5734   -6.7922  -17.2129 C   0  0  0  0  0  0  0  0  0  0  0  0
   19.4597   -6.7972  -16.5626 O   0  0  0  0  0  0  0  0  0  0  0  0
   21.6685   -5.4112  -20.7072 O   0  0  0  0  0  0  0  0  0  0  0  0
   23.1802  -10.1207  -14.4624 C   0  0  0  0  0  0  0  0  0  0  0  0
   22.1975   -9.0787  -14.8388 C   0  0  0  0  0  0  0  0  0  0  0  0
   22.4085   -7.7143  -14.2889 C   0  0  2  0  0  0  0  0  0  0  0  0
   22.3285   -7.6704  -12.7678 C   0  0  0  0  0  0  0  0  0  0  0  0
   21.6531   -6.6100  -14.9445 C   0  0  2  0  0  0  0  0  0  0  0  0
   21.6989   -6.6109  -16.3923 N   0  0  0  0  0  0  0  0  0  0  0  0
   22.1869   -5.3147  -14.4484 C   0  0  0  0  0  0  0  0  0  0  0  0
   21.8359   -4.7798  -13.2196 O   0  0  0  0  0  0  0  0  0  0  0  0
   22.9981   -4.6387  -15.1435 O   0  0  0  0  0  0  0  0  0  0  0  0
  2  1  1  6
  2  3  1  0
  4  2  1  0
  5  4  2  0
  6  4  1  0
  7  6  1  0
  7 11  1  0
  7  8  1  6
  9 10  2  0
  9  8  1  0
 11 12  2  0
 11 19  1  0
 13  9  1  0
 15 14  1  0
 16 15  1  0
 16 17  1  1
 18 16  1  0
 18 20  1  0
 18 19  1  6
 20 21  1  0
 22 20  2  0
M  END
$$$$
