ADI.pdb
     RDKit          3D

 22 21  0  0  1  0  0  0  0  0999 V2000
   13.5216  -11.2309  -14.0178 C   0  0  0  0  0  0  0  0  0  0  0  0
   14.9991  -11.1734  -14.4130 C   0  0  2  0  0  0  0  0  0  0  0  0
   15.4336  -12.5598  -14.5573 N   0  0  0  0  0  0  0  0  0  0  0  0
   15.7973  -10.4872  -13.3646 C   0  0  0  0  0  0  0  0  0  0  0  0
   16.0650  -11.1143  -12.2991 O   0  0  0  0  0  0  0  0  0  0  0  0
   16.2802   -9.1692  -13.4823 N   0  0  0  0  0  0  0  0  0  0  0  0
   17.1231   -8.6078  -12.3710 C   0  0  1  0  0  0  0  0  0  0  0  0
   18.1110   -7.7545  -13.1336 C   0  0  0  0  0  0  0  0  0  0  0  0
   19.2307   -8.3880  -13.7727 C   0  0  0  0  0  0  0  0  0  0  0  0
   20.0134   -9.2570  -13.3494 O   0  0  0  0  0  0  0  0  0  0  0  0
   16.2709   -7.7499  -11.5453 C   0  0  0  0  0  0  0  0  0  0  0  0
   15.5499   -6.8722  -12.1561 O   0  0  0  0  0  0  0  0  0  0  0  0
   19.5157   -7.9749  -15.1071 O   0  0  0  0  0  0  0  0  0  0  0  0
   12.6877   -9.1252   -7.9561 C   0  0  0  0  0  0  0  0  0  0  0  0
   13.3519   -8.2476   -8.9470 C   0  0  0  0  0  0  0  0  0  0  0  0
   14.3711   -7.2943   -8.4359 C   0  0  2  0  0  0  0  0  0  0  0  0
   13.7777   -6.2240   -7.5279 C   0  0  0  0  0  0  0  0  0  0  0  0
   15.3273   -6.7443   -9.4376 C   0  0  2  0  0  0  0  0  0  0  0  0
   16.1061   -7.7359  -10.1505 N   0  0  0  0  0  0  0  0  0  0  0  0
   16.2550   -5.8146   -8.7422 C   0  0  0  0  0  0  0  0  0  0  0  0
   17.5052   -6.2022   -8.2885 O   0  0  0  0  0  0  0  0  0  0  0  0
   15.9314   -4.6102   -8.5344 O   0  0  0  0  0  0  0  0  0  0  0  0
  2  1  1  1
  2  3  1  0
  4  2  1  0
  5  4  2  0
  6  4  1  0
  7  6  1  0
  7 11  1  0
  7  8  1  6
  9 10  2  0
  9  8  1  0
 11 12  2  0
 11 19  1  0
 13  9  1  0
 15 14  1  0
 16 15  1  0
 16 17  1  6
 18 16  1  0
 18 20  1  0
 18 19  1  1
 20 21  1  0
 22 20  2  0
M  END
$$$$
