ESM.pdb
     RDKit          3D

 24 23  0  0  1  0  0  0  0  0999 V2000
   12.5451   -8.6910   -9.7144 N   0  0  0  0  0  0  0  0  0  0  0  0
   13.9808   -8.9027   -9.6257 C   0  0  1  0  0  0  0  0  0  0  0  0
   14.3160  -10.1164  -10.4104 C   0  0  0  0  0  0  0  0  0  0  0  0
   13.7985  -11.3571   -9.7646 C   0  0  0  0  0  0  0  0  0  0  0  0
   14.1364  -12.6155  -10.4524 C   0  0  0  0  0  0  0  0  0  0  0  0
   15.3087  -13.0370  -10.5205 O   0  0  0  0  0  0  0  0  0  0  0  0
   14.7263   -7.6947  -10.0781 C   0  0  0  0  0  0  0  0  0  0  0  0
   14.4207   -7.1057  -11.1439 O   0  0  0  0  0  0  0  0  0  0  0  0
   13.1466  -13.3902  -11.0595 O   0  0  0  0  0  0  0  0  0  0  0  0
   16.5662   -4.9735   -7.5059 O   0  0  0  0  0  0  0  0  0  0  0  0
   16.2520   -4.7855   -8.8277 C   0  0  0  0  0  0  0  0  0  0  0  0
   16.5358   -5.9636   -9.7115 C   0  0  2  0  0  0  0  0  0  0  0  0
   15.8164   -7.1560   -9.3230 N   0  0  0  0  0  0  0  0  0  0  0  0
   17.9676   -6.2067   -9.9449 C   0  0  0  0  0  0  0  0  0  0  0  0
   18.6634   -6.7237   -9.0536 O   0  0  0  0  0  0  0  0  0  0  0  0
   23.4007   -9.6278  -13.8703 C   0  0  0  0  0  0  0  0  0  0  0  0
   21.7229   -9.2216  -13.3863 S   0  0  0  0  0  0  0  0  0  0  0  0
   21.5627   -7.6209  -12.6237 C   0  0  0  0  0  0  0  0  0  0  0  0
   20.2010   -7.3452  -12.1227 C   0  0  0  0  0  0  0  0  0  0  0  0
   19.9993   -6.0539  -11.4641 C   0  0  2  0  0  0  0  0  0  0  0  0
   18.5581   -5.8608  -11.1649 N   0  0  0  0  0  0  0  0  0  0  0  0
   20.4295   -4.8864  -12.2183 C   0  0  0  0  0  0  0  0  0  0  0  0
   19.7055   -4.1058  -12.8570 O   0  0  0  0  0  0  0  0  0  0  0  0
   21.8209   -4.5804  -12.2462 O   0  0  0  0  0  0  0  0  0  0  0  0
  2  1  1  6
  3  2  1  0
  4  3  1  0
  5  6  2  0
  5  4  1  0
  7  2  1  0
  8  7  2  0
  9  5  1  0
 11 10  1  0
 12 11  1  1
 12 14  1  0
 12 13  1  0
 13  7  1  0
 14 21  1  0
 15 14  2  0
 17 16  1  0
 18 17  1  0
 19 18  1  0
 20 19  1  6
 20 22  1  0
 21 20  1  0
 22 23  2  0
 22 24  1  0
M  END
$$$$
