ESM.pdb
     RDKit          3D

 24 23  0  0  1  0  0  0  0  0999 V2000
   26.1470  -19.5854  -16.4928 N   0  0  0  0  0  0  0  0  0  0  0  0
   26.9585  -19.7201  -15.2940 C   0  0  1  0  0  0  0  0  0  0  0  0
   28.1748  -18.8883  -15.4664 C   0  0  0  0  0  0  0  0  0  0  0  0
   28.0051  -17.8707  -16.5434 C   0  0  0  0  0  0  0  0  0  0  0  0
   28.8594  -18.0572  -17.7293 C   0  0  0  0  0  0  0  0  0  0  0  0
   29.5227  -19.0987  -17.9084 O   0  0  0  0  0  0  0  0  0  0  0  0
   26.1765  -19.3601  -14.0782 C   0  0  0  0  0  0  0  0  0  0  0  0
   25.7263  -18.1991  -13.9171 O   0  0  0  0  0  0  0  0  0  0  0  0
   28.9589  -17.0650  -18.7059 O   0  0  0  0  0  0  0  0  0  0  0  0
   22.9710  -20.7993  -11.1264 O   0  0  0  0  0  0  0  0  0  0  0  0
   23.6514  -20.0940  -12.0861 C   0  0  0  0  0  0  0  0  0  0  0  0
   25.1323  -20.0062  -11.8651 C   0  0  2  0  0  0  0  0  0  0  0  0
   25.9057  -20.3150  -13.0469 N   0  0  0  0  0  0  0  0  0  0  0  0
   25.6030  -20.7190  -10.6677 C   0  0  0  0  0  0  0  0  0  0  0  0
   25.6572  -21.9612  -10.6652 O   0  0  0  0  0  0  0  0  0  0  0  0
   29.9178  -19.8623   -4.6801 C   0  0  0  0  0  0  0  0  0  0  0  0
   28.3573  -19.0743   -5.0779 S   0  0  0  0  0  0  0  0  0  0  0  0
   27.2290  -20.1239   -5.9691 C   0  0  0  0  0  0  0  0  0  0  0  0
   27.0964  -19.7630   -7.3951 C   0  0  0  0  0  0  0  0  0  0  0  0
   26.2769  -20.6536   -8.2180 C   0  0  2  0  0  0  0  0  0  0  0  0
   25.9923  -20.0111   -9.5257 N   0  0  0  0  0  0  0  0  0  0  0  0
   24.9921  -21.0333   -7.6506 C   0  0  0  0  0  0  0  0  0  0  0  0
   23.8765  -20.5995   -7.9804 O   0  0  0  0  0  0  0  0  0  0  0  0
   24.9795  -22.0020   -6.6058 O   0  0  0  0  0  0  0  0  0  0  0  0
  2  1  1  6
  3  2  1  0
  4  3  1  0
  5  6  2  0
  5  4  1  0
  7  2  1  0
  8  7  2  0
  9  5  1  0
 11 10  1  0
 12 11  1  6
 12 14  1  0
 12 13  1  0
 13  7  1  0
 14 21  1  0
 15 14  2  0
 17 16  1  0
 18 17  1  0
 19 18  1  0
 20 19  1  1
 20 22  1  0
 21 20  1  0
 22 23  2  0
 22 24  1  0
M  END
$$$$
