ESM.pdb
     RDKit          3D

 24 23  0  0  1  0  0  0  0  0999 V2000
   16.8779  -11.7448  -17.2079 N   0  0  0  0  0  0  0  0  0  0  0  0
   18.1993  -11.3116  -16.7835 C   0  0  1  0  0  0  0  0  0  0  0  0
   19.1526  -11.5987  -17.8834 C   0  0  0  0  0  0  0  0  0  0  0  0
   19.3817  -13.0625  -18.0534 C   0  0  0  0  0  0  0  0  0  0  0  0
   20.1924  -13.7014  -17.0020 C   0  0  0  0  0  0  0  0  0  0  0  0
   19.7938  -14.7067  -16.3797 O   0  0  0  0  0  0  0  0  0  0  0  0
   18.1870   -9.8758  -16.3859 C   0  0  0  0  0  0  0  0  0  0  0  0
   17.9292   -8.9742  -17.2208 O   0  0  0  0  0  0  0  0  0  0  0  0
   21.4494  -13.1999  -16.6600 O   0  0  0  0  0  0  0  0  0  0  0  0
   18.5461   -8.5258  -12.2616 O   0  0  0  0  0  0  0  0  0  0  0  0
   17.9389   -7.8335  -13.2781 C   0  0  0  0  0  0  0  0  0  0  0  0
   18.5242   -8.0774  -14.6374 C   0  0  2  0  0  0  0  0  0  0  0  0
   18.4665   -9.4636  -15.0441 N   0  0  0  0  0  0  0  0  0  0  0  0
   19.8514   -7.4751  -14.8354 C   0  0  0  0  0  0  0  0  0  0  0  0
   20.8744   -8.1705  -14.7098 O   0  0  0  0  0  0  0  0  0  0  0  0
   23.4473   -0.9880  -17.7322 C   0  0  0  0  0  0  0  0  0  0  0  0
   21.9902   -1.9852  -17.4214 S   0  0  0  0  0  0  0  0  0  0  0  0
   22.2893   -3.3834  -16.3608 C   0  0  0  0  0  0  0  0  0  0  0  0
   21.0840   -4.2011  -16.1166 C   0  0  0  0  0  0  0  0  0  0  0  0
   21.2804   -5.4409  -15.3643 C   0  0  2  0  0  0  0  0  0  0  0  0
   19.9760   -6.1214  -15.1653 N   0  0  0  0  0  0  0  0  0  0  0  0
   21.8791   -5.2918  -14.0467 C   0  0  0  0  0  0  0  0  0  0  0  0
   21.2808   -5.2363  -12.9602 O   0  0  0  0  0  0  0  0  0  0  0  0
   23.2983   -5.1970  -13.9609 O   0  0  0  0  0  0  0  0  0  0  0  0
  2  1  1  6
  3  2  1  0
  4  3  1  0
  5  6  2  0
  5  4  1  0
  7  2  1  0
  8  7  2  0
  9  5  1  0
 11 10  1  0
 12 11  1  1
 12 14  1  0
 12 13  1  0
 13  7  1  0
 14 21  1  0
 15 14  2  0
 17 16  1  0
 18 17  1  0
 19 18  1  0
 20 19  1  1
 20 22  1  0
 21 20  1  0
 22 23  2  0
 22 24  1  0
M  END
$$$$
