ESM.pdb
     RDKit          3D

 24 23  0  0  1  0  0  0  0  0999 V2000
   18.9722  -10.8111  -18.3843 N   0  0  0  0  0  0  0  0  0  0  0  0
   20.1579  -10.4756  -17.6125 C   0  0  1  0  0  0  0  0  0  0  0  0
   21.2752  -10.2482  -18.5617 C   0  0  0  0  0  0  0  0  0  0  0  0
   21.7168  -11.5140  -19.2150 C   0  0  0  0  0  0  0  0  0  0  0  0
   22.8531  -11.3828  -20.1437 C   0  0  0  0  0  0  0  0  0  0  0  0
   22.7527  -10.7752  -21.2288 O   0  0  0  0  0  0  0  0  0  0  0  0
   19.9027   -9.3062  -16.7253 C   0  0  0  0  0  0  0  0  0  0  0  0
   19.6640   -8.1699  -17.2031 O   0  0  0  0  0  0  0  0  0  0  0  0
   24.0966  -11.9395  -19.8402 O   0  0  0  0  0  0  0  0  0  0  0  0
   18.3043   -9.5351  -12.9503 O   0  0  0  0  0  0  0  0  0  0  0  0
   19.3762   -8.6818  -13.0172 C   0  0  0  0  0  0  0  0  0  0  0  0
   19.7814   -8.2949  -14.4085 C   0  0  2  0  0  0  0  0  0  0  0  0
   19.9183   -9.4256  -15.2991 N   0  0  0  0  0  0  0  0  0  0  0  0
   20.9290   -7.3766  -14.4649 C   0  0  0  0  0  0  0  0  0  0  0  0
   22.0011   -7.7521  -14.9705 O   0  0  0  0  0  0  0  0  0  0  0  0
   24.4558   -2.2453  -18.0896 C   0  0  0  0  0  0  0  0  0  0  0  0
   23.3517   -3.5887  -17.6528 S   0  0  0  0  0  0  0  0  0  0  0  0
   23.0769   -3.7522  -15.9015 C   0  0  0  0  0  0  0  0  0  0  0  0
   22.1268   -4.8290  -15.5564 C   0  0  0  0  0  0  0  0  0  0  0  0
   21.8740   -5.0411  -14.1305 C   0  0  2  0  0  0  0  0  0  0  0  0
   20.8270   -6.0785  -13.9535 N   0  0  0  0  0  0  0  0  0  0  0  0
   21.4329   -3.8710  -13.3867 C   0  0  0  0  0  0  0  0  0  0  0  0
   20.2681   -3.5958  -13.0564 O   0  0  0  0  0  0  0  0  0  0  0  0
   22.4165   -2.9236  -12.9804 O   0  0  0  0  0  0  0  0  0  0  0  0
  2  1  1  6
  3  2  1  0
  4  3  1  0
  5  6  2  0
  5  4  1  0
  7  2  1  0
  8  7  2  0
  9  5  1  0
 11 10  1  0
 12 11  1  1
 12 14  1  0
 12 13  1  0
 13  7  1  0
 14 21  1  0
 15 14  2  0
 17 16  1  0
 18 17  1  0
 19 18  1  0
 20 19  1  6
 20 22  1  0
 21 20  1  0
 22 23  2  0
 22 24  1  0
M  END
$$$$
