ESM.pdb
     RDKit          3D

 24 23  0  0  1  0  0  0  0  0999 V2000
   17.7325  -12.8074  -14.8803 N   0  0  0  0  0  0  0  0  0  0  0  0
   17.3174  -11.4316  -15.1012 C   0  0  1  0  0  0  0  0  0  0  0  0
   15.9033  -11.4446  -15.5501 C   0  0  0  0  0  0  0  0  0  0  0  0
   15.7747  -11.8764  -16.9718 C   0  0  0  0  0  0  0  0  0  0  0  0
   16.1955  -10.8823  -17.9745 C   0  0  0  0  0  0  0  0  0  0  0  0
   15.6004   -9.7950  -18.1171 O   0  0  0  0  0  0  0  0  0  0  0  0
   17.5306  -10.6079  -13.8782 C   0  0  0  0  0  0  0  0  0  0  0  0
   17.1662  -11.0179  -12.7488 O   0  0  0  0  0  0  0  0  0  0  0  0
   17.2870  -11.1233  -18.8107 O   0  0  0  0  0  0  0  0  0  0  0  0
   19.1758   -6.5313  -13.9128 O   0  0  0  0  0  0  0  0  0  0  0  0
   19.5081   -7.4945  -12.9945 C   0  0  0  0  0  0  0  0  0  0  0  0
   18.4477   -8.5295  -12.7626 C   0  0  2  0  0  0  0  0  0  0  0  0
   18.1560   -9.3218  -13.9363 N   0  0  0  0  0  0  0  0  0  0  0  0
   17.2388   -8.0120  -12.1035 C   0  0  0  0  0  0  0  0  0  0  0  0
   16.2414   -7.7114  -12.7823 O   0  0  0  0  0  0  0  0  0  0  0  0
   12.2223   -7.3346   -6.7261 C   0  0  0  0  0  0  0  0  0  0  0  0
   13.5806   -8.0883   -7.6212 S   0  0  0  0  0  0  0  0  0  0  0  0
   15.0322   -7.0625   -7.7212 C   0  0  0  0  0  0  0  0  0  0  0  0
   16.0895   -7.6272   -8.5839 C   0  0  0  0  0  0  0  0  0  0  0  0
   16.0638   -7.2265   -9.9913 C   0  0  2  0  0  0  0  0  0  0  0  0
   17.1988   -7.8534  -10.7143 N   0  0  0  0  0  0  0  0  0  0  0  0
   16.1477   -5.7958  -10.2421 C   0  0  0  0  0  0  0  0  0  0  0  0
   17.1797   -5.1358  -10.4439 O   0  0  0  0  0  0  0  0  0  0  0  0
   14.9363   -5.0460  -10.2648 O   0  0  0  0  0  0  0  0  0  0  0  0
  2  1  1  1
  3  2  1  0
  4  3  1  0
  5  6  2  0
  5  4  1  0
  7  2  1  0
  8  7  2  0
  9  5  1  0
 11 10  1  0
 12 11  1  6
 12 14  1  0
 12 13  1  0
 13  7  1  0
 14 21  1  0
 15 14  2  0
 17 16  1  0
 18 17  1  0
 19 18  1  0
 20 19  1  1
 20 22  1  0
 21 20  1  0
 22 23  2  0
 22 24  1  0
M  END
$$$$
