SES.pdb
     RDKit          3D

 22 21  0  0  1  0  0  0  0  0999 V2000
    8.1935  -12.7030   17.6279 O   0  0  0  0  0  0  0  0  0  0  0  0
    8.5052  -13.7360   18.4788 C   0  0  0  0  0  0  0  0  0  0  0  0
    9.0931  -14.9558   17.7846 C   0  0  2  0  0  0  0  0  0  0  0  0
    7.9874  -15.5131   17.0077 N   0  0  0  0  0  0  0  0  0  0  0  0
    9.5952  -15.9447   18.7653 C   0  0  0  0  0  0  0  0  0  0  0  0
    8.8242  -16.8249   19.1870 O   0  0  0  0  0  0  0  0  0  0  0  0
   10.9243  -15.9018   19.2252 N   0  0  0  0  0  0  0  0  0  0  0  0
   11.5255  -16.7403   20.1943 C   0  0  1  0  0  0  0  0  0  0  0  0
   12.9565  -17.0802   20.0209 C   0  0  0  0  0  0  0  0  0  0  0  0
   13.5309  -18.0937   20.9515 C   0  0  0  0  0  0  0  0  0  0  0  0
   14.9747  -18.2533   20.5484 C   0  0  0  0  0  0  0  0  0  0  0  0
   15.6256  -17.2471   20.1255 O   0  0  0  0  0  0  0  0  0  0  0  0
   11.2228  -16.4128   21.6136 C   0  0  0  0  0  0  0  0  0  0  0  0
   11.5471  -15.2686   22.0204 O   0  0  0  0  0  0  0  0  0  0  0  0
   15.6338  -19.4806   20.6203 O   0  0  0  0  0  0  0  0  0  0  0  0
    7.8298  -16.6475   23.9639 O   0  0  0  0  0  0  0  0  0  0  0  0
    8.9010  -17.4373   24.2976 C   0  0  0  0  0  0  0  0  0  0  0  0
   10.2264  -16.8367   23.8905 C   0  0  2  0  0  0  0  0  0  0  0  0
   10.6072  -17.2712   22.5449 N   0  0  0  0  0  0  0  0  0  0  0  0
   11.2767  -17.2178   24.8739 C   0  0  0  0  0  0  0  0  0  0  0  0
   11.2759  -16.8161   26.1944 O   0  0  0  0  0  0  0  0  0  0  0  0
   12.2129  -17.9481   24.4680 O   0  0  0  0  0  0  0  0  0  0  0  0
  2  1  1  0
  3  2  1  0
  3  4  1  1
  5  3  1  0
  6  5  2  0
  7  5  1  0
  8  7  1  0
  8 13  1  0
  8  9  1  1
 10  9  1  0
 10 11  1  0
 11 12  2  0
 13 14  2  0
 13 19  1  0
 15 11  1  0
 16 17  1  0
 18 17  1  1
 18 20  1  0
 19 18  1  0
 20 21  1  0
 22 20  2  0
M  END
$$$$
