SES.pdb
     RDKit          3D

 22 21  0  0  1  0  0  0  0  0999 V2000
    8.2284  -15.5760   15.4228 O   0  0  0  0  0  0  0  0  0  0  0  0
    8.7417  -15.9573   16.6391 C   0  0  0  0  0  0  0  0  0  0  0  0
    9.1182  -17.4295   16.7197 C   0  0  2  0  0  0  0  0  0  0  0  0
    7.8491  -18.1466   16.6111 N   0  0  0  0  0  0  0  0  0  0  0  0
    9.7902  -17.7448   18.0006 C   0  0  0  0  0  0  0  0  0  0  0  0
    9.1051  -18.1236   18.9671 O   0  0  0  0  0  0  0  0  0  0  0  0
   11.1851  -17.6214   18.1392 N   0  0  0  0  0  0  0  0  0  0  0  0
   11.9657  -17.9295   19.2790 C   0  0  1  0  0  0  0  0  0  0  0  0
   13.3862  -18.2906   19.0659 C   0  0  0  0  0  0  0  0  0  0  0  0
   14.1634  -18.7229   20.2626 C   0  0  0  0  0  0  0  0  0  0  0  0
   15.5654  -18.9825   19.7730 C   0  0  0  0  0  0  0  0  0  0  0  0
   16.4002  -18.0260   19.7167 O   0  0  0  0  0  0  0  0  0  0  0  0
   11.8175  -17.0065   20.4362 C   0  0  0  0  0  0  0  0  0  0  0  0
   12.2937  -15.8498   20.3127 O   0  0  0  0  0  0  0  0  0  0  0  0
   15.9882  -20.2496   19.3713 O   0  0  0  0  0  0  0  0  0  0  0  0
    9.1716  -17.5032   23.6108 O   0  0  0  0  0  0  0  0  0  0  0  0
    9.7029  -16.2749   23.3080 C   0  0  0  0  0  0  0  0  0  0  0  0
   11.1118  -16.3582   22.7684 C   0  0  2  0  0  0  0  0  0  0  0  0
   11.1930  -17.3127   21.6607 N   0  0  0  0  0  0  0  0  0  0  0  0
   12.0476  -16.7489   23.8579 C   0  0  0  0  0  0  0  0  0  0  0  0
   12.8018  -17.9047   23.8461 O   0  0  0  0  0  0  0  0  0  0  0  0
   12.1495  -15.9741   24.8397 O   0  0  0  0  0  0  0  0  0  0  0  0
  2  1  1  0
  3  2  1  0
  3  4  1  1
  5  3  1  0
  6  5  2  0
  7  5  1  0
  8  7  1  0
  8 13  1  0
  8  9  1  6
 10  9  1  0
 10 11  1  0
 11 12  2  0
 13 14  2  0
 13 19  1  0
 15 11  1  0
 16 17  1  0
 18 17  1  1
 18 20  1  0
 19 18  1  0
 20 21  1  0
 22 20  2  0
M  END
$$$$
