SES.pdb
     RDKit          3D

 22 21  0  0  1  0  0  0  0  0999 V2000
   14.1040  -18.3318   15.2523 O   0  0  0  0  0  0  0  0  0  0  0  0
   13.6031  -18.1600   16.5203 C   0  0  0  0  0  0  0  0  0  0  0  0
   12.3730  -19.0038   16.8211 C   0  0  2  0  0  0  0  0  0  0  0  0
   11.3219  -18.4495   15.9698 N   0  0  0  0  0  0  0  0  0  0  0  0
   11.9929  -18.9134   18.2490 C   0  0  0  0  0  0  0  0  0  0  0  0
   10.9382  -18.3319   18.5595 O   0  0  0  0  0  0  0  0  0  0  0  0
   12.8045  -19.4716   19.2539 N   0  0  0  0  0  0  0  0  0  0  0  0
   12.5083  -19.5844   20.6334 C   0  0  1  0  0  0  0  0  0  0  0  0
   13.1612  -20.6754   21.3928 C   0  0  0  0  0  0  0  0  0  0  0  0
   12.7996  -20.8107   22.8330 C   0  0  0  0  0  0  0  0  0  0  0  0
   13.6565  -21.9283   23.3708 C   0  0  0  0  0  0  0  0  0  0  0  0
   13.2535  -23.1302   23.2813 O   0  0  0  0  0  0  0  0  0  0  0  0
   12.5224  -18.3134   21.4064 C   0  0  0  0  0  0  0  0  0  0  0  0
   13.6130  -17.6918   21.4692 O   0  0  0  0  0  0  0  0  0  0  0  0
   14.8919  -21.6916   23.9738 O   0  0  0  0  0  0  0  0  0  0  0  0
    9.1500  -16.5529   23.2459 O   0  0  0  0  0  0  0  0  0  0  0  0
   10.1994  -15.7638   22.8473 C   0  0  0  0  0  0  0  0  0  0  0  0
   11.5202  -16.4978   22.8404 C   0  0  2  0  0  0  0  0  0  0  0  0
   11.4230  -17.7440   22.0775 N   0  0  0  0  0  0  0  0  0  0  0  0
   11.9492  -16.7785   24.2378 C   0  0  0  0  0  0  0  0  0  0  0  0
   12.1133  -18.0490   24.7512 O   0  0  0  0  0  0  0  0  0  0  0  0
   12.1729  -15.7946   24.9838 O   0  0  0  0  0  0  0  0  0  0  0  0
  2  1  1  0
  3  2  1  0
  3  4  1  6
  5  3  1  0
  6  5  2  0
  7  5  1  0
  8  7  1  0
  8 13  1  0
  8  9  1  1
 10  9  1  0
 10 11  1  0
 11 12  2  0
 13 14  2  0
 13 19  1  0
 15 11  1  0
 16 17  1  0
 18 17  1  1
 18 20  1  0
 19 18  1  0
 20 21  1  0
 22 20  2  0
M  END
$$$$
