SES.pdb
     RDKit          3D

 22 21  0  0  1  0  0  0  0  0999 V2000
    8.4343  -16.2880   16.0819 O   0  0  0  0  0  0  0  0  0  0  0  0
    8.8909  -16.5229   17.3565 C   0  0  0  0  0  0  0  0  0  0  0  0
    9.6135  -17.8519   17.5216 C   0  0  2  0  0  0  0  0  0  0  0  0
    8.5811  -18.8667   17.3185 N   0  0  0  0  0  0  0  0  0  0  0  0
   10.2124  -17.9762   18.8698 C   0  0  0  0  0  0  0  0  0  0  0  0
    9.5297  -18.4515   19.7945 O   0  0  0  0  0  0  0  0  0  0  0  0
   11.5350  -17.5652   19.1182 N   0  0  0  0  0  0  0  0  0  0  0  0
   12.2449  -17.6471   20.3400 C   0  0  1  0  0  0  0  0  0  0  0  0
   13.7150  -17.8139   20.2746 C   0  0  0  0  0  0  0  0  0  0  0  0
   14.2332  -18.9554   19.4673 C   0  0  0  0  0  0  0  0  0  0  0  0
   15.7357  -18.8379   19.5026 C   0  0  0  0  0  0  0  0  0  0  0  0
   16.3097  -17.9033   18.8607 O   0  0  0  0  0  0  0  0  0  0  0  0
   11.8664  -16.6514   21.3786 C   0  0  0  0  0  0  0  0  0  0  0  0
   12.2382  -15.4643   21.1984 O   0  0  0  0  0  0  0  0  0  0  0  0
   16.5330  -19.7290   20.2210 O   0  0  0  0  0  0  0  0  0  0  0  0
    8.4934  -16.6292   23.4747 O   0  0  0  0  0  0  0  0  0  0  0  0
    9.3117  -15.5289   23.4263 C   0  0  0  0  0  0  0  0  0  0  0  0
   10.7785  -15.8799   23.5184 C   0  0  2  0  0  0  0  0  0  0  0  0
   11.1303  -16.9195   22.5488 N   0  0  0  0  0  0  0  0  0  0  0  0
   11.1046  -16.3287   24.8995 C   0  0  0  0  0  0  0  0  0  0  0  0
   11.0249  -15.5149   26.0115 O   0  0  0  0  0  0  0  0  0  0  0  0
   11.4718  -17.5191   25.0504 O   0  0  0  0  0  0  0  0  0  0  0  0
  2  1  1  0
  3  2  1  0
  3  4  1  1
  5  3  1  0
  6  5  2  0
  7  5  1  0
  8  7  1  0
  8 13  1  0
  8  9  1  6
 10  9  1  0
 10 11  1  0
 11 12  2  0
 13 14  2  0
 13 19  1  0
 15 11  1  0
 16 17  1  0
 18 17  1  1
 18 20  1  0
 19 18  1  0
 20 21  1  0
 22 20  2  0
M  END
$$$$
