SES.pdb
     RDKit          3D

 22 21  0  0  1  0  0  0  0  0999 V2000
    8.2382  -15.8938   19.2080 O   0  0  0  0  0  0  0  0  0  0  0  0
    9.0935  -16.0447   18.1431 C   0  0  0  0  0  0  0  0  0  0  0  0
    9.7278  -17.4246   18.0475 C   0  0  2  0  0  0  0  0  0  0  0  0
    8.6163  -18.3276   17.7545 N   0  0  0  0  0  0  0  0  0  0  0  0
   10.3898  -17.8029   19.3165 C   0  0  0  0  0  0  0  0  0  0  0  0
    9.7447  -18.4359   20.1710 O   0  0  0  0  0  0  0  0  0  0  0  0
   11.7303  -17.4569   19.5684 N   0  0  0  0  0  0  0  0  0  0  0  0
   12.4776  -17.7133   20.7428 C   0  0  1  0  0  0  0  0  0  0  0  0
   13.9501  -17.8093   20.6169 C   0  0  0  0  0  0  0  0  0  0  0  0
   14.4832  -18.5932   19.4660 C   0  0  0  0  0  0  0  0  0  0  0  0
   15.8840  -18.0865   19.2345 C   0  0  0  0  0  0  0  0  0  0  0  0
   16.0678  -17.0368   18.5421 O   0  0  0  0  0  0  0  0  0  0  0  0
   12.0950  -16.9201   21.9418 C   0  0  0  0  0  0  0  0  0  0  0  0
   12.3498  -15.6894   21.9212 O   0  0  0  0  0  0  0  0  0  0  0  0
   17.0033  -18.7350   19.7563 O   0  0  0  0  0  0  0  0  0  0  0  0
    8.9257  -17.6347   24.3199 O   0  0  0  0  0  0  0  0  0  0  0  0
    9.5779  -16.4279   24.2929 C   0  0  0  0  0  0  0  0  0  0  0  0
   11.0806  -16.5707   24.2235 C   0  0  2  0  0  0  0  0  0  0  0  0
   11.4744  -17.4246   23.1009 N   0  0  0  0  0  0  0  0  0  0  0  0
   11.5943  -17.1295   25.5039 C   0  0  0  0  0  0  0  0  0  0  0  0
   11.4976  -16.4823   26.7191 O   0  0  0  0  0  0  0  0  0  0  0  0
   12.1452  -18.2563   25.4646 O   0  0  0  0  0  0  0  0  0  0  0  0
  2  1  1  0
  3  2  1  0
  3  4  1  1
  5  3  1  0
  6  5  2  0
  7  5  1  0
  8  7  1  0
  8 13  1  0
  8  9  1  6
 10  9  1  0
 10 11  1  0
 11 12  2  0
 13 14  2  0
 13 19  1  0
 15 11  1  0
 16 17  1  0
 18 17  1  1
 18 20  1  0
 19 18  1  0
 20 21  1  0
 22 20  2  0
M  END
$$$$
