SES.pdb
     RDKit          3D

 22 21  0  0  1  0  0  0  0  0999 V2000
    7.5857  -12.4209   16.7813 O   0  0  0  0  0  0  0  0  0  0  0  0
    8.1051  -13.3858   17.6105 C   0  0  0  0  0  0  0  0  0  0  0  0
    9.0901  -14.3246   16.9293 C   0  0  2  0  0  0  0  0  0  0  0  0
    8.2710  -15.1429   16.0371 N   0  0  0  0  0  0  0  0  0  0  0  0
    9.7976  -15.1721   17.9157 C   0  0  0  0  0  0  0  0  0  0  0  0
    9.2496  -16.2107   18.3256 O   0  0  0  0  0  0  0  0  0  0  0  0
   11.0733  -14.8201   18.3941 N   0  0  0  0  0  0  0  0  0  0  0  0
   11.8496  -15.5082   19.3569 C   0  0  1  0  0  0  0  0  0  0  0  0
   13.3208  -15.3469   19.3008 C   0  0  0  0  0  0  0  0  0  0  0  0
   13.8459  -13.9608   19.1392 C   0  0  0  0  0  0  0  0  0  0  0  0
   15.3460  -14.0929   19.0691 C   0  0  0  0  0  0  0  0  0  0  0  0
   15.9121  -14.2558   17.9430 O   0  0  0  0  0  0  0  0  0  0  0  0
   11.3579  -15.4363   20.7591 C   0  0  0  0  0  0  0  0  0  0  0  0
   11.0607  -14.2995   21.2057 O   0  0  0  0  0  0  0  0  0  0  0  0
   16.1490  -14.0448   20.2086 O   0  0  0  0  0  0  0  0  0  0  0  0
    8.4308  -16.5635   22.5297 O   0  0  0  0  0  0  0  0  0  0  0  0
    9.4619  -17.0734   23.2776 C   0  0  0  0  0  0  0  0  0  0  0  0
   10.7760  -16.3707   23.0275 C   0  0  2  0  0  0  0  0  0  0  0  0
   11.1974  -16.5281   21.6339 N   0  0  0  0  0  0  0  0  0  0  0  0
   11.8175  -16.9054   23.9466 C   0  0  0  0  0  0  0  0  0  0  0  0
   11.7085  -16.8934   25.3224 O   0  0  0  0  0  0  0  0  0  0  0  0
   12.8509  -17.3945   23.4293 O   0  0  0  0  0  0  0  0  0  0  0  0
  2  1  1  0
  3  2  1  0
  3  4  1  6
  5  3  1  0
  6  5  2  0
  7  5  1  0
  8  7  1  0
  8 13  1  0
  8  9  1  1
 10  9  1  0
 10 11  1  0
 11 12  2  0
 13 14  2  0
 13 19  1  0
 15 11  1  0
 16 17  1  0
 18 17  1  6
 18 20  1  0
 19 18  1  0
 20 21  1  0
 22 20  2  0
M  END
$$$$
