FPH.pdb
     RDKit          3D

 29 31  0  0  1  0  0  0  0  0999 V2000
    4.8152  -17.4064   24.4036 N   0  0  0  0  0  0  0  0  0  0  0  0
    5.7949  -16.4078   24.5791 C   0  0  1  0  0  0  0  0  0  0  0  0
    6.0735  -16.2233   26.0641 C   0  0  0  0  0  0  0  0  0  0  0  0
    6.6691  -14.8810   26.2408 C   0  0  0  0  0  0  0  0  0  0  0  0
    8.0548  -14.7614   26.3958 C   0  0  0  0  0  0  0  0  0  0  0  0
    8.5913  -13.5002   26.5675 C   0  0  0  0  0  0  0  0  0  0  0  0
    7.7780  -12.3906   26.5852 C   0  0  0  0  0  0  0  0  0  0  0  0
    6.4079  -12.4824   26.4346 C   0  0  0  0  0  0  0  0  0  0  0  0
    5.8892  -13.7542   26.2638 C   0  0  0  0  0  0  0  0  0  0  0  0
    7.0224  -16.5026   23.7877 C   0  0  0  0  0  0  0  0  0  0  0  0
    7.4725  -17.6970   23.5694 O   0  0  0  0  0  0  0  0  0  0  0  0
    7.7796  -15.4544   23.2319 N   0  0  0  0  0  0  0  0  0  0  0  0
    7.7585  -14.0430   23.5010 C   0  0  0  0  0  0  0  0  0  0  0  0
    7.8698  -13.4506   22.0958 C   0  0  0  0  0  0  0  0  0  0  0  0
    8.7337  -14.4403   21.3499 C   0  0  0  0  0  0  0  0  0  0  0  0
    8.8096  -15.6690   22.1982 C   0  0  1  0  0  0  0  0  0  0  0  0
   10.1452  -15.8426   22.8491 C   0  0  0  0  0  0  0  0  0  0  0  0
   10.4983  -15.1108   23.8268 O   0  0  0  0  0  0  0  0  0  0  0  0
   11.0594  -16.8217   22.4039 N   0  0  0  0  0  0  0  0  0  0  0  0
   12.3690  -17.0587   23.0197 C   0  0  1  0  0  0  0  0  0  0  0  0
   12.7143  -18.4868   22.6938 C   0  0  0  0  0  0  0  0  0  0  0  0
   11.7277  -19.4767   23.1347 C   0  0  0  0  0  0  0  0  0  0  0  0
   11.2514  -19.5386   24.4323 C   0  0  0  0  0  0  0  0  0  0  0  0
   10.3739  -20.5532   24.4756 N   0  0  0  0  0  0  0  0  0  0  0  0
   10.2954  -21.1125   23.2582 C   0  0  0  0  0  0  0  0  0  0  0  0
   11.1269  -20.4442   22.4535 N   0  0  0  0  0  0  0  0  0  0  0  0
   13.3223  -16.1121   22.3912 C   0  0  0  0  0  0  0  0  0  0  0  0
   14.5113  -15.8190   23.0298 O   0  0  0  0  0  0  0  0  0  0  0  0
   13.1256  -15.5398   21.2907 O   0  0  0  0  0  0  0  0  0  0  0  0
  2  1  1  1
  2 10  1  0
  2  3  1  0
  3  4  1  0
  4  5  2  0
  4  9  1  0
  5  6  1  0
  6  7  2  0
  8  7  1  0
  9  8  2  0
 10 12  1  0
 11 10  2  0
 12 16  1  0
 13 12  1  0
 13 14  1  0
 15 14  1  0
 16 15  1  0
 16 17  1  1
 18 17  2  0
 19 17  1  0
 20 21  1  6
 20 19  1  0
 21 22  1  0
 22 26  1  0
 22 23  2  0
 23 24  1  0
 25 24  1  0
 26 25  2  0
 27 28  1  0
 27 20  1  0
 29 27  2  0
M  END
$$$$
