FPH.pdb
     RDKit          3D

 29 31  0  0  1  0  0  0  0  0999 V2000
    6.4348  -16.9036   26.3762 N   0  0  0  0  0  0  0  0  0  0  0  0
    6.2745  -16.1663   25.1851 C   0  0  1  0  0  0  0  0  0  0  0  0
    6.1854  -14.6826   25.5128 C   0  0  0  0  0  0  0  0  0  0  0  0
    7.3881  -14.3280   26.2973 C   0  0  0  0  0  0  0  0  0  0  0  0
    8.4726  -13.7225   25.6525 C   0  0  0  0  0  0  0  0  0  0  0  0
    9.5899  -13.4061   26.4005 C   0  0  0  0  0  0  0  0  0  0  0  0
    9.6307  -13.6818   27.7479 C   0  0  0  0  0  0  0  0  0  0  0  0
    8.5736  -14.2788   28.4071 C   0  0  0  0  0  0  0  0  0  0  0  0
    7.4634  -14.5883   27.6408 C   0  0  0  0  0  0  0  0  0  0  0  0
    7.1922  -16.4401   24.0784 C   0  0  0  0  0  0  0  0  0  0  0  0
    7.5487  -17.6750   23.9219 O   0  0  0  0  0  0  0  0  0  0  0  0
    7.7396  -15.5260   23.1587 N   0  0  0  0  0  0  0  0  0  0  0  0
    7.5665  -14.1045   23.0399 C   0  0  0  0  0  0  0  0  0  0  0  0
    7.4405  -13.9257   21.5267 C   0  0  0  0  0  0  0  0  0  0  0  0
    8.3353  -15.0010   20.9564 C   0  0  0  0  0  0  0  0  0  0  0  0
    8.6650  -15.9272   22.0825 C   0  0  1  0  0  0  0  0  0  0  0  0
   10.0769  -15.7848   22.5560 C   0  0  0  0  0  0  0  0  0  0  0  0
   10.4674  -14.7284   23.1455 O   0  0  0  0  0  0  0  0  0  0  0  0
   11.0242  -16.8140   22.3665 N   0  0  0  0  0  0  0  0  0  0  0  0
   12.4102  -16.7480   22.8411 C   0  0  1  0  0  0  0  0  0  0  0  0
   12.6621  -18.0615   23.5312 C   0  0  0  0  0  0  0  0  0  0  0  0
   11.8318  -18.3071   24.7136 C   0  0  0  0  0  0  0  0  0  0  0  0
   12.0187  -17.6467   25.9150 C   0  0  0  0  0  0  0  0  0  0  0  0
   11.0910  -18.1159   26.7640 N   0  0  0  0  0  0  0  0  0  0  0  0
   10.3463  -19.0348   26.1300 C   0  0  0  0  0  0  0  0  0  0  0  0
   10.8115  -19.1388   24.8816 N   0  0  0  0  0  0  0  0  0  0  0  0
   13.2719  -16.5889   21.6443 C   0  0  0  0  0  0  0  0  0  0  0  0
   12.6986  -16.5904   20.3878 O   0  0  0  0  0  0  0  0  0  0  0  0
   14.5191  -16.4488   21.6871 O   0  0  0  0  0  0  0  0  0  0  0  0
  2  1  1  1
  2 10  1  0
  2  3  1  0
  3  4  1  0
  4  5  2  0
  4  9  1  0
  5  6  1  0
  6  7  2  0
  8  7  1  0
  9  8  2  0
 10 12  1  0
 11 10  2  0
 12 16  1  0
 13 12  1  0
 13 14  1  0
 15 14  1  0
 16 15  1  0
 16 17  1  1
 18 17  2  0
 19 17  1  0
 20 21  1  6
 20 19  1  0
 21 22  1  0
 22 26  1  0
 22 23  2  0
 23 24  1  0
 25 24  1  0
 26 25  2  0
 27 28  1  0
 27 20  1  0
 29 27  2  0
M  END
$$$$
