FPH.pdb
     RDKit          3D

 29 31  0  0  1  0  0  0  0  0999 V2000
    7.3048  -17.4552   26.3711 N   0  0  0  0  0  0  0  0  0  0  0  0
    7.4166  -16.4138   25.4272 C   0  0  1  0  0  0  0  0  0  0  0  0
    8.4554  -15.4070   25.9006 C   0  0  0  0  0  0  0  0  0  0  0  0
    7.7322  -14.1873   26.3218 C   0  0  0  0  0  0  0  0  0  0  0  0
    8.4564  -13.0211   26.5936 C   0  0  0  0  0  0  0  0  0  0  0  0
    7.7640  -11.8947   26.9932 C   0  0  0  0  0  0  0  0  0  0  0  0
    6.3942  -11.9237   27.1195 C   0  0  0  0  0  0  0  0  0  0  0  0
    5.6571  -13.0622   26.8573 C   0  0  0  0  0  0  0  0  0  0  0  0
    6.3685  -14.1804   26.4583 C   0  0  0  0  0  0  0  0  0  0  0  0
    7.5909  -16.7771   24.0203 C   0  0  0  0  0  0  0  0  0  0  0  0
    7.9331  -18.0033   23.7834 O   0  0  0  0  0  0  0  0  0  0  0  0
    7.4338  -15.9578   22.8866 N   0  0  0  0  0  0  0  0  0  0  0  0
    7.2613  -14.5353   22.7795 C   0  0  0  0  0  0  0  0  0  0  0  0
    6.1882  -14.4267   21.6958 C   0  0  0  0  0  0  0  0  0  0  0  0
    6.4713  -15.5968   20.7833 C   0  0  0  0  0  0  0  0  0  0  0  0
    7.4292  -16.4858   21.5094 C   0  0  1  0  0  0  0  0  0  0  0  0
    8.8138  -16.4293   20.9458 C   0  0  0  0  0  0  0  0  0  0  0  0
    9.0887  -16.9665   19.8270 O   0  0  0  0  0  0  0  0  0  0  0  0
    9.8621  -15.7800   21.6327 N   0  0  0  0  0  0  0  0  0  0  0  0
   11.2370  -15.6898   21.1305 C   0  0  1  0  0  0  0  0  0  0  0  0
   11.4272  -14.2503   20.7350 C   0  0  0  0  0  0  0  0  0  0  0  0
   10.5722  -13.7937   19.6359 C   0  0  0  0  0  0  0  0  0  0  0  0
   10.0471  -14.6504   18.6847 C   0  0  0  0  0  0  0  0  0  0  0  0
    9.3226  -13.8976   17.8422 N   0  0  0  0  0  0  0  0  0  0  0  0
    9.3843  -12.6174   18.2402 C   0  0  0  0  0  0  0  0  0  0  0  0
   10.1498  -12.5723   19.3345 N   0  0  0  0  0  0  0  0  0  0  0  0
   12.1338  -16.0690   22.2495 C   0  0  0  0  0  0  0  0  0  0  0  0
   11.5904  -16.3962   23.4762 O   0  0  0  0  0  0  0  0  0  0  0  0
   13.3859  -16.1167   22.1645 O   0  0  0  0  0  0  0  0  0  0  0  0
  2  1  1  1
  2 10  1  0
  2  3  1  0
  3  4  1  0
  4  5  2  0
  4  9  1  0
  5  6  1  0
  6  7  2  0
  8  7  1  0
  9  8  2  0
 10 12  1  0
 11 10  2  0
 12 16  1  0
 13 12  1  0
 13 14  1  0
 15 14  1  0
 16 15  1  0
 16 17  1  6
 18 17  2  0
 19 17  1  0
 20 21  1  1
 20 19  1  0
 21 22  1  0
 22 26  1  0
 22 23  2  0
 23 24  1  0
 25 24  1  0
 26 25  2  0
 27 28  1  0
 27 20  1  0
 29 27  2  0
M  END
$$$$
