FPH.pdb
     RDKit          3D

 29 31  0  0  1  0  0  0  0  0999 V2000
    9.7418  -15.8377   21.9848 N   0  0  0  0  0  0  0  0  0  0  0  0
    9.1668  -14.9785   22.9434 C   0  0  1  0  0  0  0  0  0  0  0  0
    7.6627  -14.9028   22.7221 C   0  0  0  0  0  0  0  0  0  0  0  0
    7.4332  -14.0975   21.5028 C   0  0  0  0  0  0  0  0  0  0  0  0
    6.9604  -14.7264   20.3454 C   0  0  0  0  0  0  0  0  0  0  0  0
    6.7598  -13.9589   19.2147 C   0  0  0  0  0  0  0  0  0  0  0  0
    7.0202  -12.6080   19.2309 C   0  0  0  0  0  0  0  0  0  0  0  0
    7.4874  -11.9642   20.3604 C   0  0  0  0  0  0  0  0  0  0  0  0
    7.6822  -12.7499   21.4830 C   0  0  0  0  0  0  0  0  0  0  0  0
    9.5149  -15.1864   24.3497 C   0  0  0  0  0  0  0  0  0  0  0  0
   10.4678  -16.0310   24.5851 O   0  0  0  0  0  0  0  0  0  0  0  0
    8.9415  -14.5820   25.4841 N   0  0  0  0  0  0  0  0  0  0  0  0
    7.6813  -13.9115   25.6480 C   0  0  0  0  0  0  0  0  0  0  0  0
    8.0694  -12.7146   26.5166 C   0  0  0  0  0  0  0  0  0  0  0  0
    9.1838  -13.2429   27.3890 C   0  0  0  0  0  0  0  0  0  0  0  0
    9.6081  -14.5495   26.7994 C   0  0  1  0  0  0  0  0  0  0  0  0
    9.1672  -15.7240   27.6144 C   0  0  0  0  0  0  0  0  0  0  0  0
    7.9648  -15.8313   28.0127 O   0  0  0  0  0  0  0  0  0  0  0  0
   10.0663  -16.7524   27.9700 N   0  0  0  0  0  0  0  0  0  0  0  0
    9.7183  -17.8777   28.8435 C   0  0  1  0  0  0  0  0  0  0  0  0
   10.0877  -19.1156   28.0714 C   0  0  0  0  0  0  0  0  0  0  0  0
    9.4172  -19.2586   26.7762 C   0  0  0  0  0  0  0  0  0  0  0  0
    8.1661  -18.7292   26.5135 C   0  0  0  0  0  0  0  0  0  0  0  0
    7.8680  -19.0490   25.2446 N   0  0  0  0  0  0  0  0  0  0  0  0
    8.8855  -19.7514   24.7226 C   0  0  0  0  0  0  0  0  0  0  0  0
    9.8209  -19.8697   25.6696 N   0  0  0  0  0  0  0  0  0  0  0  0
   10.5348  -17.7410   30.0742 C   0  0  0  0  0  0  0  0  0  0  0  0
   10.3487  -18.6278   31.1165 O   0  0  0  0  0  0  0  0  0  0  0  0
   11.4080  -16.8549   30.2463 O   0  0  0  0  0  0  0  0  0  0  0  0
  2  1  1  6
  2 10  1  0
  2  3  1  0
  3  4  1  0
  4  5  2  0
  4  9  1  0
  5  6  1  0
  6  7  2  0
  8  7  1  0
  9  8  2  0
 10 12  1  0
 11 10  2  0
 12 16  1  0
 13 12  1  0
 13 14  1  0
 15 14  1  0
 16 15  1  0
 16 17  1  1
 18 17  2  0
 19 17  1  0
 20 21  1  6
 20 19  1  0
 21 22  1  0
 22 26  1  0
 22 23  2  0
 23 24  1  0
 25 24  1  0
 26 25  2  0
 27 28  1  0
 27 20  1  0
 29 27  2  0
M  END
$$$$
