FPH.pdb
     RDKit          3D

 29 31  0  0  1  0  0  0  0  0999 V2000
    5.6548  -17.8714   24.8223 N   0  0  0  0  0  0  0  0  0  0  0  0
    6.4337  -16.6965   24.7917 C   0  0  1  0  0  0  0  0  0  0  0  0
    6.8021  -16.2929   26.2124 C   0  0  0  0  0  0  0  0  0  0  0  0
    6.8279  -14.8148   26.2616 C   0  0  0  0  0  0  0  0  0  0  0  0
    8.0595  -14.1503   26.2466 C   0  0  0  0  0  0  0  0  0  0  0  0
    8.0632  -12.7701   26.3013 C   0  0  0  0  0  0  0  0  0  0  0  0
    6.8809  -12.0696   26.3688 C   0  0  0  0  0  0  0  0  0  0  0  0
    5.6530  -12.7022   26.3851 C   0  0  0  0  0  0  0  0  0  0  0  0
    5.6698  -14.0850   26.3298 C   0  0  0  0  0  0  0  0  0  0  0  0
    7.5809  -16.6558   23.8839 C   0  0  0  0  0  0  0  0  0  0  0  0
    8.2430  -17.7603   23.7474 O   0  0  0  0  0  0  0  0  0  0  0  0
    8.0584  -15.5622   23.1374 N   0  0  0  0  0  0  0  0  0  0  0  0
    7.6928  -14.1732   23.1784 C   0  0  0  0  0  0  0  0  0  0  0  0
    7.6549  -13.8113   21.6934 C   0  0  0  0  0  0  0  0  0  0  0  0
    8.7341  -14.6724   21.0802 C   0  0  0  0  0  0  0  0  0  0  0  0
    9.1088  -15.6894   22.1098 C   0  0  1  0  0  0  0  0  0  0  0  0
   10.4468  -15.4262   22.7249 C   0  0  0  0  0  0  0  0  0  0  0  0
   11.0035  -14.2880   22.6216 O   0  0  0  0  0  0  0  0  0  0  0  0
   11.1381  -16.4278   23.4401 N   0  0  0  0  0  0  0  0  0  0  0  0
   11.8113  -16.2004   24.7229 C   0  0  1  0  0  0  0  0  0  0  0  0
   10.7503  -15.6615   25.6441 C   0  0  0  0  0  0  0  0  0  0  0  0
   11.2019  -15.3828   27.0101 C   0  0  0  0  0  0  0  0  0  0  0  0
   11.1120  -14.1307   27.5920 C   0  0  0  0  0  0  0  0  0  0  0  0
   11.6129  -14.2423   28.8322 N   0  0  0  0  0  0  0  0  0  0  0  0
   12.0045  -15.5105   29.0306 C   0  0  0  0  0  0  0  0  0  0  0  0
   11.7467  -16.1916   27.9102 N   0  0  0  0  0  0  0  0  0  0  0  0
   12.3172  -17.5152   25.1869 C   0  0  0  0  0  0  0  0  0  0  0  0
   13.4340  -17.5671   25.9979 O   0  0  0  0  0  0  0  0  0  0  0  0
   11.7928  -18.6172   24.8904 O   0  0  0  0  0  0  0  0  0  0  0  0
  2  1  1  1
  2 10  1  0
  2  3  1  0
  3  4  1  0
  4  5  2  0
  4  9  1  0
  5  6  1  0
  6  7  2  0
  8  7  1  0
  9  8  2  0
 10 12  1  0
 11 10  2  0
 12 16  1  0
 13 12  1  0
 13 14  1  0
 15 14  1  0
 16 15  1  0
 16 17  1  1
 18 17  2  0
 19 17  1  0
 20 21  1  1
 20 19  1  0
 21 22  1  0
 22 26  1  0
 22 23  2  0
 23 24  1  0
 25 24  1  0
 26 25  2  0
 27 28  1  0
 27 20  1  0
 29 27  2  0
M  END
$$$$
