THM.pdb
     RDKit          3D

 26 26  0  0  1  0  0  0  0  0999 V2000
   25.8214  -24.4596  -15.5232 C   0  0  0  0  0  0  0  0  0  0  0  0
   27.1269  -24.0199  -16.1293 C   0  0  1  0  0  0  0  0  0  0  0  0
   27.6645  -24.9939  -16.9695 O   0  0  0  0  0  0  0  0  0  0  0  0
   26.9641  -22.7692  -16.9720 C   0  0  2  0  0  0  0  0  0  0  0  0
   28.2496  -22.4681  -17.5562 N   0  0  0  0  0  0  0  0  0  0  0  0
   26.5111  -21.6180  -16.0879 C   0  0  0  0  0  0  0  0  0  0  0  0
   27.3678  -20.7618  -15.7582 O   0  0  0  0  0  0  0  0  0  0  0  0
   25.1897  -21.5180  -15.6587 N   0  0  0  0  0  0  0  0  0  0  0  0
   24.6055  -20.3614  -14.9092 C   0  0  1  0  0  0  0  0  0  0  0  0
   23.2149  -20.2778  -15.3470 C   0  0  0  0  0  0  0  0  0  0  0  0
   22.3142  -19.2696  -14.8209 C   0  0  0  0  0  0  0  0  0  0  0  0
   21.0134  -18.9174  -15.0412 C   0  0  0  0  0  0  0  0  0  0  0  0
   20.6950  -17.9414  -14.1709 N   0  0  0  0  0  0  0  0  0  0  0  0
   21.7550  -17.6726  -13.4125 C   0  0  0  0  0  0  0  0  0  0  0  0
   22.7361  -18.4644  -13.7924 N   0  0  0  0  0  0  0  0  0  0  0  0
   24.7129  -20.8393  -13.4785 C   0  0  0  0  0  0  0  0  0  0  0  0
   24.2444  -22.0149  -13.1854 O   0  0  0  0  0  0  0  0  0  0  0  0
   27.3286  -20.4534   -6.0557 C   0  0  0  0  0  0  0  0  0  0  0  0
   27.2425  -19.6033   -7.6602 S   0  0  0  0  0  0  0  0  0  0  0  0
   26.1365  -20.5701   -8.7471 C   0  0  0  0  0  0  0  0  0  0  0  0
   26.1719  -20.0190  -10.1386 C   0  0  0  0  0  0  0  0  0  0  0  0
   25.2305  -20.7770  -11.0351 C   0  0  2  0  0  0  0  0  0  0  0  0
   25.2662  -20.1685  -12.3967 N   0  0  0  0  0  0  0  0  0  0  0  0
   23.8516  -20.6379  -10.5464 C   0  0  0  0  0  0  0  0  0  0  0  0
   23.3839  -21.5561   -9.5865 O   0  0  0  0  0  0  0  0  0  0  0  0
   23.0297  -19.7551  -10.9131 O   0  0  0  0  0  0  0  0  0  0  0  0
  2  3  1  0
  2  1  1  6
  4  6  1  0
  4  2  1  0
  4  5  1  1
  6  7  2  0
  8  6  1  0
  8  9  1  0
  9 10  1  6
 11 15  1  0
 11 10  1  0
 12 11  2  0
 13 12  1  0
 13 14  1  0
 14 15  2  0
 16 23  1  0
 16  9  1  0
 17 16  2  0
 18 19  1  0
 19 20  1  0
 20 21  1  0
 22 21  1  1
 22 24  1  0
 22 23  1  0
 24 25  1  0
 26 24  2  0
M  END
$$$$
