THM.pdb
     RDKit          3D

 26 26  0  0  1  0  0  0  0  0999 V2000
   22.7712  -13.1436  -18.2653 C   0  0  0  0  0  0  0  0  0  0  0  0
   23.7897  -13.4460  -19.3313 C   0  0  1  0  0  0  0  0  0  0  0  0
   23.9790  -14.8174  -19.4958 O   0  0  0  0  0  0  0  0  0  0  0  0
   23.3666  -12.9062  -20.6842 C   0  0  2  0  0  0  0  0  0  0  0  0
   24.3902  -13.2677  -21.6361 N   0  0  0  0  0  0  0  0  0  0  0  0
   23.2368  -11.3932  -20.6081 C   0  0  0  0  0  0  0  0  0  0  0  0
   24.2778  -10.7086  -20.7617 O   0  0  0  0  0  0  0  0  0  0  0  0
   22.0040  -10.7881  -20.3755 N   0  0  0  0  0  0  0  0  0  0  0  0
   21.7652   -9.3136  -20.2773 C   0  0  1  0  0  0  0  0  0  0  0  0
   20.4022   -9.1081  -20.7591 C   0  0  0  0  0  0  0  0  0  0  0  0
   20.1046   -9.0208  -22.1763 C   0  0  0  0  0  0  0  0  0  0  0  0
   19.0511   -9.3696  -22.9721 C   0  0  0  0  0  0  0  0  0  0  0  0
   19.3184   -8.9484  -24.2221 N   0  0  0  0  0  0  0  0  0  0  0  0
   20.5052   -8.3463  -24.2332 C   0  0  0  0  0  0  0  0  0  0  0  0
   20.9892   -8.3824  -23.0092 N   0  0  0  0  0  0  0  0  0  0  0  0
   21.8708   -9.0860  -18.7860 C   0  0  0  0  0  0  0  0  0  0  0  0
   21.4672  -10.0293  -17.9893 O   0  0  0  0  0  0  0  0  0  0  0  0
   26.4267  -10.5283  -13.5159 C   0  0  0  0  0  0  0  0  0  0  0  0
   26.0737  -10.1012  -15.2472 S   0  0  0  0  0  0  0  0  0  0  0  0
   24.5646   -9.0711  -15.2729 C   0  0  0  0  0  0  0  0  0  0  0  0
   24.0356   -8.9679  -16.6696 C   0  0  0  0  0  0  0  0  0  0  0  0
   22.8313   -8.0668  -16.7171 C   0  0  2  0  0  0  0  0  0  0  0  0
   22.3600   -7.9657  -18.1289 N   0  0  0  0  0  0  0  0  0  0  0  0
   23.2045   -6.7086  -16.2982 C   0  0  0  0  0  0  0  0  0  0  0  0
   23.2192   -6.4111  -14.9218 O   0  0  0  0  0  0  0  0  0  0  0  0
   23.5196   -5.7639  -17.0711 O   0  0  0  0  0  0  0  0  0  0  0  0
  2  3  1  0
  2  1  1  1
  4  6  1  0
  4  2  1  0
  4  5  1  6
  6  7  2  0
  8  6  1  0
  8  9  1  0
  9 10  1  1
 11 15  1  0
 11 10  1  0
 12 11  2  0
 13 12  1  0
 13 14  1  0
 14 15  2  0
 16 23  1  0
 16  9  1  0
 17 16  2  0
 18 19  1  0
 19 20  1  0
 20 21  1  0
 22 21  1  6
 22 24  1  0
 22 23  1  0
 24 25  1  0
 26 24  2  0
M  END
$$$$
