THM.pdb
     RDKit          3D

 26 26  0  0  1  0  0  0  0  0999 V2000
   19.8530  -13.9426  -14.3015 C   0  0  0  0  0  0  0  0  0  0  0  0
   20.4594  -15.0489  -15.1222 C   0  0  1  0  0  0  0  0  0  0  0  0
   20.0449  -16.3068  -14.6867 O   0  0  0  0  0  0  0  0  0  0  0  0
   20.0632  -14.9489  -16.5831 C   0  0  2  0  0  0  0  0  0  0  0  0
   20.6914  -16.0462  -17.2801 N   0  0  0  0  0  0  0  0  0  0  0  0
   20.5493  -13.6246  -17.1504 C   0  0  0  0  0  0  0  0  0  0  0  0
   21.7189  -13.5770  -17.6040 O   0  0  0  0  0  0  0  0  0  0  0  0
   19.7241  -12.5027  -17.1656 N   0  0  0  0  0  0  0  0  0  0  0  0
   20.1085  -11.1489  -17.6758 C   0  0  1  0  0  0  0  0  0  0  0  0
   18.8477  -10.4604  -17.9378 C   0  0  0  0  0  0  0  0  0  0  0  0
   18.8057   -9.0386  -18.2228 C   0  0  0  0  0  0  0  0  0  0  0  0
   18.1916   -7.9530  -17.6668 C   0  0  0  0  0  0  0  0  0  0  0  0
   18.6110   -6.8569  -18.3255 N   0  0  0  0  0  0  0  0  0  0  0  0
   19.4686   -7.2222  -19.2753 C   0  0  0  0  0  0  0  0  0  0  0  0
   19.5953   -8.5318  -19.2247 N   0  0  0  0  0  0  0  0  0  0  0  0
   20.8260  -10.5644  -16.4797 C   0  0  0  0  0  0  0  0  0  0  0  0
   20.3292  -10.7787  -15.2988 O   0  0  0  0  0  0  0  0  0  0  0  0
   27.0105  -12.3000  -15.5048 C   0  0  0  0  0  0  0  0  0  0  0  0
   26.4044  -10.5863  -15.4875 S   0  0  0  0  0  0  0  0  0  0  0  0
   24.5867  -10.6375  -15.3067 C   0  0  0  0  0  0  0  0  0  0  0  0
   24.0337   -9.2468  -15.2712 C   0  0  0  0  0  0  0  0  0  0  0  0
   22.5313   -9.2736  -15.1885 C   0  0  2  0  0  0  0  0  0  0  0  0
   21.9870   -9.8039  -16.4721 N   0  0  0  0  0  0  0  0  0  0  0  0
   22.0127   -7.9064  -15.0425 C   0  0  0  0  0  0  0  0  0  0  0  0
   21.9203   -7.3583  -13.7486 O   0  0  0  0  0  0  0  0  0  0  0  0
   21.6343   -7.1616  -15.9865 O   0  0  0  0  0  0  0  0  0  0  0  0
  2  3  1  0
  2  1  1  1
  4  6  1  0
  4  2  1  0
  4  5  1  6
  6  7  2  0
  8  6  1  0
  8  9  1  0
  9 10  1  1
 11 15  1  0
 11 10  1  0
 12 11  2  0
 13 12  1  0
 13 14  1  0
 14 15  2  0
 16 23  1  0
 16  9  1  0
 17 16  2  0
 18 19  1  0
 19 20  1  0
 20 21  1  0
 22 21  1  6
 22 24  1  0
 22 23  1  0
 24 25  1  0
 26 24  2  0
M  END
$$$$
