THM.pdb
     RDKit          3D

 26 26  0  0  1  0  0  0  0  0999 V2000
   27.9949  -11.6926  -15.3963 C   0  0  0  0  0  0  0  0  0  0  0  0
   26.6295  -11.1581  -15.7356 C   0  0  1  0  0  0  0  0  0  0  0  0
   26.6931  -10.1206  -16.6647 O   0  0  0  0  0  0  0  0  0  0  0  0
   25.7419  -12.2262  -16.3456 C   0  0  2  0  0  0  0  0  0  0  0  0
   26.3776  -12.6780  -17.5607 N   0  0  0  0  0  0  0  0  0  0  0  0
   24.3781  -11.6325  -16.6607 C   0  0  0  0  0  0  0  0  0  0  0  0
   24.1900  -11.1809  -17.8168 O   0  0  0  0  0  0  0  0  0  0  0  0
   23.3720  -11.5915  -15.6982 N   0  0  0  0  0  0  0  0  0  0  0  0
   21.9968  -11.0367  -15.9029 C   0  0  1  0  0  0  0  0  0  0  0  0
   21.1084  -11.9113  -15.1424 C   0  0  0  0  0  0  0  0  0  0  0  0
   19.7081  -11.5855  -14.9487 C   0  0  0  0  0  0  0  0  0  0  0  0
   18.8703  -10.5981  -15.3821 C   0  0  0  0  0  0  0  0  0  0  0  0
   17.6320  -10.8797  -14.9363 N   0  0  0  0  0  0  0  0  0  0  0  0
   17.6685  -12.0123  -14.2385 C   0  0  0  0  0  0  0  0  0  0  0  0
   18.9111  -12.4480  -14.2381 N   0  0  0  0  0  0  0  0  0  0  0  0
   22.1197   -9.6722  -15.2626 C   0  0  0  0  0  0  0  0  0  0  0  0
   23.1660   -9.4267  -14.5330 O   0  0  0  0  0  0  0  0  0  0  0  0
   24.5492   -2.9197  -16.4734 C   0  0  0  0  0  0  0  0  0  0  0  0
   24.1144   -4.6231  -16.9357 S   0  0  0  0  0  0  0  0  0  0  0  0
   23.0099   -5.2896  -15.6414 C   0  0  0  0  0  0  0  0  0  0  0  0
   22.5833   -6.6803  -15.9950 C   0  0  0  0  0  0  0  0  0  0  0  0
   21.6609   -7.2371  -14.9444 C   0  0  2  0  0  0  0  0  0  0  0  0
   21.2348   -8.6069  -15.3536 N   0  0  0  0  0  0  0  0  0  0  0  0
   20.4410   -6.4215  -14.8650 C   0  0  0  0  0  0  0  0  0  0  0  0
   20.4168   -5.3358  -13.9684 O   0  0  0  0  0  0  0  0  0  0  0  0
   19.3913   -6.6057  -15.5382 O   0  0  0  0  0  0  0  0  0  0  0  0
  2  3  1  0
  2  1  1  6
  4  6  1  0
  4  2  1  0
  4  5  1  6
  6  7  2  0
  8  6  1  0
  8  9  1  0
  9 10  1  1
 11 15  1  0
 11 10  1  0
 12 11  2  0
 13 12  1  0
 13 14  1  0
 14 15  2  0
 16 23  1  0
 16  9  1  0
 17 16  2  0
 18 19  1  0
 19 20  1  0
 20 21  1  0
 22 21  1  6
 22 24  1  0
 22 23  1  0
 24 25  1  0
 26 24  2  0
M  END
$$$$
