THM.pdb
     RDKit          3D

 26 26  0  0  1  0  0  0  0  0999 V2000
   17.6129  -11.7381  -17.6054 C   0  0  0  0  0  0  0  0  0  0  0  0
   18.7329  -11.1955  -16.7591 C   0  0  1  0  0  0  0  0  0  0  0  0
   19.9782  -11.6504  -17.1903 O   0  0  0  0  0  0  0  0  0  0  0  0
   18.7906   -9.6803  -16.8048 C   0  0  2  0  0  0  0  0  0  0  0  0
   19.1421   -9.2991  -18.1523 N   0  0  0  0  0  0  0  0  0  0  0  0
   19.8470   -9.1839  -15.8305 C   0  0  0  0  0  0  0  0  0  0  0  0
   19.6885   -9.4453  -14.6129 O   0  0  0  0  0  0  0  0  0  0  0  0
   20.9530   -8.4632  -16.2749 N   0  0  0  0  0  0  0  0  0  0  0  0
   22.0338   -7.9054  -15.4021 C   0  0  1  0  0  0  0  0  0  0  0  0
   23.2879   -8.2901  -16.0435 C   0  0  0  0  0  0  0  0  0  0  0  0
   23.9167   -9.5689  -15.7720 C   0  0  0  0  0  0  0  0  0  0  0  0
   23.6243  -10.6500  -14.9907 C   0  0  0  0  0  0  0  0  0  0  0  0
   24.5526  -11.5955  -15.2270 N   0  0  0  0  0  0  0  0  0  0  0  0
   25.4157  -11.1405  -16.1320 C   0  0  0  0  0  0  0  0  0  0  0  0
   25.0451   -9.9228  -16.4688 N   0  0  0  0  0  0  0  0  0  0  0  0
   21.7812   -6.4187  -15.5160 C   0  0  0  0  0  0  0  0  0  0  0  0
   21.5015   -5.9298  -16.6865 O   0  0  0  0  0  0  0  0  0  0  0  0
   17.5035   -0.3976  -15.0656 C   0  0  0  0  0  0  0  0  0  0  0  0
   17.8564   -2.1590  -14.7878 S   0  0  0  0  0  0  0  0  0  0  0  0
   19.6663   -2.3898  -14.8891 C   0  0  0  0  0  0  0  0  0  0  0  0
   20.0115   -3.8355  -14.7098 C   0  0  0  0  0  0  0  0  0  0  0  0
   21.4995   -4.0421  -14.7991 C   0  0  2  0  0  0  0  0  0  0  0  0
   21.8066   -5.4713  -14.5020 N   0  0  0  0  0  0  0  0  0  0  0  0
   22.1794   -3.2415  -13.7713 C   0  0  0  0  0  0  0  0  0  0  0  0
   22.6642   -3.8962  -12.6226 O   0  0  0  0  0  0  0  0  0  0  0  0
   22.3739   -1.9971  -13.8217 O   0  0  0  0  0  0  0  0  0  0  0  0
  2  3  1  0
  2  1  1  6
  4  6  1  0
  4  2  1  0
  4  5  1  6
  6  7  2  0
  8  6  1  0
  8  9  1  0
  9 10  1  6
 11 15  1  0
 11 10  1  0
 12 11  2  0
 13 12  1  0
 13 14  1  0
 14 15  2  0
 16 23  1  0
 16  9  1  0
 17 16  2  0
 18 19  1  0
 19 20  1  0
 20 21  1  0
 22 21  1  1
 22 24  1  0
 22 23  1  0
 24 25  1  0
 26 24  2  0
M  END
$$$$
