THM.pdb
     RDKit          3D

 26 26  0  0  1  0  0  0  0  0999 V2000
   21.4729  -12.6842  -19.0076 C   0  0  0  0  0  0  0  0  0  0  0  0
   20.7045  -11.5618  -18.3635 C   0  0  1  0  0  0  0  0  0  0  0  0
   20.0168  -11.9869  -17.2277 O   0  0  0  0  0  0  0  0  0  0  0  0
   21.6188  -10.4374  -17.9154 C   0  0  2  0  0  0  0  0  0  0  0  0
   22.5388  -10.9850  -16.9467 N   0  0  0  0  0  0  0  0  0  0  0  0
   20.7895   -9.3327  -17.2800 C   0  0  0  0  0  0  0  0  0  0  0  0
   19.9052   -8.7868  -17.9842 O   0  0  0  0  0  0  0  0  0  0  0  0
   21.0046   -8.9404  -15.9609 N   0  0  0  0  0  0  0  0  0  0  0  0
   20.2626   -7.8544  -15.2461 C   0  0  1  0  0  0  0  0  0  0  0  0
   20.1487   -8.3078  -13.8627 C   0  0  0  0  0  0  0  0  0  0  0  0
   18.8805   -8.7455  -13.3108 C   0  0  0  0  0  0  0  0  0  0  0  0
   17.6276   -8.9651  -13.8076 C   0  0  0  0  0  0  0  0  0  0  0  0
   16.8690   -9.4634  -12.8139 N   0  0  0  0  0  0  0  0  0  0  0  0
   17.6078   -9.5634  -11.7115 C   0  0  0  0  0  0  0  0  0  0  0  0
   18.8200   -9.1352  -11.9961 N   0  0  0  0  0  0  0  0  0  0  0  0
   21.2221   -6.6927  -15.3759 C   0  0  0  0  0  0  0  0  0  0  0  0
   22.4912   -6.9222  -15.2201 O   0  0  0  0  0  0  0  0  0  0  0  0
   24.4183   -1.0694  -19.3726 C   0  0  0  0  0  0  0  0  0  0  0  0
   23.2184   -2.4261  -19.2185 S   0  0  0  0  0  0  0  0  0  0  0  0
   23.1146   -2.8835  -17.4523 C   0  0  0  0  0  0  0  0  0  0  0  0
   22.1090   -3.9761  -17.2619 C   0  0  0  0  0  0  0  0  0  0  0  0
   22.0121   -4.3628  -15.8108 C   0  0  2  0  0  0  0  0  0  0  0  0
   20.9199   -5.3663  -15.6510 N   0  0  0  0  0  0  0  0  0  0  0  0
   21.6329   -3.1940  -15.0047 C   0  0  0  0  0  0  0  0  0  0  0  0
   22.6168   -2.2277  -14.7196 O   0  0  0  0  0  0  0  0  0  0  0  0
   20.4852   -2.9697  -14.5340 O   0  0  0  0  0  0  0  0  0  0  0  0
  2  3  1  0
  2  1  1  1
  4  6  1  0
  4  2  1  0
  4  5  1  1
  6  7  2  0
  8  6  1  0
  8  9  1  0
  9 10  1  1
 11 15  1  0
 11 10  1  0
 12 11  2  0
 13 12  1  0
 13 14  1  0
 14 15  2  0
 16 23  1  0
 16  9  1  0
 17 16  2  0
 18 19  1  0
 19 20  1  0
 20 21  1  0
 22 21  1  6
 22 24  1  0
 22 23  1  0
 24 25  1  0
 26 24  2  0
M  END
$$$$
