THM.pdb
     RDKit          3D

 26 26  0  0  1  0  0  0  0  0999 V2000
   28.1561  -19.0250  -16.1191 C   0  0  0  0  0  0  0  0  0  0  0  0
   27.7964  -17.9136  -17.0681 C   0  0  1  0  0  0  0  0  0  0  0  0
   28.5308  -17.9816  -18.2511 O   0  0  0  0  0  0  0  0  0  0  0  0
   26.3339  -17.9652  -17.4678 C   0  0  2  0  0  0  0  0  0  0  0  0
   26.0768  -16.8312  -18.3237 N   0  0  0  0  0  0  0  0  0  0  0  0
   25.4652  -17.8856  -16.2224 C   0  0  0  0  0  0  0  0  0  0  0  0
   25.2588  -16.7516  -15.7251 O   0  0  0  0  0  0  0  0  0  0  0  0
   24.9175  -19.0329  -15.6533 N   0  0  0  0  0  0  0  0  0  0  0  0
   24.1180  -19.0780  -14.3885 C   0  0  1  0  0  0  0  0  0  0  0  0
   22.8873  -19.7846  -14.7324 C   0  0  0  0  0  0  0  0  0  0  0  0
   21.6857  -19.0695  -15.1190 C   0  0  0  0  0  0  0  0  0  0  0  0
   21.3451  -17.7572  -15.2823 C   0  0  0  0  0  0  0  0  0  0  0  0
   20.0853  -17.7115  -15.7537 N   0  0  0  0  0  0  0  0  0  0  0  0
   19.6274  -18.9535  -15.8912 C   0  0  0  0  0  0  0  0  0  0  0  0
   20.5798  -19.7805  -15.5133 N   0  0  0  0  0  0  0  0  0  0  0  0
   25.0088  -19.9105  -13.4939 C   0  0  0  0  0  0  0  0  0  0  0  0
   25.5741  -20.9657  -13.9983 O   0  0  0  0  0  0  0  0  0  0  0  0
   26.7571  -18.9724   -7.2606 C   0  0  0  0  0  0  0  0  0  0  0  0
   28.1200  -20.0289   -7.8358 S   0  0  0  0  0  0  0  0  0  0  0  0
   27.5768  -20.8562   -9.3719 C   0  0  0  0  0  0  0  0  0  0  0  0
   26.7121  -19.9347  -10.1746 C   0  0  0  0  0  0  0  0  0  0  0  0
   26.2548  -20.6039  -11.4425 C   0  0  2  0  0  0  0  0  0  0  0  0
   25.3171  -19.6910  -12.1586 N   0  0  0  0  0  0  0  0  0  0  0  0
   25.4965  -21.8211  -11.1216 C   0  0  0  0  0  0  0  0  0  0  0  0
   26.1941  -23.0407  -11.0258 O   0  0  0  0  0  0  0  0  0  0  0  0
   24.2535  -21.8782  -10.9196 O   0  0  0  0  0  0  0  0  0  0  0  0
  2  3  1  0
  2  1  1  1
  4  6  1  0
  4  2  1  0
  4  5  1  6
  6  7  2  0
  8  6  1  0
  8  9  1  0
  9 10  1  6
 11 15  1  0
 11 10  1  0
 12 11  2  0
 13 12  1  0
 13 14  1  0
 14 15  2  0
 16 23  1  0
 16  9  1  0
 17 16  2  0
 18 19  1  0
 19 20  1  0
 20 21  1  0
 22 21  1  1
 22 24  1  0
 22 23  1  0
 24 25  1  0
 26 24  2  0
M  END
$$$$
