GAH.pdb
     RDKit          3D

 20 20  0  0  1  0  0  0  0  0999 V2000
    9.0860  -17.0463   15.1857 N   0  0  0  0  0  0  0  0  0  0  0  0
    8.4342  -16.2751   16.1974 C   0  0  0  0  0  0  0  0  0  0  0  0
    9.3196  -15.1866   16.7311 C   0  0  0  0  0  0  0  0  0  0  0  0
   10.5393  -15.1134   16.4617 O   0  0  0  0  0  0  0  0  0  0  0  0
    8.4988  -12.1137   18.6882 C   0  0  0  0  0  0  0  0  0  0  0  0
    9.5084  -13.1655   18.2195 C   0  0  2  0  0  0  0  0  0  0  0  0
    8.7696  -14.1990   17.5712 N   0  0  0  0  0  0  0  0  0  0  0  0
   10.3729  -13.6087   19.3001 C   0  0  0  0  0  0  0  0  0  0  0  0
   11.1777  -12.8169   19.8339 O   0  0  0  0  0  0  0  0  0  0  0  0
   10.3117  -14.9438   19.7593 N   0  0  0  0  0  0  0  0  0  0  0  0
   11.1230  -15.4321   20.8735 C   0  0  1  0  0  0  0  0  0  0  0  0
   10.2594  -16.1747   21.8709 C   0  0  0  0  0  0  0  0  0  0  0  0
    9.1267  -15.3383   22.3338 C   0  0  0  0  0  0  0  0  0  0  0  0
    9.0936  -14.5359   23.4783 C   0  0  0  0  0  0  0  0  0  0  0  0
    7.9014  -13.9236   23.5760 N   0  0  0  0  0  0  0  0  0  0  0  0
    7.1755  -14.3242   22.5110 C   0  0  0  0  0  0  0  0  0  0  0  0
    7.9082  -15.1701   21.7683 N   0  0  0  0  0  0  0  0  0  0  0  0
   12.2542  -16.2469   20.3959 C   0  0  0  0  0  0  0  0  0  0  0  0
   12.4153  -16.5540   19.1908 O   0  0  0  0  0  0  0  0  0  0  0  0
   13.2284  -16.7298   21.2864 O   0  0  0  0  0  0  0  0  0  0  0  0
  2  1  1  0
  3  2  1  0
  4  3  2  0
  6  5  1  1
  6  7  1  0
  7  3  1  0
  8  6  1  0
  8  9  2  0
 10  8  1  0
 11 10  1  0
 12 13  1  0
 11 12  1  1
 13 14  2  0
 14 15  1  0
 16 15  1  0
 17 13  1  0
 17 16  2  0
 18 11  1  0
 19 18  2  0
 20 18  1  0
M  END
$$$$
