GAH.pdb
     RDKit          3D

 20 20  0  0  1  0  0  0  0  0999 V2000
   10.8062  -25.7738   24.6007 N   0  0  0  0  0  0  0  0  0  0  0  0
   10.6717  -26.2892   25.9270 C   0  0  0  0  0  0  0  0  0  0  0  0
   10.4621  -25.1967   26.9351 C   0  0  0  0  0  0  0  0  0  0  0  0
   10.8481  -24.0212   26.7491 O   0  0  0  0  0  0  0  0  0  0  0  0
    8.5595  -25.2054   30.1547 C   0  0  0  0  0  0  0  0  0  0  0  0
    9.5717  -24.5622   29.2024 C   0  0  2  0  0  0  0  0  0  0  0  0
    9.8052  -25.4912   28.1457 N   0  0  0  0  0  0  0  0  0  0  0  0
   10.7626  -24.1084   29.9005 C   0  0  0  0  0  0  0  0  0  0  0  0
   11.6879  -24.9058   30.1605 O   0  0  0  0  0  0  0  0  0  0  0  0
   10.8864  -22.7567   30.2935 N   0  0  0  0  0  0  0  0  0  0  0  0
   12.0624  -22.2443   30.9953 C   0  0  1  0  0  0  0  0  0  0  0  0
   12.4309  -20.8705   30.4769 C   0  0  0  0  0  0  0  0  0  0  0  0
   13.0044  -20.9433   29.1121 C   0  0  0  0  0  0  0  0  0  0  0  0
   13.2905  -22.1038   28.3869 C   0  0  0  0  0  0  0  0  0  0  0  0
   13.8014  -21.7815   27.1866 N   0  0  0  0  0  0  0  0  0  0  0  0
   13.8448  -20.4333   27.1371 C   0  0  0  0  0  0  0  0  0  0  0  0
   13.3682  -19.9323   28.2885 N   0  0  0  0  0  0  0  0  0  0  0  0
   11.8629  -22.2573   32.4554 C   0  0  0  0  0  0  0  0  0  0  0  0
   10.7621  -22.5250   32.9930 O   0  0  0  0  0  0  0  0  0  0  0  0
   12.9189  -21.9641   33.3352 O   0  0  0  0  0  0  0  0  0  0  0  0
  2  1  1  0
  3  2  1  0
  4  3  2  0
  6  5  1  1
  6  7  1  0
  7  3  1  0
  8  6  1  0
  8  9  2  0
 10  8  1  0
 11 10  1  0
 12 13  1  0
 11 12  1  6
 13 14  2  0
 14 15  1  0
 16 15  1  0
 17 13  1  0
 17 16  2  0
 18 11  1  0
 19 18  2  0
 20 18  1  0
M  END
$$$$
