GAH.pdb
     RDKit          3D

 20 20  0  0  1  0  0  0  0  0999 V2000
    8.3392  -22.4446   21.4746 N   0  0  0  0  0  0  0  0  0  0  0  0
    8.7750  -21.2262   22.0815 C   0  0  0  0  0  0  0  0  0  0  0  0
    8.7447  -20.0764   21.1167 C   0  0  0  0  0  0  0  0  0  0  0  0
    9.7279  -19.7593   20.4109 O   0  0  0  0  0  0  0  0  0  0  0  0
    5.9196  -17.8175   20.1431 C   0  0  0  0  0  0  0  0  0  0  0  0
    7.4046  -18.1912   20.1236 C   0  0  2  0  0  0  0  0  0  0  0  0
    7.5680  -19.3130   20.9891 N   0  0  0  0  0  0  0  0  0  0  0  0
    8.2559  -17.0519   20.4215 C   0  0  0  0  0  0  0  0  0  0  0  0
    8.3075  -16.0777   19.6418 O   0  0  0  0  0  0  0  0  0  0  0  0
    9.0362  -17.0345   21.5995 N   0  0  0  0  0  0  0  0  0  0  0  0
    9.8768  -15.8974   21.9715 C   0  0  1  0  0  0  0  0  0  0  0  0
    9.0213  -14.6921   22.2993 C   0  0  0  0  0  0  0  0  0  0  0  0
    8.7912  -13.8502   21.1013 C   0  0  0  0  0  0  0  0  0  0  0  0
    9.3018  -14.0661   19.8178 C   0  0  0  0  0  0  0  0  0  0  0  0
    8.8814  -13.0973   18.9869 N   0  0  0  0  0  0  0  0  0  0  0  0
    8.1111  -12.2681   19.7224 C   0  0  0  0  0  0  0  0  0  0  0  0
    8.0573  -12.7184   20.9866 N   0  0  0  0  0  0  0  0  0  0  0  0
   10.7962  -16.2470   23.0688 C   0  0  0  0  0  0  0  0  0  0  0  0
   12.0112  -15.9368   23.0683 O   0  0  0  0  0  0  0  0  0  0  0  0
   10.3468  -16.9602   24.1934 O   0  0  0  0  0  0  0  0  0  0  0  0
  2  1  1  0
  3  2  1  0
  4  3  2  0
  6  5  1  1
  6  7  1  0
  7  3  1  0
  8  6  1  0
  8  9  2  0
 10  8  1  0
 11 10  1  0
 12 13  1  0
 11 12  1  1
 13 14  2  0
 14 15  1  0
 16 15  1  0
 17 13  1  0
 17 16  2  0
 18 11  1  0
 19 18  2  0
 20 18  1  0
M  END
$$$$
