GAH.pdb
     RDKit          3D

 20 20  0  0  1  0  0  0  0  0999 V2000
    9.1982  -16.2104   15.2643 N   0  0  0  0  0  0  0  0  0  0  0  0
    8.4170  -15.8282   16.3985 C   0  0  0  0  0  0  0  0  0  0  0  0
    9.0671  -14.7250   17.1819 C   0  0  0  0  0  0  0  0  0  0  0  0
   10.2518  -14.3690   16.9940 O   0  0  0  0  0  0  0  0  0  0  0  0
    7.6708  -12.3043   19.6506 C   0  0  0  0  0  0  0  0  0  0  0  0
    8.8553  -13.0963   19.0894 C   0  0  2  0  0  0  0  0  0  0  0  0
    8.3261  -14.0527   18.1732 N   0  0  0  0  0  0  0  0  0  0  0  0
    9.6897  -13.6469   20.1440 C   0  0  0  0  0  0  0  0  0  0  0  0
   10.2708  -12.8927   20.9519 O   0  0  0  0  0  0  0  0  0  0  0  0
    9.8525  -15.0453   20.2664 N   0  0  0  0  0  0  0  0  0  0  0  0
   10.5471  -15.6622   21.3956 C   0  0  1  0  0  0  0  0  0  0  0  0
   10.0198  -17.0598   21.6415 C   0  0  0  0  0  0  0  0  0  0  0  0
    8.6143  -17.0327   22.1112 C   0  0  0  0  0  0  0  0  0  0  0  0
    7.9598  -15.9620   22.7277 C   0  0  0  0  0  0  0  0  0  0  0  0
    6.6919  -16.3020   23.0145 N   0  0  0  0  0  0  0  0  0  0  0  0
    6.5295  -17.5729   22.5899 C   0  0  0  0  0  0  0  0  0  0  0  0
    7.6791  -18.0097   22.0498 N   0  0  0  0  0  0  0  0  0  0  0  0
   12.0079  -15.6403   21.2027 C   0  0  0  0  0  0  0  0  0  0  0  0
   12.5504  -15.3078   20.1221 O   0  0  0  0  0  0  0  0  0  0  0  0
   12.8832  -15.9987   22.2423 O   0  0  0  0  0  0  0  0  0  0  0  0
  2  1  1  0
  3  2  1  0
  4  3  2  0
  6  5  1  1
  6  7  1  0
  7  3  1  0
  8  6  1  0
  8  9  2  0
 10  8  1  0
 11 10  1  0
 12 13  1  0
 11 12  1  6
 13 14  2  0
 14 15  1  0
 16 15  1  0
 17 13  1  0
 17 16  2  0
 18 11  1  0
 19 18  2  0
 20 18  1  0
M  END
$$$$
