GAH.pdb
     RDKit          3D

 20 20  0  0  1  0  0  0  0  0999 V2000
   11.4926  -17.2834   15.0785 N   0  0  0  0  0  0  0  0  0  0  0  0
   12.1827  -17.7076   16.2561 C   0  0  0  0  0  0  0  0  0  0  0  0
   11.3069  -17.6433   17.4737 C   0  0  0  0  0  0  0  0  0  0  0  0
   10.3438  -16.8510   17.5734 O   0  0  0  0  0  0  0  0  0  0  0  0
   11.1359  -19.9212   20.4219 C   0  0  0  0  0  0  0  0  0  0  0  0
   10.7807  -18.5948   19.7439 C   0  0  2  0  0  0  0  0  0  0  0  0
   11.5672  -18.5043   18.5576 N   0  0  0  0  0  0  0  0  0  0  0  0
   10.9039  -17.4689   20.6542 C   0  0  0  0  0  0  0  0  0  0  0  0
   12.0139  -16.9323   20.8528 O   0  0  0  0  0  0  0  0  0  0  0  0
    9.7659  -16.9681   21.3259 N   0  0  0  0  0  0  0  0  0  0  0  0
    9.8126  -15.7814   22.1789 C   0  0  1  0  0  0  0  0  0  0  0  0
    8.5371  -14.9782   22.0381 C   0  0  0  0  0  0  0  0  0  0  0  0
    8.4419  -14.3440   20.7018 C   0  0  0  0  0  0  0  0  0  0  0  0
    9.4054  -14.3801   19.6893 C   0  0  0  0  0  0  0  0  0  0  0  0
    8.9724  -13.6939   18.6182 N   0  0  0  0  0  0  0  0  0  0  0  0
    7.7480  -13.2217   18.9338 C   0  0  0  0  0  0  0  0  0  0  0  0
    7.4309  -13.6105   20.1797 N   0  0  0  0  0  0  0  0  0  0  0  0
   10.0977  -16.1393   23.5797 C   0  0  0  0  0  0  0  0  0  0  0  0
    9.8783  -17.2797   24.0526 O   0  0  0  0  0  0  0  0  0  0  0  0
   10.6409  -15.2001   24.4731 O   0  0  0  0  0  0  0  0  0  0  0  0
  2  1  1  0
  3  2  1  0
  4  3  2  0
  6  5  1  1
  6  7  1  0
  7  3  1  0
  8  6  1  0
  8  9  2  0
 10  8  1  0
 11 10  1  0
 12 13  1  0
 11 12  1  1
 13 14  2  0
 14 15  1  0
 16 15  1  0
 17 13  1  0
 17 16  2  0
 18 11  1  0
 19 18  2  0
 20 18  1  0
M  END
$$$$
