GAH.pdb
     RDKit          3D

 20 20  0  0  1  0  0  0  0  0999 V2000
    7.9573  -13.1943   17.0519 N   0  0  0  0  0  0  0  0  0  0  0  0
    9.0659  -13.7511   17.7617 C   0  0  0  0  0  0  0  0  0  0  0  0
    8.6305  -14.4827   18.9982 C   0  0  0  0  0  0  0  0  0  0  0  0
    7.5631  -14.2234   19.5972 O   0  0  0  0  0  0  0  0  0  0  0  0
   10.0496  -17.5288   20.6201 C   0  0  0  0  0  0  0  0  0  0  0  0
    9.1461  -16.2934   20.6690 C   0  0  2  0  0  0  0  0  0  0  0  0
    9.4464  -15.5062   19.5182 N   0  0  0  0  0  0  0  0  0  0  0  0
    9.2484  -15.5949   21.9391 C   0  0  0  0  0  0  0  0  0  0  0  0
   10.2207  -14.8477   22.1756 O   0  0  0  0  0  0  0  0  0  0  0  0
    8.2461  -15.7544   22.9225 N   0  0  0  0  0  0  0  0  0  0  0  0
    8.2044  -14.9505   24.1432 C   0  0  1  0  0  0  0  0  0  0  0  0
    6.7785  -14.5635   24.4732 C   0  0  0  0  0  0  0  0  0  0  0  0
    6.7198  -13.6733   25.6569 C   0  0  0  0  0  0  0  0  0  0  0  0
    7.8059  -13.1091   26.3327 C   0  0  0  0  0  0  0  0  0  0  0  0
    7.3694  -12.3576   27.3576 N   0  0  0  0  0  0  0  0  0  0  0  0
    6.0219  -12.4352   27.3442 C   0  0  0  0  0  0  0  0  0  0  0  0
    5.6337  -13.2220   26.3272 N   0  0  0  0  0  0  0  0  0  0  0  0
    8.8711  -15.6401   25.2619 C   0  0  0  0  0  0  0  0  0  0  0  0
    8.6613  -16.8432   25.5464 O   0  0  0  0  0  0  0  0  0  0  0  0
    9.7941  -14.9690   26.0822 O   0  0  0  0  0  0  0  0  0  0  0  0
  2  1  1  0
  3  2  1  0
  4  3  2  0
  6  5  1  1
  6  7  1  0
  7  3  1  0
  8  6  1  0
  8  9  2  0
 10  8  1  0
 11 10  1  0
 12 13  1  0
 11 12  1  1
 13 14  2  0
 14 15  1  0
 16 15  1  0
 17 13  1  0
 17 16  2  0
 18 11  1  0
 19 18  2  0
 20 18  1  0
M  END
$$$$
