GAH.pdb
     RDKit          3D

 20 20  0  0  1  0  0  0  0  0999 V2000
    6.3754  -13.6154   20.3180 N   0  0  0  0  0  0  0  0  0  0  0  0
    7.7376  -13.9061   20.6386 C   0  0  0  0  0  0  0  0  0  0  0  0
    7.8511  -14.9439   21.7175 C   0  0  0  0  0  0  0  0  0  0  0  0
    6.9159  -15.2043   22.5069 O   0  0  0  0  0  0  0  0  0  0  0  0
   10.3555  -17.6240   22.2184 C   0  0  0  0  0  0  0  0  0  0  0  0
    9.2829  -16.7036   22.8079 C   0  0  2  0  0  0  0  0  0  0  0  0
    9.0537  -15.6629   21.8600 N   0  0  0  0  0  0  0  0  0  0  0  0
    9.6273  -16.2551   24.1465 C   0  0  0  0  0  0  0  0  0  0  0  0
   10.4934  -15.3717   24.3163 O   0  0  0  0  0  0  0  0  0  0  0  0
    8.9838  -16.8155   25.2730 N   0  0  0  0  0  0  0  0  0  0  0  0
    9.2960  -16.4089   26.6424 C   0  0  1  0  0  0  0  0  0  0  0  0
    8.0425  -15.9499   27.3566 C   0  0  0  0  0  0  0  0  0  0  0  0
    7.5216  -14.6885   26.7782 C   0  0  0  0  0  0  0  0  0  0  0  0
    8.0999  -13.4199   26.8829 C   0  0  0  0  0  0  0  0  0  0  0  0
    7.3473  -12.5166   26.2323 N   0  0  0  0  0  0  0  0  0  0  0  0
    6.2989  -13.1912   25.7151 C   0  0  0  0  0  0  0  0  0  0  0  0
    6.4033  -14.4899   26.0416 N   0  0  0  0  0  0  0  0  0  0  0  0
    9.9966  -17.4800   27.3728 C   0  0  0  0  0  0  0  0  0  0  0  0
   10.2044  -18.6170   26.8864 O   0  0  0  0  0  0  0  0  0  0  0  0
   10.4763  -17.2754   28.6779 O   0  0  0  0  0  0  0  0  0  0  0  0
  2  1  1  0
  3  2  1  0
  4  3  2  0
  6  5  1  6
  6  7  1  0
  7  3  1  0
  8  6  1  0
  8  9  2  0
 10  8  1  0
 11 10  1  0
 12 13  1  0
 11 12  1  1
 13 14  2  0
 14 15  1  0
 16 15  1  0
 17 13  1  0
 17 16  2  0
 18 11  1  0
 19 18  2  0
 20 18  1  0
M  END
$$$$
