RTG.pdb
     RDKit          3D

 23 22  0  0  1  0  0  0  0  0999 V2000
   20.6140  -20.1957  -10.2620 N   0  0  0  0  0  0  0  0  0  0  0  0
   21.6267  -21.0032   -9.6648 C   0  0  0  0  0  0  0  0  0  0  0  0
   21.7466  -21.0928   -8.3704 N   0  0  0  0  0  0  0  0  0  0  0  0
   22.5552  -21.7498  -10.4327 N   0  0  0  0  0  0  0  0  0  0  0  0
   23.6735  -21.1558  -11.1398 C   0  0  0  0  0  0  0  0  0  0  0  0
   24.8428  -20.9550  -10.2205 C   0  0  0  0  0  0  0  0  0  0  0  0
   26.0401  -20.3270  -10.8276 C   0  0  0  0  0  0  0  0  0  0  0  0
   26.2515  -20.5925  -12.2904 C   0  0  2  0  0  0  0  0  0  0  0  0
   27.0856  -21.7259  -12.5792 N   0  0  0  0  0  0  0  0  0  0  0  0
   26.7920  -19.4154  -13.0064 C   0  0  0  0  0  0  0  0  0  0  0  0
   28.0000  -19.1287  -12.8856 O   0  0  0  0  0  0  0  0  0  0  0  0
   22.5668  -21.6169   -7.9973 C   0  0  0  0  0  0  0  0  0  0  0  0
   28.4234  -19.0723  -14.8193 C   0  0  2  0  0  0  0  0  0  0  0  0
   27.4813  -18.2046  -15.6581 O   0  0  0  0  0  0  0  0  0  0  0  0
   26.7866  -18.9532  -16.5790 C   0  0  2  0  0  0  0  0  0  0  0  0
   26.5465  -17.5318  -14.6757 N   0  0  0  0  0  0  0  0  0  0  0  0
   25.9837  -18.5846  -13.8380 C   0  0  0  0  0  0  0  0  0  0  0  0
   25.4811  -16.7536  -15.3528 O   0  0  0  0  0  0  0  0  0  0  0  0
   24.3964  -17.3515  -15.5730 N   0  0  0  0  0  0  0  0  0  0  0  0
   25.6085  -15.4136  -15.7556 C   0  0  0  0  0  0  0  0  0  0  0  0
   24.4671  -14.6737  -16.3057 C   0  0  0  0  0  0  0  0  0  0  0  0
   24.2522  -15.0604  -17.7103 O   0  0  0  0  0  0  0  0  0  0  0  0
   24.8233  -16.0920  -18.1463 O   0  0  0  0  0  0  0  0  0  0  0  0
  2  1  1  0
  2  3  2  0
  4  2  1  0
  5  4  1  0
  6  5  1  0
  7  8  1  0
  7  6  1  0
  8 10  1  0
  8  9  1  1
 10 11  2  0
 10 16  1  0
 13 12  1  6
 14 13  1  0
 15 17  1  0
 15 13  1  0
 15 16  1  6
 17 18  2  0
 19 20  1  0
 19 17  1  0
 20 21  1  0
 21 22  2  0
 21 23  1  0
M  END
$$$$
