RTG.pdb
     RDKit          3D

 23 22  0  0  1  0  0  0  0  0999 V2000
   19.2503  -21.1909  -17.5688 N   0  0  0  0  0  0  0  0  0  0  0  0
   18.2732  -20.7060  -16.6497 C   0  0  0  0  0  0  0  0  0  0  0  0
   17.6246  -21.5149  -15.8605 N   0  0  0  0  0  0  0  0  0  0  0  0
   17.9502  -19.3303  -16.5387 N   0  0  0  0  0  0  0  0  0  0  0  0
   18.6515  -18.2810  -17.2533 C   0  0  0  0  0  0  0  0  0  0  0  0
   19.9981  -18.7556  -17.7158 C   0  0  0  0  0  0  0  0  0  0  0  0
   21.0614  -18.7837  -16.6837 C   0  0  0  0  0  0  0  0  0  0  0  0
   22.4581  -19.0140  -17.1846 C   0  0  2  0  0  0  0  0  0  0  0  0
   22.5394  -19.4711  -18.5440 N   0  0  0  0  0  0  0  0  0  0  0  0
   23.2194  -19.9495  -16.3268 C   0  0  0  0  0  0  0  0  0  0  0  0
   23.6359  -21.0209  -16.8113 O   0  0  0  0  0  0  0  0  0  0  0  0
   16.9460  -21.0938  -15.1905 C   0  0  0  0  0  0  0  0  0  0  0  0
   25.4451  -21.0132  -16.2930 C   0  0  2  0  0  0  0  0  0  0  0  0
   25.7289  -20.5319  -14.8675 O   0  0  0  0  0  0  0  0  0  0  0  0
   26.3179  -19.2893  -14.8591 C   0  0  2  0  0  0  0  0  0  0  0  0
   24.3916  -20.5135  -14.1583 N   0  0  0  0  0  0  0  0  0  0  0  0
   23.5013  -19.6772  -14.9551 C   0  0  0  0  0  0  0  0  0  0  0  0
   24.4981  -20.0144  -12.7660 O   0  0  0  0  0  0  0  0  0  0  0  0
   24.1642  -18.8181  -12.5664 N   0  0  0  0  0  0  0  0  0  0  0  0
   24.9415  -20.7834  -11.6768 C   0  0  0  0  0  0  0  0  0  0  0  0
   24.9844  -20.2258  -10.3204 C   0  0  0  0  0  0  0  0  0  0  0  0
   25.5532  -21.2167   -9.3914 O   0  0  0  0  0  0  0  0  0  0  0  0
   25.8789  -22.3456   -9.8386 O   0  0  0  0  0  0  0  0  0  0  0  0
  2  1  1  0
  2  3  2  0
  4  2  1  0
  5  4  1  0
  6  5  1  0
  7  8  1  0
  7  6  1  0
  8 10  1  0
  8  9  1  6
 10 11  2  0
 10 16  1  0
 13 12  1  6
 14 13  1  0
 15 17  1  0
 15 13  1  0
 15 16  1  1
 17 18  2  0
 19 20  1  0
 19 17  1  0
 20 21  1  0
 21 22  2  0
 21 23  1  0
M  END
$$$$
