RTG.pdb
     RDKit          3D

 23 22  0  0  1  0  0  0  0  0999 V2000
   20.2620  -19.0904  -11.4497 N   0  0  0  0  0  0  0  0  0  0  0  0
   19.9547  -20.3378  -10.8298 C   0  0  0  0  0  0  0  0  0  0  0  0
   18.7393  -20.6311  -10.4629 N   0  0  0  0  0  0  0  0  0  0  0  0
   20.9403  -21.3247  -10.5772 N   0  0  0  0  0  0  0  0  0  0  0  0
   22.3308  -21.1886  -10.9666 C   0  0  0  0  0  0  0  0  0  0  0  0
   23.1512  -20.6344   -9.8385 C   0  0  0  0  0  0  0  0  0  0  0  0
   24.5719  -20.3525  -10.1523 C   0  0  0  0  0  0  0  0  0  0  0  0
   25.2303  -21.2919  -11.1212 C   0  0  2  0  0  0  0  0  0  0  0  0
   26.3038  -22.0691  -10.5669 N   0  0  0  0  0  0  0  0  0  0  0  0
   25.7264  -20.5996  -12.3317 C   0  0  0  0  0  0  0  0  0  0  0  0
   26.8912  -20.1533  -12.3458 O   0  0  0  0  0  0  0  0  0  0  0  0
   18.5745  -21.5742  -10.0506 C   0  0  0  0  0  0  0  0  0  0  0  0
   25.9220  -22.1440  -15.3681 C   0  0  2  0  0  0  0  0  0  0  0  0
   26.5583  -20.7615  -15.2009 O   0  0  0  0  0  0  0  0  0  0  0  0
   27.1138  -20.3129  -16.3761 C   0  0  1  0  0  0  0  0  0  0  0  0
   25.4497  -19.8450  -14.7293 N   0  0  0  0  0  0  0  0  0  0  0  0
   24.9225  -20.4180  -13.4962 C   0  0  0  0  0  0  0  0  0  0  0  0
   24.3833  -19.6796  -15.7464 O   0  0  0  0  0  0  0  0  0  0  0  0
   23.5493  -20.6158  -15.8497 N   0  0  0  0  0  0  0  0  0  0  0  0
   24.2512  -18.5607  -16.5859 C   0  0  0  0  0  0  0  0  0  0  0  0
   23.1022  -18.4185  -17.4873 C   0  0  0  0  0  0  0  0  0  0  0  0
   23.1996  -17.1465  -18.2229 O   0  0  0  0  0  0  0  0  0  0  0  0
   22.1401  -16.5376  -18.5182 O   0  0  0  0  0  0  0  0  0  0  0  0
  2  1  1  0
  2  3  2  0
  4  2  1  0
  5  4  1  0
  6  5  1  0
  7  8  1  0
  7  6  1  0
  8 10  1  0
  8  9  1  1
 10 11  2  0
 10 16  1  0
 13 12  1  1
 14 13  1  0
 15 17  1  0
 15 13  1  0
 15 16  1  1
 17 18  2  0
 19 20  1  0
 19 17  1  0
 20 21  1  0
 21 22  2  0
 21 23  1  0
M  END
$$$$
