RTG.pdb
     RDKit          3D

 23 22  0  0  1  0  0  0  0  0999 V2000
   24.1485  -20.4678   -8.5587 N   0  0  0  0  0  0  0  0  0  0  0  0
   23.9011  -20.6155   -9.9557 C   0  0  0  0  0  0  0  0  0  0  0  0
   22.7758  -20.2321  -10.4891 N   0  0  0  0  0  0  0  0  0  0  0  0
   24.8526  -21.1819  -10.8406 N   0  0  0  0  0  0  0  0  0  0  0  0
   26.2553  -21.3485  -10.5116 C   0  0  0  0  0  0  0  0  0  0  0  0
   27.0921  -20.3027  -11.1889 C   0  0  0  0  0  0  0  0  0  0  0  0
   26.6183  -19.8613  -12.5220 C   0  0  0  0  0  0  0  0  0  0  0  0
   27.1663  -20.6171  -13.6981 C   0  0  2  0  0  0  0  0  0  0  0  0
   28.5920  -20.5329  -13.8529 N   0  0  0  0  0  0  0  0  0  0  0  0
   26.5297  -20.2180  -14.9732 C   0  0  0  0  0  0  0  0  0  0  0  0
   26.9832  -19.2412  -15.6027 O   0  0  0  0  0  0  0  0  0  0  0  0
   22.6051  -20.4824  -11.4865 C   0  0  0  0  0  0  0  0  0  0  0  0
   23.5397  -21.1760  -18.7186 C   0  0  1  0  0  0  0  0  0  0  0  0
   24.2329  -21.6808  -17.4502 O   0  0  0  0  0  0  0  0  0  0  0  0
   25.2774  -22.5255  -17.7444 C   0  0  1  0  0  0  0  0  0  0  0  0
   24.7114  -20.4466  -16.7157 N   0  0  0  0  0  0  0  0  0  0  0  0
   25.4077  -20.9086  -15.5205 C   0  0  0  0  0  0  0  0  0  0  0  0
   23.5992  -19.5283  -16.3711 O   0  0  0  0  0  0  0  0  0  0  0  0
   22.8989  -19.8369  -15.3727 N   0  0  0  0  0  0  0  0  0  0  0  0
   23.2866  -18.3561  -17.0800 C   0  0  0  0  0  0  0  0  0  0  0  0
   22.2476  -17.4353  -16.6052 C   0  0  0  0  0  0  0  0  0  0  0  0
   20.9486  -17.8030  -17.1932 O   0  0  0  0  0  0  0  0  0  0  0  0
   20.9039  -18.7600  -18.0073 O   0  0  0  0  0  0  0  0  0  0  0  0
  2  1  1  0
  2  3  2  0
  4  2  1  0
  5  4  1  0
  6  5  1  0
  7  8  1  0
  7  6  1  0
  8 10  1  0
  8  9  1  6
 10 11  2  0
 10 16  1  0
 13 12  1  1
 14 13  1  0
 15 17  1  0
 15 13  1  0
 15 16  1  1
 17 18  2  0
 19 20  1  0
 19 17  1  0
 20 21  1  0
 21 22  2  0
 21 23  1  0
M  END
$$$$
