RTG.pdb
     RDKit          3D

 23 22  0  0  1  0  0  0  0  0999 V2000
   27.8536  -21.4092  -10.3243 N   0  0  0  0  0  0  0  0  0  0  0  0
   27.1727  -21.0190  -11.5153 C   0  0  0  0  0  0  0  0  0  0  0  0
   27.5749  -21.4194  -12.6882 N   0  0  0  0  0  0  0  0  0  0  0  0
   26.0295  -20.1811  -11.4978 N   0  0  0  0  0  0  0  0  0  0  0  0
   25.4258  -19.6722  -10.2813 C   0  0  0  0  0  0  0  0  0  0  0  0
   24.5943  -20.7285   -9.6135 C   0  0  0  0  0  0  0  0  0  0  0  0
   23.3920  -21.1698  -10.3593 C   0  0  0  0  0  0  0  0  0  0  0  0
   22.2495  -20.1962  -10.4002 C   0  0  2  0  0  0  0  0  0  0  0  0
   21.3509  -20.2795   -9.2824 N   0  0  0  0  0  0  0  0  0  0  0  0
   21.4603  -20.3026  -11.6478 C   0  0  0  0  0  0  0  0  0  0  0  0
   20.5646  -21.1667  -11.7320 O   0  0  0  0  0  0  0  0  0  0  0  0
   27.0584  -21.0656  -13.5217 C   0  0  0  0  0  0  0  0  0  0  0  0
   19.1887  -18.1382  -13.4923 C   0  0  2  0  0  0  0  0  0  0  0  0
   20.3836  -18.3275  -14.4306 O   0  0  0  0  0  0  0  0  0  0  0  0
   21.2862  -17.2962  -14.3176 C   0  0  2  0  0  0  0  0  0  0  0  0
   21.0090  -19.6524  -14.0495 N   0  0  0  0  0  0  0  0  0  0  0  0
   21.6810  -19.4511  -12.7709 C   0  0  0  0  0  0  0  0  0  0  0  0
   21.9506  -20.1496  -15.0815 O   0  0  0  0  0  0  0  0  0  0  0  0
   23.1772  -20.0694  -14.8144 N   0  0  0  0  0  0  0  0  0  0  0  0
   21.5617  -20.6948  -16.3168 C   0  0  0  0  0  0  0  0  0  0  0  0
   22.5577  -21.1262  -17.3041 C   0  0  0  0  0  0  0  0  0  0  0  0
   21.8808  -21.7271  -18.4657 O   0  0  0  0  0  0  0  0  0  0  0  0
   20.6335  -21.8791  -18.4251 O   0  0  0  0  0  0  0  0  0  0  0  0
  2  1  1  0
  2  3  2  0
  4  2  1  0
  5  4  1  0
  6  5  1  0
  7  8  1  0
  7  6  1  0
  8 10  1  0
  8  9  1  1
 10 11  2  0
 10 16  1  0
 13 12  1  6
 14 13  1  0
 15 17  1  0
 15 13  1  0
 15 16  1  6
 17 18  2  0
 19 20  1  0
 19 17  1  0
 20 21  1  0
 21 22  2  0
 21 23  1  0
M  END
$$$$
