RTG.pdb
     RDKit          3D

 23 22  0  0  1  0  0  0  0  0999 V2000
   18.5684  -29.3240  -10.8820 N   0  0  0  0  0  0  0  0  0  0  0  0
   19.6302  -28.7638  -11.6521 C   0  0  0  0  0  0  0  0  0  0  0  0
   20.0011  -29.2951  -12.7826 N   0  0  0  0  0  0  0  0  0  0  0  0
   20.3402  -27.6079  -11.2408 N   0  0  0  0  0  0  0  0  0  0  0  0
   20.0424  -26.8727  -10.0266 C   0  0  0  0  0  0  0  0  0  0  0  0
   19.1451  -25.7044  -10.3143 C   0  0  0  0  0  0  0  0  0  0  0  0
   18.7389  -24.8985   -9.1387 C   0  0  0  0  0  0  0  0  0  0  0  0
   17.2790  -24.9346   -8.7893 C   0  0  2  0  0  0  0  0  0  0  0  0
   16.4742  -23.9635   -9.4770 N   0  0  0  0  0  0  0  0  0  0  0  0
   17.0421  -24.7976   -7.3348 C   0  0  0  0  0  0  0  0  0  0  0  0
   17.1840  -23.6818   -6.7953 O   0  0  0  0  0  0  0  0  0  0  0  0
   20.7761  -28.8304  -13.3024 C   0  0  0  0  0  0  0  0  0  0  0  0
   15.0791  -26.0723   -3.1548 C   0  0  2  0  0  0  0  0  0  0  0  0
   15.1438  -26.1560   -4.6822 O   0  0  0  0  0  0  0  0  0  0  0  0
   14.2369  -25.3098   -5.2758 C   0  0  1  0  0  0  0  0  0  0  0  0
   16.5645  -25.7958   -5.0610 N   0  0  0  0  0  0  0  0  0  0  0  0
   16.6542  -25.8973   -6.5131 C   0  0  0  0  0  0  0  0  0  0  0  0
   17.5638  -26.6669   -4.3965 O   0  0  0  0  0  0  0  0  0  0  0  0
   17.7034  -27.8266   -4.8635 N   0  0  0  0  0  0  0  0  0  0  0  0
   18.3493  -26.2816   -3.2971 C   0  0  0  0  0  0  0  0  0  0  0  0
   19.2988  -27.2131   -2.6780 C   0  0  0  0  0  0  0  0  0  0  0  0
   18.5741  -28.1724   -1.8276 O   0  0  0  0  0  0  0  0  0  0  0  0
   17.3464  -27.9922   -1.6258 O   0  0  0  0  0  0  0  0  0  0  0  0
  2  1  1  0
  2  3  2  0
  4  2  1  0
  5  4  1  0
  6  5  1  0
  7  8  1  0
  7  6  1  0
  8 10  1  0
  8  9  1  6
 10 11  2  0
 10 16  1  0
 13 12  1  1
 14 13  1  0
 15 17  1  0
 15 13  1  0
 15 16  1  6
 17 18  2  0
 19 20  1  0
 19 17  1  0
 20 21  1  0
 21 22  2  0
 21 23  1  0
M  END
$$$$
