RTG.pdb
     RDKit          3D

 23 22  0  0  1  0  0  0  0  0999 V2000
   26.7169  -19.7275   -7.5433 N   0  0  0  0  0  0  0  0  0  0  0  0
   25.7093  -20.5459   -8.1344 C   0  0  0  0  0  0  0  0  0  0  0  0
   24.4789  -20.5217   -7.7062 N   0  0  0  0  0  0  0  0  0  0  0  0
   25.9800  -21.4264   -9.2118 N   0  0  0  0  0  0  0  0  0  0  0  0
   26.8403  -21.0871  -10.3290 C   0  0  0  0  0  0  0  0  0  0  0  0
   26.1151  -21.2513  -11.6327 C   0  0  0  0  0  0  0  0  0  0  0  0
   26.8595  -20.8284  -12.8425 C   0  0  0  0  0  0  0  0  0  0  0  0
   26.1960  -21.1187  -14.1578 C   0  0  2  0  0  0  0  0  0  0  0  0
   27.0759  -21.0859  -15.2929 N   0  0  0  0  0  0  0  0  0  0  0  0
   25.0505  -20.2200  -14.4239 C   0  0  0  0  0  0  0  0  0  0  0  0
   25.2654  -19.0255  -14.7121 O   0  0  0  0  0  0  0  0  0  0  0  0
   23.8013  -21.1786   -8.1488 C   0  0  0  0  0  0  0  0  0  0  0  0
   20.8359  -18.9121  -15.9569 C   0  0  2  0  0  0  0  0  0  0  0  0
   22.0601  -19.8291  -15.8899 O   0  0  0  0  0  0  0  0  0  0  0  0
   23.0287  -19.4493  -16.7890 C   0  0  1  0  0  0  0  0  0  0  0  0
   22.5667  -19.7472  -14.4657 N   0  0  0  0  0  0  0  0  0  0  0  0
   23.6961  -20.6642  -14.3646 C   0  0  0  0  0  0  0  0  0  0  0  0
   21.5149  -20.0750  -13.4730 O   0  0  0  0  0  0  0  0  0  0  0  0
   21.3640  -21.2912  -13.1889 N   0  0  0  0  0  0  0  0  0  0  0  0
   20.6924  -19.1262  -12.8426 C   0  0  0  0  0  0  0  0  0  0  0  0
   19.7393  -19.5206  -11.7991 C   0  0  0  0  0  0  0  0  0  0  0  0
   18.4714  -19.9452  -12.4161 O   0  0  0  0  0  0  0  0  0  0  0  0
   18.3580  -19.8817  -13.6666 O   0  0  0  0  0  0  0  0  0  0  0  0
  2  1  1  0
  2  3  2  0
  4  2  1  0
  5  4  1  0
  6  5  1  0
  7  8  1  0
  7  6  1  0
  8 10  1  0
  8  9  1  6
 10 11  2  0
 10 16  1  0
 13 12  1  6
 14 13  1  0
 15 17  1  0
 15 13  1  0
 15 16  1  6
 17 18  2  0
 19 20  1  0
 19 17  1  0
 20 21  1  0
 21 22  2  0
 21 23  1  0
M  END
$$$$
