RTG.pdb
     RDKit          3D

 23 22  0  0  1  0  0  0  0  0999 V2000
   14.7346  -11.8575  -14.2461 N   0  0  0  0  0  0  0  0  0  0  0  0
   15.0660  -13.2045  -14.5782 C   0  0  0  0  0  0  0  0  0  0  0  0
   14.1453  -14.1179  -14.7036 N   0  0  0  0  0  0  0  0  0  0  0  0
   16.4018  -13.6288  -14.7899 N   0  0  0  0  0  0  0  0  0  0  0  0
   17.5465  -12.7410  -14.7211 C   0  0  0  0  0  0  0  0  0  0  0  0
   17.9761  -12.3133  -16.0942 C   0  0  0  0  0  0  0  0  0  0  0  0
   19.1576  -11.4205  -16.1513 C   0  0  0  0  0  0  0  0  0  0  0  0
   19.5741  -10.9679  -17.5211 C   0  0  2  0  0  0  0  0  0  0  0  0
   20.0892  -12.0097  -18.3656 N   0  0  0  0  0  0  0  0  0  0  0  0
   20.5616   -9.8663  -17.4768 C   0  0  0  0  0  0  0  0  0  0  0  0
   21.7712  -10.1235  -17.6405 O   0  0  0  0  0  0  0  0  0  0  0  0
   14.4566  -15.0912  -14.9096 C   0  0  0  0  0  0  0  0  0  0  0  0
   21.8600   -5.2962  -18.0687 C   0  0  2  0  0  0  0  0  0  0  0  0
   20.7644   -6.3640  -18.1300 O   0  0  0  0  0  0  0  0  0  0  0  0
   20.6286   -6.8797  -19.3975 C   0  0  1  0  0  0  0  0  0  0  0  0
   21.1679   -7.4346  -17.1388 N   0  0  0  0  0  0  0  0  0  0  0  0
   20.1873   -8.5080  -17.2526 C   0  0  0  0  0  0  0  0  0  0  0  0
   21.2445   -6.9186  -15.7507 O   0  0  0  0  0  0  0  0  0  0  0  0
   20.1559   -6.6110  -15.2003 N   0  0  0  0  0  0  0  0  0  0  0  0
   22.4378   -6.7559  -15.0271 C   0  0  0  0  0  0  0  0  0  0  0  0
   22.4224   -6.3423  -13.6195 C   0  0  0  0  0  0  0  0  0  0  0  0
   22.0449   -4.9223  -13.5208 O   0  0  0  0  0  0  0  0  0  0  0  0
   21.8620   -4.2716  -14.5808 O   0  0  0  0  0  0  0  0  0  0  0  0
  2  1  1  0
  2  3  2  0
  4  2  1  0
  5  4  1  0
  6  5  1  0
  7  8  1  0
  7  6  1  0
  8 10  1  0
  8  9  1  1
 10 11  2  0
 10 16  1  0
 13 12  1  6
 14 13  1  0
 15 17  1  0
 15 13  1  0
 15 16  1  1
 17 18  2  0
 19 20  1  0
 19 17  1  0
 20 21  1  0
 21 22  2  0
 21 23  1  0
M  END
$$$$
