RTG.pdb
     RDKit          3D

 23 22  0  0  1  0  0  0  0  0999 V2000
   22.9044  -19.9582   -9.6407 N   0  0  0  0  0  0  0  0  0  0  0  0
   23.9350  -20.9261   -9.4521 C   0  0  0  0  0  0  0  0  0  0  0  0
   23.8684  -21.8098   -8.4969 N   0  0  0  0  0  0  0  0  0  0  0  0
   25.0826  -20.9865  -10.2819 N   0  0  0  0  0  0  0  0  0  0  0  0
   25.3426  -20.0535  -11.3615 C   0  0  0  0  0  0  0  0  0  0  0  0
   25.3186  -20.7515  -12.6900 C   0  0  0  0  0  0  0  0  0  0  0  0
   24.3179  -20.2524  -13.6626 C   0  0  0  0  0  0  0  0  0  0  0  0
   23.8534  -18.8387  -13.4614 C   0  0  2  0  0  0  0  0  0  0  0  0
   22.5159  -18.7142  -12.9521 N   0  0  0  0  0  0  0  0  0  0  0  0
   23.9659  -18.0258  -14.6930 C   0  0  0  0  0  0  0  0  0  0  0  0
   22.9278  -17.6520  -15.2750 O   0  0  0  0  0  0  0  0  0  0  0  0
   24.6577  -22.4850   -8.4088 C   0  0  0  0  0  0  0  0  0  0  0  0
   25.8827  -14.9121  -15.0600 C   0  0  2  0  0  0  0  0  0  0  0  0
   26.4106  -15.8004  -16.1898 O   0  0  0  0  0  0  0  0  0  0  0  0
   27.6010  -16.3994  -15.8505 C   0  0  2  0  0  0  0  0  0  0  0  0
   25.3309  -16.8283  -16.4530 N   0  0  0  0  0  0  0  0  0  0  0  0
   25.2231  -17.6463  -15.2505 C   0  0  0  0  0  0  0  0  0  0  0  0
   25.6215  -17.6590  -17.6465 O   0  0  0  0  0  0  0  0  0  0  0  0
   25.9907  -18.8430  -17.4358 N   0  0  0  0  0  0  0  0  0  0  0  0
   25.5113  -17.2110  -18.9736 C   0  0  0  0  0  0  0  0  0  0  0  0
   25.7989  -18.1026  -20.1028 C   0  0  0  0  0  0  0  0  0  0  0  0
   27.2242  -18.0099  -20.4612 O   0  0  0  0  0  0  0  0  0  0  0  0
   27.9937  -17.3571  -19.7113 O   0  0  0  0  0  0  0  0  0  0  0  0
  2  1  1  0
  2  3  2  0
  4  2  1  0
  5  4  1  0
  6  5  1  0
  7  8  1  0
  7  6  1  0
  8 10  1  0
  8  9  1  6
 10 11  2  0
 10 16  1  0
 13 12  1  6
 14 13  1  0
 15 17  1  0
 15 13  1  0
 15 16  1  6
 17 18  2  0
 19 20  1  0
 19 17  1  0
 20 21  1  0
 21 22  2  0
 21 23  1  0
M  END
$$$$
