RTG.pdb
     RDKit          3D

 23 22  0  0  1  0  0  0  0  0999 V2000
   20.0531  -22.9003   -7.1117 N   0  0  0  0  0  0  0  0  0  0  0  0
   19.2855  -23.2454   -8.2633 C   0  0  0  0  0  0  0  0  0  0  0  0
   18.3203  -24.1184   -8.1978 N   0  0  0  0  0  0  0  0  0  0  0  0
   19.5216  -22.6674   -9.5358 N   0  0  0  0  0  0  0  0  0  0  0  0
   20.7958  -22.1027   -9.9370 C   0  0  0  0  0  0  0  0  0  0  0  0
   21.0465  -20.7975   -9.2397 C   0  0  0  0  0  0  0  0  0  0  0  0
   22.2709  -20.0711   -9.6516 C   0  0  0  0  0  0  0  0  0  0  0  0
   23.5212  -20.8961   -9.7558 C   0  0  2  0  0  0  0  0  0  0  0  0
   24.1858  -21.1374   -8.5052 N   0  0  0  0  0  0  0  0  0  0  0  0
   24.4999  -20.3221  -10.7061 C   0  0  0  0  0  0  0  0  0  0  0  0
   25.0623  -19.2441  -10.4271 O   0  0  0  0  0  0  0  0  0  0  0  0
   17.8072  -24.3368   -9.0786 C   0  0  0  0  0  0  0  0  0  0  0  0
   27.5619  -21.2229  -11.7987 C   0  0  2  0  0  0  0  0  0  0  0  0
   26.8737  -21.1485  -13.1643 O   0  0  0  0  0  0  0  0  0  0  0  0
   26.5501  -22.3982  -13.6383 C   0  0  2  0  0  0  0  0  0  0  0  0
   25.6380  -20.2972  -12.9642 N   0  0  0  0  0  0  0  0  0  0  0  0
   24.8326  -20.9540  -11.9412 C   0  0  0  0  0  0  0  0  0  0  0  0
   24.8704  -20.1130  -14.2195 O   0  0  0  0  0  0  0  0  0  0  0  0
   23.7013  -20.5769  -14.2414 N   0  0  0  0  0  0  0  0  0  0  0  0
   25.3616  -19.4633  -15.3644 C   0  0  0  0  0  0  0  0  0  0  0  0
   24.5305  -19.3040  -16.5630 C   0  0  0  0  0  0  0  0  0  0  0  0
   25.3046  -18.6336  -17.6213 O   0  0  0  0  0  0  0  0  0  0  0  0
   26.4722  -18.2467  -17.3618 O   0  0  0  0  0  0  0  0  0  0  0  0
  2  1  1  0
  2  3  2  0
  4  2  1  0
  5  4  1  0
  6  5  1  0
  7  8  1  0
  7  6  1  0
  8 10  1  0
  8  9  1  1
 10 11  2  0
 10 16  1  0
 13 12  1  6
 14 13  1  0
 15 17  1  0
 15 13  1  0
 15 16  1  6
 17 18  2  0
 19 20  1  0
 19 17  1  0
 20 21  1  0
 21 22  2  0
 21 23  1  0
M  END
$$$$
