RGT.pdb
     RDKit          3D

 23 22  0  0  1  0  0  0  0  0999 V2000
   18.0935  -21.4988  -14.2523 N   0  0  0  0  0  0  0  0  0  0  0  0
   18.8383  -22.6614  -13.9061 C   0  0  0  0  0  0  0  0  0  0  0  0
   18.3151  -23.8370  -14.1145 N   0  0  0  0  0  0  0  0  0  0  0  0
   20.1325  -22.6014  -13.3410 N   0  0  0  0  0  0  0  0  0  0  0  0
   20.7981  -21.3582  -13.0296 C   0  0  0  0  0  0  0  0  0  0  0  0
   21.7073  -21.0156  -14.2286 C   0  0  0  0  0  0  0  0  0  0  0  0
   22.4033  -19.7344  -13.9085 C   0  0  0  0  0  0  0  0  0  0  0  0
   23.2293  -19.2192  -15.0449 C   0  0  2  0  0  0  0  0  0  0  0  0
   24.3721  -20.0990  -15.2974 N   0  0  0  0  0  0  0  0  0  0  0  0
   23.6329  -17.8258  -14.9024 C   0  0  0  0  0  0  0  0  0  0  0  0
   22.7430  -16.9357  -14.7812 O   0  0  0  0  0  0  0  0  0  0  0  0
   18.8381  -24.7030  -13.8361 N   0  0  0  0  0  0  0  0  0  0  0  0
   24.9971  -17.3930  -14.8907 C   0  0  0  0  0  0  0  0  0  0  0  0
   25.2994  -16.0041  -14.9352 C   0  0  0  0  0  0  0  0  0  0  0  0
   24.8497  -15.3518  -16.1940 O   0  0  0  0  0  0  0  0  0  0  0  0
   24.4714  -15.9700  -17.2051 C   0  0  0  0  0  0  0  0  0  0  0  0
   23.1579  -11.1482  -18.1455 C   0  0  2  0  0  0  0  0  0  0  0  0
   23.8737  -11.8262  -17.0019 O   0  0  0  0  0  0  0  0  0  0  0  0
   22.9574  -11.9392  -15.9469 C   0  0  1  0  0  0  0  0  0  0  0  0
   24.3784  -13.2000  -17.3974 N   0  0  0  0  0  0  0  0  0  0  0  0
   24.8559  -13.9341  -16.2350 C   0  0  0  0  0  0  0  0  0  0  0  0
   25.3956  -13.1387  -18.4591 O   0  0  0  0  0  0  0  0  0  0  0  0
   25.0226  -13.2654  -19.7770 O   0  0  0  0  0  0  0  0  0  0  0  0
  2  4  1  0
  2  1  1  0
  3  2  2  0
  5  4  1  0
  6  5  1  0
  7  8  1  0
  7  6  1  0
  8  9  1  1
  8 10  1  0
 10 12  1  0
 10 11  2  0
 12 13  1  0
 14 13  1  0
 14 20  1  0
 15 14  2  0
 17 16  1  1
 18 17  1  0
 19 21  1  0
 19 20  1  1
 19 17  1  0
 21 22  1  0
 23 21  2  0
M  END
$$$$
