RGT.pdb
     RDKit          3D

 23 22  0  0  1  0  0  0  0  0999 V2000
   19.6185  -27.4874  -13.8883 N   0  0  0  0  0  0  0  0  0  0  0  0
   20.6010  -28.2311  -13.1756 C   0  0  0  0  0  0  0  0  0  0  0  0
   21.1069  -29.3017  -13.7206 N   0  0  0  0  0  0  0  0  0  0  0  0
   21.0594  -27.8599  -11.8912 N   0  0  0  0  0  0  0  0  0  0  0  0
   20.5632  -26.7034  -11.1825 C   0  0  0  0  0  0  0  0  0  0  0  0
   19.2495  -27.1229  -10.4898 C   0  0  0  0  0  0  0  0  0  0  0  0
   19.3089  -26.6262   -9.0834 C   0  0  0  0  0  0  0  0  0  0  0  0
   18.5896  -25.3281   -8.8920 C   0  0  2  0  0  0  0  0  0  0  0  0
   19.2929  -24.2390   -9.5722 N   0  0  0  0  0  0  0  0  0  0  0  0
   18.3021  -25.0077   -7.4992 C   0  0  0  0  0  0  0  0  0  0  0  0
   19.2629  -24.8277   -6.6973 O   0  0  0  0  0  0  0  0  0  0  0  0
   21.8246  -29.8666  -13.2040 N   0  0  0  0  0  0  0  0  0  0  0  0
   16.9775  -24.8816   -6.9722 C   0  0  0  0  0  0  0  0  0  0  0  0
   16.7872  -24.6738   -5.5783 C   0  0  0  0  0  0  0  0  0  0  0  0
   15.3547  -24.5409   -5.2010 O   0  0  0  0  0  0  0  0  0  0  0  0
   14.4092  -24.9779   -5.8813 C   0  0  0  0  0  0  0  0  0  0  0  0
   14.2240  -24.7690   -1.2587 C   0  0  2  0  0  0  0  0  0  0  0  0
   13.6814  -23.5611   -1.9844 O   0  0  0  0  0  0  0  0  0  0  0  0
   14.4932  -22.4709   -1.6412 C   0  0  2  0  0  0  0  0  0  0  0  0
   13.6944  -23.7622   -3.4870 N   0  0  0  0  0  0  0  0  0  0  0  0
   15.0570  -23.8719   -3.9862 C   0  0  0  0  0  0  0  0  0  0  0  0
   12.9354  -22.7209   -4.1979 O   0  0  0  0  0  0  0  0  0  0  0  0
   11.5604  -22.7289   -4.1653 O   0  0  0  0  0  0  0  0  0  0  0  0
  2  4  1  0
  2  1  1  0
  3  2  2  0
  5  4  1  0
  6  5  1  0
  7  8  1  0
  7  6  1  0
  8  9  1  1
  8 10  1  0
 10 12  1  0
 10 11  2  0
 12 13  1  0
 14 13  1  0
 14 20  1  0
 15 14  2  0
 17 16  1  1
 18 17  1  0
 19 21  1  0
 19 20  1  6
 19 17  1  0
 21 22  1  0
 23 21  2  0
M  END
$$$$
