RGT.pdb
     RDKit          3D

 23 22  0  0  1  0  0  0  0  0999 V2000
   23.1300  -18.5482  -16.7575 N   0  0  0  0  0  0  0  0  0  0  0  0
   21.8051  -18.4450  -17.2679 C   0  0  0  0  0  0  0  0  0  0  0  0
   21.6274  -18.0684  -18.5031 N   0  0  0  0  0  0  0  0  0  0  0  0
   20.6606  -18.7347  -16.4909 N   0  0  0  0  0  0  0  0  0  0  0  0
   20.5185  -19.9486  -15.7216 C   0  0  0  0  0  0  0  0  0  0  0  0
   21.3851  -19.7889  -14.4547 C   0  0  0  0  0  0  0  0  0  0  0  0
   21.3092  -21.0733  -13.6978 C   0  0  0  0  0  0  0  0  0  0  0  0
   19.9729  -21.2986  -13.0632 C   0  0  2  0  0  0  0  0  0  0  0  0
   19.6375  -20.2009  -12.1543 N   0  0  0  0  0  0  0  0  0  0  0  0
   19.8307  -22.6009  -12.4237 C   0  0  0  0  0  0  0  0  0  0  0  0
   20.3618  -23.6136  -12.9631 O   0  0  0  0  0  0  0  0  0  0  0  0
   20.6614  -17.8610  -18.8566 N   0  0  0  0  0  0  0  0  0  0  0  0
   19.1150  -22.8099  -11.2020 C   0  0  0  0  0  0  0  0  0  0  0  0
   19.0688  -24.1076  -10.6221 C   0  0  0  0  0  0  0  0  0  0  0  0
   18.3122  -24.1451   -9.3421 O   0  0  0  0  0  0  0  0  0  0  0  0
   17.7638  -23.1554   -8.8250 C   0  0  0  0  0  0  0  0  0  0  0  0
   16.3605  -27.1592   -5.8999 C   0  0  2  0  0  0  0  0  0  0  0  0
   17.3326  -26.9907   -7.0428 O   0  0  0  0  0  0  0  0  0  0  0  0
   16.8112  -27.6928   -8.1386 C   0  0  1  0  0  0  0  0  0  0  0  0
   17.5177  -25.5304   -7.4055 N   0  0  0  0  0  0  0  0  0  0  0  0
   18.2150  -25.3933   -8.6755 C   0  0  0  0  0  0  0  0  0  0  0  0
   18.1791  -24.7670   -6.3351 O   0  0  0  0  0  0  0  0  0  0  0  0
   17.4260  -24.1591   -5.3578 O   0  0  0  0  0  0  0  0  0  0  0  0
  2  4  1  0
  2  1  1  0
  3  2  2  0
  5  4  1  0
  6  5  1  0
  7  8  1  0
  7  6  1  0
  8  9  1  1
  8 10  1  0
 10 12  1  0
 10 11  2  0
 12 13  1  0
 14 13  1  0
 14 20  1  0
 15 14  2  0
 17 16  1  1
 18 17  1  0
 19 21  1  0
 19 20  1  1
 19 17  1  0
 21 22  1  0
 23 21  2  0
M  END
$$$$
