RGT.pdb
     RDKit          3D

 23 22  0  0  1  0  0  0  0  0999 V2000
   19.0254  -21.0424  -15.7664 N   0  0  0  0  0  0  0  0  0  0  0  0
   17.7307  -21.6289  -15.8453 C   0  0  0  0  0  0  0  0  0  0  0  0
   16.8441  -21.1068  -16.6455 N   0  0  0  0  0  0  0  0  0  0  0  0
   17.3566  -22.7629  -15.0892 N   0  0  0  0  0  0  0  0  0  0  0  0
   18.2163  -23.3661  -14.0978 C   0  0  0  0  0  0  0  0  0  0  0  0
   17.3840  -23.5221  -12.8077 C   0  0  0  0  0  0  0  0  0  0  0  0
   18.2892  -24.0753  -11.7574 C   0  0  0  0  0  0  0  0  0  0  0  0
   18.6807  -23.0598  -10.7305 C   0  0  2  0  0  0  0  0  0  0  0  0
   19.7074  -22.1582  -11.2563 N   0  0  0  0  0  0  0  0  0  0  0  0
   19.0613  -23.6313   -9.4446 C   0  0  0  0  0  0  0  0  0  0  0  0
   20.2652  -23.5506   -9.0664 O   0  0  0  0  0  0  0  0  0  0  0  0
   15.9085  -21.5663  -16.7665 N   0  0  0  0  0  0  0  0  0  0  0  0
   18.1426  -24.2900   -8.5669 C   0  0  0  0  0  0  0  0  0  0  0  0
   18.5976  -24.8014   -7.3204 C   0  0  0  0  0  0  0  0  0  0  0  0
   17.4956  -25.3276   -6.4713 O   0  0  0  0  0  0  0  0  0  0  0  0
   16.2866  -25.1879   -6.7294 C   0  0  0  0  0  0  0  0  0  0  0  0
   18.5529  -26.7890   -2.5685 C   0  0  2  0  0  0  0  0  0  0  0  0
   17.4862  -27.4982   -3.3678 O   0  0  0  0  0  0  0  0  0  0  0  0
   16.5152  -27.9448   -2.4606 C   0  0  1  0  0  0  0  0  0  0  0  0
   16.8523  -26.5766   -4.3912 N   0  0  0  0  0  0  0  0  0  0  0  0
   17.8555  -26.0324   -5.2943 C   0  0  0  0  0  0  0  0  0  0  0  0
   16.0478  -25.5146   -3.7662 O   0  0  0  0  0  0  0  0  0  0  0  0
   14.7208  -25.7356   -3.4795 O   0  0  0  0  0  0  0  0  0  0  0  0
  2  4  1  0
  2  1  1  0
  3  2  2  0
  5  4  1  0
  6  5  1  0
  7  8  1  0
  7  6  1  0
  8  9  1  6
  8 10  1  0
 10 12  1  0
 10 11  2  0
 12 13  1  0
 14 13  1  0
 14 20  1  0
 15 14  2  0
 17 16  1  1
 18 17  1  0
 19 21  1  0
 19 20  1  6
 19 17  1  0
 21 22  1  0
 23 21  2  0
M  END
$$$$
