RGT.pdb
     RDKit          3D

 23 22  0  0  1  0  0  0  0  0999 V2000
   20.9470  -26.0590  -12.8307 N   0  0  0  0  0  0  0  0  0  0  0  0
   20.6796  -27.4056  -12.4543 C   0  0  0  0  0  0  0  0  0  0  0  0
   21.1246  -28.3753  -13.2031 N   0  0  0  0  0  0  0  0  0  0  0  0
   19.9467  -27.7451  -11.2944 N   0  0  0  0  0  0  0  0  0  0  0  0
   19.6797  -26.8067  -10.2296 C   0  0  0  0  0  0  0  0  0  0  0  0
   18.8393  -25.6612  -10.8322 C   0  0  0  0  0  0  0  0  0  0  0  0
   17.6909  -25.4181   -9.9100 C   0  0  0  0  0  0  0  0  0  0  0  0
   18.0581  -24.5733   -8.7308 C   0  0  2  0  0  0  0  0  0  0  0  0
   19.5059  -24.5856   -8.5133 N   0  0  0  0  0  0  0  0  0  0  0  0
   17.3198  -24.8956   -7.5158 C   0  0  0  0  0  0  0  0  0  0  0  0
   16.0589  -24.8013   -7.5175 O   0  0  0  0  0  0  0  0  0  0  0  0
   20.9214  -29.3728  -12.9488 N   0  0  0  0  0  0  0  0  0  0  0  0
   17.9426  -25.3196   -6.2990 C   0  0  0  0  0  0  0  0  0  0  0  0
   17.1421  -25.6337   -5.1663 C   0  0  0  0  0  0  0  0  0  0  0  0
   17.9341  -26.1628   -4.0240 O   0  0  0  0  0  0  0  0  0  0  0  0
   19.1587  -26.3783   -4.0628 C   0  0  0  0  0  0  0  0  0  0  0  0
   16.5112  -25.7191   -0.0238 C   0  0  2  0  0  0  0  0  0  0  0  0
   16.9743  -27.0848   -0.4712 O   0  0  0  0  0  0  0  0  0  0  0  0
   15.8315  -27.8154   -0.8258 C   0  0  2  0  0  0  0  0  0  0  0  0
   17.9168  -26.9928   -1.6551 N   0  0  0  0  0  0  0  0  0  0  0  0
   17.2405  -26.4361   -2.8174 C   0  0  0  0  0  0  0  0  0  0  0  0
   18.5574  -28.2815   -1.9624 O   0  0  0  0  0  0  0  0  0  0  0  0
   19.7507  -28.6158   -1.3657 O   0  0  0  0  0  0  0  0  0  0  0  0
  2  4  1  0
  2  1  1  0
  3  2  2  0
  5  4  1  0
  6  5  1  0
  7  8  1  0
  7  6  1  0
  8  9  1  1
  8 10  1  0
 10 12  1  0
 10 11  2  0
 12 13  1  0
 14 13  1  0
 14 20  1  0
 15 14  2  0
 17 16  1  1
 18 17  1  0
 19 21  1  0
 19 20  1  1
 19 17  1  0
 21 22  1  0
 23 21  2  0
M  END
$$$$
