RGT.pdb
     RDKit          3D

 23 22  0  0  1  0  0  0  0  0999 V2000
   17.9717  -26.0955  -13.1471 N   0  0  0  0  0  0  0  0  0  0  0  0
   18.4828  -25.2194  -12.1483 C   0  0  0  0  0  0  0  0  0  0  0  0
   18.1976  -25.4468  -10.8969 N   0  0  0  0  0  0  0  0  0  0  0  0
   19.2939  -24.1025  -12.4520 N   0  0  0  0  0  0  0  0  0  0  0  0
   19.6502  -23.7327  -13.8018 C   0  0  0  0  0  0  0  0  0  0  0  0
   20.5183  -22.4600  -13.7112 C   0  0  0  0  0  0  0  0  0  0  0  0
   19.6149  -21.3293  -13.3455 C   0  0  0  0  0  0  0  0  0  0  0  0
   19.6955  -20.1840  -14.3051 C   0  0  2  0  0  0  0  0  0  0  0  0
   19.8013  -20.6672  -15.6832 N   0  0  0  0  0  0  0  0  0  0  0  0
   20.7340  -19.2124  -13.9851 C   0  0  0  0  0  0  0  0  0  0  0  0
   20.8455  -18.7988  -12.7954 O   0  0  0  0  0  0  0  0  0  0  0  0
   18.5908  -24.8279  -10.1463 N   0  0  0  0  0  0  0  0  0  0  0  0
   21.6522  -18.6872  -14.9491 C   0  0  0  0  0  0  0  0  0  0  0  0
   22.6318  -17.7371  -14.5492 C   0  0  0  0  0  0  0  0  0  0  0  0
   23.5417  -17.3397  -15.6566 O   0  0  0  0  0  0  0  0  0  0  0  0
   23.5783  -17.9003  -16.7665 C   0  0  0  0  0  0  0  0  0  0  0  0
   26.7669  -14.6448  -14.7358 C   0  0  2  0  0  0  0  0  0  0  0  0
   25.9967  -14.4759  -16.0234 O   0  0  0  0  0  0  0  0  0  0  0  0
   26.9105  -14.0620  -17.0028 C   0  0  1  0  0  0  0  0  0  0  0  0
   25.3338  -15.7710  -16.4495 N   0  0  0  0  0  0  0  0  0  0  0  0
   24.4202  -16.2509  -15.4232 C   0  0  0  0  0  0  0  0  0  0  0  0
   26.3121  -16.8011  -16.8335 O   0  0  0  0  0  0  0  0  0  0  0  0
   26.7044  -16.9217  -18.1463 O   0  0  0  0  0  0  0  0  0  0  0  0
  2  4  1  0
  2  1  1  0
  3  2  2  0
  5  4  1  0
  6  5  1  0
  7  8  1  0
  7  6  1  0
  8  9  1  6
  8 10  1  0
 10 12  1  0
 10 11  2  0
 12 13  1  0
 14 13  1  0
 14 20  1  0
 15 14  2  0
 17 16  1  1
 18 17  1  0
 19 21  1  0
 19 20  1  1
 19 17  1  0
 21 22  1  0
 23 21  2  0
M  END
$$$$
