RGT.pdb
     RDKit          3D

 23 22  0  0  1  0  0  0  0  0999 V2000
   19.0693  -23.6292   -8.2511 N   0  0  0  0  0  0  0  0  0  0  0  0
   18.1589  -24.5121   -8.8978 C   0  0  0  0  0  0  0  0  0  0  0  0
   17.3914  -25.2765   -8.1728 N   0  0  0  0  0  0  0  0  0  0  0  0
   18.0462  -24.6003  -10.3039 N   0  0  0  0  0  0  0  0  0  0  0  0
   18.9852  -23.9797  -11.2090 C   0  0  0  0  0  0  0  0  0  0  0  0
   18.2851  -22.7455  -11.8156 C   0  0  0  0  0  0  0  0  0  0  0  0
   19.0914  -21.5465  -11.4407 C   0  0  0  0  0  0  0  0  0  0  0  0
   20.0652  -21.1427  -12.5027 C   0  0  2  0  0  0  0  0  0  0  0  0
   19.9523  -22.0176  -13.6711 N   0  0  0  0  0  0  0  0  0  0  0  0
   21.4414  -21.0296  -12.0352 C   0  0  0  0  0  0  0  0  0  0  0  0
   21.7020  -20.2593  -11.0670 O   0  0  0  0  0  0  0  0  0  0  0  0
   16.7048  -25.9223   -8.6340 N   0  0  0  0  0  0  0  0  0  0  0  0
   22.5362  -21.7479  -12.6129 C   0  0  0  0  0  0  0  0  0  0  0  0
   23.8609  -21.5070  -12.1552 C   0  0  0  0  0  0  0  0  0  0  0  0
   24.6548  -20.6661  -13.0906 O   0  0  0  0  0  0  0  0  0  0  0  0
   24.2291  -19.6302  -13.6321 C   0  0  0  0  0  0  0  0  0  0  0  0
   28.6346  -20.1071  -12.4718 C   0  0  2  0  0  0  0  0  0  0  0  0
   28.3160  -20.5424  -13.8821 O   0  0  0  0  0  0  0  0  0  0  0  0
   28.5976  -21.9131  -13.9674 C   0  0  2  0  0  0  0  0  0  0  0  0
   26.8613  -20.2912  -14.2270 N   0  0  0  0  0  0  0  0  0  0  0  0
   25.9808  -21.0795  -13.3776 C   0  0  0  0  0  0  0  0  0  0  0  0
   26.5788  -20.5079  -15.6550 O   0  0  0  0  0  0  0  0  0  0  0  0
   27.1936  -19.7248  -16.6041 O   0  0  0  0  0  0  0  0  0  0  0  0
  2  4  1  0
  2  1  1  0
  3  2  2  0
  5  4  1  0
  6  5  1  0
  7  8  1  0
  7  6  1  0
  8  9  1  6
  8 10  1  0
 10 12  1  0
 10 11  2  0
 12 13  1  0
 14 13  1  0
 14 20  1  0
 15 14  2  0
 17 16  1  6
 18 17  1  0
 19 21  1  0
 19 20  1  6
 19 17  1  0
 21 22  1  0
 23 21  2  0
M  END
$$$$
