RGT.pdb
     RDKit          3D

 23 22  0  0  1  0  0  0  0  0999 V2000
   21.3031  -19.9152  -16.5149 N   0  0  0  0  0  0  0  0  0  0  0  0
   21.4454  -18.6674  -15.8447 C   0  0  0  0  0  0  0  0  0  0  0  0
   20.4299  -17.8516  -15.7978 N   0  0  0  0  0  0  0  0  0  0  0  0
   22.6486  -18.2664  -15.2207 N   0  0  0  0  0  0  0  0  0  0  0  0
   23.8568  -19.0565  -15.2604 C   0  0  0  0  0  0  0  0  0  0  0  0
   23.6327  -20.2776  -14.3437 C   0  0  0  0  0  0  0  0  0  0  0  0
   24.1280  -19.9111  -12.9840 C   0  0  0  0  0  0  0  0  0  0  0  0
   25.0931  -20.9091  -12.4258 C   0  0  2  0  0  0  0  0  0  0  0  0
   24.9605  -22.1979  -13.1078 N   0  0  0  0  0  0  0  0  0  0  0  0
   25.0315  -21.0488  -10.9761 C   0  0  0  0  0  0  0  0  0  0  0  0
   24.1258  -21.7674  -10.4641 O   0  0  0  0  0  0  0  0  0  0  0  0
   20.5363  -16.9027  -15.3627 N   0  0  0  0  0  0  0  0  0  0  0  0
   25.9475  -20.4128  -10.0790 C   0  0  0  0  0  0  0  0  0  0  0  0
   25.7848  -20.5667   -8.6746 C   0  0  0  0  0  0  0  0  0  0  0  0
   26.7530  -19.7589   -7.8858 O   0  0  0  0  0  0  0  0  0  0  0  0
   27.4256  -18.8222   -8.3525 C   0  0  0  0  0  0  0  0  0  0  0  0
   28.7352  -19.0324   -3.3711 C   0  0  2  0  0  0  0  0  0  0  0  0
   27.7658  -19.8009   -4.2368 O   0  0  0  0  0  0  0  0  0  0  0  0
   26.4727  -19.4219   -3.8498 C   0  0  1  0  0  0  0  0  0  0  0  0
   27.9740  -19.5001   -5.7080 N   0  0  0  0  0  0  0  0  0  0  0  0
   26.9128  -20.0843   -6.5145 C   0  0  0  0  0  0  0  0  0  0  0  0
   29.3062  -19.9098   -6.1803 O   0  0  0  0  0  0  0  0  0  0  0  0
   30.3817  -19.0674   -6.0203 O   0  0  0  0  0  0  0  0  0  0  0  0
  2  4  1  0
  2  1  1  0
  3  2  2  0
  5  4  1  0
  6  5  1  0
  7  8  1  0
  7  6  1  0
  8  9  1  6
  8 10  1  0
 10 12  1  0
 10 11  2  0
 12 13  1  0
 14 13  1  0
 14 20  1  0
 15 14  2  0
 17 16  1  1
 18 17  1  0
 19 21  1  0
 19 20  1  1
 19 17  1  0
 21 22  1  0
 23 21  2  0
M  END
$$$$
