LIT.pdb
     RDKit          3D

 24 23  0  0  1  0  0  0  0  0999 V2000
    7.4777  -14.3617   18.5177 C   0  0  0  0  0  0  0  0  0  0  0  0
    7.3246  -13.4080   19.7024 C   0  0  2  0  0  0  0  0  0  0  0  0
    7.3277  -11.9671   19.2114 C   0  0  0  0  0  0  0  0  0  0  0  0
    8.5011  -13.5501   20.6394 C   0  0  0  0  0  0  0  0  0  0  0  0
    8.3412  -14.8498   21.3849 C   0  0  2  0  0  0  0  0  0  0  0  0
    6.9664  -15.3053   21.3394 N   0  0  0  0  0  0  0  0  0  0  0  0
    8.7611  -14.6703   22.8240 C   0  0  0  0  0  0  0  0  0  0  0  0
    9.9183  -14.3507   23.1312 O   0  0  0  0  0  0  0  0  0  0  0  0
    6.0053  -11.7256   26.3091 C   0  0  0  0  0  0  0  0  0  0  0  0
    7.1205  -12.4972   25.5709 C   0  0  0  0  0  0  0  0  0  0  0  0
    7.1725  -13.9194   26.0424 C   0  0  2  0  0  0  0  0  0  0  0  0
    7.8250  -13.8384   27.4359 C   0  0  0  0  0  0  0  0  0  0  0  0
    8.0578  -14.8164   25.2174 C   0  0  2  0  0  0  0  0  0  0  0  0
    7.8105  -14.8727   23.8279 N   0  0  0  0  0  0  0  0  0  0  0  0
    8.1769  -16.1581   25.7593 C   0  0  0  0  0  0  0  0  0  0  0  0
    7.1855  -16.8792   25.9595 O   0  0  0  0  0  0  0  0  0  0  0  0
    9.4454  -19.2131   24.5159 C   0  0  0  0  0  0  0  0  0  0  0  0
   10.3209  -18.9495   25.7195 C   0  0  1  0  0  0  0  0  0  0  0  0
   11.5564  -18.4937   25.3325 O   0  0  0  0  0  0  0  0  0  0  0  0
    9.6156  -17.9983   26.6644 C   0  0  2  0  0  0  0  0  0  0  0  0
    9.4569  -16.6847   26.0785 N   0  0  0  0  0  0  0  0  0  0  0  0
   10.3416  -17.8655   27.9337 C   0  0  0  0  0  0  0  0  0  0  0  0
   10.8791  -16.8037   28.2669 O   0  0  0  0  0  0  0  0  0  0  0  0
   10.4338  -18.9570   28.7923 O   0  0  0  0  0  0  0  0  0  0  0  0
  2  1  1  6
  2  4  1  0
  3  2  1  0
  5  4  1  0
  5  6  1  1
  7  5  1  0
  8  7  2  0
  9 10  1  0
 11 10  1  0
 11 13  1  0
 11 12  1  1
 13 14  1  6
 14  7  1  0
 15 16  2  0
 15 13  1  0
 18 17  1  6
 18 20  1  0
 19 18  1  0
 20 21  1  6
 21 15  1  0
 22 20  1  0
 23 22  2  0
 24 22  1  0
M  END
$$$$
