LIT.pdb
     RDKit          3D

 24 23  0  0  1  0  0  0  0  0999 V2000
    6.2417  -14.1996   19.1396 C   0  0  0  0  0  0  0  0  0  0  0  0
    7.0818  -15.4532   19.3829 C   0  0  2  0  0  0  0  0  0  0  0  0
    6.2833  -16.6932   19.0063 C   0  0  0  0  0  0  0  0  0  0  0  0
    7.4135  -15.5796   20.8513 C   0  0  0  0  0  0  0  0  0  0  0  0
    8.0811  -14.2999   21.2840 C   0  0  2  0  0  0  0  0  0  0  0  0
    9.2506  -14.0279   20.4730 N   0  0  0  0  0  0  0  0  0  0  0  0
    8.4903  -14.3999   22.7339 C   0  0  0  0  0  0  0  0  0  0  0  0
    9.6339  -14.7416   23.0672 O   0  0  0  0  0  0  0  0  0  0  0  0
    5.6772  -11.1572   26.2464 C   0  0  0  0  0  0  0  0  0  0  0  0
    6.8834  -11.8745   25.6025 C   0  0  0  0  0  0  0  0  0  0  0  0
    6.9049  -13.3201   25.9993 C   0  0  2  0  0  0  0  0  0  0  0  0
    7.5856  -13.3289   27.3816 C   0  0  0  0  0  0  0  0  0  0  0  0
    7.7492  -14.1965   25.1116 C   0  0  2  0  0  0  0  0  0  0  0  0
    7.5454  -14.0966   23.7176 N   0  0  0  0  0  0  0  0  0  0  0  0
    7.7511  -15.5902   25.5186 C   0  0  0  0  0  0  0  0  0  0  0  0
    6.7174  -16.2789   25.5184 O   0  0  0  0  0  0  0  0  0  0  0  0
    8.9814  -18.5577   24.1592 C   0  0  0  0  0  0  0  0  0  0  0  0
    9.7243  -18.4903   25.4738 C   0  0  1  0  0  0  0  0  0  0  0  0
   11.0310  -18.1195   25.2762 O   0  0  0  0  0  0  0  0  0  0  0  0
    8.9917  -17.5680   26.4266 C   0  0  2  0  0  0  0  0  0  0  0  0
    8.9609  -16.2077   25.9340 N   0  0  0  0  0  0  0  0  0  0  0  0
    9.6069  -17.5745   27.7597 C   0  0  0  0  0  0  0  0  0  0  0  0
   10.1484  -16.5684   28.2305 O   0  0  0  0  0  0  0  0  0  0  0  0
    9.5859  -18.7384   28.5227 O   0  0  0  0  0  0  0  0  0  0  0  0
  2  1  1  1
  2  4  1  0
  3  2  1  0
  5  4  1  0
  5  6  1  6
  7  5  1  0
  8  7  2  0
  9 10  1  0
 11 10  1  0
 11 13  1  0
 11 12  1  1
 13 14  1  6
 14  7  1  0
 15 16  2  0
 15 13  1  0
 18 17  1  6
 18 20  1  0
 19 18  1  0
 20 21  1  6
 21 15  1  0
 22 20  1  0
 23 22  2  0
 24 22  1  0
M  END
$$$$
