LIT.pdb
     RDKit          3D

 24 23  0  0  1  0  0  0  0  0999 V2000
    9.4237  -13.6503   19.0957 C   0  0  0  0  0  0  0  0  0  0  0  0
    7.8961  -13.6824   19.1398 C   0  0  2  0  0  0  0  0  0  0  0  0
    7.3417  -12.2829   18.9140 C   0  0  0  0  0  0  0  0  0  0  0  0
    7.4248  -14.1209   20.5065 C   0  0  0  0  0  0  0  0  0  0  0  0
    7.8650  -15.5477   20.7090 C   0  0  2  0  0  0  0  0  0  0  0  0
    7.0844  -16.4504   19.8872 N   0  0  0  0  0  0  0  0  0  0  0  0
    7.7082  -15.9314   22.1609 C   0  0  0  0  0  0  0  0  0  0  0  0
    6.6085  -16.2452   22.6380 O   0  0  0  0  0  0  0  0  0  0  0  0
   10.6096  -19.6787   24.6443 C   0  0  0  0  0  0  0  0  0  0  0  0
    9.5459  -18.6586   24.1839 C   0  0  0  0  0  0  0  0  0  0  0  0
    9.7962  -17.3215   24.8142 C   0  0  2  0  0  0  0  0  0  0  0  0
    9.5011  -17.5408   26.3104 C   0  0  0  0  0  0  0  0  0  0  0  0
    8.8596  -16.2336   24.3580 C   0  0  2  0  0  0  0  0  0  0  0  0
    8.8410  -15.9288   22.9790 N   0  0  0  0  0  0  0  0  0  0  0  0
    8.9753  -15.0147   25.1384 C   0  0  0  0  0  0  0  0  0  0  0  0
   10.0225  -14.3472   25.1680 O   0  0  0  0  0  0  0  0  0  0  0  0
    6.2550  -12.0407   25.4237 C   0  0  0  0  0  0  0  0  0  0  0  0
    6.5971  -12.6444   26.7665 C   0  0  1  0  0  0  0  0  0  0  0  0
    5.5948  -13.4787   27.1947 O   0  0  0  0  0  0  0  0  0  0  0  0
    7.9416  -13.3379   26.6860 C   0  0  2  0  0  0  0  0  0  0  0  0
    7.8698  -14.5508   25.9002 N   0  0  0  0  0  0  0  0  0  0  0  0
    8.4559  -13.6687   28.0208 C   0  0  0  0  0  0  0  0  0  0  0  0
    8.6410  -14.8383   28.3745 O   0  0  0  0  0  0  0  0  0  0  0  0
    8.7462  -12.6470   28.9203 O   0  0  0  0  0  0  0  0  0  0  0  0
  2  1  1  1
  2  4  1  0
  3  2  1  0
  5  4  1  0
  5  6  1  6
  7  5  1  0
  8  7  2  0
  9 10  1  0
 11 10  1  0
 11 13  1  0
 11 12  1  1
 13 14  1  6
 14  7  1  0
 15 16  2  0
 15 13  1  0
 18 17  1  6
 18 20  1  0
 19 18  1  0
 20 21  1  6
 21 15  1  0
 22 20  1  0
 23 22  2  0
 24 22  1  0
M  END
$$$$
