LIT.pdb
     RDKit          3D

 24 23  0  0  1  0  0  0  0  0999 V2000
    8.6122  -14.3268   18.6164 C   0  0  0  0  0  0  0  0  0  0  0  0
    7.7788  -13.4355   19.5369 C   0  0  2  0  0  0  0  0  0  0  0  0
    7.6988  -12.0282   18.9623 C   0  0  0  0  0  0  0  0  0  0  0  0
    8.4452  -13.3160   20.8875 C   0  0  0  0  0  0  0  0  0  0  0  0
    8.3866  -14.6678   21.5507 C   0  0  2  0  0  0  0  0  0  0  0  0
    7.0910  -15.2851   21.3509 N   0  0  0  0  0  0  0  0  0  0  0  0
    8.6494  -14.5245   23.0306 C   0  0  0  0  0  0  0  0  0  0  0  0
    9.7396  -14.1260   23.4643 O   0  0  0  0  0  0  0  0  0  0  0  0
    7.6879  -11.6771   26.0115 C   0  0  0  0  0  0  0  0  0  0  0  0
    6.5266  -12.5735   25.5299 C   0  0  0  0  0  0  0  0  0  0  0  0
    6.6876  -13.9671   26.0588 C   0  0  2  0  0  0  0  0  0  0  0  0
    7.2230  -13.7749   27.4907 C   0  0  0  0  0  0  0  0  0  0  0  0
    7.7182  -14.7924   25.3339 C   0  0  2  0  0  0  0  0  0  0  0  0
    7.6280  -14.8532   23.9257 N   0  0  0  0  0  0  0  0  0  0  0  0
    7.8719  -16.1275   25.8837 C   0  0  0  0  0  0  0  0  0  0  0  0
    6.8962  -16.8554   26.1309 O   0  0  0  0  0  0  0  0  0  0  0  0
    9.3994  -19.0270   24.4476 C   0  0  0  0  0  0  0  0  0  0  0  0
   10.1688  -18.8361   25.7345 C   0  0  1  0  0  0  0  0  0  0  0  0
   11.4193  -18.3288   25.4835 O   0  0  0  0  0  0  0  0  0  0  0  0
    9.3662  -17.9714   26.6849 C   0  0  2  0  0  0  0  0  0  0  0  0
    9.1686  -16.6391   26.1559 N   0  0  0  0  0  0  0  0  0  0  0  0
   10.0176  -17.8677   27.9967 C   0  0  0  0  0  0  0  0  0  0  0  0
   10.4647  -16.7952   28.4173 O   0  0  0  0  0  0  0  0  0  0  0  0
   10.1405  -19.0002   28.7965 O   0  0  0  0  0  0  0  0  0  0  0  0
  2  1  1  6
  2  4  1  0
  3  2  1  0
  5  4  1  0
  5  6  1  1
  7  5  1  0
  8  7  2  0
  9 10  1  0
 11 10  1  0
 11 13  1  0
 11 12  1  1
 13 14  1  6
 14  7  1  0
 15 16  2  0
 15 13  1  0
 18 17  1  6
 18 20  1  0
 19 18  1  0
 20 21  1  6
 21 15  1  0
 22 20  1  0
 23 22  2  0
 24 22  1  0
M  END
$$$$
