LIT.pdb
     RDKit          3D

 24 23  0  0  1  0  0  0  0  0999 V2000
    7.6986  -12.5473   19.2864 C   0  0  0  0  0  0  0  0  0  0  0  0
    7.5129  -14.0589   19.4167 C   0  0  2  0  0  0  0  0  0  0  0  0
    6.1890  -14.4742   18.7909 C   0  0  0  0  0  0  0  0  0  0  0  0
    7.4460  -14.4506   20.8743 C   0  0  0  0  0  0  0  0  0  0  0  0
    8.7106  -13.9703   21.5382 C   0  0  2  0  0  0  0  0  0  0  0  0
    9.8799  -14.4465   20.8273 N   0  0  0  0  0  0  0  0  0  0  0  0
    8.7587  -14.4613   22.9652 C   0  0  0  0  0  0  0  0  0  0  0  0
    9.6895  -15.1650   23.3823 O   0  0  0  0  0  0  0  0  0  0  0  0
    5.8180  -11.2081   26.3890 C   0  0  0  0  0  0  0  0  0  0  0  0
    7.0418  -12.0169   25.9069 C   0  0  0  0  0  0  0  0  0  0  0  0
    6.7901  -13.4870   26.0594 C   0  0  2  0  0  0  0  0  0  0  0  0
    7.1540  -13.7888   27.5259 C   0  0  0  0  0  0  0  0  0  0  0  0
    7.6826  -14.3615   25.2182 C   0  0  2  0  0  0  0  0  0  0  0  0
    7.7199  -14.1061   23.8296 N   0  0  0  0  0  0  0  0  0  0  0  0
    7.4876  -15.7796   25.4612 C   0  0  0  0  0  0  0  0  0  0  0  0
    6.3771  -16.3230   25.3406 O   0  0  0  0  0  0  0  0  0  0  0  0
    8.3358  -18.7916   23.8506 C   0  0  0  0  0  0  0  0  0  0  0  0
    9.0730  -18.8939   25.1662 C   0  0  1  0  0  0  0  0  0  0  0  0
   10.4086  -18.6256   24.9982 O   0  0  0  0  0  0  0  0  0  0  0  0
    8.4183  -17.9885   26.1893 C   0  0  2  0  0  0  0  0  0  0  0  0
    8.5861  -16.5918   25.8502 N   0  0  0  0  0  0  0  0  0  0  0  0
    8.9609  -18.2172   27.5342 C   0  0  0  0  0  0  0  0  0  0  0  0
    9.5937  -17.3434   28.1370 O   0  0  0  0  0  0  0  0  0  0  0  0
    8.7640  -19.4463   28.1570 O   0  0  0  0  0  0  0  0  0  0  0  0
  2  1  1  1
  2  4  1  0
  3  2  1  0
  5  4  1  0
  5  6  1  6
  7  5  1  0
  8  7  2  0
  9 10  1  0
 11 10  1  0
 11 13  1  0
 11 12  1  1
 13 14  1  6
 14  7  1  0
 15 16  2  0
 15 13  1  0
 18 17  1  6
 18 20  1  0
 19 18  1  0
 20 21  1  6
 21 15  1  0
 22 20  1  0
 23 22  2  0
 24 22  1  0
M  END
$$$$
