LIT.pdb
     RDKit          3D

 24 23  0  0  1  0  0  0  0  0999 V2000
    9.6588  -14.6806   29.6966 C   0  0  0  0  0  0  0  0  0  0  0  0
   10.7911  -15.6192   29.2803 C   0  0  2  0  0  0  0  0  0  0  0  0
   12.0605  -14.8187   29.0255 C   0  0  0  0  0  0  0  0  0  0  0  0
   10.4441  -16.3081   27.9813 C   0  0  0  0  0  0  0  0  0  0  0  0
    9.0694  -16.9067   28.1310 C   0  0  2  0  0  0  0  0  0  0  0  0
    9.1488  -18.3408   28.3223 N   0  0  0  0  0  0  0  0  0  0  0  0
    8.2449  -16.6112   26.9011 C   0  0  0  0  0  0  0  0  0  0  0  0
    7.4561  -17.4422   26.4290 O   0  0  0  0  0  0  0  0  0  0  0  0
    6.6185  -11.4333   26.4417 C   0  0  0  0  0  0  0  0  0  0  0  0
    6.3411  -12.9101   26.0868 C   0  0  0  0  0  0  0  0  0  0  0  0
    7.3630  -13.4147   25.1127 C   0  0  2  0  0  0  0  0  0  0  0  0
    6.7312  -13.1655   23.7296 C   0  0  0  0  0  0  0  0  0  0  0  0
    7.6214  -14.8964   25.1938 C   0  0  2  0  0  0  0  0  0  0  0  0
    8.3835  -15.3637   26.2873 N   0  0  0  0  0  0  0  0  0  0  0  0
    8.1284  -15.4574   23.9543 C   0  0  0  0  0  0  0  0  0  0  0  0
    7.4373  -15.5122   22.9236 O   0  0  0  0  0  0  0  0  0  0  0  0
   10.8056  -14.5262   21.6892 C   0  0  0  0  0  0  0  0  0  0  0  0
   11.1887  -15.9088   22.1647 C   0  0  1  0  0  0  0  0  0  0  0  0
   12.2126  -15.8439   23.0765 O   0  0  0  0  0  0  0  0  0  0  0  0
    9.9653  -16.6183   22.7079 C   0  0  2  0  0  0  0  0  0  0  0  0
    9.4532  -15.9659   23.8938 N   0  0  0  0  0  0  0  0  0  0  0  0
   10.2561  -18.0213   23.0281 C   0  0  0  0  0  0  0  0  0  0  0  0
   10.0563  -18.4855   24.1559 O   0  0  0  0  0  0  0  0  0  0  0  0
   10.7705  -18.8605   22.0440 O   0  0  0  0  0  0  0  0  0  0  0  0
  2  1  1  6
  2  4  1  0
  3  2  1  0
  5  4  1  0
  5  6  1  6
  7  5  1  0
  8  7  2  0
  9 10  1  0
 11 10  1  0
 11 13  1  0
 11 12  1  6
 13 14  1  1
 14  7  1  0
 15 16  2  0
 15 13  1  0
 18 17  1  1
 18 20  1  0
 19 18  1  0
 20 21  1  1
 21 15  1  0
 22 20  1  0
 23 22  2  0
 24 22  1  0
M  END
$$$$
