CNV.pdb
     RDKit          3D

 22 21  0  0  1  0  0  0  0  0999 V2000
   12.4605  -10.5290  -10.2259 N   0  0  0  0  0  0  0  0  0  0  0  0
   13.8338  -10.5321   -9.8263 C   0  0  1  0  0  0  0  0  0  0  0  0
   14.5774  -11.7291  -10.3445 C   0  0  0  0  0  0  0  0  0  0  0  0
   14.0311  -13.2459   -9.5126 S   0  0  0  0  0  0  0  0  0  0  0  0
   14.5655   -9.3110  -10.2488 C   0  0  0  0  0  0  0  0  0  0  0  0
   14.3304   -8.8960  -11.4224 O   0  0  0  0  0  0  0  0  0  0  0  0
   17.3256   -4.9924  -10.4275 N   0  0  0  0  0  0  0  0  0  0  0  0
   16.6745   -5.0498   -9.1646 C   0  0  0  0  0  0  0  0  0  0  0  0
   16.6700   -4.0042   -8.4738 O   0  0  0  0  0  0  0  0  0  0  0  0
   16.0605   -6.3195   -8.7661 C   0  0  0  0  0  0  0  0  0  0  0  0
   16.1028   -7.3805   -9.8284 C   0  0  2  0  0  0  0  0  0  0  0  0
   15.4813   -8.6148   -9.4280 N   0  0  0  0  0  0  0  0  0  0  0  0
   17.4921   -7.6617  -10.2772 C   0  0  0  0  0  0  0  0  0  0  0  0
   18.3759   -8.0408   -9.4337 O   0  0  0  0  0  0  0  0  0  0  0  0
   18.7485   -8.7228  -14.2477 C   0  0  0  0  0  0  0  0  0  0  0  0
   19.4500   -8.9214  -12.9428 C   0  0  2  0  0  0  0  0  0  0  0  0
   19.0541  -10.2013  -12.2529 C   0  0  0  0  0  0  0  0  0  0  0  0
   19.2906   -7.7479  -12.0041 C   0  0  2  0  0  0  0  0  0  0  0  0
   17.9246   -7.5382  -11.6079 N   0  0  0  0  0  0  0  0  0  0  0  0
   19.9344   -6.5288  -12.5225 C   0  0  0  0  0  0  0  0  0  0  0  0
   21.3037   -6.4578  -12.6055 O   0  0  0  0  0  0  0  0  0  0  0  0
   19.2364   -5.5645  -12.8845 O   0  0  0  0  0  0  0  0  0  0  0  0
  2  1  1  6
  2  5  1  0
  2  3  1  0
  3  4  1  0
  5 12  1  0
  6  5  2  0
  7  8  1  0
  8 10  1  0
  9  8  2  0
 11 10  1  1
 11 13  1  0
 12 11  1  0
 13 14  2  0
 13 19  1  0
 16 15  1  6
 16 17  1  0
 18 16  1  0
 18 20  1  0
 18 19  1  6
 20 21  1  0
 22 20  2  0
M  END
$$$$
