CNV.pdb
     RDKit          3D

 22 21  0  0  1  0  0  0  0  0999 V2000
   24.1650  -11.8635  -18.1216 N   0  0  0  0  0  0  0  0  0  0  0  0
   23.5318  -11.4280  -16.9153 C   0  0  1  0  0  0  0  0  0  0  0  0
   24.5113  -11.2283  -15.7952 C   0  0  0  0  0  0  0  0  0  0  0  0
   25.3219  -12.7897  -15.3523 S   0  0  0  0  0  0  0  0  0  0  0  0
   22.7571  -10.1726  -17.0854 C   0  0  0  0  0  0  0  0  0  0  0  0
   23.2560   -9.3089  -17.8663 O   0  0  0  0  0  0  0  0  0  0  0  0
   18.2583  -11.0837  -17.9635 N   0  0  0  0  0  0  0  0  0  0  0  0
   19.0474   -9.9140  -18.1400 C   0  0  0  0  0  0  0  0  0  0  0  0
   19.4897   -9.6889  -19.2908 O   0  0  0  0  0  0  0  0  0  0  0  0
   19.2840   -9.0629  -16.9706 C   0  0  0  0  0  0  0  0  0  0  0  0
   20.7316   -8.7458  -16.7265 C   0  0  2  0  0  0  0  0  0  0  0  0
   21.5298   -9.9074  -16.4369 N   0  0  0  0  0  0  0  0  0  0  0  0
   20.9060   -7.7540  -15.6327 C   0  0  0  0  0  0  0  0  0  0  0  0
   20.7832   -8.1153  -14.4117 O   0  0  0  0  0  0  0  0  0  0  0  0
   22.6131   -3.3462  -14.1406 C   0  0  0  0  0  0  0  0  0  0  0  0
   22.5666   -4.5016  -15.0878 C   0  0  2  0  0  0  0  0  0  0  0  0
   22.4894   -4.0744  -16.5308 C   0  0  0  0  0  0  0  0  0  0  0  0
   21.4592   -5.4795  -14.7697 C   0  0  2  0  0  0  0  0  0  0  0  0
   21.2070   -6.3987  -15.8459 N   0  0  0  0  0  0  0  0  0  0  0  0
   20.2411   -4.8045  -14.2903 C   0  0  0  0  0  0  0  0  0  0  0  0
   19.1120   -4.7884  -15.0727 O   0  0  0  0  0  0  0  0  0  0  0  0
   20.2366   -4.2497  -13.1767 O   0  0  0  0  0  0  0  0  0  0  0  0
  2  1  1  6
  2  5  1  0
  2  3  1  0
  3  4  1  0
  5 12  1  0
  6  5  2  0
  7  8  1  0
  8 10  1  0
  9  8  2  0
 11 10  1  1
 11 13  1  0
 12 11  1  0
 13 14  2  0
 13 19  1  0
 16 15  1  1
 16 17  1  0
 18 16  1  0
 18 20  1  0
 18 19  1  6
 20 21  1  0
 22 20  2  0
M  END
$$$$
