CNV.pdb
     RDKit          3D

 22 21  0  0  1  0  0  0  0  0999 V2000
   15.1997  -12.2730  -14.2408 N   0  0  0  0  0  0  0  0  0  0  0  0
   15.9873  -11.7604  -13.1626 C   0  0  1  0  0  0  0  0  0  0  0  0
   17.3279  -11.2626  -13.6199 C   0  0  0  0  0  0  0  0  0  0  0  0
   18.4490  -12.6437  -13.9758 S   0  0  0  0  0  0  0  0  0  0  0  0
   15.3134  -10.6658  -12.4191 C   0  0  0  0  0  0  0  0  0  0  0  0
   14.8401   -9.7225  -13.1196 O   0  0  0  0  0  0  0  0  0  0  0  0
   11.9503  -12.1310   -9.3572 N   0  0  0  0  0  0  0  0  0  0  0  0
   12.2947  -10.8436   -9.8531 C   0  0  0  0  0  0  0  0  0  0  0  0
   11.5566  -10.3542  -10.7398 O   0  0  0  0  0  0  0  0  0  0  0  0
   13.4802  -10.1875   -9.2942 C   0  0  0  0  0  0  0  0  0  0  0  0
   14.4134   -9.6248  -10.3278 C   0  0  2  0  0  0  0  0  0  0  0  0
   15.1810  -10.6309  -11.0124 N   0  0  0  0  0  0  0  0  0  0  0  0
   15.3421   -8.6187   -9.7484 C   0  0  0  0  0  0  0  0  0  0  0  0
   16.2715   -8.9864   -8.9500 O   0  0  0  0  0  0  0  0  0  0  0  0
   17.8463   -4.4782   -9.7964 C   0  0  0  0  0  0  0  0  0  0  0  0
   16.9888   -5.5325  -10.4189 C   0  0  2  0  0  0  0  0  0  0  0  0
   16.1174   -5.0009  -11.5274 C   0  0  0  0  0  0  0  0  0  0  0  0
   16.1531   -6.2840   -9.4085 C   0  0  2  0  0  0  0  0  0  0  0  0
   15.2741   -7.2425  -10.0212 N   0  0  0  0  0  0  0  0  0  0  0  0
   15.4596   -5.3789   -8.4762 C   0  0  0  0  0  0  0  0  0  0  0  0
   14.0986   -5.2144   -8.5638 O   0  0  0  0  0  0  0  0  0  0  0  0
   16.1080   -4.7644   -7.6102 O   0  0  0  0  0  0  0  0  0  0  0  0
  2  1  1  6
  2  5  1  0
  2  3  1  0
  3  4  1  0
  5 12  1  0
  6  5  2  0
  7  8  1  0
  8 10  1  0
  9  8  2  0
 11 10  1  1
 11 13  1  0
 12 11  1  0
 13 14  2  0
 13 19  1  0
 16 15  1  1
 16 17  1  0
 18 16  1  0
 18 20  1  0
 18 19  1  6
 20 21  1  0
 22 20  2  0
M  END
$$$$
