CNV.pdb
     RDKit          3D

 22 21  0  0  1  0  0  0  0  0999 V2000
   15.1690  -13.6667  -17.0135 N   0  0  0  0  0  0  0  0  0  0  0  0
   15.5563  -12.8469  -15.9073 C   0  0  1  0  0  0  0  0  0  0  0  0
   16.0391  -13.6552  -14.7378 C   0  0  0  0  0  0  0  0  0  0  0  0
   14.6789  -14.5923  -13.9875 S   0  0  0  0  0  0  0  0  0  0  0  0
   16.6082  -11.8586  -16.2559 C   0  0  0  0  0  0  0  0  0  0  0  0
   17.4676  -12.2333  -17.1077 O   0  0  0  0  0  0  0  0  0  0  0  0
   17.6266   -5.8620  -16.5079 N   0  0  0  0  0  0  0  0  0  0  0  0
   17.7672   -7.1911  -16.9932 C   0  0  0  0  0  0  0  0  0  0  0  0
   18.6333   -7.3904  -17.8768 O   0  0  0  0  0  0  0  0  0  0  0  0
   16.8944   -8.2240  -16.4280 C   0  0  0  0  0  0  0  0  0  0  0  0
   17.5708   -9.5479  -16.2145 C   0  0  2  0  0  0  0  0  0  0  0  0
   16.6906  -10.5624  -15.6986 N   0  0  0  0  0  0  0  0  0  0  0  0
   18.7512   -9.4302  -15.3183 C   0  0  0  0  0  0  0  0  0  0  0  0
   18.5917   -9.3601  -14.0509 O   0  0  0  0  0  0  0  0  0  0  0  0
   22.1086  -11.4655  -15.6789 C   0  0  0  0  0  0  0  0  0  0  0  0
   22.4118  -10.0346  -15.3705 C   0  0  2  0  0  0  0  0  0  0  0  0
   23.5564   -9.8727  -14.4038 C   0  0  0  0  0  0  0  0  0  0  0  0
   21.2030   -9.2679  -14.8862 C   0  0  2  0  0  0  0  0  0  0  0  0
   20.0791   -9.3886  -15.7744 N   0  0  0  0  0  0  0  0  0  0  0  0
   21.5269   -7.8703  -14.5527 C   0  0  0  0  0  0  0  0  0  0  0  0
   22.0073   -7.5559  -13.3047 O   0  0  0  0  0  0  0  0  0  0  0  0
   21.3649   -6.9761  -15.4025 O   0  0  0  0  0  0  0  0  0  0  0  0
  2  1  1  6
  2  5  1  0
  2  3  1  0
  3  4  1  0
  5 12  1  0
  6  5  2  0
  7  8  1  0
  8 10  1  0
  9  8  2  0
 11 10  1  1
 11 13  1  0
 12 11  1  0
 13 14  2  0
 13 19  1  0
 16 15  1  1
 16 17  1  0
 18 16  1  0
 18 20  1  0
 18 19  1  6
 20 21  1  0
 22 20  2  0
M  END
$$$$
