CNV.pdb
     RDKit          3D

 22 21  0  0  1  0  0  0  0  0999 V2000
   19.9659  -15.5465  -17.8150 N   0  0  0  0  0  0  0  0  0  0  0  0
   19.2650  -14.3297  -18.0865 C   0  0  1  0  0  0  0  0  0  0  0  0
   17.7912  -14.4482  -17.8255 C   0  0  0  0  0  0  0  0  0  0  0  0
   16.9848  -15.4649  -19.0933 S   0  0  0  0  0  0  0  0  0  0  0  0
   19.7834  -13.1743  -17.3110 C   0  0  0  0  0  0  0  0  0  0  0  0
   19.7981  -13.3074  -16.0514 O   0  0  0  0  0  0  0  0  0  0  0  0
   23.3746   -9.4301  -19.0461 N   0  0  0  0  0  0  0  0  0  0  0  0
   22.7308  -10.6309  -18.6394 C   0  0  0  0  0  0  0  0  0  0  0  0
   22.6073  -11.5348  -19.4987 O   0  0  0  0  0  0  0  0  0  0  0  0
   22.2617  -10.7229  -17.2540 C   0  0  0  0  0  0  0  0  0  0  0  0
   20.7744  -10.8833  -17.1201 C   0  0  2  0  0  0  0  0  0  0  0  0
   20.2454  -11.9735  -17.8959 N   0  0  0  0  0  0  0  0  0  0  0  0
   20.0470   -9.6371  -17.4783 C   0  0  0  0  0  0  0  0  0  0  0  0
   19.8416   -9.3430  -18.7062 O   0  0  0  0  0  0  0  0  0  0  0  0
   17.2324   -7.4541  -14.9478 C   0  0  0  0  0  0  0  0  0  0  0  0
   17.3602   -7.6188  -16.4280 C   0  0  2  0  0  0  0  0  0  0  0  0
   16.6905   -8.8683  -16.9391 C   0  0  0  0  0  0  0  0  0  0  0  0
   18.7927   -7.5580  -16.9055 C   0  0  2  0  0  0  0  0  0  0  0  0
   19.5491   -8.7230  -16.5351 N   0  0  0  0  0  0  0  0  0  0  0  0
   19.4529   -6.2971  -16.5264 C   0  0  0  0  0  0  0  0  0  0  0  0
   19.0827   -5.1199  -17.1298 O   0  0  0  0  0  0  0  0  0  0  0  0
   20.3455   -6.3003  -15.6596 O   0  0  0  0  0  0  0  0  0  0  0  0
  2  1  1  1
  2  5  1  0
  2  3  1  0
  3  4  1  0
  5 12  1  0
  6  5  2  0
  7  8  1  0
  8 10  1  0
  9  8  2  0
 11 10  1  6
 11 13  1  0
 12 11  1  0
 13 14  2  0
 13 19  1  0
 16 15  1  1
 16 17  1  0
 18 16  1  0
 18 20  1  0
 18 19  1  1
 20 21  1  0
 22 20  2  0
M  END
$$$$
