CNV.pdb
     RDKit          3D

 22 21  0  0  1  0  0  0  0  0999 V2000
   26.6937  -19.2318  -17.4741 N   0  0  0  0  0  0  0  0  0  0  0  0
   27.1756  -19.6520  -16.1947 C   0  0  1  0  0  0  0  0  0  0  0  0
   28.4879  -19.0144  -15.8403 C   0  0  0  0  0  0  0  0  0  0  0  0
   29.8520  -19.7746  -16.7635 S   0  0  0  0  0  0  0  0  0  0  0  0
   26.2155  -19.3831  -15.0944 C   0  0  0  0  0  0  0  0  0  0  0  0
   25.3773  -18.4553  -15.2976 O   0  0  0  0  0  0  0  0  0  0  0  0
   22.0848  -19.2779  -12.1803 N   0  0  0  0  0  0  0  0  0  0  0  0
   22.6845  -20.5058  -12.5737 C   0  0  0  0  0  0  0  0  0  0  0  0
   22.2262  -21.5562  -12.0666 O   0  0  0  0  0  0  0  0  0  0  0  0
   23.7875  -20.4531  -13.5373 C   0  0  0  0  0  0  0  0  0  0  0  0
   25.0972  -20.0162  -12.9459 C   0  0  2  0  0  0  0  0  0  0  0  0
   26.1957  -20.0921  -13.8720 N   0  0  0  0  0  0  0  0  0  0  0  0
   25.4403  -20.7902  -11.7238 C   0  0  0  0  0  0  0  0  0  0  0  0
   25.5943  -22.0585  -11.7883 O   0  0  0  0  0  0  0  0  0  0  0  0
   26.3778  -19.1166   -7.7182 C   0  0  0  0  0  0  0  0  0  0  0  0
   26.7981  -20.4209   -8.3153 C   0  0  2  0  0  0  0  0  0  0  0  0
   28.1438  -20.3508   -8.9896 C   0  0  0  0  0  0  0  0  0  0  0  0
   25.7672  -20.9958   -9.2590 C   0  0  2  0  0  0  0  0  0  0  0  0
   25.6150  -20.2130  -10.4552 N   0  0  0  0  0  0  0  0  0  0  0  0
   24.4875  -21.2726   -8.5843 C   0  0  0  0  0  0  0  0  0  0  0  0
   23.3362  -20.6620   -9.0187 O   0  0  0  0  0  0  0  0  0  0  0  0
   24.4514  -22.0595   -7.6212 O   0  0  0  0  0  0  0  0  0  0  0  0
  2  1  1  6
  2  5  1  0
  2  3  1  0
  3  4  1  0
  5 12  1  0
  6  5  2  0
  7  8  1  0
  8 10  1  0
  9  8  2  0
 11 10  1  6
 11 13  1  0
 12 11  1  0
 13 14  2  0
 13 19  1  0
 16 15  1  6
 16 17  1  0
 18 16  1  0
 18 20  1  0
 18 19  1  6
 20 21  1  0
 22 20  2  0
M  END
$$$$
