CNV.pdb
     RDKit          3D

 22 21  0  0  1  0  0  0  0  0999 V2000
   15.4312  -14.6923  -14.9839 N   0  0  0  0  0  0  0  0  0  0  0  0
   14.9003  -13.3675  -15.0770 C   0  0  1  0  0  0  0  0  0  0  0  0
   13.4631  -13.2960  -14.6488 C   0  0  0  0  0  0  0  0  0  0  0  0
   12.3686  -13.9804  -15.9236 S   0  0  0  0  0  0  0  0  0  0  0  0
   15.6713  -12.3749  -14.2864 C   0  0  0  0  0  0  0  0  0  0  0  0
   16.0698  -12.7560  -13.1460 O   0  0  0  0  0  0  0  0  0  0  0  0
   19.8434   -8.5474  -13.7151 N   0  0  0  0  0  0  0  0  0  0  0  0
   18.4631   -8.3440  -13.9893 C   0  0  0  0  0  0  0  0  0  0  0  0
   17.9427   -7.2878  -13.5599 O   0  0  0  0  0  0  0  0  0  0  0  0
   17.7547   -9.3779  -14.7490 C   0  0  0  0  0  0  0  0  0  0  0  0
   16.7303  -10.1315  -13.9500 C   0  0  2  0  0  0  0  0  0  0  0  0
   15.9702  -11.0682  -14.7342 N   0  0  0  0  0  0  0  0  0  0  0  0
   15.7929   -9.2173  -13.2458 C   0  0  0  0  0  0  0  0  0  0  0  0
   14.8405   -8.6540  -13.8877 O   0  0  0  0  0  0  0  0  0  0  0  0
   13.4021   -7.5576   -9.3588 C   0  0  0  0  0  0  0  0  0  0  0  0
   14.3926   -8.4975   -9.9671 C   0  0  2  0  0  0  0  0  0  0  0  0
   15.4682   -8.9220   -9.0010 C   0  0  0  0  0  0  0  0  0  0  0  0
   15.0100   -7.9607  -11.2377 C   0  0  2  0  0  0  0  0  0  0  0  0
   15.8764   -8.9134  -11.8770 N   0  0  0  0  0  0  0  0  0  0  0  0
   15.6458   -6.6475  -11.0362 C   0  0  0  0  0  0  0  0  0  0  0  0
   14.8710   -5.5174  -10.9388 O   0  0  0  0  0  0  0  0  0  0  0  0
   16.8845   -6.5638  -10.9544 O   0  0  0  0  0  0  0  0  0  0  0  0
  2  1  1  1
  2  5  1  0
  2  3  1  0
  3  4  1  0
  5 12  1  0
  6  5  2  0
  7  8  1  0
  8 10  1  0
  9  8  2  0
 11 10  1  6
 11 13  1  0
 12 11  1  0
 13 14  2  0
 13 19  1  0
 16 15  1  1
 16 17  1  0
 18 16  1  0
 18 20  1  0
 18 19  1  1
 20 21  1  0
 22 20  2  0
M  END
$$$$
