CNV.pdb
     RDKit          3D

 22 21  0  0  1  0  0  0  0  0999 V2000
   13.7338  -14.0702  -12.1216 N   0  0  0  0  0  0  0  0  0  0  0  0
   13.5180  -12.7163  -12.5292 C   0  0  1  0  0  0  0  0  0  0  0  0
   12.1698  -12.2021  -12.1143 C   0  0  0  0  0  0  0  0  0  0  0  0
   10.8404  -13.1138  -12.9465 S   0  0  0  0  0  0  0  0  0  0  0  0
   14.5510  -11.7821  -12.0142 C   0  0  0  0  0  0  0  0  0  0  0  0
   14.9980  -12.0266  -10.8545 O   0  0  0  0  0  0  0  0  0  0  0  0
   18.1228   -8.2179  -11.3234 N   0  0  0  0  0  0  0  0  0  0  0  0
   18.1986   -8.6136  -12.6871 C   0  0  0  0  0  0  0  0  0  0  0  0
   19.1686   -8.1856  -13.3553 O   0  0  0  0  0  0  0  0  0  0  0  0
   17.1434   -9.4873  -13.2078 C   0  0  0  0  0  0  0  0  0  0  0  0
   16.0561   -9.7919  -12.2175 C   0  0  2  0  0  0  0  0  0  0  0  0
   15.0410  -10.6701  -12.7358 N   0  0  0  0  0  0  0  0  0  0  0  0
   15.4098   -8.5551  -11.7045 C   0  0  0  0  0  0  0  0  0  0  0  0
   14.5604   -7.9270  -12.4259 O   0  0  0  0  0  0  0  0  0  0  0  0
   15.1132   -7.3824   -7.5593 C   0  0  0  0  0  0  0  0  0  0  0  0
   14.2757   -6.9475   -8.7185 C   0  0  2  0  0  0  0  0  0  0  0  0
   13.0951   -7.8519   -8.9611 C   0  0  0  0  0  0  0  0  0  0  0  0
   15.0745   -6.7744   -9.9897 C   0  0  2  0  0  0  0  0  0  0  0  0
   15.6708   -8.0026  -10.4398 N   0  0  0  0  0  0  0  0  0  0  0  0
   16.0395   -5.6657   -9.8943 C   0  0  0  0  0  0  0  0  0  0  0  0
   15.5942   -4.3852   -9.6728 O   0  0  0  0  0  0  0  0  0  0  0  0
   17.2572   -5.8910  -10.0146 O   0  0  0  0  0  0  0  0  0  0  0  0
  2  1  1  1
  2  5  1  0
  2  3  1  0
  3  4  1  0
  5 12  1  0
  6  5  2  0
  7  8  1  0
  8 10  1  0
  9  8  2  0
 11 10  1  6
 11 13  1  0
 12 11  1  0
 13 14  2  0
 13 19  1  0
 16 15  1  1
 16 17  1  0
 18 16  1  0
 18 20  1  0
 18 19  1  1
 20 21  1  0
 22 20  2  0
M  END
$$$$
