CNV.pdb
     RDKit          3D

 22 21  0  0  1  0  0  0  0  0999 V2000
   29.1353  -21.6041  -18.0277 N   0  0  0  0  0  0  0  0  0  0  0  0
   27.9834  -22.2588  -17.4892 C   0  0  1  0  0  0  0  0  0  0  0  0
   28.3430  -23.4525  -16.6525 C   0  0  0  0  0  0  0  0  0  0  0  0
   30.1386  -23.5689  -16.4210 S   0  0  0  0  0  0  0  0  0  0  0  0
   27.1309  -21.3580  -16.6726 C   0  0  0  0  0  0  0  0  0  0  0  0
   27.6461  -20.2496  -16.3402 O   0  0  0  0  0  0  0  0  0  0  0  0
   21.5259  -19.7674  -15.6824 N   0  0  0  0  0  0  0  0  0  0  0  0
   22.8877  -19.3614  -15.7333 C   0  0  0  0  0  0  0  0  0  0  0  0
   23.1870  -18.2855  -15.1645 O   0  0  0  0  0  0  0  0  0  0  0  0
   23.8354  -20.2254  -16.4428 C   0  0  0  0  0  0  0  0  0  0  0  0
   24.9640  -20.7279  -15.5887 C   0  0  2  0  0  0  0  0  0  0  0  0
   25.8149  -21.6716  -16.2638 N   0  0  0  0  0  0  0  0  0  0  0  0
   24.4745  -21.3367  -14.3236 C   0  0  0  0  0  0  0  0  0  0  0  0
   23.8421  -22.4484  -14.3478 O   0  0  0  0  0  0  0  0  0  0  0  0
   24.9229  -19.6873  -10.1483 C   0  0  0  0  0  0  0  0  0  0  0  0
   24.9764  -21.0962  -10.6448 C   0  0  2  0  0  0  0  0  0  0  0  0
   26.3812  -21.5703  -10.9138 C   0  0  0  0  0  0  0  0  0  0  0  0
   24.1033  -21.3268  -11.8566 C   0  0  2  0  0  0  0  0  0  0  0  0
   24.6607  -20.7622  -13.0555 N   0  0  0  0  0  0  0  0  0  0  0  0
   22.7072  -20.9201  -11.6225 C   0  0  0  0  0  0  0  0  0  0  0  0
   22.1715  -19.8684  -12.3255 O   0  0  0  0  0  0  0  0  0  0  0  0
   22.0148  -21.5300  -10.7879 O   0  0  0  0  0  0  0  0  0  0  0  0
  2  1  1  1
  2  5  1  0
  2  3  1  0
  3  4  1  0
  5 12  1  0
  6  5  2  0
  7  8  1  0
  8 10  1  0
  9  8  2  0
 11 10  1  6
 11 13  1  0
 12 11  1  0
 13 14  2  0
 13 19  1  0
 16 15  1  6
 16 17  1  0
 18 16  1  0
 18 20  1  0
 18 19  1  6
 20 21  1  0
 22 20  2  0
M  END
$$$$
