CNV.pdb
     RDKit          3D

 22 21  0  0  1  0  0  0  0  0999 V2000
   13.7668   -9.2768  -10.2037 N   0  0  0  0  0  0  0  0  0  0  0  0
   15.1599   -9.1744   -9.8965 C   0  0  1  0  0  0  0  0  0  0  0  0
   15.9413  -10.3609  -10.3819 C   0  0  0  0  0  0  0  0  0  0  0  0
   15.4602  -11.8665   -9.4915 S   0  0  0  0  0  0  0  0  0  0  0  0
   15.7883   -7.9467  -10.4468 C   0  0  0  0  0  0  0  0  0  0  0  0
   15.6201   -7.7391  -11.6850 O   0  0  0  0  0  0  0  0  0  0  0  0
   14.8242   -3.3716   -8.3867 N   0  0  0  0  0  0  0  0  0  0  0  0
   15.3354   -4.1687   -9.4474 C   0  0  0  0  0  0  0  0  0  0  0  0
   14.5504   -4.4505  -10.3828 O   0  0  0  0  0  0  0  0  0  0  0  0
   16.7342   -4.5996   -9.3696 C   0  0  0  0  0  0  0  0  0  0  0  0
   17.0537   -5.7990  -10.2151 C   0  0  2  0  0  0  0  0  0  0  0  0
   16.5400   -7.0305   -9.6768 N   0  0  0  0  0  0  0  0  0  0  0  0
   18.5156   -5.9436  -10.4438 C   0  0  0  0  0  0  0  0  0  0  0  0
   19.3126   -6.0670   -9.4508 O   0  0  0  0  0  0  0  0  0  0  0  0
   20.2686   -7.1803  -14.1686 C   0  0  0  0  0  0  0  0  0  0  0  0
   20.8531   -7.3032  -12.7983 C   0  0  2  0  0  0  0  0  0  0  0  0
   20.4797   -8.5933  -12.1149 C   0  0  0  0  0  0  0  0  0  0  0  0
   20.5255   -6.1248  -11.9107 C   0  0  2  0  0  0  0  0  0  0  0  0
   19.1113   -5.9555  -11.7159 N   0  0  0  0  0  0  0  0  0  0  0  0
   21.1987   -4.8913  -12.3518 C   0  0  0  0  0  0  0  0  0  0  0  0
   20.4556   -3.8256  -12.7980 O   0  0  0  0  0  0  0  0  0  0  0  0
   22.4403   -4.8165  -12.3197 O   0  0  0  0  0  0  0  0  0  0  0  0
  2  1  1  6
  2  5  1  0
  2  3  1  0
  3  4  1  0
  5 12  1  0
  6  5  2  0
  7  8  1  0
  8 10  1  0
  9  8  2  0
 11 10  1  1
 11 13  1  0
 12 11  1  0
 13 14  2  0
 13 19  1  0
 16 15  1  6
 16 17  1  0
 18 16  1  0
 18 20  1  0
 18 19  1  6
 20 21  1  0
 22 20  2  0
M  END
$$$$
