CNV.pdb
     RDKit          3D

 22 21  0  0  1  0  0  0  0  0999 V2000
   24.1427  -18.2758  -18.0670 N   0  0  0  0  0  0  0  0  0  0  0  0
   24.5636  -17.1744  -17.2575 C   0  0  1  0  0  0  0  0  0  0  0  0
   26.0563  -17.1118  -17.1084 C   0  0  0  0  0  0  0  0  0  0  0  0
   26.7074  -18.6573  -16.4166 S   0  0  0  0  0  0  0  0  0  0  0  0
   24.0916  -15.8627  -17.7689 C   0  0  0  0  0  0  0  0  0  0  0  0
   23.8267  -15.8073  -19.0064 O   0  0  0  0  0  0  0  0  0  0  0  0
   20.0840  -12.0159  -18.0882 N   0  0  0  0  0  0  0  0  0  0  0  0
   21.4188  -12.3347  -18.4607 C   0  0  0  0  0  0  0  0  0  0  0  0
   22.0230  -11.5125  -19.1884 O   0  0  0  0  0  0  0  0  0  0  0  0
   21.9864  -13.5934  -17.9692 C   0  0  0  0  0  0  0  0  0  0  0  0
   23.3985  -13.4756  -17.4715 C   0  0  2  0  0  0  0  0  0  0  0  0
   23.9303  -14.7124  -16.9638 N   0  0  0  0  0  0  0  0  0  0  0  0
   23.5333  -12.4261  -16.4270 C   0  0  0  0  0  0  0  0  0  0  0  0
   22.8865  -12.5262  -15.3278 O   0  0  0  0  0  0  0  0  0  0  0  0
   26.6145   -9.2480  -16.2983 C   0  0  0  0  0  0  0  0  0  0  0  0
   25.9152   -9.9807  -15.1990 C   0  0  2  0  0  0  0  0  0  0  0  0
   26.6424  -11.2293  -14.7711 C   0  0  0  0  0  0  0  0  0  0  0  0
   24.4745  -10.2983  -15.5266 C   0  0  2  0  0  0  0  0  0  0  0  0
   24.3479  -11.2896  -16.5601 N   0  0  0  0  0  0  0  0  0  0  0  0
   23.6832   -9.0846  -15.7916 C   0  0  0  0  0  0  0  0  0  0  0  0
   23.3707   -8.2305  -14.7621 O   0  0  0  0  0  0  0  0  0  0  0  0
   23.2988   -8.8348  -16.9483 O   0  0  0  0  0  0  0  0  0  0  0  0
  2  1  1  6
  2  5  1  0
  2  3  1  0
  3  4  1  0
  5 12  1  0
  6  5  2  0
  7  8  1  0
  8 10  1  0
  9  8  2  0
 11 10  1  1
 11 13  1  0
 12 11  1  0
 13 14  2  0
 13 19  1  0
 16 15  1  6
 16 17  1  0
 18 16  1  0
 18 20  1  0
 18 19  1  6
 20 21  1  0
 22 20  2  0
M  END
$$$$
