CNV.pdb
     RDKit          3D

 22 21  0  0  1  0  0  0  0  0999 V2000
   15.6660  -13.8162  -16.4969 N   0  0  0  0  0  0  0  0  0  0  0  0
   16.9625  -13.8314  -15.8931 C   0  0  1  0  0  0  0  0  0  0  0  0
   17.7342  -15.0753  -16.2268 C   0  0  0  0  0  0  0  0  0  0  0  0
   16.8115  -16.5624  -15.7487 S   0  0  0  0  0  0  0  0  0  0  0  0
   17.7909  -12.6563  -16.2642 C   0  0  0  0  0  0  0  0  0  0  0  0
   18.9314  -12.9084  -16.7544 O   0  0  0  0  0  0  0  0  0  0  0  0
   16.7532   -8.3633  -19.4164 N   0  0  0  0  0  0  0  0  0  0  0  0
   16.6987   -9.3682  -18.4118 C   0  0  0  0  0  0  0  0  0  0  0  0
   16.1218  -10.4414  -18.7050 O   0  0  0  0  0  0  0  0  0  0  0  0
   17.3172   -9.0769  -17.1154 C   0  0  0  0  0  0  0  0  0  0  0  0
   18.1543  -10.1984  -16.5703 C   0  0  2  0  0  0  0  0  0  0  0  0
   17.3777  -11.3147  -16.1005 N   0  0  0  0  0  0  0  0  0  0  0  0
   19.0528   -9.7402  -15.4779 C   0  0  0  0  0  0  0  0  0  0  0  0
   18.6130   -9.6473  -14.2802 O   0  0  0  0  0  0  0  0  0  0  0  0
   23.4118   -9.5073  -15.7431 C   0  0  0  0  0  0  0  0  0  0  0  0
   22.5516   -9.7422  -14.5434 C   0  0  2  0  0  0  0  0  0  0  0  0
   22.2832  -11.2034  -14.2912 C   0  0  0  0  0  0  0  0  0  0  0  0
   21.2533   -8.9701  -14.5896 C   0  0  2  0  0  0  0  0  0  0  0  0
   20.3993   -9.3883  -15.6679 N   0  0  0  0  0  0  0  0  0  0  0  0
   21.4701   -7.5137  -14.5572 C   0  0  0  0  0  0  0  0  0  0  0  0
   21.9322   -6.9137  -13.4111 O   0  0  0  0  0  0  0  0  0  0  0  0
   21.2343   -6.8286  -15.5687 O   0  0  0  0  0  0  0  0  0  0  0  0
  2  1  1  6
  2  5  1  0
  2  3  1  0
  3  4  1  0
  5 12  1  0
  6  5  2  0
  7  8  1  0
  8 10  1  0
  9  8  2  0
 11 10  1  1
 11 13  1  0
 12 11  1  0
 13 14  2  0
 13 19  1  0
 16 15  1  6
 16 17  1  0
 18 16  1  0
 18 20  1  0
 18 19  1  6
 20 21  1  0
 22 20  2  0
M  END
$$$$
