CNV.pdb
     RDKit          3D

 22 21  0  0  1  0  0  0  0  0999 V2000
   14.3670  -13.6704  -13.2475 N   0  0  0  0  0  0  0  0  0  0  0  0
   13.9547  -12.3032  -13.3282 C   0  0  1  0  0  0  0  0  0  0  0  0
   12.5490  -12.1001  -12.8414 C   0  0  0  0  0  0  0  0  0  0  0  0
   11.3540  -12.8960  -13.9503 S   0  0  0  0  0  0  0  0  0  0  0  0
   14.8449  -11.3818  -12.5775 C   0  0  0  0  0  0  0  0  0  0  0  0
   15.2389  -11.7853  -11.4432 O   0  0  0  0  0  0  0  0  0  0  0  0
   19.3371   -8.3684  -11.8461 N   0  0  0  0  0  0  0  0  0  0  0  0
   18.2278   -7.8535  -12.5716 C   0  0  0  0  0  0  0  0  0  0  0  0
   18.0900   -6.6082  -12.6012 O   0  0  0  0  0  0  0  0  0  0  0  0
   17.3327   -8.8110  -13.2275 C   0  0  0  0  0  0  0  0  0  0  0  0
   16.2081   -9.2937  -12.3569 C   0  0  2  0  0  0  0  0  0  0  0  0
   15.2580  -10.1177  -13.0558 N   0  0  0  0  0  0  0  0  0  0  0  0
   15.4864   -8.1680  -11.7071 C   0  0  0  0  0  0  0  0  0  0  0  0
   14.6009   -7.5118  -12.3565 O   0  0  0  0  0  0  0  0  0  0  0  0
   15.1762   -7.4056   -7.4245 C   0  0  0  0  0  0  0  0  0  0  0  0
   14.2852   -6.9750   -8.5448 C   0  0  2  0  0  0  0  0  0  0  0  0
   13.2052   -7.9791   -8.8545 C   0  0  0  0  0  0  0  0  0  0  0  0
   15.0479   -6.6201   -9.8003 C   0  0  2  0  0  0  0  0  0  0  0  0
   15.7112   -7.7542  -10.3837 N   0  0  0  0  0  0  0  0  0  0  0  0
   15.9435   -5.4679   -9.6008 C   0  0  0  0  0  0  0  0  0  0  0  0
   15.4177   -4.2300   -9.3211 O   0  0  0  0  0  0  0  0  0  0  0  0
   17.1757   -5.6178   -9.6860 O   0  0  0  0  0  0  0  0  0  0  0  0
  2  1  1  1
  2  5  1  0
  2  3  1  0
  3  4  1  0
  5 12  1  0
  6  5  2  0
  7  8  1  0
  8 10  1  0
  9  8  2  0
 11 10  1  6
 11 13  1  0
 12 11  1  0
 13 14  2  0
 13 19  1  0
 16 15  1  1
 16 17  1  0
 18 16  1  0
 18 20  1  0
 18 19  1  1
 20 21  1  0
 22 20  2  0
M  END
$$$$
