CNV.pdb
     RDKit          3D

 22 21  0  0  1  0  0  0  0  0999 V2000
   25.5924  -23.0753  -11.6250 N   0  0  0  0  0  0  0  0  0  0  0  0
   24.8722  -21.8402  -11.6616 C   0  0  1  0  0  0  0  0  0  0  0  0
   25.4779  -20.7983  -10.7662 C   0  0  0  0  0  0  0  0  0  0  0  0
   24.7232  -20.8381   -9.1169 S   0  0  0  0  0  0  0  0  0  0  0  0
   24.7618  -21.2715  -13.0289 C   0  0  0  0  0  0  0  0  0  0  0  0
   25.8053  -21.3293  -13.7447 O   0  0  0  0  0  0  0  0  0  0  0  0
   21.6712  -20.8217  -17.7879 N   0  0  0  0  0  0  0  0  0  0  0  0
   21.8531  -19.8309  -16.7843 C   0  0  0  0  0  0  0  0  0  0  0  0
   21.8605  -18.6338  -17.1550 O   0  0  0  0  0  0  0  0  0  0  0  0
   22.0176  -20.2795  -15.3988 C   0  0  0  0  0  0  0  0  0  0  0  0
   23.4450  -20.3188  -14.9330 C   0  0  2  0  0  0  0  0  0  0  0  0
   23.5843  -20.6884  -13.5494 N   0  0  0  0  0  0  0  0  0  0  0  0
   24.1389  -19.0237  -15.1599 C   0  0  0  0  0  0  0  0  0  0  0  0
   23.8748  -18.0144  -14.4196 O   0  0  0  0  0  0  0  0  0  0  0  0
   27.7834  -18.4503  -17.4703 C   0  0  0  0  0  0  0  0  0  0  0  0
   27.2184  -17.5973  -16.3806 C   0  0  2  0  0  0  0  0  0  0  0  0
   27.7051  -17.9962  -15.0114 C   0  0  0  0  0  0  0  0  0  0  0  0
   25.7085  -17.5360  -16.4039 C   0  0  2  0  0  0  0  0  0  0  0  0
   25.0993  -18.8158  -16.1636 N   0  0  0  0  0  0  0  0  0  0  0  0
   25.1969  -16.8720  -17.6149 C   0  0  0  0  0  0  0  0  0  0  0  0
   24.4074  -17.5678  -18.4979 O   0  0  0  0  0  0  0  0  0  0  0  0
   25.4807  -15.6810  -17.8364 O   0  0  0  0  0  0  0  0  0  0  0  0
  2  1  1  6
  2  5  1  0
  2  3  1  0
  3  4  1  0
  5 12  1  0
  6  5  2  0
  7  8  1  0
  8 10  1  0
  9  8  2  0
 11 10  1  1
 11 13  1  0
 12 11  1  0
 13 14  2  0
 13 19  1  0
 16 15  1  6
 16 17  1  0
 18 16  1  0
 18 20  1  0
 18 19  1  6
 20 21  1  0
 22 20  2  0
M  END
$$$$
