TEK.pdb
     RDKit          3D

 26 25  0  0  1  0  0  0  0  0999 V2000
   10.2761  -13.8495   17.3076 C   0  0  0  0  0  0  0  0  0  0  0  0
    9.8207  -14.1824   18.6953 C   0  0  1  0  0  0  0  0  0  0  0  0
   10.6427  -13.5400   19.6055 O   0  0  0  0  0  0  0  0  0  0  0  0
    8.3605  -13.7884   18.9019 C   0  0  2  0  0  0  0  0  0  0  0  0
    8.1746  -12.3689   18.8020 N   0  0  0  0  0  0  0  0  0  0  0  0
    7.9571  -14.3069   20.2301 C   0  0  0  0  0  0  0  0  0  0  0  0
    7.8439  -13.5457   21.2138 O   0  0  0  0  0  0  0  0  0  0  0  0
    7.6931  -15.6895   20.3964 N   0  0  0  0  0  0  0  0  0  0  0  0
    7.2956  -16.1767   21.6796 C   0  0  1  0  0  0  0  0  0  0  0  0
    6.8543  -17.6394   21.5312 C   0  0  0  0  0  0  0  0  0  0  0  0
    6.4821  -18.1581   22.8971 C   0  0  0  0  0  0  0  0  0  0  0  0
    5.8926  -19.5125   22.7707 C   0  0  0  0  0  0  0  0  0  0  0  0
    6.5583  -20.4496   22.2730 O   0  0  0  0  0  0  0  0  0  0  0  0
    8.4260  -16.1992   22.6529 C   0  0  0  0  0  0  0  0  0  0  0  0
    9.5471  -16.5725   22.2254 O   0  0  0  0  0  0  0  0  0  0  0  0
    4.5906  -19.7317   23.2112 O   0  0  0  0  0  0  0  0  0  0  0  0
    8.3040  -15.8308   23.9995 N   0  0  0  0  0  0  0  0  0  0  0  0
    9.4412  -15.8079   24.9496 C   0  0  1  0  0  0  0  0  0  0  0  0
    9.0439  -15.1486   26.2198 C   0  0  0  0  0  0  0  0  0  0  0  0
   10.1443  -15.2293   27.2384 C   0  0  0  0  0  0  0  0  0  0  0  0
    9.8065  -14.4950   28.5113 C   0  0  0  0  0  0  0  0  0  0  0  0
   10.9144  -14.5422   29.5193 C   0  0  0  0  0  0  0  0  0  0  0  0
   10.5307  -13.8074   30.7174 N   0  0  0  0  0  0  0  0  0  0  0  0
    9.7504  -17.2291   25.1918 C   0  0  0  0  0  0  0  0  0  0  0  0
   11.0582  -17.6315   25.3540 O   0  0  0  0  0  0  0  0  0  0  0  0
    8.8687  -18.1275   25.2594 O   0  0  0  0  0  0  0  0  0  0  0  0
  2  1  1  6
  3  2  1  0
  4  2  1  0
  4  5  1  1
  4  6  1  0
  6  7  2  0
  8  6  1  0
  8  9  1  0
  9 14  1  0
  9 10  1  6
 11 10  1  0
 12 11  1  0
 13 12  2  0
 14 15  2  0
 16 12  1  0
 17 18  1  0
 17 14  1  0
 18 24  1  0
 18 19  1  1
 20 19  1  0
 20 21  1  0
 22 23  1  0
 22 21  1  0
 24 26  2  0
 24 25  1  0
M  END
$$$$
