TEK.pdb
     RDKit          3D

 26 25  0  0  1  0  0  0  0  0999 V2000
    8.4006  -12.2402   25.7686 C   0  0  0  0  0  0  0  0  0  0  0  0
    7.2393  -12.7999   26.5314 C   0  0  1  0  0  0  0  0  0  0  0  0
    6.5250  -11.7561   27.0946 O   0  0  0  0  0  0  0  0  0  0  0  0
    6.3488  -13.6494   25.6282 C   0  0  2  0  0  0  0  0  0  0  0  0
    5.1413  -14.0457   26.2947 N   0  0  0  0  0  0  0  0  0  0  0  0
    7.1547  -14.8177   25.2026 C   0  0  0  0  0  0  0  0  0  0  0  0
    7.1815  -15.8659   25.8811 O   0  0  0  0  0  0  0  0  0  0  0  0
    7.9116  -14.7535   24.0060 N   0  0  0  0  0  0  0  0  0  0  0  0
    8.6233  -15.9115   23.5651 C   0  0  1  0  0  0  0  0  0  0  0  0
    9.0481  -15.6972   22.1057 C   0  0  0  0  0  0  0  0  0  0  0  0
    9.8043  -16.9204   21.6525 C   0  0  0  0  0  0  0  0  0  0  0  0
   10.1276  -16.7990   20.2109 C   0  0  0  0  0  0  0  0  0  0  0  0
   10.4810  -17.8050   19.5537 O   0  0  0  0  0  0  0  0  0  0  0  0
    9.8919  -16.1201   24.3220 C   0  0  0  0  0  0  0  0  0  0  0  0
   10.6018  -15.1080   24.5467 O   0  0  0  0  0  0  0  0  0  0  0  0
   10.0341  -15.5543   19.5951 O   0  0  0  0  0  0  0  0  0  0  0  0
   10.3262  -17.3682   24.7885 N   0  0  0  0  0  0  0  0  0  0  0  0
   11.6149  -17.5783   25.4897 C   0  0  1  0  0  0  0  0  0  0  0  0
   11.5793  -18.8377   26.2761 C   0  0  0  0  0  0  0  0  0  0  0  0
   11.2809  -18.5643   27.7222 C   0  0  0  0  0  0  0  0  0  0  0  0
   11.1555  -19.8288   28.5340 C   0  0  0  0  0  0  0  0  0  0  0  0
   11.0298  -19.5641   30.0036 C   0  0  0  0  0  0  0  0  0  0  0  0
   10.8359  -20.8169   30.7216 N   0  0  0  0  0  0  0  0  0  0  0  0
   12.6120  -17.6841   24.4087 C   0  0  0  0  0  0  0  0  0  0  0  0
   13.8976  -17.2314   24.6109 O   0  0  0  0  0  0  0  0  0  0  0  0
   12.3555  -18.1744   23.2761 O   0  0  0  0  0  0  0  0  0  0  0  0
  2  1  1  6
  3  2  1  0
  4  2  1  0
  4  5  1  1
  4  6  1  0
  6  7  2  0
  8  6  1  0
  8  9  1  0
  9 14  1  0
  9 10  1  6
 11 10  1  0
 12 11  1  0
 13 12  2  0
 14 15  2  0
 16 12  1  0
 17 18  1  0
 17 14  1  0
 18 24  1  0
 18 19  1  6
 20 19  1  0
 20 21  1  0
 22 23  1  0
 22 21  1  0
 24 26  2  0
 24 25  1  0
M  END
$$$$
