TEK.pdb
     RDKit          3D

 26 25  0  0  1  0  0  0  0  0999 V2000
    7.6574  -11.9193   19.4066 C   0  0  0  0  0  0  0  0  0  0  0  0
    8.6560  -13.0007   19.6840 C   0  0  1  0  0  0  0  0  0  0  0  0
    8.1589  -13.8297   20.6752 O   0  0  0  0  0  0  0  0  0  0  0  0
    8.9742  -13.7906   18.4171 C   0  0  2  0  0  0  0  0  0  0  0  0
    7.8141  -14.4624   17.9052 N   0  0  0  0  0  0  0  0  0  0  0  0
   10.0571  -14.7415   18.7617 C   0  0  0  0  0  0  0  0  0  0  0  0
    9.8046  -15.9278   19.0601 O   0  0  0  0  0  0  0  0  0  0  0  0
   11.4059  -14.3062   18.7551 N   0  0  0  0  0  0  0  0  0  0  0  0
   12.4394  -15.2243   19.1170 C   0  0  1  0  0  0  0  0  0  0  0  0
   13.7444  -14.7815   18.4409 C   0  0  0  0  0  0  0  0  0  0  0  0
   13.9483  -15.6312   17.2122 C   0  0  0  0  0  0  0  0  0  0  0  0
   15.2601  -15.3127   16.5997 C   0  0  0  0  0  0  0  0  0  0  0  0
   16.3197  -15.7414   17.1120 O   0  0  0  0  0  0  0  0  0  0  0  0
   12.7249  -15.2087   20.5812 C   0  0  0  0  0  0  0  0  0  0  0  0
   12.8705  -14.0868   21.1280 O   0  0  0  0  0  0  0  0  0  0  0  0
   15.3018  -14.5316   15.4484 O   0  0  0  0  0  0  0  0  0  0  0  0
   12.8374  -16.3638   21.3668 N   0  0  0  0  0  0  0  0  0  0  0  0
   13.0521  -16.3405   22.8330 C   0  0  1  0  0  0  0  0  0  0  0  0
   12.4790  -17.5580   23.4616 C   0  0  0  0  0  0  0  0  0  0  0  0
   12.8225  -17.6257   24.9218 C   0  0  0  0  0  0  0  0  0  0  0  0
   12.4047  -18.9302   25.5523 C   0  0  0  0  0  0  0  0  0  0  0  0
   12.6164  -18.9511   27.0358 C   0  0  0  0  0  0  0  0  0  0  0  0
   12.0006  -20.1395   27.6111 N   0  0  0  0  0  0  0  0  0  0  0  0
   14.5178  -16.3301   22.9927 C   0  0  0  0  0  0  0  0  0  0  0  0
   15.0901  -15.6661   24.0559 O   0  0  0  0  0  0  0  0  0  0  0  0
   15.3052  -16.9048   22.1935 O   0  0  0  0  0  0  0  0  0  0  0  0
  2  1  1  6
  3  2  1  0
  4  2  1  0
  4  5  1  1
  4  6  1  0
  6  7  2  0
  8  6  1  0
  8  9  1  0
  9 14  1  0
  9 10  1  6
 11 10  1  0
 12 11  1  0
 13 12  2  0
 14 15  2  0
 16 12  1  0
 17 18  1  0
 17 14  1  0
 18 24  1  0
 18 19  1  1
 20 19  1  0
 20 21  1  0
 22 23  1  0
 22 21  1  0
 24 26  2  0
 24 25  1  0
M  END
$$$$
