TEK.pdb
     RDKit          3D

 26 25  0  0  1  0  0  0  0  0999 V2000
    9.4731  -12.6857   19.9694 C   0  0  0  0  0  0  0  0  0  0  0  0
    8.4038  -13.2205   19.0670 C   0  0  1  0  0  0  0  0  0  0  0  0
    8.2157  -12.3364   18.0182 O   0  0  0  0  0  0  0  0  0  0  0  0
    8.7657  -14.6117   18.5533 C   0  0  2  0  0  0  0  0  0  0  0  0
    7.7740  -15.1176   17.6479 N   0  0  0  0  0  0  0  0  0  0  0  0
    8.9258  -15.4825   19.7414 C   0  0  0  0  0  0  0  0  0  0  0  0
    7.9355  -15.9889   20.3096 O   0  0  0  0  0  0  0  0  0  0  0  0
   10.2216  -15.7511   20.2490 N   0  0  0  0  0  0  0  0  0  0  0  0
   10.3661  -16.6183   21.3755 C   0  0  1  0  0  0  0  0  0  0  0  0
   11.7844  -17.2051   21.3610 C   0  0  0  0  0  0  0  0  0  0  0  0
   11.9184  -18.1380   22.5379 C   0  0  0  0  0  0  0  0  0  0  0  0
   13.2605  -18.7675   22.5230 C   0  0  0  0  0  0  0  0  0  0  0  0
   13.4952  -19.7419   21.7717 O   0  0  0  0  0  0  0  0  0  0  0  0
   10.2509  -15.8886   22.6716 C   0  0  0  0  0  0  0  0  0  0  0  0
   11.0880  -14.9791   22.8972 O   0  0  0  0  0  0  0  0  0  0  0  0
   14.2575  -18.2637   23.3533 O   0  0  0  0  0  0  0  0  0  0  0  0
    9.2716  -16.1611   23.6363 N   0  0  0  0  0  0  0  0  0  0  0  0
    9.1013  -15.3700   24.8780 C   0  0  1  0  0  0  0  0  0  0  0  0
    7.7232  -14.8224   24.9603 C   0  0  0  0  0  0  0  0  0  0  0  0
    7.7068  -13.5051   25.6810 C   0  0  0  0  0  0  0  0  0  0  0  0
    6.3098  -12.9719   25.8757 C   0  0  0  0  0  0  0  0  0  0  0  0
    6.2912  -11.6073   26.4948 C   0  0  0  0  0  0  0  0  0  0  0  0
    4.9210  -11.1216   26.5910 N   0  0  0  0  0  0  0  0  0  0  0  0
    9.3280  -16.3372   25.9675 C   0  0  0  0  0  0  0  0  0  0  0  0
    9.5667  -15.8885   27.2483 O   0  0  0  0  0  0  0  0  0  0  0  0
    9.3198  -17.5862   25.7972 O   0  0  0  0  0  0  0  0  0  0  0  0
  2  1  1  1
  3  2  1  0
  4  2  1  0
  4  5  1  6
  4  6  1  0
  6  7  2  0
  8  6  1  0
  8  9  1  0
  9 14  1  0
  9 10  1  6
 11 10  1  0
 12 11  1  0
 13 12  2  0
 14 15  2  0
 16 12  1  0
 17 18  1  0
 17 14  1  0
 18 24  1  0
 18 19  1  1
 20 19  1  0
 20 21  1  0
 22 23  1  0
 22 21  1  0
 24 26  2  0
 24 25  1  0
M  END
$$$$
