TEK.pdb
     RDKit          3D

 26 25  0  0  1  0  0  0  0  0999 V2000
    9.6952  -12.6231   19.6289 C   0  0  0  0  0  0  0  0  0  0  0  0
    8.6116  -13.1129   18.7180 C   0  0  1  0  0  0  0  0  0  0  0  0
    8.4660  -12.2199   17.6701 O   0  0  0  0  0  0  0  0  0  0  0  0
    8.9214  -14.5164   18.2035 C   0  0  2  0  0  0  0  0  0  0  0  0
    7.9888  -14.9292   17.1940 N   0  0  0  0  0  0  0  0  0  0  0  0
    8.9023  -15.4205   19.3773 C   0  0  0  0  0  0  0  0  0  0  0  0
    7.8314  -15.8974   19.8082 O   0  0  0  0  0  0  0  0  0  0  0  0
   10.1157  -15.7557   20.0286 N   0  0  0  0  0  0  0  0  0  0  0  0
   10.0817  -16.6027   21.1790 C   0  0  1  0  0  0  0  0  0  0  0  0
   11.3666  -17.4421   21.2053 C   0  0  0  0  0  0  0  0  0  0  0  0
   11.3035  -18.4325   20.0702 C   0  0  0  0  0  0  0  0  0  0  0  0
   12.5389  -19.2518   20.0562 C   0  0  0  0  0  0  0  0  0  0  0  0
   13.6633  -18.7023   20.0055 O   0  0  0  0  0  0  0  0  0  0  0  0
   10.0865  -15.8282   22.4541 C   0  0  0  0  0  0  0  0  0  0  0  0
   10.9667  -14.9413   22.5862 O   0  0  0  0  0  0  0  0  0  0  0  0
   12.4358  -20.6391   20.1001 O   0  0  0  0  0  0  0  0  0  0  0  0
    9.1734  -16.0357   23.4967 N   0  0  0  0  0  0  0  0  0  0  0  0
    9.0715  -15.1555   24.6848 C   0  0  1  0  0  0  0  0  0  0  0  0
    7.7614  -14.4562   24.7025 C   0  0  0  0  0  0  0  0  0  0  0  0
    7.6341  -13.5765   25.9129 C   0  0  0  0  0  0  0  0  0  0  0  0
    6.4073  -12.7013   25.8630 C   0  0  0  0  0  0  0  0  0  0  0  0
    6.3443  -11.7260   26.9990 C   0  0  0  0  0  0  0  0  0  0  0  0
    5.1524  -10.8967   26.8794 N   0  0  0  0  0  0  0  0  0  0  0  0
    9.1719  -16.0724   25.8350 C   0  0  0  0  0  0  0  0  0  0  0  0
    9.3329  -15.5670   27.1067 O   0  0  0  0  0  0  0  0  0  0  0  0
    9.1210  -17.3273   25.7263 O   0  0  0  0  0  0  0  0  0  0  0  0
  2  1  1  1
  3  2  1  0
  4  2  1  0
  4  5  1  6
  4  6  1  0
  6  7  2  0
  8  6  1  0
  8  9  1  0
  9 14  1  0
  9 10  1  1
 11 10  1  0
 12 11  1  0
 13 12  2  0
 14 15  2  0
 16 12  1  0
 17 18  1  0
 17 14  1  0
 18 24  1  0
 18 19  1  6
 20 19  1  0
 20 21  1  0
 22 23  1  0
 22 21  1  0
 24 26  2  0
 24 25  1  0
M  END
$$$$
