TEK.pdb
     RDKit          3D

 26 25  0  0  1  0  0  0  0  0999 V2000
    9.9517  -12.4131   17.6789 C   0  0  0  0  0  0  0  0  0  0  0  0
    9.7141  -13.1979   18.9324 C   0  0  1  0  0  0  0  0  0  0  0  0
    9.0802  -12.3869   19.8584 O   0  0  0  0  0  0  0  0  0  0  0  0
    8.8906  -14.4510   18.6464 C   0  0  2  0  0  0  0  0  0  0  0  0
    7.6023  -14.1270   18.1037 N   0  0  0  0  0  0  0  0  0  0  0  0
    8.7818  -15.1967   19.9222 C   0  0  0  0  0  0  0  0  0  0  0  0
    7.7220  -15.1952   20.5831 O   0  0  0  0  0  0  0  0  0  0  0  0
    9.8946  -15.9273   20.4087 N   0  0  0  0  0  0  0  0  0  0  0  0
    9.7679  -16.6691   21.6234 C   0  0  1  0  0  0  0  0  0  0  0  0
   10.9473  -17.6464   21.7239 C   0  0  0  0  0  0  0  0  0  0  0  0
   10.7840  -18.4506   22.9888 C   0  0  0  0  0  0  0  0  0  0  0  0
   11.8636  -19.4626   23.0772 C   0  0  0  0  0  0  0  0  0  0  0  0
   12.9073  -19.3372   22.3959 O   0  0  0  0  0  0  0  0  0  0  0  0
    9.8676  -15.7999   22.8319 C   0  0  0  0  0  0  0  0  0  0  0  0
   10.7893  -14.9461   22.8531 O   0  0  0  0  0  0  0  0  0  0  0  0
   11.7051  -20.5543   23.9259 O   0  0  0  0  0  0  0  0  0  0  0  0
    8.9992  -15.8852   23.9285 N   0  0  0  0  0  0  0  0  0  0  0  0
    8.9902  -14.9107   25.0450 C   0  0  1  0  0  0  0  0  0  0  0  0
    7.6376  -14.3190   25.2074 C   0  0  0  0  0  0  0  0  0  0  0  0
    7.5950  -13.3799   26.3784 C   0  0  0  0  0  0  0  0  0  0  0  0
    6.2323  -12.7649   26.5748 C   0  0  0  0  0  0  0  0  0  0  0  0
    6.2045  -11.7601   27.6862 C   0  0  0  0  0  0  0  0  0  0  0  0
    4.8483  -11.2627   27.8755 N   0  0  0  0  0  0  0  0  0  0  0  0
    9.3407  -15.7074   26.2351 C   0  0  0  0  0  0  0  0  0  0  0  0
    9.8011  -15.0805   27.3725 O   0  0  0  0  0  0  0  0  0  0  0  0
    9.2461  -16.9636   26.2795 O   0  0  0  0  0  0  0  0  0  0  0  0
  2  1  1  6
  3  2  1  0
  4  2  1  0
  4  5  1  1
  4  6  1  0
  6  7  2  0
  8  6  1  0
  8  9  1  0
  9 14  1  0
  9 10  1  1
 11 10  1  0
 12 11  1  0
 13 12  2  0
 14 15  2  0
 16 12  1  0
 17 18  1  0
 17 14  1  0
 18 24  1  0
 18 19  1  1
 20 19  1  0
 20 21  1  0
 22 23  1  0
 22 21  1  0
 24 26  2  0
 24 25  1  0
M  END
$$$$
