TEK.pdb
     RDKit          3D

 26 25  0  0  1  0  0  0  0  0999 V2000
    9.0608  -12.8036   19.6339 C   0  0  0  0  0  0  0  0  0  0  0  0
    8.2470  -13.5015   18.5878 C   0  0  1  0  0  0  0  0  0  0  0  0
    8.1822  -12.7018   17.4595 O   0  0  0  0  0  0  0  0  0  0  0  0
    8.8376  -14.8698   18.2568 C   0  0  2  0  0  0  0  0  0  0  0  0
    8.1099  -15.5216   17.2057 N   0  0  0  0  0  0  0  0  0  0  0  0
    8.8255  -15.6599   19.5103 C   0  0  0  0  0  0  0  0  0  0  0  0
    7.7761  -16.1929   19.9281 O   0  0  0  0  0  0  0  0  0  0  0  0
   10.0211  -15.8188   20.2548 N   0  0  0  0  0  0  0  0  0  0  0  0
    9.9927  -16.5643   21.4736 C   0  0  1  0  0  0  0  0  0  0  0  0
   11.2866  -17.3839   21.5747 C   0  0  0  0  0  0  0  0  0  0  0  0
   11.2134  -18.5028   20.5667 C   0  0  0  0  0  0  0  0  0  0  0  0
   12.4275  -19.3469   20.6721 C   0  0  0  0  0  0  0  0  0  0  0  0
   13.4770  -18.8873   21.1783 O   0  0  0  0  0  0  0  0  0  0  0  0
    9.9849  -15.6832   22.6774 C   0  0  0  0  0  0  0  0  0  0  0  0
   10.8134  -14.7390   22.7057 O   0  0  0  0  0  0  0  0  0  0  0  0
   12.3887  -20.6565   20.2022 O   0  0  0  0  0  0  0  0  0  0  0  0
    9.1141  -15.8518   23.7624 N   0  0  0  0  0  0  0  0  0  0  0  0
    9.0197  -14.8990   24.8937 C   0  0  1  0  0  0  0  0  0  0  0  0
    7.6578  -14.3106   24.9651 C   0  0  0  0  0  0  0  0  0  0  0  0
    7.5114  -13.4307   26.1731 C   0  0  0  0  0  0  0  0  0  0  0  0
    6.1837  -12.7169   26.2088 C   0  0  0  0  0  0  0  0  0  0  0  0
    6.0185  -11.8605   27.4274 C   0  0  0  0  0  0  0  0  0  0  0  0
    4.6967  -11.2476   27.4313 N   0  0  0  0  0  0  0  0  0  0  0  0
    9.2808  -15.7186   26.0912 C   0  0  0  0  0  0  0  0  0  0  0  0
    9.6095  -15.1109   27.2834 O   0  0  0  0  0  0  0  0  0  0  0  0
    9.2235  -16.9779   26.0940 O   0  0  0  0  0  0  0  0  0  0  0  0
  2  1  1  1
  3  2  1  0
  4  2  1  0
  4  5  1  6
  4  6  1  0
  6  7  2  0
  8  6  1  0
  8  9  1  0
  9 14  1  0
  9 10  1  1
 11 10  1  0
 12 11  1  0
 13 12  2  0
 14 15  2  0
 16 12  1  0
 17 18  1  0
 17 14  1  0
 18 24  1  0
 18 19  1  1
 20 19  1  0
 20 21  1  0
 22 23  1  0
 22 21  1  0
 24 26  2  0
 24 25  1  0
M  END
$$$$
