FDK.pdb
     RDKit          3D

 29 29  0  0  1  0  0  0  0  0999 V2000
    5.7869  -16.9475   25.2363 N   0  0  0  0  0  0  0  0  0  0  0  0
    6.7625  -15.9707   24.8478 C   0  0  1  0  0  0  0  0  0  0  0  0
    7.2748  -15.2340   26.0395 C   0  0  0  0  0  0  0  0  0  0  0  0
    6.7337  -13.8538   26.0013 C   0  0  0  0  0  0  0  0  0  0  0  0
    6.5699  -13.1552   27.1808 C   0  0  0  0  0  0  0  0  0  0  0  0
    6.0674  -11.8595   27.1956 C   0  0  0  0  0  0  0  0  0  0  0  0
    5.7270  -11.2624   26.0121 C   0  0  0  0  0  0  0  0  0  0  0  0
    5.8793  -11.9341   24.8214 C   0  0  0  0  0  0  0  0  0  0  0  0
    6.3806  -13.2220   24.8278 C   0  0  0  0  0  0  0  0  0  0  0  0
    7.8818  -16.5673   24.0324 C   0  0  0  0  0  0  0  0  0  0  0  0
    8.4134  -17.6449   24.3370 O   0  0  0  0  0  0  0  0  0  0  0  0
    8.3375  -15.8733   22.8853 N   0  0  0  0  0  0  0  0  0  0  0  0
    9.4576  -16.3112   22.0896 C   0  0  1  0  0  0  0  0  0  0  0  0
    9.5026  -15.4765   20.8122 C   0  0  0  0  0  0  0  0  0  0  0  0
   10.5120  -16.0401   19.9073 C   0  0  0  0  0  0  0  0  0  0  0  0
   11.7146  -15.7190   20.1060 O   0  0  0  0  0  0  0  0  0  0  0  0
   10.7489  -16.1142   22.7766 C   0  0  0  0  0  0  0  0  0  0  0  0
   11.1149  -14.9566   23.0674 O   0  0  0  0  0  0  0  0  0  0  0  0
   10.1306  -16.8918   18.8793 O   0  0  0  0  0  0  0  0  0  0  0  0
   11.5669  -17.2071   23.1053 N   0  0  0  0  0  0  0  0  0  0  0  0
   12.7191  -17.1155   24.0250 C   0  0  1  0  0  0  0  0  0  0  0  0
   12.7386  -18.3415   24.8533 C   0  0  0  0  0  0  0  0  0  0  0  0
   13.8623  -18.5173   25.8033 C   0  0  0  0  0  0  0  0  0  0  0  0
   13.9185  -19.8045   26.5522 C   0  0  0  0  0  0  0  0  0  0  0  0
   15.1466  -19.8663   27.4680 C   0  0  0  0  0  0  0  0  0  0  0  0
   15.1036  -21.0985   28.2004 N   0  0  0  0  0  0  0  0  0  0  0  0
   13.9253  -16.7548   23.2907 C   0  0  0  0  0  0  0  0  0  0  0  0
   14.8977  -16.1580   23.8786 O   0  0  0  0  0  0  0  0  0  0  0  0
   14.1450  -17.0064   21.9484 O   0  0  0  0  0  0  0  0  0  0  0  0
  2  1  1  1
  2  3  1  0
  2 10  1  0
  3  4  1  0
  4  5  2  0
  5  6  1  0
  7  6  2  0
  8  7  1  0
  9  8  2  0
  9  4  1  0
 10 11  2  0
 12 10  1  0
 12 13  1  0
 13 14  1  6
 14 15  1  0
 15 16  2  0
 17 13  1  0
 17 18  2  0
 19 15  1  0
 20 17  1  0
 21 27  1  0
 21 20  1  0
 21 22  1  6
 23 22  1  0
 24 23  1  0
 25 26  1  0
 25 24  1  0
 27 29  1  0
 28 27  2  0
M  END
$$$$
