FDK.pdb
     RDKit          3D

 29 29  0  0  1  0  0  0  0  0999 V2000
    5.8929  -16.6435   25.0806 N   0  0  0  0  0  0  0  0  0  0  0  0
    7.0221  -15.8245   24.7475 C   0  0  1  0  0  0  0  0  0  0  0  0
    7.4879  -15.0583   25.9397 C   0  0  0  0  0  0  0  0  0  0  0  0
    7.0366  -13.6531   25.7951 C   0  0  0  0  0  0  0  0  0  0  0  0
    5.8668  -13.2487   26.4067 C   0  0  0  0  0  0  0  0  0  0  0  0
    5.4038  -11.9426   26.3006 C   0  0  0  0  0  0  0  0  0  0  0  0
    6.1253  -11.0361   25.5721 C   0  0  0  0  0  0  0  0  0  0  0  0
    7.2945  -11.4104   24.9516 C   0  0  0  0  0  0  0  0  0  0  0  0
    7.7381  -12.7141   25.0691 C   0  0  0  0  0  0  0  0  0  0  0  0
    8.1402  -16.6146   24.1157 C   0  0  0  0  0  0  0  0  0  0  0  0
    8.4290  -17.7597   24.4924 O   0  0  0  0  0  0  0  0  0  0  0  0
    8.8811  -16.0281   23.0610 N   0  0  0  0  0  0  0  0  0  0  0  0
   10.0350  -16.6528   22.4630 C   0  0  1  0  0  0  0  0  0  0  0  0
   10.4238  -15.8631   21.2157 C   0  0  0  0  0  0  0  0  0  0  0  0
   11.5247  -16.5555   20.5345 C   0  0  0  0  0  0  0  0  0  0  0  0
   11.4511  -17.8102   20.4385 O   0  0  0  0  0  0  0  0  0  0  0  0
   11.2081  -16.6456   23.3584 C   0  0  0  0  0  0  0  0  0  0  0  0
   11.6018  -15.5628   23.8394 O   0  0  0  0  0  0  0  0  0  0  0  0
   12.5950  -15.8329   20.0246 O   0  0  0  0  0  0  0  0  0  0  0  0
   11.8836  -17.8353   23.6746 N   0  0  0  0  0  0  0  0  0  0  0  0
   12.9693  -17.9157   24.6728 C   0  0  1  0  0  0  0  0  0  0  0  0
   12.7985  -19.1754   25.4302 C   0  0  0  0  0  0  0  0  0  0  0  0
   12.1815  -19.0962   26.7753 C   0  0  0  0  0  0  0  0  0  0  0  0
   12.0435  -20.3731   27.5312 C   0  0  0  0  0  0  0  0  0  0  0  0
   11.4191  -20.1415   28.9122 C   0  0  0  0  0  0  0  0  0  0  0  0
   11.3715  -21.3969   29.6038 N   0  0  0  0  0  0  0  0  0  0  0  0
   14.2571  -17.6543   24.0422 C   0  0  0  0  0  0  0  0  0  0  0  0
   14.4441  -17.9148   22.7994 O   0  0  0  0  0  0  0  0  0  0  0  0
   15.3621  -17.1206   24.6805 O   0  0  0  0  0  0  0  0  0  0  0  0
  2  1  1  1
  2  3  1  0
  2 10  1  0
  3  4  1  0
  4  5  2  0
  5  6  1  0
  7  6  2  0
  8  7  1  0
  9  8  2  0
  9  4  1  0
 10 11  2  0
 12 10  1  0
 12 13  1  0
 13 14  1  6
 14 15  1  0
 15 16  2  0
 17 13  1  0
 17 18  2  0
 19 15  1  0
 20 17  1  0
 21 27  1  0
 21 20  1  0
 21 22  1  6
 23 22  1  0
 24 23  1  0
 25 26  1  0
 25 24  1  0
 27 29  1  0
 28 27  2  0
M  END
$$$$
