FDK.pdb
     RDKit          3D

 29 29  0  0  1  0  0  0  0  0999 V2000
    6.6121  -16.2627   25.5249 N   0  0  0  0  0  0  0  0  0  0  0  0
    6.7872  -16.1332   24.1073 C   0  0  1  0  0  0  0  0  0  0  0  0
    6.6398  -14.7100   23.6855 C   0  0  0  0  0  0  0  0  0  0  0  0
    6.9743  -13.8448   24.8425 C   0  0  0  0  0  0  0  0  0  0  0  0
    5.9579  -13.3274   25.6205 C   0  0  0  0  0  0  0  0  0  0  0  0
    6.2218  -12.5126   26.7151 C   0  0  0  0  0  0  0  0  0  0  0  0
    7.5206  -12.2164   27.0286 C   0  0  0  0  0  0  0  0  0  0  0  0
    8.5539  -12.7176   26.2714 C   0  0  0  0  0  0  0  0  0  0  0  0
    8.2708  -13.5261   25.1868 C   0  0  0  0  0  0  0  0  0  0  0  0
    8.0883  -16.7282   23.6310 C   0  0  0  0  0  0  0  0  0  0  0  0
    8.6031  -17.7099   24.1859 O   0  0  0  0  0  0  0  0  0  0  0  0
    8.7394  -16.1458   22.5166 N   0  0  0  0  0  0  0  0  0  0  0  0
    9.9767  -16.6483   21.9725 C   0  0  1  0  0  0  0  0  0  0  0  0
   10.3355  -15.8245   20.7384 C   0  0  0  0  0  0  0  0  0  0  0  0
   11.5135  -16.4170   20.0930 C   0  0  0  0  0  0  0  0  0  0  0  0
   12.5258  -15.6810   19.9433 O   0  0  0  0  0  0  0  0  0  0  0  0
   11.1028  -16.5181   22.9176 C   0  0  0  0  0  0  0  0  0  0  0  0
   12.2214  -16.9727   22.6001 O   0  0  0  0  0  0  0  0  0  0  0  0
   11.4880  -17.7399   19.6724 O   0  0  0  0  0  0  0  0  0  0  0  0
   10.9326  -15.8926   24.1632 N   0  0  0  0  0  0  0  0  0  0  0  0
   11.9121  -15.9891   25.2645 C   0  0  1  0  0  0  0  0  0  0  0  0
   11.1599  -16.0864   26.5351 C   0  0  0  0  0  0  0  0  0  0  0  0
   11.9191  -16.4104   27.7659 C   0  0  0  0  0  0  0  0  0  0  0  0
   11.1359  -16.5449   29.0267 C   0  0  0  0  0  0  0  0  0  0  0  0
   12.0489  -16.8282   30.2253 C   0  0  0  0  0  0  0  0  0  0  0  0
   11.2445  -16.8471   31.4125 N   0  0  0  0  0  0  0  0  0  0  0  0
   12.9082  -17.0109   24.9678 C   0  0  0  0  0  0  0  0  0  0  0  0
   14.1436  -16.6984   24.8154 O   0  0  0  0  0  0  0  0  0  0  0  0
   12.6454  -18.3618   24.8283 O   0  0  0  0  0  0  0  0  0  0  0  0
  2  1  1  1
  2  3  1  0
  2 10  1  0
  3  4  1  0
  4  5  2  0
  5  6  1  0
  7  6  2  0
  8  7  1  0
  9  8  2  0
  9  4  1  0
 10 11  2  0
 12 10  1  0
 12 13  1  0
 13 14  1  6
 14 15  1  0
 15 16  2  0
 17 13  1  0
 17 18  2  0
 19 15  1  0
 20 17  1  0
 21 27  1  0
 21 20  1  0
 21 22  1  1
 23 22  1  0
 24 23  1  0
 25 26  1  0
 25 24  1  0
 27 29  1  0
 28 27  2  0
M  END
$$$$
