FDK.pdb
     RDKit          3D

 29 29  0  0  1  0  0  0  0  0999 V2000
    6.1126  -15.3906   22.9612 N   0  0  0  0  0  0  0  0  0  0  0  0
    7.4475  -14.9892   22.6236 C   0  0  1  0  0  0  0  0  0  0  0  0
    7.6865  -13.5699   23.0154 C   0  0  0  0  0  0  0  0  0  0  0  0
    7.4006  -13.4327   24.4641 C   0  0  0  0  0  0  0  0  0  0  0  0
    6.0965  -13.2693   24.8870 C   0  0  0  0  0  0  0  0  0  0  0  0
    5.7791  -13.1374   26.2337 C   0  0  0  0  0  0  0  0  0  0  0  0
    6.7839  -13.1705   27.1623 C   0  0  0  0  0  0  0  0  0  0  0  0
    8.0925  -13.3320   26.7704 C   0  0  0  0  0  0  0  0  0  0  0  0
    8.3876  -13.4614   25.4264 C   0  0  0  0  0  0  0  0  0  0  0  0
    8.4900  -15.9139   23.1994 C   0  0  0  0  0  0  0  0  0  0  0  0
    8.1944  -16.8334   23.9765 O   0  0  0  0  0  0  0  0  0  0  0  0
    9.8464  -15.7236   22.8404 N   0  0  0  0  0  0  0  0  0  0  0  0
   10.9082  -16.5998   23.2700 C   0  0  1  0  0  0  0  0  0  0  0  0
   12.2394  -16.0152   22.8045 C   0  0  0  0  0  0  0  0  0  0  0  0
   12.3267  -16.1272   21.3433 C   0  0  0  0  0  0  0  0  0  0  0  0
   12.7701  -15.1317   20.7096 O   0  0  0  0  0  0  0  0  0  0  0  0
   10.9820  -16.7185   24.7391 C   0  0  0  0  0  0  0  0  0  0  0  0
   10.8284  -15.6983   25.4422 O   0  0  0  0  0  0  0  0  0  0  0  0
   11.9293  -17.2957   20.7074 O   0  0  0  0  0  0  0  0  0  0  0  0
   11.2218  -17.9584   25.3531 N   0  0  0  0  0  0  0  0  0  0  0  0
   10.7008  -18.3222   26.6864 C   0  0  1  0  0  0  0  0  0  0  0  0
    9.5087  -19.1770   26.4913 C   0  0  0  0  0  0  0  0  0  0  0  0
    8.8658  -19.7535   27.6956 C   0  0  0  0  0  0  0  0  0  0  0  0
    7.6392  -20.5720   27.4800 C   0  0  0  0  0  0  0  0  0  0  0  0
    7.1857  -21.2535   28.7763 C   0  0  0  0  0  0  0  0  0  0  0  0
    6.0626  -22.0935   28.4772 N   0  0  0  0  0  0  0  0  0  0  0  0
   11.7788  -18.8175   27.5331 C   0  0  0  0  0  0  0  0  0  0  0  0
   12.8830  -19.2229   27.0198 O   0  0  0  0  0  0  0  0  0  0  0  0
   11.7339  -18.8978   28.9133 O   0  0  0  0  0  0  0  0  0  0  0  0
  2  1  1  1
  2  3  1  0
  2 10  1  0
  3  4  1  0
  4  5  2  0
  5  6  1  0
  7  6  2  0
  8  7  1  0
  9  8  2  0
  9  4  1  0
 10 11  2  0
 12 10  1  0
 12 13  1  0
 13 14  1  1
 14 15  1  0
 15 16  2  0
 17 13  1  0
 17 18  2  0
 19 15  1  0
 20 17  1  0
 21 27  1  0
 21 20  1  0
 21 22  1  6
 23 22  1  0
 24 23  1  0
 25 26  1  0
 25 24  1  0
 27 29  1  0
 28 27  2  0
M  END
$$$$
