STI.pdb
     RDKit          3D

 22 21  0  0  1  0  0  0  0  0999 V2000
   12.5537  -17.1889   19.1898 O   0  0  0  0  0  0  0  0  0  0  0  0
   11.5334  -17.6475   20.0227 C   0  0  0  0  0  0  0  0  0  0  0  0
   10.1761  -17.3899   19.4382 C   0  0  2  0  0  0  0  0  0  0  0  0
   10.3563  -16.7405   18.1570 N   0  0  0  0  0  0  0  0  0  0  0  0
    9.3010  -16.5955   20.3154 C   0  0  0  0  0  0  0  0  0  0  0  0
    8.8125  -15.5174   19.8722 O   0  0  0  0  0  0  0  0  0  0  0  0
    6.1431  -17.4918   21.3831 C   0  0  0  0  0  0  0  0  0  0  0  0
    6.8379  -17.1905   22.6621 C   0  0  1  0  0  0  0  0  0  0  0  0
    7.2963  -18.3066   23.3190 O   0  0  0  0  0  0  0  0  0  0  0  0
    8.0225  -16.2321   22.4705 C   0  0  2  0  0  0  0  0  0  0  0  0
    8.9623  -16.9507   21.6291 N   0  0  0  0  0  0  0  0  0  0  0  0
    8.5948  -15.7774   23.7230 C   0  0  0  0  0  0  0  0  0  0  0  0
    9.7480  -16.1289   24.0555 O   0  0  0  0  0  0  0  0  0  0  0  0
    5.7511  -12.1570   27.2167 C   0  0  0  0  0  0  0  0  0  0  0  0
    6.3293  -13.4240   26.6281 C   0  0  0  0  0  0  0  0  0  0  0  0
    7.7934  -13.1936   26.3328 C   0  0  2  0  0  0  0  0  0  0  0  0
    7.9116  -12.0944   25.2890 C   0  0  0  0  0  0  0  0  0  0  0  0
    8.4785  -14.4381   25.8349 C   0  0  2  0  0  0  0  0  0  0  0  0
    7.8903  -14.9338   24.6050 N   0  0  0  0  0  0  0  0  0  0  0  0
    8.4558  -15.4586   26.9056 C   0  0  0  0  0  0  0  0  0  0  0  0
    7.7705  -16.4922   26.7352 O   0  0  0  0  0  0  0  0  0  0  0  0
    9.1544  -15.3301   28.0890 O   0  0  0  0  0  0  0  0  0  0  0  0
  1  2  1  0
  2  3  1  0
  3  5  1  0
  3  4  1  6
  5  6  2  0
  8  7  1  6
  8 10  1  0
  9  8  1  0
 10 12  1  0
 10 11  1  6
 11  5  1  0
 12 19  1  0
 13 12  2  0
 15 14  1  0
 16 15  1  0
 16 17  1  6
 18 16  1  0
 18 19  1  6
 20 22  1  0
 20 18  1  0
 21 20  2  0
M  END
$$$$
