STI.pdb
     RDKit          3D

 22 21  0  0  1  0  0  0  0  0999 V2000
   11.1453  -13.3057   19.6701 O   0  0  0  0  0  0  0  0  0  0  0  0
   10.6113  -14.2377   18.7806 C   0  0  0  0  0  0  0  0  0  0  0  0
    9.1168  -14.1383   18.6967 C   0  0  2  0  0  0  0  0  0  0  0  0
    8.7861  -12.8651   18.0924 N   0  0  0  0  0  0  0  0  0  0  0  0
    8.4447  -14.2973   19.9965 C   0  0  0  0  0  0  0  0  0  0  0  0
    7.8869  -13.2913   20.5199 O   0  0  0  0  0  0  0  0  0  0  0  0
    6.6076  -17.7587   20.8750 C   0  0  0  0  0  0  0  0  0  0  0  0
    7.3969  -17.2269   22.0168 C   0  0  1  0  0  0  0  0  0  0  0  0
    8.6292  -17.8171   22.1602 O   0  0  0  0  0  0  0  0  0  0  0  0
    7.6055  -15.7083   21.9242 C   0  0  2  0  0  0  0  0  0  0  0  0
    8.3753  -15.5021   20.7107 N   0  0  0  0  0  0  0  0  0  0  0  0
    8.2264  -15.1460   23.1081 C   0  0  0  0  0  0  0  0  0  0  0  0
    9.4432  -14.8575   23.1072 O   0  0  0  0  0  0  0  0  0  0  0  0
    6.7407  -11.2726   27.5030 C   0  0  0  0  0  0  0  0  0  0  0  0
    7.7001  -12.3757   27.1173 C   0  0  0  0  0  0  0  0  0  0  0  0
    7.1128  -13.1398   25.9531 C   0  0  2  0  0  0  0  0  0  0  0  0
    5.8335  -13.8199   26.4138 C   0  0  0  0  0  0  0  0  0  0  0  0
    8.0645  -14.1709   25.4082 C   0  0  2  0  0  0  0  0  0  0  0  0
    7.4994  -14.9032   24.2906 N   0  0  0  0  0  0  0  0  0  0  0  0
    8.4733  -15.0736   26.5066 C   0  0  0  0  0  0  0  0  0  0  0  0
    9.1019  -14.5926   27.4764 O   0  0  0  0  0  0  0  0  0  0  0  0
    8.1965  -16.4258   26.5181 O   0  0  0  0  0  0  0  0  0  0  0  0
  1  2  1  0
  2  3  1  0
  3  5  1  0
  3  4  1  1
  5  6  2  0
  8  7  1  6
  8 10  1  0
  9  8  1  0
 10 12  1  0
 10 11  1  6
 11  5  1  0
 12 19  1  0
 13 12  2  0
 15 14  1  0
 16 15  1  0
 16 17  1  1
 18 16  1  0
 18 19  1  6
 20 22  1  0
 20 18  1  0
 21 20  2  0
M  END
$$$$
