STI.pdb
     RDKit          3D

 22 21  0  0  1  0  0  0  0  0999 V2000
    7.2322  -13.6706   17.6659 O   0  0  0  0  0  0  0  0  0  0  0  0
    7.9831  -12.6859   18.3073 C   0  0  0  0  0  0  0  0  0  0  0  0
    8.9546  -13.2734   19.2879 C   0  0  2  0  0  0  0  0  0  0  0  0
    9.7654  -14.2462   18.5866 N   0  0  0  0  0  0  0  0  0  0  0  0
    8.3079  -13.8744   20.4657 C   0  0  0  0  0  0  0  0  0  0  0  0
    7.5358  -13.1601   21.1662 O   0  0  0  0  0  0  0  0  0  0  0  0
    7.4634  -18.1027   22.9734 C   0  0  0  0  0  0  0  0  0  0  0  0
    7.9662  -17.3223   21.8125 C   0  0  1  0  0  0  0  0  0  0  0  0
    7.3326  -17.6190   20.6302 O   0  0  0  0  0  0  0  0  0  0  0  0
    7.8626  -15.8070   22.0397 C   0  0  2  0  0  0  0  0  0  0  0  0
    8.4869  -15.2032   20.8764 N   0  0  0  0  0  0  0  0  0  0  0  0
    8.4434  -15.3793   23.2978 C   0  0  0  0  0  0  0  0  0  0  0  0
    9.6851  -15.3471   23.4423 O   0  0  0  0  0  0  0  0  0  0  0  0
    5.7318  -11.6791   26.2644 C   0  0  0  0  0  0  0  0  0  0  0  0
    6.7769  -12.4527   25.4928 C   0  0  0  0  0  0  0  0  0  0  0  0
    7.2901  -13.5733   26.3674 C   0  0  2  0  0  0  0  0  0  0  0  0
    8.0080  -12.9672   27.5627 C   0  0  0  0  0  0  0  0  0  0  0  0
    8.2267  -14.4914   25.6286 C   0  0  2  0  0  0  0  0  0  0  0  0
    7.6489  -14.9871   24.3937 N   0  0  0  0  0  0  0  0  0  0  0  0
    8.6269  -15.5942   26.5299 C   0  0  0  0  0  0  0  0  0  0  0  0
    9.5043  -15.3738   27.3951 O   0  0  0  0  0  0  0  0  0  0  0  0
    8.0805  -16.8600   26.4663 O   0  0  0  0  0  0  0  0  0  0  0  0
  1  2  1  0
  2  3  1  0
  3  5  1  0
  3  4  1  6
  5  6  2  0
  8  7  1  1
  8 10  1  0
  9  8  1  0
 10 12  1  0
 10 11  1  6
 11  5  1  0
 12 19  1  0
 13 12  2  0
 15 14  1  0
 16 15  1  0
 16 17  1  1
 18 16  1  0
 18 19  1  6
 20 22  1  0
 20 18  1  0
 21 20  2  0
M  END
$$$$
