STI.pdb
     RDKit          3D

 22 21  0  0  1  0  0  0  0  0999 V2000
    1.7120  -19.5355   21.3360 O   0  0  0  0  0  0  0  0  0  0  0  0
    2.3120  -18.2879   21.1671 C   0  0  0  0  0  0  0  0  0  0  0  0
    3.7701  -18.4090   20.8354 C   0  0  2  0  0  0  0  0  0  0  0  0
    3.9624  -19.6451   20.1071 N   0  0  0  0  0  0  0  0  0  0  0  0
    4.6469  -18.3488   22.0161 C   0  0  0  0  0  0  0  0  0  0  0  0
    4.2093  -18.7781   23.1212 O   0  0  0  0  0  0  0  0  0  0  0  0
    7.5754  -20.1500   22.6506 C   0  0  0  0  0  0  0  0  0  0  0  0
    8.0077  -18.7355   22.7975 C   0  0  1  0  0  0  0  0  0  0  0  0
    8.6293  -18.2281   21.6823 O   0  0  0  0  0  0  0  0  0  0  0  0
    6.8410  -17.8035   23.1562 C   0  0  2  0  0  0  0  0  0  0  0  0
    5.9546  -17.8422   22.0072 N   0  0  0  0  0  0  0  0  0  0  0  0
    7.2708  -16.4651   23.5130 C   0  0  0  0  0  0  0  0  0  0  0  0
    7.4776  -15.6098   22.6245 O   0  0  0  0  0  0  0  0  0  0  0  0
    6.6979  -11.6579   26.8472 C   0  0  0  0  0  0  0  0  0  0  0  0
    7.7555  -12.5535   26.2426 C   0  0  0  0  0  0  0  0  0  0  0  0
    7.1187  -13.8760   25.8827 C   0  0  2  0  0  0  0  0  0  0  0  0
    6.5901  -14.5226   27.1532 C   0  0  0  0  0  0  0  0  0  0  0  0
    8.0855  -14.8101   25.2056 C   0  0  2  0  0  0  0  0  0  0  0  0
    7.4702  -16.0755   24.8526 N   0  0  0  0  0  0  0  0  0  0  0  0
    9.2639  -14.9968   26.0802 C   0  0  0  0  0  0  0  0  0  0  0  0
    9.4145  -16.0971   26.6577 O   0  0  0  0  0  0  0  0  0  0  0  0
   10.2110  -14.0159   26.2939 O   0  0  0  0  0  0  0  0  0  0  0  0
  1  2  1  0
  2  3  1  0
  3  5  1  0
  3  4  1  1
  5  6  2  0
  8  7  1  6
  8 10  1  0
  9  8  1  0
 10 12  1  0
 10 11  1  6
 11  5  1  0
 12 19  1  0
 13 12  2  0
 15 14  1  0
 16 15  1  0
 16 17  1  1
 18 16  1  0
 18 19  1  1
 20 22  1  0
 20 18  1  0
 21 20  2  0
M  END
$$$$
