STI.pdb
     RDKit          3D

 22 21  0  0  1  0  0  0  0  0999 V2000
   10.5052  -17.9108   15.5854 O   0  0  0  0  0  0  0  0  0  0  0  0
    9.2686  -17.2670   15.6201 C   0  0  0  0  0  0  0  0  0  0  0  0
    9.4142  -15.7742   15.5913 C   0  0  2  0  0  0  0  0  0  0  0  0
   10.3060  -15.4323   14.5035 N   0  0  0  0  0  0  0  0  0  0  0  0
    9.8899  -15.2068   16.8634 C   0  0  0  0  0  0  0  0  0  0  0  0
   11.1222  -14.9601   16.9962 O   0  0  0  0  0  0  0  0  0  0  0  0
    7.8694  -12.4849   18.9383 C   0  0  0  0  0  0  0  0  0  0  0  0
    8.3021  -13.6186   19.7967 C   0  0  1  0  0  0  0  0  0  0  0  0
    7.3148  -14.5454   20.0286 O   0  0  0  0  0  0  0  0  0  0  0  0
    9.5193  -14.3558   19.2192 C   0  0  2  0  0  0  0  0  0  0  0  0
    9.0644  -14.9142   17.9586 N   0  0  0  0  0  0  0  0  0  0  0  0
   10.0693  -15.3441   20.1269 C   0  0  0  0  0  0  0  0  0  0  0  0
    9.8141  -16.5582   19.9697 O   0  0  0  0  0  0  0  0  0  0  0  0
   15.0233  -14.5587   22.0604 C   0  0  0  0  0  0  0  0  0  0  0  0
   13.8181  -15.2639   21.4807 C   0  0  0  0  0  0  0  0  0  0  0  0
   12.8426  -15.5493   22.5992 C   0  0  2  0  0  0  0  0  0  0  0  0
   13.4223  -16.6425   23.4825 C   0  0  0  0  0  0  0  0  0  0  0  0
   11.4939  -15.9774   22.0857 C   0  0  2  0  0  0  0  0  0  0  0  0
   10.9016  -14.9870   21.2066 N   0  0  0  0  0  0  0  0  0  0  0  0
   10.6179  -16.2842   23.2376 C   0  0  0  0  0  0  0  0  0  0  0  0
    9.7654  -15.4365   23.5860 O   0  0  0  0  0  0  0  0  0  0  0  0
   10.6918  -17.4628   23.9522 O   0  0  0  0  0  0  0  0  0  0  0  0
  1  2  1  0
  2  3  1  0
  3  5  1  0
  3  4  1  6
  5  6  2  0
  8  7  1  6
  8 10  1  0
  9  8  1  0
 10 12  1  0
 10 11  1  6
 11  5  1  0
 12 19  1  0
 13 12  2  0
 15 14  1  0
 16 15  1  0
 16 17  1  1
 18 16  1  0
 18 19  1  1
 20 22  1  0
 20 18  1  0
 21 20  2  0
M  END
$$$$
