STI.pdb
     RDKit          3D

 22 21  0  0  1  0  0  0  0  0999 V2000
   11.1978  -14.8669   19.2422 O   0  0  0  0  0  0  0  0  0  0  0  0
   11.0832  -16.2520   19.3584 C   0  0  0  0  0  0  0  0  0  0  0  0
    9.6525  -16.7007   19.3104 C   0  0  2  0  0  0  0  0  0  0  0  0
    9.0508  -16.1510   18.1140 N   0  0  0  0  0  0  0  0  0  0  0  0
    8.8814  -16.3307   20.5083 C   0  0  0  0  0  0  0  0  0  0  0  0
    8.1019  -15.3379   20.4470 O   0  0  0  0  0  0  0  0  0  0  0  0
    6.8504  -18.9180   22.3564 C   0  0  0  0  0  0  0  0  0  0  0  0
    7.6658  -18.1782   23.3550 C   0  0  1  0  0  0  0  0  0  0  0  0
    8.8113  -18.8368   23.7312 O   0  0  0  0  0  0  0  0  0  0  0  0
    8.0627  -16.7789   22.8620 C   0  0  2  0  0  0  0  0  0  0  0  0
    8.9475  -17.0085   21.7341 N   0  0  0  0  0  0  0  0  0  0  0  0
    8.6489  -15.9546   23.9012 C   0  0  0  0  0  0  0  0  0  0  0  0
    9.8823  -15.7493   23.9248 O   0  0  0  0  0  0  0  0  0  0  0  0
    5.4040  -12.2411   26.1701 C   0  0  0  0  0  0  0  0  0  0  0  0
    6.6589  -12.7838   25.5244 C   0  0  0  0  0  0  0  0  0  0  0  0
    7.4202  -13.5886   26.5523 C   0  0  2  0  0  0  0  0  0  0  0  0
    8.1064  -12.6283   27.5107 C   0  0  0  0  0  0  0  0  0  0  0  0
    8.4460  -14.4935   25.9240 C   0  0  2  0  0  0  0  0  0  0  0  0
    7.8690  -15.3581   24.9121 N   0  0  0  0  0  0  0  0  0  0  0  0
    9.1192  -15.2677   26.9898 C   0  0  0  0  0  0  0  0  0  0  0  0
    9.8891  -14.6670   27.7730 O   0  0  0  0  0  0  0  0  0  0  0  0
    8.9418  -16.6250   27.1668 O   0  0  0  0  0  0  0  0  0  0  0  0
  1  2  1  0
  2  3  1  0
  3  5  1  0
  3  4  1  6
  5  6  2  0
  8  7  1  6
  8 10  1  0
  9  8  1  0
 10 12  1  0
 10 11  1  6
 11  5  1  0
 12 19  1  0
 13 12  2  0
 15 14  1  0
 16 15  1  0
 16 17  1  1
 18 16  1  0
 18 19  1  6
 20 22  1  0
 20 18  1  0
 21 20  2  0
M  END
$$$$
