STI.pdb
     RDKit          3D

 22 21  0  0  1  0  0  0  0  0999 V2000
    9.1505  -14.3391   16.9500 O   0  0  0  0  0  0  0  0  0  0  0  0
    8.2534  -14.5086   18.0042 C   0  0  0  0  0  0  0  0  0  0  0  0
    8.4122  -15.8466   18.6640 C   0  0  2  0  0  0  0  0  0  0  0  0
    7.9605  -16.8604   17.7346 N   0  0  0  0  0  0  0  0  0  0  0  0
    7.7036  -15.9542   19.9496 C   0  0  0  0  0  0  0  0  0  0  0  0
    6.4818  -15.6351   19.9992 O   0  0  0  0  0  0  0  0  0  0  0  0
    6.6018  -18.6592   21.6691 C   0  0  0  0  0  0  0  0  0  0  0  0
    7.4567  -17.9930   22.6863 C   0  0  1  0  0  0  0  0  0  0  0  0
    8.7139  -18.5362   22.7940 O   0  0  0  0  0  0  0  0  0  0  0  0
    7.6107  -16.4878   22.4230 C   0  0  2  0  0  0  0  0  0  0  0  0
    8.2923  -16.3918   21.1448 N   0  0  0  0  0  0  0  0  0  0  0  0
    8.2899  -15.7889   23.4970 C   0  0  0  0  0  0  0  0  0  0  0  0
    9.5157  -15.5531   23.4218 O   0  0  0  0  0  0  0  0  0  0  0  0
    5.9193  -11.7135   26.0871 C   0  0  0  0  0  0  0  0  0  0  0  0
    6.9393  -12.5928   25.3997 C   0  0  0  0  0  0  0  0  0  0  0  0
    7.4284  -13.6264   26.3879 C   0  0  2  0  0  0  0  0  0  0  0  0
    8.2167  -12.9203   27.4796 C   0  0  0  0  0  0  0  0  0  0  0  0
    8.2928  -14.6737   25.7384 C   0  0  2  0  0  0  0  0  0  0  0  0
    7.6111  -15.3514   24.6519 N   0  0  0  0  0  0  0  0  0  0  0  0
    8.7556  -15.6230   26.7743 C   0  0  0  0  0  0  0  0  0  0  0  0
    8.1349  -16.7000   26.9218 O   0  0  0  0  0  0  0  0  0  0  0  0
    9.8417  -15.3820   27.5911 O   0  0  0  0  0  0  0  0  0  0  0  0
  1  2  1  0
  2  3  1  0
  3  5  1  0
  3  4  1  6
  5  6  2  0
  8  7  1  6
  8 10  1  0
  9  8  1  0
 10 12  1  0
 10 11  1  6
 11  5  1  0
 12 19  1  0
 13 12  2  0
 15 14  1  0
 16 15  1  0
 16 17  1  1
 18 16  1  0
 18 19  1  6
 20 22  1  0
 20 18  1  0
 21 20  2  0
M  END
$$$$
