STI.pdb
     RDKit          3D

 22 21  0  0  1  0  0  0  0  0999 V2000
   11.5456  -12.9904   18.6454 O   0  0  0  0  0  0  0  0  0  0  0  0
   11.0316  -14.2218   19.0511 C   0  0  0  0  0  0  0  0  0  0  0  0
    9.5873  -14.3758   18.6761 C   0  0  2  0  0  0  0  0  0  0  0  0
    9.2050  -13.2251   17.8852 N   0  0  0  0  0  0  0  0  0  0  0  0
    8.6949  -14.5411   19.8349 C   0  0  0  0  0  0  0  0  0  0  0  0
    7.7498  -13.7180   19.9970 O   0  0  0  0  0  0  0  0  0  0  0  0
    7.0235  -17.7878   20.8189 C   0  0  0  0  0  0  0  0  0  0  0  0
    7.6991  -17.2504   22.0290 C   0  0  1  0  0  0  0  0  0  0  0  0
    8.8988  -17.8585   22.3089 O   0  0  0  0  0  0  0  0  0  0  0  0
    7.9438  -15.7371   21.9364 C   0  0  2  0  0  0  0  0  0  0  0  0
    8.8164  -15.5611   20.7895 N   0  0  0  0  0  0  0  0  0  0  0  0
    8.4742  -15.1706   23.1616 C   0  0  0  0  0  0  0  0  0  0  0  0
    9.6639  -14.7894   23.2186 O   0  0  0  0  0  0  0  0  0  0  0  0
    6.7029  -11.3025   27.3598 C   0  0  0  0  0  0  0  0  0  0  0  0
    7.6667  -12.4381   27.0998 C   0  0  0  0  0  0  0  0  0  0  0  0
    7.1731  -13.2257   25.9081 C   0  0  2  0  0  0  0  0  0  0  0  0
    5.8432  -13.8689   26.2676 C   0  0  0  0  0  0  0  0  0  0  0  0
    8.1494  -14.2895   25.4823 C   0  0  2  0  0  0  0  0  0  0  0  0
    7.6867  -15.0260   24.3213 N   0  0  0  0  0  0  0  0  0  0  0  0
    8.4151  -15.1835   26.6306 C   0  0  0  0  0  0  0  0  0  0  0  0
    8.9633  -14.7053   27.6493 O   0  0  0  0  0  0  0  0  0  0  0  0
    8.0883  -16.5244   26.6375 O   0  0  0  0  0  0  0  0  0  0  0  0
  1  2  1  0
  2  3  1  0
  3  5  1  0
  3  4  1  1
  5  6  2  0
  8  7  1  6
  8 10  1  0
  9  8  1  0
 10 12  1  0
 10 11  1  6
 11  5  1  0
 12 19  1  0
 13 12  2  0
 15 14  1  0
 16 15  1  0
 16 17  1  1
 18 16  1  0
 18 19  1  6
 20 22  1  0
 20 18  1  0
 21 20  2  0
M  END
$$$$
