GIT.pdb
     RDKit          3D

 20 19  0  0  1  0  0  0  0  0999 V2000
    7.4023  -13.8598   19.3318 N   0  0  0  0  0  0  0  0  0  0  0  0
    6.7110  -14.3325   20.5091 C   0  0  0  0  0  0  0  0  0  0  0  0
    7.5763  -14.1627   21.7216 C   0  0  0  0  0  0  0  0  0  0  0  0
    8.8240  -14.2720   21.5954 O   0  0  0  0  0  0  0  0  0  0  0  0
    7.2776  -11.8882   27.5276 C   0  0  0  0  0  0  0  0  0  0  0  0
    7.9412  -12.7461   26.4909 C   0  0  0  0  0  0  0  0  0  0  0  0
    7.0921  -12.9528   25.2562 C   0  0  2  0  0  0  0  0  0  0  0  0
    5.8527  -13.7341   25.6815 C   0  0  0  0  0  0  0  0  0  0  0  0
    7.7886  -13.7402   24.1964 C   0  0  2  0  0  0  0  0  0  0  0  0
    7.0116  -13.8840   22.9927 N   0  0  0  0  0  0  0  0  0  0  0  0
    8.0948  -15.0950   24.7892 C   0  0  0  0  0  0  0  0  0  0  0  0
    7.1804  -15.8999   25.0223 O   0  0  0  0  0  0  0  0  0  0  0  0
   10.0526  -17.7355   23.1294 C   0  0  0  0  0  0  0  0  0  0  0  0
   10.6635  -17.5104   24.4991 C   0  0  1  0  0  0  0  0  0  0  0  0
   11.8255  -16.7911   24.3496 O   0  0  0  0  0  0  0  0  0  0  0  0
    9.6843  -16.8474   25.4449 C   0  0  2  0  0  0  0  0  0  0  0  0
    9.4277  -15.4756   25.0911 N   0  0  0  0  0  0  0  0  0  0  0  0
   10.3114  -16.8780   26.7883 C   0  0  0  0  0  0  0  0  0  0  0  0
   10.7533  -15.8079   27.2683 O   0  0  0  0  0  0  0  0  0  0  0  0
   10.4059  -18.0734   27.5002 O   0  0  0  0  0  0  0  0  0  0  0  0
  2  1  1  0
  3 10  1  0
  3  2  1  0
  4  3  2  0
  5  6  1  0
  7  6  1  0
  7  8  1  1
  9  7  1  0
  9 10  1  6
 11  9  1  0
 11 17  1  0
 12 11  2  0
 14 13  1  6
 14 15  1  0
 16 17  1  6
 16 14  1  0
 18 16  1  0
 19 18  2  0
 20 18  1  0
M  END
$$$$
