GIT.pdb
     RDKit          3D

 20 19  0  0  1  0  0  0  0  0999 V2000
    4.4963  -18.4588   22.9983 N   0  0  0  0  0  0  0  0  0  0  0  0
    4.8177  -17.8775   24.2814 C   0  0  0  0  0  0  0  0  0  0  0  0
    5.9005  -16.8518   24.1293 C   0  0  0  0  0  0  0  0  0  0  0  0
    6.5303  -16.7927   23.0410 O   0  0  0  0  0  0  0  0  0  0  0  0
    5.9615  -12.1651   27.1968 C   0  0  0  0  0  0  0  0  0  0  0  0
    6.1816  -13.0767   26.0257 C   0  0  0  0  0  0  0  0  0  0  0  0
    7.3283  -14.0420   26.2294 C   0  0  2  0  0  0  0  0  0  0  0  0
    8.6217  -13.2376   26.1417 C   0  0  0  0  0  0  0  0  0  0  0  0
    7.3817  -15.1101   25.1879 C   0  0  2  0  0  0  0  0  0  0  0  0
    6.2187  -15.9589   25.1848 N   0  0  0  0  0  0  0  0  0  0  0  0
    8.6250  -15.9232   25.4597 C   0  0  0  0  0  0  0  0  0  0  0  0
    8.7499  -16.5421   26.5273 O   0  0  0  0  0  0  0  0  0  0  0  0
   10.3766  -17.9800   22.3305 C   0  0  0  0  0  0  0  0  0  0  0  0
   11.3363  -17.3634   23.3299 C   0  0  1  0  0  0  0  0  0  0  0  0
   11.9188  -16.2582   22.7559 O   0  0  0  0  0  0  0  0  0  0  0  0
   10.6490  -17.0461   24.6413 C   0  0  2  0  0  0  0  0  0  0  0  0
    9.6723  -15.9971   24.5056 N   0  0  0  0  0  0  0  0  0  0  0  0
   11.7088  -16.5857   25.5706 C   0  0  0  0  0  0  0  0  0  0  0  0
   11.6882  -15.3948   25.9609 O   0  0  0  0  0  0  0  0  0  0  0  0
   12.7060  -17.4611   25.9994 O   0  0  0  0  0  0  0  0  0  0  0  0
  2  1  1  0
  3 10  1  0
  3  2  1  0
  4  3  2  0
  5  6  1  0
  7  6  1  0
  7  8  1  6
  9  7  1  0
  9 10  1  1
 11  9  1  0
 11 17  1  0
 12 11  2  0
 14 13  1  6
 14 15  1  0
 16 17  1  6
 16 14  1  0
 18 16  1  0
 19 18  2  0
 20 18  1  0
M  END
$$$$
