GIT.pdb
     RDKit          3D

 20 19  0  0  1  0  0  0  0  0999 V2000
    9.0631  -18.0372   16.0543 N   0  0  0  0  0  0  0  0  0  0  0  0
    8.1632  -17.7351   17.1435 C   0  0  0  0  0  0  0  0  0  0  0  0
    8.8795  -16.9596   18.2080 C   0  0  0  0  0  0  0  0  0  0  0  0
   10.1374  -16.9181   18.1843 O   0  0  0  0  0  0  0  0  0  0  0  0
    6.7855  -12.2618   20.2298 C   0  0  0  0  0  0  0  0  0  0  0  0
    7.7271  -13.3329   19.7640 C   0  0  0  0  0  0  0  0  0  0  0  0
    7.9597  -14.4125   20.7976 C   0  0  2  0  0  0  0  0  0  0  0  0
    8.7007  -13.7712   21.9669 C   0  0  0  0  0  0  0  0  0  0  0  0
    8.7974  -15.5371   20.2859 C   0  0  2  0  0  0  0  0  0  0  0  0
    8.1645  -16.2811   19.2282 N   0  0  0  0  0  0  0  0  0  0  0  0
    9.0848  -16.4383   21.4632 C   0  0  0  0  0  0  0  0  0  0  0  0
    8.1576  -17.0033   22.0629 O   0  0  0  0  0  0  0  0  0  0  0  0
   10.9589  -19.6801   21.5700 C   0  0  0  0  0  0  0  0  0  0  0  0
   11.5987  -18.7095   22.5440 C   0  0  1  0  0  0  0  0  0  0  0  0
   12.7500  -18.2143   21.9789 O   0  0  0  0  0  0  0  0  0  0  0  0
   10.6351  -17.6174   22.9579 C   0  0  2  0  0  0  0  0  0  0  0  0
   10.4141  -16.6578   21.9075 N   0  0  0  0  0  0  0  0  0  0  0  0
   11.2586  -16.9207   24.1088 C   0  0  0  0  0  0  0  0  0  0  0  0
   11.7147  -15.7662   23.9354 O   0  0  0  0  0  0  0  0  0  0  0  0
   11.3346  -17.5392   25.3563 O   0  0  0  0  0  0  0  0  0  0  0  0
  2  1  1  0
  3 10  1  0
  3  2  1  0
  4  3  2  0
  5  6  1  0
  7  6  1  0
  7  8  1  1
  9  7  1  0
  9 10  1  6
 11  9  1  0
 11 17  1  0
 12 11  2  0
 14 13  1  6
 14 15  1  0
 16 17  1  6
 16 14  1  0
 18 16  1  0
 19 18  2  0
 20 18  1  0
M  END
$$$$
