GIT.pdb
     RDKit          3D

 20 19  0  0  1  0  0  0  0  0999 V2000
    4.4033  -18.7366   23.3631 N   0  0  0  0  0  0  0  0  0  0  0  0
    4.8757  -18.1309   24.5868 C   0  0  0  0  0  0  0  0  0  0  0  0
    5.8501  -17.0338   24.2797 C   0  0  0  0  0  0  0  0  0  0  0  0
    6.2687  -16.9083   23.0992 O   0  0  0  0  0  0  0  0  0  0  0  0
    5.9655  -12.2441   27.1332 C   0  0  0  0  0  0  0  0  0  0  0  0
    6.1208  -13.1947   25.9828 C   0  0  0  0  0  0  0  0  0  0  0  0
    7.3383  -14.0840   26.1050 C   0  0  2  0  0  0  0  0  0  0  0  0
    8.5659  -13.2110   25.8630 C   0  0  0  0  0  0  0  0  0  0  0  0
    7.3558  -15.1876   25.1000 C   0  0  2  0  0  0  0  0  0  0  0  0
    6.2997  -16.1473   25.2918 N   0  0  0  0  0  0  0  0  0  0  0  0
    8.7035  -15.8598   25.2131 C   0  0  0  0  0  0  0  0  0  0  0  0
    9.0108  -16.4821   26.2411 O   0  0  0  0  0  0  0  0  0  0  0  0
   11.7956  -15.5628   22.2245 C   0  0  0  0  0  0  0  0  0  0  0  0
   11.2650  -16.9067   22.6854 C   0  0  1  0  0  0  0  0  0  0  0  0
   12.2823  -17.8288   22.6149 O   0  0  0  0  0  0  0  0  0  0  0  0
   10.6503  -16.8203   24.0665 C   0  0  2  0  0  0  0  0  0  0  0  0
    9.6431  -15.7951   24.1522 N   0  0  0  0  0  0  0  0  0  0  0  0
   11.7530  -16.4763   24.9964 C   0  0  0  0  0  0  0  0  0  0  0  0
   11.7586  -15.3403   25.5258 O   0  0  0  0  0  0  0  0  0  0  0  0
   12.7609  -17.3992   25.2742 O   0  0  0  0  0  0  0  0  0  0  0  0
  2  1  1  0
  3 10  1  0
  3  2  1  0
  4  3  2  0
  5  6  1  0
  7  6  1  0
  7  8  1  6
  9  7  1  0
  9 10  1  1
 11  9  1  0
 11 17  1  0
 12 11  2  0
 14 13  1  1
 14 15  1  0
 16 17  1  6
 16 14  1  0
 18 16  1  0
 19 18  2  0
 20 18  1  0
M  END
$$$$
