GIT.pdb
     RDKit          3D

 20 19  0  0  1  0  0  0  0  0999 V2000
    7.2679  -14.6938   19.5579 N   0  0  0  0  0  0  0  0  0  0  0  0
    6.5901  -14.9377   20.8103 C   0  0  0  0  0  0  0  0  0  0  0  0
    7.5079  -14.6521   21.9608 C   0  0  0  0  0  0  0  0  0  0  0  0
    8.7453  -14.8233   21.8054 O   0  0  0  0  0  0  0  0  0  0  0  0
    7.4435  -11.9117   27.5904 C   0  0  0  0  0  0  0  0  0  0  0  0
    8.0747  -12.8186   26.5754 C   0  0  0  0  0  0  0  0  0  0  0  0
    7.1868  -13.0842   25.3799 C   0  0  2  0  0  0  0  0  0  0  0  0
    5.9316  -13.7841   25.8916 C   0  0  0  0  0  0  0  0  0  0  0  0
    7.8265  -13.9740   24.3664 C   0  0  2  0  0  0  0  0  0  0  0  0
    7.0036  -14.1969   23.2061 N   0  0  0  0  0  0  0  0  0  0  0  0
    8.1231  -15.2826   25.0595 C   0  0  0  0  0  0  0  0  0  0  0  0
    7.1994  -16.0393   25.3949 O   0  0  0  0  0  0  0  0  0  0  0  0
    9.9952  -18.0645   23.4898 C   0  0  0  0  0  0  0  0  0  0  0  0
   10.6487  -17.7548   24.8229 C   0  0  1  0  0  0  0  0  0  0  0  0
   11.8057  -17.0490   24.5920 O   0  0  0  0  0  0  0  0  0  0  0  0
    9.6998  -17.0313   25.7550 C   0  0  2  0  0  0  0  0  0  0  0  0
    9.4574  -15.6739   25.3410 N   0  0  0  0  0  0  0  0  0  0  0  0
   10.3538  -17.0083   27.0856 C   0  0  0  0  0  0  0  0  0  0  0  0
   10.7631  -15.9117   27.5337 O   0  0  0  0  0  0  0  0  0  0  0  0
   10.5089  -18.1833   27.8205 O   0  0  0  0  0  0  0  0  0  0  0  0
  2  1  1  0
  3 10  1  0
  3  2  1  0
  4  3  2  0
  5  6  1  0
  7  6  1  0
  7  8  1  1
  9  7  1  0
  9 10  1  6
 11  9  1  0
 11 17  1  0
 12 11  2  0
 14 13  1  6
 14 15  1  0
 16 17  1  6
 16 14  1  0
 18 16  1  0
 19 18  2  0
 20 18  1  0
M  END
$$$$
