GIT.pdb
     RDKit          3D

 20 19  0  0  1  0  0  0  0  0999 V2000
    7.2605  -14.4684   19.9938 N   0  0  0  0  0  0  0  0  0  0  0  0
    6.5078  -14.4357   21.2266 C   0  0  0  0  0  0  0  0  0  0  0  0
    7.4371  -14.3405   22.3991 C   0  0  0  0  0  0  0  0  0  0  0  0
    8.6762  -14.4374   22.1994 O   0  0  0  0  0  0  0  0  0  0  0  0
    5.7672  -11.4768   26.8490 C   0  0  0  0  0  0  0  0  0  0  0  0
    6.6250  -12.0454   25.7573 C   0  0  0  0  0  0  0  0  0  0  0  0
    7.1172  -13.4446   26.0540 C   0  0  2  0  0  0  0  0  0  0  0  0
    8.1467  -13.3370   27.1747 C   0  0  0  0  0  0  0  0  0  0  0  0
    7.7813  -14.0884   24.8824 C   0  0  2  0  0  0  0  0  0  0  0  0
    6.9417  -14.1450   23.7140 N   0  0  0  0  0  0  0  0  0  0  0  0
    8.1750  -15.4810   25.3144 C   0  0  0  0  0  0  0  0  0  0  0  0
    7.3132  -16.2878   25.6949 O   0  0  0  0  0  0  0  0  0  0  0  0
   10.2120  -17.9541   23.1577 C   0  0  0  0  0  0  0  0  0  0  0  0
   10.8169  -17.8454   24.5442 C   0  0  1  0  0  0  0  0  0  0  0  0
   11.9699  -17.1009   24.4638 O   0  0  0  0  0  0  0  0  0  0  0  0
    9.8271  -17.2826   25.5424 C   0  0  2  0  0  0  0  0  0  0  0  0
    9.5316  -15.8954   25.2950 N   0  0  0  0  0  0  0  0  0  0  0  0
   10.4642  -17.3978   26.8765 C   0  0  0  0  0  0  0  0  0  0  0  0
   10.6208  -18.5394   27.3696 O   0  0  0  0  0  0  0  0  0  0  0  0
   10.8792  -16.2586   27.5655 O   0  0  0  0  0  0  0  0  0  0  0  0
  2  1  1  0
  3 10  1  0
  3  2  1  0
  4  3  2  0
  5  6  1  0
  7  6  1  0
  7  8  1  1
  9  7  1  0
  9 10  1  6
 11  9  1  0
 11 17  1  0
 12 11  2  0
 14 13  1  6
 14 15  1  0
 16 17  1  6
 16 14  1  0
 18 16  1  0
 19 18  2  0
 20 18  1  0
M  END
$$$$
