GIT.pdb
     RDKit          3D

 20 19  0  0  1  0  0  0  0  0999 V2000
    4.4761  -18.7288   23.2531 N   0  0  0  0  0  0  0  0  0  0  0  0
    4.8555  -18.0861   24.4902 C   0  0  0  0  0  0  0  0  0  0  0  0
    5.9193  -17.0607   24.2367 C   0  0  0  0  0  0  0  0  0  0  0  0
    6.5035  -17.0569   23.1217 O   0  0  0  0  0  0  0  0  0  0  0  0
    5.9492  -12.1124   26.8582 C   0  0  0  0  0  0  0  0  0  0  0  0
    6.1460  -13.1488   25.7913 C   0  0  0  0  0  0  0  0  0  0  0  0
    7.3256  -14.0583   26.0547 C   0  0  2  0  0  0  0  0  0  0  0  0
    8.5915  -13.2276   25.8686 C   0  0  0  0  0  0  0  0  0  0  0  0
    7.3923  -15.2127   25.1106 C   0  0  2  0  0  0  0  0  0  0  0  0
    6.2700  -16.1071   25.2268 N   0  0  0  0  0  0  0  0  0  0  0  0
    8.6801  -15.9443   25.4057 C   0  0  0  0  0  0  0  0  0  0  0  0
    8.8634  -16.4716   26.5134 O   0  0  0  0  0  0  0  0  0  0  0  0
    9.9659  -18.4606   22.6005 C   0  0  0  0  0  0  0  0  0  0  0  0
   11.0963  -17.6748   23.2367 C   0  0  1  0  0  0  0  0  0  0  0  0
   11.5235  -16.7191   22.3456 O   0  0  0  0  0  0  0  0  0  0  0  0
   10.6860  -17.0872   24.5706 C   0  0  2  0  0  0  0  0  0  0  0  0
    9.7036  -16.0444   24.4285 N   0  0  0  0  0  0  0  0  0  0  0  0
   11.9112  -16.5021   25.1668 C   0  0  0  0  0  0  0  0  0  0  0  0
   12.8235  -17.2752   25.5420 O   0  0  0  0  0  0  0  0  0  0  0  0
   12.0427  -15.1208   25.3058 O   0  0  0  0  0  0  0  0  0  0  0  0
  2  1  1  0
  3 10  1  0
  3  2  1  0
  4  3  2  0
  5  6  1  0
  7  6  1  0
  7  8  1  6
  9  7  1  0
  9 10  1  1
 11  9  1  0
 11 17  1  0
 12 11  2  0
 14 13  1  6
 14 15  1  0
 16 17  1  6
 16 14  1  0
 18 16  1  0
 19 18  2  0
 20 18  1  0
M  END
$$$$
