GIT.pdb
     RDKit          3D

 20 19  0  0  1  0  0  0  0  0999 V2000
    4.4450  -18.8312   23.5927 N   0  0  0  0  0  0  0  0  0  0  0  0
    4.9992  -18.2463   24.7920 C   0  0  0  0  0  0  0  0  0  0  0  0
    5.9278  -17.1233   24.4398 C   0  0  0  0  0  0  0  0  0  0  0  0
    6.4025  -17.0725   23.2750 O   0  0  0  0  0  0  0  0  0  0  0  0
    5.8012  -12.1536   27.0053 C   0  0  0  0  0  0  0  0  0  0  0  0
    6.0617  -13.1208   25.8883 C   0  0  0  0  0  0  0  0  0  0  0  0
    7.2548  -14.0156   26.1411 C   0  0  2  0  0  0  0  0  0  0  0  0
    8.5086  -13.1694   25.9430 C   0  0  0  0  0  0  0  0  0  0  0  0
    7.3270  -15.1695   25.1968 C   0  0  2  0  0  0  0  0  0  0  0  0
    6.2727  -16.1303   25.3924 N   0  0  0  0  0  0  0  0  0  0  0  0
    8.6748  -15.8189   25.4033 C   0  0  0  0  0  0  0  0  0  0  0  0
    8.9245  -16.4270   26.4551 O   0  0  0  0  0  0  0  0  0  0  0  0
   12.5246  -17.8741   23.0748 C   0  0  0  0  0  0  0  0  0  0  0  0
   11.4493  -16.8046   23.0733 C   0  0  1  0  0  0  0  0  0  0  0  0
   10.6187  -17.0176   21.9987 O   0  0  0  0  0  0  0  0  0  0  0  0
   10.7018  -16.7628   24.3894 C   0  0  2  0  0  0  0  0  0  0  0  0
    9.6799  -15.7487   24.4047 N   0  0  0  0  0  0  0  0  0  0  0  0
   11.7045  -16.4368   25.4321 C   0  0  0  0  0  0  0  0  0  0  0  0
   11.9847  -15.2329   25.6390 O   0  0  0  0  0  0  0  0  0  0  0  0
   12.3211  -17.4503   26.1651 O   0  0  0  0  0  0  0  0  0  0  0  0
  2  1  1  0
  3 10  1  0
  3  2  1  0
  4  3  2  0
  5  6  1  0
  7  6  1  0
  7  8  1  6
  9  7  1  0
  9 10  1  1
 11  9  1  0
 11 17  1  0
 12 11  2  0
 14 13  1  1
 14 15  1  0
 16 17  1  6
 16 14  1  0
 18 16  1  0
 19 18  2  0
 20 18  1  0
M  END
$$$$
