RFI.pdb
     RDKit          3D

 31 31  0  0  1  0  0  0  0  0999 V2000
    9.4312  -13.3207   18.0382 N   0  0  0  0  0  0  0  0  0  0  0  0
    8.7398  -13.7225   16.8613 C   0  0  0  0  0  0  0  0  0  0  0  0
    7.8301  -12.9654   16.3308 N   0  0  0  0  0  0  0  0  0  0  0  0
    9.0979  -14.9851   16.3071 N   0  0  0  0  0  0  0  0  0  0  0  0
   10.0943  -15.8157   16.9828 C   0  0  0  0  0  0  0  0  0  0  0  0
   10.0341  -15.6276   18.4727 C   0  0  0  0  0  0  0  0  0  0  0  0
   11.0038  -16.4555   19.2253 C   0  0  0  0  0  0  0  0  0  0  0  0
   10.4115  -17.3166   20.2827 C   0  0  2  0  0  0  0  0  0  0  0  0
    9.2669  -18.0835   19.9313 N   0  0  0  0  0  0  0  0  0  0  0  0
   10.1712  -16.4775   21.5057 C   0  0  0  0  0  0  0  0  0  0  0  0
   11.0544  -15.6668   21.8895 O   0  0  0  0  0  0  0  0  0  0  0  0
    7.3237  -13.2598   15.4695 N   0  0  0  0  0  0  0  0  0  0  0  0
    8.9894  -16.5359   22.2785 C   0  0  1  0  0  0  0  0  0  0  0  0
    8.7555  -15.6670   23.4399 C   0  0  0  0  0  0  0  0  0  0  0  0
    7.3698  -15.1477   23.4731 C   0  0  0  0  0  0  0  0  0  0  0  0
    7.0352  -14.2041   24.5354 C   0  0  0  0  0  0  0  0  0  0  0  0
    7.4025  -12.8673   24.4782 C   0  0  0  0  0  0  0  0  0  0  0  0
    7.0822  -12.0064   25.5082 C   0  0  0  0  0  0  0  0  0  0  0  0
    6.3919  -12.4455   26.6188 C   0  0  0  0  0  0  0  0  0  0  0  0
    6.0162  -13.7702   26.6979 C   0  0  0  0  0  0  0  0  0  0  0  0
    6.3483  -14.6157   25.6524 C   0  0  0  0  0  0  0  0  0  0  0  0
    9.2609  -16.3119   24.6625 O   0  0  0  0  0  0  0  0  0  0  0  0
    9.4681  -17.5746   24.6384 C   0  0  0  0  0  0  0  0  0  0  0  0
   10.5458  -13.0971   29.0255 C   0  0  0  0  0  0  0  0  0  0  0  0
   10.6150  -13.9944   27.8137 C   0  0  2  0  0  0  0  0  0  0  0  0
   10.3024  -15.4140   28.2018 C   0  0  0  0  0  0  0  0  0  0  0  0
   11.4356  -15.8960   29.0964 C   0  0  1  0  0  0  0  0  0  0  0  0
   10.2197  -16.3268   26.9908 N   0  0  0  0  0  0  0  0  0  0  0  0
    9.5551  -15.6718   25.8894 C   0  0  0  0  0  0  0  0  0  0  0  0
    9.7425  -17.6653   27.3254 O   0  0  0  0  0  0  0  0  0  0  0  0
    8.5351  -17.9543   27.1843 O   0  0  0  0  0  0  0  0  0  0  0  0
  1  2  1  0
  2  3  2  0
  4  2  1  0
  4  5  1  0
  6  5  1  0
  7  6  1  0
  8  9  1  6
  8  7  1  0
 10 11  2  0
 10  8  1  0
 12 10  1  0
 13 21  1  0
 13 12  1  0
 13 14  1  1
 15 14  1  0
 16 15  2  0
 17 16  1  0
 18 19  1  0
 18 17  2  0
 19 20  2  0
 20 15  1  0
 21 28  1  0
 22 21  2  0
 23 24  1  0
 24 25  1  0
 25 26  1  1
 25 27  1  0
 27 29  1  0
 27 28  1  6
 29 30  2  0
 29 31  1  0
M  END
$$$$
