RFI.pdb
     RDKit          3D

 31 31  0  0  1  0  0  0  0  0999 V2000
   11.9364  -19.0151   15.5937 N   0  0  0  0  0  0  0  0  0  0  0  0
   10.7373  -19.7810   15.5965 C   0  0  0  0  0  0  0  0  0  0  0  0
   10.0129  -19.8900   14.5262 N   0  0  0  0  0  0  0  0  0  0  0  0
   10.3827  -20.4119   16.8236 N   0  0  0  0  0  0  0  0  0  0  0  0
    9.8520  -19.6077   17.9240 C   0  0  0  0  0  0  0  0  0  0  0  0
   10.6170  -18.3225   18.0720 C   0  0  0  0  0  0  0  0  0  0  0  0
   10.1166  -17.4433   19.1530 C   0  0  0  0  0  0  0  0  0  0  0  0
   10.1908  -18.0206   20.5211 C   0  0  2  0  0  0  0  0  0  0  0  0
    9.4494  -19.2088   20.7666 N   0  0  0  0  0  0  0  0  0  0  0  0
    9.8669  -16.9413   21.5151 C   0  0  0  0  0  0  0  0  0  0  0  0
   10.4246  -15.8170   21.4191 O   0  0  0  0  0  0  0  0  0  0  0  0
    9.1056  -20.4013   14.5433 N   0  0  0  0  0  0  0  0  0  0  0  0
    8.9541  -17.1041   22.5817 C   0  0  1  0  0  0  0  0  0  0  0  0
    8.7434  -16.0774   23.6112 C   0  0  0  0  0  0  0  0  0  0  0  0
    7.3482  -15.5832   23.6235 C   0  0  0  0  0  0  0  0  0  0  0  0
    7.0539  -14.4339   24.4739 C   0  0  0  0  0  0  0  0  0  0  0  0
    6.3603  -14.5582   25.6692 C   0  0  0  0  0  0  0  0  0  0  0  0
    6.0865  -13.4472   26.4409 C   0  0  0  0  0  0  0  0  0  0  0  0
    6.4912  -12.1877   26.0503 C   0  0  0  0  0  0  0  0  0  0  0  0
    7.1821  -12.0395   24.8659 C   0  0  0  0  0  0  0  0  0  0  0  0
    7.4457  -13.1684   24.1079 C   0  0  0  0  0  0  0  0  0  0  0  0
    9.3089  -16.5256   24.8940 O   0  0  0  0  0  0  0  0  0  0  0  0
    9.1419  -17.7479   25.2340 C   0  0  0  0  0  0  0  0  0  0  0  0
    9.4442  -14.1212   29.9774 C   0  0  0  0  0  0  0  0  0  0  0  0
    9.3888  -15.2036   28.9267 C   0  0  2  0  0  0  0  0  0  0  0  0
   10.6563  -15.2040   28.1161 C   0  0  0  0  0  0  0  0  0  0  0  0
   10.7759  -13.8325   27.4669 C   0  0  1  0  0  0  0  0  0  0  0  0
   10.6280  -16.2568   27.0219 N   0  0  0  0  0  0  0  0  0  0  0  0
   10.0394  -15.7346   25.8117 C   0  0  0  0  0  0  0  0  0  0  0  0
   10.1094  -17.5397   27.4874 O   0  0  0  0  0  0  0  0  0  0  0  0
    8.9788  -17.9284   27.1241 O   0  0  0  0  0  0  0  0  0  0  0  0
  1  2  1  0
  2  3  2  0
  4  2  1  0
  4  5  1  0
  6  5  1  0
  7  6  1  0
  8  9  1  6
  8  7  1  0
 10 11  2  0
 10  8  1  0
 12 10  1  0
 13 21  1  0
 13 12  1  0
 13 14  1  6
 15 14  1  0
 16 15  2  0
 17 16  1  0
 18 19  1  0
 18 17  2  0
 19 20  2  0
 20 15  1  0
 21 28  1  0
 22 21  2  0
 23 24  1  0
 24 25  1  0
 25 26  1  1
 25 27  1  0
 27 29  1  0
 27 28  1  6
 29 30  2  0
 29 31  1  0
M  END
$$$$
