RFI.pdb
     RDKit          3D

 31 31  0  0  1  0  0  0  0  0999 V2000
    8.1078  -15.6316   14.8856 N   0  0  0  0  0  0  0  0  0  0  0  0
    7.9045  -14.2291   14.7584 C   0  0  0  0  0  0  0  0  0  0  0  0
    7.7052  -13.6865   13.5973 N   0  0  0  0  0  0  0  0  0  0  0  0
    7.9323  -13.4659   15.9609 N   0  0  0  0  0  0  0  0  0  0  0  0
    7.9064  -14.1503   17.2533 C   0  0  0  0  0  0  0  0  0  0  0  0
    9.1727  -14.9277   17.4787 C   0  0  0  0  0  0  0  0  0  0  0  0
    9.7996  -14.6907   18.7988 C   0  0  0  0  0  0  0  0  0  0  0  0
    9.7873  -15.8562   19.7218 C   0  0  2  0  0  0  0  0  0  0  0  0
    8.7733  -16.8329   19.5223 N   0  0  0  0  0  0  0  0  0  0  0  0
    9.8074  -15.3484   21.1358 C   0  0  0  0  0  0  0  0  0  0  0  0
   10.6655  -14.4942   21.4797 O   0  0  0  0  0  0  0  0  0  0  0  0
    7.6583  -12.6515   13.4908 N   0  0  0  0  0  0  0  0  0  0  0  0
    8.9050  -15.7747   22.1363 C   0  0  1  0  0  0  0  0  0  0  0  0
    8.6699  -15.0142   23.3711 C   0  0  0  0  0  0  0  0  0  0  0  0
    7.2689  -14.5486   23.4769 C   0  0  0  0  0  0  0  0  0  0  0  0
    6.9130  -13.7627   24.6545 C   0  0  0  0  0  0  0  0  0  0  0  0
    6.1675  -14.2925   25.6979 C   0  0  0  0  0  0  0  0  0  0  0  0
    5.8366  -13.5156   26.7895 C   0  0  0  0  0  0  0  0  0  0  0  0
    6.2340  -12.1975   26.8761 C   0  0  0  0  0  0  0  0  0  0  0  0
    6.9759  -11.6491   25.8510 C   0  0  0  0  0  0  0  0  0  0  0  0
    7.2963  -12.4476   24.7655 C   0  0  0  0  0  0  0  0  0  0  0  0
    9.2257  -15.7402   24.5244 O   0  0  0  0  0  0  0  0  0  0  0  0
    9.1611  -17.0183   24.5223 C   0  0  0  0  0  0  0  0  0  0  0  0
   10.7881  -15.0896   30.4679 C   0  0  0  0  0  0  0  0  0  0  0  0
   11.0937  -15.7919   29.1672 C   0  0  2  0  0  0  0  0  0  0  0  0
   10.4778  -15.0427   28.0169 C   0  0  0  0  0  0  0  0  0  0  0  0
    9.1142  -14.5493   28.4795 C   0  0  2  0  0  0  0  0  0  0  0  0
   10.2841  -15.9320   26.8011 N   0  0  0  0  0  0  0  0  0  0  0  0
    9.8435  -15.1655   25.6600 C   0  0  0  0  0  0  0  0  0  0  0  0
    9.5168  -17.1374   27.1010 O   0  0  0  0  0  0  0  0  0  0  0  0
    8.2844  -17.1635   26.8969 O   0  0  0  0  0  0  0  0  0  0  0  0
  1  2  1  0
  2  3  2  0
  4  2  1  0
  4  5  1  0
  6  5  1  0
  7  6  1  0
  8  9  1  1
  8  7  1  0
 10 11  2  0
 10  8  1  0
 12 10  1  0
 13 21  1  0
 13 12  1  0
 13 14  1  1
 15 14  1  0
 16 15  2  0
 17 16  1  0
 18 19  1  0
 18 17  2  0
 19 20  2  0
 20 15  1  0
 21 28  1  0
 22 21  2  0
 23 24  1  0
 24 25  1  0
 25 26  1  6
 25 27  1  0
 27 29  1  0
 27 28  1  1
 29 30  2  0
 29 31  1  0
M  END
$$$$
