RFI.pdb
     RDKit          3D

 31 31  0  0  1  0  0  0  0  0999 V2000
   15.9135  -13.7557   17.6900 N   0  0  0  0  0  0  0  0  0  0  0  0
   14.9921  -14.4662   16.8711 C   0  0  0  0  0  0  0  0  0  0  0  0
   15.3445  -14.9182   15.7076 N   0  0  0  0  0  0  0  0  0  0  0  0
   13.6797  -14.6501   17.3939 N   0  0  0  0  0  0  0  0  0  0  0  0
   13.4888  -14.7930   18.8370 C   0  0  0  0  0  0  0  0  0  0  0  0
   13.2463  -16.2284   19.2105 C   0  0  0  0  0  0  0  0  0  0  0  0
   13.1072  -16.4580   20.6665 C   0  0  0  0  0  0  0  0  0  0  0  0
   11.8434  -17.1213   21.0828 C   0  0  2  0  0  0  0  0  0  0  0  0
   10.9000  -17.4220   20.0623 N   0  0  0  0  0  0  0  0  0  0  0  0
   11.2286  -16.3244   22.1986 C   0  0  0  0  0  0  0  0  0  0  0  0
   11.9703  -15.7019   23.0028 O   0  0  0  0  0  0  0  0  0  0  0  0
   14.6706  -15.4402   15.1092 N   0  0  0  0  0  0  0  0  0  0  0  0
    9.8359  -16.2218   22.4156 C   0  0  1  0  0  0  0  0  0  0  0  0
    9.2582  -15.4279   23.5085 C   0  0  0  0  0  0  0  0  0  0  0  0
    7.9174  -14.9040   23.1640 C   0  0  0  0  0  0  0  0  0  0  0  0
    7.2718  -14.0284   24.1374 C   0  0  0  0  0  0  0  0  0  0  0  0
    6.3084  -14.4913   25.0220 C   0  0  0  0  0  0  0  0  0  0  0  0
    5.7078  -13.6316   25.9192 C   0  0  0  0  0  0  0  0  0  0  0  0
    6.0446  -12.2947   25.9635 C   0  0  0  0  0  0  0  0  0  0  0  0
    6.9997  -11.8115   25.0937 C   0  0  0  0  0  0  0  0  0  0  0  0
    7.5890  -12.6927   24.2022 C   0  0  0  0  0  0  0  0  0  0  0  0
    9.3894  -16.1527   24.7827 O   0  0  0  0  0  0  0  0  0  0  0  0
    9.3832  -17.4321   24.7537 C   0  0  0  0  0  0  0  0  0  0  0  0
    9.6754  -13.2314   29.4985 C   0  0  0  0  0  0  0  0  0  0  0  0
    9.9815  -14.0659   28.2785 C   0  0  2  0  0  0  0  0  0  0  0  0
    9.5632  -15.4927   28.5087 C   0  0  0  0  0  0  0  0  0  0  0  0
   10.4455  -16.0470   29.6182 C   0  0  1  0  0  0  0  0  0  0  0  0
    9.7538  -16.3457   27.2667 N   0  0  0  0  0  0  0  0  0  0  0  0
    9.5307  -15.5754   26.0665 C   0  0  0  0  0  0  0  0  0  0  0  0
    9.0549  -17.6249   27.3488 O   0  0  0  0  0  0  0  0  0  0  0  0
    7.8650  -17.7145   26.9783 O   0  0  0  0  0  0  0  0  0  0  0  0
  1  2  1  0
  2  3  2  0
  4  2  1  0
  4  5  1  0
  6  5  1  0
  7  6  1  0
  8  9  1  6
  8  7  1  0
 10 11  2  0
 10  8  1  0
 12 10  1  0
 13 21  1  0
 13 12  1  0
 13 14  1  1
 15 14  1  0
 16 15  2  0
 17 16  1  0
 18 19  1  0
 18 17  2  0
 19 20  2  0
 20 15  1  0
 21 28  1  0
 22 21  2  0
 23 24  1  0
 24 25  1  0
 25 26  1  6
 25 27  1  0
 27 29  1  0
 27 28  1  6
 29 30  2  0
 29 31  1  0
M  END
$$$$
