RFI.pdb
     RDKit          3D

 31 31  0  0  1  0  0  0  0  0999 V2000
   13.7051  -19.1283   16.0447 N   0  0  0  0  0  0  0  0  0  0  0  0
   13.3454  -20.3184   16.7366 C   0  0  0  0  0  0  0  0  0  0  0  0
   14.0921  -21.3772   16.6754 N   0  0  0  0  0  0  0  0  0  0  0  0
   12.1363  -20.2817   17.4890 N   0  0  0  0  0  0  0  0  0  0  0  0
   11.5732  -18.9933   17.8917 C   0  0  0  0  0  0  0  0  0  0  0  0
   11.7273  -18.7747   19.3706 C   0  0  0  0  0  0  0  0  0  0  0  0
   11.1361  -17.5080   19.8583 C   0  0  0  0  0  0  0  0  0  0  0  0
    9.7748  -17.6309   20.4432 C   0  0  2  0  0  0  0  0  0  0  0  0
    8.6723  -17.5347   19.5503 N   0  0  0  0  0  0  0  0  0  0  0  0
    9.6558  -16.6652   21.5882 C   0  0  0  0  0  0  0  0  0  0  0  0
   10.4925  -15.7324   21.7071 O   0  0  0  0  0  0  0  0  0  0  0  0
   13.8426  -22.2398   17.2031 N   0  0  0  0  0  0  0  0  0  0  0  0
    8.6415  -16.7323   22.5700 C   0  0  1  0  0  0  0  0  0  0  0  0
    8.5151  -15.7453   23.6509 C   0  0  0  0  0  0  0  0  0  0  0  0
    7.1487  -15.1816   23.7295 C   0  0  0  0  0  0  0  0  0  0  0  0
    6.8832  -14.2187   24.7940 C   0  0  0  0  0  0  0  0  0  0  0  0
    6.1522  -14.5518   25.9254 C   0  0  0  0  0  0  0  0  0  0  0  0
    5.9077  -13.6112   26.9053 C   0  0  0  0  0  0  0  0  0  0  0  0
    6.3792  -12.3200   26.7909 C   0  0  0  0  0  0  0  0  0  0  0  0
    7.1083  -11.9657   25.6751 C   0  0  0  0  0  0  0  0  0  0  0  0
    7.3414  -12.9261   24.7046 C   0  0  0  0  0  0  0  0  0  0  0  0
    9.0935  -16.2810   24.8937 O   0  0  0  0  0  0  0  0  0  0  0  0
    8.7983  -17.4799   25.2300 C   0  0  0  0  0  0  0  0  0  0  0  0
   10.0867  -14.1266   29.7295 C   0  0  0  0  0  0  0  0  0  0  0  0
   10.3714  -14.0162   28.2512 C   0  0  2  0  0  0  0  0  0  0  0  0
   11.2496  -15.1541   27.8065 C   0  0  0  0  0  0  0  0  0  0  0  0
   12.3431  -14.5623   26.9286 C   0  0  1  0  0  0  0  0  0  0  0  0
   10.4785  -16.1798   26.9942 N   0  0  0  0  0  0  0  0  0  0  0  0
    9.9658  -15.6005   25.7755 C   0  0  0  0  0  0  0  0  0  0  0  0
    9.5223  -16.9336   27.7997 O   0  0  0  0  0  0  0  0  0  0  0  0
    8.2952  -16.7512   27.6505 O   0  0  0  0  0  0  0  0  0  0  0  0
  1  2  1  0
  2  3  2  0
  4  2  1  0
  4  5  1  0
  6  5  1  0
  7  6  1  0
  8  9  1  6
  8  7  1  0
 10 11  2  0
 10  8  1  0
 12 10  1  0
 13 21  1  0
 13 12  1  0
 13 14  1  1
 15 14  1  0
 16 15  2  0
 17 16  1  0
 18 19  1  0
 18 17  2  0
 19 20  2  0
 20 15  1  0
 21 28  1  0
 22 21  2  0
 23 24  1  0
 24 25  1  0
 25 26  1  6
 25 27  1  0
 27 29  1  0
 27 28  1  6
 29 30  2  0
 29 31  1  0
M  END
$$$$
