GGN.pdb
     RDKit          3D

 17 16  0  0  1  0  0  0  0  0999 V2000
   22.6092  -17.8504  -16.6433 N   0  0  0  0  0  0  0  0  0  0  0  0
   23.6615  -16.9254  -16.2675 C   0  0  0  0  0  0  0  0  0  0  0  0
   24.9261  -17.7305  -16.0782 C   0  0  0  0  0  0  0  0  0  0  0  0
   25.0470  -18.9004  -16.5308 O   0  0  0  0  0  0  0  0  0  0  0  0
   26.0356  -17.1935  -15.3760 N   0  0  0  0  0  0  0  0  0  0  0  0
   27.3305  -17.8107  -15.3047 C   0  0  0  0  0  0  0  0  0  0  0  0
   27.3669  -18.9133  -14.3071 C   0  0  0  0  0  0  0  0  0  0  0  0
   28.3296  -19.7221  -14.3241 O   0  0  0  0  0  0  0  0  0  0  0  0
   26.4789  -21.9509  -10.1321 N   0  0  0  0  0  0  0  0  0  0  0  0
   25.5815  -20.8589  -10.1488 C   0  0  0  0  0  0  0  0  0  0  0  0
   24.6765  -20.7921   -9.3004 O   0  0  0  0  0  0  0  0  0  0  0  0
   25.7187  -19.8073  -11.1626 C   0  0  0  0  0  0  0  0  0  0  0  0
   26.2870  -20.2750  -12.4787 C   0  0  2  0  0  0  0  0  0  0  0  0
   26.3510  -19.0880  -13.3312 N   0  0  0  0  0  0  0  0  0  0  0  0
   25.5161  -21.3590  -13.1170 C   0  0  0  0  0  0  0  0  0  0  0  0
   24.7259  -21.1583  -14.2356 O   0  0  0  0  0  0  0  0  0  0  0  0
   25.5908  -22.5149  -12.6072 O   0  0  0  0  0  0  0  0  0  0  0  0
  1  2  1  0
  3  5  1  0
  3  2  1  0
  4  3  2  0
  6  5  1  0
  7  6  1  0
  8  7  2  0
  9 10  1  0
 10 12  1  0
 11 10  2  0
 13 12  1  1
 13 15  1  0
 13 14  1  0
 14  7  1  0
 15 16  1  0
 17 15  2  0
M  END
$$$$
