GGN.pdb
     RDKit          3D

 17 16  0  0  1  0  0  0  0  0999 V2000
   19.0008  -13.2915  -16.9652 N   0  0  0  0  0  0  0  0  0  0  0  0
   18.3847  -12.1236  -16.3649 C   0  0  0  0  0  0  0  0  0  0  0  0
   19.2234  -10.9246  -16.7420 C   0  0  0  0  0  0  0  0  0  0  0  0
   19.8955  -10.8882  -17.8074 O   0  0  0  0  0  0  0  0  0  0  0  0
   19.2863   -9.7836  -15.9014 N   0  0  0  0  0  0  0  0  0  0  0  0
   19.9206   -8.5448  -16.2559 C   0  0  0  0  0  0  0  0  0  0  0  0
   19.7383   -7.5064  -15.2067 C   0  0  0  0  0  0  0  0  0  0  0  0
   18.7211   -6.7681  -15.2470 O   0  0  0  0  0  0  0  0  0  0  0  0
   19.1859   -6.0254   -9.9118 N   0  0  0  0  0  0  0  0  0  0  0  0
   20.3958   -6.1638  -10.6295 C   0  0  0  0  0  0  0  0  0  0  0  0
   21.4088   -5.5508  -10.2536 O   0  0  0  0  0  0  0  0  0  0  0  0
   20.4561   -7.0290  -11.8128 C   0  0  0  0  0  0  0  0  0  0  0  0
   20.4910   -6.2918  -13.1279 C   0  0  2  0  0  0  0  0  0  0  0  0
   20.6735   -7.3163  -14.1560 N   0  0  0  0  0  0  0  0  0  0  0  0
   21.5345   -5.2519  -13.2085 C   0  0  0  0  0  0  0  0  0  0  0  0
   21.3502   -3.9666  -12.7291 O   0  0  0  0  0  0  0  0  0  0  0  0
   22.6384   -5.5647  -13.7423 O   0  0  0  0  0  0  0  0  0  0  0  0
  1  2  1  0
  3  5  1  0
  3  2  1  0
  4  3  2  0
  6  5  1  0
  7  6  1  0
  8  7  2  0
  9 10  1  0
 10 12  1  0
 11 10  2  0
 13 12  1  1
 13 15  1  0
 13 14  1  0
 14  7  1  0
 15 16  1  0
 17 15  2  0
M  END
$$$$
