GGN.pdb
     RDKit          3D

 17 16  0  0  1  0  0  0  0  0999 V2000
   27.1275  -15.5897  -15.7145 N   0  0  0  0  0  0  0  0  0  0  0  0
   26.0495  -16.3503  -15.1117 C   0  0  0  0  0  0  0  0  0  0  0  0
   26.0891  -17.7399  -15.7039 C   0  0  0  0  0  0  0  0  0  0  0  0
   27.0646  -18.1454  -16.3909 O   0  0  0  0  0  0  0  0  0  0  0  0
   25.0180  -18.6488  -15.5066 N   0  0  0  0  0  0  0  0  0  0  0  0
   24.9807  -19.9882  -16.0237 C   0  0  0  0  0  0  0  0  0  0  0  0
   23.7582  -20.7171  -15.5920 C   0  0  0  0  0  0  0  0  0  0  0  0
   23.5355  -21.8653  -16.0539 O   0  0  0  0  0  0  0  0  0  0  0  0
   20.1508  -22.6126  -11.9209 N   0  0  0  0  0  0  0  0  0  0  0  0
   20.2002  -21.2436  -12.2698 C   0  0  0  0  0  0  0  0  0  0  0  0
   19.1988  -20.5282  -12.1009 O   0  0  0  0  0  0  0  0  0  0  0  0
   21.4294  -20.6690  -12.8278 C   0  0  0  0  0  0  0  0  0  0  0  0
   21.5854  -20.8469  -14.3171 C   0  0  2  0  0  0  0  0  0  0  0  0
   22.8285  -20.1631  -14.6735 N   0  0  0  0  0  0  0  0  0  0  0  0
   20.4452  -20.3439  -15.1069 C   0  0  0  0  0  0  0  0  0  0  0  0
   19.3172  -21.1042  -15.3624 O   0  0  0  0  0  0  0  0  0  0  0  0
   20.5182  -19.1659  -15.5634 O   0  0  0  0  0  0  0  0  0  0  0  0
  1  2  1  0
  3  5  1  0
  3  2  1  0
  4  3  2  0
  6  5  1  0
  7  6  1  0
  8  7  2  0
  9 10  1  0
 10 12  1  0
 11 10  2  0
 13 12  1  1
 13 15  1  0
 13 14  1  0
 14  7  1  0
 15 16  1  0
 17 15  2  0
M  END
$$$$
