GGN.pdb
     RDKit          3D

 17 16  0  0  1  0  0  0  0  0999 V2000
   17.8351  -12.9621  -14.5265 N   0  0  0  0  0  0  0  0  0  0  0  0
   17.6549  -11.5229  -14.5350 C   0  0  0  0  0  0  0  0  0  0  0  0
   18.0275  -11.0116  -13.1628 C   0  0  0  0  0  0  0  0  0  0  0  0
   18.9823  -11.5033  -12.5034 O   0  0  0  0  0  0  0  0  0  0  0  0
   17.3082   -9.9482  -12.5594 N   0  0  0  0  0  0  0  0  0  0  0  0
   17.7442   -9.2266  -11.3966 C   0  0  0  0  0  0  0  0  0  0  0  0
   16.7537   -8.2002  -10.9753 C   0  0  0  0  0  0  0  0  0  0  0  0
   16.3014   -7.3985  -11.8321 O   0  0  0  0  0  0  0  0  0  0  0  0
   12.4180   -6.8427   -7.7996 N   0  0  0  0  0  0  0  0  0  0  0  0
   13.7456   -6.6242   -7.3664 C   0  0  0  0  0  0  0  0  0  0  0  0
   13.9862   -5.7198   -6.5495 O   0  0  0  0  0  0  0  0  0  0  0  0
   14.8354   -7.4627   -7.8780 C   0  0  0  0  0  0  0  0  0  0  0  0
   15.3970   -7.0205   -9.2058 C   0  0  2  0  0  0  0  0  0  0  0  0
   16.2969   -8.0906   -9.6358 N   0  0  0  0  0  0  0  0  0  0  0  0
   16.0869   -5.7169   -9.1644 C   0  0  0  0  0  0  0  0  0  0  0  0
   15.5012   -4.5447   -9.6102 O   0  0  0  0  0  0  0  0  0  0  0  0
   17.2636   -5.6872   -8.6997 O   0  0  0  0  0  0  0  0  0  0  0  0
  1  2  1  0
  3  5  1  0
  3  2  1  0
  4  3  2  0
  6  5  1  0
  7  6  1  0
  8  7  2  0
  9 10  1  0
 10 12  1  0
 11 10  2  0
 13 12  1  1
 13 15  1  0
 13 14  1  0
 14  7  1  0
 15 16  1  0
 17 15  2  0
M  END
$$$$
