GGN.pdb
     RDKit          3D

 17 16  0  0  1  0  0  0  0  0999 V2000
   23.6103  -25.8462  -15.0957 N   0  0  0  0  0  0  0  0  0  0  0  0
   24.1944  -24.6282  -15.6241 C   0  0  0  0  0  0  0  0  0  0  0  0
   24.3587  -23.6667  -14.4701 C   0  0  0  0  0  0  0  0  0  0  0  0
   24.1629  -24.0175  -13.2756 O   0  0  0  0  0  0  0  0  0  0  0  0
   24.7427  -22.3191  -14.6911 N   0  0  0  0  0  0  0  0  0  0  0  0
   25.0295  -21.3727  -13.6495 C   0  0  0  0  0  0  0  0  0  0  0  0
   25.2994  -20.0141  -14.1915 C   0  0  0  0  0  0  0  0  0  0  0  0
   25.4462  -19.0546  -13.3920 O   0  0  0  0  0  0  0  0  0  0  0  0
   28.2130  -16.7182  -17.8765 N   0  0  0  0  0  0  0  0  0  0  0  0
   26.9364  -17.3219  -17.9374 C   0  0  0  0  0  0  0  0  0  0  0  0
   26.0445  -16.8085  -18.6333 O   0  0  0  0  0  0  0  0  0  0  0  0
   26.6653  -18.5509  -17.1833 C   0  0  0  0  0  0  0  0  0  0  0  0
   25.6107  -18.4114  -16.1145 C   0  0  2  0  0  0  0  0  0  0  0  0
   25.3982  -19.7581  -15.5842 N   0  0  0  0  0  0  0  0  0  0  0  0
   24.3490  -17.8104  -16.5874 C   0  0  0  0  0  0  0  0  0  0  0  0
   24.1167  -16.4461  -16.5716 O   0  0  0  0  0  0  0  0  0  0  0  0
   23.4513  -18.5896  -17.0218 O   0  0  0  0  0  0  0  0  0  0  0  0
  1  2  1  0
  3  5  1  0
  3  2  1  0
  4  3  2  0
  6  5  1  0
  7  6  1  0
  8  7  2  0
  9 10  1  0
 10 12  1  0
 11 10  2  0
 13 12  1  6
 13 15  1  0
 13 14  1  0
 14  7  1  0
 15 16  1  0
 17 15  2  0
M  END
$$$$
