GGN.pdb
     RDKit          3D

 17 16  0  0  1  0  0  0  0  0999 V2000
   17.8779  -13.4186  -14.7969 N   0  0  0  0  0  0  0  0  0  0  0  0
   17.2212  -13.1868  -16.0693 C   0  0  0  0  0  0  0  0  0  0  0  0
   17.9303  -12.0344  -16.7419 C   0  0  0  0  0  0  0  0  0  0  0  0
   17.5937  -11.6173  -17.8824 O   0  0  0  0  0  0  0  0  0  0  0  0
   19.0132  -11.3729  -16.1077 N   0  0  0  0  0  0  0  0  0  0  0  0
   19.7090  -10.2415  -16.6542 C   0  0  0  0  0  0  0  0  0  0  0  0
   19.7367   -9.0950  -15.7070 C   0  0  0  0  0  0  0  0  0  0  0  0
   18.9112   -9.0648  -14.7589 O   0  0  0  0  0  0  0  0  0  0  0  0
   22.0826   -5.4756  -12.4730 N   0  0  0  0  0  0  0  0  0  0  0  0
   22.3888   -5.3919  -13.8505 C   0  0  0  0  0  0  0  0  0  0  0  0
   22.8672   -4.3427  -14.3127 O   0  0  0  0  0  0  0  0  0  0  0  0
   22.1441   -6.5396  -14.7311 C   0  0  0  0  0  0  0  0  0  0  0  0
   20.6905   -6.9049  -14.8965 C   0  0  2  0  0  0  0  0  0  0  0  0
   20.6644   -8.0281  -15.8333 N   0  0  0  0  0  0  0  0  0  0  0  0
   19.8386   -5.7932  -15.3604 C   0  0  0  0  0  0  0  0  0  0  0  0
   19.1460   -4.9671  -14.4922 O   0  0  0  0  0  0  0  0  0  0  0  0
   19.7474   -5.6012  -16.6079 O   0  0  0  0  0  0  0  0  0  0  0  0
  1  2  1  0
  3  5  1  0
  3  2  1  0
  4  3  2  0
  6  5  1  0
  7  6  1  0
  8  7  2  0
  9 10  1  0
 10 12  1  0
 11 10  2  0
 13 12  1  6
 13 15  1  0
 13 14  1  0
 14  7  1  0
 15 16  1  0
 17 15  2  0
M  END
$$$$
