GGA.pdb
     RDKit          3D

 14 13  0  0  1  0  0  0  0  0999 V2000
   19.9832  -10.8670  -18.6239 N   0  0  0  0  0  0  0  0  0  0  0  0
   19.3779   -9.7008  -18.0115 C   0  0  0  0  0  0  0  0  0  0  0  0
   19.6218   -9.7641  -16.5502 C   0  0  0  0  0  0  0  0  0  0  0  0
   20.0386  -10.8033  -16.0113 O   0  0  0  0  0  0  0  0  0  0  0  0
   19.3875   -8.6391  -15.7155 N   0  0  0  0  0  0  0  0  0  0  0  0
   19.5829   -8.6917  -14.2885 C   0  0  0  0  0  0  0  0  0  0  0  0
   20.6319   -7.7143  -13.8757 C   0  0  0  0  0  0  0  0  0  0  0  0
   20.8294   -7.4900  -12.6535 O   0  0  0  0  0  0  0  0  0  0  0  0
   23.3831   -5.8524  -15.5171 C   0  0  0  0  0  0  0  0  0  0  0  0
   22.4225   -6.0783  -14.3455 C   0  0  2  0  0  0  0  0  0  0  0  0
   21.4336   -7.0107  -14.7965 N   0  0  0  0  0  0  0  0  0  0  0  0
   21.8769   -4.7626  -13.9837 C   0  0  0  0  0  0  0  0  0  0  0  0
   22.5243   -4.0286  -13.2073 O   0  0  0  0  0  0  0  0  0  0  0  0
   20.6711   -4.3018  -14.4698 O   0  0  0  0  0  0  0  0  0  0  0  0
  2  1  1  0
  3  2  1  0
  4  3  2  0
  5  3  1  0
  6  5  1  0
  7  8  2  0
  7  6  1  0
 10  9  1  6
 10 11  1  0
 11  7  1  0
 12 10  1  0
 13 12  2  0
 14 12  1  0
M  END
$$$$
