GGA.pdb
     RDKit          3D

 14 13  0  0  1  0  0  0  0  0999 V2000
   25.4751  -23.4696  -12.0571 N   0  0  0  0  0  0  0  0  0  0  0  0
   24.7940  -22.1968  -11.9259 C   0  0  0  0  0  0  0  0  0  0  0  0
   24.8812  -21.4871  -13.2249 C   0  0  0  0  0  0  0  0  0  0  0  0
   25.8190  -21.6982  -14.0124 O   0  0  0  0  0  0  0  0  0  0  0  0
   23.8959  -20.5411  -13.6144 N   0  0  0  0  0  0  0  0  0  0  0  0
   23.9064  -19.9168  -14.9134 C   0  0  0  0  0  0  0  0  0  0  0  0
   22.7611  -18.9690  -15.0388 C   0  0  0  0  0  0  0  0  0  0  0  0
   21.8293  -19.0012  -14.1939 O   0  0  0  0  0  0  0  0  0  0  0  0
   21.8779  -16.0544  -17.1678 C   0  0  0  0  0  0  0  0  0  0  0  0
   21.5168  -17.1589  -16.1697 C   0  0  2  0  0  0  0  0  0  0  0  0
   22.6591  -18.0171  -16.0727 N   0  0  0  0  0  0  0  0  0  0  0  0
   20.3154  -17.8259  -16.6906 C   0  0  0  0  0  0  0  0  0  0  0  0
   20.4272  -18.9501  -17.2239 O   0  0  0  0  0  0  0  0  0  0  0  0
   19.0610  -17.2576  -16.6144 O   0  0  0  0  0  0  0  0  0  0  0  0
  2  1  1  0
  3  2  1  0
  4  3  2  0
  5  3  1  0
  6  5  1  0
  7  8  2  0
  7  6  1  0
 10  9  1  6
 10 11  1  0
 11  7  1  0
 12 10  1  0
 13 12  2  0
 14 12  1  0
M  END
$$$$
