GGA.pdb
     RDKit          3D

 14 13  0  0  1  0  0  0  0  0999 V2000
   17.7754  -10.5005  -13.3582 N   0  0  0  0  0  0  0  0  0  0  0  0
   16.5715  -10.2027  -12.6077 C   0  0  0  0  0  0  0  0  0  0  0  0
   16.9100   -9.2066  -11.5627 C   0  0  0  0  0  0  0  0  0  0  0  0
   17.7786   -8.3394  -11.7568 O   0  0  0  0  0  0  0  0  0  0  0  0
   16.2533   -9.2089  -10.3034 N   0  0  0  0  0  0  0  0  0  0  0  0
   16.5140   -8.2045   -9.3031 C   0  0  0  0  0  0  0  0  0  0  0  0
   15.4774   -7.1334   -9.3660 C   0  0  0  0  0  0  0  0  0  0  0  0
   14.5256   -7.2335  -10.1828 O   0  0  0  0  0  0  0  0  0  0  0  0
   13.9705   -4.7669   -7.1946 C   0  0  0  0  0  0  0  0  0  0  0  0
   14.4641   -5.0055   -8.6249 C   0  0  2  0  0  0  0  0  0  0  0  0
   15.5023   -5.9887   -8.5447 N   0  0  0  0  0  0  0  0  0  0  0  0
   14.9158   -3.7057   -9.1408 C   0  0  0  0  0  0  0  0  0  0  0  0
   16.1132   -3.3785   -8.9997 O   0  0  0  0  0  0  0  0  0  0  0  0
   14.0659   -2.8263   -9.7787 O   0  0  0  0  0  0  0  0  0  0  0  0
  2  1  1  0
  3  2  1  0
  4  3  2  0
  5  3  1  0
  6  5  1  0
  7  8  2  0
  7  6  1  0
 10  9  1  1
 10 11  1  0
 11  7  1  0
 12 10  1  0
 13 12  2  0
 14 12  1  0
M  END
$$$$
