GGA.pdb
     RDKit          3D

 14 13  0  0  1  0  0  0  0  0999 V2000
   17.6728  -11.5412  -16.7505 N   0  0  0  0  0  0  0  0  0  0  0  0
   18.8055  -10.6985  -17.0794 C   0  0  0  0  0  0  0  0  0  0  0  0
   19.6787  -10.6067  -15.8844 C   0  0  0  0  0  0  0  0  0  0  0  0
   19.8308  -11.5760  -15.1219 O   0  0  0  0  0  0  0  0  0  0  0  0
   20.3719   -9.4076  -15.5697 N   0  0  0  0  0  0  0  0  0  0  0  0
   21.2072   -9.2914  -14.4009 C   0  0  0  0  0  0  0  0  0  0  0  0
   21.7210   -7.8967  -14.2715 C   0  0  0  0  0  0  0  0  0  0  0  0
   22.3802   -7.5667  -13.2518 O   0  0  0  0  0  0  0  0  0  0  0  0
   22.1742   -4.9768  -16.4738 C   0  0  0  0  0  0  0  0  0  0  0  0
   22.0244   -5.5798  -15.0737 C   0  0  2  0  0  0  0  0  0  0  0  0
   21.5062   -6.9034  -15.2476 N   0  0  0  0  0  0  0  0  0  0  0  0
   21.1327   -4.6872  -14.3200 C   0  0  0  0  0  0  0  0  0  0  0  0
   19.9037   -4.9113  -14.3234 O   0  0  0  0  0  0  0  0  0  0  0  0
   21.6005   -3.6050  -13.6043 O   0  0  0  0  0  0  0  0  0  0  0  0
  2  1  1  0
  3  2  1  0
  4  3  2  0
  5  3  1  0
  6  5  1  0
  7  8  2  0
  7  6  1  0
 10  9  1  6
 10 11  1  0
 11  7  1  0
 12 10  1  0
 13 12  2  0
 14 12  1  0
M  END
$$$$
