GGA.pdb
     RDKit          3D

 14 13  0  0  1  0  0  0  0  0999 V2000
   18.6331   -9.5705  -14.6416 N   0  0  0  0  0  0  0  0  0  0  0  0
   17.2909   -9.0734  -14.8712 C   0  0  0  0  0  0  0  0  0  0  0  0
   16.3931   -9.6734  -13.8550 C   0  0  0  0  0  0  0  0  0  0  0  0
   16.7660  -10.6242  -13.1471 O   0  0  0  0  0  0  0  0  0  0  0  0
   15.0754   -9.1823  -13.6553 N   0  0  0  0  0  0  0  0  0  0  0  0
   14.1975   -9.7333  -12.6537 C   0  0  0  0  0  0  0  0  0  0  0  0
   14.3232   -8.9664  -11.3802 C   0  0  0  0  0  0  0  0  0  0  0  0
   13.3527   -8.9213  -10.5807 O   0  0  0  0  0  0  0  0  0  0  0  0
   16.8429   -7.9783   -9.0741 C   0  0  0  0  0  0  0  0  0  0  0  0
   15.5558   -7.5425   -9.7811 C   0  0  2  0  0  0  0  0  0  0  0  0
   15.4931   -8.2730  -11.0113 N   0  0  0  0  0  0  0  0  0  0  0  0
   15.6410   -6.0862   -9.9589 C   0  0  0  0  0  0  0  0  0  0  0  0
   15.8377   -5.6239  -11.1027 O   0  0  0  0  0  0  0  0  0  0  0  0
   15.5117   -5.2031   -8.9073 O   0  0  0  0  0  0  0  0  0  0  0  0
  2  1  1  0
  3  2  1  0
  4  3  2  0
  5  3  1  0
  6  5  1  0
  7  8  2  0
  7  6  1  0
 10  9  1  6
 10 11  1  0
 11  7  1  0
 12 10  1  0
 13 12  2  0
 14 12  1  0
M  END
$$$$
