GGA.pdb
     RDKit          3D

 14 13  0  0  1  0  0  0  0  0999 V2000
   25.0370  -32.1133   -8.2607 N   0  0  0  0  0  0  0  0  0  0  0  0
   26.0343  -33.1653   -8.2570 C   0  0  0  0  0  0  0  0  0  0  0  0
   26.9756  -32.9091   -7.1403 C   0  0  0  0  0  0  0  0  0  0  0  0
   26.8764  -31.8908   -6.4351 O   0  0  0  0  0  0  0  0  0  0  0  0
   28.0235  -33.8188   -6.8376 N   0  0  0  0  0  0  0  0  0  0  0  0
   28.9717  -33.5691   -5.7812 C   0  0  0  0  0  0  0  0  0  0  0  0
   30.2657  -34.2494   -6.0789 C   0  0  0  0  0  0  0  0  0  0  0  0
   30.5135  -34.6334   -7.2512 O   0  0  0  0  0  0  0  0  0  0  0  0
   33.2949  -34.0050   -6.2161 C   0  0  0  0  0  0  0  0  0  0  0  0
   32.5085  -35.0776   -5.4561 C   0  0  2  0  0  0  0  0  0  0  0  0
   31.2504  -34.4928   -5.1009 N   0  0  0  0  0  0  0  0  0  0  0  0
   33.3292  -35.4677   -4.3012 C   0  0  0  0  0  0  0  0  0  0  0  0
   32.9473  -35.1597   -3.1522 O   0  0  0  0  0  0  0  0  0  0  0  0
   34.5119  -36.1647   -4.4348 O   0  0  0  0  0  0  0  0  0  0  0  0
  2  1  1  0
  3  2  1  0
  4  3  2  0
  5  3  1  0
  6  5  1  0
  7  8  2  0
  7  6  1  0
 10  9  1  1
 10 11  1  0
 11  7  1  0
 12 10  1  0
 13 12  2  0
 14 12  1  0
M  END
$$$$
