GGA.pdb
     RDKit          3D

 14 13  0  0  1  0  0  0  0  0999 V2000
   17.2404   -9.2557  -16.4669 N   0  0  0  0  0  0  0  0  0  0  0  0
   18.6507   -9.1343  -16.7793 C   0  0  0  0  0  0  0  0  0  0  0  0
   19.4170   -9.2316  -15.5136 C   0  0  0  0  0  0  0  0  0  0  0  0
   18.8435   -9.2228  -14.4112 O   0  0  0  0  0  0  0  0  0  0  0  0
   20.8333   -9.3382  -15.5170 N   0  0  0  0  0  0  0  0  0  0  0  0
   21.5986   -9.3988  -14.2972 C   0  0  0  0  0  0  0  0  0  0  0  0
   22.1359   -8.0489  -13.9584 C   0  0  0  0  0  0  0  0  0  0  0  0
   22.6432   -7.8456  -12.8250 O   0  0  0  0  0  0  0  0  0  0  0  0
   22.8675   -4.9030  -15.7743 C   0  0  0  0  0  0  0  0  0  0  0  0
   22.6393   -5.6866  -14.4780 C   0  0  2  0  0  0  0  0  0  0  0  0
   22.1080   -6.9620  -14.8548 N   0  0  0  0  0  0  0  0  0  0  0  0
   21.7270   -4.8839  -13.6515 C   0  0  0  0  0  0  0  0  0  0  0  0
   20.5016   -5.1244  -13.6897 O   0  0  0  0  0  0  0  0  0  0  0  0
   22.1713   -3.8691  -12.8299 O   0  0  0  0  0  0  0  0  0  0  0  0
  2  1  1  0
  3  2  1  0
  4  3  2  0
  5  3  1  0
  6  5  1  0
  7  8  2  0
  7  6  1  0
 10  9  1  6
 10 11  1  0
 11  7  1  0
 12 10  1  0
 13 12  2  0
 14 12  1  0
M  END
$$$$
