GGA.pdb
     RDKit          3D

 14 13  0  0  1  0  0  0  0  0999 V2000
   19.3232  -11.6533  -18.1616 N   0  0  0  0  0  0  0  0  0  0  0  0
   20.3836  -10.6841  -17.9678 C   0  0  0  0  0  0  0  0  0  0  0  0
   20.6088  -10.5269  -16.5107 C   0  0  0  0  0  0  0  0  0  0  0  0
   20.5203  -11.4954  -15.7372 O   0  0  0  0  0  0  0  0  0  0  0  0
   20.9336   -9.2639  -15.9481 N   0  0  0  0  0  0  0  0  0  0  0  0
   21.1203   -9.0833  -14.5304 C   0  0  0  0  0  0  0  0  0  0  0  0
   21.5181   -7.6754  -14.2383 C   0  0  0  0  0  0  0  0  0  0  0  0
   21.5983   -7.2845  -13.0450 O   0  0  0  0  0  0  0  0  0  0  0  0
   23.0705   -4.9161  -16.1277 C   0  0  0  0  0  0  0  0  0  0  0  0
   22.2980   -5.4290  -14.9084 C   0  0  2  0  0  0  0  0  0  0  0  0
   21.8164   -6.7351  -15.2444 N   0  0  0  0  0  0  0  0  0  0  0  0
   21.2319   -4.4538  -14.6400 C   0  0  0  0  0  0  0  0  0  0  0  0
   20.0737   -4.6931  -15.0426 O   0  0  0  0  0  0  0  0  0  0  0  0
   21.4593   -3.2772  -13.9571 O   0  0  0  0  0  0  0  0  0  0  0  0
  2  1  1  0
  3  2  1  0
  4  3  2  0
  5  3  1  0
  6  5  1  0
  7  8  2  0
  7  6  1  0
 10  9  1  6
 10 11  1  0
 11  7  1  0
 12 10  1  0
 13 12  2  0
 14 12  1  0
M  END
$$$$
