GGA.pdb
     RDKit          3D

 14 13  0  0  1  0  0  0  0  0999 V2000
   23.1917   -9.4161  -20.1657 N   0  0  0  0  0  0  0  0  0  0  0  0
   23.7937   -8.7030  -19.0566 C   0  0  0  0  0  0  0  0  0  0  0  0
   22.8177   -8.6699  -17.9408 C   0  0  0  0  0  0  0  0  0  0  0  0
   23.1534   -8.9690  -16.7824 O   0  0  0  0  0  0  0  0  0  0  0  0
   21.4649   -8.2952  -18.1572 N   0  0  0  0  0  0  0  0  0  0  0  0
   20.5032   -8.2490  -17.0846 C   0  0  0  0  0  0  0  0  0  0  0  0
   20.6034   -6.9496  -16.3584 C   0  0  0  0  0  0  0  0  0  0  0  0
   19.8951   -5.9753  -16.7222 O   0  0  0  0  0  0  0  0  0  0  0  0
   21.7831   -5.8044  -13.1001 C   0  0  0  0  0  0  0  0  0  0  0  0
   21.4853   -5.4913  -14.5697 C   0  0  2  0  0  0  0  0  0  0  0  0
   21.4653   -6.7444  -15.2628 N   0  0  0  0  0  0  0  0  0  0  0  0
   22.5375   -4.5746  -15.0304 C   0  0  0  0  0  0  0  0  0  0  0  0
   23.4011   -4.9933  -15.8302 O   0  0  0  0  0  0  0  0  0  0  0  0
   22.6110   -3.2621  -14.6129 O   0  0  0  0  0  0  0  0  0  0  0  0
  2  1  1  0
  3  2  1  0
  4  3  2  0
  5  3  1  0
  6  5  1  0
  7  8  2  0
  7  6  1  0
 10  9  1  1
 10 11  1  0
 11  7  1  0
 12 10  1  0
 13 12  2  0
 14 12  1  0
M  END
$$$$
