GGA.pdb
     RDKit          3D

 14 13  0  0  1  0  0  0  0  0999 V2000
   24.0778  -20.4357  -16.3191 N   0  0  0  0  0  0  0  0  0  0  0  0
   24.8577  -19.2139  -16.3097 C   0  0  0  0  0  0  0  0  0  0  0  0
   25.6029  -19.1483  -15.0294 C   0  0  0  0  0  0  0  0  0  0  0  0
   25.1237  -18.5801  -14.0336 O   0  0  0  0  0  0  0  0  0  0  0  0
   26.8907  -19.7326  -14.8966 N   0  0  0  0  0  0  0  0  0  0  0  0
   27.5883  -19.7674  -13.6358 C   0  0  0  0  0  0  0  0  0  0  0  0
   26.8455  -20.6162  -12.6593 C   0  0  0  0  0  0  0  0  0  0  0  0
   26.7628  -21.8575  -12.8479 O   0  0  0  0  0  0  0  0  0  0  0  0
   25.8506  -20.5300   -9.1996 C   0  0  0  0  0  0  0  0  0  0  0  0
   25.4834  -20.9519  -10.6256 C   0  0  2  0  0  0  0  0  0  0  0  0
   26.2160  -20.0969  -11.5105 N   0  0  0  0  0  0  0  0  0  0  0  0
   24.0247  -20.8204  -10.7452 C   0  0  0  0  0  0  0  0  0  0  0  0
   23.5529  -19.9109  -11.4600 O   0  0  0  0  0  0  0  0  0  0  0  0
   23.1493  -21.6659  -10.0962 O   0  0  0  0  0  0  0  0  0  0  0  0
  2  1  1  0
  3  2  1  0
  4  3  2  0
  5  3  1  0
  6  5  1  0
  7  8  2  0
  7  6  1  0
 10  9  1  1
 10 11  1  0
 11  7  1  0
 12 10  1  0
 13 12  2  0
 14 12  1  0
M  END
$$$$
