GGA.pdb
     RDKit          3D

 14 13  0  0  1  0  0  0  0  0999 V2000
   16.6441  -13.0374  -16.3506 N   0  0  0  0  0  0  0  0  0  0  0  0
   16.6265  -12.0927  -17.4500 C   0  0  0  0  0  0  0  0  0  0  0  0
   17.8707  -11.2882  -17.3911 C   0  0  0  0  0  0  0  0  0  0  0  0
   18.9812  -11.8285  -17.2536 O   0  0  0  0  0  0  0  0  0  0  0  0
   17.8365   -9.8717  -17.4898 N   0  0  0  0  0  0  0  0  0  0  0  0
   19.0394   -9.0786  -17.5293 C   0  0  0  0  0  0  0  0  0  0  0  0
   19.5199   -8.8022  -16.1441 C   0  0  0  0  0  0  0  0  0  0  0  0
   18.6867   -8.6402  -15.2153 O   0  0  0  0  0  0  0  0  0  0  0  0
   22.5846   -9.2628  -14.2363 C   0  0  0  0  0  0  0  0  0  0  0  0
   21.2920   -8.4704  -14.4549 C   0  0  2  0  0  0  0  0  0  0  0  0
   20.8849   -8.7096  -15.8069 N   0  0  0  0  0  0  0  0  0  0  0  0
   21.6030   -7.0630  -14.1686 C   0  0  0  0  0  0  0  0  0  0  0  0
   21.8190   -6.2824  -15.1199 O   0  0  0  0  0  0  0  0  0  0  0  0
   21.6667   -6.5652  -12.8838 O   0  0  0  0  0  0  0  0  0  0  0  0
  2  1  1  0
  3  2  1  0
  4  3  2  0
  5  3  1  0
  6  5  1  0
  7  8  2  0
  7  6  1  0
 10  9  1  6
 10 11  1  0
 11  7  1  0
 12 10  1  0
 13 12  2  0
 14 12  1  0
M  END
$$$$
