GGA.pdb
     RDKit          3D

 14 13  0  0  1  0  0  0  0  0999 V2000
   27.6269  -11.9446  -16.2841 N   0  0  0  0  0  0  0  0  0  0  0  0
   26.4656  -11.4385  -16.9887 C   0  0  0  0  0  0  0  0  0  0  0  0
   25.4394  -11.0657  -15.9854 C   0  0  0  0  0  0  0  0  0  0  0  0
   25.4920  -11.4947  -14.8203 O   0  0  0  0  0  0  0  0  0  0  0  0
   24.3605  -10.2050  -16.3209 N   0  0  0  0  0  0  0  0  0  0  0  0
   23.3593   -9.8224  -15.3573 C   0  0  0  0  0  0  0  0  0  0  0  0
   22.4018   -8.8538  -15.9662 C   0  0  0  0  0  0  0  0  0  0  0  0
   22.5977   -8.4346  -17.1363 O   0  0  0  0  0  0  0  0  0  0  0  0
   18.9921   -7.6609  -15.2570 C   0  0  0  0  0  0  0  0  0  0  0  0
   20.3505   -7.4771  -15.9408 C   0  0  2  0  0  0  0  0  0  0  0  0
   21.2635   -8.3692  -15.2917 N   0  0  0  0  0  0  0  0  0  0  0  0
   20.7071   -6.0581  -15.8023 C   0  0  0  0  0  0  0  0  0  0  0  0
   21.4252   -5.7026  -14.8439 O   0  0  0  0  0  0  0  0  0  0  0  0
   20.2784   -5.0965  -16.6933 O   0  0  0  0  0  0  0  0  0  0  0  0
  2  1  1  0
  3  2  1  0
  4  3  2  0
  5  3  1  0
  6  5  1  0
  7  8  2  0
  7  6  1  0
 10  9  1  1
 10 11  1  0
 11  7  1  0
 12 10  1  0
 13 12  2  0
 14 12  1  0
M  END
$$$$
