NMF.pdb
     RDKit          3D

 28 28  0  0  1  0  0  0  0  0999 V2000
   19.5860  -23.4948  -13.5547 N   0  0  0  0  0  0  0  0  0  0  0  0
   19.4647  -22.0914  -13.6100 C   0  0  0  0  0  0  0  0  0  0  0  0
   18.3446  -21.5317  -13.6765 O   0  0  0  0  0  0  0  0  0  0  0  0
   20.6809  -21.2432  -13.5900 C   0  0  0  0  0  0  0  0  0  0  0  0
   21.3313  -21.3031  -12.2079 C   0  0  2  0  0  0  0  0  0  0  0  0
   20.3697  -20.7921  -11.2845 N   0  0  0  0  0  0  0  0  0  0  0  0
   22.6036  -20.5151  -12.2056 C   0  0  0  0  0  0  0  0  0  0  0  0
   22.4693  -19.2786  -12.1740 O   0  0  0  0  0  0  0  0  0  0  0  0
   28.8319  -21.6451  -10.1568 C   0  0  0  0  0  0  0  0  0  0  0  0
   27.3430  -21.4266   -9.1806 S   0  0  0  0  0  0  0  0  0  0  0  0
   26.0162  -20.7876  -10.2502 C   0  0  0  0  0  0  0  0  0  0  0  0
   26.2303  -21.2015  -11.6850 C   0  0  0  0  0  0  0  0  0  0  0  0
   25.1228  -20.5868  -12.5195 C   0  0  2  0  0  0  0  0  0  0  0  0
   23.8586  -21.1551  -12.2372 N   0  0  0  0  0  0  0  0  0  0  0  0
   25.4548  -20.4046  -13.9334 C   0  0  0  0  0  0  0  0  0  0  0  0
   24.6725  -20.8765  -14.7940 O   0  0  0  0  0  0  0  0  0  0  0  0
   26.6031  -19.7290  -14.4000 N   0  0  0  0  0  0  0  0  0  0  0  0
   26.5832  -18.5470  -15.2498 C   0  0  1  0  0  0  0  0  0  0  0  0
   25.7611  -17.4540  -14.6712 C   0  0  0  0  0  0  0  0  0  0  0  0
   25.7377  -16.2866  -15.5760 C   0  0  0  0  0  0  0  0  0  0  0  0
   25.0993  -16.2601  -16.7994 C   0  0  0  0  0  0  0  0  0  0  0  0
   25.1164  -15.1296  -17.5847 C   0  0  0  0  0  0  0  0  0  0  0  0
   25.7690  -13.9837  -17.1825 C   0  0  0  0  0  0  0  0  0  0  0  0
   26.4080  -14.0167  -15.9536 C   0  0  0  0  0  0  0  0  0  0  0  0
   26.4005  -15.1356  -15.1585 C   0  0  0  0  0  0  0  0  0  0  0  0
   27.9607  -18.1602  -15.5203 C   0  0  0  0  0  0  0  0  0  0  0  0
   28.7722  -17.9832  -14.5780 O   0  0  0  0  0  0  0  0  0  0  0  0
   28.4016  -17.9794  -16.8371 O   0  0  0  0  0  0  0  0  0  0  0  0
  2  1  1  0
  2  3  2  0
  4  2  1  0
  5  6  1  1
  5  4  1  0
  7  5  1  0
  8  7  2  0
 10  9  1  0
 11 10  1  0
 11 12  1  0
 13 12  1  6
 13 14  1  0
 14  7  1  0
 15 17  1  0
 15 13  1  0
 16 15  2  0
 18 19  1  1
 18 17  1  0
 20 19  1  0
 20 21  2  0
 22 21  1  0
 23 22  2  0
 24 25  2  0
 24 23  1  0
 25 20  1  0
 26 18  1  0
 26 28  1  0
 27 26  2  0
M  END
$$$$
