NMF.pdb
     RDKit          3D

 28 28  0  0  1  0  0  0  0  0999 V2000
   20.3527  -13.5574  -15.3572 N   0  0  0  0  0  0  0  0  0  0  0  0
   19.4219  -12.4992  -15.3199 C   0  0  0  0  0  0  0  0  0  0  0  0
   18.3018  -12.6296  -14.7716 O   0  0  0  0  0  0  0  0  0  0  0  0
   19.7605  -11.1951  -15.9393 C   0  0  0  0  0  0  0  0  0  0  0  0
   18.5192  -10.5994  -16.6034 C   0  0  2  0  0  0  0  0  0  0  0  0
   18.3239  -11.3211  -17.8197 N   0  0  0  0  0  0  0  0  0  0  0  0
   18.7139   -9.1332  -16.8316 C   0  0  0  0  0  0  0  0  0  0  0  0
   19.5050   -8.8319  -17.7434 O   0  0  0  0  0  0  0  0  0  0  0  0
   13.8485   -5.4360  -16.7762 C   0  0  0  0  0  0  0  0  0  0  0  0
   14.8951   -5.4493  -18.2329 S   0  0  0  0  0  0  0  0  0  0  0  0
   16.4745   -6.2575  -17.8261 C   0  0  0  0  0  0  0  0  0  0  0  0
   16.8037   -6.0975  -16.3627 C   0  0  0  0  0  0  0  0  0  0  0  0
   18.1406   -6.7672  -16.1080 C   0  0  2  0  0  0  0  0  0  0  0  0
   18.0338   -8.1765  -16.0519 N   0  0  0  0  0  0  0  0  0  0  0  0
   18.9516   -6.1327  -15.0675 C   0  0  0  0  0  0  0  0  0  0  0  0
   18.5677   -6.2230  -13.8760 O   0  0  0  0  0  0  0  0  0  0  0  0
   20.1455   -5.4208  -15.3135 N   0  0  0  0  0  0  0  0  0  0  0  0
   20.9663   -4.7960  -14.2860 C   0  0  1  0  0  0  0  0  0  0  0  0
   22.3185   -5.4042  -14.2017 C   0  0  0  0  0  0  0  0  0  0  0  0
   22.2220   -6.8440  -13.8861 C   0  0  0  0  0  0  0  0  0  0  0  0
   21.6703   -7.3538  -12.7282 C   0  0  0  0  0  0  0  0  0  0  0  0
   21.6100   -8.7114  -12.5087 C   0  0  0  0  0  0  0  0  0  0  0  0
   22.0961   -9.6122  -13.4321 C   0  0  0  0  0  0  0  0  0  0  0  0
   22.6488   -9.0942  -14.5922 C   0  0  0  0  0  0  0  0  0  0  0  0
   22.7166   -7.7435  -14.8267 C   0  0  0  0  0  0  0  0  0  0  0  0
   20.9866   -3.3610  -14.5326 C   0  0  0  0  0  0  0  0  0  0  0  0
   21.5634   -2.5827  -13.7332 O   0  0  0  0  0  0  0  0  0  0  0  0
   20.3622   -2.8270  -15.6666 O   0  0  0  0  0  0  0  0  0  0  0  0
  2  1  1  0
  2  3  2  0
  4  2  1  0
  5  6  1  6
  5  4  1  0
  7  5  1  0
  8  7  2  0
 10  9  1  0
 11 10  1  0
 11 12  1  0
 13 12  1  1
 13 14  1  0
 14  7  1  0
 15 17  1  0
 15 13  1  0
 16 15  2  0
 18 19  1  6
 18 17  1  0
 20 19  1  0
 20 21  2  0
 22 21  1  0
 23 22  2  0
 24 25  2  0
 24 23  1  0
 25 20  1  0
 26 18  1  0
 26 28  1  0
 27 26  2  0
M  END
$$$$
