NMF.pdb
     RDKit          3D

 28 28  0  0  1  0  0  0  0  0999 V2000
   29.5405  -18.3959  -15.1838 N   0  0  0  0  0  0  0  0  0  0  0  0
   28.1997  -18.3503  -15.6169 C   0  0  0  0  0  0  0  0  0  0  0  0
   27.8207  -17.5378  -16.4936 O   0  0  0  0  0  0  0  0  0  0  0  0
   27.2022  -19.2784  -15.0316 C   0  0  0  0  0  0  0  0  0  0  0  0
   27.8780  -20.1815  -13.9999 C   0  0  2  0  0  0  0  0  0  0  0  0
   28.6680  -21.1165  -14.7347 N   0  0  0  0  0  0  0  0  0  0  0  0
   26.8444  -20.8489  -13.1479 C   0  0  0  0  0  0  0  0  0  0  0  0
   26.2421  -21.7990  -13.6794 O   0  0  0  0  0  0  0  0  0  0  0  0
   26.8322  -19.1577   -7.0561 C   0  0  0  0  0  0  0  0  0  0  0  0
   27.6707  -20.6728   -7.5238 S   0  0  0  0  0  0  0  0  0  0  0  0
   27.0478  -21.2250   -9.1424 C   0  0  0  0  0  0  0  0  0  0  0  0
   25.8006  -20.4697   -9.5292 C   0  0  0  0  0  0  0  0  0  0  0  0
   25.5099  -20.7629  -10.9887 C   0  0  2  0  0  0  0  0  0  0  0  0
   26.5892  -20.4116  -11.8328 N   0  0  0  0  0  0  0  0  0  0  0  0
   24.1749  -20.3629  -11.4365 C   0  0  0  0  0  0  0  0  0  0  0  0
   23.9021  -19.1384  -11.4747 O   0  0  0  0  0  0  0  0  0  0  0  0
   23.1648  -21.2664  -11.8316 N   0  0  0  0  0  0  0  0  0  0  0  0
   21.9020  -20.8829  -12.4466 C   0  0  1  0  0  0  0  0  0  0  0  0
   22.0087  -20.7707  -13.9236 C   0  0  0  0  0  0  0  0  0  0  0  0
   20.7078  -20.3908  -14.5111 C   0  0  0  0  0  0  0  0  0  0  0  0
   20.2820  -19.0900  -14.6891 C   0  0  0  0  0  0  0  0  0  0  0  0
   19.0560  -18.8151  -15.2516 C   0  0  0  0  0  0  0  0  0  0  0  0
   18.2082  -19.8234  -15.6578 C   0  0  0  0  0  0  0  0  0  0  0  0
   18.6413  -21.1269  -15.4764 C   0  0  0  0  0  0  0  0  0  0  0  0
   19.8606  -21.4182  -14.9173 C   0  0  0  0  0  0  0  0  0  0  0  0
   20.8798  -21.8213  -12.0053 C   0  0  0  0  0  0  0  0  0  0  0  0
   21.1034  -23.0573  -12.0050 O   0  0  0  0  0  0  0  0  0  0  0  0
   19.6303  -21.3588  -11.5742 O   0  0  0  0  0  0  0  0  0  0  0  0
  2  1  1  0
  2  3  2  0
  4  2  1  0
  5  6  1  6
  5  4  1  0
  7  5  1  0
  8  7  2  0
 10  9  1  0
 11 10  1  0
 11 12  1  0
 13 12  1  1
 13 14  1  0
 14  7  1  0
 15 17  1  0
 15 13  1  0
 16 15  2  0
 18 19  1  6
 18 17  1  0
 20 19  1  0
 20 21  2  0
 22 21  1  0
 23 22  2  0
 24 25  2  0
 24 23  1  0
 25 20  1  0
 26 18  1  0
 26 28  1  0
 27 26  2  0
M  END
$$$$
