NMF.pdb
     RDKit          3D

 28 28  0  0  1  0  0  0  0  0999 V2000
   29.6155  -20.1860  -19.1719 N   0  0  0  0  0  0  0  0  0  0  0  0
   28.2500  -20.5054  -19.3171 C   0  0  0  0  0  0  0  0  0  0  0  0
   27.5848  -20.1096  -20.3035 O   0  0  0  0  0  0  0  0  0  0  0  0
   27.5701  -21.3280  -18.2875 C   0  0  0  0  0  0  0  0  0  0  0  0
   28.5640  -21.7105  -17.1908 C   0  0  2  0  0  0  0  0  0  0  0  0
   29.2993  -22.8311  -17.6826 N   0  0  0  0  0  0  0  0  0  0  0  0
   27.8334  -22.0165  -15.9211 C   0  0  0  0  0  0  0  0  0  0  0  0
   27.1504  -23.0564  -15.9318 O   0  0  0  0  0  0  0  0  0  0  0  0
   29.8539  -21.6133   -9.5555 C   0  0  0  0  0  0  0  0  0  0  0  0
   28.4350  -20.5237   -9.6855 S   0  0  0  0  0  0  0  0  0  0  0  0
   27.4250  -21.0263  -11.1138 C   0  0  0  0  0  0  0  0  0  0  0  0
   28.1475  -20.7559  -12.4102 C   0  0  0  0  0  0  0  0  0  0  0  0
   27.3005  -21.3066  -13.5415 C   0  0  2  0  0  0  0  0  0  0  0  0
   27.9294  -21.1671  -14.8008 N   0  0  0  0  0  0  0  0  0  0  0  0
   25.8844  -20.9419  -13.4759 C   0  0  0  0  0  0  0  0  0  0  0  0
   25.5442  -19.8021  -13.8766 O   0  0  0  0  0  0  0  0  0  0  0  0
   24.8665  -21.7903  -12.9893 N   0  0  0  0  0  0  0  0  0  0  0  0
   23.4703  -21.4077  -12.8341 C   0  0  1  0  0  0  0  0  0  0  0  0
   22.6775  -22.4503  -12.1343 C   0  0  0  0  0  0  0  0  0  0  0  0
   21.2756  -22.0146  -11.9706 C   0  0  0  0  0  0  0  0  0  0  0  0
   20.2807  -22.2187  -12.9053 C   0  0  0  0  0  0  0  0  0  0  0  0
   18.9932  -21.7885  -12.6770 C   0  0  0  0  0  0  0  0  0  0  0  0
   18.6473  -21.1394  -11.5109 C   0  0  0  0  0  0  0  0  0  0  0  0
   19.6504  -20.9374  -10.5768 C   0  0  0  0  0  0  0  0  0  0  0  0
   20.9390  -21.3601  -10.7888 C   0  0  0  0  0  0  0  0  0  0  0  0
   23.4268  -20.1064  -12.1821 C   0  0  0  0  0  0  0  0  0  0  0  0
   24.1055  -19.8859  -11.1484 O   0  0  0  0  0  0  0  0  0  0  0  0
   22.6264  -19.0800  -12.6989 O   0  0  0  0  0  0  0  0  0  0  0  0
  2  1  1  0
  2  3  2  0
  4  2  1  0
  5  6  1  6
  5  4  1  0
  7  5  1  0
  8  7  2  0
 10  9  1  0
 11 10  1  0
 11 12  1  0
 13 12  1  1
 13 14  1  0
 14  7  1  0
 15 17  1  0
 15 13  1  0
 16 15  2  0
 18 19  1  1
 18 17  1  0
 20 19  1  0
 20 21  2  0
 22 21  1  0
 23 22  2  0
 24 25  2  0
 24 23  1  0
 25 20  1  0
 26 18  1  0
 26 28  1  0
 27 26  2  0
M  END
$$$$
