NMF.pdb
     RDKit          3D

 28 28  0  0  1  0  0  0  0  0999 V2000
   24.9145  -20.1279  -16.2048 N   0  0  0  0  0  0  0  0  0  0  0  0
   25.2574  -19.0599  -15.3508 C   0  0  0  0  0  0  0  0  0  0  0  0
   24.5287  -18.0451  -15.2442 O   0  0  0  0  0  0  0  0  0  0  0  0
   26.5059  -19.1232  -14.5532 C   0  0  0  0  0  0  0  0  0  0  0  0
   27.1992  -20.4662  -14.7822 C   0  0  2  0  0  0  0  0  0  0  0  0
   26.4007  -21.1791  -15.7269 N   0  0  0  0  0  0  0  0  0  0  0  0
   27.3414  -21.1974  -13.4841 C   0  0  0  0  0  0  0  0  0  0  0  0
   26.4155  -21.9801  -13.2044 O   0  0  0  0  0  0  0  0  0  0  0  0
   32.9637  -22.6716  -10.3388 C   0  0  0  0  0  0  0  0  0  0  0  0
   31.9261  -22.1444   -8.9740 S   0  0  0  0  0  0  0  0  0  0  0  0
   30.1971  -22.0593   -9.5365 C   0  0  0  0  0  0  0  0  0  0  0  0
   30.1049  -21.4507  -10.9137 C   0  0  0  0  0  0  0  0  0  0  0  0
   28.6422  -21.4188  -11.3141 C   0  0  2  0  0  0  0  0  0  0  0  0
   28.4601  -20.9956  -12.6515 N   0  0  0  0  0  0  0  0  0  0  0  0
   27.7499  -20.8274  -10.3158 C   0  0  0  0  0  0  0  0  0  0  0  0
   27.4655  -19.6092  -10.4189 O   0  0  0  0  0  0  0  0  0  0  0  0
   27.1822  -21.5380   -9.2362 N   0  0  0  0  0  0  0  0  0  0  0  0
   26.2447  -20.9767   -8.2740 C   0  0  1  0  0  0  0  0  0  0  0  0
   26.5541  -19.5610   -7.9497 C   0  0  0  0  0  0  0  0  0  0  0  0
   27.4747  -19.4811   -6.7973 C   0  0  0  0  0  0  0  0  0  0  0  0
   28.2886  -18.4008   -6.5220 C   0  0  0  0  0  0  0  0  0  0  0  0
   29.1164  -18.3979   -5.4222 C   0  0  0  0  0  0  0  0  0  0  0  0
   29.1658  -19.4689   -4.5556 C   0  0  0  0  0  0  0  0  0  0  0  0
   28.3467  -20.5502   -4.8375 C   0  0  0  0  0  0  0  0  0  0  0  0
   27.5154  -20.5691   -5.9296 C   0  0  0  0  0  0  0  0  0  0  0  0
   24.8961  -21.1765   -8.7857 C   0  0  0  0  0  0  0  0  0  0  0  0
   24.6909  -21.2930  -10.0194 O   0  0  0  0  0  0  0  0  0  0  0  0
   23.8066  -21.2418   -7.9085 O   0  0  0  0  0  0  0  0  0  0  0  0
  2  1  1  0
  2  3  2  0
  4  2  1  0
  5  6  1  6
  5  4  1  0
  7  5  1  0
  8  7  2  0
 10  9  1  0
 11 10  1  0
 11 12  1  0
 13 12  1  1
 13 14  1  0
 14  7  1  0
 15 17  1  0
 15 13  1  0
 16 15  2  0
 18 19  1  6
 18 17  1  0
 20 19  1  0
 20 21  2  0
 22 21  1  0
 23 22  2  0
 24 25  2  0
 24 23  1  0
 25 20  1  0
 26 18  1  0
 26 28  1  0
 27 26  2  0
M  END
$$$$
