NMF.pdb
     RDKit          3D

 28 28  0  0  1  0  0  0  0  0999 V2000
   28.5112  -16.9202  -15.7246 N   0  0  0  0  0  0  0  0  0  0  0  0
   27.1777  -17.3221  -15.5059 C   0  0  0  0  0  0  0  0  0  0  0  0
   26.2475  -16.9468  -16.2584 O   0  0  0  0  0  0  0  0  0  0  0  0
   26.8512  -18.2092  -14.3634 C   0  0  0  0  0  0  0  0  0  0  0  0
   27.4684  -19.5898  -14.5869 C   0  0  2  0  0  0  0  0  0  0  0  0
   26.7392  -20.1919  -15.6565 N   0  0  0  0  0  0  0  0  0  0  0  0
   27.4018  -20.3913  -13.3249 C   0  0  0  0  0  0  0  0  0  0  0  0
   26.3036  -20.9244  -13.0846 O   0  0  0  0  0  0  0  0  0  0  0  0
   32.7767  -21.0284   -9.5488 C   0  0  0  0  0  0  0  0  0  0  0  0
   31.6557  -22.1214   -8.6737 S   0  0  0  0  0  0  0  0  0  0  0  0
   29.9793  -21.9282   -9.3558 C   0  0  0  0  0  0  0  0  0  0  0  0
   30.0210  -21.2952  -10.7244 C   0  0  0  0  0  0  0  0  0  0  0  0
   28.5924  -21.1243  -11.2046 C   0  0  2  0  0  0  0  0  0  0  0  0
   28.5233  -20.5191  -12.4812 N   0  0  0  0  0  0  0  0  0  0  0  0
   27.6655  -20.6173  -10.1915 C   0  0  0  0  0  0  0  0  0  0  0  0
   27.6030  -19.3770  -10.0095 O   0  0  0  0  0  0  0  0  0  0  0  0
   26.8300  -21.4333   -9.3985 N   0  0  0  0  0  0  0  0  0  0  0  0
   25.9757  -20.9500   -8.3232 C   0  0  1  0  0  0  0  0  0  0  0  0
   26.6059  -19.8422   -7.5610 C   0  0  0  0  0  0  0  0  0  0  0  0
   27.2831  -20.3606   -6.3549 C   0  0  0  0  0  0  0  0  0  0  0  0
   27.0585  -21.6083   -5.8093 C   0  0  0  0  0  0  0  0  0  0  0  0
   27.7353  -22.0236   -4.6848 C   0  0  0  0  0  0  0  0  0  0  0  0
   28.6604  -21.2136   -4.0613 C   0  0  0  0  0  0  0  0  0  0  0  0
   28.8813  -19.9623   -4.6138 C   0  0  0  0  0  0  0  0  0  0  0  0
   28.2151  -19.5330   -5.7344 C   0  0  0  0  0  0  0  0  0  0  0  0
   24.6816  -20.6032   -8.8936 C   0  0  0  0  0  0  0  0  0  0  0  0
   23.7278  -20.2580   -8.1528 O   0  0  0  0  0  0  0  0  0  0  0  0
   24.4812  -20.6496  -10.2788 O   0  0  0  0  0  0  0  0  0  0  0  0
  2  1  1  0
  2  3  2  0
  4  2  1  0
  5  6  1  6
  5  4  1  0
  7  5  1  0
  8  7  2  0
 10  9  1  0
 11 10  1  0
 11 12  1  0
 13 12  1  1
 13 14  1  0
 14  7  1  0
 15 17  1  0
 15 13  1  0
 16 15  2  0
 18 19  1  6
 18 17  1  0
 20 19  1  0
 20 21  2  0
 22 21  1  0
 23 22  2  0
 24 25  2  0
 24 23  1  0
 25 20  1  0
 26 18  1  0
 26 28  1  0
 27 26  2  0
M  END
$$$$
