NMF.pdb
     RDKit          3D

 28 28  0  0  1  0  0  0  0  0999 V2000
   20.2458  -15.5025  -18.6595 N   0  0  0  0  0  0  0  0  0  0  0  0
   20.3240  -15.6020  -17.2554 C   0  0  0  0  0  0  0  0  0  0  0  0
   19.7221  -16.5049  -16.6271 O   0  0  0  0  0  0  0  0  0  0  0  0
   21.1329  -14.6235  -16.4892 C   0  0  0  0  0  0  0  0  0  0  0  0
   21.7191  -13.5793  -17.4393 C   0  0  2  0  0  0  0  0  0  0  0  0
   22.7854  -14.2207  -18.1392 N   0  0  0  0  0  0  0  0  0  0  0  0
   22.1784  -12.3832  -16.6660 C   0  0  0  0  0  0  0  0  0  0  0  0
   21.3165  -11.8439  -15.9489 O   0  0  0  0  0  0  0  0  0  0  0  0
   28.3205  -12.4502  -17.0954 C   0  0  0  0  0  0  0  0  0  0  0  0
   27.7848  -12.3444  -15.3869 S   0  0  0  0  0  0  0  0  0  0  0  0
   25.9835  -12.0871  -15.3406 C   0  0  0  0  0  0  0  0  0  0  0  0
   25.5934  -10.8481  -16.1075 C   0  0  0  0  0  0  0  0  0  0  0  0
   24.0786  -10.7800  -16.1472 C   0  0  2  0  0  0  0  0  0  0  0  0
   23.5053  -11.9184  -16.7605 N   0  0  0  0  0  0  0  0  0  0  0  0
   23.5373   -9.4806  -16.5491 C   0  0  0  0  0  0  0  0  0  0  0  0
   23.7299   -9.0945  -17.7277 O   0  0  0  0  0  0  0  0  0  0  0  0
   22.8077   -8.6249  -15.6960 N   0  0  0  0  0  0  0  0  0  0  0  0
   22.1802   -7.3779  -16.1096 C   0  0  1  0  0  0  0  0  0  0  0  0
   21.1571   -7.5881  -17.1653 C   0  0  0  0  0  0  0  0  0  0  0  0
   20.5129   -6.3089  -17.5267 C   0  0  0  0  0  0  0  0  0  0  0  0
   21.1249   -5.3029  -18.2468 C   0  0  0  0  0  0  0  0  0  0  0  0
   20.4552   -4.1394  -18.5511 C   0  0  0  0  0  0  0  0  0  0  0  0
   19.1523   -3.9330  -18.1506 C   0  0  0  0  0  0  0  0  0  0  0  0
   18.5435   -4.9464  -17.4280 C   0  0  0  0  0  0  0  0  0  0  0  0
   19.1970   -6.1125  -17.1163 C   0  0  0  0  0  0  0  0  0  0  0  0
   21.6637   -6.7144  -14.9208 C   0  0  0  0  0  0  0  0  0  0  0  0
   21.2647   -7.3849  -13.9364 O   0  0  0  0  0  0  0  0  0  0  0  0
   21.6041   -5.3167  -14.8574 O   0  0  0  0  0  0  0  0  0  0  0  0
  2  1  1  0
  2  3  2  0
  4  2  1  0
  5  6  1  1
  5  4  1  0
  7  5  1  0
  8  7  2  0
 10  9  1  0
 11 10  1  0
 11 12  1  0
 13 12  1  6
 13 14  1  0
 14  7  1  0
 15 17  1  0
 15 13  1  0
 16 15  2  0
 18 19  1  6
 18 17  1  0
 20 19  1  0
 20 21  2  0
 22 21  1  0
 23 22  2  0
 24 25  2  0
 24 23  1  0
 25 20  1  0
 26 18  1  0
 26 28  1  0
 27 26  2  0
M  END
$$$$
