NMF.pdb
     RDKit          3D

 28 28  0  0  1  0  0  0  0  0999 V2000
   15.5160   -8.6983  -19.0315 N   0  0  0  0  0  0  0  0  0  0  0  0
   14.7494   -9.4124  -18.0881 C   0  0  0  0  0  0  0  0  0  0  0  0
   13.8132  -10.1684  -18.4406 O   0  0  0  0  0  0  0  0  0  0  0  0
   15.0448   -9.2768  -16.6413 C   0  0  0  0  0  0  0  0  0  0  0  0
   16.2071  -10.1943  -16.2619 C   0  0  2  0  0  0  0  0  0  0  0  0
   15.6620  -11.5075  -16.1328 N   0  0  0  0  0  0  0  0  0  0  0  0
   16.8486   -9.7130  -14.9984 C   0  0  0  0  0  0  0  0  0  0  0  0
   16.2217   -9.9558  -13.9515 O   0  0  0  0  0  0  0  0  0  0  0  0
   23.0344   -8.6574  -10.9772 C   0  0  0  0  0  0  0  0  0  0  0  0
   22.3008   -9.1261  -12.5455 S   0  0  0  0  0  0  0  0  0  0  0  0
   20.9893   -7.9376  -12.9702 C   0  0  0  0  0  0  0  0  0  0  0  0
   20.2841   -8.3405  -14.2414 C   0  0  0  0  0  0  0  0  0  0  0  0
   18.8098   -8.5073  -13.9259 C   0  0  2  0  0  0  0  0  0  0  0  0
   18.0823   -9.0323  -15.0195 N   0  0  0  0  0  0  0  0  0  0  0  0
   18.2049   -7.3743  -13.2238 C   0  0  0  0  0  0  0  0  0  0  0  0
   17.7880   -6.4060  -13.9049 O   0  0  0  0  0  0  0  0  0  0  0  0
   18.0564   -7.2947  -11.8223 N   0  0  0  0  0  0  0  0  0  0  0  0
   17.4779   -6.1633  -11.1116 C   0  0  1  0  0  0  0  0  0  0  0  0
   17.3479   -6.4230   -9.6551 C   0  0  0  0  0  0  0  0  0  0  0  0
   16.8117   -5.2343   -8.9612 C   0  0  0  0  0  0  0  0  0  0  0  0
   17.5853   -4.2017   -8.4710 C   0  0  0  0  0  0  0  0  0  0  0  0
   17.0103   -3.1215   -7.8405 C   0  0  0  0  0  0  0  0  0  0  0  0
   15.6450   -3.0282   -7.6739 C   0  0  0  0  0  0  0  0  0  0  0  0
   14.8740   -4.0680   -8.1680 C   0  0  0  0  0  0  0  0  0  0  0  0
   15.4314   -5.1519   -8.7993 C   0  0  0  0  0  0  0  0  0  0  0  0
   18.2665   -4.9800  -11.4250 C   0  0  0  0  0  0  0  0  0  0  0  0
   19.5210   -5.0358  -11.4506 O   0  0  0  0  0  0  0  0  0  0  0  0
   17.6366   -3.7605  -11.7028 O   0  0  0  0  0  0  0  0  0  0  0  0
  2  1  1  0
  2  3  2  0
  4  2  1  0
  5  6  1  1
  5  4  1  0
  7  5  1  0
  8  7  2  0
 10  9  1  0
 11 10  1  0
 11 12  1  0
 13 12  1  6
 13 14  1  0
 14  7  1  0
 15 17  1  0
 15 13  1  0
 16 15  2  0
 18 19  1  1
 18 17  1  0
 20 19  1  0
 20 21  2  0
 22 21  1  0
 23 22  2  0
 24 25  2  0
 24 23  1  0
 25 20  1  0
 26 18  1  0
 26 28  1  0
 27 26  2  0
M  END
$$$$
