KFG.pdb
     RDKit          3D

 25 25  0  0  1  0  0  0  0  0999 V2000
    6.9708  -15.8357   21.2225 N   0  0  0  0  0  0  0  0  0  0  0  0
    7.9118  -14.7517   21.1797 C   0  0  1  0  0  0  0  0  0  0  0  0
    7.2982  -13.4375   20.8287 C   0  0  0  0  0  0  0  0  0  0  0  0
    7.7189  -12.8651   19.5168 C   0  0  0  0  0  0  0  0  0  0  0  0
    7.3739  -13.6881   18.3186 C   0  0  0  0  0  0  0  0  0  0  0  0
    7.8906  -13.0470   17.0569 C   0  0  0  0  0  0  0  0  0  0  0  0
    7.5876  -13.8772   15.9151 N   0  0  0  0  0  0  0  0  0  0  0  0
    8.6070  -14.6634   22.4880 C   0  0  0  0  0  0  0  0  0  0  0  0
    9.4948  -13.8074   22.6425 O   0  0  0  0  0  0  0  0  0  0  0  0
    8.3149  -15.5058   23.5818 N   0  0  0  0  0  0  0  0  0  0  0  0
    9.0893  -15.4379   24.7771 C   0  0  1  0  0  0  0  0  0  0  0  0
    8.2122  -15.2685   25.9953 C   0  0  0  0  0  0  0  0  0  0  0  0
    7.6125  -13.9390   26.1293 C   0  0  0  0  0  0  0  0  0  0  0  0
    8.2974  -12.8005   26.4786 C   0  0  0  0  0  0  0  0  0  0  0  0
    7.6749  -11.5856   26.5817 C   0  0  0  0  0  0  0  0  0  0  0  0
    6.3389  -11.4830   26.3347 C   0  0  0  0  0  0  0  0  0  0  0  0
    5.6075  -12.5951   25.9810 C   0  0  0  0  0  0  0  0  0  0  0  0
    6.2586  -13.8002   25.8855 C   0  0  0  0  0  0  0  0  0  0  0  0
   10.0058  -16.5736   24.8486 C   0  0  0  0  0  0  0  0  0  0  0  0
    9.6864  -17.7211   25.2746 O   0  0  0  0  0  0  0  0  0  0  0  0
   11.3564  -16.4126   24.4177 N   0  0  0  0  0  0  0  0  0  0  0  0
   12.2755  -17.5304   24.4791 C   0  0  0  0  0  0  0  0  0  0  0  0
   13.6347  -17.1595   24.0232 C   0  0  0  0  0  0  0  0  0  0  0  0
   14.5192  -16.6835   24.7783 O   0  0  0  0  0  0  0  0  0  0  0  0
   13.9680  -17.3410   22.6898 O   0  0  0  0  0  0  0  0  0  0  0  0
  2  3  1  0
  2  1  1  1
  4  3  1  0
  5  4  1  0
  6  7  1  0
  6  5  1  0
  8  2  1  0
  9  8  2  0
 10  8  1  0
 11 10  1  0
 11 12  1  1
 12 13  1  0
 13 18  2  0
 14 13  1  0
 14 15  2  0
 15 16  1  0
 16 17  2  0
 18 17  1  0
 19 20  2  0
 19 11  1  0
 21 19  1  0
 22 21  1  0
 23 22  1  0
 23 25  1  0
 24 23  2  0
M  END
$$$$
