KFG.pdb
     RDKit          3D

 25 25  0  0  1  0  0  0  0  0999 V2000
    7.6761  -18.1742   21.4893 N   0  0  0  0  0  0  0  0  0  0  0  0
    8.6643  -17.2434   21.0210 C   0  0  1  0  0  0  0  0  0  0  0  0
    8.4039  -16.7337   19.6429 C   0  0  0  0  0  0  0  0  0  0  0  0
    7.5795  -17.6254   18.7763 C   0  0  0  0  0  0  0  0  0  0  0  0
    8.0572  -17.7701   17.3681 C   0  0  0  0  0  0  0  0  0  0  0  0
    7.1677  -18.7047   16.5901 C   0  0  0  0  0  0  0  0  0  0  0  0
    7.5189  -18.6778   15.1899 N   0  0  0  0  0  0  0  0  0  0  0  0
    8.7570  -16.1141   21.9797 C   0  0  0  0  0  0  0  0  0  0  0  0
    9.5716  -15.2015   21.7595 O   0  0  0  0  0  0  0  0  0  0  0  0
    7.9633  -16.0143   23.1423 N   0  0  0  0  0  0  0  0  0  0  0  0
    8.1209  -14.9149   24.0363 C   0  0  1  0  0  0  0  0  0  0  0  0
    6.7869  -14.4159   24.5398 C   0  0  0  0  0  0  0  0  0  0  0  0
    6.8724  -13.2659   25.4429 C   0  0  0  0  0  0  0  0  0  0  0  0
    7.5386  -12.0971   25.1645 C   0  0  0  0  0  0  0  0  0  0  0  0
    7.5754  -11.0569   26.0537 C   0  0  0  0  0  0  0  0  0  0  0  0
    6.9393  -11.1653   27.2537 C   0  0  0  0  0  0  0  0  0  0  0  0
    6.2575  -12.3165   27.5803 C   0  0  0  0  0  0  0  0  0  0  0  0
    6.2377  -13.3432   26.6688 C   0  0  0  0  0  0  0  0  0  0  0  0
    9.0729  -15.2559   25.0910 C   0  0  0  0  0  0  0  0  0  0  0  0
    9.5255  -14.4307   25.9362 O   0  0  0  0  0  0  0  0  0  0  0  0
    9.5431  -16.5982   25.2036 N   0  0  0  0  0  0  0  0  0  0  0  0
   10.4825  -16.9525   26.2476 C   0  0  0  0  0  0  0  0  0  0  0  0
   10.8865  -18.3753   26.1739 C   0  0  0  0  0  0  0  0  0  0  0  0
   11.1056  -18.9844   25.0969 O   0  0  0  0  0  0  0  0  0  0  0  0
   11.0364  -19.0920   27.3511 O   0  0  0  0  0  0  0  0  0  0  0  0
  2  3  1  0
  2  1  1  1
  4  3  1  0
  5  4  1  0
  6  7  1  0
  6  5  1  0
  8  2  1  0
  9  8  2  0
 10  8  1  0
 11 10  1  0
 11 12  1  1
 12 13  1  0
 13 18  2  0
 14 13  1  0
 14 15  2  0
 15 16  1  0
 16 17  2  0
 18 17  1  0
 19 20  2  0
 19 11  1  0
 21 19  1  0
 22 21  1  0
 23 22  1  0
 23 25  1  0
 24 23  2  0
M  END
$$$$
