KFG.pdb
     RDKit          3D

 25 25  0  0  1  0  0  0  0  0999 V2000
    7.4439  -16.4764   21.2218 N   0  0  0  0  0  0  0  0  0  0  0  0
    8.5062  -15.5112   21.1781 C   0  0  1  0  0  0  0  0  0  0  0  0
    8.1566  -14.2666   20.4327 C   0  0  0  0  0  0  0  0  0  0  0  0
    7.7351  -14.4667   19.0157 C   0  0  0  0  0  0  0  0  0  0  0  0
    7.9807  -13.3084   18.1046 C   0  0  0  0  0  0  0  0  0  0  0  0
    7.4593  -13.5913   16.7197 C   0  0  0  0  0  0  0  0  0  0  0  0
    7.5676  -12.4112   15.8950 N   0  0  0  0  0  0  0  0  0  0  0  0
    8.9179  -15.1829   22.5658 C   0  0  0  0  0  0  0  0  0  0  0  0
    9.7038  -14.2386   22.7542 O   0  0  0  0  0  0  0  0  0  0  0  0
    8.4630  -15.8896   23.6994 N   0  0  0  0  0  0  0  0  0  0  0  0
    8.9260  -15.5453   25.0032 C   0  0  1  0  0  0  0  0  0  0  0  0
    7.7770  -15.3476   25.9638 C   0  0  0  0  0  0  0  0  0  0  0  0
    7.3308  -13.9588   26.0962 C   0  0  0  0  0  0  0  0  0  0  0  0
    6.0278  -13.5388   25.9828 C   0  0  0  0  0  0  0  0  0  0  0  0
    5.6780  -12.2227   26.1226 C   0  0  0  0  0  0  0  0  0  0  0  0
    6.6353  -11.2884   26.3817 C   0  0  0  0  0  0  0  0  0  0  0  0
    7.9561  -11.6588   26.5045 C   0  0  0  0  0  0  0  0  0  0  0  0
    8.2773  -12.9858   26.3594 C   0  0  0  0  0  0  0  0  0  0  0  0
    9.9272  -16.5097   25.4529 C   0  0  0  0  0  0  0  0  0  0  0  0
   10.6158  -16.3829   26.5065 O   0  0  0  0  0  0  0  0  0  0  0  0
   10.1693  -17.6823   24.6770 N   0  0  0  0  0  0  0  0  0  0  0  0
   11.5080  -17.9804   24.2113 C   0  0  0  0  0  0  0  0  0  0  0  0
   12.2623  -18.8101   25.1785 C   0  0  0  0  0  0  0  0  0  0  0  0
   11.7913  -19.2091   26.2730 O   0  0  0  0  0  0  0  0  0  0  0  0
   13.5644  -19.1770   24.8755 O   0  0  0  0  0  0  0  0  0  0  0  0
  2  3  1  0
  2  1  1  1
  4  3  1  0
  5  4  1  0
  6  7  1  0
  6  5  1  0
  8  2  1  0
  9  8  2  0
 10  8  1  0
 11 10  1  0
 11 12  1  1
 12 13  1  0
 13 18  2  0
 14 13  1  0
 14 15  2  0
 15 16  1  0
 16 17  2  0
 18 17  1  0
 19 20  2  0
 19 11  1  0
 21 19  1  0
 22 21  1  0
 23 22  1  0
 23 25  1  0
 24 23  2  0
M  END
$$$$
