KFG.pdb
     RDKit          3D

 25 25  0  0  1  0  0  0  0  0999 V2000
    8.4227  -16.5688   20.2113 N   0  0  0  0  0  0  0  0  0  0  0  0
    9.4665  -15.5858   20.2913 C   0  0  1  0  0  0  0  0  0  0  0  0
    9.4029  -14.5535   19.2156 C   0  0  0  0  0  0  0  0  0  0  0  0
    8.6407  -14.9473   17.9952 C   0  0  0  0  0  0  0  0  0  0  0  0
    8.5984  -13.9234   16.9081 C   0  0  0  0  0  0  0  0  0  0  0  0
    7.6600  -14.3441   15.8070 C   0  0  0  0  0  0  0  0  0  0  0  0
    7.5457  -13.2956   14.8210 N   0  0  0  0  0  0  0  0  0  0  0  0
    9.4221  -14.9416   21.6277 C   0  0  0  0  0  0  0  0  0  0  0  0
   10.2132  -14.0161   21.8776 O   0  0  0  0  0  0  0  0  0  0  0  0
    8.5219  -15.3235   22.6451 N   0  0  0  0  0  0  0  0  0  0  0  0
    8.4640  -14.5996   23.8721 C   0  0  1  0  0  0  0  0  0  0  0  0
    7.0625  -14.1175   24.1643 C   0  0  0  0  0  0  0  0  0  0  0  0
    6.9561  -13.2360   25.3291 C   0  0  0  0  0  0  0  0  0  0  0  0
    6.1412  -13.4610   26.4120 C   0  0  0  0  0  0  0  0  0  0  0  0
    6.0931  -12.5965   27.4723 C   0  0  0  0  0  0  0  0  0  0  0  0
    6.8681  -11.4759   27.4717 C   0  0  0  0  0  0  0  0  0  0  0  0
    7.7020  -11.2052   26.4096 C   0  0  0  0  0  0  0  0  0  0  0  0
    7.7294  -12.0902   25.3601 C   0  0  0  0  0  0  0  0  0  0  0  0
    9.0675  -15.3828   24.9479 C   0  0  0  0  0  0  0  0  0  0  0  0
    8.9935  -15.0837   26.1748 O   0  0  0  0  0  0  0  0  0  0  0  0
    9.7946  -16.5682   24.6290 N   0  0  0  0  0  0  0  0  0  0  0  0
   10.4497  -17.3218   25.6782 C   0  0  0  0  0  0  0  0  0  0  0  0
   11.2110  -18.4741   25.1441 C   0  0  0  0  0  0  0  0  0  0  0  0
   11.4616  -18.6408   23.9241 O   0  0  0  0  0  0  0  0  0  0  0  0
   11.6821  -19.4341   26.0265 O   0  0  0  0  0  0  0  0  0  0  0  0
  2  3  1  0
  2  1  1  6
  4  3  1  0
  5  4  1  0
  6  7  1  0
  6  5  1  0
  8  2  1  0
  9  8  2  0
 10  8  1  0
 11 10  1  0
 11 12  1  1
 12 13  1  0
 13 18  2  0
 14 13  1  0
 14 15  2  0
 15 16  1  0
 16 17  2  0
 18 17  1  0
 19 20  2  0
 19 11  1  0
 21 19  1  0
 22 21  1  0
 23 22  1  0
 23 25  1  0
 24 23  2  0
M  END
$$$$
