KFG.pdb
     RDKit          3D

 25 25  0  0  1  0  0  0  0  0999 V2000
    8.2935  -13.0649   20.0237 N   0  0  0  0  0  0  0  0  0  0  0  0
    7.7422  -14.2139   20.6856 C   0  0  1  0  0  0  0  0  0  0  0  0
    7.9552  -15.4926   19.9465 C   0  0  0  0  0  0  0  0  0  0  0  0
    7.4038  -15.5300   18.5608 C   0  0  0  0  0  0  0  0  0  0  0  0
    7.4868  -16.8541   17.8738 C   0  0  0  0  0  0  0  0  0  0  0  0
    6.8633  -17.9379   18.7143 C   0  0  0  0  0  0  0  0  0  0  0  0
    6.8189  -19.1782   17.9765 N   0  0  0  0  0  0  0  0  0  0  0  0
    8.3156  -14.3060   22.0516 C   0  0  0  0  0  0  0  0  0  0  0  0
    9.4068  -13.7590   22.2856 O   0  0  0  0  0  0  0  0  0  0  0  0
    7.6855  -14.9873   23.1147 N   0  0  0  0  0  0  0  0  0  0  0  0
    8.2336  -14.9443   24.4302 C   0  0  1  0  0  0  0  0  0  0  0  0
    7.1550  -14.7682   25.4732 C   0  0  0  0  0  0  0  0  0  0  0  0
    6.9485  -13.3832   25.9026 C   0  0  0  0  0  0  0  0  0  0  0  0
    7.9375  -12.4343   25.9949 C   0  0  0  0  0  0  0  0  0  0  0  0
    7.6745  -11.1533   26.4000 C   0  0  0  0  0  0  0  0  0  0  0  0
    6.4020  -10.7907   26.7249 C   0  0  0  0  0  0  0  0  0  0  0  0
    5.3750  -11.7053   26.6488 C   0  0  0  0  0  0  0  0  0  0  0  0
    5.6687  -12.9825   26.2394 C   0  0  0  0  0  0  0  0  0  0  0  0
    9.1023  -16.0980   24.6518 C   0  0  0  0  0  0  0  0  0  0  0  0
    9.5973  -16.4123   25.7727 O   0  0  0  0  0  0  0  0  0  0  0  0
    9.4341  -16.9467   23.5540 N   0  0  0  0  0  0  0  0  0  0  0  0
   10.3350  -18.0643   23.7475 C   0  0  0  0  0  0  0  0  0  0  0  0
   11.7249  -17.6216   24.0023 C   0  0  0  0  0  0  0  0  0  0  0  0
   12.3078  -16.7307   23.3348 O   0  0  0  0  0  0  0  0  0  0  0  0
   12.4392  -18.2132   25.0328 O   0  0  0  0  0  0  0  0  0  0  0  0
  2  3  1  0
  2  1  1  6
  4  3  1  0
  5  4  1  0
  6  7  1  0
  6  5  1  0
  8  2  1  0
  9  8  2  0
 10  8  1  0
 11 10  1  0
 11 12  1  1
 12 13  1  0
 13 18  2  0
 14 13  1  0
 14 15  2  0
 15 16  1  0
 16 17  2  0
 18 17  1  0
 19 20  2  0
 19 11  1  0
 21 19  1  0
 22 21  1  0
 23 22  1  0
 23 25  1  0
 24 23  2  0
M  END
$$$$
