KFG.pdb
     RDKit          3D

 25 25  0  0  1  0  0  0  0  0999 V2000
    8.8566  -12.9883   18.7254 N   0  0  0  0  0  0  0  0  0  0  0  0
    8.3127  -14.1404   19.3879 C   0  0  1  0  0  0  0  0  0  0  0  0
    8.7441  -15.4372   18.7887 C   0  0  0  0  0  0  0  0  0  0  0  0
    8.7369  -15.4868   17.2976 C   0  0  0  0  0  0  0  0  0  0  0  0
    9.0773  -16.8126   16.6991 C   0  0  0  0  0  0  0  0  0  0  0  0
    8.9008  -16.7904   15.2030 C   0  0  0  0  0  0  0  0  0  0  0  0
    7.4973  -16.7477   14.8667 N   0  0  0  0  0  0  0  0  0  0  0  0
    8.6792  -14.0891   20.8253 C   0  0  0  0  0  0  0  0  0  0  0  0
    9.8077  -13.6783   21.1455 O   0  0  0  0  0  0  0  0  0  0  0  0
    7.8094  -14.4846   21.8638 N   0  0  0  0  0  0  0  0  0  0  0  0
    8.0350  -14.0519   23.2035 C   0  0  1  0  0  0  0  0  0  0  0  0
    6.8603  -13.2653   23.7357 C   0  0  0  0  0  0  0  0  0  0  0  0
    7.0103  -12.8169   25.1220 C   0  0  0  0  0  0  0  0  0  0  0  0
    8.0823  -12.1069   25.6057 C   0  0  0  0  0  0  0  0  0  0  0  0
    8.1574  -11.7141   26.9149 C   0  0  0  0  0  0  0  0  0  0  0  0
    7.1503  -12.0269   27.7777 C   0  0  0  0  0  0  0  0  0  0  0  0
    6.0538  -12.7371   27.3417 C   0  0  0  0  0  0  0  0  0  0  0  0
    6.0057  -13.1177   26.0233 C   0  0  0  0  0  0  0  0  0  0  0  0
    8.4291  -15.1841   24.0387 C   0  0  0  0  0  0  0  0  0  0  0  0
    8.5256  -15.1400   25.2993 O   0  0  0  0  0  0  0  0  0  0  0  0
    8.7318  -16.4361   23.4251 N   0  0  0  0  0  0  0  0  0  0  0  0
    8.9805  -17.6043   24.2445 C   0  0  0  0  0  0  0  0  0  0  0  0
   10.3936  -17.6892   24.6790 C   0  0  0  0  0  0  0  0  0  0  0  0
   11.2668  -16.8340   24.3871 O   0  0  0  0  0  0  0  0  0  0  0  0
   10.7939  -18.7675   25.4530 O   0  0  0  0  0  0  0  0  0  0  0  0
  2  3  1  0
  2  1  1  6
  4  3  1  0
  5  4  1  0
  6  7  1  0
  6  5  1  0
  8  2  1  0
  9  8  2  0
 10  8  1  0
 11 10  1  0
 11 12  1  1
 12 13  1  0
 13 18  2  0
 14 13  1  0
 14 15  2  0
 15 16  1  0
 16 17  2  0
 18 17  1  0
 19 20  2  0
 19 11  1  0
 21 19  1  0
 22 21  1  0
 23 22  1  0
 23 25  1  0
 24 23  2  0
M  END
$$$$
