KFG.pdb
     RDKit          3D

 25 25  0  0  1  0  0  0  0  0999 V2000
    6.8810  -14.0665   20.4337 N   0  0  0  0  0  0  0  0  0  0  0  0
    6.9689  -15.2633   21.2225 C   0  0  1  0  0  0  0  0  0  0  0  0
    7.4243  -16.4579   20.4528 C   0  0  0  0  0  0  0  0  0  0  0  0
    6.3367  -17.3397   19.9378 C   0  0  0  0  0  0  0  0  0  0  0  0
    6.7913  -18.6144   19.3048 C   0  0  0  0  0  0  0  0  0  0  0  0
    7.3823  -19.5456   20.3312 C   0  0  0  0  0  0  0  0  0  0  0  0
    7.7370  -20.8037   19.7181 N   0  0  0  0  0  0  0  0  0  0  0  0
    7.8715  -15.0173   22.3748 C   0  0  0  0  0  0  0  0  0  0  0  0
    8.9085  -14.3553   22.1978 O   0  0  0  0  0  0  0  0  0  0  0  0
    7.6177  -15.4972   23.6773 N   0  0  0  0  0  0  0  0  0  0  0  0
    8.5003  -15.1816   24.7517 C   0  0  1  0  0  0  0  0  0  0  0  0
    7.7414  -14.9111   26.0295 C   0  0  0  0  0  0  0  0  0  0  0  0
    7.2164  -13.5485   26.1448 C   0  0  0  0  0  0  0  0  0  0  0  0
    7.9873  -12.4180   26.2666 C   0  0  0  0  0  0  0  0  0  0  0  0
    7.4309  -11.1712   26.3658 C   0  0  0  0  0  0  0  0  0  0  0  0
    6.0762  -11.0274   26.3451 C   0  0  0  0  0  0  0  0  0  0  0  0
    5.2596  -12.1299   26.2247 C   0  0  0  0  0  0  0  0  0  0  0  0
    5.8457  -13.3678   26.1270 C   0  0  0  0  0  0  0  0  0  0  0  0
    9.5345  -16.2068   24.8716 C   0  0  0  0  0  0  0  0  0  0  0  0
    9.3807  -17.3064   25.4779 O   0  0  0  0  0  0  0  0  0  0  0  0
   10.8128  -15.9858   24.2777 N   0  0  0  0  0  0  0  0  0  0  0  0
   11.8778  -16.9486   24.4691 C   0  0  0  0  0  0  0  0  0  0  0  0
   13.1523  -16.4966   23.8657 C   0  0  0  0  0  0  0  0  0  0  0  0
   14.2392  -17.1165   23.9827 O   0  0  0  0  0  0  0  0  0  0  0  0
   13.1658  -15.3242   23.1259 O   0  0  0  0  0  0  0  0  0  0  0  0
  2  3  1  0
  2  1  1  6
  4  3  1  0
  5  4  1  0
  6  7  1  0
  6  5  1  0
  8  2  1  0
  9  8  2  0
 10  8  1  0
 11 10  1  0
 11 12  1  1
 12 13  1  0
 13 18  2  0
 14 13  1  0
 14 15  2  0
 15 16  1  0
 16 17  2  0
 18 17  1  0
 19 20  2  0
 19 11  1  0
 21 19  1  0
 22 21  1  0
 23 22  1  0
 23 25  1  0
 24 23  2  0
M  END
$$$$
