KLE.pdb
     RDKit          3D

 27 26  0  0  1  0  0  0  0  0999 V2000
    6.8345  -17.1372   21.8981 N   0  0  0  0  0  0  0  0  0  0  0  0
    7.8763  -16.3681   21.2551 C   0  0  1  0  0  0  0  0  0  0  0  0
    7.3324  -15.8065   19.9737 C   0  0  0  0  0  0  0  0  0  0  0  0
    7.2206  -16.8579   18.9102 C   0  0  0  0  0  0  0  0  0  0  0  0
    8.0669  -16.5630   17.7035 C   0  0  0  0  0  0  0  0  0  0  0  0
    7.8801  -17.6448   16.6484 C   0  0  0  0  0  0  0  0  0  0  0  0
    8.4262  -17.1724   15.4093 N   0  0  0  0  0  0  0  0  0  0  0  0
    8.3907  -15.3031   22.1567 C   0  0  0  0  0  0  0  0  0  0  0  0
    9.3675  -14.5850   21.8898 O   0  0  0  0  0  0  0  0  0  0  0  0
    7.5944  -11.2950   25.6205 C   0  0  0  0  0  0  0  0  0  0  0  0
    7.3424  -12.6870   26.2915 C   0  0  1  0  0  0  0  0  0  0  0  0
    6.0439  -12.4309   27.0631 C   0  0  0  0  0  0  0  0  0  0  0  0
    7.0752  -13.6133   25.1601 C   0  0  0  0  0  0  0  0  0  0  0  0
    8.2284  -14.0857   24.3675 C   0  0  2  0  0  0  0  0  0  0  0  0
    7.7315  -15.0953   23.3875 N   0  0  0  0  0  0  0  0  0  0  0  0
    9.2411  -14.8031   25.1334 C   0  0  0  0  0  0  0  0  0  0  0  0
    9.8297  -14.1668   26.0692 O   0  0  0  0  0  0  0  0  0  0  0  0
    9.6514  -16.1565   24.9713 N   0  0  0  0  0  0  0  0  0  0  0  0
   10.7038  -16.6541   25.8296 C   0  0  1  0  0  0  0  0  0  0  0  0
   10.1226  -17.8795   26.5762 C   0  0  0  0  0  0  0  0  0  0  0  0
   11.2435  -18.4157   27.4290 C   0  0  0  0  0  0  0  0  0  0  0  0
   10.6816  -19.4653   28.3150 C   0  0  0  0  0  0  0  0  0  0  0  0
   10.4058  -20.5849   27.7898 O   0  0  0  0  0  0  0  0  0  0  0  0
   11.8695  -17.0378   25.0511 C   0  0  0  0  0  0  0  0  0  0  0  0
   13.0210  -16.8963   25.5877 O   0  0  0  0  0  0  0  0  0  0  0  0
   10.4609  -19.2557   29.6510 O   0  0  0  0  0  0  0  0  0  0  0  0
   11.8454  -17.5454   23.7805 O   0  0  0  0  0  0  0  0  0  0  0  0
  2  1  1  1
  3  2  1  0
  4  3  1  0
  4  5  1  0
  5  6  1  0
  7  6  1  0
  8  2  1  0
  8  9  2  0
 11 10  1  6
 11 13  1  0
 11 12  1  0
 14 13  1  1
 14 15  1  0
 15  8  1  0
 16 14  1  0
 17 16  2  0
 18 16  1  0
 19 18  1  0
 19 24  1  0
 19 20  1  6
 21 20  1  0
 22 21  1  0
 22 23  2  0
 24 27  1  0
 25 24  2  0
 26 22  1  0
M  END
$$$$
