KLE.pdb
     RDKit          3D

 27 26  0  0  1  0  0  0  0  0999 V2000
    7.0343  -15.6486   20.9648 N   0  0  0  0  0  0  0  0  0  0  0  0
    8.2121  -14.8103   20.9742 C   0  0  1  0  0  0  0  0  0  0  0  0
    7.9178  -13.5657   20.1883 C   0  0  0  0  0  0  0  0  0  0  0  0
    7.5636  -13.8789   18.7651 C   0  0  0  0  0  0  0  0  0  0  0  0
    8.7614  -14.2263   17.9261 C   0  0  0  0  0  0  0  0  0  0  0  0
    8.3514  -14.4210   16.4727 C   0  0  0  0  0  0  0  0  0  0  0  0
    8.5756  -13.1927   15.7672 N   0  0  0  0  0  0  0  0  0  0  0  0
    8.6408  -14.5032   22.3649 C   0  0  0  0  0  0  0  0  0  0  0  0
    9.6692  -13.8673   22.6457 O   0  0  0  0  0  0  0  0  0  0  0  0
    5.2741  -12.6873   26.2994 C   0  0  0  0  0  0  0  0  0  0  0  0
    6.5858  -12.8098   25.4531 C   0  0  1  0  0  0  0  0  0  0  0  0
    7.5636  -11.9574   26.2682 C   0  0  0  0  0  0  0  0  0  0  0  0
    6.9714  -14.2420   25.5520 C   0  0  0  0  0  0  0  0  0  0  0  0
    8.1943  -14.6780   24.8480 C   0  0  2  0  0  0  0  0  0  0  0  0
    7.8327  -14.9605   23.4282 N   0  0  0  0  0  0  0  0  0  0  0  0
    8.7579  -15.9346   25.3274 C   0  0  0  0  0  0  0  0  0  0  0  0
    7.9775  -16.9416   25.3918 O   0  0  0  0  0  0  0  0  0  0  0  0
   10.1013  -16.1842   25.7268 N   0  0  0  0  0  0  0  0  0  0  0  0
   10.4357  -17.5124   26.1913 C   0  0  1  0  0  0  0  0  0  0  0  0
   11.8531  -17.8250   25.6526 C   0  0  0  0  0  0  0  0  0  0  0  0
   11.6906  -18.0702   24.1746 C   0  0  0  0  0  0  0  0  0  0  0  0
   13.0220  -18.4208   23.6205 C   0  0  0  0  0  0  0  0  0  0  0  0
   13.1185  -18.5319   22.3621 O   0  0  0  0  0  0  0  0  0  0  0  0
   10.4177  -17.5735   27.6433 C   0  0  0  0  0  0  0  0  0  0  0  0
   10.2794  -16.4779   28.2871 O   0  0  0  0  0  0  0  0  0  0  0  0
   14.1180  -18.6214   24.4180 O   0  0  0  0  0  0  0  0  0  0  0  0
   10.5347  -18.7124   28.3927 O   0  0  0  0  0  0  0  0  0  0  0  0
  2  1  1  1
  3  2  1  0
  4  3  1  0
  4  5  1  0
  5  6  1  0
  7  6  1  0
  8  2  1  0
  8  9  2  0
 11 10  1  1
 11 13  1  0
 11 12  1  0
 14 13  1  1
 14 15  1  0
 15  8  1  0
 16 14  1  0
 17 16  2  0
 18 16  1  0
 19 18  1  0
 19 24  1  0
 19 20  1  1
 21 20  1  0
 22 21  1  0
 22 23  2  0
 24 27  1  0
 25 24  2  0
 26 22  1  0
M  END
$$$$
