KLE.pdb
     RDKit          3D

 27 26  0  0  1  0  0  0  0  0999 V2000
    8.7654  -14.5684   20.3699 N   0  0  0  0  0  0  0  0  0  0  0  0
    7.8871  -14.9612   21.4490 C   0  0  1  0  0  0  0  0  0  0  0  0
    7.6054  -16.4302   21.3236 C   0  0  0  0  0  0  0  0  0  0  0  0
    7.6054  -16.8751   19.8915 C   0  0  0  0  0  0  0  0  0  0  0  0
    7.2576  -18.3284   19.7294 C   0  0  0  0  0  0  0  0  0  0  0  0
    7.1408  -18.6836   18.2534 C   0  0  0  0  0  0  0  0  0  0  0  0
    6.7108  -20.0474   18.1452 N   0  0  0  0  0  0  0  0  0  0  0  0
    8.4748  -14.6170   22.7712 C   0  0  0  0  0  0  0  0  0  0  0  0
    9.6895  -14.4496   22.9642 O   0  0  0  0  0  0  0  0  0  0  0  0
    5.3116  -11.9533   26.6774 C   0  0  0  0  0  0  0  0  0  0  0  0
    6.3984  -12.2660   25.5944 C   0  0  1  0  0  0  0  0  0  0  0  0
    7.4118  -11.1428   25.8361 C   0  0  0  0  0  0  0  0  0  0  0  0
    6.9874  -13.5662   26.0092 C   0  0  0  0  0  0  0  0  0  0  0  0
    8.1180  -14.0952   25.2199 C   0  0  2  0  0  0  0  0  0  0  0  0
    7.6023  -14.4719   23.8713 N   0  0  0  0  0  0  0  0  0  0  0  0
    8.6964  -15.3303   25.7363 C   0  0  0  0  0  0  0  0  0  0  0  0
    9.0851  -15.3336   26.9512 O   0  0  0  0  0  0  0  0  0  0  0  0
    8.8711  -16.5608   25.0421 N   0  0  0  0  0  0  0  0  0  0  0  0
    9.5825  -17.6248   25.7154 C   0  0  1  0  0  0  0  0  0  0  0  0
    9.5922  -18.8321   24.7463 C   0  0  0  0  0  0  0  0  0  0  0  0
   10.7960  -18.6429   23.8597 C   0  0  0  0  0  0  0  0  0  0  0  0
   10.7516  -19.6821   22.8010 C   0  0  0  0  0  0  0  0  0  0  0  0
   10.8080  -20.8928   23.1703 O   0  0  0  0  0  0  0  0  0  0  0  0
   10.9406  -17.2183   26.0361 C   0  0  0  0  0  0  0  0  0  0  0  0
   11.3457  -16.0869   25.6003 O   0  0  0  0  0  0  0  0  0  0  0  0
   10.6537  -19.3692   21.4706 O   0  0  0  0  0  0  0  0  0  0  0  0
   11.8351  -17.9454   26.7734 O   0  0  0  0  0  0  0  0  0  0  0  0
  2  1  1  6
  3  2  1  0
  4  3  1  0
  4  5  1  0
  5  6  1  0
  7  6  1  0
  8  2  1  0
  8  9  2  0
 11 10  1  1
 11 13  1  0
 11 12  1  0
 14 13  1  1
 14 15  1  0
 15  8  1  0
 16 14  1  0
 17 16  2  0
 18 16  1  0
 19 18  1  0
 19 24  1  0
 19 20  1  6
 21 20  1  0
 22 21  1  0
 22 23  2  0
 24 27  1  0
 25 24  2  0
 26 22  1  0
M  END
$$$$
