KLE.pdb
     RDKit          3D

 27 26  0  0  1  0  0  0  0  0999 V2000
    8.2215  -15.4518   19.6101 N   0  0  0  0  0  0  0  0  0  0  0  0
    7.3868  -15.6881   20.7666 C   0  0  1  0  0  0  0  0  0  0  0  0
    7.0436  -17.1486   20.8164 C   0  0  0  0  0  0  0  0  0  0  0  0
    7.0693  -17.7716   19.4526 C   0  0  0  0  0  0  0  0  0  0  0  0
    6.6009  -19.1999   19.4519 C   0  0  0  0  0  0  0  0  0  0  0  0
    5.3335  -19.3413   18.6200 C   0  0  0  0  0  0  0  0  0  0  0  0
    4.8984  -20.7065   18.6803 N   0  0  0  0  0  0  0  0  0  0  0  0
    8.0554  -15.2296   22.0134 C   0  0  0  0  0  0  0  0  0  0  0  0
    9.2868  -15.2108   22.1696 O   0  0  0  0  0  0  0  0  0  0  0  0
    8.0855  -11.7677   26.1544 C   0  0  0  0  0  0  0  0  0  0  0  0
    7.0917  -12.9538   26.3934 C   0  0  1  0  0  0  0  0  0  0  0  0
    5.8676  -12.2261   26.9583 C   0  0  0  0  0  0  0  0  0  0  0  0
    6.7809  -13.4708   25.0348 C   0  0  0  0  0  0  0  0  0  0  0  0
    7.8454  -14.1954   24.3116 C   0  0  2  0  0  0  0  0  0  0  0  0
    7.2446  -14.7901   23.0821 N   0  0  0  0  0  0  0  0  0  0  0  0
    8.3967  -15.3406   25.0268 C   0  0  0  0  0  0  0  0  0  0  0  0
    7.5962  -16.2882   25.3240 O   0  0  0  0  0  0  0  0  0  0  0  0
    9.7473  -15.5412   25.4293 N   0  0  0  0  0  0  0  0  0  0  0  0
   10.0716  -16.7627   26.1325 C   0  0  1  0  0  0  0  0  0  0  0  0
   11.3619  -17.3179   25.4815 C   0  0  0  0  0  0  0  0  0  0  0  0
   10.9863  -17.6945   24.0714 C   0  0  0  0  0  0  0  0  0  0  0  0
   12.1909  -18.2580   23.4127 C   0  0  0  0  0  0  0  0  0  0  0  0
   13.2447  -18.3545   24.1096 O   0  0  0  0  0  0  0  0  0  0  0  0
   10.2848  -16.5055   27.5469 C   0  0  0  0  0  0  0  0  0  0  0  0
   10.5798  -17.4968   28.2981 O   0  0  0  0  0  0  0  0  0  0  0  0
   12.1882  -18.6645   22.1042 O   0  0  0  0  0  0  0  0  0  0  0  0
   10.1994  -15.2823   28.1545 O   0  0  0  0  0  0  0  0  0  0  0  0
  2  1  1  6
  3  2  1  0
  4  3  1  0
  4  5  1  0
  5  6  1  0
  7  6  1  0
  8  2  1  0
  8  9  2  0
 11 10  1  6
 11 13  1  0
 11 12  1  0
 14 13  1  1
 14 15  1  0
 15  8  1  0
 16 14  1  0
 17 16  2  0
 18 16  1  0
 19 18  1  0
 19 24  1  0
 19 20  1  6
 21 20  1  0
 22 21  1  0
 22 23  2  0
 24 27  1  0
 25 24  2  0
 26 22  1  0
M  END
$$$$
