KLE.pdb
     RDKit          3D

 27 26  0  0  1  0  0  0  0  0999 V2000
    8.6956  -15.3470   19.5294 N   0  0  0  0  0  0  0  0  0  0  0  0
    7.7905  -15.6341   20.6195 C   0  0  1  0  0  0  0  0  0  0  0  0
    7.4887  -17.1045   20.6139 C   0  0  0  0  0  0  0  0  0  0  0  0
    6.8472  -17.5346   19.3284 C   0  0  0  0  0  0  0  0  0  0  0  0
    6.5306  -19.0036   19.2942 C   0  0  0  0  0  0  0  0  0  0  0  0
    5.9053  -19.3797   17.9579 C   0  0  0  0  0  0  0  0  0  0  0  0
    5.6938  -20.7979   17.9364 N   0  0  0  0  0  0  0  0  0  0  0  0
    8.3573  -15.1862   21.9195 C   0  0  0  0  0  0  0  0  0  0  0  0
    9.5693  -15.2047   22.1871 O   0  0  0  0  0  0  0  0  0  0  0  0
    8.0672  -11.9458   26.3211 C   0  0  0  0  0  0  0  0  0  0  0  0
    7.0183  -13.1082   26.3016 C   0  0  1  0  0  0  0  0  0  0  0  0
    5.7546  -12.3963   26.7949 C   0  0  0  0  0  0  0  0  0  0  0  0
    6.8641  -13.4589   24.8654 C   0  0  0  0  0  0  0  0  0  0  0  0
    7.9703  -14.1850   24.2093 C   0  0  2  0  0  0  0  0  0  0  0  0
    7.4672  -14.7123   22.9073 N   0  0  0  0  0  0  0  0  0  0  0  0
    8.4258  -15.3734   24.9214 C   0  0  0  0  0  0  0  0  0  0  0  0
    7.6107  -16.3500   25.0156 O   0  0  0  0  0  0  0  0  0  0  0  0
    9.6978  -15.5870   25.5236 N   0  0  0  0  0  0  0  0  0  0  0  0
   10.0048  -16.9147   26.0083 C   0  0  1  0  0  0  0  0  0  0  0  0
   11.2963  -17.3627   25.2814 C   0  0  0  0  0  0  0  0  0  0  0  0
   11.6579  -18.7036   25.8666 C   0  0  0  0  0  0  0  0  0  0  0  0
   12.9009  -19.1709   25.2041 C   0  0  0  0  0  0  0  0  0  0  0  0
   12.9414  -19.1201   23.9387 O   0  0  0  0  0  0  0  0  0  0  0  0
   10.2069  -16.9071   27.4475 C   0  0  0  0  0  0  0  0  0  0  0  0
    9.9062  -17.9644   28.1000 O   0  0  0  0  0  0  0  0  0  0  0  0
   13.9755  -19.6429   25.9113 O   0  0  0  0  0  0  0  0  0  0  0  0
   10.6981  -15.8581   28.1761 O   0  0  0  0  0  0  0  0  0  0  0  0
  2  1  1  6
  3  2  1  0
  4  3  1  0
  4  5  1  0
  5  6  1  0
  7  6  1  0
  8  2  1  0
  8  9  2  0
 11 10  1  6
 11 13  1  0
 11 12  1  0
 14 13  1  1
 14 15  1  0
 15  8  1  0
 16 14  1  0
 17 16  2  0
 18 16  1  0
 19 18  1  0
 19 24  1  0
 19 20  1  6
 21 20  1  0
 22 21  1  0
 22 23  2  0
 24 27  1  0
 25 24  2  0
 26 22  1  0
M  END
$$$$
