KLE.pdb
     RDKit          3D

 27 26  0  0  1  0  0  0  0  0999 V2000
    7.1299  -17.4081   22.2607 N   0  0  0  0  0  0  0  0  0  0  0  0
    7.9549  -16.4684   21.5354 C   0  0  1  0  0  0  0  0  0  0  0  0
    7.1308  -15.8573   20.4396 C   0  0  0  0  0  0  0  0  0  0  0  0
    6.8807  -16.8293   19.3254 C   0  0  0  0  0  0  0  0  0  0  0  0
    5.5261  -17.4759   19.4049 C   0  0  0  0  0  0  0  0  0  0  0  0
    5.2973  -18.3763   18.1986 C   0  0  0  0  0  0  0  0  0  0  0  0
    4.0389  -19.0447   18.3606 N   0  0  0  0  0  0  0  0  0  0  0  0
    8.5229  -15.4389   22.4462 C   0  0  0  0  0  0  0  0  0  0  0  0
    9.3133  -14.5543   22.0806 O   0  0  0  0  0  0  0  0  0  0  0  0
    5.7395  -12.7542   26.4545 C   0  0  0  0  0  0  0  0  0  0  0  0
    6.6948  -13.0065   25.2398 C   0  0  1  0  0  0  0  0  0  0  0  0
    7.4561  -11.6794   25.1608 C   0  0  0  0  0  0  0  0  0  0  0  0
    7.6144  -14.0821   25.6946 C   0  0  0  0  0  0  0  0  0  0  0  0
    8.7028  -14.4908   24.7837 C   0  0  2  0  0  0  0  0  0  0  0  0
    8.1423  -15.4679   23.8052 N   0  0  0  0  0  0  0  0  0  0  0  0
    9.7934  -15.2163   25.4248 C   0  0  0  0  0  0  0  0  0  0  0  0
   10.3543  -14.6658   26.4295 O   0  0  0  0  0  0  0  0  0  0  0  0
   10.3096  -16.4944   25.0691 N   0  0  0  0  0  0  0  0  0  0  0  0
   11.4717  -16.9790   25.7807 C   0  0  1  0  0  0  0  0  0  0  0  0
   11.0828  -18.3533   26.3781 C   0  0  0  0  0  0  0  0  0  0  0  0
   10.6294  -18.0791   27.7889 C   0  0  0  0  0  0  0  0  0  0  0  0
   10.3411  -19.3825   28.4375 C   0  0  0  0  0  0  0  0  0  0  0  0
   10.4202  -20.4219   27.7173 O   0  0  0  0  0  0  0  0  0  0  0  0
   12.6080  -17.1162   24.8849 C   0  0  0  0  0  0  0  0  0  0  0  0
   13.7020  -17.5657   25.3698 O   0  0  0  0  0  0  0  0  0  0  0  0
   10.0008  -19.4831   29.7610 O   0  0  0  0  0  0  0  0  0  0  0  0
   12.6120  -16.8058   23.5522 O   0  0  0  0  0  0  0  0  0  0  0  0
  2  1  1  1
  3  2  1  0
  4  3  1  0
  4  5  1  0
  5  6  1  0
  7  6  1  0
  8  2  1  0
  8  9  2  0
 11 10  1  1
 11 13  1  0
 11 12  1  0
 14 13  1  1
 14 15  1  0
 15  8  1  0
 16 14  1  0
 17 16  2  0
 18 16  1  0
 19 18  1  0
 19 24  1  0
 19 20  1  6
 21 20  1  0
 22 21  1  0
 22 23  2  0
 24 27  1  0
 25 24  2  0
 26 22  1  0
M  END
$$$$
