KLE.pdb
     RDKit          3D

 27 26  0  0  1  0  0  0  0  0999 V2000
    8.4040  -14.7933   20.1204 N   0  0  0  0  0  0  0  0  0  0  0  0
    7.7816  -15.5048   21.2142 C   0  0  1  0  0  0  0  0  0  0  0  0
    7.9164  -16.9784   20.9625 C   0  0  0  0  0  0  0  0  0  0  0  0
    6.5883  -17.6734   21.0102 C   0  0  0  0  0  0  0  0  0  0  0  0
    6.6825  -19.1396   20.6933 C   0  0  0  0  0  0  0  0  0  0  0  0
    5.2921  -19.7559   20.6190 C   0  0  0  0  0  0  0  0  0  0  0  0
    5.4278  -21.1538   20.3291 N   0  0  0  0  0  0  0  0  0  0  0  0
    8.3729  -15.1057   22.5192 C   0  0  0  0  0  0  0  0  0  0  0  0
    9.5529  -14.7474   22.6616 O   0  0  0  0  0  0  0  0  0  0  0  0
    5.3387  -12.3487   26.5469 C   0  0  0  0  0  0  0  0  0  0  0  0
    6.4754  -12.6171   25.5040 C   0  0  1  0  0  0  0  0  0  0  0  0
    7.6094  -11.7413   26.0464 C   0  0  0  0  0  0  0  0  0  0  0  0
    6.8250  -14.0509   25.6811 C   0  0  0  0  0  0  0  0  0  0  0  0
    8.0079  -14.5669   24.9630 C   0  0  2  0  0  0  0  0  0  0  0  0
    7.5461  -15.1353   23.6629 N   0  0  0  0  0  0  0  0  0  0  0  0
    8.6802  -15.6824   25.6192 C   0  0  0  0  0  0  0  0  0  0  0  0
    9.1320  -15.4857   26.7958 O   0  0  0  0  0  0  0  0  0  0  0  0
    8.8858  -16.9933   25.1037 N   0  0  0  0  0  0  0  0  0  0  0  0
   10.0773  -17.7040   25.5121 C   0  0  1  0  0  0  0  0  0  0  0  0
   11.2389  -17.1502   24.6513 C   0  0  0  0  0  0  0  0  0  0  0  0
   12.4832  -17.8504   25.1337 C   0  0  0  0  0  0  0  0  0  0  0  0
   13.6360  -17.3111   24.3703 C   0  0  0  0  0  0  0  0  0  0  0  0
   13.3909  -16.4426   23.4810 O   0  0  0  0  0  0  0  0  0  0  0  0
   10.3463  -17.4957   26.9251 C   0  0  0  0  0  0  0  0  0  0  0  0
   10.2754  -18.5071   27.7036 O   0  0  0  0  0  0  0  0  0  0  0  0
   14.9233  -17.7206   24.6000 O   0  0  0  0  0  0  0  0  0  0  0  0
   10.6748  -16.3002   27.5043 O   0  0  0  0  0  0  0  0  0  0  0  0
  2  1  1  6
  3  2  1  0
  4  3  1  0
  4  5  1  0
  5  6  1  0
  7  6  1  0
  8  2  1  0
  8  9  2  0
 11 10  1  1
 11 13  1  0
 11 12  1  0
 14 13  1  1
 14 15  1  0
 15  8  1  0
 16 14  1  0
 17 16  2  0
 18 16  1  0
 19 18  1  0
 19 24  1  0
 19 20  1  6
 21 20  1  0
 22 21  1  0
 22 23  2  0
 24 27  1  0
 25 24  2  0
 26 22  1  0
M  END
$$$$
