KLE.pdb
     RDKit          3D

 27 26  0  0  1  0  0  0  0  0999 V2000
    6.9598  -16.9554   21.7002 N   0  0  0  0  0  0  0  0  0  0  0  0
    8.3064  -16.4899   21.4557 C   0  0  1  0  0  0  0  0  0  0  0  0
    8.3603  -15.8863   20.0824 C   0  0  0  0  0  0  0  0  0  0  0  0
    8.1553  -16.9185   19.0141 C   0  0  0  0  0  0  0  0  0  0  0  0
    8.3898  -16.3831   17.6293 C   0  0  0  0  0  0  0  0  0  0  0  0
    8.2495  -17.4964   16.6001 C   0  0  0  0  0  0  0  0  0  0  0  0
    8.2515  -16.9104   15.2912 N   0  0  0  0  0  0  0  0  0  0  0  0
    8.7404  -15.5289   22.5046 C   0  0  0  0  0  0  0  0  0  0  0  0
    9.8214  -14.9193   22.4776 O   0  0  0  0  0  0  0  0  0  0  0  0
    7.9331  -11.5975   25.9349 C   0  0  0  0  0  0  0  0  0  0  0  0
    7.1296  -12.8579   26.4012 C   0  0  1  0  0  0  0  0  0  0  0  0
    5.7592  -12.2530   26.7221 C   0  0  0  0  0  0  0  0  0  0  0  0
    7.0253  -13.7134   25.1901 C   0  0  0  0  0  0  0  0  0  0  0  0
    8.2557  -14.3644   24.6965 C   0  0  2  0  0  0  0  0  0  0  0  0
    7.8743  -15.2953   23.5945 N   0  0  0  0  0  0  0  0  0  0  0  0
    8.9238  -15.2211   25.6695 C   0  0  0  0  0  0  0  0  0  0  0  0
    8.2884  -16.2471   26.0826 O   0  0  0  0  0  0  0  0  0  0  0  0
   10.2285  -15.0576   26.2147 N   0  0  0  0  0  0  0  0  0  0  0  0
   10.7461  -16.1085   27.0630 C   0  0  1  0  0  0  0  0  0  0  0  0
   12.2714  -16.1734   26.8052 C   0  0  0  0  0  0  0  0  0  0  0  0
   12.4320  -16.6410   25.3816 C   0  0  0  0  0  0  0  0  0  0  0  0
   13.8847  -16.7399   25.0944 C   0  0  0  0  0  0  0  0  0  0  0  0
   14.5999  -15.7262   25.3519 O   0  0  0  0  0  0  0  0  0  0  0  0
   10.4778  -15.8241   28.4628 C   0  0  0  0  0  0  0  0  0  0  0  0
   10.0878  -14.6463   28.7705 O   0  0  0  0  0  0  0  0  0  0  0  0
   14.4531  -17.8718   24.5715 O   0  0  0  0  0  0  0  0  0  0  0  0
   10.6046  -16.7150   29.4937 O   0  0  0  0  0  0  0  0  0  0  0  0
  2  1  1  1
  3  2  1  0
  4  3  1  0
  4  5  1  0
  5  6  1  0
  7  6  1  0
  8  2  1  0
  8  9  2  0
 11 10  1  6
 11 13  1  0
 11 12  1  0
 14 13  1  1
 14 15  1  0
 15  8  1  0
 16 14  1  0
 17 16  2  0
 18 16  1  0
 19 18  1  0
 19 24  1  0
 19 20  1  1
 21 20  1  0
 22 21  1  0
 22 23  2  0
 24 27  1  0
 25 24  2  0
 26 22  1  0
M  END
$$$$
