MAY.pdb
     RDKit          3D

 26 26  0  0  1  0  0  0  0  0999 V2000
   18.1407  -22.0627  -14.8458 C   0  0  0  0  0  0  0  0  0  0  0  0
   19.7188  -22.7891  -14.3266 S   0  0  0  0  0  0  0  0  0  0  0  0
   20.6823  -21.4614  -13.5273 C   0  0  0  0  0  0  0  0  0  0  0  0
   22.0009  -21.9883  -13.0199 C   0  0  0  0  0  0  0  0  0  0  0  0
   23.0378  -21.7805  -14.1026 C   0  0  2  0  0  0  0  0  0  0  0  0
   22.8114  -22.6762  -15.1891 N   0  0  0  0  0  0  0  0  0  0  0  0
   24.4081  -21.7775  -13.5614 C   0  0  0  0  0  0  0  0  0  0  0  0
   24.9233  -22.8886  -13.2866 O   0  0  0  0  0  0  0  0  0  0  0  0
   27.1173  -19.2315  -12.8637 C   0  0  0  0  0  0  0  0  0  0  0  0
   26.4034  -20.5472  -12.6413 C   0  0  2  0  0  0  0  0  0  0  0  0
   25.1362  -20.5947  -13.3500 N   0  0  0  0  0  0  0  0  0  0  0  0
   26.2581  -20.8062  -11.2063 C   0  0  0  0  0  0  0  0  0  0  0  0
   25.1402  -20.7433  -10.6777 O   0  0  0  0  0  0  0  0  0  0  0  0
   28.4799  -19.2781   -2.9554 O   0  0  0  0  0  0  0  0  0  0  0  0
   28.5314  -19.5996   -4.3140 C   0  0  0  0  0  0  0  0  0  0  0  0
   28.8017  -20.8942   -4.7200 C   0  0  0  0  0  0  0  0  0  0  0  0
   28.8595  -21.2445   -6.0487 C   0  0  0  0  0  0  0  0  0  0  0  0
   28.6444  -20.2921   -7.0440 C   0  0  0  0  0  0  0  0  0  0  0  0
   28.7089  -20.6280   -8.4627 C   0  0  0  0  0  0  0  0  0  0  0  0
   27.3469  -21.0467   -8.9911 C   0  0  2  0  0  0  0  0  0  0  0  0
   27.4188  -21.1253  -10.4576 N   0  0  0  0  0  0  0  0  0  0  0  0
   26.2660  -20.1174   -8.6596 C   0  0  0  0  0  0  0  0  0  0  0  0
   25.2664  -20.4426   -7.7433 O   0  0  0  0  0  0  0  0  0  0  0  0
   28.3756  -19.0038   -6.6398 C   0  0  0  0  0  0  0  0  0  0  0  0
   28.3177  -18.6525   -5.2943 C   0  0  0  0  0  0  0  0  0  0  0  0
   26.1793  -18.9805   -9.1811 O   0  0  0  0  0  0  0  0  0  0  0  0
  2  1  1  0
  3  2  1  0
  4  3  1  0
  4  5  1  0
  5  6  1  6
  5  7  1  0
  7  8  2  0
 10  9  1  1
 11  7  1  0
 11 10  1  0
 12 10  1  0
 12 21  1  0
 13 12  2  0
 15 14  1  0
 16 15  2  0
 17 16  1  0
 18 24  1  0
 18 17  2  0
 19 18  1  0
 20 22  1  0
 20 21  1  0
 20 19  1  6
 22 23  1  0
 24 25  2  0
 25 15  1  0
 26 22  2  0
M  END
$$$$
