MAY.pdb
     RDKit          3D

 26 26  0  0  1  0  0  0  0  0999 V2000
   14.6374  -13.7882  -16.0280 C   0  0  0  0  0  0  0  0  0  0  0  0
   15.2501  -13.0199  -17.5517 S   0  0  0  0  0  0  0  0  0  0  0  0
   16.9662  -12.4887  -17.2311 C   0  0  0  0  0  0  0  0  0  0  0  0
   17.0171  -11.5035  -16.0906 C   0  0  0  0  0  0  0  0  0  0  0  0
   18.4691  -11.1745  -15.8185 C   0  0  2  0  0  0  0  0  0  0  0  0
   19.2281  -12.3697  -15.6472 N   0  0  0  0  0  0  0  0  0  0  0  0
   18.6171  -10.1733  -14.7477 C   0  0  0  0  0  0  0  0  0  0  0  0
   18.8416  -10.5968  -13.5877 O   0  0  0  0  0  0  0  0  0  0  0  0
   18.7495   -6.4038  -14.4714 C   0  0  0  0  0  0  0  0  0  0  0  0
   18.5089   -7.7951  -13.9268 C   0  0  2  0  0  0  0  0  0  0  0  0
   18.5167   -8.7919  -14.9835 N   0  0  0  0  0  0  0  0  0  0  0  0
   17.2760   -7.8209  -13.1351 C   0  0  0  0  0  0  0  0  0  0  0  0
   16.2026   -8.1220  -13.6737 O   0  0  0  0  0  0  0  0  0  0  0  0
   11.7081   -7.4112   -6.3700 O   0  0  0  0  0  0  0  0  0  0  0  0
   12.8486   -7.5493   -7.1648 C   0  0  0  0  0  0  0  0  0  0  0  0
   13.8688   -6.6174   -7.0979 C   0  0  0  0  0  0  0  0  0  0  0  0
   15.0047   -6.7234   -7.8661 C   0  0  0  0  0  0  0  0  0  0  0  0
   15.1670   -7.7893   -8.7500 C   0  0  0  0  0  0  0  0  0  0  0  0
   16.3547   -7.9259   -9.5869 C   0  0  0  0  0  0  0  0  0  0  0  0
   16.1004   -7.4043  -10.9916 C   0  0  2  0  0  0  0  0  0  0  0  0
   17.3522   -7.4955  -11.7575 N   0  0  0  0  0  0  0  0  0  0  0  0
   15.6633   -6.0085  -11.0405 C   0  0  0  0  0  0  0  0  0  0  0  0
   14.3151   -5.6576  -11.1011 O   0  0  0  0  0  0  0  0  0  0  0  0
   14.1516   -8.7166   -8.8167 C   0  0  0  0  0  0  0  0  0  0  0  0
   13.0033   -8.6064   -8.0378 C   0  0  0  0  0  0  0  0  0  0  0  0
   16.4758   -5.0535  -11.0317 O   0  0  0  0  0  0  0  0  0  0  0  0
  2  1  1  0
  3  2  1  0
  4  3  1  0
  4  5  1  0
  5  6  1  1
  5  7  1  0
  7  8  2  0
 10  9  1  6
 11  7  1  0
 11 10  1  0
 12 10  1  0
 12 21  1  0
 13 12  2  0
 15 14  1  0
 16 15  2  0
 17 16  1  0
 18 24  1  0
 18 17  2  0
 19 18  1  0
 20 22  1  0
 20 21  1  0
 20 19  1  1
 22 23  1  0
 24 25  2  0
 25 15  1  0
 26 22  2  0
M  END
$$$$
