MAY.pdb
     RDKit          3D

 26 26  0  0  1  0  0  0  0  0999 V2000
   31.0352  -22.8531  -10.3999 C   0  0  0  0  0  0  0  0  0  0  0  0
   30.9160  -21.0518  -10.5680 S   0  0  0  0  0  0  0  0  0  0  0  0
   29.4991  -20.7089  -11.6657 C   0  0  0  0  0  0  0  0  0  0  0  0
   28.3003  -21.5309  -11.2645 C   0  0  0  0  0  0  0  0  0  0  0  0
   27.1926  -21.2632  -12.2605 C   0  0  2  0  0  0  0  0  0  0  0  0
   27.3549  -19.9763  -12.8535 N   0  0  0  0  0  0  0  0  0  0  0  0
   25.8609  -21.5328  -11.6908 C   0  0  0  0  0  0  0  0  0  0  0  0
   25.5724  -22.7275  -11.4361 O   0  0  0  0  0  0  0  0  0  0  0  0
   22.8897  -19.8638  -10.2307 C   0  0  0  0  0  0  0  0  0  0  0  0
   23.5008  -20.7484  -11.2957 C   0  0  2  0  0  0  0  0  0  0  0  0
   24.9282  -20.5148  -11.4308 N   0  0  0  0  0  0  0  0  0  0  0  0
   22.7797  -20.5864  -12.5611 C   0  0  0  0  0  0  0  0  0  0  0  0
   23.2558  -19.8760  -13.4565 O   0  0  0  0  0  0  0  0  0  0  0  0
   18.7176  -22.3118  -19.9322 O   0  0  0  0  0  0  0  0  0  0  0  0
   19.3870  -22.2874  -18.7062 C   0  0  0  0  0  0  0  0  0  0  0  0
   20.2244  -21.2346  -18.3836 C   0  0  0  0  0  0  0  0  0  0  0  0
   20.8981  -21.1794  -17.1858 C   0  0  0  0  0  0  0  0  0  0  0  0
   20.7565  -22.1978  -16.2442 C   0  0  0  0  0  0  0  0  0  0  0  0
   21.4649  -22.1754  -14.9685 C   0  0  0  0  0  0  0  0  0  0  0  0
   20.8565  -21.1560  -14.0195 C   0  0  2  0  0  0  0  0  0  0  0  0
   21.5417  -21.2579  -12.7226 N   0  0  0  0  0  0  0  0  0  0  0  0
   19.4274  -21.3498  -13.7709 C   0  0  0  0  0  0  0  0  0  0  0  0
   18.4519  -20.6513  -14.4815 O   0  0  0  0  0  0  0  0  0  0  0  0
   19.9233  -23.2456  -16.5654 C   0  0  0  0  0  0  0  0  0  0  0  0
   19.2429  -23.2984  -17.7784 C   0  0  0  0  0  0  0  0  0  0  0  0
   19.0028  -22.1522  -12.9061 O   0  0  0  0  0  0  0  0  0  0  0  0
  2  1  1  0
  3  2  1  0
  4  3  1  0
  4  5  1  0
  5  6  1  1
  5  7  1  0
  7  8  2  0
 10  9  1  1
 11  7  1  0
 11 10  1  0
 12 10  1  0
 12 21  1  0
 13 12  2  0
 15 14  1  0
 16 15  2  0
 17 16  1  0
 18 24  1  0
 18 17  2  0
 19 18  1  0
 20 22  1  0
 20 21  1  0
 20 19  1  6
 22 23  1  0
 24 25  2  0
 25 15  1  0
 26 22  2  0
M  END
$$$$
