MAY.pdb
     RDKit          3D

 26 26  0  0  1  0  0  0  0  0999 V2000
   29.6198  -15.1542  -19.4993 C   0  0  0  0  0  0  0  0  0  0  0  0
   29.5786  -16.5285  -20.6812 S   0  0  0  0  0  0  0  0  0  0  0  0
   28.6233  -17.8750  -19.9039 C   0  0  0  0  0  0  0  0  0  0  0  0
   28.8760  -17.9216  -18.4180 C   0  0  0  0  0  0  0  0  0  0  0  0
   28.0247  -19.0269  -17.8312 C   0  0  2  0  0  0  0  0  0  0  0  0
   27.8323  -20.0689  -18.7858 N   0  0  0  0  0  0  0  0  0  0  0  0
   26.7953  -18.5055  -17.2088 C   0  0  0  0  0  0  0  0  0  0  0  0
   26.9261  -17.6572  -16.2930 O   0  0  0  0  0  0  0  0  0  0  0  0
   23.1707  -18.2756  -17.9492 C   0  0  0  0  0  0  0  0  0  0  0  0
   24.2903  -18.4806  -16.9518 C   0  0  2  0  0  0  0  0  0  0  0  0
   25.5122  -18.9211  -17.6024 N   0  0  0  0  0  0  0  0  0  0  0  0
   23.8576  -19.3903  -15.8874 C   0  0  0  0  0  0  0  0  0  0  0  0
   23.9354  -20.6149  -16.0524 O   0  0  0  0  0  0  0  0  0  0  0  0
   21.8633  -22.3055   -7.8557 O   0  0  0  0  0  0  0  0  0  0  0  0
   22.1997  -21.4899   -8.9389 C   0  0  0  0  0  0  0  0  0  0  0  0
   21.2149  -20.8433   -9.6641 C   0  0  0  0  0  0  0  0  0  0  0  0
   21.5114  -20.0334  -10.7355 C   0  0  0  0  0  0  0  0  0  0  0  0
   22.8336  -19.8351  -11.1309 C   0  0  0  0  0  0  0  0  0  0  0  0
   23.1819  -18.9909  -12.2693 C   0  0  0  0  0  0  0  0  0  0  0  0
   23.0171  -19.7410  -13.5808 C   0  0  2  0  0  0  0  0  0  0  0  0
   23.3564  -18.8313  -14.6850 N   0  0  0  0  0  0  0  0  0  0  0  0
   21.6589  -20.2290  -13.8233 C   0  0  0  0  0  0  0  0  0  0  0  0
   21.2844  -21.5429  -13.5442 O   0  0  0  0  0  0  0  0  0  0  0  0
   23.8135  -20.4788  -10.4093 C   0  0  0  0  0  0  0  0  0  0  0  0
   23.5101  -21.2977   -9.3255 C   0  0  0  0  0  0  0  0  0  0  0  0
   20.7595  -19.4939  -14.2955 O   0  0  0  0  0  0  0  0  0  0  0  0
  2  1  1  0
  3  2  1  0
  4  3  1  0
  4  5  1  0
  5  6  1  6
  5  7  1  0
  7  8  2  0
 10  9  1  6
 11  7  1  0
 11 10  1  0
 12 10  1  0
 12 21  1  0
 13 12  2  0
 15 14  1  0
 16 15  2  0
 17 16  1  0
 18 24  1  0
 18 17  2  0
 19 18  1  0
 20 22  1  0
 20 21  1  0
 20 19  1  1
 22 23  1  0
 24 25  2  0
 25 15  1  0
 26 22  2  0
M  END
$$$$
