MAY.pdb
     RDKit          3D

 26 26  0  0  1  0  0  0  0  0999 V2000
   28.9848  -14.2192  -17.2232 C   0  0  0  0  0  0  0  0  0  0  0  0
   29.3190  -15.7267  -18.1735 S   0  0  0  0  0  0  0  0  0  0  0  0
   27.7517  -16.2164  -18.9698 C   0  0  0  0  0  0  0  0  0  0  0  0
   26.6443  -16.3212  -17.9517 C   0  0  0  0  0  0  0  0  0  0  0  0
   26.4170  -17.7877  -17.6543 C   0  0  2  0  0  0  0  0  0  0  0  0
   26.8825  -18.5940  -18.7346 N   0  0  0  0  0  0  0  0  0  0  0  0
   25.0357  -18.0546  -17.2164 C   0  0  0  0  0  0  0  0  0  0  0  0
   24.6145  -17.4239  -16.2163 O   0  0  0  0  0  0  0  0  0  0  0  0
   22.1331  -20.1932  -18.3881 C   0  0  0  0  0  0  0  0  0  0  0  0
   22.8896  -19.3625  -17.3742 C   0  0  2  0  0  0  0  0  0  0  0  0
   24.1976  -18.9724  -17.8714 N   0  0  0  0  0  0  0  0  0  0  0  0
   22.9605  -20.0712  -16.0934 C   0  0  0  0  0  0  0  0  0  0  0  0
   24.0071  -20.6435  -15.7616 O   0  0  0  0  0  0  0  0  0  0  0  0
   23.0073  -20.9926   -7.6060 O   0  0  0  0  0  0  0  0  0  0  0  0
   22.9505  -20.6352   -8.9554 C   0  0  0  0  0  0  0  0  0  0  0  0
   21.8316  -20.0037   -9.4684 C   0  0  0  0  0  0  0  0  0  0  0  0
   21.7431  -19.6383  -10.7914 C   0  0  0  0  0  0  0  0  0  0  0  0
   22.7936  -19.8962  -11.6710 C   0  0  0  0  0  0  0  0  0  0  0  0
   22.7278  -19.5313  -13.0824 C   0  0  0  0  0  0  0  0  0  0  0  0
   21.9525  -20.5655  -13.8821 C   0  0  2  0  0  0  0  0  0  0  0  0
   21.8120  -20.0791  -15.2626 N   0  0  0  0  0  0  0  0  0  0  0  0
   20.6046  -20.8252  -13.3749 C   0  0  0  0  0  0  0  0  0  0  0  0
   19.5149  -20.0313  -13.7310 O   0  0  0  0  0  0  0  0  0  0  0  0
   23.9069  -20.5248  -11.1603 C   0  0  0  0  0  0  0  0  0  0  0  0
   23.9934  -20.8933   -9.8209 C   0  0  0  0  0  0  0  0  0  0  0  0
   20.3565  -21.7734  -12.5928 O   0  0  0  0  0  0  0  0  0  0  0  0
  2  1  1  0
  3  2  1  0
  4  3  1  0
  4  5  1  0
  5  6  1  6
  5  7  1  0
  7  8  2  0
 10  9  1  6
 11  7  1  0
 11 10  1  0
 12 10  1  0
 12 21  1  0
 13 12  2  0
 15 14  1  0
 16 15  2  0
 17 16  1  0
 18 24  1  0
 18 17  2  0
 19 18  1  0
 20 22  1  0
 20 21  1  0
 20 19  1  1
 22 23  1  0
 24 25  2  0
 25 15  1  0
 26 22  2  0
M  END
$$$$
