NEK.pdb
     RDKit          3D

 27 26  0  0  1  0  0  0  0  0999 V2000
   17.6075  -11.9662  -14.2120 N   0  0  0  0  0  0  0  0  0  0  0  0
   16.7223  -11.7125  -15.2696 C   0  0  0  0  0  0  0  0  0  0  0  0
   15.9895  -12.5830  -15.8163 O   0  0  0  0  0  0  0  0  0  0  0  0
   16.6179  -10.3316  -15.8073 C   0  0  0  0  0  0  0  0  0  0  0  0
   17.5637   -9.3713  -15.1071 C   0  0  2  0  0  0  0  0  0  0  0  0
   17.2664   -9.2928  -13.6858 N   0  0  0  0  0  0  0  0  0  0  0  0
   17.3308   -8.0276  -15.7296 C   0  0  0  0  0  0  0  0  0  0  0  0
   17.5585   -7.8929  -16.9750 O   0  0  0  0  0  0  0  0  0  0  0  0
   16.8596   -6.9319  -14.9214 N   0  0  0  0  0  0  0  0  0  0  0  0
   16.6542   -5.6783  -15.5436 C   0  0  1  0  0  0  0  0  0  0  0  0
   15.4713   -5.0025  -14.8503 C   0  0  0  0  0  0  0  0  0  0  0  0
   15.0765   -3.7318  -15.5709 C   0  0  0  0  0  0  0  0  0  0  0  0
   13.9448   -4.0449  -16.4616 C   0  0  0  0  0  0  0  0  0  0  0  0
   13.5988   -3.2148  -17.3343 O   0  0  0  0  0  0  0  0  0  0  0  0
   17.7505   -4.7262  -15.5317 C   0  0  0  0  0  0  0  0  0  0  0  0
   18.4106   -4.6316  -14.4406 O   0  0  0  0  0  0  0  0  0  0  0  0
   13.2755   -5.2387  -16.3386 O   0  0  0  0  0  0  0  0  0  0  0  0
   18.1673   -3.9033  -16.5714 N   0  0  0  0  0  0  0  0  0  0  0  0
   19.3268   -2.9523  -16.3578 C   0  0  1  0  0  0  0  0  0  0  0  0
   19.6444   -2.5256  -17.7394 C   0  0  0  0  0  0  0  0  0  0  0  0
   20.6170   -3.1798  -18.5968 C   0  0  0  0  0  0  0  0  0  0  0  0
   20.7405   -2.7075  -19.9875 C   0  0  0  0  0  0  0  0  0  0  0  0
   21.7120   -3.5934  -20.7964 C   0  0  0  0  0  0  0  0  0  0  0  0
   21.6834   -3.1795  -22.1823 N   0  0  0  0  0  0  0  0  0  0  0  0
   18.7023   -1.9343  -15.4785 C   0  0  0  0  0  0  0  0  0  0  0  0
   17.4680   -1.7724  -15.3484 O   0  0  0  0  0  0  0  0  0  0  0  0
   19.4815   -1.0493  -14.7013 O   0  0  0  0  0  0  0  0  0  0  0  0
  2  1  1  0
  3  2  2  0
  4  5  1  0
  4  2  1  0
  5  6  1  1
  7  8  2  0
  7  5  1  0
  9  7  1  0
 10  9  1  0
 10 11  1  1
 11 12  1  0
 12 13  1  0
 13 17  1  0
 14 13  2  0
 15 10  1  0
 16 15  2  0
 18 15  1  0
 19 20  1  6
 19 18  1  0
 20 21  1  0
 22 21  1  0
 23 22  1  0
 24 23  1  0
 25 27  1  0
 25 19  1  0
 26 25  2  0
M  END
$$$$
