NEK.pdb
     RDKit          3D

 27 26  0  0  1  0  0  0  0  0999 V2000
   28.7496  -21.3097  -11.5570 N   0  0  0  0  0  0  0  0  0  0  0  0
   27.8205  -21.1049  -10.5268 C   0  0  0  0  0  0  0  0  0  0  0  0
   28.0856  -21.1859   -9.2951 O   0  0  0  0  0  0  0  0  0  0  0  0
   26.4168  -20.7685  -10.8778 C   0  0  0  0  0  0  0  0  0  0  0  0
   26.1889  -20.7571  -12.3794 C   0  0  2  0  0  0  0  0  0  0  0  0
   27.0400  -19.7716  -13.0267 N   0  0  0  0  0  0  0  0  0  0  0  0
   24.7544  -20.3710  -12.5811 C   0  0  0  0  0  0  0  0  0  0  0  0
   24.3551  -19.2628  -12.0980 O   0  0  0  0  0  0  0  0  0  0  0  0
   23.8690  -21.2454  -13.3072 N   0  0  0  0  0  0  0  0  0  0  0  0
   22.5293  -20.8347  -13.5005 C   0  0  1  0  0  0  0  0  0  0  0  0
   22.3635  -20.4650  -14.9744 C   0  0  0  0  0  0  0  0  0  0  0  0
   23.1204  -19.1963  -15.3019 C   0  0  0  0  0  0  0  0  0  0  0  0
   22.8710  -18.8682  -16.7169 C   0  0  0  0  0  0  0  0  0  0  0  0
   22.1930  -19.6520  -17.4215 O   0  0  0  0  0  0  0  0  0  0  0  0
   21.4758  -21.7818  -13.1818 C   0  0  0  0  0  0  0  0  0  0  0  0
   21.6864  -22.9996  -13.5103 O   0  0  0  0  0  0  0  0  0  0  0  0
   23.3751  -17.7108  -17.2593 O   0  0  0  0  0  0  0  0  0  0  0  0
   20.2614  -21.5181  -12.5592 N   0  0  0  0  0  0  0  0  0  0  0  0
   19.2952  -22.6525  -12.2869 C   0  0  1  0  0  0  0  0  0  0  0  0
   19.3343  -22.7535  -10.8104 C   0  0  0  0  0  0  0  0  0  0  0  0
   18.6007  -23.7389  -10.0359 C   0  0  0  0  0  0  0  0  0  0  0  0
   18.7942  -23.7530   -8.5748 C   0  0  0  0  0  0  0  0  0  0  0  0
   17.8424  -24.7591   -7.8929 C   0  0  0  0  0  0  0  0  0  0  0  0
   18.1623  -24.8288   -6.4837 N   0  0  0  0  0  0  0  0  0  0  0  0
   18.0475  -22.1129  -12.8798 C   0  0  0  0  0  0  0  0  0  0  0  0
   16.9249  -22.6581  -12.7842 O   0  0  0  0  0  0  0  0  0  0  0  0
   18.0386  -20.9078  -13.6159 O   0  0  0  0  0  0  0  0  0  0  0  0
  2  1  1  0
  3  2  2  0
  4  5  1  0
  4  2  1  0
  5  6  1  6
  7  8  2  0
  7  5  1  0
  9  7  1  0
 10  9  1  0
 10 11  1  6
 11 12  1  0
 12 13  1  0
 13 17  1  0
 14 13  2  0
 15 10  1  0
 16 15  2  0
 18 15  1  0
 19 20  1  1
 19 18  1  0
 20 21  1  0
 22 21  1  0
 23 22  1  0
 24 23  1  0
 25 27  1  0
 25 19  1  0
 26 25  2  0
M  END
$$$$
