NEK.pdb
     RDKit          3D

 27 26  0  0  1  0  0  0  0  0999 V2000
   15.7699  -13.9344  -10.2097 N   0  0  0  0  0  0  0  0  0  0  0  0
   16.2497  -13.2954  -11.3621 C   0  0  0  0  0  0  0  0  0  0  0  0
   17.0187  -13.8277  -12.2100 O   0  0  0  0  0  0  0  0  0  0  0  0
   15.8430  -11.8922  -11.6310 C   0  0  0  0  0  0  0  0  0  0  0  0
   14.9486  -11.3353  -10.5369 C   0  0  2  0  0  0  0  0  0  0  0  0
   13.6540  -11.9975  -10.5367 N   0  0  0  0  0  0  0  0  0  0  0  0
   14.7543   -9.8833  -10.8552 C   0  0  0  0  0  0  0  0  0  0  0  0
   13.9026   -9.5711  -11.7486 O   0  0  0  0  0  0  0  0  0  0  0  0
   15.5205   -8.8842  -10.1549 N   0  0  0  0  0  0  0  0  0  0  0  0
   15.2828   -7.5227  -10.4558 C   0  0  1  0  0  0  0  0  0  0  0  0
   15.2607   -6.7510   -9.1364 C   0  0  0  0  0  0  0  0  0  0  0  0
   14.9799   -5.2831   -9.3735 C   0  0  0  0  0  0  0  0  0  0  0  0
   14.9501   -4.6068   -8.0643 C   0  0  0  0  0  0  0  0  0  0  0  0
   14.6510   -3.3913   -8.0048 O   0  0  0  0  0  0  0  0  0  0  0  0
   16.2269   -6.8442  -11.3257 C   0  0  0  0  0  0  0  0  0  0  0  0
   17.4601   -6.9179  -10.9952 O   0  0  0  0  0  0  0  0  0  0  0  0
   15.2449   -5.3036   -6.9173 O   0  0  0  0  0  0  0  0  0  0  0  0
   15.9456   -6.1220  -12.4795 N   0  0  0  0  0  0  0  0  0  0  0  0
   17.0789   -5.5150  -13.2805 C   0  0  1  0  0  0  0  0  0  0  0  0
   16.7137   -5.8763  -14.6690 C   0  0  0  0  0  0  0  0  0  0  0  0
   16.9327   -7.1843  -15.2608 C   0  0  0  0  0  0  0  0  0  0  0  0
   16.5020   -7.3929  -16.6549 C   0  0  0  0  0  0  0  0  0  0  0  0
   16.7851   -8.8376  -17.1190 C   0  0  0  0  0  0  0  0  0  0  0  0
   16.4131   -8.9662  -18.5112 N   0  0  0  0  0  0  0  0  0  0  0  0
   16.9519   -4.0834  -12.9147 C   0  0  0  0  0  0  0  0  0  0  0  0
   15.9582   -3.5852  -12.3394 O   0  0  0  0  0  0  0  0  0  0  0  0
   17.9761   -3.1534  -13.1980 O   0  0  0  0  0  0  0  0  0  0  0  0
  2  1  1  0
  3  2  2  0
  4  5  1  0
  4  2  1  0
  5  6  1  6
  7  8  2  0
  7  5  1  0
  9  7  1  0
 10  9  1  0
 10 11  1  1
 11 12  1  0
 12 13  1  0
 13 17  1  0
 14 13  2  0
 15 10  1  0
 16 15  2  0
 18 15  1  0
 19 20  1  6
 19 18  1  0
 20 21  1  0
 22 21  1  0
 23 22  1  0
 24 23  1  0
 25 27  1  0
 25 19  1  0
 26 25  2  0
M  END
$$$$
