NEK.pdb
     RDKit          3D

 27 26  0  0  1  0  0  0  0  0999 V2000
   28.0566  -21.6609  -11.2507 N   0  0  0  0  0  0  0  0  0  0  0  0
   27.7565  -20.3124  -11.4915 C   0  0  0  0  0  0  0  0  0  0  0  0
   28.6174  -19.3988  -11.6256 O   0  0  0  0  0  0  0  0  0  0  0  0
   26.3340  -19.8983  -11.6002 C   0  0  0  0  0  0  0  0  0  0  0  0
   25.3801  -21.0401  -11.2944 C   0  0  2  0  0  0  0  0  0  0  0  0
   25.6890  -22.2067  -12.1056 N   0  0  0  0  0  0  0  0  0  0  0  0
   24.0102  -20.5465  -11.6507 C   0  0  0  0  0  0  0  0  0  0  0  0
   23.5161  -19.5938  -10.9658 O   0  0  0  0  0  0  0  0  0  0  0  0
   23.2904  -21.1477  -12.7444 N   0  0  0  0  0  0  0  0  0  0  0  0
   21.9846  -20.6824  -13.0254 C   0  0  1  0  0  0  0  0  0  0  0  0
   21.9490  -20.2516  -14.4916 C   0  0  0  0  0  0  0  0  0  0  0  0
   20.6205  -19.6142  -14.8356 C   0  0  0  0  0  0  0  0  0  0  0  0
   20.6413  -19.2588  -16.2658 C   0  0  0  0  0  0  0  0  0  0  0  0
   19.9334  -18.3094  -16.6757 O   0  0  0  0  0  0  0  0  0  0  0  0
   20.8786  -21.6024  -12.8289 C   0  0  0  0  0  0  0  0  0  0  0  0
   21.0950  -22.8259  -13.1316 O   0  0  0  0  0  0  0  0  0  0  0  0
   21.4325  -19.9606  -17.1430 O   0  0  0  0  0  0  0  0  0  0  0  0
   19.6081  -21.3074  -12.3484 N   0  0  0  0  0  0  0  0  0  0  0  0
   18.6317  -22.4310  -12.0679 C   0  0  1  0  0  0  0  0  0  0  0  0
   18.7291  -22.5748  -10.5977 C   0  0  0  0  0  0  0  0  0  0  0  0
   18.3262  -23.7597   -9.8609 C   0  0  0  0  0  0  0  0  0  0  0  0
   18.4610  -23.7400   -8.3933 C   0  0  0  0  0  0  0  0  0  0  0  0
   18.0512  -25.0935   -7.7744 C   0  0  0  0  0  0  0  0  0  0  0  0
   18.1850  -25.0131   -6.3361 N   0  0  0  0  0  0  0  0  0  0  0  0
   17.3717  -21.8517  -12.5935 C   0  0  0  0  0  0  0  0  0  0  0  0
   17.1464  -20.6250  -12.6991 O   0  0  0  0  0  0  0  0  0  0  0  0
   16.3050  -22.6697  -13.0262 O   0  0  0  0  0  0  0  0  0  0  0  0
  2  1  1  0
  3  2  2  0
  4  5  1  0
  4  2  1  0
  5  6  1  6
  7  8  2  0
  7  5  1  0
  9  7  1  0
 10  9  1  0
 10 11  1  6
 11 12  1  0
 12 13  1  0
 13 17  1  0
 14 13  2  0
 15 10  1  0
 16 15  2  0
 18 15  1  0
 19 20  1  1
 19 18  1  0
 20 21  1  0
 22 21  1  0
 23 22  1  0
 24 23  1  0
 25 27  1  0
 25 19  1  0
 26 25  2  0
M  END
$$$$
