NEK.pdb
     RDKit          3D

 27 26  0  0  1  0  0  0  0  0999 V2000
   26.8149  -21.2046   -8.5373 N   0  0  0  0  0  0  0  0  0  0  0  0
   25.5243  -20.6814   -8.7019 C   0  0  0  0  0  0  0  0  0  0  0  0
   24.7580  -20.3509   -7.7545 O   0  0  0  0  0  0  0  0  0  0  0  0
   24.9926  -20.4921  -10.0759 C   0  0  0  0  0  0  0  0  0  0  0  0
   25.9485  -21.0104  -11.1365 C   0  0  2  0  0  0  0  0  0  0  0  0
   27.2652  -20.4118  -10.9864 N   0  0  0  0  0  0  0  0  0  0  0  0
   25.3716  -20.5965  -12.4568 C   0  0  0  0  0  0  0  0  0  0  0  0
   25.6149  -19.4200  -12.8783 O   0  0  0  0  0  0  0  0  0  0  0  0
   24.5674  -21.5223  -13.2128 N   0  0  0  0  0  0  0  0  0  0  0  0
   24.1677  -21.1538  -14.5187 C   0  0  1  0  0  0  0  0  0  0  0  0
   24.3297  -22.3787  -15.4186 C   0  0  0  0  0  0  0  0  0  0  0  0
   25.7923  -22.6805  -15.6625 C   0  0  0  0  0  0  0  0  0  0  0  0
   25.8768  -23.9224  -16.4516 C   0  0  0  0  0  0  0  0  0  0  0  0
   24.8235  -24.4800  -16.8387 O   0  0  0  0  0  0  0  0  0  0  0  0
   22.8106  -20.6712  -14.7030 C   0  0  0  0  0  0  0  0  0  0  0  0
   21.9296  -21.1271  -13.8959 O   0  0  0  0  0  0  0  0  0  0  0  0
   27.1008  -24.4636  -16.7633 O   0  0  0  0  0  0  0  0  0  0  0  0
   22.3562  -19.7686  -15.6573 N   0  0  0  0  0  0  0  0  0  0  0  0
   20.9148  -19.3040  -15.6252 C   0  0  1  0  0  0  0  0  0  0  0  0
   20.9404  -18.1313  -16.5285 C   0  0  0  0  0  0  0  0  0  0  0  0
   19.7650  -17.3779  -16.9282 C   0  0  0  0  0  0  0  0  0  0  0  0
   19.9553  -16.2261  -17.8279 C   0  0  0  0  0  0  0  0  0  0  0  0
   20.0779  -16.6779  -19.2989 C   0  0  0  0  0  0  0  0  0  0  0  0
   20.2495  -15.5111  -20.1369 N   0  0  0  0  0  0  0  0  0  0  0  0
   20.2149  -20.5108  -16.1285 C   0  0  0  0  0  0  0  0  0  0  0  0
   20.7205  -21.3486  -16.9089 O   0  0  0  0  0  0  0  0  0  0  0  0
   18.8877  -20.8088  -15.7492 O   0  0  0  0  0  0  0  0  0  0  0  0
  2  1  1  0
  3  2  2  0
  4  5  1  0
  4  2  1  0
  5  6  1  1
  7  8  2  0
  7  5  1  0
  9  7  1  0
 10  9  1  0
 10 11  1  6
 11 12  1  0
 12 13  1  0
 13 17  1  0
 14 13  2  0
 15 10  1  0
 16 15  2  0
 18 15  1  0
 19 20  1  6
 19 18  1  0
 20 21  1  0
 22 21  1  0
 23 22  1  0
 24 23  1  0
 25 27  1  0
 25 19  1  0
 26 25  2  0
M  END
$$$$
