NEK.pdb
     RDKit          3D

 27 26  0  0  1  0  0  0  0  0999 V2000
   17.3116  -11.7046  -17.1397 N   0  0  0  0  0  0  0  0  0  0  0  0
   17.6770  -12.4979  -16.0425 C   0  0  0  0  0  0  0  0  0  0  0  0
   17.7364  -13.7588  -16.0571 O   0  0  0  0  0  0  0  0  0  0  0  0
   18.0229  -11.8368  -14.7580 C   0  0  0  0  0  0  0  0  0  0  0  0
   17.8767  -10.3268  -14.8332 C   0  0  2  0  0  0  0  0  0  0  0  0
   18.8977   -9.7480  -15.6918 N   0  0  0  0  0  0  0  0  0  0  0  0
   18.0683   -9.8186  -13.4360 C   0  0  0  0  0  0  0  0  0  0  0  0
   17.4231  -10.3844  -12.4954 O   0  0  0  0  0  0  0  0  0  0  0  0
   18.9652   -8.7190  -13.1867 N   0  0  0  0  0  0  0  0  0  0  0  0
   19.0438   -8.2012  -11.8727 C   0  0  1  0  0  0  0  0  0  0  0  0
   20.2499   -7.2639  -11.8128 C   0  0  0  0  0  0  0  0  0  0  0  0
   20.0492   -6.0666  -12.7160 C   0  0  0  0  0  0  0  0  0  0  0  0
   21.2001   -5.1631  -12.5387 C   0  0  0  0  0  0  0  0  0  0  0  0
   22.1032   -5.4671  -11.7249 O   0  0  0  0  0  0  0  0  0  0  0  0
   17.9047   -7.4561  -11.3669 C   0  0  0  0  0  0  0  0  0  0  0  0
   17.2838   -6.7228  -12.2107 O   0  0  0  0  0  0  0  0  0  0  0  0
   21.2842   -3.9977  -13.2618 O   0  0  0  0  0  0  0  0  0  0  0  0
   17.4090   -7.4471  -10.0684 N   0  0  0  0  0  0  0  0  0  0  0  0
   16.1995   -6.5995   -9.7322 C   0  0  1  0  0  0  0  0  0  0  0  0
   15.2672   -7.5940   -9.1545 C   0  0  0  0  0  0  0  0  0  0  0  0
   13.8599   -7.3456   -8.8959 C   0  0  0  0  0  0  0  0  0  0  0  0
   13.0423   -8.4631   -8.3908 C   0  0  0  0  0  0  0  0  0  0  0  0
   11.5991   -8.0086   -8.0850 C   0  0  0  0  0  0  0  0  0  0  0  0
   10.8210   -9.1571   -7.6742 N   0  0  0  0  0  0  0  0  0  0  0  0
   16.7907   -5.6209   -8.7876 C   0  0  0  0  0  0  0  0  0  0  0  0
   16.1863   -4.6252   -8.3294 O   0  0  0  0  0  0  0  0  0  0  0  0
   18.1183   -5.7490   -8.3237 O   0  0  0  0  0  0  0  0  0  0  0  0
  2  1  1  0
  3  2  2  0
  4  5  1  0
  4  2  1  0
  5  6  1  6
  7  8  2  0
  7  5  1  0
  9  7  1  0
 10  9  1  0
 10 11  1  6
 11 12  1  0
 12 13  1  0
 13 17  1  0
 14 13  2  0
 15 10  1  0
 16 15  2  0
 18 15  1  0
 19 20  1  1
 19 18  1  0
 20 21  1  0
 22 21  1  0
 23 22  1  0
 24 23  1  0
 25 27  1  0
 25 19  1  0
 26 25  2  0
M  END
$$$$
