KYR.pdb
     RDKit          3D

 33 33  0  0  1  0  0  0  0  0999 V2000
   19.2608  -10.9727  -15.7600 N   0  0  0  0  0  0  0  0  0  0  0  0
   18.5928   -9.7366  -15.4596 C   0  0  1  0  0  0  0  0  0  0  0  0
   17.1682   -9.7917  -15.8603 C   0  0  0  0  0  0  0  0  0  0  0  0
   16.9602   -9.7510  -17.3307 C   0  0  0  0  0  0  0  0  0  0  0  0
   16.7856   -8.3993  -17.9351 C   0  0  0  0  0  0  0  0  0  0  0  0
   16.4637   -8.5157  -19.4324 C   0  0  0  0  0  0  0  0  0  0  0  0
   16.3956   -7.1567  -19.9648 N   0  0  0  0  0  0  0  0  0  0  0  0
   18.7655   -9.3877  -14.0132 C   0  0  0  0  0  0  0  0  0  0  0  0
   18.4799  -10.2557  -13.1614 O   0  0  0  0  0  0  0  0  0  0  0  0
   23.4443   -4.4104  -15.8831 O   0  0  0  0  0  0  0  0  0  0  0  0
   22.8257   -5.2107  -14.9366 C   0  0  0  0  0  0  0  0  0  0  0  0
   22.9551   -6.5713  -14.9785 C   0  0  0  0  0  0  0  0  0  0  0  0
   22.3031   -7.2925  -13.9942 C   0  0  0  0  0  0  0  0  0  0  0  0
   21.5480   -6.7080  -12.9988 C   0  0  0  0  0  0  0  0  0  0  0  0
   20.8487   -7.5084  -12.0123 C   0  0  0  0  0  0  0  0  0  0  0  0
   19.4059   -7.7566  -12.1712 C   0  0  2  0  0  0  0  0  0  0  0  0
   19.2357   -8.1198  -13.6105 N   0  0  0  0  0  0  0  0  0  0  0  0
   18.4467   -6.7205  -11.8245 C   0  0  0  0  0  0  0  0  0  0  0  0
   18.1149   -5.8128  -12.6937 O   0  0  0  0  0  0  0  0  0  0  0  0
   21.4481   -5.3401  -12.9984 C   0  0  0  0  0  0  0  0  0  0  0  0
   22.0861   -4.5860  -13.9668 C   0  0  0  0  0  0  0  0  0  0  0  0
   14.1630   -9.9924   -8.9427 N   0  0  0  0  0  0  0  0  0  0  0  0
   13.0986   -9.2619   -8.3607 C   0  0  0  0  0  0  0  0  0  0  0  0
   12.3018   -9.8578   -7.5570 N   0  0  0  0  0  0  0  0  0  0  0  0
   12.8998   -7.8977   -8.6492 N   0  0  0  0  0  0  0  0  0  0  0  0
   13.4760   -7.2567   -9.8445 C   0  0  0  0  0  0  0  0  0  0  0  0
   14.7764   -6.6319   -9.5346 C   0  0  0  0  0  0  0  0  0  0  0  0
   15.5440   -5.9410  -10.5527 C   0  0  0  0  0  0  0  0  0  0  0  0
   16.9052   -5.3775  -10.3516 C   0  0  2  0  0  0  0  0  0  0  0  0
   17.7922   -6.5809  -10.5872 N   0  0  0  0  0  0  0  0  0  0  0  0
   17.2179   -4.9973   -8.9742 C   0  0  0  0  0  0  0  0  0  0  0  0
   18.0302   -5.6072   -8.2495 O   0  0  0  0  0  0  0  0  0  0  0  0
   16.6047   -3.8996   -8.3926 O   0  0  0  0  0  0  0  0  0  0  0  0
  2  3  1  0
  2  1  1  1
  3  4  1  0
  5  4  1  0
  6  5  1  0
  7  6  1  0
  8  9  2  0
  8  2  1  0
 10 11  1  0
 11 21  2  0
 12 11  1  0
 12 13  2  0
 13 14  1  0
 14 20  2  0
 14 15  1  0
 16 15  1  6
 16 17  1  0
 17  8  1  0
 18 19  2  0
 18 16  1  0
 21 20  1  0
 23 24  2  0
 23 22  1  0
 25 23  1  0
 26 25  1  0
 27 26  1  0
 28 27  1  0
 29 28  1  1
 29 30  1  0
 30 18  1  0
 31 29  1  0
 32 31  2  0
 33 31  1  0
M  END
$$$$
