KYR.pdb
     RDKit          3D

 33 33  0  0  1  0  0  0  0  0999 V2000
   28.0073  -21.3371  -17.9321 N   0  0  0  0  0  0  0  0  0  0  0  0
   27.7393  -22.7172  -17.6355 C   0  0  1  0  0  0  0  0  0  0  0  0
   28.9809  -23.5226  -17.6886 C   0  0  0  0  0  0  0  0  0  0  0  0
   29.7711  -23.3193  -18.9300 C   0  0  0  0  0  0  0  0  0  0  0  0
   31.0985  -22.6600  -18.7666 C   0  0  0  0  0  0  0  0  0  0  0  0
   31.8150  -22.5478  -20.1204 C   0  0  0  0  0  0  0  0  0  0  0  0
   32.2693  -21.1655  -20.2535 N   0  0  0  0  0  0  0  0  0  0  0  0
   27.0346  -22.8413  -16.3197 C   0  0  0  0  0  0  0  0  0  0  0  0
   26.7334  -23.9860  -15.9203 O   0  0  0  0  0  0  0  0  0  0  0  0
   24.4741  -20.1706   -8.2269 O   0  0  0  0  0  0  0  0  0  0  0  0
   24.9792  -20.3118   -9.5091 C   0  0  0  0  0  0  0  0  0  0  0  0
   24.3443  -19.7421  -10.5778 C   0  0  0  0  0  0  0  0  0  0  0  0
   24.9185  -19.9343  -11.8218 C   0  0  0  0  0  0  0  0  0  0  0  0
   26.0754  -20.6586  -12.0206 C   0  0  0  0  0  0  0  0  0  0  0  0
   26.6171  -20.8675  -13.3494 C   0  0  0  0  0  0  0  0  0  0  0  0
   25.9514  -21.8111  -14.2631 C   0  0  2  0  0  0  0  0  0  0  0  0
   26.7142  -21.7073  -15.5438 N   0  0  0  0  0  0  0  0  0  0  0  0
   24.5310  -21.6749  -14.5421 C   0  0  0  0  0  0  0  0  0  0  0  0
   24.1079  -20.7768  -15.3810 O   0  0  0  0  0  0  0  0  0  0  0  0
   26.6759  -21.2104  -10.9179 C   0  0  0  0  0  0  0  0  0  0  0  0
   26.1306  -21.0396   -9.6581 C   0  0  0  0  0  0  0  0  0  0  0  0
   18.0436  -25.1150  -16.1011 N   0  0  0  0  0  0  0  0  0  0  0  0
   17.2435  -24.8755  -14.9575 C   0  0  0  0  0  0  0  0  0  0  0  0
   15.9753  -24.7818  -15.0944 N   0  0  0  0  0  0  0  0  0  0  0  0
   17.8144  -24.7377  -13.6773 N   0  0  0  0  0  0  0  0  0  0  0  0
   19.2715  -24.7739  -13.4603 C   0  0  0  0  0  0  0  0  0  0  0  0
   19.9062  -23.5243  -13.9221 C   0  0  0  0  0  0  0  0  0  0  0  0
   21.3463  -23.3551  -13.8983 C   0  0  0  0  0  0  0  0  0  0  0  0
   22.0614  -22.1184  -14.3104 C   0  0  2  0  0  0  0  0  0  0  0  0
   23.5007  -22.4515  -13.9817 N   0  0  0  0  0  0  0  0  0  0  0  0
   21.7927  -20.9448  -13.4797 C   0  0  0  0  0  0  0  0  0  0  0  0
   22.1994  -20.8120  -12.3076 O   0  0  0  0  0  0  0  0  0  0  0  0
   21.0490  -19.8875  -13.9779 O   0  0  0  0  0  0  0  0  0  0  0  0
  2  3  1  0
  2  1  1  1
  3  4  1  0
  5  4  1  0
  6  5  1  0
  7  6  1  0
  8  9  2  0
  8  2  1  0
 10 11  1  0
 11 21  2  0
 12 11  1  0
 12 13  2  0
 13 14  1  0
 14 20  2  0
 14 15  1  0
 16 15  1  1
 16 17  1  0
 17  8  1  0
 18 19  2  0
 18 16  1  0
 21 20  1  0
 23 24  2  0
 23 22  1  0
 25 23  1  0
 26 25  1  0
 27 26  1  0
 28 27  1  0
 29 28  1  1
 29 30  1  0
 30 18  1  0
 31 29  1  0
 32 31  2  0
 33 31  1  0
M  END
$$$$
