KYR.pdb
     RDKit          3D

 33 33  0  0  1  0  0  0  0  0999 V2000
   21.0361  -19.9059  -14.2123 N   0  0  0  0  0  0  0  0  0  0  0  0
   22.2824  -20.4045  -13.6998 C   0  0  1  0  0  0  0  0  0  0  0  0
   22.3605  -21.8773  -13.8337 C   0  0  0  0  0  0  0  0  0  0  0  0
   21.3685  -22.4433  -14.7836 C   0  0  0  0  0  0  0  0  0  0  0  0
   21.9149  -23.0001  -16.0542 C   0  0  0  0  0  0  0  0  0  0  0  0
   20.7954  -23.6419  -16.8871 C   0  0  0  0  0  0  0  0  0  0  0  0
   21.3889  -24.0622  -18.1544 N   0  0  0  0  0  0  0  0  0  0  0  0
   23.4337  -19.7098  -14.3595 C   0  0  0  0  0  0  0  0  0  0  0  0
   23.2274  -19.1375  -15.4506 O   0  0  0  0  0  0  0  0  0  0  0  0
   26.7427  -21.0979   -8.3670 O   0  0  0  0  0  0  0  0  0  0  0  0
   26.7625  -20.4928   -9.6130 C   0  0  0  0  0  0  0  0  0  0  0  0
   27.7071  -20.8335  -10.5412 C   0  0  0  0  0  0  0  0  0  0  0  0
   27.6525  -20.1788  -11.7588 C   0  0  0  0  0  0  0  0  0  0  0  0
   26.7077  -19.2215  -12.0646 C   0  0  0  0  0  0  0  0  0  0  0  0
   26.7159  -18.5324  -13.3405 C   0  0  0  0  0  0  0  0  0  0  0  0
   25.8853  -19.0417  -14.4446 C   0  0  2  0  0  0  0  0  0  0  0  0
   24.7188  -19.6945  -13.7771 N   0  0  0  0  0  0  0  0  0  0  0  0
   26.4526  -19.9603  -15.4184 C   0  0  0  0  0  0  0  0  0  0  0  0
   26.1001  -21.2114  -15.4266 O   0  0  0  0  0  0  0  0  0  0  0  0
   25.7810  -18.9140  -11.1014 C   0  0  0  0  0  0  0  0  0  0  0  0
   25.8046  -19.5479   -9.8721 C   0  0  0  0  0  0  0  0  0  0  0  0
   31.8809  -25.5661  -15.6957 N   0  0  0  0  0  0  0  0  0  0  0  0
   30.9138  -25.9840  -16.6419 C   0  0  0  0  0  0  0  0  0  0  0  0
   31.0583  -27.1154  -17.2206 N   0  0  0  0  0  0  0  0  0  0  0  0
   29.8007  -25.1810  -16.9582 N   0  0  0  0  0  0  0  0  0  0  0  0
   29.5416  -23.8979  -16.2815 C   0  0  0  0  0  0  0  0  0  0  0  0
   28.3486  -23.2353  -16.8431 C   0  0  0  0  0  0  0  0  0  0  0  0
   27.9635  -21.8988  -16.4327 C   0  0  0  0  0  0  0  0  0  0  0  0
   27.8991  -20.7199  -17.3366 C   0  0  2  0  0  0  0  0  0  0  0  0
   27.3891  -19.6328  -16.4155 N   0  0  0  0  0  0  0  0  0  0  0  0
   26.8674  -20.7917  -18.3710 C   0  0  0  0  0  0  0  0  0  0  0  0
   25.6425  -20.8120  -18.1342 O   0  0  0  0  0  0  0  0  0  0  0  0
   27.2183  -20.8389  -19.7103 O   0  0  0  0  0  0  0  0  0  0  0  0
  2  3  1  0
  2  1  1  6
  3  4  1  0
  5  4  1  0
  6  5  1  0
  7  6  1  0
  8  9  2  0
  8  2  1  0
 10 11  1  0
 11 21  2  0
 12 11  1  0
 12 13  2  0
 13 14  1  0
 14 20  2  0
 14 15  1  0
 16 15  1  1
 16 17  1  0
 17  8  1  0
 18 19  2  0
 18 16  1  0
 21 20  1  0
 23 24  2  0
 23 22  1  0
 25 23  1  0
 26 25  1  0
 27 26  1  0
 28 27  1  0
 29 28  1  1
 29 30  1  0
 30 18  1  0
 31 29  1  0
 32 31  2  0
 33 31  1  0
M  END
$$$$
