KYR.pdb
     RDKit          3D

 33 33  0  0  1  0  0  0  0  0999 V2000
   12.9867  -12.8260    5.1061 N   0  0  0  0  0  0  0  0  0  0  0  0
   13.7642  -13.6614    5.9791 C   0  0  1  0  0  0  0  0  0  0  0  0
   12.8902  -14.4409    6.8856 C   0  0  0  0  0  0  0  0  0  0  0  0
   13.0630  -14.0988    8.3208 C   0  0  0  0  0  0  0  0  0  0  0  0
   12.2465  -14.8851    9.2895 C   0  0  0  0  0  0  0  0  0  0  0  0
   12.4477  -14.3571   10.7176 C   0  0  0  0  0  0  0  0  0  0  0  0
   11.6564  -15.2058   11.6056 N   0  0  0  0  0  0  0  0  0  0  0  0
   14.6844  -14.5349    5.1833 C   0  0  0  0  0  0  0  0  0  0  0  0
   14.6110  -14.4843    3.9372 O   0  0  0  0  0  0  0  0  0  0  0  0
   20.1519  -10.7582    5.4165 O   0  0  0  0  0  0  0  0  0  0  0  0
   19.5941  -12.0212    5.5290 C   0  0  0  0  0  0  0  0  0  0  0  0
   19.5068  -12.6418    6.7444 C   0  0  0  0  0  0  0  0  0  0  0  0
   18.9357  -13.9017    6.7640 C   0  0  0  0  0  0  0  0  0  0  0  0
   18.4637  -14.5392    5.6356 C   0  0  0  0  0  0  0  0  0  0  0  0
   17.9104  -15.8781    5.6998 C   0  0  0  0  0  0  0  0  0  0  0  0
   16.6293  -16.1655    5.0330 C   0  0  2  0  0  0  0  0  0  0  0  0
   15.6117  -15.3946    5.8094 N   0  0  0  0  0  0  0  0  0  0  0  0
   16.1768  -17.5395    4.8872 C   0  0  0  0  0  0  0  0  0  0  0  0
   15.6854  -18.1824    5.9044 O   0  0  0  0  0  0  0  0  0  0  0  0
   18.5730  -13.8765    4.4397 C   0  0  0  0  0  0  0  0  0  0  0  0
   19.1385  -12.6154    4.3814 C   0  0  0  0  0  0  0  0  0  0  0  0
   14.1752  -22.4994   -2.3379 N   0  0  0  0  0  0  0  0  0  0  0  0
   14.2180  -23.3907   -1.2384 C   0  0  0  0  0  0  0  0  0  0  0  0
   13.9430  -24.6255   -1.4277 N   0  0  0  0  0  0  0  0  0  0  0  0
   14.5548  -22.9462    0.0549 N   0  0  0  0  0  0  0  0  0  0  0  0
   14.8896  -21.5394    0.3383 C   0  0  0  0  0  0  0  0  0  0  0  0
   15.1002  -21.3266    1.7833 C   0  0  0  0  0  0  0  0  0  0  0  0
   15.4944  -20.0329    2.3066 C   0  0  0  0  0  0  0  0  0  0  0  0
   15.7646  -19.7448    3.7401 C   0  0  2  0  0  0  0  0  0  0  0  0
   16.2047  -18.2973    3.7024 N   0  0  0  0  0  0  0  0  0  0  0  0
   16.9285  -20.4328    4.2986 C   0  0  0  0  0  0  0  0  0  0  0  0
   18.1000  -20.0152    4.1984 O   0  0  0  0  0  0  0  0  0  0  0  0
   16.7748  -21.6220    4.9924 O   0  0  0  0  0  0  0  0  0  0  0  0
  2  3  1  0
  2  1  1  6
  3  4  1  0
  5  4  1  0
  6  5  1  0
  7  6  1  0
  8  9  2  0
  8  2  1  0
 10 11  1  0
 11 21  2  0
 12 11  1  0
 12 13  2  0
 13 14  1  0
 14 20  2  0
 14 15  1  0
 16 15  1  1
 16 17  1  0
 17  8  1  0
 18 19  2  0
 18 16  1  0
 21 20  1  0
 23 24  2  0
 23 22  1  0
 25 23  1  0
 26 25  1  0
 27 26  1  0
 28 27  1  0
 29 28  1  6
 29 30  1  0
 30 18  1  0
 31 29  1  0
 32 31  2  0
 33 31  1  0
M  END
$$$$
