KYR.pdb
     RDKit          3D

 33 33  0  0  1  0  0  0  0  0999 V2000
   23.0248  -22.6953   -6.5734 N   0  0  0  0  0  0  0  0  0  0  0  0
   22.4759  -22.0604   -7.7397 C   0  0  1  0  0  0  0  0  0  0  0  0
   21.3389  -21.1821   -7.3808 C   0  0  0  0  0  0  0  0  0  0  0  0
   20.0356  -21.8917   -7.3122 C   0  0  0  0  0  0  0  0  0  0  0  0
   20.0630  -23.2677   -6.7385 C   0  0  0  0  0  0  0  0  0  0  0  0
   18.6854  -23.9341   -6.8697 C   0  0  0  0  0  0  0  0  0  0  0  0
   18.7851  -25.2537   -6.2504 N   0  0  0  0  0  0  0  0  0  0  0  0
   23.5469  -21.3294   -8.4893 C   0  0  0  0  0  0  0  0  0  0  0  0
   23.1981  -20.4398   -9.2940 O   0  0  0  0  0  0  0  0  0  0  0  0
   28.2088  -18.5069   -3.5241 O   0  0  0  0  0  0  0  0  0  0  0  0
   27.9697  -19.1409   -4.7324 C   0  0  0  0  0  0  0  0  0  0  0  0
   27.6549  -18.4197   -5.8507 C   0  0  0  0  0  0  0  0  0  0  0  0
   27.4318  -19.1346   -7.0139 C   0  0  0  0  0  0  0  0  0  0  0  0
   27.5124  -20.5096   -7.0876 C   0  0  0  0  0  0  0  0  0  0  0  0
   27.2292  -21.2181   -8.3208 C   0  0  0  0  0  0  0  0  0  0  0  0
   25.9906  -20.9204   -9.0595 C   0  0  2  0  0  0  0  0  0  0  0  0
   24.9135  -21.6266   -8.3021 N   0  0  0  0  0  0  0  0  0  0  0  0
   25.8840  -21.2610  -10.4689 C   0  0  0  0  0  0  0  0  0  0  0  0
   25.7001  -22.4942  -10.8362 O   0  0  0  0  0  0  0  0  0  0  0  0
   27.8315  -21.1890   -5.9397 C   0  0  0  0  0  0  0  0  0  0  0  0
   28.0612  -20.5079   -4.7578 C   0  0  0  0  0  0  0  0  0  0  0  0
   24.3096  -17.6319  -17.7408 N   0  0  0  0  0  0  0  0  0  0  0  0
   23.2893  -18.6098  -17.8304 C   0  0  0  0  0  0  0  0  0  0  0  0
   22.8163  -18.9114  -18.9799 N   0  0  0  0  0  0  0  0  0  0  0  0
   22.7860  -19.2535  -16.6833 N   0  0  0  0  0  0  0  0  0  0  0  0
   23.2671  -18.9312  -15.3282 C   0  0  0  0  0  0  0  0  0  0  0  0
   24.2071  -19.9596  -14.8422 C   0  0  0  0  0  0  0  0  0  0  0  0
   24.7666  -19.9002  -13.5056 C   0  0  0  0  0  0  0  0  0  0  0  0
   25.7502  -20.8695  -12.9545 C   0  0  2  0  0  0  0  0  0  0  0  0
   25.9547  -20.3578  -11.5450 N   0  0  0  0  0  0  0  0  0  0  0  0
   27.0896  -20.7873  -13.5366 C   0  0  0  0  0  0  0  0  0  0  0  0
   28.0230  -20.1193  -13.0473 O   0  0  0  0  0  0  0  0  0  0  0  0
   27.3930  -21.4765  -14.6995 O   0  0  0  0  0  0  0  0  0  0  0  0
  2  3  1  0
  2  1  1  1
  3  4  1  0
  5  4  1  0
  6  5  1  0
  7  6  1  0
  8  9  2  0
  8  2  1  0
 10 11  1  0
 11 21  2  0
 12 11  1  0
 12 13  2  0
 13 14  1  0
 14 20  2  0
 14 15  1  0
 16 15  1  1
 16 17  1  0
 17  8  1  0
 18 19  2  0
 18 16  1  0
 21 20  1  0
 23 24  2  0
 23 22  1  0
 25 23  1  0
 26 25  1  0
 27 26  1  0
 28 27  1  0
 29 28  1  6
 29 30  1  0
 30 18  1  0
 31 29  1  0
 32 31  2  0
 33 31  1  0
M  END
$$$$
