RNQ.pdb
     RDKit          3D

 29 28  0  0  1  0  0  0  0  0999 V2000
   30.8828  -22.6388  -11.7988 N   0  0  0  0  0  0  0  0  0  0  0  0
   31.0579  -21.9699  -10.5756 C   0  0  0  0  0  0  0  0  0  0  0  0
   32.1506  -22.1637   -9.8822 N   0  0  0  0  0  0  0  0  0  0  0  0
   30.0596  -21.0815  -10.0745 N   0  0  0  0  0  0  0  0  0  0  0  0
   28.6769  -21.5760  -10.1739 C   0  0  0  0  0  0  0  0  0  0  0  0
   28.1684  -21.1334  -11.4944 C   0  0  0  0  0  0  0  0  0  0  0  0
   26.7624  -21.5026  -11.8420 C   0  0  0  0  0  0  0  0  0  0  0  0
   25.7499  -20.6128  -11.2543 C   0  0  2  0  0  0  0  0  0  0  0  0
   25.4235  -20.7712   -9.8893 N   0  0  0  0  0  0  0  0  0  0  0  0
   24.5474  -20.3694  -12.1139 C   0  0  0  0  0  0  0  0  0  0  0  0
   23.4477  -20.7221  -11.6593 O   0  0  0  0  0  0  0  0  0  0  0  0
   32.2512  -21.6315   -8.9825 N   0  0  0  0  0  0  0  0  0  0  0  0
   21.9146  -17.0025  -16.1394 C   0  0  0  0  0  0  0  0  0  0  0  0
   22.5809  -18.2561  -16.1939 O   0  0  0  0  0  0  0  0  0  0  0  0
   22.0948  -19.0939  -16.9867 C   0  0  0  0  0  0  0  0  0  0  0  0
   23.7639  -18.5787  -15.3906 C   0  0  1  0  0  0  0  0  0  0  0  0
   23.4918  -19.4580  -14.2235 N   0  0  0  0  0  0  0  0  0  0  0  0
   24.6036  -19.7803  -13.3826 C   0  0  0  0  0  0  0  0  0  0  0  0
   22.6635  -20.6112  -14.6091 O   0  0  0  0  0  0  0  0  0  0  0  0
   23.2167  -21.6365  -15.0644 N   0  0  0  0  0  0  0  0  0  0  0  0
   19.0307  -24.1122  -11.6643 C   0  0  0  0  0  0  0  0  0  0  0  0
   18.3489  -22.8770  -11.9306 O   0  0  0  0  0  0  0  0  0  0  0  0
   17.4006  -22.5978  -11.1551 C   0  0  0  0  0  0  0  0  0  0  0  0
   18.7374  -21.9977  -13.0393 C   0  0  0  0  0  0  0  0  0  0  0  0
   19.9994  -22.5635  -13.6497 C   0  0  1  0  0  0  0  0  0  0  0  0
   20.4755  -21.8329  -14.8683 N   0  0  0  0  0  0  0  0  0  0  0  0
   21.2565  -20.6495  -14.5026 C   0  0  0  0  0  0  0  0  0  0  0  0
   19.2734  -21.4824  -15.6707 O   0  0  0  0  0  0  0  0  0  0  0  0
   18.7883  -20.3356  -15.5170 O   0  0  0  0  0  0  0  0  0  0  0  0
  2  3  2  0
  2  1  1  0
  4  2  1  0
  5  4  1  0
  6  5  1  0
  7  6  1  0
  8  7  1  0
  8 10  1  0
  8  9  1  1
 10 17  1  0
 10 11  2  0
 13 12  1  0
 14 13  2  0
 15 13  1  0
 16 15  1  1
 17 16  1  0
 18 16  1  0
 18 19  2  0
 20 21  1  0
 21 22  2  0
 23 21  1  0
 23 24  1  0
 25 24  1  6
 25 26  1  0
 26 18  1  0
 27 25  1  0
 28 27  2  0
 29 27  1  0
M  END
$$$$
