RNQ.pdb
     RDKit          3D

 29 28  0  0  1  0  0  0  0  0999 V2000
   22.6269  -31.4403  -12.9881 N   0  0  0  0  0  0  0  0  0  0  0  0
   22.0587  -31.5076  -11.7048 C   0  0  0  0  0  0  0  0  0  0  0  0
   22.6262  -32.2431  -10.7831 N   0  0  0  0  0  0  0  0  0  0  0  0
   20.8681  -30.7865  -11.3897 N   0  0  0  0  0  0  0  0  0  0  0  0
   20.5048  -29.7312  -12.3491 C   0  0  0  0  0  0  0  0  0  0  0  0
   20.4040  -28.4741  -11.5697 C   0  0  0  0  0  0  0  0  0  0  0  0
   21.3308  -27.3631  -11.9451 C   0  0  0  0  0  0  0  0  0  0  0  0
   21.0049  -26.7231  -13.2282 C   0  0  2  0  0  0  0  0  0  0  0  0
   20.7352  -27.5468  -14.3434 N   0  0  0  0  0  0  0  0  0  0  0  0
   21.8505  -25.5360  -13.5748 C   0  0  0  0  0  0  0  0  0  0  0  0
   22.0038  -24.6755  -12.6936 O   0  0  0  0  0  0  0  0  0  0  0  0
   23.4342  -32.8460  -11.0773 N   0  0  0  0  0  0  0  0  0  0  0  0
   25.0802  -22.0555  -15.6673 C   0  0  0  0  0  0  0  0  0  0  0  0
   25.5371  -23.3945  -15.7970 O   0  0  0  0  0  0  0  0  0  0  0  0
   26.7576  -23.5293  -16.0395 C   0  0  0  0  0  0  0  0  0  0  0  0
   24.6638  -24.5638  -15.6588 C   0  0  2  0  0  0  0  0  0  0  0  0
   23.2811  -24.2478  -15.2147 N   0  0  0  0  0  0  0  0  0  0  0  0
   22.4592  -25.3511  -14.8218 C   0  0  0  0  0  0  0  0  0  0  0  0
   22.6318  -23.2997  -16.1335 O   0  0  0  0  0  0  0  0  0  0  0  0
   21.8269  -22.4586  -15.6760 N   0  0  0  0  0  0  0  0  0  0  0  0
   20.0046  -27.1263  -18.4545 C   0  0  0  0  0  0  0  0  0  0  0  0
   19.4379  -26.1690  -19.3622 O   0  0  0  0  0  0  0  0  0  0  0  0
   18.5059  -26.5918  -20.0911 C   0  0  0  0  0  0  0  0  0  0  0  0
   19.9188  -24.7843  -19.4321 C   0  0  0  0  0  0  0  0  0  0  0  0
   21.0631  -24.6488  -18.4535 C   0  0  2  0  0  0  0  0  0  0  0  0
   21.7555  -23.3206  -18.4955 N   0  0  0  0  0  0  0  0  0  0  0  0
   22.8527  -23.2666  -17.5272 C   0  0  0  0  0  0  0  0  0  0  0  0
   20.7276  -22.2783  -18.2330 O   0  0  0  0  0  0  0  0  0  0  0  0
   20.2095  -21.7126  -19.2257 O   0  0  0  0  0  0  0  0  0  0  0  0
  2  3  2  0
  2  1  1  0
  4  2  1  0
  5  4  1  0
  6  5  1  0
  7  6  1  0
  8  7  1  0
  8 10  1  0
  8  9  1  6
 10 17  1  0
 10 11  2  0
 13 12  1  0
 14 13  2  0
 15 13  1  0
 16 15  1  1
 17 16  1  0
 18 16  1  0
 18 19  2  0
 20 21  1  0
 21 22  2  0
 23 21  1  0
 23 24  1  0
 25 24  1  6
 25 26  1  0
 26 18  1  0
 27 25  1  0
 28 27  2  0
 29 27  1  0
M  END
$$$$
