RNQ.pdb
     RDKit          3D

 29 28  0  0  1  0  0  0  0  0999 V2000
   18.4094  -21.6828  -10.4422 N   0  0  0  0  0  0  0  0  0  0  0  0
   18.9238  -22.1846   -9.2348 C   0  0  0  0  0  0  0  0  0  0  0  0
   18.3557  -23.2188   -8.6690 N   0  0  0  0  0  0  0  0  0  0  0  0
   20.0578  -21.5817   -8.6124 N   0  0  0  0  0  0  0  0  0  0  0  0
   20.8344  -20.6752   -9.4734 C   0  0  0  0  0  0  0  0  0  0  0  0
   21.2716  -21.4789  -10.6400 C   0  0  0  0  0  0  0  0  0  0  0  0
   22.1695  -20.8102  -11.6304 C   0  0  0  0  0  0  0  0  0  0  0  0
   21.6393  -19.5430  -12.1549 C   0  0  2  0  0  0  0  0  0  0  0  0
   20.2589  -19.4565  -12.4413 N   0  0  0  0  0  0  0  0  0  0  0  0
   22.4904  -18.8855  -13.1978 C   0  0  0  0  0  0  0  0  0  0  0  0
   21.9647  -17.9839  -13.8695 O   0  0  0  0  0  0  0  0  0  0  0  0
   18.7878  -23.5812   -7.7831 N   0  0  0  0  0  0  0  0  0  0  0  0
   27.5983  -16.8799  -15.1080 C   0  0  0  0  0  0  0  0  0  0  0  0
   26.9951  -18.1621  -15.2096 O   0  0  0  0  0  0  0  0  0  0  0  0
   27.2271  -18.7875  -16.2687 C   0  0  0  0  0  0  0  0  0  0  0  0
   26.1535  -18.7453  -14.1605 C   0  0  1  0  0  0  0  0  0  0  0  0
   24.6931  -18.6384  -14.4154 N   0  0  0  0  0  0  0  0  0  0  0  0
   23.8220  -19.2360  -13.4504 C   0  0  0  0  0  0  0  0  0  0  0  0
   24.3725  -18.9668  -15.8133 O   0  0  0  0  0  0  0  0  0  0  0  0
   24.4284  -20.1583  -16.1898 N   0  0  0  0  0  0  0  0  0  0  0  0
   19.2341  -18.5705  -15.8360 C   0  0  0  0  0  0  0  0  0  0  0  0
   19.2425  -18.8138  -17.2510 O   0  0  0  0  0  0  0  0  0  0  0  0
   18.1356  -19.1227  -17.7591 C   0  0  0  0  0  0  0  0  0  0  0  0
   20.4680  -18.7074  -18.0511 C   0  0  0  0  0  0  0  0  0  0  0  0
   21.6074  -18.4100  -17.1031 C   0  0  2  0  0  0  0  0  0  0  0  0
   22.9430  -18.2741  -17.7687 N   0  0  0  0  0  0  0  0  0  0  0  0
   23.9982  -18.0158  -16.7867 C   0  0  0  0  0  0  0  0  0  0  0  0
   22.8292  -17.1779  -18.7673 O   0  0  0  0  0  0  0  0  0  0  0  0
   23.5012  -16.1380  -18.5652 O   0  0  0  0  0  0  0  0  0  0  0  0
  2  3  2  0
  2  1  1  0
  4  2  1  0
  5  4  1  0
  6  5  1  0
  7  6  1  0
  8  7  1  0
  8 10  1  0
  8  9  1  6
 10 17  1  0
 10 11  2  0
 13 12  1  0
 14 13  2  0
 15 13  1  0
 16 15  1  1
 17 16  1  0
 18 16  1  0
 18 19  2  0
 20 21  1  0
 21 22  2  0
 23 21  1  0
 23 24  1  0
 25 24  1  1
 25 26  1  0
 26 18  1  0
 27 25  1  0
 28 27  2  0
 29 27  1  0
M  END
$$$$
