RNQ.pdb
     RDKit          3D

 29 28  0  0  1  0  0  0  0  0999 V2000
   25.1155  -19.6539   -8.4876 N   0  0  0  0  0  0  0  0  0  0  0  0
   25.0572  -20.9887   -8.0528 C   0  0  0  0  0  0  0  0  0  0  0  0
   24.3743  -21.2905   -6.9781 N   0  0  0  0  0  0  0  0  0  0  0  0
   25.7343  -22.0237   -8.7650 N   0  0  0  0  0  0  0  0  0  0  0  0
   25.6037  -21.9624  -10.2297 C   0  0  0  0  0  0  0  0  0  0  0  0
   26.3882  -20.7841  -10.6705 C   0  0  0  0  0  0  0  0  0  0  0  0
   26.2302  -20.3535  -12.0931 C   0  0  0  0  0  0  0  0  0  0  0  0
   25.4701  -21.3011  -12.9216 C   0  0  2  0  0  0  0  0  0  0  0  0
   26.0203  -22.5796  -13.1610 N   0  0  0  0  0  0  0  0  0  0  0  0
   24.8343  -20.7057  -14.1405 C   0  0  0  0  0  0  0  0  0  0  0  0
   24.2918  -19.5970  -14.0098 O   0  0  0  0  0  0  0  0  0  0  0  0
   24.3609  -22.2981   -6.6827 N   0  0  0  0  0  0  0  0  0  0  0  0
   27.5176  -20.8344  -17.8304 C   0  0  0  0  0  0  0  0  0  0  0  0
   26.2736  -20.1622  -17.6926 O   0  0  0  0  0  0  0  0  0  0  0  0
   26.3443  -18.9364  -17.4495 C   0  0  0  0  0  0  0  0  0  0  0  0
   24.9750  -20.8296  -17.8237 C   0  0  2  0  0  0  0  0  0  0  0  0
   24.1682  -20.8522  -16.5757 N   0  0  0  0  0  0  0  0  0  0  0  0
   24.8176  -21.3296  -15.3935 C   0  0  0  0  0  0  0  0  0  0  0  0
   22.8356  -21.4281  -16.8150 O   0  0  0  0  0  0  0  0  0  0  0  0
   22.7303  -22.6546  -17.0364 N   0  0  0  0  0  0  0  0  0  0  0  0
   19.3557  -22.1760  -12.7581 C   0  0  0  0  0  0  0  0  0  0  0  0
   18.3680  -22.5141  -13.7437 O   0  0  0  0  0  0  0  0  0  0  0  0
   17.3170  -23.0446  -13.3049 C   0  0  0  0  0  0  0  0  0  0  0  0
   18.5754  -22.2549  -15.1732 C   0  0  0  0  0  0  0  0  0  0  0  0
   19.9481  -21.6416  -15.3312 C   0  0  1  0  0  0  0  0  0  0  0  0
   20.3195  -21.3192  -16.7466 N   0  0  0  0  0  0  0  0  0  0  0  0
   21.6367  -20.6831  -16.8148 C   0  0  0  0  0  0  0  0  0  0  0  0
   19.2486  -20.4458  -17.2962 O   0  0  0  0  0  0  0  0  0  0  0  0
   19.5517  -19.2594  -17.5691 O   0  0  0  0  0  0  0  0  0  0  0  0
  2  3  2  0
  2  1  1  0
  4  2  1  0
  5  4  1  0
  6  5  1  0
  7  6  1  0
  8  7  1  0
  8 10  1  0
  8  9  1  6
 10 17  1  0
 10 11  2  0
 13 12  1  0
 14 13  2  0
 15 13  1  0
 16 15  1  1
 17 16  1  0
 18 16  1  0
 18 19  2  0
 20 21  1  0
 21 22  2  0
 23 21  1  0
 23 24  1  0
 25 24  1  6
 25 26  1  0
 26 18  1  0
 27 25  1  0
 28 27  2  0
 29 27  1  0
M  END
$$$$
