RNQ.pdb
     RDKit          3D

 29 28  0  0  1  0  0  0  0  0999 V2000
   25.2933  -17.8267  -21.0811 N   0  0  0  0  0  0  0  0  0  0  0  0
   26.2210  -18.6157  -20.3804 C   0  0  0  0  0  0  0  0  0  0  0  0
   27.4901  -18.5551  -20.6938 N   0  0  0  0  0  0  0  0  0  0  0  0
   25.8004  -19.4865  -19.3307 N   0  0  0  0  0  0  0  0  0  0  0  0
   24.3455  -19.5500  -19.1173 C   0  0  0  0  0  0  0  0  0  0  0  0
   24.0090  -18.4375  -18.1969 C   0  0  0  0  0  0  0  0  0  0  0  0
   23.7981  -18.7833  -16.7581 C   0  0  0  0  0  0  0  0  0  0  0  0
   22.7739  -19.8150  -16.5371 C   0  0  2  0  0  0  0  0  0  0  0  0
   21.4847  -19.6121  -17.0771 N   0  0  0  0  0  0  0  0  0  0  0  0
   22.7397  -20.3847  -15.1520 C   0  0  0  0  0  0  0  0  0  0  0  0
   23.8311  -20.5732  -14.5919 O   0  0  0  0  0  0  0  0  0  0  0  0
   28.1470  -19.1832  -20.1677 N   0  0  0  0  0  0  0  0  0  0  0  0
   23.1663  -20.1918   -9.9492 C   0  0  0  0  0  0  0  0  0  0  0  0
   23.1170  -20.3158  -11.3636 O   0  0  0  0  0  0  0  0  0  0  0  0
   24.1182  -20.8457  -11.8962 C   0  0  0  0  0  0  0  0  0  0  0  0
   21.9824  -19.8661  -12.1757 C   0  0  2  0  0  0  0  0  0  0  0  0
   21.4120  -20.9115  -13.0650 N   0  0  0  0  0  0  0  0  0  0  0  0
   21.5597  -20.7136  -14.4744 C   0  0  0  0  0  0  0  0  0  0  0  0
   20.0544  -21.2872  -12.6403 O   0  0  0  0  0  0  0  0  0  0  0  0
   19.0699  -20.7454  -13.1896 N   0  0  0  0  0  0  0  0  0  0  0  0
   18.4134  -25.2213   -8.0091 C   0  0  0  0  0  0  0  0  0  0  0  0
   17.1401  -24.9712   -8.6235 O   0  0  0  0  0  0  0  0  0  0  0  0
   16.1500  -25.5104   -8.0687 C   0  0  0  0  0  0  0  0  0  0  0  0
   17.0061  -24.1376   -9.8237 C   0  0  0  0  0  0  0  0  0  0  0  0
   18.3801  -23.6096  -10.1683 C   0  0  1  0  0  0  0  0  0  0  0  0
   18.4125  -22.7138  -11.3690 N   0  0  0  0  0  0  0  0  0  0  0  0
   19.7710  -22.2357  -11.6342 C   0  0  0  0  0  0  0  0  0  0  0  0
   17.4674  -21.5950  -11.1109 O   0  0  0  0  0  0  0  0  0  0  0  0
   17.9287  -20.5586  -10.5753 O   0  0  0  0  0  0  0  0  0  0  0  0
  2  3  2  0
  2  1  1  0
  4  2  1  0
  5  4  1  0
  6  5  1  0
  7  6  1  0
  8  7  1  0
  8 10  1  0
  8  9  1  1
 10 17  1  0
 10 11  2  0
 13 12  1  0
 14 13  2  0
 15 13  1  0
 16 15  1  1
 17 16  1  0
 18 16  1  0
 18 19  2  0
 20 21  1  0
 21 22  2  0
 23 21  1  0
 23 24  1  0
 25 24  1  6
 25 26  1  0
 26 18  1  0
 27 25  1  0
 28 27  2  0
 29 27  1  0
M  END
$$$$
