QEQ.pdb
     RDKit          3D

 28 27  0  0  1  0  0  0  0  0999 V2000
    9.1053  -13.5094   16.0994 N   0  0  0  0  0  0  0  0  0  0  0  0
    8.0929  -14.4889   16.3620 C   0  0  0  0  0  0  0  0  0  0  0  0
    7.8518  -15.3753   15.5092 O   0  0  0  0  0  0  0  0  0  0  0  0
    7.3246  -14.4672   17.6331 C   0  0  0  0  0  0  0  0  0  0  0  0
    7.7318  -13.2544   18.4200 C   0  0  0  0  0  0  0  0  0  0  0  0
    8.9597  -13.5445   19.2333 C   0  0  2  0  0  0  0  0  0  0  0  0
   10.0101  -14.1520   18.4894 N   0  0  0  0  0  0  0  0  0  0  0  0
    8.6254  -14.3949   20.4366 C   0  0  0  0  0  0  0  0  0  0  0  0
    7.6606  -14.0818   21.1597 O   0  0  0  0  0  0  0  0  0  0  0  0
    9.3850  -15.5399   20.7597 N   0  0  0  0  0  0  0  0  0  0  0  0
    9.3317  -16.3768   21.8954 C   0  0  1  0  0  0  0  0  0  0  0  0
    9.9617  -17.7455   21.7859 C   0  0  0  0  0  0  0  0  0  0  0  0
   11.1628  -17.8392   20.9207 C   0  0  0  0  0  0  0  0  0  0  0  0
   11.7966  -19.1937   20.9643 C   0  0  0  0  0  0  0  0  0  0  0  0
   12.9121  -19.3576   20.4309 O   0  0  0  0  0  0  0  0  0  0  0  0
    9.7037  -15.7879   23.1844 C   0  0  0  0  0  0  0  0  0  0  0  0
   10.7284  -15.0777   23.2408 O   0  0  0  0  0  0  0  0  0  0  0  0
   11.1982  -20.2773   21.5724 O   0  0  0  0  0  0  0  0  0  0  0  0
    5.5232  -12.6381   25.8246 N   0  0  0  0  0  0  0  0  0  0  0  0
    6.5077  -12.4895   26.8407 C   0  0  0  0  0  0  0  0  0  0  0  0
    6.3795  -11.6659   27.7675 O   0  0  0  0  0  0  0  0  0  0  0  0
    7.7120  -13.3459   26.7750 C   0  0  0  0  0  0  0  0  0  0  0  0
    7.7443  -14.2682   25.6045 C   0  0  0  0  0  0  0  0  0  0  0  0
    8.9961  -15.0669   25.5164 C   0  0  2  0  0  0  0  0  0  0  0  0
    8.9480  -15.9902   24.3727 N   0  0  0  0  0  0  0  0  0  0  0  0
    9.3054  -15.7986   26.7568 C   0  0  0  0  0  0  0  0  0  0  0  0
    9.0671  -17.0133   26.8547 O   0  0  0  0  0  0  0  0  0  0  0  0
    9.8683  -15.1410   27.8381 O   0  0  0  0  0  0  0  0  0  0  0  0
  2  3  2  0
  2  1  1  0
  4  2  1  0
  5  4  1  0
  6  5  1  0
  6  7  1  6
  8  9  2  0
  8  6  1  0
 10  8  1  0
 11 10  1  0
 12 13  1  0
 11 12  1  6
 13 14  1  0
 14 15  2  0
 14 18  1  0
 16 11  1  0
 16 17  2  0
 20 19  1  0
 21 20  2  0
 22 20  1  0
 23 22  1  0
 24 25  1  0
 24 23  1  1
 25 16  1  0
 26 24  1  0
 27 26  2  0
 28 26  1  0
M  END
$$$$
