QEQ.pdb
     RDKit          3D

 28 27  0  0  1  0  0  0  0  0999 V2000
    7.0656  -12.9327   18.3933 N   0  0  0  0  0  0  0  0  0  0  0  0
    7.8904  -12.7648   19.5531 C   0  0  0  0  0  0  0  0  0  0  0  0
    7.9734  -11.6387   20.0970 O   0  0  0  0  0  0  0  0  0  0  0  0
    8.6491  -13.9095   20.1193 C   0  0  0  0  0  0  0  0  0  0  0  0
    8.3241  -15.1417   19.3243 C   0  0  0  0  0  0  0  0  0  0  0  0
    9.0425  -16.3337   19.8869 C   0  0  2  0  0  0  0  0  0  0  0  0
    8.7774  -17.5453   19.1887 N   0  0  0  0  0  0  0  0  0  0  0  0
    8.7340  -16.5101   21.3554 C   0  0  0  0  0  0  0  0  0  0  0  0
    8.9493  -15.5705   22.1444 O   0  0  0  0  0  0  0  0  0  0  0  0
    8.2052  -17.7202   21.8538 N   0  0  0  0  0  0  0  0  0  0  0  0
    7.8264  -18.0758   23.1665 C   0  0  1  0  0  0  0  0  0  0  0  0
    7.1641  -19.4191   23.3639 C   0  0  0  0  0  0  0  0  0  0  0  0
    6.8234  -19.7748   24.7630 C   0  0  0  0  0  0  0  0  0  0  0  0
    6.1408  -21.1020   24.8672 C   0  0  0  0  0  0  0  0  0  0  0  0
    5.9733  -21.7793   23.8333 O   0  0  0  0  0  0  0  0  0  0  0  0
    8.8139  -17.8756   24.2303 C   0  0  0  0  0  0  0  0  0  0  0  0
    9.9711  -18.3095   24.0575 O   0  0  0  0  0  0  0  0  0  0  0  0
    5.6851  -21.6139   26.0639 O   0  0  0  0  0  0  0  0  0  0  0  0
    8.9312  -13.0882   28.3003 N   0  0  0  0  0  0  0  0  0  0  0  0
    9.8869  -13.9596   28.8925 C   0  0  0  0  0  0  0  0  0  0  0  0
   10.4715  -13.6724   29.9553 O   0  0  0  0  0  0  0  0  0  0  0  0
   10.1823  -15.2379   28.2092 C   0  0  0  0  0  0  0  0  0  0  0  0
    9.2023  -15.6057   27.1480 C   0  0  0  0  0  0  0  0  0  0  0  0
    9.5321  -16.8801   26.4556 C   0  0  2  0  0  0  0  0  0  0  0  0
    8.5107  -17.2084   25.4497 N   0  0  0  0  0  0  0  0  0  0  0  0
    9.7258  -18.0095   27.3811 C   0  0  0  0  0  0  0  0  0  0  0  0
    8.7798  -18.7568   27.6790 O   0  0  0  0  0  0  0  0  0  0  0  0
   10.9703  -18.2566   27.9366 O   0  0  0  0  0  0  0  0  0  0  0  0
  2  3  2  0
  2  1  1  0
  4  2  1  0
  5  4  1  0
  6  5  1  0
  6  7  1  6
  8  9  2  0
  8  6  1  0
 10  8  1  0
 11 10  1  0
 12 13  1  0
 11 12  1  6
 13 14  1  0
 14 15  2  0
 14 18  1  0
 16 11  1  0
 16 17  2  0
 20 19  1  0
 21 20  2  0
 22 20  1  0
 23 22  1  0
 24 25  1  0
 24 23  1  1
 25 16  1  0
 26 24  1  0
 27 26  2  0
 28 26  1  0
M  END
$$$$
