QEQ.pdb
     RDKit          3D

 28 27  0  0  1  0  0  0  0  0999 V2000
    5.5816  -13.2580   18.0481 N   0  0  0  0  0  0  0  0  0  0  0  0
    6.4974  -13.7642   17.0692 C   0  0  0  0  0  0  0  0  0  0  0  0
    6.0799  -14.0632   15.9258 O   0  0  0  0  0  0  0  0  0  0  0  0
    7.9366  -13.9394   17.3925 C   0  0  0  0  0  0  0  0  0  0  0  0
    8.1504  -13.5905   18.8376 C   0  0  0  0  0  0  0  0  0  0  0  0
    9.5530  -13.1030   19.0577 C   0  0  2  0  0  0  0  0  0  0  0  0
   10.2155  -12.7034   17.8631 N   0  0  0  0  0  0  0  0  0  0  0  0
   10.3808  -14.1396   19.7809 C   0  0  0  0  0  0  0  0  0  0  0  0
    9.9231  -14.6862   20.8024 O   0  0  0  0  0  0  0  0  0  0  0  0
   11.6653  -14.5032   19.3222 N   0  0  0  0  0  0  0  0  0  0  0  0
   12.5750  -15.4581   19.8258 C   0  0  1  0  0  0  0  0  0  0  0  0
   13.8617  -15.6688   19.0628 C   0  0  0  0  0  0  0  0  0  0  0  0
   14.9143  -14.6448   19.2712 C   0  0  0  0  0  0  0  0  0  0  0  0
   16.1058  -14.8602   18.3923 C   0  0  0  0  0  0  0  0  0  0  0  0
   17.1451  -15.3395   18.8883 O   0  0  0  0  0  0  0  0  0  0  0  0
   12.8784  -15.4097   21.2584 C   0  0  0  0  0  0  0  0  0  0  0  0
   13.3152  -14.3438   21.7386 O   0  0  0  0  0  0  0  0  0  0  0  0
   16.1064  -14.5505   17.0484 O   0  0  0  0  0  0  0  0  0  0  0  0
    8.0396  -14.8663   22.9280 N   0  0  0  0  0  0  0  0  0  0  0  0
    8.4175  -15.2841   24.2343 C   0  0  0  0  0  0  0  0  0  0  0  0
    7.6501  -15.1721   25.2101 O   0  0  0  0  0  0  0  0  0  0  0  0
    9.7660  -15.8639   24.4178 C   0  0  0  0  0  0  0  0  0  0  0  0
   10.5981  -15.8822   23.1813 C   0  0  0  0  0  0  0  0  0  0  0  0
   11.9622  -16.4352   23.3956 C   0  0  2  0  0  0  0  0  0  0  0  0
   12.6964  -16.5237   22.1244 N   0  0  0  0  0  0  0  0  0  0  0  0
   11.9580  -17.7394   24.0802 C   0  0  0  0  0  0  0  0  0  0  0  0
   11.5791  -17.8377   25.2587 O   0  0  0  0  0  0  0  0  0  0  0  0
   12.3788  -18.8811   23.4184 O   0  0  0  0  0  0  0  0  0  0  0  0
  2  3  2  0
  2  1  1  0
  4  2  1  0
  5  4  1  0
  6  5  1  0
  6  7  1  6
  8  9  2  0
  8  6  1  0
 10  8  1  0
 11 10  1  0
 12 13  1  0
 11 12  1  6
 13 14  1  0
 14 15  2  0
 14 18  1  0
 16 11  1  0
 16 17  2  0
 20 19  1  0
 21 20  2  0
 22 20  1  0
 23 22  1  0
 24 25  1  0
 24 23  1  6
 25 16  1  0
 26 24  1  0
 27 26  2  0
 28 26  1  0
M  END
$$$$
