QEQ.pdb
     RDKit          3D

 28 27  0  0  1  0  0  0  0  0999 V2000
    7.7696  -11.9864   18.9079 N   0  0  0  0  0  0  0  0  0  0  0  0
    7.5845  -13.3159   18.4064 C   0  0  0  0  0  0  0  0  0  0  0  0
    7.1825  -13.4848   17.2313 O   0  0  0  0  0  0  0  0  0  0  0  0
    7.8630  -14.4976   19.2623 C   0  0  0  0  0  0  0  0  0  0  0  0
    9.1706  -14.2816   19.9690 C   0  0  0  0  0  0  0  0  0  0  0  0
    9.9481  -15.5639   20.0376 C   0  0  2  0  0  0  0  0  0  0  0  0
    9.6776  -16.4568   18.9629 N   0  0  0  0  0  0  0  0  0  0  0  0
    9.7224  -16.2656   21.3565 C   0  0  0  0  0  0  0  0  0  0  0  0
    8.7501  -15.9420   22.0647 O   0  0  0  0  0  0  0  0  0  0  0  0
   10.5922  -17.2832   21.8043 N   0  0  0  0  0  0  0  0  0  0  0  0
   10.5960  -18.0097   23.0148 C   0  0  1  0  0  0  0  0  0  0  0  0
   11.1415  -19.4181   22.9835 C   0  0  0  0  0  0  0  0  0  0  0  0
   12.4681  -19.5856   22.3415 C   0  0  0  0  0  0  0  0  0  0  0  0
   13.1515  -20.8494   22.7588 C   0  0  0  0  0  0  0  0  0  0  0  0
   12.5756  -21.6131   23.5593 O   0  0  0  0  0  0  0  0  0  0  0  0
   11.1108  -17.3306   24.2066 C   0  0  0  0  0  0  0  0  0  0  0  0
   12.0997  -16.5794   24.0832 O   0  0  0  0  0  0  0  0  0  0  0  0
   14.3989  -21.2105   22.2945 O   0  0  0  0  0  0  0  0  0  0  0  0
    8.6402  -13.5942   28.0136 N   0  0  0  0  0  0  0  0  0  0  0  0
    9.7349  -13.9633   28.8436 C   0  0  0  0  0  0  0  0  0  0  0  0
    9.9533  -13.4020   29.9349 O   0  0  0  0  0  0  0  0  0  0  0  0
   10.6289  -15.0458   28.3778 C   0  0  0  0  0  0  0  0  0  0  0  0
   10.1900  -15.7007   27.1128 C   0  0  0  0  0  0  0  0  0  0  0  0
   11.0651  -16.8296   26.6977 C   0  0  2  0  0  0  0  0  0  0  0  0
   10.5323  -17.4901   25.4966 N   0  0  0  0  0  0  0  0  0  0  0  0
   11.2897  -17.8137   27.7703 C   0  0  0  0  0  0  0  0  0  0  0  0
   12.2381  -17.6864   28.5618 O   0  0  0  0  0  0  0  0  0  0  0  0
   10.4442  -18.9014   27.9135 O   0  0  0  0  0  0  0  0  0  0  0  0
  2  3  2  0
  2  1  1  0
  4  2  1  0
  5  4  1  0
  6  5  1  0
  6  7  1  6
  8  9  2  0
  8  6  1  0
 10  8  1  0
 11 10  1  0
 12 13  1  0
 11 12  1  6
 13 14  1  0
 14 15  2  0
 14 18  1  0
 16 11  1  0
 16 17  2  0
 20 19  1  0
 21 20  2  0
 22 20  1  0
 23 22  1  0
 24 25  1  0
 24 23  1  1
 25 16  1  0
 26 24  1  0
 27 26  2  0
 28 26  1  0
M  END
$$$$
