QEQ.pdb
     RDKit          3D

 28 27  0  0  1  0  0  0  0  0999 V2000
   -0.5792  -18.6934   22.3632 N   0  0  0  0  0  0  0  0  0  0  0  0
   -0.1100  -19.9646   22.8294 C   0  0  0  0  0  0  0  0  0  0  0  0
   -0.9197  -20.7767   23.3353 O   0  0  0  0  0  0  0  0  0  0  0  0
    1.3250  -20.3325   22.7208 C   0  0  0  0  0  0  0  0  0  0  0  0
    2.0815  -19.1586   22.1678 C   0  0  0  0  0  0  0  0  0  0  0  0
    3.2300  -19.6259   21.3217 C   0  0  2  0  0  0  0  0  0  0  0  0
    3.3315  -21.0421   21.2241 N   0  0  0  0  0  0  0  0  0  0  0  0
    4.5371  -19.0510   21.8154 C   0  0  0  0  0  0  0  0  0  0  0  0
    5.2363  -19.7099   22.6083 O   0  0  0  0  0  0  0  0  0  0  0  0
    4.9843  -17.7796   21.3959 N   0  0  0  0  0  0  0  0  0  0  0  0
    6.1723  -17.0838   21.7087 C   0  0  1  0  0  0  0  0  0  0  0  0
    6.5391  -15.9015   20.8428 C   0  0  0  0  0  0  0  0  0  0  0  0
    7.7892  -15.1923   21.2093 C   0  0  0  0  0  0  0  0  0  0  0  0
    8.1127  -14.0763   20.2668 C   0  0  0  0  0  0  0  0  0  0  0  0
    9.1157  -13.3687   20.4880 O   0  0  0  0  0  0  0  0  0  0  0  0
    6.3948  -16.7277   23.1124 C   0  0  0  0  0  0  0  0  0  0  0  0
    5.5190  -16.0645   23.7044 O   0  0  0  0  0  0  0  0  0  0  0  0
    7.3459  -13.7929   19.1560 O   0  0  0  0  0  0  0  0  0  0  0  0
    9.8518  -19.7470   27.4197 N   0  0  0  0  0  0  0  0  0  0  0  0
    9.4789  -18.5713   28.1284 C   0  0  0  0  0  0  0  0  0  0  0  0
    9.7870  -18.3962   29.3235 O   0  0  0  0  0  0  0  0  0  0  0  0
    8.7012  -17.5400   27.4075 C   0  0  0  0  0  0  0  0  0  0  0  0
    8.4984  -17.8272   25.9590 C   0  0  0  0  0  0  0  0  0  0  0  0
    7.7949  -16.7358   25.2334 C   0  0  2  0  0  0  0  0  0  0  0  0
    7.5647  -17.1054   23.8286 N   0  0  0  0  0  0  0  0  0  0  0  0
    8.4912  -15.4406   25.3182 C   0  0  0  0  0  0  0  0  0  0  0  0
    9.3991  -15.1534   24.5212 O   0  0  0  0  0  0  0  0  0  0  0  0
    8.1437  -14.5191   26.2921 O   0  0  0  0  0  0  0  0  0  0  0  0
  2  3  2  0
  2  1  1  0
  4  2  1  0
  5  4  1  0
  6  5  1  0
  6  7  1  1
  8  9  2  0
  8  6  1  0
 10  8  1  0
 11 10  1  0
 12 13  1  0
 11 12  1  6
 13 14  1  0
 14 15  2  0
 14 18  1  0
 16 11  1  0
 16 17  2  0
 20 19  1  0
 21 20  2  0
 22 20  1  0
 23 22  1  0
 24 25  1  0
 24 23  1  6
 25 16  1  0
 26 24  1  0
 27 26  2  0
 28 26  1  0
M  END
$$$$
