QEQ.pdb
     RDKit          3D

 28 27  0  0  1  0  0  0  0  0999 V2000
    8.1001  -12.5088   17.4368 N   0  0  0  0  0  0  0  0  0  0  0  0
    7.6319  -13.8385   17.1798 C   0  0  0  0  0  0  0  0  0  0  0  0
    7.7191  -14.3137   16.0232 O   0  0  0  0  0  0  0  0  0  0  0  0
    7.0439  -14.6617   18.2675 C   0  0  0  0  0  0  0  0  0  0  0  0
    7.2369  -13.9429   19.5721 C   0  0  0  0  0  0  0  0  0  0  0  0
    8.6535  -14.0883   20.0468 C   0  0  2  0  0  0  0  0  0  0  0  0
    9.5217  -14.6817   19.0878 N   0  0  0  0  0  0  0  0  0  0  0  0
    8.7150  -14.8628   21.3426 C   0  0  0  0  0  0  0  0  0  0  0  0
    7.9101  -14.5960   22.2552 O   0  0  0  0  0  0  0  0  0  0  0  0
    9.6674  -15.8854   21.5416 N   0  0  0  0  0  0  0  0  0  0  0  0
    9.9228  -16.6826   22.6785 C   0  0  1  0  0  0  0  0  0  0  0  0
   10.9093  -17.8170   22.5301 C   0  0  0  0  0  0  0  0  0  0  0  0
   11.0156  -18.7395   23.6868 C   0  0  0  0  0  0  0  0  0  0  0  0
   11.9711  -19.8635   23.4377 C   0  0  0  0  0  0  0  0  0  0  0  0
   11.7359  -20.6636   22.5102 O   0  0  0  0  0  0  0  0  0  0  0  0
   10.1874  -15.9894   23.9419 C   0  0  0  0  0  0  0  0  0  0  0  0
   11.0004  -15.0426   23.9424 O   0  0  0  0  0  0  0  0  0  0  0  0
   13.1087  -20.0560   24.1932 O   0  0  0  0  0  0  0  0  0  0  0  0
    7.6215  -11.9187   26.5650 N   0  0  0  0  0  0  0  0  0  0  0  0
    6.8987  -13.0593   26.1176 C   0  0  0  0  0  0  0  0  0  0  0  0
    5.6969  -12.9928   25.7936 O   0  0  0  0  0  0  0  0  0  0  0  0
    7.6129  -14.3526   26.0446 C   0  0  0  0  0  0  0  0  0  0  0  0
    9.0739  -14.2620   26.3256 C   0  0  0  0  0  0  0  0  0  0  0  0
    9.7421  -15.5881   26.4116 C   0  0  2  0  0  0  0  0  0  0  0  0
    9.5579  -16.3484   25.1662 N   0  0  0  0  0  0  0  0  0  0  0  0
    9.3037  -16.3840   27.5709 C   0  0  0  0  0  0  0  0  0  0  0  0
    8.6760  -17.4439   27.4138 O   0  0  0  0  0  0  0  0  0  0  0  0
    9.5849  -15.9612   28.8595 O   0  0  0  0  0  0  0  0  0  0  0  0
  2  3  2  0
  2  1  1  0
  4  2  1  0
  5  4  1  0
  6  5  1  0
  6  7  1  6
  8  9  2  0
  8  6  1  0
 10  8  1  0
 11 10  1  0
 12 13  1  0
 11 12  1  6
 13 14  1  0
 14 15  2  0
 14 18  1  0
 16 11  1  0
 16 17  2  0
 20 19  1  0
 21 20  2  0
 22 20  1  0
 23 22  1  0
 24 25  1  0
 24 23  1  6
 25 16  1  0
 26 24  1  0
 27 26  2  0
 28 26  1  0
M  END
$$$$
