QEQ.pdb
     RDKit          3D

 28 27  0  0  1  0  0  0  0  0999 V2000
    8.5824  -12.7019   18.3243 N   0  0  0  0  0  0  0  0  0  0  0  0
    8.4181  -12.6453   19.7467 C   0  0  0  0  0  0  0  0  0  0  0  0
    8.7336  -11.6024   20.3662 O   0  0  0  0  0  0  0  0  0  0  0  0
    7.8785  -13.8082   20.4971 C   0  0  0  0  0  0  0  0  0  0  0  0
    7.5519  -14.9011   19.5200 C   0  0  0  0  0  0  0  0  0  0  0  0
    7.0273  -16.1092   20.2400 C   0  0  2  0  0  0  0  0  0  0  0  0
    5.7141  -15.9406   20.7621 N   0  0  0  0  0  0  0  0  0  0  0  0
    7.9673  -16.5338   21.3441 C   0  0  0  0  0  0  0  0  0  0  0  0
    7.6387  -16.3541   22.5321 O   0  0  0  0  0  0  0  0  0  0  0  0
    9.2133  -17.1318   21.0572 N   0  0  0  0  0  0  0  0  0  0  0  0
   10.2082  -17.6255   21.9288 C   0  0  1  0  0  0  0  0  0  0  0  0
   11.3144  -18.4596   21.3267 C   0  0  0  0  0  0  0  0  0  0  0  0
   12.2284  -19.1184   22.2915 C   0  0  0  0  0  0  0  0  0  0  0  0
   13.3410  -19.8555   21.6156 C   0  0  0  0  0  0  0  0  0  0  0  0
   14.4248  -19.9991   22.2162 O   0  0  0  0  0  0  0  0  0  0  0  0
   10.7949  -16.6826   22.8845 C   0  0  0  0  0  0  0  0  0  0  0  0
   11.3645  -15.6640   22.4425 O   0  0  0  0  0  0  0  0  0  0  0  0
   13.2213  -20.3875   20.3488 O   0  0  0  0  0  0  0  0  0  0  0  0
    8.9030  -15.8271   28.8303 N   0  0  0  0  0  0  0  0  0  0  0  0
    9.9626  -14.8831   28.7325 C   0  0  0  0  0  0  0  0  0  0  0  0
   10.2383  -14.1026   29.6644 O   0  0  0  0  0  0  0  0  0  0  0  0
   10.7459  -14.8419   27.4783 C   0  0  0  0  0  0  0  0  0  0  0  0
   10.3475  -15.8684   26.4736 C   0  0  0  0  0  0  0  0  0  0  0  0
   11.2027  -15.8666   25.2566 C   0  0  2  0  0  0  0  0  0  0  0  0
   10.7429  -16.8779   24.2928 N   0  0  0  0  0  0  0  0  0  0  0  0
   12.6336  -16.0505   25.5534 C   0  0  0  0  0  0  0  0  0  0  0  0
   13.4227  -15.0932   25.4980 O   0  0  0  0  0  0  0  0  0  0  0  0
   13.1241  -17.2988   25.8995 O   0  0  0  0  0  0  0  0  0  0  0  0
  2  3  2  0
  2  1  1  0
  4  2  1  0
  5  4  1  0
  6  5  1  0
  6  7  1  1
  8  9  2  0
  8  6  1  0
 10  8  1  0
 11 10  1  0
 12 13  1  0
 11 12  1  6
 13 14  1  0
 14 15  2  0
 14 18  1  0
 16 11  1  0
 16 17  2  0
 20 19  1  0
 21 20  2  0
 22 20  1  0
 23 22  1  0
 24 25  1  0
 24 23  1  1
 25 16  1  0
 26 24  1  0
 27 26  2  0
 28 26  1  0
M  END
$$$$
