QEQ.pdb
     RDKit          3D

 28 27  0  0  1  0  0  0  0  0999 V2000
    6.2275  -20.3726   18.1044 N   0  0  0  0  0  0  0  0  0  0  0  0
    6.7554  -19.4001   17.1939 C   0  0  0  0  0  0  0  0  0  0  0  0
    6.7723  -19.6463   15.9650 O   0  0  0  0  0  0  0  0  0  0  0  0
    7.2835  -18.1027   17.6884 C   0  0  0  0  0  0  0  0  0  0  0  0
    7.1429  -18.0651   19.1833 C   0  0  0  0  0  0  0  0  0  0  0  0
    7.5653  -16.7269   19.7165 C   0  0  2  0  0  0  0  0  0  0  0  0
    8.3027  -15.9446   18.7839 N   0  0  0  0  0  0  0  0  0  0  0  0
    8.3538  -16.8770   20.9966 C   0  0  0  0  0  0  0  0  0  0  0  0
    7.8346  -17.4506   21.9729 O   0  0  0  0  0  0  0  0  0  0  0  0
    9.6700  -16.3799   21.1100 N   0  0  0  0  0  0  0  0  0  0  0  0
   10.5934  -16.4828   22.1730 C   0  0  1  0  0  0  0  0  0  0  0  0
   12.0017  -15.9951   21.9260 C   0  0  0  0  0  0  0  0  0  0  0  0
   12.7275  -16.6480   20.8092 C   0  0  0  0  0  0  0  0  0  0  0  0
   14.1059  -16.0974   20.6218 C   0  0  0  0  0  0  0  0  0  0  0  0
   15.0869  -16.8455   20.8058 O   0  0  0  0  0  0  0  0  0  0  0  0
   10.1572  -16.0170   23.4918 C   0  0  0  0  0  0  0  0  0  0  0  0
    9.4501  -14.9907   23.5567 O   0  0  0  0  0  0  0  0  0  0  0  0
   14.3423  -14.7900   20.2517 O   0  0  0  0  0  0  0  0  0  0  0  0
    7.5402  -20.1477   25.7888 N   0  0  0  0  0  0  0  0  0  0  0  0
    6.8697  -19.1425   26.5396 C   0  0  0  0  0  0  0  0  0  0  0  0
    5.9842  -19.4214   27.3713 O   0  0  0  0  0  0  0  0  0  0  0  0
    7.2486  -17.7313   26.3093 C   0  0  0  0  0  0  0  0  0  0  0  0
    8.2962  -17.5409   25.2662 C   0  0  0  0  0  0  0  0  0  0  0  0
    9.5422  -16.9177   25.7873 C   0  0  2  0  0  0  0  0  0  0  0  0
   10.5042  -16.6836   24.6999 N   0  0  0  0  0  0  0  0  0  0  0  0
   10.1686  -17.6933   26.8715 C   0  0  0  0  0  0  0  0  0  0  0  0
   10.9918  -18.5883   26.6195 O   0  0  0  0  0  0  0  0  0  0  0  0
    9.8479  -17.4366   28.1943 O   0  0  0  0  0  0  0  0  0  0  0  0
  2  3  2  0
  2  1  1  0
  4  2  1  0
  5  4  1  0
  6  5  1  0
  6  7  1  6
  8  9  2  0
  8  6  1  0
 10  8  1  0
 11 10  1  0
 12 13  1  0
 11 12  1  6
 13 14  1  0
 14 15  2  0
 14 18  1  0
 16 11  1  0
 16 17  2  0
 20 19  1  0
 21 20  2  0
 22 20  1  0
 23 22  1  0
 24 25  1  0
 24 23  1  6
 25 16  1  0
 26 24  1  0
 27 26  2  0
 28 26  1  0
M  END
$$$$
