QEQ.pdb
     RDKit          3D

 28 27  0  0  1  0  0  0  0  0999 V2000
    8.3520  -11.6499   19.5311 N   0  0  0  0  0  0  0  0  0  0  0  0
    7.8653  -12.8822   18.9852 C   0  0  0  0  0  0  0  0  0  0  0  0
    6.6887  -12.9495   18.5586 O   0  0  0  0  0  0  0  0  0  0  0  0
    8.7384  -14.0822   18.9184 C   0  0  0  0  0  0  0  0  0  0  0  0
   10.0827  -13.7307   19.4887 C   0  0  0  0  0  0  0  0  0  0  0  0
   10.9522  -14.9514   19.5737 C   0  0  2  0  0  0  0  0  0  0  0  0
   10.9525  -15.7389   18.3882 N   0  0  0  0  0  0  0  0  0  0  0  0
   10.5708  -15.8081   20.7583 C   0  0  0  0  0  0  0  0  0  0  0  0
    9.3913  -15.8102   21.1591 O   0  0  0  0  0  0  0  0  0  0  0  0
   11.5251  -16.6087   21.4223 N   0  0  0  0  0  0  0  0  0  0  0  0
   11.3868  -17.4370   22.5572 C   0  0  1  0  0  0  0  0  0  0  0  0
   11.8184  -18.8788   22.4275 C   0  0  0  0  0  0  0  0  0  0  0  0
   11.6543  -19.7164   23.6407 C   0  0  0  0  0  0  0  0  0  0  0  0
   12.1966  -21.0991   23.4603 C   0  0  0  0  0  0  0  0  0  0  0  0
   13.3023  -21.2477   22.9025 O   0  0  0  0  0  0  0  0  0  0  0  0
   11.8709  -16.9127   23.8369 C   0  0  0  0  0  0  0  0  0  0  0  0
   13.0552  -16.5268   23.9123 O   0  0  0  0  0  0  0  0  0  0  0  0
   11.5239  -22.2251   23.8865 O   0  0  0  0  0  0  0  0  0  0  0  0
    9.8231  -12.9307   28.8130 N   0  0  0  0  0  0  0  0  0  0  0  0
   10.0035  -14.3113   29.1049 C   0  0  0  0  0  0  0  0  0  0  0  0
    9.3325  -14.8934   29.9793 O   0  0  0  0  0  0  0  0  0  0  0  0
   11.0240  -15.0584   28.3377 C   0  0  0  0  0  0  0  0  0  0  0  0
   10.5490  -15.5657   27.0191 C   0  0  0  0  0  0  0  0  0  0  0  0
   11.5600  -16.3899   26.3044 C   0  0  2  0  0  0  0  0  0  0  0  0
   11.0498  -16.8246   24.9954 N   0  0  0  0  0  0  0  0  0  0  0  0
   12.0222  -17.5484   27.0879 C   0  0  0  0  0  0  0  0  0  0  0  0
   13.0461  -17.4757   27.7868 O   0  0  0  0  0  0  0  0  0  0  0  0
   11.3203  -18.7420   27.0571 O   0  0  0  0  0  0  0  0  0  0  0  0
  2  3  2  0
  2  1  1  0
  4  2  1  0
  5  4  1  0
  6  5  1  0
  6  7  1  6
  8  9  2  0
  8  6  1  0
 10  8  1  0
 11 10  1  0
 12 13  1  0
 11 12  1  6
 13 14  1  0
 14 15  2  0
 14 18  1  0
 16 11  1  0
 16 17  2  0
 20 19  1  0
 21 20  2  0
 22 20  1  0
 23 22  1  0
 24 25  1  0
 24 23  1  1
 25 16  1  0
 26 24  1  0
 27 26  2  0
 28 26  1  0
M  END
$$$$
