IES.pdb
     RDKit          3D

 24 23  0  0  1  0  0  0  0  0999 V2000
    6.7027  -12.0891   19.0448 C   0  0  0  0  0  0  0  0  0  0  0  0
    7.6705  -12.8419   18.1794 C   0  0  0  0  0  0  0  0  0  0  0  0
    8.6789  -13.6420   18.9511 C   0  0  2  0  0  0  0  0  0  0  0  0
    9.4074  -12.6968   19.8790 C   0  0  0  0  0  0  0  0  0  0  0  0
    9.5959  -14.4416   18.0957 C   0  0  2  0  0  0  0  0  0  0  0  0
    8.8048  -15.2653   17.1797 N   0  0  0  0  0  0  0  0  0  0  0  0
   10.5818  -15.2651   18.8269 C   0  0  0  0  0  0  0  0  0  0  0  0
   10.3071  -16.3989   19.2462 O   0  0  0  0  0  0  0  0  0  0  0  0
   11.9157  -14.7871   19.0885 N   0  0  0  0  0  0  0  0  0  0  0  0
   12.9181  -15.5542   19.7776 C   0  0  1  0  0  0  0  0  0  0  0  0
   14.3104  -14.9999   19.6198 C   0  0  0  0  0  0  0  0  0  0  0  0
   14.8564  -15.1235   18.2300 C   0  0  0  0  0  0  0  0  0  0  0  0
   16.1535  -14.4172   18.1873 C   0  0  0  0  0  0  0  0  0  0  0  0
   16.4386  -13.7380   17.1778 O   0  0  0  0  0  0  0  0  0  0  0  0
   12.6107  -15.5802   21.2262 C   0  0  0  0  0  0  0  0  0  0  0  0
   12.3430  -14.5174   21.8032 O   0  0  0  0  0  0  0  0  0  0  0  0
   17.0596  -14.4834   19.2256 O   0  0  0  0  0  0  0  0  0  0  0  0
   10.1882  -17.5295   24.6684 O   0  0  0  0  0  0  0  0  0  0  0  0
   10.6586  -17.4361   23.3478 C   0  0  0  0  0  0  0  0  0  0  0  0
   12.0328  -16.8100   23.3023 C   0  0  2  0  0  0  0  0  0  0  0  0
   12.6061  -16.7699   21.9983 N   0  0  0  0  0  0  0  0  0  0  0  0
   12.9140  -17.4859   24.2565 C   0  0  0  0  0  0  0  0  0  0  0  0
   12.6530  -17.5415   25.6148 O   0  0  0  0  0  0  0  0  0  0  0  0
   13.9563  -18.0440   23.8369 O   0  0  0  0  0  0  0  0  0  0  0  0
  2  1  1  0
  3  2  1  0
  3  4  1  6
  5  3  1  0
  5  6  1  1
  7  8  2  0
  7  5  1  0
  9  7  1  0
 10  9  1  0
 11 12  1  0
 10 11  1  1
 12 13  1  0
 13 17  1  0
 13 14  2  0
 15 16  2  0
 15 10  1  0
 18 19  1  0
 20 21  1  0
 20 19  1  6
 21 15  1  0
 22 20  1  0
 23 22  1  0
 24 22  2  0
M  END
$$$$
