IES.pdb
     RDKit          3D

 24 23  0  0  1  0  0  0  0  0999 V2000
    6.5091  -13.1479   19.8782 C   0  0  0  0  0  0  0  0  0  0  0  0
    7.7289  -13.9775   19.6027 C   0  0  0  0  0  0  0  0  0  0  0  0
    9.0210  -13.2737   19.8994 C   0  0  2  0  0  0  0  0  0  0  0  0
    9.0555  -12.0045   19.0789 C   0  0  0  0  0  0  0  0  0  0  0  0
   10.2270  -14.1232   19.7105 C   0  0  2  0  0  0  0  0  0  0  0  0
   10.2704  -14.5975   18.3261 N   0  0  0  0  0  0  0  0  0  0  0  0
   10.3586  -15.2501   20.6579 C   0  0  0  0  0  0  0  0  0  0  0  0
   10.1350  -15.1174   21.8700 O   0  0  0  0  0  0  0  0  0  0  0  0
   10.7550  -16.5629   20.2158 N   0  0  0  0  0  0  0  0  0  0  0  0
   11.0371  -17.6548   21.1082 C   0  0  1  0  0  0  0  0  0  0  0  0
   12.0788  -18.6068   20.5799 C   0  0  0  0  0  0  0  0  0  0  0  0
   12.2902  -19.8120   21.4446 C   0  0  0  0  0  0  0  0  0  0  0  0
   13.2835  -20.6799   20.7787 C   0  0  0  0  0  0  0  0  0  0  0  0
   13.5257  -21.8051   21.2657 O   0  0  0  0  0  0  0  0  0  0  0  0
   11.5337  -17.1224   22.3981 C   0  0  0  0  0  0  0  0  0  0  0  0
   12.5034  -16.3518   22.3971 O   0  0  0  0  0  0  0  0  0  0  0  0
   13.9520  -20.2882   19.6371 O   0  0  0  0  0  0  0  0  0  0  0  0
    9.3157  -17.0004   25.9266 O   0  0  0  0  0  0  0  0  0  0  0  0
   10.4586  -16.2104   25.7171 C   0  0  0  0  0  0  0  0  0  0  0  0
   11.4768  -16.9391   24.8719 C   0  0  2  0  0  0  0  0  0  0  0  0
   10.9527  -17.4508   23.6495 N   0  0  0  0  0  0  0  0  0  0  0  0
   12.1140  -17.9914   25.6659 C   0  0  0  0  0  0  0  0  0  0  0  0
   12.8157  -17.7358   26.8314 O   0  0  0  0  0  0  0  0  0  0  0  0
   12.0275  -19.1832   25.2837 O   0  0  0  0  0  0  0  0  0  0  0  0
  2  1  1  0
  3  2  1  0
  3  4  1  6
  5  3  1  0
  5  6  1  6
  7  8  2  0
  7  5  1  0
  9  7  1  0
 10  9  1  0
 11 12  1  0
 10 11  1  6
 12 13  1  0
 13 17  1  0
 13 14  2  0
 15 16  2  0
 15 10  1  0
 18 19  1  0
 20 21  1  0
 20 19  1  1
 21 15  1  0
 22 20  1  0
 23 22  1  0
 24 22  2  0
M  END
$$$$
