IES.pdb
     RDKit          3D

 24 23  0  0  1  0  0  0  0  0999 V2000
    6.2502  -11.8194   27.1994 C   0  0  0  0  0  0  0  0  0  0  0  0
    6.0115  -12.8763   26.1610 C   0  0  0  0  0  0  0  0  0  0  0  0
    7.1150  -13.8887   26.0610 C   0  0  2  0  0  0  0  0  0  0  0  0
    8.4022  -13.1445   25.7876 C   0  0  0  0  0  0  0  0  0  0  0  0
    6.8495  -14.9744   25.0799 C   0  0  2  0  0  0  0  0  0  0  0  0
    5.5450  -15.5742   25.3662 N   0  0  0  0  0  0  0  0  0  0  0  0
    7.8981  -16.0122   24.9895 C   0  0  0  0  0  0  0  0  0  0  0  0
    7.9235  -16.9873   25.7547 O   0  0  0  0  0  0  0  0  0  0  0  0
    8.9459  -15.9398   24.0032 N   0  0  0  0  0  0  0  0  0  0  0  0
    9.9572  -16.9486   23.8368 C   0  0  1  0  0  0  0  0  0  0  0  0
   10.8672  -16.6970   22.6624 C   0  0  0  0  0  0  0  0  0  0  0  0
   10.7194  -17.6985   21.5578 C   0  0  0  0  0  0  0  0  0  0  0  0
   11.3563  -17.1376   20.3482 C   0  0  0  0  0  0  0  0  0  0  0  0
   10.7109  -17.1209   19.2781 O   0  0  0  0  0  0  0  0  0  0  0  0
   10.8031  -17.0047   25.0514 C   0  0  0  0  0  0  0  0  0  0  0  0
   11.2516  -15.9499   25.5209 O   0  0  0  0  0  0  0  0  0  0  0  0
   12.6398  -16.6318   20.3621 O   0  0  0  0  0  0  0  0  0  0  0  0
   11.3945  -18.8674   29.3267 O   0  0  0  0  0  0  0  0  0  0  0  0
   10.7508  -18.7702   28.0816 C   0  0  0  0  0  0  0  0  0  0  0  0
   11.6829  -18.2188   27.0283 C   0  0  2  0  0  0  0  0  0  0  0  0
   11.1315  -18.2147   25.7143 N   0  0  0  0  0  0  0  0  0  0  0  0
   12.9581  -18.9370   27.0740 C   0  0  0  0  0  0  0  0  0  0  0  0
   13.5090  -19.5657   25.9706 O   0  0  0  0  0  0  0  0  0  0  0  0
   13.5902  -18.9927   28.1562 O   0  0  0  0  0  0  0  0  0  0  0  0
  2  1  1  0
  3  2  1  0
  3  4  1  6
  5  3  1  0
  5  6  1  1
  7  8  2  0
  7  5  1  0
  9  7  1  0
 10  9  1  0
 11 12  1  0
 10 11  1  6
 12 13  1  0
 13 17  1  0
 13 14  2  0
 15 16  2  0
 15 10  1  0
 18 19  1  0
 20 21  1  0
 20 19  1  1
 21 15  1  0
 22 20  1  0
 23 22  1  0
 24 22  2  0
M  END
$$$$
