IES.pdb
     RDKit          3D

 24 23  0  0  1  0  0  0  0  0999 V2000
    7.3787  -11.6682   18.9197 C   0  0  0  0  0  0  0  0  0  0  0  0
    8.0452  -12.8050   18.2018 C   0  0  0  0  0  0  0  0  0  0  0  0
    8.4412  -13.9407   19.0996 C   0  0  2  0  0  0  0  0  0  0  0  0
    9.3682  -13.3909   20.1596 C   0  0  0  0  0  0  0  0  0  0  0  0
    9.0097  -15.1098   18.3772 C   0  0  2  0  0  0  0  0  0  0  0  0
    8.0586  -15.5551   17.3572 N   0  0  0  0  0  0  0  0  0  0  0  0
    9.4284  -16.2380   19.2355 C   0  0  0  0  0  0  0  0  0  0  0  0
    8.6305  -17.1116   19.6059 O   0  0  0  0  0  0  0  0  0  0  0  0
   10.7903  -16.3771   19.6848 N   0  0  0  0  0  0  0  0  0  0  0  0
   11.2644  -17.4884   20.4648 C   0  0  1  0  0  0  0  0  0  0  0  0
   12.5785  -18.0437   19.9797 C   0  0  0  0  0  0  0  0  0  0  0  0
   12.7305  -18.0220   18.4893 C   0  0  0  0  0  0  0  0  0  0  0  0
   14.0519  -18.5950   18.1593 C   0  0  0  0  0  0  0  0  0  0  0  0
   15.0683  -18.1321   18.7202 O   0  0  0  0  0  0  0  0  0  0  0  0
   11.4536  -17.0601   21.8700 C   0  0  0  0  0  0  0  0  0  0  0  0
   12.0619  -16.0061   22.1006 O   0  0  0  0  0  0  0  0  0  0  0  0
   14.1998  -19.6240   17.2523 O   0  0  0  0  0  0  0  0  0  0  0  0
    8.7629  -17.2654   24.5905 O   0  0  0  0  0  0  0  0  0  0  0  0
    9.9708  -17.6092   25.2204 C   0  0  0  0  0  0  0  0  0  0  0  0
   11.1515  -17.3418   24.3166 C   0  0  2  0  0  0  0  0  0  0  0  0
   10.9706  -17.8000   22.9794 N   0  0  0  0  0  0  0  0  0  0  0  0
   12.3664  -17.8976   24.9157 C   0  0  0  0  0  0  0  0  0  0  0  0
   12.8189  -17.5384   26.1736 O   0  0  0  0  0  0  0  0  0  0  0  0
   13.0370  -18.7387   24.2701 O   0  0  0  0  0  0  0  0  0  0  0  0
  2  1  1  0
  3  2  1  0
  3  4  1  1
  5  3  1  0
  5  6  1  6
  7  8  2  0
  7  5  1  0
  9  7  1  0
 10  9  1  0
 11 12  1  0
 10 11  1  6
 12 13  1  0
 13 17  1  0
 13 14  2  0
 15 16  2  0
 15 10  1  0
 18 19  1  0
 20 21  1  0
 20 19  1  1
 21 15  1  0
 22 20  1  0
 23 22  1  0
 24 22  2  0
M  END
$$$$
