IES.pdb
     RDKit          3D

 24 23  0  0  1  0  0  0  0  0999 V2000
    7.1013  -11.8293   19.9403 C   0  0  0  0  0  0  0  0  0  0  0  0
    7.4962  -13.1217   19.2876 C   0  0  0  0  0  0  0  0  0  0  0  0
    8.0722  -14.1302   20.2383 C   0  0  2  0  0  0  0  0  0  0  0  0
    9.2524  -13.4899   20.9329 C   0  0  0  0  0  0  0  0  0  0  0  0
    8.4054  -15.4338   19.6047 C   0  0  2  0  0  0  0  0  0  0  0  0
    7.2011  -15.9906   18.9859 N   0  0  0  0  0  0  0  0  0  0  0  0
    9.0446  -16.4233   20.4976 C   0  0  0  0  0  0  0  0  0  0  0  0
    8.3879  -17.1038   21.2993 O   0  0  0  0  0  0  0  0  0  0  0  0
   10.4681  -16.6451   20.4791 N   0  0  0  0  0  0  0  0  0  0  0  0
   11.1411  -17.5852   21.3343 C   0  0  1  0  0  0  0  0  0  0  0  0
   12.5584  -17.8726   20.9108 C   0  0  0  0  0  0  0  0  0  0  0  0
   13.2989  -18.7745   21.8505 C   0  0  0  0  0  0  0  0  0  0  0  0
   14.6425  -19.0152   21.2845 C   0  0  0  0  0  0  0  0  0  0  0  0
   15.4955  -18.1039   21.3447 O   0  0  0  0  0  0  0  0  0  0  0  0
   11.1886  -17.0505   22.7148 C   0  0  0  0  0  0  0  0  0  0  0  0
   11.6420  -15.9134   22.9038 O   0  0  0  0  0  0  0  0  0  0  0  0
   14.9853  -20.2131   20.6920 O   0  0  0  0  0  0  0  0  0  0  0  0
    8.5680  -17.9163   25.6127 O   0  0  0  0  0  0  0  0  0  0  0  0
    9.5000  -16.8772   25.7728 C   0  0  0  0  0  0  0  0  0  0  0  0
   10.8330  -17.2425   25.1628 C   0  0  2  0  0  0  0  0  0  0  0  0
   10.7380  -17.7781   23.8457 N   0  0  0  0  0  0  0  0  0  0  0  0
   11.5542  -18.1470   26.0603 C   0  0  0  0  0  0  0  0  0  0  0  0
   11.8409  -17.8318   27.3774 O   0  0  0  0  0  0  0  0  0  0  0  0
   11.9353  -19.2616   25.6285 O   0  0  0  0  0  0  0  0  0  0  0  0
  2  1  1  0
  3  2  1  0
  3  4  1  6
  5  3  1  0
  5  6  1  1
  7  8  2  0
  7  5  1  0
  9  7  1  0
 10  9  1  0
 11 12  1  0
 10 11  1  6
 12 13  1  0
 13 17  1  0
 13 14  2  0
 15 16  2  0
 15 10  1  0
 18 19  1  0
 20 21  1  0
 20 19  1  1
 21 15  1  0
 22 20  1  0
 23 22  1  0
 24 22  2  0
M  END
$$$$
