IES.pdb
     RDKit          3D

 24 23  0  0  1  0  0  0  0  0999 V2000
    7.2518  -11.9912   19.4091 C   0  0  0  0  0  0  0  0  0  0  0  0
    7.9178  -13.1994   18.8185 C   0  0  0  0  0  0  0  0  0  0  0  0
    8.4570  -14.1560   19.8417 C   0  0  2  0  0  0  0  0  0  0  0  0
    9.4115  -13.3924   20.7311 C   0  0  0  0  0  0  0  0  0  0  0  0
    9.0592  -15.3848   19.2593 C   0  0  2  0  0  0  0  0  0  0  0  0
    8.0816  -16.0314   18.3822 N   0  0  0  0  0  0  0  0  0  0  0  0
    9.6029  -16.3463   20.2415 C   0  0  0  0  0  0  0  0  0  0  0  0
    8.8831  -17.1794   20.8115 O   0  0  0  0  0  0  0  0  0  0  0  0
   11.0021  -16.3614   20.5851 N   0  0  0  0  0  0  0  0  0  0  0  0
   11.5916  -17.3092   21.4920 C   0  0  1  0  0  0  0  0  0  0  0  0
   13.0701  -17.5052   21.2765 C   0  0  0  0  0  0  0  0  0  0  0  0
   13.4043  -18.2477   20.0188 C   0  0  0  0  0  0  0  0  0  0  0  0
   14.8692  -18.1910   19.8339 C   0  0  0  0  0  0  0  0  0  0  0  0
   15.3301  -17.5866   18.8419 O   0  0  0  0  0  0  0  0  0  0  0  0
   11.4027  -16.8428   22.8851 C   0  0  0  0  0  0  0  0  0  0  0  0
   11.8671  -15.7443   23.2195 O   0  0  0  0  0  0  0  0  0  0  0  0
   15.7442  -18.7838   20.7207 O   0  0  0  0  0  0  0  0  0  0  0  0
    8.1884  -16.6833   24.6292 O   0  0  0  0  0  0  0  0  0  0  0  0
    9.0549  -17.1458   25.6338 C   0  0  0  0  0  0  0  0  0  0  0  0
   10.4951  -17.0836   25.1817 C   0  0  2  0  0  0  0  0  0  0  0  0
   10.7108  -17.5943   23.8689 N   0  0  0  0  0  0  0  0  0  0  0  0
   11.3496  -17.7514   26.1654 C   0  0  0  0  0  0  0  0  0  0  0  0
   11.3789  -17.3962   27.5030 O   0  0  0  0  0  0  0  0  0  0  0  0
   12.0938  -18.6899   25.7922 O   0  0  0  0  0  0  0  0  0  0  0  0
  2  1  1  0
  3  2  1  0
  3  4  1  6
  5  3  1  0
  5  6  1  1
  7  8  2  0
  7  5  1  0
  9  7  1  0
 10  9  1  0
 11 12  1  0
 10 11  1  6
 12 13  1  0
 13 17  1  0
 13 14  2  0
 15 16  2  0
 15 10  1  0
 18 19  1  0
 20 21  1  0
 20 19  1  1
 21 15  1  0
 22 20  1  0
 23 22  1  0
 24 22  2  0
M  END
$$$$
