VVQ.pdb
     RDKit          3D

 24 23  0  0  1  0  0  0  0  0999 V2000
    7.7677  -19.2182   19.8595 C   0  0  0  0  0  0  0  0  0  0  0  0
    6.6848  -18.3517   19.2127 C   0  0  2  0  0  0  0  0  0  0  0  0
    5.8941  -19.2465   18.2713 C   0  0  0  0  0  0  0  0  0  0  0  0
    7.3199  -17.2063   18.4519 C   0  0  2  0  0  0  0  0  0  0  0  0
    8.1257  -17.7650   17.3957 N   0  0  0  0  0  0  0  0  0  0  0  0
    8.1137  -16.4067   19.4018 C   0  0  0  0  0  0  0  0  0  0  0  0
    9.3416  -16.6571   19.5045 O   0  0  0  0  0  0  0  0  0  0  0  0
    8.0759  -12.6458   19.5558 C   0  0  0  0  0  0  0  0  0  0  0  0
    8.0467  -13.1568   20.9765 C   0  0  1  0  0  0  0  0  0  0  0  0
    6.7124  -12.8569   21.5960 C   0  0  0  0  0  0  0  0  0  0  0  0
    8.4282  -14.6108   21.0683 C   0  0  2  0  0  0  0  0  0  0  0  0
    7.5720  -15.3699   20.2075 N   0  0  0  0  0  0  0  0  0  0  0  0
    8.3432  -15.0896   22.4941 C   0  0  0  0  0  0  0  0  0  0  0  0
    7.2304  -15.3056   23.0377 O   0  0  0  0  0  0  0  0  0  0  0  0
    6.8671  -18.9351   24.6047 N   0  0  0  0  0  0  0  0  0  0  0  0
    8.1212  -19.4700   25.0666 C   0  0  0  0  0  0  0  0  0  0  0  0
    8.0459  -20.3688   25.8994 O   0  0  0  0  0  0  0  0  0  0  0  0
    9.3253  -18.9138   24.5231 C   0  0  0  0  0  0  0  0  0  0  0  0
    9.2344  -17.7080   23.6833 C   0  0  0  0  0  0  0  0  0  0  0  0
    9.6074  -16.3970   24.2507 C   0  0  2  0  0  0  0  0  0  0  0  0
    9.4915  -15.3140   23.2726 N   0  0  0  0  0  0  0  0  0  0  0  0
   10.8661  -16.2867   24.9781 C   0  0  0  0  0  0  0  0  0  0  0  0
   11.0536  -16.5437   26.3280 O   0  0  0  0  0  0  0  0  0  0  0  0
   11.9151  -15.9197   24.3363 O   0  0  0  0  0  0  0  0  0  0  0  0
  2  1  1  6
  3  2  1  0
  4  2  1  0
  4  5  1  6
  6  7  2  0
  6  4  1  0
  9  8  1  6
  9 11  1  0
 10  9  1  0
 11 12  1  6
 12  6  1  0
 13 21  1  0
 13 11  1  0
 14 13  2  0
 16 15  1  0
 17 16  2  0
 18 16  1  0
 19 18  1  0
 20 19  1  6
 20 21  1  0
 20 22  1  0
 22 23  1  0
 24 22  2  0
M  END
$$$$
