VVQ.pdb
     RDKit          3D

 24 23  0  0  1  0  0  0  0  0999 V2000
    7.0089  -16.3560   19.5555 C   0  0  0  0  0  0  0  0  0  0  0  0
    7.5474  -16.0675   20.9585 C   0  0  2  0  0  0  0  0  0  0  0  0
    6.6909  -16.8516   21.9402 C   0  0  0  0  0  0  0  0  0  0  0  0
    7.4703  -14.5833   21.2508 C   0  0  2  0  0  0  0  0  0  0  0  0
    8.2602  -13.8926   20.2628 N   0  0  0  0  0  0  0  0  0  0  0  0
    7.9622  -14.3578   22.6216 C   0  0  0  0  0  0  0  0  0  0  0  0
    9.1922  -14.5002   22.8398 O   0  0  0  0  0  0  0  0  0  0  0  0
    7.0774  -13.2401   27.3739 C   0  0  0  0  0  0  0  0  0  0  0  0
    6.6803  -13.1889   25.9178 C   0  0  1  0  0  0  0  0  0  0  0  0
    6.4299  -11.7659   25.5101 C   0  0  0  0  0  0  0  0  0  0  0  0
    7.6728  -13.8926   25.0302 C   0  0  2  0  0  0  0  0  0  0  0  0
    7.1271  -13.9892   23.7099 N   0  0  0  0  0  0  0  0  0  0  0  0
    8.0107  -15.2502   25.5890 C   0  0  0  0  0  0  0  0  0  0  0  0
    7.1427  -16.1575   25.6508 O   0  0  0  0  0  0  0  0  0  0  0  0
   12.4014  -18.6725   23.6181 N   0  0  0  0  0  0  0  0  0  0  0  0
   12.1510  -19.4017   24.8339 C   0  0  0  0  0  0  0  0  0  0  0  0
   12.7576  -20.4617   24.9572 O   0  0  0  0  0  0  0  0  0  0  0  0
   11.2302  -18.8350   25.7750 C   0  0  0  0  0  0  0  0  0  0  0  0
   10.6359  -17.5199   25.4830 C   0  0  0  0  0  0  0  0  0  0  0  0
    9.7113  -16.9075   26.4576 C   0  0  2  0  0  0  0  0  0  0  0  0
    9.2974  -15.5604   26.0614 N   0  0  0  0  0  0  0  0  0  0  0  0
   10.0748  -16.9284   27.8694 C   0  0  0  0  0  0  0  0  0  0  0  0
   10.0463  -18.0364   28.7030 O   0  0  0  0  0  0  0  0  0  0  0  0
   10.4607  -15.8350   28.4193 O   0  0  0  0  0  0  0  0  0  0  0  0
  2  1  1  6
  3  2  1  0
  4  2  1  0
  4  5  1  6
  6  7  2  0
  6  4  1  0
  9  8  1  1
  9 11  1  0
 10  9  1  0
 11 12  1  6
 12  6  1  0
 13 21  1  0
 13 11  1  0
 14 13  2  0
 16 15  1  0
 17 16  2  0
 18 16  1  0
 19 18  1  0
 20 19  1  6
 20 21  1  0
 20 22  1  0
 22 23  1  0
 24 22  2  0
M  END
$$$$
