VVQ.pdb
     RDKit          3D

 24 23  0  0  1  0  0  0  0  0999 V2000
    6.0660  -17.1103   20.6226 C   0  0  0  0  0  0  0  0  0  0  0  0
    6.8603  -16.5904   21.8228 C   0  0  2  0  0  0  0  0  0  0  0  0
    6.2859  -17.2531   23.0649 C   0  0  0  0  0  0  0  0  0  0  0  0
    6.7359  -15.0838   21.9164 C   0  0  2  0  0  0  0  0  0  0  0  0
    7.2280  -14.5183   20.6855 N   0  0  0  0  0  0  0  0  0  0  0  0
    7.5036  -14.6304   23.0898 C   0  0  0  0  0  0  0  0  0  0  0  0
    8.7578  -14.6094   23.0043 O   0  0  0  0  0  0  0  0  0  0  0  0
    7.6659  -12.4116   27.5056 C   0  0  0  0  0  0  0  0  0  0  0  0
    6.8850  -12.9083   26.3123 C   0  0  1  0  0  0  0  0  0  0  0  0
    6.2150  -11.7523   25.6277 C   0  0  0  0  0  0  0  0  0  0  0  0
    7.7303  -13.7376   25.3818 C   0  0  2  0  0  0  0  0  0  0  0  0
    6.9085  -14.2160   24.3112 N   0  0  0  0  0  0  0  0  0  0  0  0
    8.3798  -14.8728   26.1295 C   0  0  0  0  0  0  0  0  0  0  0  0
    7.6851  -15.7553   26.6943 O   0  0  0  0  0  0  0  0  0  0  0  0
   12.3955  -18.5158   24.3678 N   0  0  0  0  0  0  0  0  0  0  0  0
   12.7961  -18.6934   25.7391 C   0  0  0  0  0  0  0  0  0  0  0  0
   13.3799  -19.7425   25.9949 O   0  0  0  0  0  0  0  0  0  0  0  0
   12.4814  -17.6477   26.6676 C   0  0  0  0  0  0  0  0  0  0  0  0
   11.7107  -16.4860   26.1941 C   0  0  0  0  0  0  0  0  0  0  0  0
   10.4462  -16.1291   26.8674 C   0  0  2  0  0  0  0  0  0  0  0  0
    9.7762  -14.9951   26.2284 N   0  0  0  0  0  0  0  0  0  0  0  0
   10.4529  -15.9597   28.3156 C   0  0  0  0  0  0  0  0  0  0  0  0
   10.5975  -16.9701   29.2545 O   0  0  0  0  0  0  0  0  0  0  0  0
   10.3142  -14.7775   28.7952 O   0  0  0  0  0  0  0  0  0  0  0  0
  2  1  1  6
  3  2  1  0
  4  2  1  0
  4  5  1  6
  6  7  2  0
  6  4  1  0
  9  8  1  1
  9 11  1  0
 10  9  1  0
 11 12  1  6
 12  6  1  0
 13 21  1  0
 13 11  1  0
 14 13  2  0
 16 15  1  0
 17 16  2  0
 18 16  1  0
 19 18  1  0
 20 19  1  6
 20 21  1  0
 20 22  1  0
 22 23  1  0
 24 22  2  0
M  END
$$$$
