VVQ.pdb
     RDKit          3D

 24 23  0  0  1  0  0  0  0  0999 V2000
    7.5731  -13.5042   20.8208 C   0  0  0  0  0  0  0  0  0  0  0  0
    8.1034  -14.9325   20.6769 C   0  0  2  0  0  0  0  0  0  0  0  0
    7.4917  -15.5152   19.4126 C   0  0  0  0  0  0  0  0  0  0  0  0
    7.7142  -15.7568   21.8865 C   0  0  2  0  0  0  0  0  0  0  0  0
    6.2753  -15.8162   21.9414 N   0  0  0  0  0  0  0  0  0  0  0  0
    8.2968  -15.1228   23.0825 C   0  0  0  0  0  0  0  0  0  0  0  0
    9.5437  -15.1794   23.2343 O   0  0  0  0  0  0  0  0  0  0  0  0
    5.9809  -13.1567   26.1719 C   0  0  0  0  0  0  0  0  0  0  0  0
    7.3681  -12.7455   25.7395 C   0  0  1  0  0  0  0  0  0  0  0  0
    8.0454  -11.9983   26.8516 C   0  0  0  0  0  0  0  0  0  0  0  0
    8.1764  -13.9101   25.2311 C   0  0  2  0  0  0  0  0  0  0  0  0
    7.5313  -14.4519   24.0731 N   0  0  0  0  0  0  0  0  0  0  0  0
    8.3402  -14.9494   26.3093 C   0  0  0  0  0  0  0  0  0  0  0  0
    7.4582  -15.8241   26.5026 O   0  0  0  0  0  0  0  0  0  0  0  0
   12.1302  -18.3245   24.4747 N   0  0  0  0  0  0  0  0  0  0  0  0
   12.1942  -18.8891   25.7974 C   0  0  0  0  0  0  0  0  0  0  0  0
   12.8511  -19.9202   25.9084 O   0  0  0  0  0  0  0  0  0  0  0  0
   11.4959  -18.2091   26.8484 C   0  0  0  0  0  0  0  0  0  0  0  0
   10.7921  -16.9540   26.5370 C   0  0  0  0  0  0  0  0  0  0  0  0
   10.0882  -16.2289   27.6133 C   0  0  2  0  0  0  0  0  0  0  0  0
    9.4740  -14.9877   27.1387 N   0  0  0  0  0  0  0  0  0  0  0  0
   10.7905  -15.9955   28.8695 C   0  0  0  0  0  0  0  0  0  0  0  0
   10.9364  -16.9073   29.9043 O   0  0  0  0  0  0  0  0  0  0  0  0
   11.3343  -14.8495   29.0642 O   0  0  0  0  0  0  0  0  0  0  0  0
  2  1  1  1
  3  2  1  0
  4  2  1  0
  4  5  1  1
  6  7  2  0
  6  4  1  0
  9  8  1  1
  9 11  1  0
 10  9  1  0
 11 12  1  6
 12  6  1  0
 13 21  1  0
 13 11  1  0
 14 13  2  0
 16 15  1  0
 17 16  2  0
 18 16  1  0
 19 18  1  0
 20 19  1  6
 20 21  1  0
 20 22  1  0
 22 23  1  0
 24 22  2  0
M  END
$$$$
