VVQ.pdb
     RDKit          3D

 24 23  0  0  1  0  0  0  0  0999 V2000
    3.8346  -20.1762   21.0424 C   0  0  0  0  0  0  0  0  0  0  0  0
    4.9331  -19.2563   21.5800 C   0  0  2  0  0  0  0  0  0  0  0  0
    4.3353  -18.4668   22.7339 C   0  0  0  0  0  0  0  0  0  0  0  0
    5.4120  -18.3233   20.4872 C   0  0  2  0  0  0  0  0  0  0  0  0
    5.8956  -19.1282   19.3938 N   0  0  0  0  0  0  0  0  0  0  0  0
    6.4593  -17.4531   21.0509 C   0  0  0  0  0  0  0  0  0  0  0  0
    7.5508  -17.9808   21.3844 O   0  0  0  0  0  0  0  0  0  0  0  0
    8.1759  -12.9462   22.1753 C   0  0  0  0  0  0  0  0  0  0  0  0
    7.1587  -13.8352   21.5004 C   0  0  1  0  0  0  0  0  0  0  0  0
    7.1425  -13.5582   20.0250 C   0  0  0  0  0  0  0  0  0  0  0  0
    7.3666  -15.2907   21.8268 C   0  0  2  0  0  0  0  0  0  0  0  0
    6.3069  -16.0536   21.2391 N   0  0  0  0  0  0  0  0  0  0  0  0
    7.4316  -15.4929   23.3182 C   0  0  0  0  0  0  0  0  0  0  0  0
    6.3821  -15.5662   24.0064 O   0  0  0  0  0  0  0  0  0  0  0  0
    8.2574  -20.3403   25.8178 N   0  0  0  0  0  0  0  0  0  0  0  0
    7.7639  -19.5111   26.8861 C   0  0  0  0  0  0  0  0  0  0  0  0
    7.4806  -20.0934   27.9289 O   0  0  0  0  0  0  0  0  0  0  0  0
    7.6482  -18.1036   26.6402 C   0  0  0  0  0  0  0  0  0  0  0  0
    8.0992  -17.5698   25.3443 C   0  0  0  0  0  0  0  0  0  0  0  0
    8.7997  -16.2711   25.2971 C   0  0  2  0  0  0  0  0  0  0  0  0
    8.6550  -15.6076   24.0002 N   0  0  0  0  0  0  0  0  0  0  0  0
   10.1872  -16.2125   25.7412 C   0  0  0  0  0  0  0  0  0  0  0  0
   10.6296  -16.3181   27.0514 O   0  0  0  0  0  0  0  0  0  0  0  0
   11.1064  -16.0489   24.8608 O   0  0  0  0  0  0  0  0  0  0  0  0
  2  1  1  6
  3  2  1  0
  4  2  1  0
  4  5  1  6
  6  7  2  0
  6  4  1  0
  9  8  1  1
  9 11  1  0
 10  9  1  0
 11 12  1  1
 12  6  1  0
 13 21  1  0
 13 11  1  0
 14 13  2  0
 16 15  1  0
 17 16  2  0
 18 16  1  0
 19 18  1  0
 20 19  1  6
 20 21  1  0
 20 22  1  0
 22 23  1  0
 24 22  2  0
M  END
$$$$
