VVQ.pdb
     RDKit          3D

 24 23  0  0  1  0  0  0  0  0999 V2000
    7.0815  -14.0923   19.2174 C   0  0  0  0  0  0  0  0  0  0  0  0
    7.3280  -13.5572   20.6297 C   0  0  2  0  0  0  0  0  0  0  0  0
    8.3280  -12.4178   20.5120 C   0  0  0  0  0  0  0  0  0  0  0  0
    7.8751  -14.6575   21.5152 C   0  0  2  0  0  0  0  0  0  0  0  0
    6.8302  -15.6296   21.7158 N   0  0  0  0  0  0  0  0  0  0  0  0
    8.3271  -14.0492   22.7792 C   0  0  0  0  0  0  0  0  0  0  0  0
    9.4253  -13.4370   22.7817 O   0  0  0  0  0  0  0  0  0  0  0  0
    5.8941  -13.6769   26.2698 C   0  0  0  0  0  0  0  0  0  0  0  0
    7.0908  -12.8175   25.9380 C   0  0  1  0  0  0  0  0  0  0  0  0
    7.5994  -12.1532   27.1845 C   0  0  0  0  0  0  0  0  0  0  0  0
    8.1563  -13.5834   25.1990 C   0  0  2  0  0  0  0  0  0  0  0  0
    7.5940  -14.1147   23.9940 N   0  0  0  0  0  0  0  0  0  0  0  0
    8.7239  -14.6728   26.0710 C   0  0  0  0  0  0  0  0  0  0  0  0
    8.0725  -15.7237   26.2980 O   0  0  0  0  0  0  0  0  0  0  0  0
   14.1891  -16.5337   24.1705 N   0  0  0  0  0  0  0  0  0  0  0  0
   13.1305  -17.0843   24.9758 C   0  0  0  0  0  0  0  0  0  0  0  0
   13.1913  -18.2920   25.1874 O   0  0  0  0  0  0  0  0  0  0  0  0
   12.1167  -16.1886   25.4495 C   0  0  0  0  0  0  0  0  0  0  0  0
   11.9438  -16.0158   26.9014 C   0  0  0  0  0  0  0  0  0  0  0  0
   10.6204  -15.6388   27.4362 C   0  0  2  0  0  0  0  0  0  0  0  0
    9.9935  -14.5647   26.6638 N   0  0  0  0  0  0  0  0  0  0  0  0
   10.4978  -15.3705   28.8641 C   0  0  0  0  0  0  0  0  0  0  0  0
   10.5913  -16.3085   29.8814 O   0  0  0  0  0  0  0  0  0  0  0  0
   10.2832  -14.1640   29.2451 O   0  0  0  0  0  0  0  0  0  0  0  0
  2  1  1  6
  3  2  1  0
  4  2  1  0
  4  5  1  1
  6  7  2  0
  6  4  1  0
  9  8  1  1
  9 11  1  0
 10  9  1  0
 11 12  1  6
 12  6  1  0
 13 21  1  0
 13 11  1  0
 14 13  2  0
 16 15  1  0
 17 16  2  0
 18 16  1  0
 19 18  1  0
 20 19  1  6
 20 21  1  0
 20 22  1  0
 22 23  1  0
 24 22  2  0
M  END
$$$$
