VVQ.pdb
     RDKit          3D

 24 23  0  0  1  0  0  0  0  0999 V2000
    6.9602  -14.6257   19.0082 C   0  0  0  0  0  0  0  0  0  0  0  0
    7.5805  -14.6510   20.4069 C   0  0  2  0  0  0  0  0  0  0  0  0
    6.7497  -15.6043   21.2513 C   0  0  0  0  0  0  0  0  0  0  0  0
    7.5698  -13.2601   21.0065 C   0  0  2  0  0  0  0  0  0  0  0  0
    8.3592  -12.4029   20.1585 N   0  0  0  0  0  0  0  0  0  0  0  0
    8.1071  -13.3451   22.3762 C   0  0  0  0  0  0  0  0  0  0  0  0
    9.3101  -13.6814   22.5201 O   0  0  0  0  0  0  0  0  0  0  0  0
    5.6762  -12.8090   25.8622 C   0  0  0  0  0  0  0  0  0  0  0  0
    7.1519  -12.4889   25.8535 C   0  0  1  0  0  0  0  0  0  0  0  0
    7.7067  -12.6160   27.2427 C   0  0  0  0  0  0  0  0  0  0  0  0
    7.9072  -13.3051   24.8379 C   0  0  2  0  0  0  0  0  0  0  0  0
    7.3447  -13.0692   23.5424 N   0  0  0  0  0  0  0  0  0  0  0  0
    7.8666  -14.7668   25.2000 C   0  0  0  0  0  0  0  0  0  0  0  0
    7.1439  -15.5712   24.5589 O   0  0  0  0  0  0  0  0  0  0  0  0
   11.2003  -17.5590   22.3209 N   0  0  0  0  0  0  0  0  0  0  0  0
   11.7750  -17.9882   23.5690 C   0  0  0  0  0  0  0  0  0  0  0  0
   12.9310  -18.3976   23.5137 O   0  0  0  0  0  0  0  0  0  0  0  0
   10.9594  -17.9020   24.7446 C   0  0  0  0  0  0  0  0  0  0  0  0
   10.1747  -16.6779   24.9760 C   0  0  0  0  0  0  0  0  0  0  0  0
    9.3402  -16.5678   26.1890 C   0  0  2  0  0  0  0  0  0  0  0  0
    8.6264  -15.2916   26.2593 N   0  0  0  0  0  0  0  0  0  0  0  0
    9.9437  -16.8796   27.4791 C   0  0  0  0  0  0  0  0  0  0  0  0
   10.2305  -18.1483   27.9604 O   0  0  0  0  0  0  0  0  0  0  0  0
   10.2485  -15.9108   28.2636 O   0  0  0  0  0  0  0  0  0  0  0  0
  2  1  1  6
  3  2  1  0
  4  2  1  0
  4  5  1  6
  6  7  2  0
  6  4  1  0
  9  8  1  1
  9 11  1  0
 10  9  1  0
 11 12  1  6
 12  6  1  0
 13 21  1  0
 13 11  1  0
 14 13  2  0
 16 15  1  0
 17 16  2  0
 18 16  1  0
 19 18  1  0
 20 19  1  6
 20 21  1  0
 20 22  1  0
 22 23  1  0
 24 22  2  0
M  END
$$$$
