VVQ.pdb
     RDKit          3D

 24 23  0  0  1  0  0  0  0  0999 V2000
    7.4279  -16.6099   19.9362 C   0  0  0  0  0  0  0  0  0  0  0  0
    7.9084  -16.3796   21.3707 C   0  0  2  0  0  0  0  0  0  0  0  0
    6.8831  -17.0144   22.2970 C   0  0  0  0  0  0  0  0  0  0  0  0
    8.0300  -14.8954   21.6472 C   0  0  2  0  0  0  0  0  0  0  0  0
    8.9489  -14.3369   20.6877 N   0  0  0  0  0  0  0  0  0  0  0  0
    8.4927  -14.7221   23.0356 C   0  0  0  0  0  0  0  0  0  0  0  0
    9.7029  -14.9502   23.2888 O   0  0  0  0  0  0  0  0  0  0  0  0
    7.6364  -11.7351   25.4546 C   0  0  0  0  0  0  0  0  0  0  0  0
    7.4544  -13.0701   26.1366 C   0  0  1  0  0  0  0  0  0  0  0  0
    5.9910  -13.3507   26.3200 C   0  0  0  0  0  0  0  0  0  0  0  0
    8.1847  -14.1788   25.4255 C   0  0  2  0  0  0  0  0  0  0  0  0
    7.6506  -14.3125   24.1036 N   0  0  0  0  0  0  0  0  0  0  0  0
    8.0722  -15.4662   26.1996 C   0  0  0  0  0  0  0  0  0  0  0  0
    7.1322  -16.2718   25.9803 O   0  0  0  0  0  0  0  0  0  0  0  0
   10.5128  -19.0458   23.6846 N   0  0  0  0  0  0  0  0  0  0  0  0
   11.5206  -18.3332   24.4254 C   0  0  0  0  0  0  0  0  0  0  0  0
   12.6712  -18.4509   24.0140 O   0  0  0  0  0  0  0  0  0  0  0  0
   11.0978  -17.5641   25.5587 C   0  0  0  0  0  0  0  0  0  0  0  0
    9.8218  -17.9028   26.2104 C   0  0  0  0  0  0  0  0  0  0  0  0
    9.4275  -17.1986   27.4467 C   0  0  2  0  0  0  0  0  0  0  0  0
    9.0027  -15.8212   27.1911 N   0  0  0  0  0  0  0  0  0  0  0  0
   10.3299  -17.2437   28.5909 C   0  0  0  0  0  0  0  0  0  0  0  0
   10.8461  -16.1480   29.2666 O   0  0  0  0  0  0  0  0  0  0  0  0
   10.6982  -18.3894   29.0366 O   0  0  0  0  0  0  0  0  0  0  0  0
  2  1  1  6
  3  2  1  0
  4  2  1  0
  4  5  1  6
  6  7  2  0
  6  4  1  0
  9  8  1  6
  9 11  1  0
 10  9  1  0
 11 12  1  6
 12  6  1  0
 13 21  1  0
 13 11  1  0
 14 13  2  0
 16 15  1  0
 17 16  2  0
 18 16  1  0
 19 18  1  0
 20 19  1  6
 20 21  1  0
 20 22  1  0
 22 23  1  0
 24 22  2  0
M  END
$$$$
