VVQ.pdb
     RDKit          3D

 24 23  0  0  1  0  0  0  0  0999 V2000
   10.2355  -20.2354   18.5205 C   0  0  0  0  0  0  0  0  0  0  0  0
   10.2491  -19.0491   19.4870 C   0  0  2  0  0  0  0  0  0  0  0  0
    9.1277  -19.2715   20.4896 C   0  0  0  0  0  0  0  0  0  0  0  0
   10.0365  -17.7561   18.7274 C   0  0  2  0  0  0  0  0  0  0  0  0
   11.1340  -17.5936   17.8075 N   0  0  0  0  0  0  0  0  0  0  0  0
    9.9545  -16.6561   19.7047 C   0  0  0  0  0  0  0  0  0  0  0  0
   10.9994  -16.3394   20.3281 O   0  0  0  0  0  0  0  0  0  0  0  0
    6.2931  -14.6142   20.6615 C   0  0  0  0  0  0  0  0  0  0  0  0
    7.6522  -13.9622   20.7532 C   0  0  1  0  0  0  0  0  0  0  0  0
    7.6100  -12.8394   21.7489 C   0  0  0  0  0  0  0  0  0  0  0  0
    8.7461  -14.9591   21.0319 C   0  0  2  0  0  0  0  0  0  0  0  0
    8.7637  -15.9335   19.9827 N   0  0  0  0  0  0  0  0  0  0  0  0
    8.5436  -15.6017   22.3793 C   0  0  0  0  0  0  0  0  0  0  0  0
    7.8059  -16.6114   22.5091 O   0  0  0  0  0  0  0  0  0  0  0  0
   10.9781  -15.3211   29.3484 N   0  0  0  0  0  0  0  0  0  0  0  0
   10.2535  -14.6024   28.3332 C   0  0  0  0  0  0  0  0  0  0  0  0
   10.2722  -13.3786   28.4267 O   0  0  0  0  0  0  0  0  0  0  0  0
    9.5851  -15.3673   27.3218 C   0  0  0  0  0  0  0  0  0  0  0  0
    9.6764  -14.9246   25.9205 C   0  0  0  0  0  0  0  0  0  0  0  0
    8.9593  -15.6773   24.8722 C   0  0  2  0  0  0  0  0  0  0  0  0
    9.1634  -15.1069   23.5395 N   0  0  0  0  0  0  0  0  0  0  0  0
    7.5491  -15.9851   25.0782 C   0  0  0  0  0  0  0  0  0  0  0  0
    6.4777  -15.1800   24.7215 O   0  0  0  0  0  0  0  0  0  0  0  0
    7.2399  -17.0971   25.6392 O   0  0  0  0  0  0  0  0  0  0  0  0
  2  1  1  6
  3  2  1  0
  4  2  1  0
  4  5  1  6
  6  7  2  0
  6  4  1  0
  9  8  1  1
  9 11  1  0
 10  9  1  0
 11 12  1  6
 12  6  1  0
 13 21  1  0
 13 11  1  0
 14 13  2  0
 16 15  1  0
 17 16  2  0
 18 16  1  0
 19 18  1  0
 20 19  1  1
 20 21  1  0
 20 22  1  0
 22 23  1  0
 24 22  2  0
M  END
$$$$
