IMK.pdb
     RDKit          3D

 26 25  0  0  1  0  0  0  0  0999 V2000
   18.1965  -11.6020  -14.6586 C   0  0  0  0  0  0  0  0  0  0  0  0
   18.0087  -11.5282  -13.1374 C   0  0  0  0  0  0  0  0  0  0  0  0
   17.0388  -10.3986  -12.8929 C   0  0  2  0  0  0  0  0  0  0  0  0
   17.6943   -9.1209  -13.3799 C   0  0  0  0  0  0  0  0  0  0  0  0
   16.6788  -10.2228  -11.4517 C   0  0  2  0  0  0  0  0  0  0  0  0
   16.1628  -11.4575  -10.9277 N   0  0  0  0  0  0  0  0  0  0  0  0
   15.7757   -9.1109  -11.1639 C   0  0  0  0  0  0  0  0  0  0  0  0
   14.5384   -9.3400  -11.0535 O   0  0  0  0  0  0  0  0  0  0  0  0
   11.6039   -5.6576   -6.7743 C   0  0  0  0  0  0  0  0  0  0  0  0
   12.7586   -6.9186   -7.4347 S   0  0  0  0  0  0  0  0  0  0  0  0
   13.5763   -6.1235   -8.8868 C   0  0  0  0  0  0  0  0  0  0  0  0
   14.5455   -7.1361   -9.4087 C   0  0  0  0  0  0  0  0  0  0  0  0
   15.2113   -6.6832  -10.6774 C   0  0  2  0  0  0  0  0  0  0  0  0
   16.1783   -7.7691  -10.9943 N   0  0  0  0  0  0  0  0  0  0  0  0
   15.9397   -5.4002  -10.5884 C   0  0  0  0  0  0  0  0  0  0  0  0
   16.9992   -5.3049   -9.8765 O   0  0  0  0  0  0  0  0  0  0  0  0
   15.5499   -4.2359  -11.2553 N   0  0  0  0  0  0  0  0  0  0  0  0
   16.3945   -2.9866  -11.2117 C   0  0  1  0  0  0  0  0  0  0  0  0
   16.1430   -2.3931  -12.5497 C   0  0  0  0  0  0  0  0  0  0  0  0
   16.6412   -1.0881  -12.9569 C   0  0  0  0  0  0  0  0  0  0  0  0
   16.4356   -0.5586  -14.3148 C   0  0  0  0  0  0  0  0  0  0  0  0
   16.9496    0.8429  -14.5473 C   0  0  0  0  0  0  0  0  0  0  0  0
   16.6695    1.3604  -15.8508 N   0  0  0  0  0  0  0  0  0  0  0  0
   15.9067   -2.2705  -10.0405 C   0  0  0  0  0  0  0  0  0  0  0  0
   16.6866   -1.3234   -9.3982 O   0  0  0  0  0  0  0  0  0  0  0  0
   14.7780   -2.4684   -9.5568 O   0  0  0  0  0  0  0  0  0  0  0  0
  2  1  1  0
  3  5  1  0
  3  2  1  0
  3  4  1  1
  5  6  1  6
  7  8  2  0
  7  5  1  0
 10  9  1  0
 11 10  1  0
 12 11  1  0
 13 12  1  1
 13 14  1  0
 14  7  1  0
 15 16  2  0
 15 13  1  0
 17 15  1  0
 18 17  1  0
 18 24  1  0
 18 19  1  6
 20 19  1  0
 21 20  1  0
 22 21  1  0
 22 23  1  0
 24 25  1  0
 26 24  2  0
M  END
$$$$
