IMK.pdb
     RDKit          3D

 26 25  0  0  1  0  0  0  0  0999 V2000
   28.9401  -19.4799  -15.8606 C   0  0  0  0  0  0  0  0  0  0  0  0
   27.4465  -19.3277  -15.5433 C   0  0  0  0  0  0  0  0  0  0  0  0
   27.1878  -20.1951  -14.3363 C   0  0  2  0  0  0  0  0  0  0  0  0
   27.5750  -21.6146  -14.7029 C   0  0  0  0  0  0  0  0  0  0  0  0
   25.7576  -20.1961  -13.8978 C   0  0  2  0  0  0  0  0  0  0  0  0
   25.2330  -18.8593  -13.9549 N   0  0  0  0  0  0  0  0  0  0  0  0
   25.5035  -20.8057  -12.5946 C   0  0  0  0  0  0  0  0  0  0  0  0
   25.6596  -22.0520  -12.4607 O   0  0  0  0  0  0  0  0  0  0  0  0
   26.1259  -19.0872   -6.5715 C   0  0  0  0  0  0  0  0  0  0  0  0
   27.5392  -19.6981   -7.5658 S   0  0  0  0  0  0  0  0  0  0  0  0
   26.7859  -20.6451   -8.9605 C   0  0  0  0  0  0  0  0  0  0  0  0
   25.3935  -20.1174   -9.1010 C   0  0  0  0  0  0  0  0  0  0  0  0
   24.6376  -20.7979  -10.2072 C   0  0  2  0  0  0  0  0  0  0  0  0
   25.0882  -20.1028  -11.4436 N   0  0  0  0  0  0  0  0  0  0  0  0
   23.1650  -20.7120  -10.1156 C   0  0  0  0  0  0  0  0  0  0  0  0
   22.5568  -19.6365  -10.4501 O   0  0  0  0  0  0  0  0  0  0  0  0
   22.3496  -21.7603   -9.6812 N   0  0  0  0  0  0  0  0  0  0  0  0
   20.8456  -21.6641   -9.7487 C   0  0  1  0  0  0  0  0  0  0  0  0
   20.5504  -22.3031  -11.0564 C   0  0  0  0  0  0  0  0  0  0  0  0
   19.2021  -22.5527  -11.5432 C   0  0  0  0  0  0  0  0  0  0  0  0
   18.9434  -23.2180  -12.8304 C   0  0  0  0  0  0  0  0  0  0  0  0
   17.4857  -23.4138  -13.1759 C   0  0  0  0  0  0  0  0  0  0  0  0
   17.2633  -24.0441  -14.4401 N   0  0  0  0  0  0  0  0  0  0  0  0
   20.3935  -22.3372   -8.5383 C   0  0  0  0  0  0  0  0  0  0  0  0
   21.1454  -23.3385   -7.9467 O   0  0  0  0  0  0  0  0  0  0  0  0
   19.3200  -22.0555   -7.9768 O   0  0  0  0  0  0  0  0  0  0  0  0
  2  1  1  0
  3  5  1  0
  3  2  1  0
  3  4  1  6
  5  6  1  1
  7  8  2  0
  7  5  1  0
 10  9  1  0
 11 10  1  0
 12 11  1  0
 13 12  1  1
 13 14  1  0
 14  7  1  0
 15 16  2  0
 15 13  1  0
 17 15  1  0
 18 17  1  0
 18 24  1  0
 18 19  1  6
 20 19  1  0
 21 20  1  0
 22 21  1  0
 22 23  1  0
 24 25  1  0
 26 24  2  0
M  END
$$$$
