IMK.pdb
     RDKit          3D

 26 25  0  0  1  0  0  0  0  0999 V2000
   25.8591  -22.2824  -17.7231 C   0  0  0  0  0  0  0  0  0  0  0  0
   25.7964  -23.5290  -16.8305 C   0  0  0  0  0  0  0  0  0  0  0  0
   26.2535  -24.6802  -17.6919 C   0  0  2  0  0  0  0  0  0  0  0  0
   25.2218  -24.8684  -18.7872 C   0  0  0  0  0  0  0  0  0  0  0  0
   26.3861  -25.9690  -16.9443 C   0  0  2  0  0  0  0  0  0  0  0  0
   27.1321  -25.7524  -15.7351 N   0  0  0  0  0  0  0  0  0  0  0  0
   26.9391  -27.0828  -17.7112 C   0  0  0  0  0  0  0  0  0  0  0  0
   26.3596  -27.4414  -18.7747 O   0  0  0  0  0  0  0  0  0  0  0  0
   32.7613  -28.0271  -17.5012 C   0  0  0  0  0  0  0  0  0  0  0  0
   32.6472  -29.6777  -18.2899 S   0  0  0  0  0  0  0  0  0  0  0  0
   30.8697  -29.8824  -18.7461 C   0  0  0  0  0  0  0  0  0  0  0  0
   30.1319  -28.8343  -17.9751 C   0  0  0  0  0  0  0  0  0  0  0  0
   28.6497  -28.8907  -18.2161 C   0  0  2  0  0  0  0  0  0  0  0  0
   28.0949  -27.8104  -17.3559 N   0  0  0  0  0  0  0  0  0  0  0  0
   27.9979  -30.1696  -17.8639 C   0  0  0  0  0  0  0  0  0  0  0  0
   27.8794  -30.5203  -16.6386 O   0  0  0  0  0  0  0  0  0  0  0  0
   27.4718  -31.0598  -18.8036 N   0  0  0  0  0  0  0  0  0  0  0  0
   26.7952  -32.3396  -18.3790 C   0  0  1  0  0  0  0  0  0  0  0  0
   25.6328  -31.8359  -17.6040 C   0  0  0  0  0  0  0  0  0  0  0  0
   24.5863  -32.6964  -17.0735 C   0  0  0  0  0  0  0  0  0  0  0  0
   24.8172  -33.6037  -15.9378 C   0  0  0  0  0  0  0  0  0  0  0  0
   24.1177  -34.9399  -16.0247 C   0  0  0  0  0  0  0  0  0  0  0  0
   24.3854  -35.8135  -14.9245 N   0  0  0  0  0  0  0  0  0  0  0  0
   26.5351  -33.0349  -19.6325 C   0  0  0  0  0  0  0  0  0  0  0  0
   26.2500  -34.3898  -19.6595 O   0  0  0  0  0  0  0  0  0  0  0  0
   26.5561  -32.4586  -20.7346 O   0  0  0  0  0  0  0  0  0  0  0  0
  2  1  1  0
  3  5  1  0
  3  2  1  0
  3  4  1  6
  5  6  1  1
  7  8  2  0
  7  5  1  0
 10  9  1  0
 11 10  1  0
 12 11  1  0
 13 12  1  1
 13 14  1  0
 14  7  1  0
 15 16  2  0
 15 13  1  0
 17 15  1  0
 18 17  1  0
 18 24  1  0
 18 19  1  6
 20 19  1  0
 21 20  1  0
 22 21  1  0
 22 23  1  0
 24 25  1  0
 26 24  2  0
M  END
$$$$
