IMK.pdb
     RDKit          3D

 26 25  0  0  1  0  0  0  0  0999 V2000
   18.7861  -15.4324  -19.7625 C   0  0  0  0  0  0  0  0  0  0  0  0
   19.6286  -14.3648  -19.0519 C   0  0  0  0  0  0  0  0  0  0  0  0
   18.6450  -13.3900  -18.4531 C   0  0  2  0  0  0  0  0  0  0  0  0
   17.8450  -12.7905  -19.5933 C   0  0  0  0  0  0  0  0  0  0  0  0
   19.2951  -12.2747  -17.6975 C   0  0  2  0  0  0  0  0  0  0  0  0
   20.2333  -12.8135  -16.7515 N   0  0  0  0  0  0  0  0  0  0  0  0
   18.3777  -11.3378  -17.0531 C   0  0  0  0  0  0  0  0  0  0  0  0
   17.4421  -10.8309  -17.7339 O   0  0  0  0  0  0  0  0  0  0  0  0
   16.8110  -11.5628  -11.1356 C   0  0  0  0  0  0  0  0  0  0  0  0
   16.8450   -9.7304  -11.1131 S   0  0  0  0  0  0  0  0  0  0  0  0
   16.7183   -9.2149  -12.8816 C   0  0  0  0  0  0  0  0  0  0  0  0
   17.5638  -10.1834  -13.6459 C   0  0  0  0  0  0  0  0  0  0  0  0
   17.5395   -9.9145  -15.1242 C   0  0  2  0  0  0  0  0  0  0  0  0
   18.4497  -10.9410  -15.7008 N   0  0  0  0  0  0  0  0  0  0  0  0
   18.0060   -8.5728  -15.5326 C   0  0  0  0  0  0  0  0  0  0  0  0
   19.2518   -8.2810  -15.4950 O   0  0  0  0  0  0  0  0  0  0  0  0
   17.1582   -7.5577  -15.9832 N   0  0  0  0  0  0  0  0  0  0  0  0
   17.6923   -6.1965  -16.3543 C   0  0  1  0  0  0  0  0  0  0  0  0
   16.6140   -5.6653  -17.2266 C   0  0  0  0  0  0  0  0  0  0  0  0
   16.6322   -4.3304  -17.8052 C   0  0  0  0  0  0  0  0  0  0  0  0
   15.6075   -3.8745  -18.7584 C   0  0  0  0  0  0  0  0  0  0  0  0
   15.7828   -2.4642  -19.2712 C   0  0  0  0  0  0  0  0  0  0  0  0
   16.2689   -2.3858  -20.6139 N   0  0  0  0  0  0  0  0  0  0  0  0
   17.9213   -5.5446  -15.0717 C   0  0  0  0  0  0  0  0  0  0  0  0
   18.9512   -4.6350  -14.8991 O   0  0  0  0  0  0  0  0  0  0  0  0
   17.2150   -5.7669  -14.0723 O   0  0  0  0  0  0  0  0  0  0  0  0
  2  1  1  0
  3  5  1  0
  3  2  1  0
  3  4  1  6
  5  6  1  1
  7  8  2  0
  7  5  1  0
 10  9  1  0
 11 10  1  0
 12 11  1  0
 13 12  1  1
 13 14  1  0
 14  7  1  0
 15 16  2  0
 15 13  1  0
 17 15  1  0
 18 17  1  0
 18 24  1  0
 18 19  1  6
 20 19  1  0
 21 20  1  0
 22 21  1  0
 22 23  1  0
 24 25  1  0
 26 24  2  0
M  END
$$$$
