IMK.pdb
     RDKit          3D

 26 25  0  0  1  0  0  0  0  0999 V2000
   30.0728  -20.2675  -17.4200 C   0  0  0  0  0  0  0  0  0  0  0  0
   29.3066  -19.5446  -16.3042 C   0  0  0  0  0  0  0  0  0  0  0  0
   27.9098  -19.3285  -16.8321 C   0  0  2  0  0  0  0  0  0  0  0  0
   28.0151  -18.4256  -18.0458 C   0  0  0  0  0  0  0  0  0  0  0  0
   26.9916  -18.6825  -15.8436 C   0  0  2  0  0  0  0  0  0  0  0  0
   27.7133  -17.6988  -15.0840 N   0  0  0  0  0  0  0  0  0  0  0  0
   26.2721  -19.6016  -14.9649 C   0  0  0  0  0  0  0  0  0  0  0  0
   25.4671  -20.4313  -15.4740 O   0  0  0  0  0  0  0  0  0  0  0  0
   25.4863  -22.0575   -7.5197 C   0  0  0  0  0  0  0  0  0  0  0  0
   26.3397  -20.9829   -8.7347 S   0  0  0  0  0  0  0  0  0  0  0  0
   25.4110  -21.1956  -10.3164 C   0  0  0  0  0  0  0  0  0  0  0  0
   26.1706  -20.4117  -11.3389 C   0  0  0  0  0  0  0  0  0  0  0  0
   25.5655  -20.5301  -12.7093 C   0  0  2  0  0  0  0  0  0  0  0  0
   26.4035  -19.6424  -13.5604 N   0  0  0  0  0  0  0  0  0  0  0  0
   24.1530  -20.1085  -12.8177 C   0  0  0  0  0  0  0  0  0  0  0  0
   23.8204  -18.8937  -12.5899 O   0  0  0  0  0  0  0  0  0  0  0  0
   23.1093  -20.9673  -13.1719 N   0  0  0  0  0  0  0  0  0  0  0  0
   21.6871  -20.4742  -13.2717 C   0  0  1  0  0  0  0  0  0  0  0  0
   21.3109  -20.8833  -14.6489 C   0  0  0  0  0  0  0  0  0  0  0  0
   21.6926  -20.1412  -15.8408 C   0  0  0  0  0  0  0  0  0  0  0  0
   21.3709  -20.6150  -17.1967 C   0  0  0  0  0  0  0  0  0  0  0  0
   21.9673  -19.8046  -18.3236 C   0  0  0  0  0  0  0  0  0  0  0  0
   21.6169  -20.2711  -19.6293 N   0  0  0  0  0  0  0  0  0  0  0  0
   21.0098  -21.1194  -12.1548 C   0  0  0  0  0  0  0  0  0  0  0  0
   19.8668  -20.5752  -11.5933 O   0  0  0  0  0  0  0  0  0  0  0  0
   21.4158  -22.1804  -11.6483 O   0  0  0  0  0  0  0  0  0  0  0  0
  2  1  1  0
  3  5  1  0
  3  2  1  0
  3  4  1  6
  5  6  1  1
  7  8  2  0
  7  5  1  0
 10  9  1  0
 11 10  1  0
 12 11  1  0
 13 12  1  1
 13 14  1  0
 14  7  1  0
 15 16  2  0
 15 13  1  0
 17 15  1  0
 18 17  1  0
 18 24  1  0
 18 19  1  6
 20 19  1  0
 21 20  1  0
 22 21  1  0
 22 23  1  0
 24 25  1  0
 26 24  2  0
M  END
$$$$
