IMK.pdb
     RDKit          3D

 26 25  0  0  1  0  0  0  0  0999 V2000
   28.1318  -17.0478  -16.6899 C   0  0  0  0  0  0  0  0  0  0  0  0
   28.6927  -18.1957  -15.8400 C   0  0  0  0  0  0  0  0  0  0  0  0
   27.4973  -18.8756  -15.2195 C   0  0  2  0  0  0  0  0  0  0  0  0
   26.7510  -17.8351  -14.4074 C   0  0  0  0  0  0  0  0  0  0  0  0
   27.8596  -20.0088  -14.3127 C   0  0  2  0  0  0  0  0  0  0  0  0
   28.6426  -20.9744  -15.0339 N   0  0  0  0  0  0  0  0  0  0  0  0
   26.7366  -20.6467  -13.6296 C   0  0  0  0  0  0  0  0  0  0  0  0
   26.0934  -21.5555  -14.2262 O   0  0  0  0  0  0  0  0  0  0  0  0
   26.1498  -19.3930   -7.7146 C   0  0  0  0  0  0  0  0  0  0  0  0
   26.5425  -21.1814   -7.7964 S   0  0  0  0  0  0  0  0  0  0  0  0
   26.5148  -21.6089   -9.5925 C   0  0  0  0  0  0  0  0  0  0  0  0
   25.4141  -20.7881  -10.1857 C   0  0  0  0  0  0  0  0  0  0  0  0
   25.2117  -21.0806  -11.6457 C   0  0  2  0  0  0  0  0  0  0  0  0
   26.2985  -20.3259  -12.3271 N   0  0  0  0  0  0  0  0  0  0  0  0
   23.9094  -20.6584  -12.2027 C   0  0  0  0  0  0  0  0  0  0  0  0
   23.7117  -19.4378  -12.5339 O   0  0  0  0  0  0  0  0  0  0  0  0
   22.8343  -21.5258  -12.4120 N   0  0  0  0  0  0  0  0  0  0  0  0
   21.5458  -21.0433  -13.0308 C   0  0  1  0  0  0  0  0  0  0  0  0
   21.3384  -22.0252  -14.1255 C   0  0  0  0  0  0  0  0  0  0  0  0
   20.1653  -22.0340  -14.9862 C   0  0  0  0  0  0  0  0  0  0  0  0
   19.9842  -23.0291  -16.0555 C   0  0  0  0  0  0  0  0  0  0  0  0
   18.7630  -22.8316  -16.9229 C   0  0  0  0  0  0  0  0  0  0  0  0
   18.5392  -23.8824  -17.8667 N   0  0  0  0  0  0  0  0  0  0  0  0
   20.6002  -21.0411  -11.9225 C   0  0  0  0  0  0  0  0  0  0  0  0
   19.3788  -20.3956  -12.0183 O   0  0  0  0  0  0  0  0  0  0  0  0
   20.8346  -21.6099  -10.8414 O   0  0  0  0  0  0  0  0  0  0  0  0
  2  1  1  0
  3  5  1  0
  3  2  1  0
  3  4  1  1
  5  6  1  6
  7  8  2  0
  7  5  1  0
 10  9  1  0
 11 10  1  0
 12 11  1  0
 13 12  1  1
 13 14  1  0
 14  7  1  0
 15 16  2  0
 15 13  1  0
 17 15  1  0
 18 17  1  0
 18 24  1  0
 18 19  1  6
 20 19  1  0
 21 20  1  0
 22 21  1  0
 22 23  1  0
 24 25  1  0
 26 24  2  0
M  END
$$$$
