IMK.pdb
     RDKit          3D

 26 25  0  0  1  0  0  0  0  0999 V2000
   17.1545  -11.9329  -20.8647 C   0  0  0  0  0  0  0  0  0  0  0  0
   18.2741  -12.2396  -19.8612 C   0  0  0  0  0  0  0  0  0  0  0  0
   18.1839  -11.1719  -18.7990 C   0  0  2  0  0  0  0  0  0  0  0  0
   18.4760   -9.8408  -19.4640 C   0  0  0  0  0  0  0  0  0  0  0  0
   19.1567  -11.3614  -17.6786 C   0  0  2  0  0  0  0  0  0  0  0  0
   18.9903  -12.6705  -17.1095 N   0  0  0  0  0  0  0  0  0  0  0  0
   19.1272  -10.3303  -16.6439 C   0  0  0  0  0  0  0  0  0  0  0  0
   18.1686  -10.3154  -15.8215 O   0  0  0  0  0  0  0  0  0  0  0  0
   22.0280   -9.9817  -11.9015 C   0  0  0  0  0  0  0  0  0  0  0  0
   22.4244   -8.2145  -12.1834 S   0  0  0  0  0  0  0  0  0  0  0  0
   21.1191   -7.5957  -13.3336 C   0  0  0  0  0  0  0  0  0  0  0  0
   21.0617   -8.5888  -14.4506 C   0  0  0  0  0  0  0  0  0  0  0  0
   19.9845   -8.2616  -15.4459 C   0  0  2  0  0  0  0  0  0  0  0  0
   20.1035   -9.3244  -16.4808 N   0  0  0  0  0  0  0  0  0  0  0  0
   20.1024   -6.9399  -16.0968 C   0  0  0  0  0  0  0  0  0  0  0  0
   21.0375   -6.7150  -16.9414 O   0  0  0  0  0  0  0  0  0  0  0  0
   19.2312   -5.8740  -15.8578 N   0  0  0  0  0  0  0  0  0  0  0  0
   19.3476   -4.5789  -16.6227 C   0  0  1  0  0  0  0  0  0  0  0  0
   17.9326   -4.1349  -16.7018 C   0  0  0  0  0  0  0  0  0  0  0  0
   16.9217   -4.8097  -17.5017 C   0  0  0  0  0  0  0  0  0  0  0  0
   15.7858   -5.5210  -16.8932 C   0  0  0  0  0  0  0  0  0  0  0  0
   14.7843   -6.0944  -17.8683 C   0  0  0  0  0  0  0  0  0  0  0  0
   13.6578   -6.7214  -17.2496 N   0  0  0  0  0  0  0  0  0  0  0  0
   20.2737   -3.7817  -15.8294 C   0  0  0  0  0  0  0  0  0  0  0  0
   20.9248   -2.6846  -16.3683 O   0  0  0  0  0  0  0  0  0  0  0  0
   20.5298   -4.0393  -14.6398 O   0  0  0  0  0  0  0  0  0  0  0  0
  2  1  1  0
  3  5  1  0
  3  2  1  0
  3  4  1  6
  5  6  1  1
  7  8  2  0
  7  5  1  0
 10  9  1  0
 11 10  1  0
 12 11  1  0
 13 12  1  1
 13 14  1  0
 14  7  1  0
 15 16  2  0
 15 13  1  0
 17 15  1  0
 18 17  1  0
 18 24  1  0
 18 19  1  1
 20 19  1  0
 21 20  1  0
 22 21  1  0
 22 23  1  0
 24 25  1  0
 26 24  2  0
M  END
$$$$
