IMK.pdb
     RDKit          3D

 26 25  0  0  1  0  0  0  0  0999 V2000
   18.4007  -20.5767  -13.1698 C   0  0  0  0  0  0  0  0  0  0  0  0
   19.4612  -21.5899  -12.7188 C   0  0  0  0  0  0  0  0  0  0  0  0
   20.7779  -20.8539  -12.7482 C   0  0  2  0  0  0  0  0  0  0  0  0
   21.0106  -20.3914  -14.1734 C   0  0  0  0  0  0  0  0  0  0  0  0
   21.9417  -21.6961  -12.3312 C   0  0  2  0  0  0  0  0  0  0  0  0
   21.6581  -22.3227  -11.0693 N   0  0  0  0  0  0  0  0  0  0  0  0
   23.2310  -21.0096  -12.2996 C   0  0  0  0  0  0  0  0  0  0  0  0
   23.4803  -20.1343  -13.1756 O   0  0  0  0  0  0  0  0  0  0  0  0
   27.7450  -19.5948   -7.6131 C   0  0  0  0  0  0  0  0  0  0  0  0
   26.0874  -20.3287   -7.3428 S   0  0  0  0  0  0  0  0  0  0  0  0
   25.1921  -20.1235   -8.9446 C   0  0  0  0  0  0  0  0  0  0  0  0
   26.0978  -20.6942   -9.9892 C   0  0  0  0  0  0  0  0  0  0  0  0
   25.5454  -20.5201  -11.3758 C   0  0  2  0  0  0  0  0  0  0  0  0
   24.2472  -21.2472  -11.3496 N   0  0  0  0  0  0  0  0  0  0  0  0
   26.3818  -21.0664  -12.4651 C   0  0  0  0  0  0  0  0  0  0  0  0
   26.9636  -22.1985  -12.3294 O   0  0  0  0  0  0  0  0  0  0  0  0
   26.5894  -20.4198  -13.6862 N   0  0  0  0  0  0  0  0  0  0  0  0
   27.4217  -21.0492  -14.7757 C   0  0  1  0  0  0  0  0  0  0  0  0
   26.4646  -22.0071  -15.3856 C   0  0  0  0  0  0  0  0  0  0  0  0
   26.7216  -23.4342  -15.5056 C   0  0  0  0  0  0  0  0  0  0  0  0
   27.7357  -23.9741  -16.4257 C   0  0  0  0  0  0  0  0  0  0  0  0
   27.9430  -25.4690  -16.3548 C   0  0  0  0  0  0  0  0  0  0  0  0
   28.8884  -25.9743  -17.3014 N   0  0  0  0  0  0  0  0  0  0  0  0
   27.8667  -19.9182  -15.5789 C   0  0  0  0  0  0  0  0  0  0  0  0
   29.0817  -19.9395  -16.2431 O   0  0  0  0  0  0  0  0  0  0  0  0
   27.1901  -18.8827  -15.7100 O   0  0  0  0  0  0  0  0  0  0  0  0
  2  1  1  0
  3  5  1  0
  3  2  1  0
  3  4  1  6
  5  6  1  1
  7  8  2  0
  7  5  1  0
 10  9  1  0
 11 10  1  0
 12 11  1  0
 13 12  1  1
 13 14  1  0
 14  7  1  0
 15 16  2  0
 15 13  1  0
 17 15  1  0
 18 17  1  0
 18 24  1  0
 18 19  1  6
 20 19  1  0
 21 20  1  0
 22 21  1  0
 22 23  1  0
 24 25  1  0
 26 24  2  0
M  END
$$$$
