IMK.pdb
     RDKit          3D

 26 25  0  0  1  0  0  0  0  0999 V2000
   20.2673  -18.0141  -16.8970 C   0  0  0  0  0  0  0  0  0  0  0  0
   20.6506  -16.7816  -17.7269 C   0  0  0  0  0  0  0  0  0  0  0  0
   21.1443  -15.7532  -16.7396 C   0  0  2  0  0  0  0  0  0  0  0  0
   20.0345  -15.5165  -15.7337 C   0  0  0  0  0  0  0  0  0  0  0  0
   21.4959  -14.4426  -17.3689 C   0  0  2  0  0  0  0  0  0  0  0  0
   22.4320  -14.6551  -18.4386 N   0  0  0  0  0  0  0  0  0  0  0  0
   21.9747  -13.4148  -16.4474 C   0  0  0  0  0  0  0  0  0  0  0  0
   21.2162  -13.0274  -15.5146 O   0  0  0  0  0  0  0  0  0  0  0  0
   27.8882  -12.1133  -15.8415 C   0  0  0  0  0  0  0  0  0  0  0  0
   27.4811  -10.3818  -15.3992 S   0  0  0  0  0  0  0  0  0  0  0  0
   25.6693  -10.3787  -15.0430 C   0  0  0  0  0  0  0  0  0  0  0  0
   25.1124  -11.5591  -15.7736 C   0  0  0  0  0  0  0  0  0  0  0  0
   23.6182  -11.6532  -15.6443 C   0  0  2  0  0  0  0  0  0  0  0  0
   23.2446  -12.8027  -16.5125 N   0  0  0  0  0  0  0  0  0  0  0  0
   22.8672  -10.4568  -16.0793 C   0  0  0  0  0  0  0  0  0  0  0  0
   22.8640  -10.1062  -17.3103 O   0  0  0  0  0  0  0  0  0  0  0  0
   22.1226   -9.6488  -15.2162 N   0  0  0  0  0  0  0  0  0  0  0  0
   21.3788   -8.4375  -15.7217 C   0  0  1  0  0  0  0  0  0  0  0  0
   19.9973   -8.9607  -15.8741 C   0  0  0  0  0  0  0  0  0  0  0  0
   18.8320   -8.1106  -16.0651 C   0  0  0  0  0  0  0  0  0  0  0  0
   17.4679   -8.6567  -16.1504 C   0  0  0  0  0  0  0  0  0  0  0  0
   16.3834   -7.6458  -16.4411 C   0  0  0  0  0  0  0  0  0  0  0  0
   15.0874   -8.2177  -16.6372 N   0  0  0  0  0  0  0  0  0  0  0  0
   21.6204   -7.4238  -14.7036 C   0  0  0  0  0  0  0  0  0  0  0  0
   21.9128   -7.7714  -13.3954 O   0  0  0  0  0  0  0  0  0  0  0  0
   21.5764   -6.2051  -14.9487 O   0  0  0  0  0  0  0  0  0  0  0  0
  2  1  1  0
  3  5  1  0
  3  2  1  0
  3  4  1  1
  5  6  1  6
  7  8  2  0
  7  5  1  0
 10  9  1  0
 11 10  1  0
 12 11  1  0
 13 12  1  6
 13 14  1  0
 14  7  1  0
 15 16  2  0
 15 13  1  0
 17 15  1  0
 18 17  1  0
 18 24  1  0
 18 19  1  1
 20 19  1  0
 21 20  1  0
 22 21  1  0
 22 23  1  0
 24 25  1  0
 26 24  2  0
M  END
$$$$
