PYP.pdb
     RDKit          3D

 27 29  0  0  1  0  0  0  0  0999 V2000
    8.8797  -16.2657   20.0581 N   0  0  0  0  0  0  0  0  0  0  0  0
    8.9469  -16.5009   18.6252 C   0  0  0  0  0  0  0  0  0  0  0  0
    7.5593  -16.8172   18.1637 C   0  0  0  0  0  0  0  0  0  0  0  0
    6.7445  -16.8218   19.4568 C   0  0  0  0  0  0  0  0  0  0  0  0
    7.5155  -15.8297   20.2912 C   0  0  1  0  0  0  0  0  0  0  0  0
    7.1519  -15.8214   21.7081 C   0  0  0  0  0  0  0  0  0  0  0  0
    6.0341  -15.4105   22.0823 O   0  0  0  0  0  0  0  0  0  0  0  0
    8.1296  -18.4165   30.2407 O   0  0  0  0  0  0  0  0  0  0  0  0
    8.1201  -18.2453   28.8590 C   0  0  0  0  0  0  0  0  0  0  0  0
    9.2626  -17.7917   28.2318 C   0  0  0  0  0  0  0  0  0  0  0  0
    9.2825  -17.6123   26.8589 C   0  0  0  0  0  0  0  0  0  0  0  0
    8.1881  -17.8712   26.0662 C   0  0  0  0  0  0  0  0  0  0  0  0
    8.2038  -17.6305   24.6271 C   0  0  0  0  0  0  0  0  0  0  0  0
    7.6729  -16.3344   24.1201 C   0  0  2  0  0  0  0  0  0  0  0  0
    8.0697  -16.2819   22.6755 N   0  0  0  0  0  0  0  0  0  0  0  0
    8.2882  -15.1814   24.7795 C   0  0  0  0  0  0  0  0  0  0  0  0
    9.5223  -14.9505   24.4995 O   0  0  0  0  0  0  0  0  0  0  0  0
    7.0409  -18.3297   26.7248 C   0  0  0  0  0  0  0  0  0  0  0  0
    7.0106  -18.5119   28.0905 C   0  0  0  0  0  0  0  0  0  0  0  0
    7.6371  -14.3030   25.6836 N   0  0  0  0  0  0  0  0  0  0  0  0
    6.2488  -14.2727   26.0917 C   0  0  0  0  0  0  0  0  0  0  0  0
    5.9650  -12.7655   26.2814 C   0  0  0  0  0  0  0  0  0  0  0  0
    7.2363  -12.3903   27.0331 C   0  0  0  0  0  0  0  0  0  0  0  0
    8.3048  -13.1817   26.3489 C   0  0  1  0  0  0  0  0  0  0  0  0
    9.3419  -13.7120   27.2454 C   0  0  0  0  0  0  0  0  0  0  0  0
    9.3073  -14.8990   27.6144 O   0  0  0  0  0  0  0  0  0  0  0  0
   10.3678  -12.8913   27.6870 O   0  0  0  0  0  0  0  0  0  0  0  0
  1  2  1  0
  2  3  1  0
  4  3  1  0
  5  6  1  1
  5  4  1  0
  5  1  1  0
  6  7  2  0
  8  9  1  0
  9 19  2  0
 10  9  1  0
 10 11  2  0
 11 12  1  0
 12 18  2  0
 12 13  1  0
 14 13  1  1
 14 15  1  0
 14 16  1  0
 15  6  1  0
 16 20  1  0
 17 16  2  0
 19 18  1  0
 20 21  1  0
 20 24  1  0
 21 22  1  0
 22 23  1  0
 24 23  1  0
 25 27  1  0
 24 25  1  1
 26 25  2  0
M  END
$$$$
