PYP.pdb
     RDKit          3D

 27 29  0  0  1  0  0  0  0  0999 V2000
    6.6550  -20.9640   23.6300 N   0  0  0  0  0  0  0  0  0  0  0  0
    6.2682  -22.3652   23.6194 C   0  0  0  0  0  0  0  0  0  0  0  0
    4.7751  -22.4110   23.5345 C   0  0  0  0  0  0  0  0  0  0  0  0
    4.3686  -20.9384   23.5852 C   0  0  0  0  0  0  0  0  0  0  0  0
    5.5693  -20.2822   22.9505 C   0  0  1  0  0  0  0  0  0  0  0  0
    5.6175  -18.8289   23.1103 C   0  0  0  0  0  0  0  0  0  0  0  0
    4.8360  -18.0868   22.4803 O   0  0  0  0  0  0  0  0  0  0  0  0
    7.4647  -10.9432   26.7987 O   0  0  0  0  0  0  0  0  0  0  0  0
    7.3062  -12.2912   26.4883 C   0  0  0  0  0  0  0  0  0  0  0  0
    8.4199  -13.0411   26.1692 C   0  0  0  0  0  0  0  0  0  0  0  0
    8.2927  -14.3840   25.8565 C   0  0  0  0  0  0  0  0  0  0  0  0
    7.0760  -15.0264   25.8479 C   0  0  0  0  0  0  0  0  0  0  0  0
    6.9471  -16.4292   25.4677 C   0  0  0  0  0  0  0  0  0  0  0  0
    6.7137  -16.7554   24.0331 C   0  0  2  0  0  0  0  0  0  0  0  0
    6.5569  -18.2455   23.9863 N   0  0  0  0  0  0  0  0  0  0  0  0
    7.8595  -16.4147   23.1883 C   0  0  0  0  0  0  0  0  0  0  0  0
    8.8287  -17.2602   23.1664 O   0  0  0  0  0  0  0  0  0  0  0  0
    5.9609  -14.2452   26.1744 C   0  0  0  0  0  0  0  0  0  0  0  0
    6.0766  -12.9081   26.4873 C   0  0  0  0  0  0  0  0  0  0  0  0
    7.9803  -15.2457   22.3934 N   0  0  0  0  0  0  0  0  0  0  0  0
    7.1422  -14.0660   22.3660 C   0  0  0  0  0  0  0  0  0  0  0  0
    7.1709  -13.6419   20.8803 C   0  0  0  0  0  0  0  0  0  0  0  0
    8.6635  -13.8138   20.6262 C   0  0  0  0  0  0  0  0  0  0  0  0
    9.0130  -15.0627   21.3707 C   0  0  1  0  0  0  0  0  0  0  0  0
   10.3289  -15.0365   22.0251 C   0  0  0  0  0  0  0  0  0  0  0  0
   10.4148  -14.9209   23.2602 O   0  0  0  0  0  0  0  0  0  0  0  0
   11.4857  -15.1406   21.2688 O   0  0  0  0  0  0  0  0  0  0  0  0
  1  2  1  0
  2  3  1  0
  4  3  1  0
  5  6  1  1
  5  4  1  0
  5  1  1  0
  6  7  2  0
  8  9  1  0
  9 19  2  0
 10  9  1  0
 10 11  2  0
 11 12  1  0
 12 18  2  0
 12 13  1  0
 14 13  1  1
 14 15  1  0
 14 16  1  0
 15  6  1  0
 16 20  1  0
 17 16  2  0
 19 18  1  0
 20 21  1  0
 20 24  1  0
 21 22  1  0
 22 23  1  0
 24 23  1  0
 25 27  1  0
 24 25  1  1
 26 25  2  0
M  END
$$$$
