PYP.pdb
     RDKit          3D

 27 29  0  0  1  0  0  0  0  0999 V2000
    9.5389  -16.4046   20.6336 N   0  0  0  0  0  0  0  0  0  0  0  0
    9.8762  -16.6937   19.2495 C   0  0  0  0  0  0  0  0  0  0  0  0
    8.5951  -16.7111   18.4767 C   0  0  0  0  0  0  0  0  0  0  0  0
    7.5275  -16.4957   19.5491 C   0  0  0  0  0  0  0  0  0  0  0  0
    8.2887  -15.6720   20.5575 C   0  0  1  0  0  0  0  0  0  0  0  0
    7.6237  -15.5392   21.8536 C   0  0  0  0  0  0  0  0  0  0  0  0
    6.4755  -15.0572   21.9405 O   0  0  0  0  0  0  0  0  0  0  0  0
    5.3878  -21.6791   22.4888 O   0  0  0  0  0  0  0  0  0  0  0  0
    6.0091  -20.5935   23.1003 C   0  0  0  0  0  0  0  0  0  0  0  0
    5.2655  -19.7705   23.9214 C   0  0  0  0  0  0  0  0  0  0  0  0
    5.8567  -18.6836   24.5430 C   0  0  0  0  0  0  0  0  0  0  0  0
    7.1873  -18.3745   24.3779 C   0  0  0  0  0  0  0  0  0  0  0  0
    7.7883  -17.1979   24.9970 C   0  0  0  0  0  0  0  0  0  0  0  0
    7.5770  -15.8721   24.3515 C   0  0  2  0  0  0  0  0  0  0  0  0
    8.2796  -15.9586   23.0301 N   0  0  0  0  0  0  0  0  0  0  0  0
    8.1990  -14.7794   25.1011 C   0  0  0  0  0  0  0  0  0  0  0  0
    9.4747  -14.6586   24.9883 O   0  0  0  0  0  0  0  0  0  0  0  0
    7.9210  -19.2232   23.5403 C   0  0  0  0  0  0  0  0  0  0  0  0
    7.3423  -20.3076   22.9171 C   0  0  0  0  0  0  0  0  0  0  0  0
    7.5142  -13.8481   25.9236 N   0  0  0  0  0  0  0  0  0  0  0  0
    6.0968  -13.5667   26.0050 C   0  0  0  0  0  0  0  0  0  0  0  0
    6.0497  -12.0485   26.2893 C   0  0  0  0  0  0  0  0  0  0  0  0
    7.1439  -11.9840   27.3479 C   0  0  0  0  0  0  0  0  0  0  0  0
    8.1881  -12.9279   26.8429 C   0  0  1  0  0  0  0  0  0  0  0  0
    8.8616  -13.7112   27.8886 C   0  0  0  0  0  0  0  0  0  0  0  0
    8.5719  -14.9078   28.0628 O   0  0  0  0  0  0  0  0  0  0  0  0
    9.8262  -13.1204   28.6896 O   0  0  0  0  0  0  0  0  0  0  0  0
  1  2  1  0
  2  3  1  0
  4  3  1  0
  5  6  1  1
  5  4  1  0
  5  1  1  0
  6  7  2  0
  8  9  1  0
  9 19  2  0
 10  9  1  0
 10 11  2  0
 11 12  1  0
 12 18  2  0
 12 13  1  0
 14 13  1  1
 14 15  1  0
 14 16  1  0
 15  6  1  0
 16 20  1  0
 17 16  2  0
 19 18  1  0
 20 21  1  0
 20 24  1  0
 21 22  1  0
 22 23  1  0
 24 23  1  0
 25 27  1  0
 24 25  1  1
 26 25  2  0
M  END
$$$$
