PYP.pdb
     RDKit          3D

 27 29  0  0  1  0  0  0  0  0999 V2000
    8.5474  -16.7114   20.0869 N   0  0  0  0  0  0  0  0  0  0  0  0
    8.1868  -16.8140   18.6825 C   0  0  0  0  0  0  0  0  0  0  0  0
    8.3735  -15.4582   18.0779 C   0  0  0  0  0  0  0  0  0  0  0  0
    8.7795  -14.5888   19.2677 C   0  0  0  0  0  0  0  0  0  0  0  0
    9.4779  -15.5995   20.1428 C   0  0  1  0  0  0  0  0  0  0  0  0
    9.7381  -15.1392   21.5067 C   0  0  0  0  0  0  0  0  0  0  0  0
   10.6443  -14.3144   21.7449 O   0  0  0  0  0  0  0  0  0  0  0  0
    5.7211  -11.2480   28.2682 O   0  0  0  0  0  0  0  0  0  0  0  0
    6.1203  -12.0331   27.1899 C   0  0  0  0  0  0  0  0  0  0  0  0
    5.9886  -13.4042   27.2736 C   0  0  0  0  0  0  0  0  0  0  0  0
    6.3771  -14.2100   26.2168 C   0  0  0  0  0  0  0  0  0  0  0  0
    6.9032  -13.6968   25.0536 C   0  0  0  0  0  0  0  0  0  0  0  0
    7.3564  -14.5578   23.9663 C   0  0  0  0  0  0  0  0  0  0  0  0
    8.8168  -14.8178   23.8306 C   0  0  2  0  0  0  0  0  0  0  0  0
    8.9601  -15.6278   22.5774 N   0  0  0  0  0  0  0  0  0  0  0  0
    9.3456  -15.6262   24.9305 C   0  0  0  0  0  0  0  0  0  0  0  0
    9.4721  -16.8868   24.7077 O   0  0  0  0  0  0  0  0  0  0  0  0
    7.0277  -12.3036   24.9921 C   0  0  0  0  0  0  0  0  0  0  0  0
    6.6438  -11.4926   26.0381 C   0  0  0  0  0  0  0  0  0  0  0  0
    9.7348  -15.1347   26.2032 N   0  0  0  0  0  0  0  0  0  0  0  0
    9.6050  -13.8003   26.7487 C   0  0  0  0  0  0  0  0  0  0  0  0
   10.8701  -13.6472   27.6228 C   0  0  0  0  0  0  0  0  0  0  0  0
   10.8412  -15.0114   28.3011 C   0  0  0  0  0  0  0  0  0  0  0  0
   10.4224  -15.9455   27.2110 C   0  0  1  0  0  0  0  0  0  0  0  0
    9.5246  -17.0262   27.6431 C   0  0  0  0  0  0  0  0  0  0  0  0
    8.3015  -16.9499   27.4320 O   0  0  0  0  0  0  0  0  0  0  0  0
   10.0358  -18.1403   28.2901 O   0  0  0  0  0  0  0  0  0  0  0  0
  1  2  1  0
  2  3  1  0
  4  3  1  0
  5  6  1  1
  5  4  1  0
  5  1  1  0
  6  7  2  0
  8  9  1  0
  9 19  2  0
 10  9  1  0
 10 11  2  0
 11 12  1  0
 12 18  2  0
 12 13  1  0
 14 13  1  1
 14 15  1  0
 14 16  1  0
 15  6  1  0
 16 20  1  0
 17 16  2  0
 19 18  1  0
 20 21  1  0
 20 24  1  0
 21 22  1  0
 22 23  1  0
 24 23  1  0
 25 27  1  0
 24 25  1  1
 26 25  2  0
M  END
$$$$
