PYP.pdb
     RDKit          3D

 27 29  0  0  1  0  0  0  0  0999 V2000
    9.7759  -17.9588   20.7254 N   0  0  0  0  0  0  0  0  0  0  0  0
    9.8657  -18.4623   19.3647 C   0  0  0  0  0  0  0  0  0  0  0  0
   10.3398  -17.3327   18.5058 C   0  0  0  0  0  0  0  0  0  0  0  0
   10.4213  -16.1549   19.4765 C   0  0  0  0  0  0  0  0  0  0  0  0
   10.7279  -16.8647   20.7715 C   0  0  1  0  0  0  0  0  0  0  0  0
   10.5841  -16.0313   21.9651 C   0  0  0  0  0  0  0  0  0  0  0  0
   11.3638  -15.0812   22.1833 O   0  0  0  0  0  0  0  0  0  0  0  0
    5.5876  -11.1895   27.3943 O   0  0  0  0  0  0  0  0  0  0  0  0
    6.1288  -12.1084   26.4992 C   0  0  0  0  0  0  0  0  0  0  0  0
    5.9660  -13.4570   26.7424 C   0  0  0  0  0  0  0  0  0  0  0  0
    6.4930  -14.3937   25.8694 C   0  0  0  0  0  0  0  0  0  0  0  0
    7.1912  -14.0364   24.7389 C   0  0  0  0  0  0  0  0  0  0  0  0
    7.7858  -15.0315   23.8528 C   0  0  0  0  0  0  0  0  0  0  0  0
    9.2451  -15.3049   23.9731 C   0  0  2  0  0  0  0  0  0  0  0  0
    9.5529  -16.2955   22.8909 N   0  0  0  0  0  0  0  0  0  0  0  0
    9.5930  -15.9351   25.2477 C   0  0  0  0  0  0  0  0  0  0  0  0
    9.6834  -17.2183   25.2483 O   0  0  0  0  0  0  0  0  0  0  0  0
    7.3438  -12.6630   24.5136 C   0  0  0  0  0  0  0  0  0  0  0  0
    6.8230  -11.7225   25.3759 C   0  0  0  0  0  0  0  0  0  0  0  0
    9.8456  -15.2513   26.4649 N   0  0  0  0  0  0  0  0  0  0  0  0
    9.6226  -13.8604   26.7974 C   0  0  0  0  0  0  0  0  0  0  0  0
   10.7949  -13.5280   27.7477 C   0  0  0  0  0  0  0  0  0  0  0  0
   10.7467  -14.7823   28.6115 C   0  0  0  0  0  0  0  0  0  0  0  0
   10.4618  -15.8793   27.6360 C   0  0  1  0  0  0  0  0  0  0  0  0
    9.5628  -16.9274   28.1398 C   0  0  0  0  0  0  0  0  0  0  0  0
    8.3885  -16.9959   27.7367 O   0  0  0  0  0  0  0  0  0  0  0  0
   10.0184  -17.8488   29.0696 O   0  0  0  0  0  0  0  0  0  0  0  0
  1  2  1  0
  2  3  1  0
  4  3  1  0
  5  6  1  1
  5  4  1  0
  5  1  1  0
  6  7  2  0
  8  9  1  0
  9 19  2  0
 10  9  1  0
 10 11  2  0
 11 12  1  0
 12 18  2  0
 12 13  1  0
 14 13  1  1
 14 15  1  0
 14 16  1  0
 15  6  1  0
 16 20  1  0
 17 16  2  0
 19 18  1  0
 20 21  1  0
 20 24  1  0
 21 22  1  0
 22 23  1  0
 24 23  1  0
 25 27  1  0
 24 25  1  1
 26 25  2  0
M  END
$$$$
