PYP.pdb
     RDKit          3D

 27 29  0  0  1  0  0  0  0  0999 V2000
   10.0193  -18.1322   20.8381 N   0  0  0  0  0  0  0  0  0  0  0  0
   10.1501  -18.6891   19.5018 C   0  0  0  0  0  0  0  0  0  0  0  0
   10.6470  -17.5931   18.6127 C   0  0  0  0  0  0  0  0  0  0  0  0
   10.6976  -16.3774   19.5377 C   0  0  0  0  0  0  0  0  0  0  0  0
   10.9674  -17.0342   20.8684 C   0  0  1  0  0  0  0  0  0  0  0  0
   10.7870  -16.1544   22.0232 C   0  0  0  0  0  0  0  0  0  0  0  0
   11.5875  -15.2249   22.2543 O   0  0  0  0  0  0  0  0  0  0  0  0
    5.6302  -11.3130   27.3895 O   0  0  0  0  0  0  0  0  0  0  0  0
    6.1960  -12.2033   26.4808 C   0  0  0  0  0  0  0  0  0  0  0  0
    6.0121  -13.5583   26.6666 C   0  0  0  0  0  0  0  0  0  0  0  0
    6.5628  -14.4671   25.7788 C   0  0  0  0  0  0  0  0  0  0  0  0
    7.3056  -14.0748   24.6890 C   0  0  0  0  0  0  0  0  0  0  0  0
    7.9238  -15.0421   23.7884 C   0  0  0  0  0  0  0  0  0  0  0  0
    9.3788  -15.3224   23.9409 C   0  0  2  0  0  0  0  0  0  0  0  0
    9.6959  -16.3495   22.8960 N   0  0  0  0  0  0  0  0  0  0  0  0
    9.7014  -15.9140   25.2403 C   0  0  0  0  0  0  0  0  0  0  0  0
    9.8611  -17.1902   25.2668 O   0  0  0  0  0  0  0  0  0  0  0  0
    7.4788  -12.6957   24.5216 C   0  0  0  0  0  0  0  0  0  0  0  0
    6.9349  -11.7828   25.3992 C   0  0  0  0  0  0  0  0  0  0  0  0
    9.8604  -15.1998   26.4559 N   0  0  0  0  0  0  0  0  0  0  0  0
    9.4733  -13.8429   26.7784 C   0  0  0  0  0  0  0  0  0  0  0  0
   10.5894  -13.3715   27.7376 C   0  0  0  0  0  0  0  0  0  0  0  0
   10.6794  -14.6189   28.6081 C   0  0  0  0  0  0  0  0  0  0  0  0
   10.5342  -15.7461   27.6363 C   0  0  1  0  0  0  0  0  0  0  0  0
    9.7588  -16.8898   28.1377 C   0  0  0  0  0  0  0  0  0  0  0  0
   10.2653  -17.6867   28.9468 O   0  0  0  0  0  0  0  0  0  0  0  0
    8.4550  -17.0886   27.7115 O   0  0  0  0  0  0  0  0  0  0  0  0
  1  2  1  0
  2  3  1  0
  4  3  1  0
  5  6  1  1
  5  4  1  0
  5  1  1  0
  6  7  2  0
  8  9  1  0
  9 19  2  0
 10  9  1  0
 10 11  2  0
 11 12  1  0
 12 18  2  0
 12 13  1  0
 14 13  1  1
 14 15  1  0
 14 16  1  0
 15  6  1  0
 16 20  1  0
 17 16  2  0
 19 18  1  0
 20 21  1  0
 20 24  1  0
 21 22  1  0
 22 23  1  0
 24 23  1  0
 25 27  1  0
 24 25  1  1
 26 25  2  0
M  END
$$$$
