PYP.pdb
     RDKit          3D

 27 29  0  0  1  0  0  0  0  0999 V2000
    4.9280  -20.7296   21.9642 N   0  0  0  0  0  0  0  0  0  0  0  0
    5.3088  -22.1231   21.8021 C   0  0  0  0  0  0  0  0  0  0  0  0
    6.7097  -22.2604   22.3092 C   0  0  0  0  0  0  0  0  0  0  0  0
    7.0976  -20.8294   22.6807 C   0  0  0  0  0  0  0  0  0  0  0  0
    5.7558  -20.2514   23.0557 C   0  0  1  0  0  0  0  0  0  0  0  0
    5.7421  -18.7946   23.1882 C   0  0  0  0  0  0  0  0  0  0  0  0
    5.1155  -18.0814   22.3777 O   0  0  0  0  0  0  0  0  0  0  0  0
    7.3938  -10.8589   27.1020 O   0  0  0  0  0  0  0  0  0  0  0  0
    7.2966  -12.1978   26.7327 C   0  0  0  0  0  0  0  0  0  0  0  0
    6.0521  -12.7925   26.6882 C   0  0  0  0  0  0  0  0  0  0  0  0
    5.9250  -14.1224   26.3242 C   0  0  0  0  0  0  0  0  0  0  0  0
    7.0092  -14.9030   25.9950 C   0  0  0  0  0  0  0  0  0  0  0  0
    6.8692  -16.3166   25.6620 C   0  0  0  0  0  0  0  0  0  0  0  0
    6.6498  -16.6900   24.2367 C   0  0  2  0  0  0  0  0  0  0  0  0
    6.4438  -18.1749   24.2436 N   0  0  0  0  0  0  0  0  0  0  0  0
    7.8209  -16.4200   23.4010 C   0  0  0  0  0  0  0  0  0  0  0  0
    8.7230  -17.3363   23.3628 O   0  0  0  0  0  0  0  0  0  0  0  0
    8.2610  -14.2781   26.0477 C   0  0  0  0  0  0  0  0  0  0  0  0
    8.3985  -12.9551   26.4085 C   0  0  0  0  0  0  0  0  0  0  0  0
    8.0329  -15.2473   22.6311 N   0  0  0  0  0  0  0  0  0  0  0  0
    7.2637  -14.0217   22.5983 C   0  0  0  0  0  0  0  0  0  0  0  0
    7.3641  -13.5764   21.1219 C   0  0  0  0  0  0  0  0  0  0  0  0
    8.8521  -13.8286   20.9117 C   0  0  0  0  0  0  0  0  0  0  0  0
    9.1067  -15.1069   21.6447 C   0  0  1  0  0  0  0  0  0  0  0  0
   10.4001  -15.1659   22.3404 C   0  0  0  0  0  0  0  0  0  0  0  0
   10.4500  -15.1051   23.5814 O   0  0  0  0  0  0  0  0  0  0  0  0
   11.5758  -15.2898   21.6168 O   0  0  0  0  0  0  0  0  0  0  0  0
  1  2  1  0
  2  3  1  0
  4  3  1  0
  5  6  1  6
  5  4  1  0
  5  1  1  0
  6  7  2  0
  8  9  1  0
  9 19  2  0
 10  9  1  0
 10 11  2  0
 11 12  1  0
 12 18  2  0
 12 13  1  0
 14 13  1  1
 14 15  1  0
 14 16  1  0
 15  6  1  0
 16 20  1  0
 17 16  2  0
 19 18  1  0
 20 21  1  0
 20 24  1  0
 21 22  1  0
 22 23  1  0
 24 23  1  0
 25 27  1  0
 24 25  1  1
 26 25  2  0
M  END
$$$$
