PYP.pdb
     RDKit          3D

 27 29  0  0  1  0  0  0  0  0999 V2000
    6.9088  -21.1096   24.0313 N   0  0  0  0  0  0  0  0  0  0  0  0
    6.5493  -22.5177   24.0644 C   0  0  0  0  0  0  0  0  0  0  0  0
    5.0578  -22.5953   23.9761 C   0  0  0  0  0  0  0  0  0  0  0  0
    4.6226  -21.1301   23.9782 C   0  0  0  0  0  0  0  0  0  0  0  0
    5.8128  -20.4712   23.3268 C   0  0  1  0  0  0  0  0  0  0  0  0
    5.8321  -19.0129   23.4400 C   0  0  0  0  0  0  0  0  0  0  0  0
    4.9857  -18.3110   22.8490 O   0  0  0  0  0  0  0  0  0  0  0  0
    7.3587  -11.0081   26.9511 O   0  0  0  0  0  0  0  0  0  0  0  0
    7.2777  -12.3662   26.6555 C   0  0  0  0  0  0  0  0  0  0  0  0
    8.4293  -13.0497   26.3222 C   0  0  0  0  0  0  0  0  0  0  0  0
    8.3792  -14.4008   26.0236 C   0  0  0  0  0  0  0  0  0  0  0  0
    7.2042  -15.1166   26.0433 C   0  0  0  0  0  0  0  0  0  0  0  0
    7.1547  -16.5283   25.6778 C   0  0  0  0  0  0  0  0  0  0  0  0
    6.9062  -16.8824   24.2524 C   0  0  2  0  0  0  0  0  0  0  0  0
    6.8173  -18.3786   24.2258 N   0  0  0  0  0  0  0  0  0  0  0  0
    8.0169  -16.4999   23.3790 C   0  0  0  0  0  0  0  0  0  0  0  0
    8.9869  -17.3392   23.2821 O   0  0  0  0  0  0  0  0  0  0  0  0
    6.0494  -14.4019   26.3837 C   0  0  0  0  0  0  0  0  0  0  0  0
    6.0884  -13.0572   26.6827 C   0  0  0  0  0  0  0  0  0  0  0  0
    8.1031  -15.2967   22.6320 N   0  0  0  0  0  0  0  0  0  0  0  0
    7.2647  -14.1185   22.6934 C   0  0  0  0  0  0  0  0  0  0  0  0
    7.2284  -13.6292   21.2280 C   0  0  0  0  0  0  0  0  0  0  0  0
    8.7084  -13.7871   20.9015 C   0  0  0  0  0  0  0  0  0  0  0  0
    9.0900  -15.0669   21.5742 C   0  0  1  0  0  0  0  0  0  0  0  0
   10.4333  -15.0673   22.1710 C   0  0  0  0  0  0  0  0  0  0  0  0
   11.4434  -15.0923   21.4463 O   0  0  0  0  0  0  0  0  0  0  0  0
   10.5839  -15.0398   23.5486 O   0  0  0  0  0  0  0  0  0  0  0  0
  1  2  1  0
  2  3  1  0
  4  3  1  0
  5  6  1  1
  5  4  1  0
  5  1  1  0
  6  7  2  0
  8  9  1  0
  9 19  2  0
 10  9  1  0
 10 11  2  0
 11 12  1  0
 12 18  2  0
 12 13  1  0
 14 13  1  1
 14 15  1  0
 14 16  1  0
 15  6  1  0
 16 20  1  0
 17 16  2  0
 19 18  1  0
 20 21  1  0
 20 24  1  0
 21 22  1  0
 22 23  1  0
 24 23  1  0
 25 27  1  0
 24 25  1  1
 26 25  2  0
M  END
$$$$
