QHA.pdb
     RDKit          3D

 25 25  0  0  1  0  0  0  0  0999 V2000
   11.8665  -10.6625   -9.0069 N   0  0  0  0  0  0  0  0  0  0  0  0
   12.0071  -11.4550  -10.1801 C   0  0  0  0  0  0  0  0  0  0  0  0
   11.0689  -12.2140  -10.5750 O   0  0  0  0  0  0  0  0  0  0  0  0
   13.2963  -11.3525  -10.9163 C   0  0  0  0  0  0  0  0  0  0  0  0
   14.1976  -10.4124  -10.1478 C   0  0  0  0  0  0  0  0  0  0  0  0
   15.4774  -10.2319  -10.9084 C   0  0  2  0  0  0  0  0  0  0  0  0
   16.2639  -11.4390  -10.8183 N   0  0  0  0  0  0  0  0  0  0  0  0
   16.2416   -9.0725  -10.3584 C   0  0  0  0  0  0  0  0  0  0  0  0
   17.0452   -9.2261   -9.4037 O   0  0  0  0  0  0  0  0  0  0  0  0
   16.0504   -7.8009  -10.9243 N   0  0  0  0  0  0  0  0  0  0  0  0
   16.7228   -6.5978  -10.3584 C   0  0  1  0  0  0  0  0  0  0  0  0
   17.5143   -6.0244  -11.4727 C   0  0  0  0  0  0  0  0  0  0  0  0
   18.7862   -6.7106  -11.7330 C   0  0  0  0  0  0  0  0  0  0  0  0
   19.2883   -7.7679  -10.9971 C   0  0  0  0  0  0  0  0  0  0  0  0
   20.4639   -8.1022  -11.5550 N   0  0  0  0  0  0  0  0  0  0  0  0
   20.6955   -7.3019  -12.5876 C   0  0  0  0  0  0  0  0  0  0  0  0
   19.6647   -6.4548  -12.6885 N   0  0  0  0  0  0  0  0  0  0  0  0
   15.6938   -5.7901   -9.7442 C   0  0  0  0  0  0  0  0  0  0  0  0
   14.7635   -5.3163  -10.4894 O   0  0  0  0  0  0  0  0  0  0  0  0
   14.5443   -4.6624   -6.3211 C   0  0  0  0  0  0  0  0  0  0  0  0
   14.5748   -4.6816   -7.8377 C   0  0  2  0  0  0  0  0  0  0  0  0
   15.6365   -5.4849   -8.3544 N   0  0  0  0  0  0  0  0  0  0  0  0
   14.6541   -3.2994   -8.2954 C   0  0  0  0  0  0  0  0  0  0  0  0
   15.7906   -2.8881   -8.7245 O   0  0  0  0  0  0  0  0  0  0  0  0
   13.5961   -2.4172   -8.2962 O   0  0  0  0  0  0  0  0  0  0  0  0
  2  4  1  0
  2  1  1  0
  3  2  2  0
  5  6  1  0
  5  4  1  0
  6  7  1  1
  6  8  1  0
  8  9  2  0
 10  8  1  0
 10 11  1  0
 11 12  1  6
 12 13  1  0
 13 14  2  0
 14 15  1  0
 16 15  1  0
 17 13  1  0
 17 16  2  0
 18 22  1  0
 18 11  1  0
 19 18  2  0
 21 20  1  1
 21 23  1  0
 21 22  1  0
 23 25  1  0
 24 23  2  0
M  END
$$$$
