QHA.pdb
     RDKit          3D

 25 25  0  0  1  0  0  0  0  0999 V2000
   17.0491  -14.9899  -14.8480 N   0  0  0  0  0  0  0  0  0  0  0  0
   16.3606  -14.5249  -16.0029 C   0  0  0  0  0  0  0  0  0  0  0  0
   15.4867  -15.2435  -16.5791 O   0  0  0  0  0  0  0  0  0  0  0  0
   16.7111  -13.1665  -16.4993 C   0  0  0  0  0  0  0  0  0  0  0  0
   17.8127  -12.6194  -15.6195 C   0  0  0  0  0  0  0  0  0  0  0  0
   18.1854  -11.2483  -16.0992 C   0  0  2  0  0  0  0  0  0  0  0  0
   18.2553  -11.2464  -17.5410 N   0  0  0  0  0  0  0  0  0  0  0  0
   19.4982  -10.8402  -15.5156 C   0  0  0  0  0  0  0  0  0  0  0  0
   19.6841  -10.8613  -14.2722 O   0  0  0  0  0  0  0  0  0  0  0  0
   20.5288  -10.4301  -16.3778 N   0  0  0  0  0  0  0  0  0  0  0  0
   21.8422   -9.9721  -15.8440 C   0  0  1  0  0  0  0  0  0  0  0  0
   22.8628  -10.7767  -16.5566 C   0  0  0  0  0  0  0  0  0  0  0  0
   24.2506  -10.3865  -16.2768 C   0  0  0  0  0  0  0  0  0  0  0  0
   24.9223  -10.6205  -15.0913 C   0  0  0  0  0  0  0  0  0  0  0  0
   26.1567  -10.1115  -15.2404 N   0  0  0  0  0  0  0  0  0  0  0  0
   26.2630   -9.5837  -16.4531 C   0  0  0  0  0  0  0  0  0  0  0  0
   25.0932   -9.7566  -17.0790 N   0  0  0  0  0  0  0  0  0  0  0  0
   21.8710   -8.5330  -15.9743 C   0  0  0  0  0  0  0  0  0  0  0  0
   21.4096   -8.0081  -17.0498 O   0  0  0  0  0  0  0  0  0  0  0  0
   21.9353   -5.4922  -13.9006 C   0  0  0  0  0  0  0  0  0  0  0  0
   22.3033   -6.2343  -15.1715 C   0  0  2  0  0  0  0  0  0  0  0  0
   22.3755   -7.6476  -14.9797 N   0  0  0  0  0  0  0  0  0  0  0  0
   23.5594   -5.6777  -15.6600 C   0  0  0  0  0  0  0  0  0  0  0  0
   24.6035   -6.4171  -15.5681 O   0  0  0  0  0  0  0  0  0  0  0  0
   23.6937   -4.4212  -16.2083 O   0  0  0  0  0  0  0  0  0  0  0  0
  2  4  1  0
  2  1  1  0
  3  2  2  0
  5  6  1  0
  5  4  1  0
  6  7  1  6
  6  8  1  0
  8  9  2  0
 10  8  1  0
 10 11  1  0
 11 12  1  6
 12 13  1  0
 13 14  2  0
 14 15  1  0
 16 15  1  0
 17 13  1  0
 17 16  2  0
 18 22  1  0
 18 11  1  0
 19 18  2  0
 21 20  1  1
 21 23  1  0
 21 22  1  0
 23 25  1  0
 24 23  2  0
M  END
$$$$
