QHA.pdb
     RDKit          3D

 25 25  0  0  1  0  0  0  0  0999 V2000
   12.5701  -10.8819  -13.6983 N   0  0  0  0  0  0  0  0  0  0  0  0
   12.9227  -10.5281  -15.0305 C   0  0  0  0  0  0  0  0  0  0  0  0
   12.0383  -10.4123  -15.9341 O   0  0  0  0  0  0  0  0  0  0  0  0
   14.3664  -10.3021  -15.3117 C   0  0  0  0  0  0  0  0  0  0  0  0
   15.1177  -10.4091  -14.0037 C   0  0  0  0  0  0  0  0  0  0  0  0
   16.5711  -10.1347  -14.2513 C   0  0  2  0  0  0  0  0  0  0  0  0
   17.2555  -11.3769  -14.5195 N   0  0  0  0  0  0  0  0  0  0  0  0
   17.1739   -9.4557  -13.0655 C   0  0  0  0  0  0  0  0  0  0  0  0
   17.6825  -10.1249  -12.1304 O   0  0  0  0  0  0  0  0  0  0  0  0
   17.1658   -8.0520  -13.0073 N   0  0  0  0  0  0  0  0  0  0  0  0
   17.8056   -7.3250  -11.8752 C   0  0  1  0  0  0  0  0  0  0  0  0
   18.8396   -6.4606  -12.4920 C   0  0  0  0  0  0  0  0  0  0  0  0
   20.0021   -7.1845  -13.0221 C   0  0  0  0  0  0  0  0  0  0  0  0
   20.7532   -8.1106  -12.3223 C   0  0  0  0  0  0  0  0  0  0  0  0
   21.7170   -8.5351  -13.1566 N   0  0  0  0  0  0  0  0  0  0  0  0
   21.5854   -7.9132  -14.3212 C   0  0  0  0  0  0  0  0  0  0  0  0
   20.5347   -7.0899  -14.2294 N   0  0  0  0  0  0  0  0  0  0  0  0
   16.7417   -6.7086  -11.1157 C   0  0  0  0  0  0  0  0  0  0  0  0
   15.8719   -6.0051  -11.7434 O   0  0  0  0  0  0  0  0  0  0  0  0
   15.3442   -6.5833   -7.6085 C   0  0  0  0  0  0  0  0  0  0  0  0
   15.5732   -6.0918   -9.0253 C   0  0  2  0  0  0  0  0  0  0  0  0
   16.5865   -6.8333   -9.7057 N   0  0  0  0  0  0  0  0  0  0  0  0
   15.8829   -4.6687   -8.9545 C   0  0  0  0  0  0  0  0  0  0  0  0
   17.0575   -4.3053   -9.3196 O   0  0  0  0  0  0  0  0  0  0  0  0
   15.0024   -3.7003   -8.5250 O   0  0  0  0  0  0  0  0  0  0  0  0
  2  4  1  0
  2  1  1  0
  3  2  2  0
  5  6  1  0
  5  4  1  0
  6  7  1  1
  6  8  1  0
  8  9  2  0
 10  8  1  0
 10 11  1  0
 11 12  1  6
 12 13  1  0
 13 14  2  0
 14 15  1  0
 16 15  1  0
 17 13  1  0
 17 16  2  0
 18 22  1  0
 18 11  1  0
 19 18  2  0
 21 20  1  1
 21 23  1  0
 21 22  1  0
 23 25  1  0
 24 23  2  0
M  END
$$$$
