TQN.pdb
     RDKit          3D

 25 24  0  0  1  0  0  0  0  0999 V2000
    6.2924  -14.0394   18.2660 C   0  0  0  0  0  0  0  0  0  0  0  0
    7.0255  -14.4024   19.5325 C   0  0  1  0  0  0  0  0  0  0  0  0
    7.9338  -15.4065   19.2360 O   0  0  0  0  0  0  0  0  0  0  0  0
    7.6533  -13.2217   20.2064 C   0  0  2  0  0  0  0  0  0  0  0  0
    8.4913  -12.5126   19.2937 N   0  0  0  0  0  0  0  0  0  0  0  0
    8.3705  -13.5941   21.4617 C   0  0  0  0  0  0  0  0  0  0  0  0
    9.5891  -13.8282   21.3798 O   0  0  0  0  0  0  0  0  0  0  0  0
    6.5253  -11.7914   27.6996 N   0  0  0  0  0  0  0  0  0  0  0  0
    6.0159  -12.3042   26.4827 C   0  0  0  0  0  0  0  0  0  0  0  0
    4.8098  -12.6143   26.3745 O   0  0  0  0  0  0  0  0  0  0  0  0
    6.9129  -12.4800   25.3164 C   0  0  0  0  0  0  0  0  0  0  0  0
    7.2819  -13.9189   25.1510 C   0  0  0  0  0  0  0  0  0  0  0  0
    8.1532  -14.1933   23.9419 C   0  0  2  0  0  0  0  0  0  0  0  0
    7.7080  -13.6819   22.7011 N   0  0  0  0  0  0  0  0  0  0  0  0
    8.6389  -15.5621   23.9712 C   0  0  0  0  0  0  0  0  0  0  0  0
    8.0571  -16.5199   23.3903 O   0  0  0  0  0  0  0  0  0  0  0  0
   12.6982  -19.1488   23.0562 N   0  0  0  0  0  0  0  0  0  0  0  0
   12.5580  -18.3512   24.2107 C   0  0  0  0  0  0  0  0  0  0  0  0
   13.1196  -18.7235   25.2603 O   0  0  0  0  0  0  0  0  0  0  0  0
   11.7713  -17.1217   24.1636 C   0  0  0  0  0  0  0  0  0  0  0  0
   10.3807  -17.2523   24.7137 C   0  0  2  0  0  0  0  0  0  0  0  0
    9.8254  -15.8830   24.6782 N   0  0  0  0  0  0  0  0  0  0  0  0
   10.3463  -17.6431   26.1446 C   0  0  0  0  0  0  0  0  0  0  0  0
   10.1509  -18.8397   26.4867 O   0  0  0  0  0  0  0  0  0  0  0  0
   10.5226  -16.7455   27.2013 O   0  0  0  0  0  0  0  0  0  0  0  0
  2  3  1  0
  2  1  1  6
  4  2  1  0
  4  5  1  6
  6  4  1  0
  6 14  1  0
  7  6  2  0
  9 10  2  0
  9  8  1  0
 11  9  1  0
 12 11  1  0
 13 12  1  1
 13 14  1  0
 15 22  1  0
 15 13  1  0
 16 15  2  0
 18 20  1  0
 18 17  1  0
 19 18  2  0
 21 22  1  0
 21 20  1  1
 23 21  1  0
 24 23  2  0
 25 23  1  0
M  END
$$$$
