TQN.pdb
     RDKit          3D

 25 24  0  0  1  0  0  0  0  0999 V2000
    7.1504  -14.5398   16.4468 C   0  0  0  0  0  0  0  0  0  0  0  0
    7.7953  -14.7303   17.7964 C   0  0  1  0  0  0  0  0  0  0  0  0
    9.0259  -15.3394   17.6075 O   0  0  0  0  0  0  0  0  0  0  0  0
    7.8817  -13.4634   18.5899 C   0  0  2  0  0  0  0  0  0  0  0  0
    8.4628  -12.4214   17.8059 N   0  0  0  0  0  0  0  0  0  0  0  0
    8.5856  -13.6516   19.8930 C   0  0  0  0  0  0  0  0  0  0  0  0
    9.8275  -13.5853   19.8904 O   0  0  0  0  0  0  0  0  0  0  0  0
    6.8005  -13.3590   25.4552 N   0  0  0  0  0  0  0  0  0  0  0  0
    7.5189  -14.5594   25.6701 C   0  0  0  0  0  0  0  0  0  0  0  0
    7.9608  -14.8459   26.8038 O   0  0  0  0  0  0  0  0  0  0  0  0
    7.7564  -15.4953   24.5461 C   0  0  0  0  0  0  0  0  0  0  0  0
    7.2286  -14.9255   23.2691 C   0  0  0  0  0  0  0  0  0  0  0  0
    8.3083  -14.5236   22.2846 C   0  0  2  0  0  0  0  0  0  0  0  0
    7.8858  -13.8961   21.0902 N   0  0  0  0  0  0  0  0  0  0  0  0
    9.3079  -15.5723   22.1776 C   0  0  0  0  0  0  0  0  0  0  0  0
    9.0996  -16.6768   21.6030 O   0  0  0  0  0  0  0  0  0  0  0  0
   12.8641  -14.0041   20.5003 N   0  0  0  0  0  0  0  0  0  0  0  0
   12.8486  -15.3715   20.8446 C   0  0  0  0  0  0  0  0  0  0  0  0
   12.8090  -16.2138   19.9254 O   0  0  0  0  0  0  0  0  0  0  0  0
   12.8784  -15.7768   22.2472 C   0  0  0  0  0  0  0  0  0  0  0  0
   11.6252  -16.4502   22.7263 C   0  0  2  0  0  0  0  0  0  0  0  0
   10.5988  -15.3868   22.7342 N   0  0  0  0  0  0  0  0  0  0  0  0
   11.7060  -16.9156   24.1328 C   0  0  0  0  0  0  0  0  0  0  0  0
   12.5459  -17.7875   24.4814 O   0  0  0  0  0  0  0  0  0  0  0  0
   10.8837  -16.4409   25.1585 O   0  0  0  0  0  0  0  0  0  0  0  0
  2  3  1  0
  2  1  1  6
  4  2  1  0
  4  5  1  6
  6  4  1  0
  6 14  1  0
  7  6  2  0
  9 10  2  0
  9  8  1  0
 11  9  1  0
 12 11  1  0
 13 12  1  6
 13 14  1  0
 15 22  1  0
 15 13  1  0
 16 15  2  0
 18 20  1  0
 18 17  1  0
 19 18  2  0
 21 22  1  0
 21 20  1  1
 23 21  1  0
 24 23  2  0
 25 23  1  0
M  END
$$$$
