TQN.pdb
     RDKit          3D

 25 24  0  0  1  0  0  0  0  0999 V2000
   11.1278  -19.4360   19.6281 C   0  0  0  0  0  0  0  0  0  0  0  0
   11.3594  -19.3198   18.1428 C   0  0  1  0  0  0  0  0  0  0  0  0
   11.0191  -20.5277   17.5544 O   0  0  0  0  0  0  0  0  0  0  0  0
   10.6574  -18.1482   17.5291 C   0  0  2  0  0  0  0  0  0  0  0  0
   10.7060  -18.2267   16.1045 N   0  0  0  0  0  0  0  0  0  0  0  0
   11.1680  -16.8425   18.0422 C   0  0  0  0  0  0  0  0  0  0  0  0
   12.3522  -16.5519   17.7975 O   0  0  0  0  0  0  0  0  0  0  0  0
    7.6448  -11.8273   19.6379 N   0  0  0  0  0  0  0  0  0  0  0  0
    7.7644  -12.5504   18.4270 C   0  0  0  0  0  0  0  0  0  0  0  0
    6.9594  -12.3643   17.4889 O   0  0  0  0  0  0  0  0  0  0  0  0
    8.8523  -13.5420   18.2574 C   0  0  0  0  0  0  0  0  0  0  0  0
    9.6295  -13.6895   19.5256 C   0  0  0  0  0  0  0  0  0  0  0  0
   10.6850  -14.7757   19.4750 C   0  0  2  0  0  0  0  0  0  0  0  0
   10.3534  -15.9602   18.7777 N   0  0  0  0  0  0  0  0  0  0  0  0
   11.3280  -14.9139   20.7703 C   0  0  0  0  0  0  0  0  0  0  0  0
   11.7904  -13.9392   21.4256 O   0  0  0  0  0  0  0  0  0  0  0  0
   11.1265  -18.1721   25.7509 N   0  0  0  0  0  0  0  0  0  0  0  0
   11.9481  -17.8532   24.6501 C   0  0  0  0  0  0  0  0  0  0  0  0
   13.1833  -17.9704   24.7786 O   0  0  0  0  0  0  0  0  0  0  0  0
   11.3534  -17.3983   23.3964 C   0  0  0  0  0  0  0  0  0  0  0  0
   12.1831  -16.4012   22.6407 C   0  0  2  0  0  0  0  0  0  0  0  0
   11.4643  -16.1934   21.3661 N   0  0  0  0  0  0  0  0  0  0  0  0
   13.5169  -16.9197   22.2486 C   0  0  0  0  0  0  0  0  0  0  0  0
   13.7265  -17.3614   21.0875 O   0  0  0  0  0  0  0  0  0  0  0  0
   14.6195  -16.9605   23.1066 O   0  0  0  0  0  0  0  0  0  0  0  0
  2  3  1  0
  2  1  1  1
  4  2  1  0
  4  5  1  6
  6  4  1  0
  6 14  1  0
  7  6  2  0
  9 10  2  0
  9  8  1  0
 11  9  1  0
 12 11  1  0
 13 12  1  1
 13 14  1  0
 15 22  1  0
 15 13  1  0
 16 15  2  0
 18 20  1  0
 18 17  1  0
 19 18  2  0
 21 22  1  0
 21 20  1  1
 23 21  1  0
 24 23  2  0
 25 23  1  0
M  END
$$$$
