TQN.pdb
     RDKit          3D

 25 24  0  0  1  0  0  0  0  0999 V2000
    7.3800  -19.2035   20.2153 C   0  0  0  0  0  0  0  0  0  0  0  0
    7.9418  -18.2974   21.2814 C   0  0  1  0  0  0  0  0  0  0  0  0
    9.0745  -18.8974   21.8087 O   0  0  0  0  0  0  0  0  0  0  0  0
    8.1869  -16.9021   20.7966 C   0  0  2  0  0  0  0  0  0  0  0  0
    9.0005  -16.9163   19.6236 N   0  0  0  0  0  0  0  0  0  0  0  0
    8.7437  -16.0161   21.8615 C   0  0  0  0  0  0  0  0  0  0  0  0
    9.9631  -15.7737   21.8282 O   0  0  0  0  0  0  0  0  0  0  0  0
    5.0573  -13.0091   26.2089 N   0  0  0  0  0  0  0  0  0  0  0  0
    6.3464  -12.4994   26.4949 C   0  0  0  0  0  0  0  0  0  0  0  0
    6.5088  -11.6301   27.3783 O   0  0  0  0  0  0  0  0  0  0  0  0
    7.5248  -12.9943   25.7451 C   0  0  0  0  0  0  0  0  0  0  0  0
    7.1031  -13.9542   24.6799 C   0  0  0  0  0  0  0  0  0  0  0  0
    8.2591  -14.5776   23.9238 C   0  0  2  0  0  0  0  0  0  0  0  0
    7.9336  -15.4667   22.8737 N   0  0  0  0  0  0  0  0  0  0  0  0
    9.3063  -14.9797   24.8469 C   0  0  0  0  0  0  0  0  0  0  0  0
    9.6788  -14.2762   25.8266 O   0  0  0  0  0  0  0  0  0  0  0  0
   12.2033  -17.9580   27.8438 N   0  0  0  0  0  0  0  0  0  0  0  0
   10.8425  -17.6224   27.9998 C   0  0  0  0  0  0  0  0  0  0  0  0
   10.2911  -17.8740   29.0900 O   0  0  0  0  0  0  0  0  0  0  0  0
   10.1095  -16.9958   26.9032 C   0  0  0  0  0  0  0  0  0  0  0  0
   10.9278  -16.7510   25.6686 C   0  0  2  0  0  0  0  0  0  0  0  0
    9.9711  -16.2203   24.6749 N   0  0  0  0  0  0  0  0  0  0  0  0
   11.4636  -17.9933   25.0597 C   0  0  0  0  0  0  0  0  0  0  0  0
   10.7579  -18.6948   24.2870 O   0  0  0  0  0  0  0  0  0  0  0  0
   12.7561  -18.4756   25.2838 O   0  0  0  0  0  0  0  0  0  0  0  0
  2  3  1  0
  2  1  1  6
  4  2  1  0
  4  5  1  6
  6  4  1  0
  6 14  1  0
  7  6  2  0
  9 10  2  0
  9  8  1  0
 11  9  1  0
 12 11  1  0
 13 12  1  1
 13 14  1  0
 15 22  1  0
 15 13  1  0
 16 15  2  0
 18 20  1  0
 18 17  1  0
 19 18  2  0
 21 22  1  0
 21 20  1  1
 23 21  1  0
 24 23  2  0
 25 23  1  0
M  END
$$$$
