TQN.pdb
     RDKit          3D

 25 24  0  0  1  0  0  0  0  0999 V2000
   10.1131  -18.6843   15.9048 C   0  0  0  0  0  0  0  0  0  0  0  0
   10.1660  -17.8241   14.6676 C   0  0  1  0  0  0  0  0  0  0  0  0
    9.4941  -18.4842   13.6507 O   0  0  0  0  0  0  0  0  0  0  0  0
    9.6634  -16.4326   14.8981 C   0  0  2  0  0  0  0  0  0  0  0  0
    9.5636  -15.7261   13.6615 N   0  0  0  0  0  0  0  0  0  0  0  0
   10.4738  -15.6920   15.9098 C   0  0  0  0  0  0  0  0  0  0  0  0
   11.6832  -15.5289   15.6700 O   0  0  0  0  0  0  0  0  0  0  0  0
    7.7265  -13.0342   20.9708 N   0  0  0  0  0  0  0  0  0  0  0  0
    7.6944  -12.5190   19.6528 C   0  0  0  0  0  0  0  0  0  0  0  0
    6.8307  -11.6811   19.3147 O   0  0  0  0  0  0  0  0  0  0  0  0
    8.6910  -12.9706   18.6535 C   0  0  0  0  0  0  0  0  0  0  0  0
    9.6240  -13.9697   19.2581 C   0  0  0  0  0  0  0  0  0  0  0  0
   10.5250  -14.6550   18.2506 C   0  0  2  0  0  0  0  0  0  0  0  0
    9.9069  -15.1898   17.0969 N   0  0  0  0  0  0  0  0  0  0  0  0
   11.5071  -15.4801   18.9327 C   0  0  0  0  0  0  0  0  0  0  0  0
   11.3001  -16.6814   19.2605 O   0  0  0  0  0  0  0  0  0  0  0  0
   15.0448  -16.5347   16.6864 N   0  0  0  0  0  0  0  0  0  0  0  0
   14.7414  -16.8565   18.0255 C   0  0  0  0  0  0  0  0  0  0  0  0
   14.2985  -17.9954   18.2758 O   0  0  0  0  0  0  0  0  0  0  0  0
   14.9460  -15.8703   19.0829 C   0  0  0  0  0  0  0  0  0  0  0  0
   13.7862  -15.7184   20.0238 C   0  0  2  0  0  0  0  0  0  0  0  0
   12.7780  -14.9473   19.2666 N   0  0  0  0  0  0  0  0  0  0  0  0
   14.0948  -14.8838   21.2111 C   0  0  0  0  0  0  0  0  0  0  0  0
   13.6567  -13.7067   21.3094 O   0  0  0  0  0  0  0  0  0  0  0  0
   14.8728  -15.3188   22.2877 O   0  0  0  0  0  0  0  0  0  0  0  0
  2  3  1  0
  2  1  1  1
  4  2  1  0
  4  5  1  6
  6  4  1  0
  6 14  1  0
  7  6  2  0
  9 10  2  0
  9  8  1  0
 11  9  1  0
 12 11  1  0
 13 12  1  1
 13 14  1  0
 15 22  1  0
 15 13  1  0
 16 15  2  0
 18 20  1  0
 18 17  1  0
 19 18  2  0
 21 22  1  0
 21 20  1  6
 23 21  1  0
 24 23  2  0
 25 23  1  0
M  END
$$$$
