TQN.pdb
     RDKit          3D

 25 24  0  0  1  0  0  0  0  0999 V2000
   11.3415  -17.8285   19.6255 C   0  0  0  0  0  0  0  0  0  0  0  0
   10.9430  -17.7071   21.0746 C   0  0  1  0  0  0  0  0  0  0  0  0
   12.0191  -17.1907   21.7791 O   0  0  0  0  0  0  0  0  0  0  0  0
    9.6809  -16.9263   21.2729 C   0  0  2  0  0  0  0  0  0  0  0  0
    9.7744  -15.6541   20.6319 N   0  0  0  0  0  0  0  0  0  0  0  0
    9.3010  -16.8089   22.7120 C   0  0  0  0  0  0  0  0  0  0  0  0
    9.3961  -15.6880   23.2421 O   0  0  0  0  0  0  0  0  0  0  0  0
    6.5118  -21.5929   25.9215 N   0  0  0  0  0  0  0  0  0  0  0  0
    5.9306  -20.8436   24.8707 C   0  0  0  0  0  0  0  0  0  0  0  0
    4.8850  -21.2351   24.3086 O   0  0  0  0  0  0  0  0  0  0  0  0
    6.5597  -19.5789   24.4230 C   0  0  0  0  0  0  0  0  0  0  0  0
    7.7638  -19.2699   25.2528 C   0  0  0  0  0  0  0  0  0  0  0  0
    8.4995  -18.0167   24.8229 C   0  0  2  0  0  0  0  0  0  0  0  0
    8.8500  -17.9155   23.4569 N   0  0  0  0  0  0  0  0  0  0  0  0
    9.5094  -17.6634   25.8057 C   0  0  0  0  0  0  0  0  0  0  0  0
   10.7311  -17.9570   25.6849 O   0  0  0  0  0  0  0  0  0  0  0  0
   10.1545  -14.0740   26.7941 N   0  0  0  0  0  0  0  0  0  0  0  0
    9.5324  -14.1698   28.0561 C   0  0  0  0  0  0  0  0  0  0  0  0
    9.0171  -13.1432   28.5424 O   0  0  0  0  0  0  0  0  0  0  0  0
    9.5001  -15.4462   28.7646 C   0  0  0  0  0  0  0  0  0  0  0  0
   10.1295  -16.5870   28.0189 C   0  0  2  0  0  0  0  0  0  0  0  0
    9.1466  -16.9513   26.9769 N   0  0  0  0  0  0  0  0  0  0  0  0
   10.2894  -17.8123   28.8402 C   0  0  0  0  0  0  0  0  0  0  0  0
    9.3998  -18.7042   28.8565 O   0  0  0  0  0  0  0  0  0  0  0  0
   11.4055  -18.0734   29.6401 O   0  0  0  0  0  0  0  0  0  0  0  0
  2  3  1  0
  2  1  1  6
  4  2  1  0
  4  5  1  1
  6  4  1  0
  6 14  1  0
  7  6  2  0
  9 10  2  0
  9  8  1  0
 11  9  1  0
 12 11  1  0
 13 12  1  1
 13 14  1  0
 15 22  1  0
 15 13  1  0
 16 15  2  0
 18 20  1  0
 18 17  1  0
 19 18  2  0
 21 22  1  0
 21 20  1  1
 23 21  1  0
 24 23  2  0
 25 23  1  0
M  END
$$$$
