TQN.pdb
     RDKit          3D

 25 24  0  0  1  0  0  0  0  0999 V2000
    6.7782  -14.5426   16.6151 C   0  0  0  0  0  0  0  0  0  0  0  0
    7.6344  -14.7710   17.8350 C   0  0  1  0  0  0  0  0  0  0  0  0
    8.8899  -15.1804   17.4139 O   0  0  0  0  0  0  0  0  0  0  0  0
    7.6783  -13.5875   18.7513 C   0  0  2  0  0  0  0  0  0  0  0  0
    7.9832  -12.4002   18.0197 N   0  0  0  0  0  0  0  0  0  0  0  0
    8.6004  -13.7931   19.9073 C   0  0  0  0  0  0  0  0  0  0  0  0
    9.8006  -13.5121   19.7424 O   0  0  0  0  0  0  0  0  0  0  0  0
    6.6458  -16.7034   25.2960 N   0  0  0  0  0  0  0  0  0  0  0  0
    8.0367  -16.5707   25.5221 C   0  0  0  0  0  0  0  0  0  0  0  0
    8.5583  -17.0054   26.5716 O   0  0  0  0  0  0  0  0  0  0  0  0
    8.8947  -15.9105   24.5104 C   0  0  0  0  0  0  0  0  0  0  0  0
    8.0615  -15.3380   23.4095 C   0  0  0  0  0  0  0  0  0  0  0  0
    8.8696  -14.7890   22.2510 C   0  0  2  0  0  0  0  0  0  0  0  0
    8.1458  -14.2860   21.1455 N   0  0  0  0  0  0  0  0  0  0  0  0
   10.0061  -15.6513   21.9763 C   0  0  0  0  0  0  0  0  0  0  0  0
    9.9230  -16.7230   21.3144 O   0  0  0  0  0  0  0  0  0  0  0  0
   15.5237  -14.7663   20.1425 N   0  0  0  0  0  0  0  0  0  0  0  0
   14.6234  -15.5996   20.8380 C   0  0  0  0  0  0  0  0  0  0  0  0
   14.9407  -16.7917   21.0225 O   0  0  0  0  0  0  0  0  0  0  0  0
   13.3541  -15.0661   21.3244 C   0  0  0  0  0  0  0  0  0  0  0  0
   12.5097  -16.0563   22.0729 C   0  0  2  0  0  0  0  0  0  0  0  0
   11.2946  -15.3084   22.4585 N   0  0  0  0  0  0  0  0  0  0  0  0
   13.1127  -16.4958   23.3554 C   0  0  0  0  0  0  0  0  0  0  0  0
   12.7337  -16.0066   24.4528 O   0  0  0  0  0  0  0  0  0  0  0  0
   14.1201  -17.4597   23.4523 O   0  0  0  0  0  0  0  0  0  0  0  0
  2  3  1  0
  2  1  1  6
  4  2  1  0
  4  5  1  6
  6  4  1  0
  6 14  1  0
  7  6  2  0
  9 10  2  0
  9  8  1  0
 11  9  1  0
 12 11  1  0
 13 12  1  1
 13 14  1  0
 15 22  1  0
 15 13  1  0
 16 15  2  0
 18 20  1  0
 18 17  1  0
 19 18  2  0
 21 22  1  0
 21 20  1  1
 23 21  1  0
 24 23  2  0
 25 23  1  0
M  END
$$$$
