KAA.pdb
     RDKit          3D

 20 19  0  0  1  0  0  0  0  0999 V2000
    7.0909  -18.8304   19.9998 N   0  0  0  0  0  0  0  0  0  0  0  0
    6.4791  -17.7837   20.7912 C   0  0  1  0  0  0  0  0  0  0  0  0
    5.9315  -18.4372   22.0423 C   0  0  0  0  0  0  0  0  0  0  0  0
    4.9498  -19.4963   21.5881 C   0  0  0  0  0  0  0  0  0  0  0  0
    3.5173  -19.1110   21.7944 C   0  0  0  0  0  0  0  0  0  0  0  0
    2.5722  -20.2068   21.3539 C   0  0  0  0  0  0  0  0  0  0  0  0
    1.2224  -19.7207   21.6038 N   0  0  0  0  0  0  0  0  0  0  0  0
    7.4557  -16.7383   21.0617 C   0  0  0  0  0  0  0  0  0  0  0  0
    8.6288  -17.0566   21.3759 O   0  0  0  0  0  0  0  0  0  0  0  0
    7.6943  -12.9603   20.8690 C   0  0  0  0  0  0  0  0  0  0  0  0
    8.1899  -14.3492   21.2261 C   0  0  2  0  0  0  0  0  0  0  0  0
    7.1718  -15.3468   20.9946 N   0  0  0  0  0  0  0  0  0  0  0  0
    8.5379  -14.3395   22.6758 C   0  0  0  0  0  0  0  0  0  0  0  0
    9.5001  -13.6355   23.0798 O   0  0  0  0  0  0  0  0  0  0  0  0
    6.8653  -15.1261   25.7938 C   0  0  0  0  0  0  0  0  0  0  0  0
    8.1564  -15.2489   24.9979 C   0  0  2  0  0  0  0  0  0  0  0  0
    7.7964  -15.1145   23.6017 N   0  0  0  0  0  0  0  0  0  0  0  0
    8.7859  -16.5745   25.2017 C   0  0  0  0  0  0  0  0  0  0  0  0
    8.9705  -17.4338   24.1388 O   0  0  0  0  0  0  0  0  0  0  0  0
    9.1658  -16.9452   26.3489 O   0  0  0  0  0  0  0  0  0  0  0  0
  2  1  1  6
  3  2  1  0
  4  3  1  0
  4  5  1  0
  6  7  1  0
  6  5  1  0
  8  2  1  0
  8  9  2  0
 11 10  1  1
 12 11  1  0
 12  8  1  0
 13 11  1  0
 14 13  2  0
 16 15  1  1
 16 17  1  0
 17 13  1  0
 18 16  1  0
 18 19  1  0
 20 18  2  0
M  END
$$$$
