KAA.pdb
     RDKit          3D

 20 19  0  0  1  0  0  0  0  0999 V2000
    8.3094  -14.6517   20.6550 N   0  0  0  0  0  0  0  0  0  0  0  0
    7.5284  -15.2413   21.7221 C   0  0  1  0  0  0  0  0  0  0  0  0
    7.8193  -16.7270   21.7150 C   0  0  0  0  0  0  0  0  0  0  0  0
    7.1881  -17.2898   20.4594 C   0  0  0  0  0  0  0  0  0  0  0  0
    7.3268  -18.7759   20.3354 C   0  0  0  0  0  0  0  0  0  0  0  0
    6.8075  -19.2792   19.0070 C   0  0  0  0  0  0  0  0  0  0  0  0
    6.9986  -20.7229   19.0028 N   0  0  0  0  0  0  0  0  0  0  0  0
    7.8526  -14.5918   22.9842 C   0  0  0  0  0  0  0  0  0  0  0  0
    9.0544  -14.3764   23.2761 O   0  0  0  0  0  0  0  0  0  0  0  0
    6.0799  -12.7474   25.7548 C   0  0  0  0  0  0  0  0  0  0  0  0
    7.2558  -13.4966   25.1564 C   0  0  2  0  0  0  0  0  0  0  0  0
    6.8831  -14.1723   23.9357 N   0  0  0  0  0  0  0  0  0  0  0  0
    7.6943  -14.5111   26.1571 C   0  0  0  0  0  0  0  0  0  0  0  0
    8.0626  -14.1373   27.3013 O   0  0  0  0  0  0  0  0  0  0  0  0
    7.5197  -18.2395   26.1802 C   0  0  0  0  0  0  0  0  0  0  0  0
    8.0095  -16.9333   26.7880 C   0  0  2  0  0  0  0  0  0  0  0  0
    7.7002  -15.8902   25.8323 N   0  0  0  0  0  0  0  0  0  0  0  0
    9.4748  -16.9611   27.0049 C   0  0  0  0  0  0  0  0  0  0  0  0
   10.0219  -17.7489   27.9960 O   0  0  0  0  0  0  0  0  0  0  0  0
   10.2520  -16.2667   26.2897 O   0  0  0  0  0  0  0  0  0  0  0  0
  2  1  1  6
  3  2  1  0
  4  3  1  0
  4  5  1  0
  6  7  1  0
  6  5  1  0
  8  2  1  0
  8  9  2  0
 11 10  1  1
 12 11  1  0
 12  8  1  0
 13 11  1  0
 14 13  2  0
 16 15  1  6
 16 17  1  0
 17 13  1  0
 18 16  1  0
 18 19  1  0
 20 18  2  0
M  END
$$$$
