KAA.pdb
     RDKit          3D

 20 19  0  0  1  0  0  0  0  0999 V2000
    6.9846  -15.7213   20.1809 N   0  0  0  0  0  0  0  0  0  0  0  0
    7.8113  -14.6804   20.7547 C   0  0  1  0  0  0  0  0  0  0  0  0
    7.3465  -13.3677   20.1604 C   0  0  0  0  0  0  0  0  0  0  0  0
    6.9468  -13.6537   18.7285 C   0  0  0  0  0  0  0  0  0  0  0  0
    8.0578  -13.4474   17.7456 C   0  0  0  0  0  0  0  0  0  0  0  0
    7.5895  -13.6407   16.3204 C   0  0  0  0  0  0  0  0  0  0  0  0
    8.7589  -13.4717   15.4691 N   0  0  0  0  0  0  0  0  0  0  0  0
    7.7196  -14.7254   22.2071 C   0  0  0  0  0  0  0  0  0  0  0  0
    7.2445  -13.7418   22.8258 O   0  0  0  0  0  0  0  0  0  0  0  0
    7.2626  -16.6905   25.1129 C   0  0  0  0  0  0  0  0  0  0  0  0
    8.2370  -15.7449   24.4357 C   0  0  2  0  0  0  0  0  0  0  0  0
    8.1394  -15.8301   22.9974 N   0  0  0  0  0  0  0  0  0  0  0  0
    9.6110  -16.1465   24.8526 C   0  0  0  0  0  0  0  0  0  0  0  0
    9.8589  -16.3425   26.0711 O   0  0  0  0  0  0  0  0  0  0  0  0
   12.0364  -18.2076   24.2304 C   0  0  0  0  0  0  0  0  0  0  0  0
   11.9953  -16.6865   24.2297 C   0  0  2  0  0  0  0  0  0  0  0  0
   10.6388  -16.3092   23.8910 N   0  0  0  0  0  0  0  0  0  0  0  0
   12.9136  -16.1276   23.2103 C   0  0  0  0  0  0  0  0  0  0  0  0
   14.2764  -16.1216   23.4224 O   0  0  0  0  0  0  0  0  0  0  0  0
   12.4703  -15.6461   22.1289 O   0  0  0  0  0  0  0  0  0  0  0  0
  2  1  1  6
  3  2  1  0
  4  3  1  0
  4  5  1  0
  6  7  1  0
  6  5  1  0
  8  2  1  0
  8  9  2  0
 11 10  1  1
 12 11  1  0
 12  8  1  0
 13 11  1  0
 14 13  2  0
 16 15  1  6
 16 17  1  0
 17 13  1  0
 18 16  1  0
 18 19  1  0
 20 18  2  0
M  END
$$$$
