KAA.pdb
     RDKit          3D

 20 19  0  0  1  0  0  0  0  0999 V2000
    5.7185  -17.0522   21.8887 N   0  0  0  0  0  0  0  0  0  0  0  0
    6.9533  -16.5946   22.4906 C   0  0  1  0  0  0  0  0  0  0  0  0
    7.0962  -15.1271   22.1466 C   0  0  0  0  0  0  0  0  0  0  0  0
    7.4703  -15.0562   20.6814 C   0  0  0  0  0  0  0  0  0  0  0  0
    7.6395  -13.6570   20.1750 C   0  0  0  0  0  0  0  0  0  0  0  0
    7.9555  -13.6296   18.6960 C   0  0  0  0  0  0  0  0  0  0  0  0
    7.9358  -12.2313   18.2897 N   0  0  0  0  0  0  0  0  0  0  0  0
    6.9276  -16.8558   23.9226 C   0  0  0  0  0  0  0  0  0  0  0  0
    5.8310  -16.8372   24.5334 O   0  0  0  0  0  0  0  0  0  0  0  0
    9.1348  -18.3081   26.5746 C   0  0  0  0  0  0  0  0  0  0  0  0
    8.0006  -17.4099   26.1171 C   0  0  2  0  0  0  0  0  0  0  0  0
    8.0833  -17.1379   24.7013 N   0  0  0  0  0  0  0  0  0  0  0  0
    8.1194  -16.1255   26.8649 C   0  0  0  0  0  0  0  0  0  0  0  0
    8.6363  -16.1196   28.0127 O   0  0  0  0  0  0  0  0  0  0  0  0
    8.8336  -12.8434   26.3471 C   0  0  0  0  0  0  0  0  0  0  0  0
    7.7044  -13.6399   26.9842 C   0  0  2  0  0  0  0  0  0  0  0  0
    7.6564  -14.9132   26.2961 N   0  0  0  0  0  0  0  0  0  0  0  0
    6.4025  -12.9549   26.8094 C   0  0  0  0  0  0  0  0  0  0  0  0
    5.4405  -13.4806   25.9724 O   0  0  0  0  0  0  0  0  0  0  0  0
    6.1459  -11.8787   27.4207 O   0  0  0  0  0  0  0  0  0  0  0  0
  2  1  1  6
  3  2  1  0
  4  3  1  0
  4  5  1  0
  6  7  1  0
  6  5  1  0
  8  2  1  0
  8  9  2  0
 11 10  1  1
 12 11  1  0
 12  8  1  0
 13 11  1  0
 14 13  2  0
 16 15  1  6
 16 17  1  0
 17 13  1  0
 18 16  1  0
 18 19  1  0
 20 18  2  0
M  END
$$$$
