KAA.pdb
     RDKit          3D

 20 19  0  0  1  0  0  0  0  0999 V2000
    5.9442  -15.6908   21.1957 N   0  0  0  0  0  0  0  0  0  0  0  0
    7.2675  -15.2490   21.5832 C   0  0  1  0  0  0  0  0  0  0  0  0
    7.2696  -13.7369   21.5067 C   0  0  0  0  0  0  0  0  0  0  0  0
    7.2046  -13.3737   20.0386 C   0  0  0  0  0  0  0  0  0  0  0  0
    8.4989  -13.5808   19.3140 C   0  0  0  0  0  0  0  0  0  0  0  0
    8.4170  -13.1203   17.8756 C   0  0  0  0  0  0  0  0  0  0  0  0
    9.6997  -13.4345   17.2619 N   0  0  0  0  0  0  0  0  0  0  0  0
    7.5892  -15.7643   22.9063 C   0  0  0  0  0  0  0  0  0  0  0  0
    6.7596  -15.6301   23.8389 O   0  0  0  0  0  0  0  0  0  0  0  0
   10.2763  -17.8396   24.5789 C   0  0  0  0  0  0  0  0  0  0  0  0
    9.0834  -16.9021   24.5636 C   0  0  2  0  0  0  0  0  0  0  0  0
    8.8057  -16.4257   23.2289 N   0  0  0  0  0  0  0  0  0  0  0  0
    9.4195  -15.7385   25.4331 C   0  0  0  0  0  0  0  0  0  0  0  0
    9.4825  -14.5854   24.9321 O   0  0  0  0  0  0  0  0  0  0  0  0
    8.5648  -14.0594   27.8156 C   0  0  0  0  0  0  0  0  0  0  0  0
    9.8793  -14.8219   27.7381 C   0  0  2  0  0  0  0  0  0  0  0  0
    9.6682  -15.9186   26.8164 N   0  0  0  0  0  0  0  0  0  0  0  0
   10.2543  -15.3762   29.0598 C   0  0  0  0  0  0  0  0  0  0  0  0
   10.8055  -14.5649   30.0295 O   0  0  0  0  0  0  0  0  0  0  0  0
   10.0782  -16.5992   29.3265 O   0  0  0  0  0  0  0  0  0  0  0  0
  2  1  1  1
  3  2  1  0
  4  3  1  0
  4  5  1  0
  6  7  1  0
  6  5  1  0
  8  2  1  0
  8  9  2  0
 11 10  1  6
 12 11  1  0
 12  8  1  0
 13 11  1  0
 14 13  2  0
 16 15  1  1
 16 17  1  0
 17 13  1  0
 18 16  1  0
 18 19  1  0
 20 18  2  0
M  END
$$$$
