KAA.pdb
     RDKit          3D

 20 19  0  0  1  0  0  0  0  0999 V2000
    6.8547  -16.1909   19.6998 N   0  0  0  0  0  0  0  0  0  0  0  0
    7.6429  -15.3025   20.5279 C   0  0  1  0  0  0  0  0  0  0  0  0
    7.2608  -13.8876   20.1477 C   0  0  0  0  0  0  0  0  0  0  0  0
    8.2167  -13.4552   19.0564 C   0  0  0  0  0  0  0  0  0  0  0  0
    7.7182  -13.7483   17.6749 C   0  0  0  0  0  0  0  0  0  0  0  0
    8.6778  -13.2540   16.6153 C   0  0  0  0  0  0  0  0  0  0  0  0
    8.1165  -13.6419   15.3287 N   0  0  0  0  0  0  0  0  0  0  0  0
    7.4138  -15.6086   21.9327 C   0  0  0  0  0  0  0  0  0  0  0  0
    6.2382  -15.7543   22.3484 O   0  0  0  0  0  0  0  0  0  0  0  0
    8.8505  -17.3755   24.6860 C   0  0  0  0  0  0  0  0  0  0  0  0
    8.1698  -16.0839   24.2729 C   0  0  2  0  0  0  0  0  0  0  0  0
    8.4504  -15.7589   22.8941 N   0  0  0  0  0  0  0  0  0  0  0  0
    8.7048  -14.9992   25.1447 C   0  0  0  0  0  0  0  0  0  0  0  0
    9.9367  -14.7405   25.1305 O   0  0  0  0  0  0  0  0  0  0  0  0
    7.1000  -12.4396   27.3363 C   0  0  0  0  0  0  0  0  0  0  0  0
    8.3082  -13.2784   26.9465 C   0  0  2  0  0  0  0  0  0  0  0  0
    7.8405  -14.2579   25.9880 N   0  0  0  0  0  0  0  0  0  0  0  0
    8.8663  -13.9896   28.1203 C   0  0  0  0  0  0  0  0  0  0  0  0
    8.6544  -15.3423   28.2862 O   0  0  0  0  0  0  0  0  0  0  0  0
    9.5456  -13.3751   28.9913 O   0  0  0  0  0  0  0  0  0  0  0  0
  2  1  1  6
  3  2  1  0
  4  3  1  0
  4  5  1  0
  6  7  1  0
  6  5  1  0
  8  2  1  0
  8  9  2  0
 11 10  1  1
 12 11  1  0
 12  8  1  0
 13 11  1  0
 14 13  2  0
 16 15  1  1
 16 17  1  0
 17 13  1  0
 18 16  1  0
 18 19  1  0
 20 18  2  0
M  END
$$$$
