FPL.pdb
     RDKit          3D

 27 28  0  0  1  0  0  0  0  0999 V2000
   17.7149  -10.8784  -15.5020 N   0  0  0  0  0  0  0  0  0  0  0  0
   18.5929   -9.9374  -16.1852 C   0  0  1  0  0  0  0  0  0  0  0  0
   18.0147   -9.7952  -17.5807 C   0  0  0  0  0  0  0  0  0  0  0  0
   18.1887  -11.1019  -18.2532 C   0  0  0  0  0  0  0  0  0  0  0  0
   17.1752  -12.0286  -18.3559 C   0  0  0  0  0  0  0  0  0  0  0  0
   17.3963  -13.2441  -19.0009 C   0  0  0  0  0  0  0  0  0  0  0  0
   18.6182  -13.5433  -19.5440 C   0  0  0  0  0  0  0  0  0  0  0  0
   19.6324  -12.6293  -19.4475 C   0  0  0  0  0  0  0  0  0  0  0  0
   19.4041  -11.4308  -18.8081 C   0  0  0  0  0  0  0  0  0  0  0  0
   18.6157   -8.5990  -15.4855 C   0  0  0  0  0  0  0  0  0  0  0  0
   17.4527   -8.1271  -15.3010 O   0  0  0  0  0  0  0  0  0  0  0  0
   19.8151   -7.9862  -15.1019 N   0  0  0  0  0  0  0  0  0  0  0  0
   20.8365   -8.7217  -14.3109 C   0  0  0  0  0  0  0  0  0  0  0  0
   22.0367   -8.4874  -15.1930 C   0  0  0  0  0  0  0  0  0  0  0  0
   21.7628   -7.1594  -15.9128 C   0  0  0  0  0  0  0  0  0  0  0  0
   20.4543   -6.7322  -15.2536 C   0  0  1  0  0  0  0  0  0  0  0  0
   19.7899   -5.6562  -15.9353 C   0  0  0  0  0  0  0  0  0  0  0  0
   18.9697   -5.8228  -16.8488 O   0  0  0  0  0  0  0  0  0  0  0  0
   15.8260   -2.8171  -17.3331 C   0  0  0  0  0  0  0  0  0  0  0  0
   17.1933   -2.3164  -16.9256 C   0  0  1  0  0  0  0  0  0  0  0  0
   16.9356   -1.1791  -15.9232 C   0  0  0  0  0  0  0  0  0  0  0  0
   18.0001   -3.3392  -16.2055 C   0  0  0  0  0  0  0  0  0  0  0  0
   19.4806   -3.1769  -16.2737 C   0  0  2  0  0  0  0  0  0  0  0  0
   20.0677   -4.3154  -15.5636 N   0  0  0  0  0  0  0  0  0  0  0  0
   19.9445   -1.8976  -15.7135 C   0  0  0  0  0  0  0  0  0  0  0  0
   20.1114   -0.8080  -16.5354 O   0  0  0  0  0  0  0  0  0  0  0  0
   20.1863   -1.7983  -14.4996 O   0  0  0  0  0  0  0  0  0  0  0  0
  2  1  1  1
  3  2  1  0
  3  4  1  0
  4  9  1  0
  5  4  2  0
  5  6  1  0
  6  7  2  0
  7  8  1  0
  9  8  2  0
 10 11  2  0
 10  2  1  0
 12 10  1  0
 13 12  1  0
 14 13  1  0
 15 14  1  0
 15 16  1  0
 16 12  1  0
 16 17  1  6
 18 17  2  0
 20 19  1  1
 20 21  1  0
 22 20  1  0
 23 22  1  1
 23 24  1  0
 24 17  1  0
 25 23  1  0
 26 25  1  0
 27 25  2  0
M  END
$$$$
