FPL.pdb
     RDKit          3D

 27 28  0  0  1  0  0  0  0  0999 V2000
   24.6728  -22.2804  -13.8039 N   0  0  0  0  0  0  0  0  0  0  0  0
   25.6928  -21.3394  -13.3599 C   0  0  1  0  0  0  0  0  0  0  0  0
   24.9577  -20.0306  -13.1397 C   0  0  0  0  0  0  0  0  0  0  0  0
   23.8487  -20.3131  -12.2015 C   0  0  0  0  0  0  0  0  0  0  0  0
   22.6008  -20.7165  -12.6216 C   0  0  0  0  0  0  0  0  0  0  0  0
   21.5933  -20.9687  -11.6923 C   0  0  0  0  0  0  0  0  0  0  0  0
   21.8191  -20.8224  -10.3488 C   0  0  0  0  0  0  0  0  0  0  0  0
   23.0558  -20.4220   -9.9205 C   0  0  0  0  0  0  0  0  0  0  0  0
   24.0450  -20.1751  -10.8466 C   0  0  0  0  0  0  0  0  0  0  0  0
   26.3448  -21.7996  -12.0776 C   0  0  0  0  0  0  0  0  0  0  0  0
   25.5377  -22.4130  -11.3148 O   0  0  0  0  0  0  0  0  0  0  0  0
   27.6962  -21.5525  -11.8057 N   0  0  0  0  0  0  0  0  0  0  0  0
   28.7386  -21.7459  -12.8477 C   0  0  0  0  0  0  0  0  0  0  0  0
   29.3986  -20.3918  -12.7802 C   0  0  0  0  0  0  0  0  0  0  0  0
   29.1742  -19.8980  -11.3441 C   0  0  0  0  0  0  0  0  0  0  0  0
   28.4900  -21.1110  -10.7198 C   0  0  1  0  0  0  0  0  0  0  0  0
   27.8883  -20.8401   -9.4436 C   0  0  0  0  0  0  0  0  0  0  0  0
   26.8261  -20.2184   -9.3018 O   0  0  0  0  0  0  0  0  0  0  0  0
   28.0879  -21.2450   -3.7983 C   0  0  0  0  0  0  0  0  0  0  0  0
   29.1880  -20.6213   -4.6272 C   0  0  1  0  0  0  0  0  0  0  0  0
   30.5023  -21.0079   -3.9288 C   0  0  0  0  0  0  0  0  0  0  0  0
   29.2651  -21.1732   -6.0074 C   0  0  0  0  0  0  0  0  0  0  0  0
   28.1737  -20.7694   -6.9394 C   0  0  2  0  0  0  0  0  0  0  0  0
   28.5231  -21.2978   -8.2600 N   0  0  0  0  0  0  0  0  0  0  0  0
   27.9642  -19.3134   -6.9820 C   0  0  0  0  0  0  0  0  0  0  0  0
   28.8625  -18.5092   -7.6430 O   0  0  0  0  0  0  0  0  0  0  0  0
   26.9779  -18.8076   -6.4225 O   0  0  0  0  0  0  0  0  0  0  0  0
  2  1  1  1
  3  2  1  0
  3  4  1  0
  4  9  1  0
  5  4  2  0
  5  6  1  0
  6  7  2  0
  7  8  1  0
  9  8  2  0
 10 11  2  0
 10  2  1  0
 12 10  1  0
 13 12  1  0
 14 13  1  0
 15 14  1  0
 15 16  1  0
 16 12  1  0
 16 17  1  1
 18 17  2  0
 20 19  1  1
 20 21  1  0
 22 20  1  0
 23 22  1  1
 23 24  1  0
 24 17  1  0
 25 23  1  0
 26 25  1  0
 27 25  2  0
M  END
$$$$
