FPL.pdb
     RDKit          3D

 27 28  0  0  1  0  0  0  0  0999 V2000
   20.4892  -18.1305  -20.4444 N   0  0  0  0  0  0  0  0  0  0  0  0
   19.6921  -17.5545  -19.3694 C   0  0  1  0  0  0  0  0  0  0  0  0
   18.5034  -16.9096  -20.0572 C   0  0  0  0  0  0  0  0  0  0  0  0
   19.0338  -15.8029  -20.8841 C   0  0  0  0  0  0  0  0  0  0  0  0
   19.3167  -14.5571  -20.3700 C   0  0  0  0  0  0  0  0  0  0  0  0
   19.8149  -13.5516  -21.1965 C   0  0  0  0  0  0  0  0  0  0  0  0
   20.0333  -13.7774  -22.5302 C   0  0  0  0  0  0  0  0  0  0  0  0
   19.7554  -15.0120  -23.0515 C   0  0  0  0  0  0  0  0  0  0  0  0
   19.2633  -15.9992  -22.2265 C   0  0  0  0  0  0  0  0  0  0  0  0
   19.2278  -18.6153  -18.3997 C   0  0  0  0  0  0  0  0  0  0  0  0
   18.3983  -19.4211  -18.9212 O   0  0  0  0  0  0  0  0  0  0  0  0
   19.6913  -18.6630  -17.0790 N   0  0  0  0  0  0  0  0  0  0  0  0
   21.1183  -18.4020  -16.7544 C   0  0  0  0  0  0  0  0  0  0  0  0
   20.9341  -17.3316  -15.7086 C   0  0  0  0  0  0  0  0  0  0  0  0
   19.5616  -17.6067  -15.0784 C   0  0  0  0  0  0  0  0  0  0  0  0
   19.1676  -18.9006  -15.7854 C   0  0  1  0  0  0  0  0  0  0  0  0
   17.7852  -19.2527  -15.6151 C   0  0  0  0  0  0  0  0  0  0  0  0
   16.8451  -18.5944  -16.0818 O   0  0  0  0  0  0  0  0  0  0  0  0
   16.1271  -24.5467  -15.4133 C   0  0  0  0  0  0  0  0  0  0  0  0
   16.1225  -23.0560  -15.6666 C   0  0  1  0  0  0  0  0  0  0  0  0
   14.8481  -22.7787  -16.4813 C   0  0  0  0  0  0  0  0  0  0  0  0
   16.0101  -22.2511  -14.4196 C   0  0  0  0  0  0  0  0  0  0  0  0
   16.0544  -20.7702  -14.5862 C   0  0  2  0  0  0  0  0  0  0  0  0
   17.4455  -20.4148  -14.8754 N   0  0  0  0  0  0  0  0  0  0  0  0
   15.5483  -20.0445  -13.4102 C   0  0  0  0  0  0  0  0  0  0  0  0
   14.1990  -20.0195  -13.1467 O   0  0  0  0  0  0  0  0  0  0  0  0
   16.3363  -19.4539  -12.6539 O   0  0  0  0  0  0  0  0  0  0  0  0
  2  1  1  6
  3  2  1  0
  3  4  1  0
  4  9  1  0
  5  4  2  0
  5  6  1  0
  6  7  2  0
  7  8  1  0
  9  8  2  0
 10 11  2  0
 10  2  1  0
 12 10  1  0
 13 12  1  0
 14 13  1  0
 15 14  1  0
 15 16  1  0
 16 12  1  0
 16 17  1  6
 18 17  2  0
 20 19  1  1
 20 21  1  0
 22 20  1  0
 23 22  1  1
 23 24  1  0
 24 17  1  0
 25 23  1  0
 26 25  1  0
 27 25  2  0
M  END
$$$$
