FPL.pdb
     RDKit          3D

 27 28  0  0  1  0  0  0  0  0999 V2000
   25.4858  -19.8506   -7.8360 N   0  0  0  0  0  0  0  0  0  0  0  0
   26.6507  -19.9899   -8.7000 C   0  0  1  0  0  0  0  0  0  0  0  0
   27.5066  -21.0576   -8.0447 C   0  0  0  0  0  0  0  0  0  0  0  0
   28.0125  -20.4848   -6.7774 C   0  0  0  0  0  0  0  0  0  0  0  0
   29.0048  -19.5310   -6.7337 C   0  0  0  0  0  0  0  0  0  0  0  0
   29.4423  -19.0268   -5.5102 C   0  0  0  0  0  0  0  0  0  0  0  0
   28.8994  -19.4650   -4.3310 C   0  0  0  0  0  0  0  0  0  0  0  0
   27.9125  -20.4128   -4.3631 C   0  0  0  0  0  0  0  0  0  0  0  0
   27.4869  -20.9050   -5.5772 C   0  0  0  0  0  0  0  0  0  0  0  0
   26.2539  -20.4150  -10.0940 C   0  0  0  0  0  0  0  0  0  0  0  0
   25.2042  -21.1273  -10.1046 O   0  0  0  0  0  0  0  0  0  0  0  0
   26.9958  -20.0387  -11.2205 N   0  0  0  0  0  0  0  0  0  0  0  0
   28.1492  -19.1078  -11.1066 C   0  0  0  0  0  0  0  0  0  0  0  0
   29.1984  -19.9406  -11.7989 C   0  0  0  0  0  0  0  0  0  0  0  0
   28.4297  -20.8286  -12.7874 C   0  0  0  0  0  0  0  0  0  0  0  0
   27.0081  -20.3019  -12.6115 C   0  0  1  0  0  0  0  0  0  0  0  0
   26.0043  -21.1446  -13.1998 C   0  0  0  0  0  0  0  0  0  0  0  0
   25.8580  -22.3417  -12.9159 O   0  0  0  0  0  0  0  0  0  0  0  0
   20.7837  -20.7329  -13.7276 C   0  0  0  0  0  0  0  0  0  0  0  0
   22.1385  -20.5886  -13.0718 C   0  0  1  0  0  0  0  0  0  0  0  0
   21.8903  -20.7705  -11.5651 C   0  0  0  0  0  0  0  0  0  0  0  0
   23.0990  -21.6525  -13.4730 C   0  0  0  0  0  0  0  0  0  0  0  0
   23.9562  -21.3532  -14.6556 C   0  0  2  0  0  0  0  0  0  0  0  0
   25.1147  -20.6041  -14.1641 N   0  0  0  0  0  0  0  0  0  0  0  0
   23.2440  -20.6110  -15.7080 C   0  0  0  0  0  0  0  0  0  0  0  0
   23.5124  -19.2777  -15.9098 O   0  0  0  0  0  0  0  0  0  0  0  0
   22.4004  -21.1851  -16.4154 O   0  0  0  0  0  0  0  0  0  0  0  0
  2  1  1  1
  3  2  1  0
  3  4  1  0
  4  9  1  0
  5  4  2  0
  5  6  1  0
  6  7  2  0
  7  8  1  0
  9  8  2  0
 10 11  2  0
 10  2  1  0
 12 10  1  0
 13 12  1  0
 14 13  1  0
 15 14  1  0
 15 16  1  0
 16 12  1  0
 16 17  1  1
 18 17  2  0
 20 19  1  6
 20 21  1  0
 22 20  1  0
 23 22  1  1
 23 24  1  0
 24 17  1  0
 25 23  1  0
 26 25  1  0
 27 25  2  0
M  END
$$$$
