FPL.pdb
     RDKit          3D

 27 28  0  0  1  0  0  0  0  0999 V2000
   26.7006  -18.5002   -7.9000 N   0  0  0  0  0  0  0  0  0  0  0  0
   27.2619  -19.7019   -8.5033 C   0  0  1  0  0  0  0  0  0  0  0  0
   27.0366  -20.8018   -7.4829 C   0  0  0  0  0  0  0  0  0  0  0  0
   27.8522  -20.4606   -6.2961 C   0  0  0  0  0  0  0  0  0  0  0  0
   29.2265  -20.5471   -6.2857 C   0  0  0  0  0  0  0  0  0  0  0  0
   29.9437  -20.2126   -5.1385 C   0  0  0  0  0  0  0  0  0  0  0  0
   29.3029  -19.7929   -4.0024 C   0  0  0  0  0  0  0  0  0  0  0  0
   27.9372  -19.7034   -4.0019 C   0  0  0  0  0  0  0  0  0  0  0  0
   27.2372  -20.0362   -5.1406 C   0  0  0  0  0  0  0  0  0  0  0  0
   26.5704  -20.0393   -9.8030 C   0  0  0  0  0  0  0  0  0  0  0  0
   25.3153  -20.1652   -9.6673 O   0  0  0  0  0  0  0  0  0  0  0  0
   27.2803  -20.1868  -11.0011 N   0  0  0  0  0  0  0  0  0  0  0  0
   28.7075  -19.7843  -11.1045 C   0  0  0  0  0  0  0  0  0  0  0  0
   29.2802  -21.0698  -11.6459 C   0  0  0  0  0  0  0  0  0  0  0  0
   28.1328  -21.7359  -12.4183 C   0  0  0  0  0  0  0  0  0  0  0  0
   27.0481  -20.6676  -12.3123 C   0  0  1  0  0  0  0  0  0  0  0  0
   25.7433  -21.1310  -12.6952 C   0  0  0  0  0  0  0  0  0  0  0  0
   25.2911  -22.2433  -12.3899 O   0  0  0  0  0  0  0  0  0  0  0  0
   20.4283  -19.7542  -13.1673 C   0  0  0  0  0  0  0  0  0  0  0  0
   21.3319  -19.5247  -14.3577 C   0  0  1  0  0  0  0  0  0  0  0  0
   20.9024  -18.1715  -14.9483 C   0  0  0  0  0  0  0  0  0  0  0  0
   22.7664  -19.3867  -13.9852 C   0  0  0  0  0  0  0  0  0  0  0  0
   23.5196  -20.6577  -13.7855 C   0  0  2  0  0  0  0  0  0  0  0  0
   24.9010  -20.2896  -13.4673 N   0  0  0  0  0  0  0  0  0  0  0  0
   23.4576  -21.5515  -14.9530 C   0  0  0  0  0  0  0  0  0  0  0  0
   24.2866  -21.3354  -16.0284 O   0  0  0  0  0  0  0  0  0  0  0  0
   22.6582  -22.5015  -14.9706 O   0  0  0  0  0  0  0  0  0  0  0  0
  2  1  1  1
  3  2  1  0
  3  4  1  0
  4  9  1  0
  5  4  2  0
  5  6  1  0
  6  7  2  0
  7  8  1  0
  9  8  2  0
 10 11  2  0
 10  2  1  0
 12 10  1  0
 13 12  1  0
 14 13  1  0
 15 14  1  0
 15 16  1  0
 16 12  1  0
 16 17  1  1
 18 17  2  0
 20 19  1  1
 20 21  1  0
 22 20  1  0
 23 22  1  6
 23 24  1  0
 24 17  1  0
 25 23  1  0
 26 25  1  0
 27 25  2  0
M  END
$$$$
