FPL.pdb
     RDKit          3D

 27 28  0  0  1  0  0  0  0  0999 V2000
   24.7568  -22.0280  -15.5054 N   0  0  0  0  0  0  0  0  0  0  0  0
   24.6989  -21.4221  -14.1816 C   0  0  1  0  0  0  0  0  0  0  0  0
   23.3255  -21.7752  -13.6423 C   0  0  0  0  0  0  0  0  0  0  0  0
   22.3571  -20.8792  -14.3127 C   0  0  0  0  0  0  0  0  0  0  0  0
   22.0791  -19.6088  -13.8596 C   0  0  0  0  0  0  0  0  0  0  0  0
   21.1571  -18.8084  -14.5316 C   0  0  0  0  0  0  0  0  0  0  0  0
   20.5103  -19.2634  -15.6506 C   0  0  0  0  0  0  0  0  0  0  0  0
   20.7793  -20.5245  -16.1094 C   0  0  0  0  0  0  0  0  0  0  0  0
   21.6921  -21.3080  -15.4384 C   0  0  0  0  0  0  0  0  0  0  0  0
   25.7770  -21.9713  -13.2776 C   0  0  0  0  0  0  0  0  0  0  0  0
   25.5085  -23.1363  -12.8532 O   0  0  0  0  0  0  0  0  0  0  0  0
   26.9293  -21.2369  -12.9711 N   0  0  0  0  0  0  0  0  0  0  0  0
   27.8495  -20.7671  -14.0399 C   0  0  0  0  0  0  0  0  0  0  0  0
   27.9018  -19.3027  -13.6842 C   0  0  0  0  0  0  0  0  0  0  0  0
   27.6405  -19.2389  -12.1729 C   0  0  0  0  0  0  0  0  0  0  0  0
   27.5780  -20.7230  -11.8224 C   0  0  1  0  0  0  0  0  0  0  0  0
   27.0495  -20.9841  -10.5123 C   0  0  0  0  0  0  0  0  0  0  0  0
   25.8569  -21.2345  -10.2888 O   0  0  0  0  0  0  0  0  0  0  0  0
   29.5232  -20.7846   -4.7936 C   0  0  0  0  0  0  0  0  0  0  0  0
   28.2884  -20.9431   -5.6518 C   0  0  1  0  0  0  0  0  0  0  0  0
   27.4039  -19.7263   -5.3328 C   0  0  0  0  0  0  0  0  0  0  0  0
   28.5782  -20.8836   -7.1105 C   0  0  0  0  0  0  0  0  0  0  0  0
   27.4193  -21.1079   -8.0213 C   0  0  2  0  0  0  0  0  0  0  0  0
   27.9180  -20.9612   -9.3905 N   0  0  0  0  0  0  0  0  0  0  0  0
   26.2966  -20.1937   -7.7580 C   0  0  0  0  0  0  0  0  0  0  0  0
   25.1377  -20.6734   -7.1947 O   0  0  0  0  0  0  0  0  0  0  0  0
   26.3921  -18.9890   -8.0430 O   0  0  0  0  0  0  0  0  0  0  0  0
  2  1  1  6
  3  2  1  0
  3  4  1  0
  4  9  1  0
  5  4  2  0
  5  6  1  0
  6  7  2  0
  7  8  1  0
  9  8  2  0
 10 11  2  0
 10  2  1  0
 12 10  1  0
 13 12  1  0
 14 13  1  0
 15 14  1  0
 15 16  1  0
 16 12  1  0
 16 17  1  1
 18 17  2  0
 20 19  1  1
 20 21  1  0
 22 20  1  0
 23 22  1  1
 23 24  1  0
 24 17  1  0
 25 23  1  0
 26 25  1  0
 27 25  2  0
M  END
$$$$
