FPL.pdb
     RDKit          3D

 27 28  0  0  1  0  0  0  0  0999 V2000
   24.8157  -21.6814  -12.0417 N   0  0  0  0  0  0  0  0  0  0  0  0
   25.8688  -20.7290  -11.7150 C   0  0  1  0  0  0  0  0  0  0  0  0
   25.1517  -19.4185  -11.4499 C   0  0  0  0  0  0  0  0  0  0  0  0
   24.5274  -19.0044  -12.7262 C   0  0  0  0  0  0  0  0  0  0  0  0
   23.1718  -19.0859  -12.9543 C   0  0  0  0  0  0  0  0  0  0  0  0
   22.6387  -18.6812  -14.1768 C   0  0  0  0  0  0  0  0  0  0  0  0
   23.4450  -18.1963  -15.1730 C   0  0  0  0  0  0  0  0  0  0  0  0
   24.7938  -18.1112  -14.9567 C   0  0  0  0  0  0  0  0  0  0  0  0
   25.3111  -18.5136  -13.7452 C   0  0  0  0  0  0  0  0  0  0  0  0
   26.6428  -21.1626  -10.4926 C   0  0  0  0  0  0  0  0  0  0  0  0
   25.9406  -21.1316   -9.4365 O   0  0  0  0  0  0  0  0  0  0  0  0
   27.9870  -21.5480  -10.5674 N   0  0  0  0  0  0  0  0  0  0  0  0
   28.4796  -22.4117  -11.6725 C   0  0  0  0  0  0  0  0  0  0  0  0
   29.6242  -21.5559  -12.1533 C   0  0  0  0  0  0  0  0  0  0  0  0
   30.0783  -20.7526  -10.9265 C   0  0  0  0  0  0  0  0  0  0  0  0
   29.1845  -21.3446   -9.8402 C   0  0  1  0  0  0  0  0  0  0  0  0
   29.1742  -20.5816   -8.6230 C   0  0  0  0  0  0  0  0  0  0  0  0
   28.7504  -19.4201   -8.5426 O   0  0  0  0  0  0  0  0  0  0  0  0
   28.6258  -17.9192   -4.5631 C   0  0  0  0  0  0  0  0  0  0  0  0
   28.1097  -19.3402   -4.5385 C   0  0  1  0  0  0  0  0  0  0  0  0
   26.5899  -19.2250   -4.3347 C   0  0  0  0  0  0  0  0  0  0  0  0
   28.3097  -20.0577   -5.8272 C   0  0  0  0  0  0  0  0  0  0  0  0
   29.7150  -20.4234   -6.1654 C   0  0  2  0  0  0  0  0  0  0  0  0
   29.6710  -21.1639   -7.4283 N   0  0  0  0  0  0  0  0  0  0  0  0
   30.3755  -21.2049   -5.1077 C   0  0  0  0  0  0  0  0  0  0  0  0
   30.5158  -22.5658   -5.2450 O   0  0  0  0  0  0  0  0  0  0  0  0
   30.8072  -20.6391   -4.0902 O   0  0  0  0  0  0  0  0  0  0  0  0
  2  1  1  1
  3  2  1  0
  3  4  1  0
  4  9  1  0
  5  4  2  0
  5  6  1  0
  6  7  2  0
  7  8  1  0
  9  8  2  0
 10 11  2  0
 10  2  1  0
 12 10  1  0
 13 12  1  0
 14 13  1  0
 15 14  1  0
 15 16  1  0
 16 12  1  0
 16 17  1  1
 18 17  2  0
 20 19  1  6
 20 21  1  0
 22 20  1  0
 23 22  1  1
 23 24  1  0
 24 17  1  0
 25 23  1  0
 26 25  1  0
 27 25  2  0
M  END
$$$$
