KNK.pdb
     RDKit          3D

 27 26  0  0  1  0  0  0  0  0999 V2000
    9.6791  -18.7009   18.1007 N   0  0  0  0  0  0  0  0  0  0  0  0
   10.2161  -17.9298   19.2183 C   0  0  1  0  0  0  0  0  0  0  0  0
   10.2316  -16.4777   18.9529 C   0  0  0  0  0  0  0  0  0  0  0  0
    9.1450  -15.8391   18.2006 C   0  0  0  0  0  0  0  0  0  0  0  0
    9.1770  -14.4150   17.8585 C   0  0  0  0  0  0  0  0  0  0  0  0
    7.9806  -13.8370   17.2103 C   0  0  0  0  0  0  0  0  0  0  0  0
    8.1334  -12.4415   16.8321 N   0  0  0  0  0  0  0  0  0  0  0  0
    9.2285  -18.1030   20.3927 C   0  0  0  0  0  0  0  0  0  0  0  0
    8.1929  -18.7237   20.1179 O   0  0  0  0  0  0  0  0  0  0  0  0
    7.2540  -19.8401   24.9661 N   0  0  0  0  0  0  0  0  0  0  0  0
    8.5387  -19.2704   24.8531 C   0  0  0  0  0  0  0  0  0  0  0  0
    9.1338  -18.8801   25.8737 O   0  0  0  0  0  0  0  0  0  0  0  0
    9.1665  -19.1413   23.5302 C   0  0  0  0  0  0  0  0  0  0  0  0
    8.8554  -17.7919   22.8615 C   0  0  2  0  0  0  0  0  0  0  0  0
    9.5548  -17.5668   21.6465 N   0  0  0  0  0  0  0  0  0  0  0  0
    9.0704  -16.7382   23.8528 C   0  0  0  0  0  0  0  0  0  0  0  0
   10.2463  -16.3211   24.1476 O   0  0  0  0  0  0  0  0  0  0  0  0
    8.0155  -16.1014   24.5589 N   0  0  0  0  0  0  0  0  0  0  0  0
    8.2724  -14.9754   25.4263 C   0  0  1  0  0  0  0  0  0  0  0  0
    7.0066  -14.2214   25.7521 C   0  0  0  0  0  0  0  0  0  0  0  0
    7.2016  -13.1033   26.7122 C   0  0  0  0  0  0  0  0  0  0  0  0
    5.9226  -12.3939   27.0750 C   0  0  0  0  0  0  0  0  0  0  0  0
    6.2083  -11.2484   28.0380 C   0  0  0  0  0  0  0  0  0  0  0  0
    5.0204  -10.5576   28.4357 N   0  0  0  0  0  0  0  0  0  0  0  0
    9.0031  -15.4230   26.6066 C   0  0  0  0  0  0  0  0  0  0  0  0
    9.8028  -14.6420   27.1791 O   0  0  0  0  0  0  0  0  0  0  0  0
    8.8792  -16.6976   27.1717 O   0  0  0  0  0  0  0  0  0  0  0  0
  2  1  1  6
  3  2  1  0
  4  3  1  0
  5  4  1  0
  5  6  1  0
  7  6  1  0
  8  9  2  0
  8  2  1  0
 10 11  1  0
 11 13  1  0
 12 11  2  0
 14 13  1  1
 14 15  1  0
 15  8  1  0
 16 14  1  0
 17 16  2  0
 18 16  1  0
 19 25  1  0
 19 18  1  0
 20 21  1  0
 19 20  1  1
 22 23  1  0
 22 21  1  0
 23 24  1  0
 25 27  1  0
 26 25  2  0
M  END
$$$$
