KNK.pdb
     RDKit          3D

 27 26  0  0  1  0  0  0  0  0999 V2000
    7.6961  -18.8046   21.3905 N   0  0  0  0  0  0  0  0  0  0  0  0
    9.1423  -18.7460   21.5835 C   0  0  1  0  0  0  0  0  0  0  0  0
    9.8884  -18.7738   20.3101 C   0  0  0  0  0  0  0  0  0  0  0  0
    9.1998  -19.0368   19.0407 C   0  0  0  0  0  0  0  0  0  0  0  0
    9.2711  -18.1006   17.9162 C   0  0  0  0  0  0  0  0  0  0  0  0
    8.5875  -18.4804   16.6616 C   0  0  0  0  0  0  0  0  0  0  0  0
    8.6163  -17.4461   15.6402 N   0  0  0  0  0  0  0  0  0  0  0  0
    9.4536  -17.3604   22.1899 C   0  0  0  0  0  0  0  0  0  0  0  0
   10.6572  -17.0772   22.2564 O   0  0  0  0  0  0  0  0  0  0  0  0
    9.1926  -14.2020   20.6994 N   0  0  0  0  0  0  0  0  0  0  0  0
    7.9591  -13.7708   21.2288 C   0  0  0  0  0  0  0  0  0  0  0  0
    7.2253  -13.0237   20.5567 O   0  0  0  0  0  0  0  0  0  0  0  0
    7.5481  -14.2066   22.5712 C   0  0  0  0  0  0  0  0  0  0  0  0
    8.5106  -15.2444   23.1722 C   0  0  2  0  0  0  0  0  0  0  0  0
    8.3946  -16.5433   22.6104 N   0  0  0  0  0  0  0  0  0  0  0  0
    8.3401  -15.2284   24.6246 C   0  0  0  0  0  0  0  0  0  0  0  0
    7.2392  -15.5840   25.1771 O   0  0  0  0  0  0  0  0  0  0  0  0
    9.3593  -14.8250   25.5276 N   0  0  0  0  0  0  0  0  0  0  0  0
    9.1564  -14.8863   26.9563 C   0  0  1  0  0  0  0  0  0  0  0  0
   10.2129  -15.7232   27.6349 C   0  0  0  0  0  0  0  0  0  0  0  0
    9.9655  -17.1868   27.5548 C   0  0  0  0  0  0  0  0  0  0  0  0
   11.0040  -18.0110   28.2708 C   0  0  0  0  0  0  0  0  0  0  0  0
   10.6692  -19.4934   28.1627 C   0  0  0  0  0  0  0  0  0  0  0  0
   11.5882  -20.3170   28.8863 N   0  0  0  0  0  0  0  0  0  0  0  0
    9.0505  -13.5348   27.4945 C   0  0  0  0  0  0  0  0  0  0  0  0
    9.5582  -12.5719   26.8680 O   0  0  0  0  0  0  0  0  0  0  0  0
    8.4054  -13.2145   28.6947 O   0  0  0  0  0  0  0  0  0  0  0  0
  2  1  1  6
  3  2  1  0
  4  3  1  0
  5  4  1  0
  5  6  1  0
  7  6  1  0
  8  9  2  0
  8  2  1  0
 10 11  1  0
 11 13  1  0
 12 11  2  0
 14 13  1  6
 14 15  1  0
 15  8  1  0
 16 14  1  0
 17 16  2  0
 18 16  1  0
 19 25  1  0
 19 18  1  0
 20 21  1  0
 19 20  1  1
 22 23  1  0
 22 21  1  0
 23 24  1  0
 25 27  1  0
 26 25  2  0
M  END
$$$$
