KNK.pdb
     RDKit          3D

 27 26  0  0  1  0  0  0  0  0999 V2000
    9.7684  -21.0858   16.2209 N   0  0  0  0  0  0  0  0  0  0  0  0
   10.9322  -21.7446   16.8072 C   0  0  1  0  0  0  0  0  0  0  0  0
   12.2085  -21.1888   16.3162 C   0  0  0  0  0  0  0  0  0  0  0  0
   12.3364  -20.7036   14.9368 C   0  0  0  0  0  0  0  0  0  0  0  0
   13.6153  -20.2312   14.4008 C   0  0  0  0  0  0  0  0  0  0  0  0
   13.6354  -19.7347   13.0084 C   0  0  0  0  0  0  0  0  0  0  0  0
   14.9331  -19.2386   12.5800 N   0  0  0  0  0  0  0  0  0  0  0  0
   10.9159  -21.4153   18.3157 C   0  0  0  0  0  0  0  0  0  0  0  0
   10.6332  -20.2418   18.5919 O   0  0  0  0  0  0  0  0  0  0  0  0
   10.8848  -24.1799   23.7753 N   0  0  0  0  0  0  0  0  0  0  0  0
   10.3960  -23.2632   22.8222 C   0  0  0  0  0  0  0  0  0  0  0  0
    9.7914  -22.2431   23.1991 O   0  0  0  0  0  0  0  0  0  0  0  0
   10.6038  -23.5186   21.3896 C   0  0  0  0  0  0  0  0  0  0  0  0
   11.1897  -22.3014   20.6548 C   0  0  2  0  0  0  0  0  0  0  0  0
   11.2110  -22.4270   19.2407 N   0  0  0  0  0  0  0  0  0  0  0  0
   12.5060  -22.0207   21.2273 C   0  0  0  0  0  0  0  0  0  0  0  0
   13.2799  -22.9607   21.6285 O   0  0  0  0  0  0  0  0  0  0  0  0
   13.0271  -20.7090   21.3846 N   0  0  0  0  0  0  0  0  0  0  0  0
   13.8602  -20.3684   22.5142 C   0  0  1  0  0  0  0  0  0  0  0  0
   13.1236  -19.5099   23.5126 C   0  0  0  0  0  0  0  0  0  0  0  0
   12.4096  -18.3564   22.9046 C   0  0  0  0  0  0  0  0  0  0  0  0
   11.7361  -17.4662   23.9169 C   0  0  0  0  0  0  0  0  0  0  0  0
   11.0126  -16.3227   23.2168 C   0  0  0  0  0  0  0  0  0  0  0  0
   10.3551  -15.4458   24.1362 N   0  0  0  0  0  0  0  0  0  0  0  0
   14.4205  -21.5840   23.0937 C   0  0  0  0  0  0  0  0  0  0  0  0
   14.7869  -21.5914   24.2950 O   0  0  0  0  0  0  0  0  0  0  0  0
   14.5875  -22.7845   22.3935 O   0  0  0  0  0  0  0  0  0  0  0  0
  2  1  1  6
  3  2  1  0
  4  3  1  0
  5  4  1  0
  5  6  1  0
  7  6  1  0
  8  9  2  0
  8  2  1  0
 10 11  1  0
 11 13  1  0
 12 11  2  0
 14 13  1  1
 14 15  1  0
 15  8  1  0
 16 14  1  0
 17 16  2  0
 18 16  1  0
 19 25  1  0
 19 18  1  0
 20 21  1  0
 19 20  1  1
 22 23  1  0
 22 21  1  0
 23 24  1  0
 25 27  1  0
 26 25  2  0
M  END
$$$$
