KNK.pdb
     RDKit          3D

 27 26  0  0  1  0  0  0  0  0999 V2000
    7.7447  -16.6244   20.8023 N   0  0  0  0  0  0  0  0  0  0  0  0
    9.1640  -16.2905   20.8806 C   0  0  1  0  0  0  0  0  0  0  0  0
    9.6203  -15.4726   19.7396 C   0  0  0  0  0  0  0  0  0  0  0  0
    8.7407  -15.2281   18.5902 C   0  0  0  0  0  0  0  0  0  0  0  0
    8.5840  -13.8923   18.0093 C   0  0  0  0  0  0  0  0  0  0  0  0
    7.6951  -13.7532   16.8362 C   0  0  0  0  0  0  0  0  0  0  0  0
    7.5561  -12.3855   16.3630 N   0  0  0  0  0  0  0  0  0  0  0  0
    9.3380  -15.3761   22.1127 C   0  0  0  0  0  0  0  0  0  0  0  0
   10.4335  -14.8039   22.1887 O   0  0  0  0  0  0  0  0  0  0  0  0
    7.5558  -11.8125   26.0709 N   0  0  0  0  0  0  0  0  0  0  0  0
    7.1389  -13.1534   25.9456 C   0  0  0  0  0  0  0  0  0  0  0  0
    6.8305  -13.8023   26.9615 O   0  0  0  0  0  0  0  0  0  0  0  0
    7.0713  -13.7760   24.6157 C   0  0  0  0  0  0  0  0  0  0  0  0
    8.3357  -14.5845   24.2806 C   0  0  2  0  0  0  0  0  0  0  0  0
    8.2853  -15.2570   23.0312 N   0  0  0  0  0  0  0  0  0  0  0  0
    8.6091  -15.4791   25.4049 C   0  0  0  0  0  0  0  0  0  0  0  0
    7.8170  -16.4405   25.7082 O   0  0  0  0  0  0  0  0  0  0  0  0
    9.7520  -15.3601   26.2394 N   0  0  0  0  0  0  0  0  0  0  0  0
   10.1236  -16.4179   27.1499 C   0  0  1  0  0  0  0  0  0  0  0  0
   11.2283  -17.2774   26.5862 C   0  0  0  0  0  0  0  0  0  0  0  0
   11.6476  -18.3854   27.4843 C   0  0  0  0  0  0  0  0  0  0  0  0
   12.7347  -19.2512   26.9020 C   0  0  0  0  0  0  0  0  0  0  0  0
   13.0745  -20.3876   27.8582 C   0  0  0  0  0  0  0  0  0  0  0  0
   14.1084  -21.2378   27.3535 N   0  0  0  0  0  0  0  0  0  0  0  0
   10.4367  -15.8516   28.4571 C   0  0  0  0  0  0  0  0  0  0  0  0
   10.8267  -16.6023   29.3854 O   0  0  0  0  0  0  0  0  0  0  0  0
   10.3340  -14.4912   28.7698 O   0  0  0  0  0  0  0  0  0  0  0  0
  2  1  1  6
  3  2  1  0
  4  3  1  0
  5  4  1  0
  5  6  1  0
  7  6  1  0
  8  9  2  0
  8  2  1  0
 10 11  1  0
 11 13  1  0
 12 11  2  0
 14 13  1  1
 14 15  1  0
 15  8  1  0
 16 14  1  0
 17 16  2  0
 18 16  1  0
 19 25  1  0
 19 18  1  0
 20 21  1  0
 19 20  1  6
 22 23  1  0
 22 21  1  0
 23 24  1  0
 25 27  1  0
 26 25  2  0
M  END
$$$$
