KNK.pdb
     RDKit          3D

 27 26  0  0  1  0  0  0  0  0999 V2000
    8.8407  -17.4210   17.9451 N   0  0  0  0  0  0  0  0  0  0  0  0
   10.1992  -17.0108   17.6009 C   0  0  1  0  0  0  0  0  0  0  0  0
   10.2942  -16.4368   16.2443 C   0  0  0  0  0  0  0  0  0  0  0  0
   10.6495  -17.2779   15.0950 C   0  0  0  0  0  0  0  0  0  0  0  0
   10.6562  -16.7525   13.7275 C   0  0  0  0  0  0  0  0  0  0  0  0
   11.1400  -17.6435   12.6514 C   0  0  0  0  0  0  0  0  0  0  0  0
   11.1297  -17.0316   11.3327 N   0  0  0  0  0  0  0  0  0  0  0  0
   10.5643  -15.8455   18.5460 C   0  0  0  0  0  0  0  0  0  0  0  0
   11.7319  -15.4436   18.4538 O   0  0  0  0  0  0  0  0  0  0  0  0
    6.1534  -14.0165   20.5030 N   0  0  0  0  0  0  0  0  0  0  0  0
    7.3836  -13.8547   19.8337 C   0  0  0  0  0  0  0  0  0  0  0  0
    7.4629  -14.1036   18.6171 O   0  0  0  0  0  0  0  0  0  0  0  0
    8.5645  -13.3931   20.5776 C   0  0  0  0  0  0  0  0  0  0  0  0
    9.7788  -14.3165   20.3836 C   0  0  2  0  0  0  0  0  0  0  0  0
    9.5882  -15.3368   19.4147 N   0  0  0  0  0  0  0  0  0  0  0  0
   10.1650  -14.8341   21.6958 C   0  0  0  0  0  0  0  0  0  0  0  0
   10.3274  -14.0590   22.7040 O   0  0  0  0  0  0  0  0  0  0  0  0
   10.3888  -16.2117   21.9585 N   0  0  0  0  0  0  0  0  0  0  0  0
   10.9221  -16.6517   23.2266 C   0  0  1  0  0  0  0  0  0  0  0  0
   10.4592  -18.0452   23.5738 C   0  0  0  0  0  0  0  0  0  0  0  0
   11.0367  -18.5747   24.8371 C   0  0  0  0  0  0  0  0  0  0  0  0
   10.6145  -19.9883   25.1438 C   0  0  0  0  0  0  0  0  0  0  0  0
   11.0560  -20.3790   26.5487 C   0  0  0  0  0  0  0  0  0  0  0  0
   10.7712  -21.7477   26.8519 N   0  0  0  0  0  0  0  0  0  0  0  0
   12.3732  -16.5042   23.2254 C   0  0  0  0  0  0  0  0  0  0  0  0
   12.9812  -16.3036   24.3059 O   0  0  0  0  0  0  0  0  0  0  0  0
   13.1695  -16.5711   22.0762 O   0  0  0  0  0  0  0  0  0  0  0  0
  2  1  1  1
  3  2  1  0
  4  3  1  0
  5  4  1  0
  5  6  1  0
  7  6  1  0
  8  9  2  0
  8  2  1  0
 10 11  1  0
 11 13  1  0
 12 11  2  0
 14 13  1  1
 14 15  1  0
 15  8  1  0
 16 14  1  0
 17 16  2  0
 18 16  1  0
 19 25  1  0
 19 18  1  0
 20 21  1  0
 19 20  1  6
 22 23  1  0
 22 21  1  0
 23 24  1  0
 25 27  1  0
 26 25  2  0
M  END
$$$$
