NYH.pdb
     RDKit          3D

 31 32  0  0  1  0  0  0  0  0999 V2000
   28.9665  -24.1574  -16.1940 N   0  0  0  0  0  0  0  0  0  0  0  0
   28.3217  -23.2356  -17.0486 C   0  0  0  0  0  0  0  0  0  0  0  0
   29.0249  -22.6691  -17.9181 O   0  0  0  0  0  0  0  0  0  0  0  0
   26.8965  -22.9291  -16.9538 C   0  0  0  0  0  0  0  0  0  0  0  0
   26.1554  -23.6977  -15.8956 C   0  0  2  0  0  0  0  0  0  0  0  0
   26.0077  -25.0835  -16.2848 N   0  0  0  0  0  0  0  0  0  0  0  0
   24.8423  -23.0849  -15.5432 C   0  0  0  0  0  0  0  0  0  0  0  0
   23.7908  -23.5690  -16.0352 O   0  0  0  0  0  0  0  0  0  0  0  0
   18.4060  -19.3661  -10.7332 O   0  0  0  0  0  0  0  0  0  0  0  0
   19.6152  -19.8835  -11.2407 C   0  0  0  0  0  0  0  0  0  0  0  0
   19.7186  -21.2012  -11.6257 C   0  0  0  0  0  0  0  0  0  0  0  0
   20.9086  -21.6971  -12.1215 C   0  0  0  0  0  0  0  0  0  0  0  0
   22.0366  -20.9177  -12.2563 C   0  0  0  0  0  0  0  0  0  0  0  0
   23.2988  -21.4409  -12.7837 C   0  0  0  0  0  0  0  0  0  0  0  0
   23.4309  -21.4377  -14.2666 C   0  0  2  0  0  0  0  0  0  0  0  0
   24.7135  -21.9737  -14.6752 N   0  0  0  0  0  0  0  0  0  0  0  0
   23.1700  -20.1687  -14.9393 C   0  0  0  0  0  0  0  0  0  0  0  0
   23.7703  -19.1138  -14.5433 O   0  0  0  0  0  0  0  0  0  0  0  0
   21.9237  -19.6011  -11.8687 C   0  0  0  0  0  0  0  0  0  0  0  0
   20.7300  -19.0876  -11.3670 C   0  0  0  0  0  0  0  0  0  0  0  0
   22.2847  -19.9997  -16.0267 N   0  0  0  0  0  0  0  0  0  0  0  0
   21.1739  -19.0349  -15.9725 C   0  0  1  0  0  0  0  0  0  0  0  0
   20.2742  -19.5453  -14.8617 C   0  0  0  0  0  0  0  0  0  0  0  0
   19.2814  -20.5238  -15.2975 C   0  0  0  0  0  0  0  0  0  0  0  0
   19.1940  -21.1074  -16.5395 C   0  0  0  0  0  0  0  0  0  0  0  0
   18.1329  -21.9553  -16.5441 N   0  0  0  0  0  0  0  0  0  0  0  0
   17.5590  -21.9035  -15.3129 C   0  0  0  0  0  0  0  0  0  0  0  0
   18.2727  -21.0260  -14.5672 N   0  0  0  0  0  0  0  0  0  0  0  0
   21.6786  -17.6854  -15.6335 C   0  0  0  0  0  0  0  0  0  0  0  0
   22.4296  -17.4130  -14.6724 O   0  0  0  0  0  0  0  0  0  0  0  0
   21.3011  -16.6078  -16.4370 O   0  0  0  0  0  0  0  0  0  0  0  0
  2  4  1  0
  2  1  1  0
  3  2  2  0
  5  4  1  0
  5  6  1  6
  7  8  2  0
  7  5  1  0
  9 10  1  0
 10 20  2  0
 11 12  2  0
 11 10  1  0
 12 13  1  0
 13 14  1  0
 13 19  2  0
 15 14  1  1
 15 16  1  0
 16  7  1  0
 17 18  2  0
 17 15  1  0
 20 19  1  0
 21 17  1  0
 22 21  1  0
 22 23  1  1
 23 24  1  0
 24 25  2  0
 25 26  1  0
 27 26  1  0
 28 24  1  0
 28 27  2  0
 29 22  1  0
 30 29  2  0
 31 29  1  0
M  END
$$$$
