NYH.pdb
     RDKit          3D

 31 32  0  0  1  0  0  0  0  0999 V2000
   28.3696   -7.3809  -20.8215 N   0  0  0  0  0  0  0  0  0  0  0  0
   27.2910   -8.1846  -21.2534 C   0  0  0  0  0  0  0  0  0  0  0  0
   26.4422   -7.6511  -22.0060 O   0  0  0  0  0  0  0  0  0  0  0  0
   27.1370   -9.5833  -20.8606 C   0  0  0  0  0  0  0  0  0  0  0  0
   28.1481  -10.0724  -19.8616 C   0  0  2  0  0  0  0  0  0  0  0  0
   29.4769  -10.0540  -20.4339 N   0  0  0  0  0  0  0  0  0  0  0  0
   27.8115  -11.4130  -19.3016 C   0  0  0  0  0  0  0  0  0  0  0  0
   28.2731  -12.4413  -19.8597 O   0  0  0  0  0  0  0  0  0  0  0  0
   24.0618  -17.6957  -14.1237 O   0  0  0  0  0  0  0  0  0  0  0  0
   24.5476  -16.4880  -14.6648 C   0  0  0  0  0  0  0  0  0  0  0  0
   23.7077  -15.6108  -15.3132 C   0  0  0  0  0  0  0  0  0  0  0  0
   24.1950  -14.4303  -15.8393 C   0  0  0  0  0  0  0  0  0  0  0  0
   25.5217  -14.0706  -15.7472 C   0  0  0  0  0  0  0  0  0  0  0  0
   26.0402  -12.8184  -16.3025 C   0  0  0  0  0  0  0  0  0  0  0  0
   26.5735  -12.8982  -17.6902 C   0  0  2  0  0  0  0  0  0  0  0  0
   26.9898  -11.5933  -18.1627 N   0  0  0  0  0  0  0  0  0  0  0  0
   25.7192  -13.5503  -18.6780 C   0  0  0  0  0  0  0  0  0  0  0  0
   24.7525  -12.8990  -19.1990 O   0  0  0  0  0  0  0  0  0  0  0  0
   26.3542  -14.9541  -15.0969 C   0  0  0  0  0  0  0  0  0  0  0  0
   25.8765  -16.1480  -14.5617 C   0  0  0  0  0  0  0  0  0  0  0  0
   25.8739  -14.8812  -19.1246 N   0  0  0  0  0  0  0  0  0  0  0  0
   24.9116  -15.4990  -20.0519 C   0  0  1  0  0  0  0  0  0  0  0  0
   25.7502  -15.9489  -21.2343 C   0  0  0  0  0  0  0  0  0  0  0  0
   24.9874  -16.6001  -22.2959 C   0  0  0  0  0  0  0  0  0  0  0  0
   23.9072  -16.0793  -22.9687 C   0  0  0  0  0  0  0  0  0  0  0  0
   23.4794  -16.9970  -23.8741 N   0  0  0  0  0  0  0  0  0  0  0  0
   24.2864  -18.0860  -23.7695 C   0  0  0  0  0  0  0  0  0  0  0  0
   25.1990  -17.8254  -22.8028 N   0  0  0  0  0  0  0  0  0  0  0  0
   24.2630  -16.6691  -19.4187 C   0  0  0  0  0  0  0  0  0  0  0  0
   23.3127  -17.3207  -19.9025 O   0  0  0  0  0  0  0  0  0  0  0  0
   24.7313  -17.1041  -18.1773 O   0  0  0  0  0  0  0  0  0  0  0  0
  2  4  1  0
  2  1  1  0
  3  2  2  0
  5  4  1  0
  5  6  1  6
  7  8  2  0
  7  5  1  0
  9 10  1  0
 10 20  2  0
 11 12  2  0
 11 10  1  0
 12 13  1  0
 13 14  1  0
 13 19  2  0
 15 14  1  1
 15 16  1  0
 16  7  1  0
 17 18  2  0
 17 15  1  0
 20 19  1  0
 21 17  1  0
 22 21  1  0
 22 23  1  6
 23 24  1  0
 24 25  2  0
 25 26  1  0
 27 26  1  0
 28 24  1  0
 28 27  2  0
 29 22  1  0
 30 29  2  0
 31 29  1  0
M  END
$$$$
