NYH.pdb
     RDKit          3D

 31 32  0  0  1  0  0  0  0  0999 V2000
   29.0582  -17.9598  -17.0505 N   0  0  0  0  0  0  0  0  0  0  0  0
   28.4914  -19.0872  -17.6856 C   0  0  0  0  0  0  0  0  0  0  0  0
   28.9025  -19.3653  -18.8367 O   0  0  0  0  0  0  0  0  0  0  0  0
   27.4666  -19.9189  -17.0592 C   0  0  0  0  0  0  0  0  0  0  0  0
   27.0099  -19.4454  -15.7076 C   0  0  2  0  0  0  0  0  0  0  0  0
   28.1411  -19.2691  -14.8227 N   0  0  0  0  0  0  0  0  0  0  0  0
   25.9727  -20.3288  -15.1012 C   0  0  0  0  0  0  0  0  0  0  0  0
   24.9443  -20.6102  -15.7684 O   0  0  0  0  0  0  0  0  0  0  0  0
   26.8294  -19.3474   -7.3881 O   0  0  0  0  0  0  0  0  0  0  0  0
   26.5161  -20.1065   -8.5339 C   0  0  0  0  0  0  0  0  0  0  0  0
   27.4950  -20.4889   -9.4231 C   0  0  0  0  0  0  0  0  0  0  0  0
   27.1760  -21.2327  -10.5424 C   0  0  0  0  0  0  0  0  0  0  0  0
   25.8867  -21.6263  -10.8270 C   0  0  0  0  0  0  0  0  0  0  0  0
   25.5466  -22.4168  -12.0121 C   0  0  0  0  0  0  0  0  0  0  0  0
   25.0284  -21.6469  -13.1762 C   0  0  2  0  0  0  0  0  0  0  0  0
   26.0836  -20.8736  -13.7990 N   0  0  0  0  0  0  0  0  0  0  0  0
   23.8578  -20.8097  -12.9321 C   0  0  0  0  0  0  0  0  0  0  0  0
   24.0184  -19.6074  -12.5336 O   0  0  0  0  0  0  0  0  0  0  0  0
   24.9144  -21.2394   -9.9319 C   0  0  0  0  0  0  0  0  0  0  0  0
   25.2216  -20.4892   -8.7993 C   0  0  0  0  0  0  0  0  0  0  0  0
   22.5190  -21.2251  -13.1056 N   0  0  0  0  0  0  0  0  0  0  0  0
   21.3962  -20.2830  -12.9660 C   0  0  1  0  0  0  0  0  0  0  0  0
   21.6010  -19.2718  -14.0792 C   0  0  0  0  0  0  0  0  0  0  0  0
   20.5645  -18.2456  -14.1539 C   0  0  0  0  0  0  0  0  0  0  0  0
   19.3686  -18.3340  -14.8267 C   0  0  0  0  0  0  0  0  0  0  0  0
   18.6900  -17.1700  -14.6553 N   0  0  0  0  0  0  0  0  0  0  0  0
   19.4556  -16.3572  -13.8800 C   0  0  0  0  0  0  0  0  0  0  0  0
   20.5938  -17.0299  -13.5845 N   0  0  0  0  0  0  0  0  0  0  0  0
   20.1069  -20.9854  -13.1529 C   0  0  0  0  0  0  0  0  0  0  0  0
   19.9258  -21.9863  -13.8790 O   0  0  0  0  0  0  0  0  0  0  0  0
   18.9822  -20.5132  -12.4736 O   0  0  0  0  0  0  0  0  0  0  0  0
  2  4  1  0
  2  1  1  0
  3  2  2  0
  5  4  1  0
  5  6  1  1
  7  8  2  0
  7  5  1  0
  9 10  1  0
 10 20  2  0
 11 12  2  0
 11 10  1  0
 12 13  1  0
 13 14  1  0
 13 19  2  0
 15 14  1  1
 15 16  1  0
 16  7  1  0
 17 18  2  0
 17 15  1  0
 20 19  1  0
 21 17  1  0
 22 21  1  0
 22 23  1  6
 23 24  1  0
 24 25  2  0
 25 26  1  0
 27 26  1  0
 28 24  1  0
 28 27  2  0
 29 22  1  0
 30 29  2  0
 31 29  1  0
M  END
$$$$
