NYH.pdb
     RDKit          3D

 31 32  0  0  1  0  0  0  0  0999 V2000
   33.9824  -35.4931    0.6041 N   0  0  0  0  0  0  0  0  0  0  0  0
   33.8501  -35.5174   -0.8021 C   0  0  0  0  0  0  0  0  0  0  0  0
   34.7645  -36.0724   -1.4558 O   0  0  0  0  0  0  0  0  0  0  0  0
   32.7097  -34.9307   -1.5019 C   0  0  0  0  0  0  0  0  0  0  0  0
   31.8910  -35.9058   -2.3010 C   0  0  2  0  0  0  0  0  0  0  0  0
   32.6506  -36.4025   -3.4280 N   0  0  0  0  0  0  0  0  0  0  0  0
   30.5763  -35.3476   -2.7301 C   0  0  0  0  0  0  0  0  0  0  0  0
   29.7819  -34.9153   -1.8560 O   0  0  0  0  0  0  0  0  0  0  0  0
   24.8548  -31.3117   -8.2825 O   0  0  0  0  0  0  0  0  0  0  0  0
   25.9390  -31.8297   -7.5454 C   0  0  0  0  0  0  0  0  0  0  0  0
   27.0677  -32.3011   -8.1770 C   0  0  0  0  0  0  0  0  0  0  0  0
   28.1239  -32.8064   -7.4442 C   0  0  0  0  0  0  0  0  0  0  0  0
   28.1085  -32.8663   -6.0679 C   0  0  0  0  0  0  0  0  0  0  0  0
   29.2281  -33.3998   -5.2888 C   0  0  0  0  0  0  0  0  0  0  0  0
   28.9414  -34.6328   -4.5052 C   0  0  2  0  0  0  0  0  0  0  0  0
   30.1685  -35.2780   -4.0842 N   0  0  0  0  0  0  0  0  0  0  0  0
   28.0416  -35.6012   -5.1243 C   0  0  0  0  0  0  0  0  0  0  0  0
   28.4849  -36.3742   -6.0387 O   0  0  0  0  0  0  0  0  0  0  0  0
   26.9755  -32.3925   -5.4448 C   0  0  0  0  0  0  0  0  0  0  0  0
   25.9030  -31.8803   -6.1711 C   0  0  0  0  0  0  0  0  0  0  0  0
   26.6796  -35.7657   -4.7884 N   0  0  0  0  0  0  0  0  0  0  0  0
   25.8364  -36.7682   -5.4606 C   0  0  1  0  0  0  0  0  0  0  0  0
   25.8961  -37.9883   -4.5597 C   0  0  0  0  0  0  0  0  0  0  0  0
   26.1577  -39.2404   -5.2644 C   0  0  0  0  0  0  0  0  0  0  0  0
   26.3436  -39.3976   -6.6178 C   0  0  0  0  0  0  0  0  0  0  0  0
   26.5546  -40.7146   -6.8743 N   0  0  0  0  0  0  0  0  0  0  0  0
   26.5014  -41.3787   -5.6893 C   0  0  0  0  0  0  0  0  0  0  0  0
   26.2586  -40.4638   -4.7201 N   0  0  0  0  0  0  0  0  0  0  0  0
   24.4415  -36.2841   -5.5631 C   0  0  0  0  0  0  0  0  0  0  0  0
   23.6758  -36.0709   -4.5986 O   0  0  0  0  0  0  0  0  0  0  0  0
   23.9100  -36.0359   -6.8301 O   0  0  0  0  0  0  0  0  0  0  0  0
  2  4  1  0
  2  1  1  0
  3  2  2  0
  5  4  1  0
  5  6  1  6
  7  8  2  0
  7  5  1  0
  9 10  1  0
 10 20  2  0
 11 12  2  0
 11 10  1  0
 12 13  1  0
 13 14  1  0
 13 19  2  0
 15 14  1  6
 15 16  1  0
 16  7  1  0
 17 18  2  0
 17 15  1  0
 20 19  1  0
 21 17  1  0
 22 21  1  0
 22 23  1  1
 23 24  1  0
 24 25  2  0
 25 26  1  0
 27 26  1  0
 28 24  1  0
 28 27  2  0
 29 22  1  0
 30 29  2  0
 31 29  1  0
M  END
$$$$
