NYH.pdb
     RDKit          3D

 31 32  0  0  1  0  0  0  0  0999 V2000
   25.4206  -19.9781  -20.6691 N   0  0  0  0  0  0  0  0  0  0  0  0
   25.2404  -18.9889  -19.6768 C   0  0  0  0  0  0  0  0  0  0  0  0
   25.9135  -17.9370  -19.7851 O   0  0  0  0  0  0  0  0  0  0  0  0
   24.3173  -19.1488  -18.5557 C   0  0  0  0  0  0  0  0  0  0  0  0
   24.9582  -19.5901  -17.2696 C   0  0  2  0  0  0  0  0  0  0  0  0
   25.6993  -20.8172  -17.4666 N   0  0  0  0  0  0  0  0  0  0  0  0
   23.9849  -19.7125  -16.1463 C   0  0  0  0  0  0  0  0  0  0  0  0
   24.3140  -19.2983  -15.0052 O   0  0  0  0  0  0  0  0  0  0  0  0
   16.8947  -16.7673  -12.2956 O   0  0  0  0  0  0  0  0  0  0  0  0
   18.0190  -17.1861  -13.0357 C   0  0  0  0  0  0  0  0  0  0  0  0
   19.1342  -16.3868  -13.1482 C   0  0  0  0  0  0  0  0  0  0  0  0
   20.2300  -16.8077  -13.8761 C   0  0  0  0  0  0  0  0  0  0  0  0
   20.2688  -18.0263  -14.5178 C   0  0  0  0  0  0  0  0  0  0  0  0
   21.4304  -18.4755  -15.2884 C   0  0  0  0  0  0  0  0  0  0  0  0
   21.5854  -19.9500  -15.4243 C   0  0  2  0  0  0  0  0  0  0  0  0
   22.6953  -20.2776  -16.2962 N   0  0  0  0  0  0  0  0  0  0  0  0
   20.3924  -20.6953  -15.8142 C   0  0  0  0  0  0  0  0  0  0  0  0
   19.8060  -20.4110  -16.9121 O   0  0  0  0  0  0  0  0  0  0  0  0
   19.1489  -18.8190  -14.3996 C   0  0  0  0  0  0  0  0  0  0  0  0
   18.0369  -18.4072  -13.6690 C   0  0  0  0  0  0  0  0  0  0  0  0
   19.8117  -21.7391  -15.0605 N   0  0  0  0  0  0  0  0  0  0  0  0
   18.6196  -22.4607  -15.5356 C   0  0  1  0  0  0  0  0  0  0  0  0
   18.7406  -23.8466  -14.9285 C   0  0  0  0  0  0  0  0  0  0  0  0
   19.6703  -24.7281  -15.6298 C   0  0  0  0  0  0  0  0  0  0  0  0
   20.3252  -24.4599  -16.8087 C   0  0  0  0  0  0  0  0  0  0  0  0
   21.0919  -25.5339  -17.1304 N   0  0  0  0  0  0  0  0  0  0  0  0
   20.9187  -26.4693  -16.1593 C   0  0  0  0  0  0  0  0  0  0  0  0
   20.0491  -25.9602  -15.2537 N   0  0  0  0  0  0  0  0  0  0  0  0
   17.3881  -21.8012  -15.0464 C   0  0  0  0  0  0  0  0  0  0  0  0
   16.3047  -21.7383  -15.6662 O   0  0  0  0  0  0  0  0  0  0  0  0
   17.4089  -21.1904  -13.7910 O   0  0  0  0  0  0  0  0  0  0  0  0
  2  4  1  0
  2  1  1  0
  3  2  2  0
  5  4  1  0
  5  6  1  6
  7  8  2  0
  7  5  1  0
  9 10  1  0
 10 20  2  0
 11 12  2  0
 11 10  1  0
 12 13  1  0
 13 14  1  0
 13 19  2  0
 15 14  1  6
 15 16  1  0
 16  7  1  0
 17 18  2  0
 17 15  1  0
 20 19  1  0
 21 17  1  0
 22 21  1  0
 22 23  1  1
 23 24  1  0
 24 25  2  0
 25 26  1  0
 27 26  1  0
 28 24  1  0
 28 27  2  0
 29 22  1  0
 30 29  2  0
 31 29  1  0
M  END
$$$$
