NYH.pdb
     RDKit          3D

 31 32  0  0  1  0  0  0  0  0999 V2000
   10.3408   -9.7772   -9.3298 N   0  0  0  0  0  0  0  0  0  0  0  0
   11.0346   -9.1959   -8.2452 C   0  0  0  0  0  0  0  0  0  0  0  0
   10.4365   -9.1381   -7.1451 O   0  0  0  0  0  0  0  0  0  0  0  0
   12.3937   -8.6727   -8.3618 C   0  0  0  0  0  0  0  0  0  0  0  0
   13.0298   -8.8655   -9.7101 C   0  0  2  0  0  0  0  0  0  0  0  0
   13.3604  -10.2583   -9.9209 N   0  0  0  0  0  0  0  0  0  0  0  0
   14.2122   -7.9830   -9.9275 C   0  0  0  0  0  0  0  0  0  0  0  0
   14.0743   -6.7381   -9.8128 O   0  0  0  0  0  0  0  0  0  0  0  0
   22.6530   -5.5073  -11.6743 O   0  0  0  0  0  0  0  0  0  0  0  0
   21.4801   -6.2012  -11.3139 C   0  0  0  0  0  0  0  0  0  0  0  0
   20.8425   -5.9480  -10.1203 C   0  0  0  0  0  0  0  0  0  0  0  0
   19.6938   -6.6342   -9.7779 C   0  0  0  0  0  0  0  0  0  0  0  0
   19.1320   -7.5915  -10.5941 C   0  0  0  0  0  0  0  0  0  0  0  0
   17.9128   -8.3188  -10.2339 C   0  0  0  0  0  0  0  0  0  0  0  0
   16.6323   -7.6117  -10.5107 C   0  0  2  0  0  0  0  0  0  0  0  0
   15.4967   -8.4763  -10.2610 N   0  0  0  0  0  0  0  0  0  0  0  0
   16.5114   -6.9750  -11.8187 C   0  0  0  0  0  0  0  0  0  0  0  0
   16.1511   -7.6729  -12.8253 O   0  0  0  0  0  0  0  0  0  0  0  0
   19.7765   -7.8379  -11.7859 C   0  0  0  0  0  0  0  0  0  0  0  0
   20.9356   -7.1536  -12.1440 C   0  0  0  0  0  0  0  0  0  0  0  0
   16.7640   -5.6097  -12.0773 N   0  0  0  0  0  0  0  0  0  0  0  0
   16.7223   -5.0643  -13.4442 C   0  0  1  0  0  0  0  0  0  0  0  0
   15.8454   -3.8299  -13.3400 C   0  0  0  0  0  0  0  0  0  0  0  0
   14.4127   -4.1065  -13.4009 C   0  0  0  0  0  0  0  0  0  0  0  0
   13.8211   -5.3263  -13.6309 C   0  0  0  0  0  0  0  0  0  0  0  0
   12.4729   -5.1619  -13.6150 N   0  0  0  0  0  0  0  0  0  0  0  0
   12.2211   -3.8475  -13.3765 C   0  0  0  0  0  0  0  0  0  0  0  0
   13.4153   -3.2205  -13.2489 N   0  0  0  0  0  0  0  0  0  0  0  0
   18.0813   -4.6820  -13.8889 C   0  0  0  0  0  0  0  0  0  0  0  0
   18.3619   -4.1466  -14.9827 O   0  0  0  0  0  0  0  0  0  0  0  0
   19.1591   -4.9275  -13.0359 O   0  0  0  0  0  0  0  0  0  0  0  0
  2  4  1  0
  2  1  1  0
  3  2  2  0
  5  4  1  0
  5  6  1  1
  7  8  2  0
  7  5  1  0
  9 10  1  0
 10 20  2  0
 11 12  2  0
 11 10  1  0
 12 13  1  0
 13 14  1  0
 13 19  2  0
 15 14  1  6
 15 16  1  0
 16  7  1  0
 17 18  2  0
 17 15  1  0
 20 19  1  0
 21 17  1  0
 22 21  1  0
 22 23  1  1
 23 24  1  0
 24 25  2  0
 25 26  1  0
 27 26  1  0
 28 24  1  0
 28 27  2  0
 29 22  1  0
 30 29  2  0
 31 29  1  0
M  END
$$$$
