NYH.pdb
     RDKit          3D

 31 32  0  0  1  0  0  0  0  0999 V2000
   15.1545   -6.1651  -14.2893 N   0  0  0  0  0  0  0  0  0  0  0  0
   15.7391   -7.1298  -15.1398 C   0  0  0  0  0  0  0  0  0  0  0  0
   15.0589   -8.1485  -15.4064 O   0  0  0  0  0  0  0  0  0  0  0  0
   17.0783   -6.9819  -15.7048 C   0  0  0  0  0  0  0  0  0  0  0  0
   17.8101   -5.7411  -15.2752 C   0  0  2  0  0  0  0  0  0  0  0  0
   17.2766   -4.5779  -15.9505 N   0  0  0  0  0  0  0  0  0  0  0  0
   19.2873   -5.8466  -15.4503 C   0  0  0  0  0  0  0  0  0  0  0  0
   19.7850   -5.6268  -16.5843 O   0  0  0  0  0  0  0  0  0  0  0  0
   21.8696    0.1390  -15.1636 O   0  0  0  0  0  0  0  0  0  0  0  0
   21.9822   -1.2186  -14.8010 C   0  0  0  0  0  0  0  0  0  0  0  0
   21.1325   -1.7801  -13.8747 C   0  0  0  0  0  0  0  0  0  0  0  0
   21.2523   -3.1115  -13.5273 C   0  0  0  0  0  0  0  0  0  0  0  0
   22.2092   -3.9367  -14.0764 C   0  0  0  0  0  0  0  0  0  0  0  0
   22.3368   -5.3492  -13.7111 C   0  0  0  0  0  0  0  0  0  0  0  0
   21.6026   -6.3106  -14.5789 C   0  0  2  0  0  0  0  0  0  0  0  0
   20.1705   -6.1859  -14.3970 N   0  0  0  0  0  0  0  0  0  0  0  0
   22.0090   -7.7096  -14.4874 C   0  0  0  0  0  0  0  0  0  0  0  0
   21.9038   -8.3218  -13.3719 O   0  0  0  0  0  0  0  0  0  0  0  0
   23.0545   -3.3665  -15.0020 C   0  0  0  0  0  0  0  0  0  0  0  0
   22.9452   -2.0253  -15.3617 C   0  0  0  0  0  0  0  0  0  0  0  0
   22.5233   -8.4716  -15.5596 N   0  0  0  0  0  0  0  0  0  0  0  0
   22.8243   -9.9051  -15.4108 C   0  0  1  0  0  0  0  0  0  0  0  0
   21.5779  -10.6141  -15.9083 C   0  0  0  0  0  0  0  0  0  0  0  0
   21.6893  -12.0700  -15.9384 C   0  0  0  0  0  0  0  0  0  0  0  0
   22.7398  -12.8230  -15.4693 C   0  0  0  0  0  0  0  0  0  0  0  0
   22.4619  -14.1345  -15.6871 N   0  0  0  0  0  0  0  0  0  0  0  0
   21.2449  -14.2032  -16.2889 C   0  0  0  0  0  0  0  0  0  0  0  0
   20.7899  -12.9354  -16.4337 N   0  0  0  0  0  0  0  0  0  0  0  0
   23.9858  -10.2782  -16.2488 C   0  0  0  0  0  0  0  0  0  0  0  0
   24.2836   -9.7602  -17.3464 O   0  0  0  0  0  0  0  0  0  0  0  0
   24.8376  -11.2898  -15.8008 O   0  0  0  0  0  0  0  0  0  0  0  0
  2  4  1  0
  2  1  1  0
  3  2  2  0
  5  4  1  0
  5  6  1  6
  7  8  2  0
  7  5  1  0
  9 10  1  0
 10 20  2  0
 11 12  2  0
 11 10  1  0
 12 13  1  0
 13 14  1  0
 13 19  2  0
 15 14  1  1
 15 16  1  0
 16  7  1  0
 17 18  2  0
 17 15  1  0
 20 19  1  0
 21 17  1  0
 22 21  1  0
 22 23  1  6
 23 24  1  0
 24 25  2  0
 25 26  1  0
 27 26  1  0
 28 24  1  0
 28 27  2  0
 29 22  1  0
 30 29  2  0
 31 29  1  0
M  END
$$$$
