NYH.pdb
     RDKit          3D

 31 32  0  0  1  0  0  0  0  0999 V2000
   32.6354  -24.7274  -17.6711 N   0  0  0  0  0  0  0  0  0  0  0  0
   31.5117  -24.4158  -16.8739 C   0  0  0  0  0  0  0  0  0  0  0  0
   31.3042  -25.1337  -15.8674 O   0  0  0  0  0  0  0  0  0  0  0  0
   30.6057  -23.3105  -17.1773 C   0  0  0  0  0  0  0  0  0  0  0  0
   29.1679  -23.5562  -16.8139 C   0  0  2  0  0  0  0  0  0  0  0  0
   28.6569  -24.7124  -17.5180 N   0  0  0  0  0  0  0  0  0  0  0  0
   28.3020  -22.3603  -17.0239 C   0  0  0  0  0  0  0  0  0  0  0  0
   28.6178  -21.2737  -16.4749 O   0  0  0  0  0  0  0  0  0  0  0  0
   21.7872  -17.1539  -20.2745 O   0  0  0  0  0  0  0  0  0  0  0  0
   22.8196  -18.0867  -20.0474 C   0  0  0  0  0  0  0  0  0  0  0  0
   24.0962  -17.6734  -19.7395 C   0  0  0  0  0  0  0  0  0  0  0  0
   25.0996  -18.5965  -19.5189 C   0  0  0  0  0  0  0  0  0  0  0  0
   24.8849  -19.9554  -19.5929 C   0  0  0  0  0  0  0  0  0  0  0  0
   25.9469  -20.9360  -19.3574 C   0  0  0  0  0  0  0  0  0  0  0  0
   26.2337  -21.2486  -17.9303 C   0  0  2  0  0  0  0  0  0  0  0  0
   27.1288  -22.3823  -17.8164 N   0  0  0  0  0  0  0  0  0  0  0  0
   25.0762  -21.4221  -17.0580 C   0  0  0  0  0  0  0  0  0  0  0  0
   24.4198  -22.5165  -17.0969 O   0  0  0  0  0  0  0  0  0  0  0  0
   23.6050  -20.3594  -19.9013 C   0  0  0  0  0  0  0  0  0  0  0  0
   22.5835  -19.4396  -20.1263 C   0  0  0  0  0  0  0  0  0  0  0  0
   24.6040  -20.4553  -16.1430 N   0  0  0  0  0  0  0  0  0  0  0  0
   23.4144  -20.6993  -15.3106 C   0  0  1  0  0  0  0  0  0  0  0  0
   23.4599  -19.6175  -14.2470 C   0  0  0  0  0  0  0  0  0  0  0  0
   22.3619  -19.6765  -13.2858 C   0  0  0  0  0  0  0  0  0  0  0  0
   21.3041  -20.5549  -13.3006 C   0  0  0  0  0  0  0  0  0  0  0  0
   20.4998  -20.2795  -12.2414 N   0  0  0  0  0  0  0  0  0  0  0  0
   21.0498  -19.2352  -11.5670 C   0  0  0  0  0  0  0  0  0  0  0  0
   22.1838  -18.8814  -12.2185 N   0  0  0  0  0  0  0  0  0  0  0  0
   22.1820  -20.5613  -16.1186 C   0  0  0  0  0  0  0  0  0  0  0  0
   21.9500  -19.6443  -16.9354 O   0  0  0  0  0  0  0  0  0  0  0  0
   21.1779  -21.5212  -15.9780 O   0  0  0  0  0  0  0  0  0  0  0  0
  2  4  1  0
  2  1  1  0
  3  2  2  0
  5  4  1  0
  5  6  1  6
  7  8  2  0
  7  5  1  0
  9 10  1  0
 10 20  2  0
 11 12  2  0
 11 10  1  0
 12 13  1  0
 13 14  1  0
 13 19  2  0
 15 14  1  6
 15 16  1  0
 16  7  1  0
 17 18  2  0
 17 15  1  0
 20 19  1  0
 21 17  1  0
 22 21  1  0
 22 23  1  1
 23 24  1  0
 24 25  2  0
 25 26  1  0
 27 26  1  0
 28 24  1  0
 28 27  2  0
 29 22  1  0
 30 29  2  0
 31 29  1  0
M  END
$$$$
