NYH.pdb
     RDKit          3D

 31 32  0  0  1  0  0  0  0  0999 V2000
   21.8537  -15.1641  -18.8929 N   0  0  0  0  0  0  0  0  0  0  0  0
   22.0351  -15.0907  -17.4938 C   0  0  0  0  0  0  0  0  0  0  0  0
   21.7765  -16.1196  -16.8261 O   0  0  0  0  0  0  0  0  0  0  0  0
   22.5029  -13.8835  -16.8169 C   0  0  0  0  0  0  0  0  0  0  0  0
   22.7327  -12.7036  -17.7195 C   0  0  2  0  0  0  0  0  0  0  0  0
   23.7854  -12.9893  -18.6703 N   0  0  0  0  0  0  0  0  0  0  0  0
   22.9984  -11.4413  -16.9712 C   0  0  0  0  0  0  0  0  0  0  0  0
   22.5025  -11.2952  -15.8246 O   0  0  0  0  0  0  0  0  0  0  0  0
   29.1234  -12.9996  -15.4354 O   0  0  0  0  0  0  0  0  0  0  0  0
   28.2300  -11.9653  -15.7809 C   0  0  0  0  0  0  0  0  0  0  0  0
   28.0650  -11.5764  -17.0912 C   0  0  0  0  0  0  0  0  0  0  0  0
   27.1866  -10.5617  -17.4177 C   0  0  0  0  0  0  0  0  0  0  0  0
   26.4410   -9.8946  -16.4706 C   0  0  0  0  0  0  0  0  0  0  0  0
   25.5075   -8.8198  -16.8148 C   0  0  0  0  0  0  0  0  0  0  0  0
   24.0625   -9.1715  -16.7461 C   0  0  2  0  0  0  0  0  0  0  0  0
   23.7872  -10.3851  -17.4881 N   0  0  0  0  0  0  0  0  0  0  0  0
   23.1198   -8.1207  -17.1178 C   0  0  0  0  0  0  0  0  0  0  0  0
   23.0249   -7.7670  -18.3410 O   0  0  0  0  0  0  0  0  0  0  0  0
   26.6125  -10.2904  -15.1628 C   0  0  0  0  0  0  0  0  0  0  0  0
   27.4947  -11.3120  -14.8191 C   0  0  0  0  0  0  0  0  0  0  0  0
   22.2740   -7.4399  -16.2146 N   0  0  0  0  0  0  0  0  0  0  0  0
   21.3153   -6.4220  -16.6755 C   0  0  1  0  0  0  0  0  0  0  0  0
   19.9910   -6.8323  -16.0580 C   0  0  0  0  0  0  0  0  0  0  0  0
   19.3290   -7.9398  -16.7423 C   0  0  0  0  0  0  0  0  0  0  0  0
   19.7683   -8.5860  -17.8737 C   0  0  0  0  0  0  0  0  0  0  0  0
   18.8694   -9.5521  -18.1953 N   0  0  0  0  0  0  0  0  0  0  0  0
   17.8731   -9.5117  -17.2714 C   0  0  0  0  0  0  0  0  0  0  0  0
   18.1706   -8.5230  -16.3944 N   0  0  0  0  0  0  0  0  0  0  0  0
   21.7084   -5.0825  -16.1835 C   0  0  0  0  0  0  0  0  0  0  0  0
   22.6345   -4.8498  -15.3773 O   0  0  0  0  0  0  0  0  0  0  0  0
   21.0038   -3.9675  -16.6413 O   0  0  0  0  0  0  0  0  0  0  0  0
  2  4  1  0
  2  1  1  0
  3  2  2  0
  5  4  1  0
  5  6  1  6
  7  8  2  0
  7  5  1  0
  9 10  1  0
 10 20  2  0
 11 12  2  0
 11 10  1  0
 12 13  1  0
 13 14  1  0
 13 19  2  0
 15 14  1  6
 15 16  1  0
 16  7  1  0
 17 18  2  0
 17 15  1  0
 20 19  1  0
 21 17  1  0
 22 21  1  0
 22 23  1  1
 23 24  1  0
 24 25  2  0
 25 26  1  0
 27 26  1  0
 28 24  1  0
 28 27  2  0
 29 22  1  0
 30 29  2  0
 31 29  1  0
M  END
$$$$
