NYH.pdb
     RDKit          3D

 31 32  0  0  1  0  0  0  0  0999 V2000
   29.2391  -10.2224  -17.6881 N   0  0  0  0  0  0  0  0  0  0  0  0
   28.7478   -8.9005  -17.6059 C   0  0  0  0  0  0  0  0  0  0  0  0
   29.5921   -7.9741  -17.5825 O   0  0  0  0  0  0  0  0  0  0  0  0
   27.3223   -8.5861  -17.5486 C   0  0  0  0  0  0  0  0  0  0  0  0
   26.4179   -9.7805  -17.4261 C   0  0  2  0  0  0  0  0  0  0  0  0
   26.6147  -10.6826  -18.5402 N   0  0  0  0  0  0  0  0  0  0  0  0
   24.9820   -9.4097  -17.2688 C   0  0  0  0  0  0  0  0  0  0  0  0
   24.2935   -9.1839  -18.2969 O   0  0  0  0  0  0  0  0  0  0  0  0
   21.4467  -14.8907  -18.1484 O   0  0  0  0  0  0  0  0  0  0  0  0
   21.6375  -13.7047  -17.4107 C   0  0  0  0  0  0  0  0  0  0  0  0
   20.9070  -12.5707  -17.6861 C   0  0  0  0  0  0  0  0  0  0  0  0
   21.1027  -11.4144  -16.9566 C   0  0  0  0  0  0  0  0  0  0  0  0
   22.0208  -11.3313  -15.9328 C   0  0  0  0  0  0  0  0  0  0  0  0
   22.2284  -10.1068  -15.1565 C   0  0  0  0  0  0  0  0  0  0  0  0
   22.9325   -9.0031  -15.8654 C   0  0  2  0  0  0  0  0  0  0  0  0
   24.3443   -9.2955  -16.0098 N   0  0  0  0  0  0  0  0  0  0  0  0
   22.7417   -7.6596  -15.3275 C   0  0  0  0  0  0  0  0  0  0  0  0
   23.6464   -7.1458  -14.5874 O   0  0  0  0  0  0  0  0  0  0  0  0
   22.7467  -12.4704  -15.6644 C   0  0  0  0  0  0  0  0  0  0  0  0
   22.5599  -13.6433  -16.3920 C   0  0  0  0  0  0  0  0  0  0  0  0
   21.6084   -6.8503  -15.5630 N   0  0  0  0  0  0  0  0  0  0  0  0
   21.5276   -5.4714  -15.0532 C   0  0  1  0  0  0  0  0  0  0  0  0
   22.6374   -4.7284  -15.7743 C   0  0  0  0  0  0  0  0  0  0  0  0
   22.6777   -3.2953  -15.4956 C   0  0  0  0  0  0  0  0  0  0  0  0
   21.8806   -2.6083  -14.6105 C   0  0  0  0  0  0  0  0  0  0  0  0
   22.2268   -1.2954  -14.6474 N   0  0  0  0  0  0  0  0  0  0  0  0
   23.2344   -1.1604  -15.5499 C   0  0  0  0  0  0  0  0  0  0  0  0
   23.4953   -2.3896  -16.0562 N   0  0  0  0  0  0  0  0  0  0  0  0
   20.2169   -4.8724  -15.3908 C   0  0  0  0  0  0  0  0  0  0  0  0
   19.5965   -5.0434  -16.4620 O   0  0  0  0  0  0  0  0  0  0  0  0
   19.5980   -4.0433  -14.4532 O   0  0  0  0  0  0  0  0  0  0  0  0
  2  4  1  0
  2  1  1  0
  3  2  2  0
  5  4  1  0
  5  6  1  6
  7  8  2  0
  7  5  1  0
  9 10  1  0
 10 20  2  0
 11 12  2  0
 11 10  1  0
 12 13  1  0
 13 14  1  0
 13 19  2  0
 15 14  1  1
 15 16  1  0
 16  7  1  0
 17 18  2  0
 17 15  1  0
 20 19  1  0
 21 17  1  0
 22 21  1  0
 22 23  1  6
 23 24  1  0
 24 25  2  0
 25 26  1  0
 27 26  1  0
 28 24  1  0
 28 27  2  0
 29 22  1  0
 30 29  2  0
 31 29  1  0
M  END
$$$$
