EYL.pdb
     RDKit          3D

 30 30  0  0  1  0  0  0  0  0999 V2000
    8.6782  -17.9179   19.3401 N   0  0  0  0  0  0  0  0  0  0  0  0
    7.5613  -17.0268   19.6752 C   0  0  1  0  0  0  0  0  0  0  0  0
    6.3614  -17.3468   18.8026 C   0  0  0  0  0  0  0  0  0  0  0  0
    6.6934  -18.1654   17.6005 C   0  0  0  0  0  0  0  0  0  0  0  0
    7.4868  -17.2793   16.6765 C   0  0  0  0  0  0  0  0  0  0  0  0
    8.2242  -16.3600   17.1055 O   0  0  0  0  0  0  0  0  0  0  0  0
    7.2888  -17.1272   21.1117 C   0  0  0  0  0  0  0  0  0  0  0  0
    6.3316  -16.5439   21.6863 O   0  0  0  0  0  0  0  0  0  0  0  0
    7.4094  -17.4740   15.3108 O   0  0  0  0  0  0  0  0  0  0  0  0
    7.8342  -19.4182   29.5829 O   0  0  0  0  0  0  0  0  0  0  0  0
    8.0056  -19.3572   28.2084 C   0  0  0  0  0  0  0  0  0  0  0  0
    6.9737  -19.6359   27.3488 C   0  0  0  0  0  0  0  0  0  0  0  0
    7.1668  -19.5689   25.9890 C   0  0  0  0  0  0  0  0  0  0  0  0
    8.4132  -19.2169   25.4588 C   0  0  0  0  0  0  0  0  0  0  0  0
    8.6141  -19.1737   24.0034 C   0  0  0  0  0  0  0  0  0  0  0  0
    7.8934  -18.0039   23.4141 C   0  0  2  0  0  0  0  0  0  0  0  0
    8.1370  -17.9283   21.9593 N   0  0  0  0  0  0  0  0  0  0  0  0
    8.3840  -16.7368   23.9941 C   0  0  0  0  0  0  0  0  0  0  0  0
    9.5209  -16.2436   23.7034 O   0  0  0  0  0  0  0  0  0  0  0  0
    9.4368  -18.9409   26.3305 C   0  0  0  0  0  0  0  0  0  0  0  0
    9.2557  -19.0047   27.7168 C   0  0  0  0  0  0  0  0  0  0  0  0
    7.6415  -11.6729   25.5445 C   0  0  0  0  0  0  0  0  0  0  0  0
    7.1016  -12.6881   26.6209 C   0  0  1  0  0  0  0  0  0  0  0  0
    5.8510  -12.0250   27.1115 C   0  0  0  0  0  0  0  0  0  0  0  0
    6.9573  -13.9496   25.8774 C   0  0  0  0  0  0  0  0  0  0  0  0
    8.1400  -14.7423   25.4951 C   0  0  2  0  0  0  0  0  0  0  0  0
    7.6145  -16.0014   24.9064 N   0  0  0  0  0  0  0  0  0  0  0  0
    9.0364  -15.0752   26.5983 C   0  0  0  0  0  0  0  0  0  0  0  0
   10.2975  -14.4886   26.6812 O   0  0  0  0  0  0  0  0  0  0  0  0
    8.7229  -15.8750   27.4886 O   0  0  0  0  0  0  0  0  0  0  0  0
  2  3  1  0
  2  1  1  6
  4  5  1  0
  4  3  1  0
  5  6  2  0
  7  2  1  0
  8  7  2  0
  9  5  1  0
 11 10  1  0
 11 21  2  0
 12 11  1  0
 13 12  2  0
 13 14  1  0
 14 20  2  0
 15 14  1  0
 16 15  1  1
 16 17  1  0
 17  7  1  0
 18 16  1  0
 18 19  2  0
 20 21  1  0
 23 22  1  6
 23 25  1  0
 24 23  1  0
 26 25  1  1
 26 27  1  0
 27 18  1  0
 28 29  1  0
 28 26  1  0
 30 28  2  0
M  END
$$$$
