EYL.pdb
     RDKit          3D

 30 30  0  0  1  0  0  0  0  0999 V2000
    9.8976  -18.8077   19.1823 N   0  0  0  0  0  0  0  0  0  0  0  0
    9.0552  -18.4742   20.3368 C   0  0  1  0  0  0  0  0  0  0  0  0
    9.0246  -19.6377   21.3109 C   0  0  0  0  0  0  0  0  0  0  0  0
    8.8973  -20.9701   20.6524 C   0  0  0  0  0  0  0  0  0  0  0  0
    7.4481  -21.1323   20.2755 C   0  0  0  0  0  0  0  0  0  0  0  0
    6.5408  -21.2144   21.1375 O   0  0  0  0  0  0  0  0  0  0  0  0
    9.5355  -17.2226   20.9288 C   0  0  0  0  0  0  0  0  0  0  0  0
   10.7444  -16.8687   20.9358 O   0  0  0  0  0  0  0  0  0  0  0  0
    7.0925  -21.1942   18.9419 O   0  0  0  0  0  0  0  0  0  0  0  0
    7.5758  -13.1968   16.2414 O   0  0  0  0  0  0  0  0  0  0  0  0
    7.6967  -13.3967   17.6081 C   0  0  0  0  0  0  0  0  0  0  0  0
    6.9521  -14.3482   18.2574 C   0  0  0  0  0  0  0  0  0  0  0  0
    7.0887  -14.5290   19.6136 C   0  0  0  0  0  0  0  0  0  0  0  0
    7.9854  -13.7499   20.3536 C   0  0  0  0  0  0  0  0  0  0  0  0
    8.1038  -13.9352   21.8069 C   0  0  0  0  0  0  0  0  0  0  0  0
    9.0785  -15.0266   22.1137 C   0  0  2  0  0  0  0  0  0  0  0  0
    8.6093  -16.3094   21.5515 N   0  0  0  0  0  0  0  0  0  0  0  0
    9.2067  -15.2229   23.5724 C   0  0  0  0  0  0  0  0  0  0  0  0
   10.2827  -14.9765   24.2062 O   0  0  0  0  0  0  0  0  0  0  0  0
    8.7239  -12.8015   19.6911 C   0  0  0  0  0  0  0  0  0  0  0  0
    8.5960  -12.6058   18.3112 C   0  0  0  0  0  0  0  0  0  0  0  0
    7.9151  -12.7568   27.5342 C   0  0  0  0  0  0  0  0  0  0  0  0
    6.6680  -13.6321   27.1347 C   0  0  1  0  0  0  0  0  0  0  0  0
    5.5463  -12.6392   27.1338 C   0  0  0  0  0  0  0  0  0  0  0  0
    7.0517  -14.2280   25.8452 C   0  0  0  0  0  0  0  0  0  0  0  0
    8.0250  -15.3334   25.7819 C   0  0  2  0  0  0  0  0  0  0  0  0
    8.1374  -15.6965   24.3453 N   0  0  0  0  0  0  0  0  0  0  0  0
    7.6507  -16.5226   26.5415 C   0  0  0  0  0  0  0  0  0  0  0  0
    8.1858  -16.7450   27.8085 O   0  0  0  0  0  0  0  0  0  0  0  0
    6.8595  -17.3668   26.1034 O   0  0  0  0  0  0  0  0  0  0  0  0
  2  3  1  0
  2  1  1  6
  4  5  1  0
  4  3  1  0
  5  6  2  0
  7  2  1  0
  8  7  2  0
  9  5  1  0
 11 10  1  0
 11 21  2  0
 12 11  1  0
 13 12  2  0
 13 14  1  0
 14 20  2  0
 15 14  1  0
 16 15  1  1
 16 17  1  0
 17  7  1  0
 18 16  1  0
 18 19  2  0
 20 21  1  0
 23 22  1  6
 23 25  1  0
 24 23  1  0
 26 25  1  6
 26 27  1  0
 27 18  1  0
 28 29  1  0
 28 26  1  0
 30 28  2  0
M  END
$$$$
