EYL.pdb
     RDKit          3D

 30 30  0  0  1  0  0  0  0  0999 V2000
    7.4369  -20.1974   20.1227 N   0  0  0  0  0  0  0  0  0  0  0  0
    8.1525  -18.9639   20.4691 C   0  0  1  0  0  0  0  0  0  0  0  0
    7.8310  -17.8761   19.4607 C   0  0  0  0  0  0  0  0  0  0  0  0
    8.3950  -18.1291   18.1030 C   0  0  0  0  0  0  0  0  0  0  0  0
    8.0753  -16.9179   17.2666 C   0  0  0  0  0  0  0  0  0  0  0  0
    7.5184  -15.9032   17.7494 O   0  0  0  0  0  0  0  0  0  0  0  0
    7.8291  -18.6000   21.8514 C   0  0  0  0  0  0  0  0  0  0  0  0
    6.6688  -18.3107   22.2473 O   0  0  0  0  0  0  0  0  0  0  0  0
    8.4002  -16.9107   15.9238 O   0  0  0  0  0  0  0  0  0  0  0  0
    6.4724  -22.4779   28.5069 O   0  0  0  0  0  0  0  0  0  0  0  0
    7.2021  -21.6425   27.6750 C   0  0  0  0  0  0  0  0  0  0  0  0
    7.9284  -22.1415   26.6239 C   0  0  0  0  0  0  0  0  0  0  0  0
    8.6445  -21.2939   25.8117 C   0  0  0  0  0  0  0  0  0  0  0  0
    8.6460  -19.9133   26.0408 C   0  0  0  0  0  0  0  0  0  0  0  0
    9.4360  -19.0203   25.1812 C   0  0  0  0  0  0  0  0  0  0  0  0
    8.5381  -18.2553   24.2626 C   0  0  2  0  0  0  0  0  0  0  0  0
    8.8648  -18.5564   22.8540 N   0  0  0  0  0  0  0  0  0  0  0  0
    8.7205  -16.7999   24.4399 C   0  0  0  0  0  0  0  0  0  0  0  0
    9.6451  -16.1479   23.8567 O   0  0  0  0  0  0  0  0  0  0  0  0
    7.9151  -19.4279   27.0962 C   0  0  0  0  0  0  0  0  0  0  0  0
    7.1812  -20.2779   27.9314 C   0  0  0  0  0  0  0  0  0  0  0  0
    6.7871  -11.7468   25.2217 C   0  0  0  0  0  0  0  0  0  0  0  0
    6.8612  -12.6447   26.5136 C   0  0  1  0  0  0  0  0  0  0  0  0
    5.6406  -12.2343   27.2792 C   0  0  0  0  0  0  0  0  0  0  0  0
    6.9062  -14.0184   25.9884 C   0  0  0  0  0  0  0  0  0  0  0  0
    8.1829  -14.6297   25.5763 C   0  0  2  0  0  0  0  0  0  0  0  0
    7.8749  -16.0507   25.2698 N   0  0  0  0  0  0  0  0  0  0  0  0
    9.2378  -14.5821   26.5844 C   0  0  0  0  0  0  0  0  0  0  0  0
   10.2497  -13.6283   26.4990 O   0  0  0  0  0  0  0  0  0  0  0  0
    9.2789  -15.3693   27.5380 O   0  0  0  0  0  0  0  0  0  0  0  0
  2  3  1  0
  2  1  1  6
  4  5  1  0
  4  3  1  0
  5  6  2  0
  7  2  1  0
  8  7  2  0
  9  5  1  0
 11 10  1  0
 11 21  2  0
 12 11  1  0
 13 12  2  0
 13 14  1  0
 14 20  2  0
 15 14  1  0
 16 15  1  1
 16 17  1  0
 17  7  1  0
 18 16  1  0
 18 19  2  0
 20 21  1  0
 23 22  1  6
 23 25  1  0
 24 23  1  0
 26 25  1  1
 26 27  1  0
 27 18  1  0
 28 29  1  0
 28 26  1  0
 30 28  2  0
M  END
$$$$
