EYL.pdb
     RDKit          3D

 30 30  0  0  1  0  0  0  0  0999 V2000
   11.2948  -17.6155   19.4959 N   0  0  0  0  0  0  0  0  0  0  0  0
   10.5837  -18.0664   20.6978 C   0  0  1  0  0  0  0  0  0  0  0  0
   11.3653  -19.1751   21.3787 C   0  0  0  0  0  0  0  0  0  0  0  0
   11.8064  -20.2569   20.4511 C   0  0  0  0  0  0  0  0  0  0  0  0
   12.5220  -21.2835   21.2893 C   0  0  0  0  0  0  0  0  0  0  0  0
   12.3432  -21.3746   22.5273 O   0  0  0  0  0  0  0  0  0  0  0  0
   10.3291  -16.9095   21.5606 C   0  0  0  0  0  0  0  0  0  0  0  0
   11.0711  -15.8926   21.6072 O   0  0  0  0  0  0  0  0  0  0  0  0
   13.4062  -22.1590   20.6886 O   0  0  0  0  0  0  0  0  0  0  0  0
    6.1846  -10.9910   26.5009 O   0  0  0  0  0  0  0  0  0  0  0  0
    6.5084  -12.1389   25.7939 C   0  0  0  0  0  0  0  0  0  0  0  0
    7.3314  -12.0919   24.6977 C   0  0  0  0  0  0  0  0  0  0  0  0
    7.6391  -13.2432   24.0118 C   0  0  0  0  0  0  0  0  0  0  0  0
    7.1211  -14.4786   24.4169 C   0  0  0  0  0  0  0  0  0  0  0  0
    7.4367  -15.6986   23.6603 C   0  0  0  0  0  0  0  0  0  0  0  0
    8.8738  -15.6970   23.2480 C   0  0  2  0  0  0  0  0  0  0  0  0
    9.1749  -16.8859   22.4248 N   0  0  0  0  0  0  0  0  0  0  0  0
    9.7600  -15.7611   24.4283 C   0  0  0  0  0  0  0  0  0  0  0  0
   10.5831  -14.8349   24.7197 O   0  0  0  0  0  0  0  0  0  0  0  0
    6.2987  -14.5109   25.5153 C   0  0  0  0  0  0  0  0  0  0  0  0
    5.9766  -13.3476   26.2236 C   0  0  0  0  0  0  0  0  0  0  0  0
   10.8611  -13.6712   27.2246 C   0  0  0  0  0  0  0  0  0  0  0  0
   10.4173  -14.7954   28.2346 C   0  0  1  0  0  0  0  0  0  0  0  0
    9.6272  -14.0370   29.2566 C   0  0  0  0  0  0  0  0  0  0  0  0
    9.6937  -15.7619   27.3935 C   0  0  0  0  0  0  0  0  0  0  0  0
   10.4203  -16.7854   26.6204 C   0  0  2  0  0  0  0  0  0  0  0  0
    9.7414  -16.8583   25.3006 N   0  0  0  0  0  0  0  0  0  0  0  0
   10.4277  -18.1158   27.2215 C   0  0  0  0  0  0  0  0  0  0  0  0
    9.2862  -18.9135   27.1780 O   0  0  0  0  0  0  0  0  0  0  0  0
   11.4257  -18.5833   27.7838 O   0  0  0  0  0  0  0  0  0  0  0  0
  2  3  1  0
  2  1  1  6
  4  5  1  0
  4  3  1  0
  5  6  2  0
  7  2  1  0
  8  7  2  0
  9  5  1  0
 11 10  1  0
 11 21  2  0
 12 11  1  0
 13 12  2  0
 13 14  1  0
 14 20  2  0
 15 14  1  0
 16 15  1  1
 16 17  1  0
 17  7  1  0
 18 16  1  0
 18 19  2  0
 20 21  1  0
 23 22  1  6
 23 25  1  0
 24 23  1  0
 26 25  1  1
 26 27  1  0
 27 18  1  0
 28 29  1  0
 28 26  1  0
 30 28  2  0
M  END
$$$$
