LTK.pdb
     RDKit          3D

 25 24  0  0  1  0  0  0  0  0999 V2000
    5.2615  -11.9952   25.9704 C   0  0  0  0  0  0  0  0  0  0  0  0
    6.3298  -12.6859   26.7439 C   0  0  2  0  0  0  0  0  0  0  0  0
    7.3062  -11.7204   27.3850 C   0  0  0  0  0  0  0  0  0  0  0  0
    7.0919  -13.7115   25.9600 C   0  0  0  0  0  0  0  0  0  0  0  0
    6.2367  -14.7293   25.2838 C   0  0  2  0  0  0  0  0  0  0  0  0
    5.5080  -15.4823   26.2553 N   0  0  0  0  0  0  0  0  0  0  0  0
    7.1390  -15.5858   24.4530 C   0  0  0  0  0  0  0  0  0  0  0  0
    7.4882  -16.7078   24.9012 O   0  0  0  0  0  0  0  0  0  0  0  0
    7.0700  -15.1003   20.5368 C   0  0  0  0  0  0  0  0  0  0  0  0
    8.4880  -15.4340   20.9728 C   0  0  1  0  0  0  0  0  0  0  0  0
    9.2717  -14.2669   20.9456 O   0  0  0  0  0  0  0  0  0  0  0  0
    8.5124  -16.0100   22.3733 C   0  0  2  0  0  0  0  0  0  0  0  0
    7.6249  -15.2052   23.1856 N   0  0  0  0  0  0  0  0  0  0  0  0
    9.9138  -15.9597   22.8514 C   0  0  0  0  0  0  0  0  0  0  0  0
   10.2419  -14.9560   23.5358 O   0  0  0  0  0  0  0  0  0  0  0  0
   10.8742  -16.9405   22.5931 N   0  0  0  0  0  0  0  0  0  0  0  0
   12.1538  -16.9514   23.4018 C   0  0  1  0  0  0  0  0  0  0  0  0
   11.9845  -18.0763   24.3383 C   0  0  0  0  0  0  0  0  0  0  0  0
   13.0066  -18.5489   25.2546 C   0  0  0  0  0  0  0  0  0  0  0  0
   12.7874  -19.6328   26.2206 C   0  0  0  0  0  0  0  0  0  0  0  0
   14.1562  -19.8072   26.9617 C   0  0  0  0  0  0  0  0  0  0  0  0
   14.0073  -20.7423   28.0522 N   0  0  0  0  0  0  0  0  0  0  0  0
   13.2398  -17.1278   22.4160 C   0  0  0  0  0  0  0  0  0  0  0  0
   14.5336  -16.6717   22.7882 O   0  0  0  0  0  0  0  0  0  0  0  0
   13.1566  -17.6327   21.2867 O   0  0  0  0  0  0  0  0  0  0  0  0
  2  1  1  6
  2  3  1  0
  4  2  1  0
  5  7  1  0
  5  4  1  0
  5  6  1  1
  7  8  2  0
 10  9  1  1
 10 11  1  0
 12 10  1  0
 12 13  1  1
 13  7  1  0
 14 12  1  0
 15 14  2  0
 16 14  1  0
 17 16  1  0
 17 18  1  1
 19 18  1  0
 20 19  1  0
 21 20  1  0
 22 21  1  0
 23 24  1  0
 23 17  1  0
 25 23  2  0
M  END
$$$$
