LTK.pdb
     RDKit          3D

 25 24  0  0  1  0  0  0  0  0999 V2000
    8.7670  -13.5502   20.4390 C   0  0  0  0  0  0  0  0  0  0  0  0
    8.5176  -13.1464   19.0279 C   0  0  2  0  0  0  0  0  0  0  0  0
    7.4730  -12.0551   18.9068 C   0  0  0  0  0  0  0  0  0  0  0  0
    8.1544  -14.2810   18.1181 C   0  0  0  0  0  0  0  0  0  0  0  0
    9.0926  -15.4391   18.1742 C   0  0  2  0  0  0  0  0  0  0  0  0
    8.9420  -16.2504   17.0077 N   0  0  0  0  0  0  0  0  0  0  0  0
    8.7987  -16.1877   19.4355 C   0  0  0  0  0  0  0  0  0  0  0  0
    7.7573  -16.8905   19.4921 O   0  0  0  0  0  0  0  0  0  0  0  0
    8.8116  -18.9441   20.2973 C   0  0  0  0  0  0  0  0  0  0  0  0
    9.8068  -18.4120   21.3164 C   0  0  1  0  0  0  0  0  0  0  0  0
   11.0971  -18.4203   20.7575 O   0  0  0  0  0  0  0  0  0  0  0  0
    9.4622  -16.9982   21.7364 C   0  0  2  0  0  0  0  0  0  0  0  0
    9.6284  -16.1510   20.5746 N   0  0  0  0  0  0  0  0  0  0  0  0
   10.3773  -16.6258   22.8404 C   0  0  0  0  0  0  0  0  0  0  0  0
   11.4886  -16.1350   22.5122 O   0  0  0  0  0  0  0  0  0  0  0  0
   10.0864  -16.7836   24.1974 N   0  0  0  0  0  0  0  0  0  0  0  0
   11.0114  -16.1699   25.2267 C   0  0  1  0  0  0  0  0  0  0  0  0
   10.1288  -15.8371   26.3586 C   0  0  0  0  0  0  0  0  0  0  0  0
   10.5835  -15.3142   27.6343 C   0  0  0  0  0  0  0  0  0  0  0  0
    9.6869  -15.0574   28.7685 C   0  0  0  0  0  0  0  0  0  0  0  0
   10.6156  -14.5406   29.9190 C   0  0  0  0  0  0  0  0  0  0  0  0
    9.8179  -14.1772   31.0667 N   0  0  0  0  0  0  0  0  0  0  0  0
   12.0207  -17.2090   25.5166 C   0  0  0  0  0  0  0  0  0  0  0  0
   13.3178  -16.7658   25.8927 O   0  0  0  0  0  0  0  0  0  0  0  0
   11.8698  -18.4387   25.4700 O   0  0  0  0  0  0  0  0  0  0  0  0
  2  1  1  1
  2  3  1  0
  4  2  1  0
  5  7  1  0
  5  4  1  0
  5  6  1  6
  7  8  2  0
 10  9  1  6
 10 11  1  0
 12 10  1  0
 12 13  1  6
 13  7  1  0
 14 12  1  0
 15 14  2  0
 16 14  1  0
 17 16  1  0
 17 18  1  1
 19 18  1  0
 20 19  1  0
 21 20  1  0
 22 21  1  0
 23 24  1  0
 23 17  1  0
 25 23  2  0
M  END
$$$$
