LTK.pdb
     RDKit          3D

 25 24  0  0  1  0  0  0  0  0999 V2000
   10.0374  -12.8272   19.5205 C   0  0  0  0  0  0  0  0  0  0  0  0
    8.6598  -13.0876   19.0196 C   0  0  2  0  0  0  0  0  0  0  0  0
    7.6688  -12.0256   19.4518 C   0  0  0  0  0  0  0  0  0  0  0  0
    8.1209  -14.4403   19.3757 C   0  0  0  0  0  0  0  0  0  0  0  0
    9.0497  -15.5695   19.0812 C   0  0  2  0  0  0  0  0  0  0  0  0
    8.7456  -16.1358   17.8051 N   0  0  0  0  0  0  0  0  0  0  0  0
    8.9129  -16.5588   20.1951 C   0  0  0  0  0  0  0  0  0  0  0  0
    8.0047  -17.4260   20.1247 O   0  0  0  0  0  0  0  0  0  0  0  0
    9.0928  -19.3605   20.7006 C   0  0  0  0  0  0  0  0  0  0  0  0
   10.1182  -18.9000   21.7246 C   0  0  1  0  0  0  0  0  0  0  0  0
   11.3641  -18.7319   21.0948 O   0  0  0  0  0  0  0  0  0  0  0  0
    9.7088  -17.5886   22.3624 C   0  0  2  0  0  0  0  0  0  0  0  0
    9.7501  -16.5757   21.3292 N   0  0  0  0  0  0  0  0  0  0  0  0
   10.6626  -17.3108   23.4615 C   0  0  0  0  0  0  0  0  0  0  0  0
   11.7768  -16.8262   23.1341 O   0  0  0  0  0  0  0  0  0  0  0  0
   10.4045  -17.5500   24.8133 N   0  0  0  0  0  0  0  0  0  0  0  0
   11.3768  -17.0344   25.8527 C   0  0  1  0  0  0  0  0  0  0  0  0
   10.5172  -16.4989   26.9230 C   0  0  0  0  0  0  0  0  0  0  0  0
   10.9985  -16.0163   28.2049 C   0  0  0  0  0  0  0  0  0  0  0  0
   10.1246  -15.4239   29.2254 C   0  0  0  0  0  0  0  0  0  0  0  0
   11.0675  -15.0864   30.4296 C   0  0  0  0  0  0  0  0  0  0  0  0
   10.6015  -13.8937   31.0975 N   0  0  0  0  0  0  0  0  0  0  0  0
   12.1911  -18.2036   26.2427 C   0  0  0  0  0  0  0  0  0  0  0  0
   11.6296  -19.4895   26.0154 O   0  0  0  0  0  0  0  0  0  0  0  0
   13.3214  -18.1976   26.7522 O   0  0  0  0  0  0  0  0  0  0  0  0
  2  1  1  1
  2  3  1  0
  4  2  1  0
  5  7  1  0
  5  4  1  0
  5  6  1  6
  7  8  2  0
 10  9  1  6
 10 11  1  0
 12 10  1  0
 12 13  1  6
 13  7  1  0
 14 12  1  0
 15 14  2  0
 16 14  1  0
 17 16  1  0
 17 18  1  1
 19 18  1  0
 20 19  1  0
 21 20  1  0
 22 21  1  0
 23 24  1  0
 23 17  1  0
 25 23  2  0
M  END
$$$$
