LTK.pdb
     RDKit          3D

 25 24  0  0  1  0  0  0  0  0999 V2000
    9.3500  -12.0285   19.0295 C   0  0  0  0  0  0  0  0  0  0  0  0
    8.2660  -13.0408   18.9004 C   0  0  2  0  0  0  0  0  0  0  0  0
    6.8908  -12.4147   18.7838 C   0  0  0  0  0  0  0  0  0  0  0  0
    8.2501  -14.0681   19.9919 C   0  0  0  0  0  0  0  0  0  0  0  0
    9.5748  -14.6970   20.2641 C   0  0  2  0  0  0  0  0  0  0  0  0
   10.0934  -15.2866   19.0702 N   0  0  0  0  0  0  0  0  0  0  0  0
    9.3747  -15.6977   21.3579 C   0  0  0  0  0  0  0  0  0  0  0  0
    8.5735  -15.4241   22.2879 O   0  0  0  0  0  0  0  0  0  0  0  0
    9.5157  -19.7533   20.8173 C   0  0  0  0  0  0  0  0  0  0  0  0
   10.3891  -19.2377   21.9502 C   0  0  1  0  0  0  0  0  0  0  0  0
   11.7070  -19.0761   21.4874 O   0  0  0  0  0  0  0  0  0  0  0  0
    9.8851  -17.9085   22.4729 C   0  0  2  0  0  0  0  0  0  0  0  0
   10.0378  -16.9408   21.4074 N   0  0  0  0  0  0  0  0  0  0  0  0
   10.6925  -17.5640   23.6664 C   0  0  0  0  0  0  0  0  0  0  0  0
   11.7749  -16.9561   23.4604 O   0  0  0  0  0  0  0  0  0  0  0  0
   10.3316  -17.8676   24.9812 N   0  0  0  0  0  0  0  0  0  0  0  0
   11.2203  -17.4051   26.1160 C   0  0  1  0  0  0  0  0  0  0  0  0
   10.3765  -16.4729   26.8841 C   0  0  0  0  0  0  0  0  0  0  0  0
   10.7461  -15.8828   28.1580 C   0  0  0  0  0  0  0  0  0  0  0  0
    9.8688  -14.9822   28.9165 C   0  0  0  0  0  0  0  0  0  0  0  0
   10.6452  -14.6691   30.2403 C   0  0  0  0  0  0  0  0  0  0  0  0
    9.8558  -13.7955   31.0765 N   0  0  0  0  0  0  0  0  0  0  0  0
   11.6009  -18.6339   26.8424 C   0  0  0  0  0  0  0  0  0  0  0  0
   12.8476  -18.6236   27.5250 O   0  0  0  0  0  0  0  0  0  0  0  0
   10.9540  -19.6880   26.9289 O   0  0  0  0  0  0  0  0  0  0  0  0
  2  1  1  1
  2  3  1  0
  4  2  1  0
  5  7  1  0
  5  4  1  0
  5  6  1  6
  7  8  2  0
 10  9  1  6
 10 11  1  0
 12 10  1  0
 12 13  1  6
 13  7  1  0
 14 12  1  0
 15 14  2  0
 16 14  1  0
 17 16  1  0
 17 18  1  1
 19 18  1  0
 20 19  1  0
 21 20  1  0
 22 21  1  0
 23 24  1  0
 23 17  1  0
 25 23  2  0
M  END
$$$$
