LTK.pdb
     RDKit          3D

 25 24  0  0  1  0  0  0  0  0999 V2000
    7.0036  -11.9405   25.0918 C   0  0  0  0  0  0  0  0  0  0  0  0
    6.6103  -12.8830   26.1751 C   0  0  2  0  0  0  0  0  0  0  0  0
    6.9939  -12.3838   27.5537 C   0  0  0  0  0  0  0  0  0  0  0  0
    7.1262  -14.2788   25.9939 C   0  0  0  0  0  0  0  0  0  0  0  0
    6.5346  -15.0076   24.8350 C   0  0  2  0  0  0  0  0  0  0  0  0
    5.2980  -15.6143   25.2155 N   0  0  0  0  0  0  0  0  0  0  0  0
    7.5473  -16.0086   24.3763 C   0  0  0  0  0  0  0  0  0  0  0  0
    7.5932  -17.1274   24.9488 O   0  0  0  0  0  0  0  0  0  0  0  0
   11.2275  -17.0410   21.1390 C   0  0  0  0  0  0  0  0  0  0  0  0
   10.1132  -16.1406   21.6488 C   0  0  1  0  0  0  0  0  0  0  0  0
    9.1196  -16.0223   20.6610 O   0  0  0  0  0  0  0  0  0  0  0  0
    9.4881  -16.6987   22.9105 C   0  0  2  0  0  0  0  0  0  0  0  0
    8.4615  -15.7686   23.3303 N   0  0  0  0  0  0  0  0  0  0  0  0
   10.5659  -16.8396   23.9171 C   0  0  0  0  0  0  0  0  0  0  0  0
   11.0937  -15.7757   24.3330 O   0  0  0  0  0  0  0  0  0  0  0  0
   11.0228  -18.0590   24.4225 N   0  0  0  0  0  0  0  0  0  0  0  0
   12.1286  -18.0616   25.4564 C   0  0  1  0  0  0  0  0  0  0  0  0
   11.6822  -19.0372   26.4662 C   0  0  0  0  0  0  0  0  0  0  0  0
   12.2448  -19.1626   27.7987 C   0  0  0  0  0  0  0  0  0  0  0  0
   11.8057  -20.1726   28.7698 C   0  0  0  0  0  0  0  0  0  0  0  0
   12.7031  -19.9466   30.0335 C   0  0  0  0  0  0  0  0  0  0  0  0
   12.3651  -20.9117   31.0534 N   0  0  0  0  0  0  0  0  0  0  0  0
   13.3510  -18.4489   24.7227 C   0  0  0  0  0  0  0  0  0  0  0  0
   14.5877  -17.9503   25.2149 O   0  0  0  0  0  0  0  0  0  0  0  0
   13.4283  -19.1665   23.7147 O   0  0  0  0  0  0  0  0  0  0  0  0
  2  1  1  6
  2  3  1  0
  4  2  1  0
  5  7  1  0
  5  4  1  0
  5  6  1  1
  7  8  2  0
 10  9  1  6
 10 11  1  0
 12 10  1  0
 12 13  1  1
 13  7  1  0
 14 12  1  0
 15 14  2  0
 16 14  1  0
 17 16  1  0
 17 18  1  1
 19 18  1  0
 20 19  1  0
 21 20  1  0
 22 21  1  0
 23 24  1  0
 23 17  1  0
 25 23  2  0
M  END
$$$$
