LTK.pdb
     RDKit          3D

 25 24  0  0  1  0  0  0  0  0999 V2000
    4.9195  -18.6437   16.9535 C   0  0  0  0  0  0  0  0  0  0  0  0
    6.1038  -19.4622   17.3331 C   0  0  2  0  0  0  0  0  0  0  0  0
    5.7323  -20.6930   18.1354 C   0  0  0  0  0  0  0  0  0  0  0  0
    7.1701  -18.7010   18.0615 C   0  0  0  0  0  0  0  0  0  0  0  0
    7.4925  -17.3719   17.4665 C   0  0  2  0  0  0  0  0  0  0  0  0
    8.1041  -17.5419   16.1864 N   0  0  0  0  0  0  0  0  0  0  0  0
    8.3791  -16.6553   18.4352 C   0  0  0  0  0  0  0  0  0  0  0  0
    9.6204  -16.8483   18.3748 O   0  0  0  0  0  0  0  0  0  0  0  0
    7.7341  -12.8937   19.6163 C   0  0  0  0  0  0  0  0  0  0  0  0
    7.9894  -13.8197   20.7950 C   0  0  1  0  0  0  0  0  0  0  0  0
    6.7613  -14.2011   21.3638 O   0  0  0  0  0  0  0  0  0  0  0  0
    8.7397  -15.0634   20.3658 C   0  0  2  0  0  0  0  0  0  0  0  0
    7.9001  -15.7683   19.4206 N   0  0  0  0  0  0  0  0  0  0  0  0
    9.0107  -15.8627   21.5834 C   0  0  0  0  0  0  0  0  0  0  0  0
    8.1115  -16.6658   21.9441 O   0  0  0  0  0  0  0  0  0  0  0  0
   10.1817  -15.7802   22.3404 N   0  0  0  0  0  0  0  0  0  0  0  0
   10.3211  -16.6380   23.5799 C   0  0  1  0  0  0  0  0  0  0  0  0
   11.5025  -17.4770   23.3125 C   0  0  0  0  0  0  0  0  0  0  0  0
   12.0676  -18.4303   24.2502 C   0  0  0  0  0  0  0  0  0  0  0  0
   11.7053  -19.8531   24.2736 C   0  0  0  0  0  0  0  0  0  0  0  0
   12.4632  -20.4510   25.5070 C   0  0  0  0  0  0  0  0  0  0  0  0
   12.0502  -21.8184   25.7200 N   0  0  0  0  0  0  0  0  0  0  0  0
   10.4806  -15.6872   24.6993 C   0  0  0  0  0  0  0  0  0  0  0  0
   10.0582  -16.1226   25.9848 O   0  0  0  0  0  0  0  0  0  0  0  0
   10.9448  -14.5386   24.6511 O   0  0  0  0  0  0  0  0  0  0  0  0
  2  1  1  1
  2  3  1  0
  4  2  1  0
  5  7  1  0
  5  4  1  0
  5  6  1  6
  7  8  2  0
 10  9  1  6
 10 11  1  0
 12 10  1  0
 12 13  1  6
 13  7  1  0
 14 12  1  0
 15 14  2  0
 16 14  1  0
 17 16  1  0
 17 18  1  6
 19 18  1  0
 20 19  1  0
 21 20  1  0
 22 21  1  0
 23 24  1  0
 23 17  1  0
 25 23  2  0
M  END
$$$$
