LTK.pdb
     RDKit          3D

 25 24  0  0  1  0  0  0  0  0999 V2000
    9.9034  -13.3771   19.6787 C   0  0  0  0  0  0  0  0  0  0  0  0
    8.9034  -13.1694   18.5954 C   0  0  2  0  0  0  0  0  0  0  0  0
    7.6967  -12.3769   19.0564 C   0  0  0  0  0  0  0  0  0  0  0  0
    8.4416  -14.4326   17.9336 C   0  0  0  0  0  0  0  0  0  0  0  0
    9.3102  -15.6167   18.1943 C   0  0  2  0  0  0  0  0  0  0  0  0
    9.2054  -16.5495   17.1170 N   0  0  0  0  0  0  0  0  0  0  0  0
    8.8824  -16.2015   19.5031 C   0  0  0  0  0  0  0  0  0  0  0  0
    7.6582  -16.4132   19.6988 O   0  0  0  0  0  0  0  0  0  0  0  0
   10.1320  -19.3908   21.0519 C   0  0  0  0  0  0  0  0  0  0  0  0
   10.3261  -18.2785   22.0703 C   0  0  1  0  0  0  0  0  0  0  0  0
   11.6530  -17.8170   22.0106 O   0  0  0  0  0  0  0  0  0  0  0  0
    9.3898  -17.1183   21.8038 C   0  0  2  0  0  0  0  0  0  0  0  0
    9.7795  -16.5319   20.5391 N   0  0  0  0  0  0  0  0  0  0  0  0
    9.5267  -16.1671   22.9314 C   0  0  0  0  0  0  0  0  0  0  0  0
   10.4942  -15.3641   22.8792 O   0  0  0  0  0  0  0  0  0  0  0  0
    8.6632  -16.1091   24.0278 N   0  0  0  0  0  0  0  0  0  0  0  0
    8.8829  -15.0481   25.0850 C   0  0  1  0  0  0  0  0  0  0  0  0
    7.5907  -14.3453   25.1712 C   0  0  0  0  0  0  0  0  0  0  0  0
    7.3172  -13.2252   26.0533 C   0  0  0  0  0  0  0  0  0  0  0  0
    6.0065  -12.5697   26.1447 C   0  0  0  0  0  0  0  0  0  0  0  0
    6.2074  -11.3855   27.1501 C   0  0  0  0  0  0  0  0  0  0  0  0
    4.9765  -10.6420   27.2837 N   0  0  0  0  0  0  0  0  0  0  0  0
    9.2669  -15.7848   26.3066 C   0  0  0  0  0  0  0  0  0  0  0  0
   10.0547  -15.0881   27.2629 O   0  0  0  0  0  0  0  0  0  0  0  0
    8.9808  -16.9545   26.6014 O   0  0  0  0  0  0  0  0  0  0  0  0
  2  1  1  1
  2  3  1  0
  4  2  1  0
  5  7  1  0
  5  4  1  0
  5  6  1  6
  7  8  2  0
 10  9  1  6
 10 11  1  0
 12 10  1  0
 12 13  1  6
 13  7  1  0
 14 12  1  0
 15 14  2  0
 16 14  1  0
 17 16  1  0
 17 18  1  1
 19 18  1  0
 20 19  1  0
 21 20  1  0
 22 21  1  0
 23 24  1  0
 23 17  1  0
 25 23  2  0
M  END
$$$$
