LTK.pdb
     RDKit          3D

 25 24  0  0  1  0  0  0  0  0999 V2000
    9.2838  -12.5911   18.6226 C   0  0  0  0  0  0  0  0  0  0  0  0
    7.9388  -13.1315   18.9627 C   0  0  2  0  0  0  0  0  0  0  0  0
    7.0520  -12.1089   19.6444 C   0  0  0  0  0  0  0  0  0  0  0  0
    7.9689  -14.3851   19.7840 C   0  0  0  0  0  0  0  0  0  0  0  0
    8.9048  -15.4301   19.2774 C   0  0  2  0  0  0  0  0  0  0  0  0
    8.3498  -16.0707   18.1270 N   0  0  0  0  0  0  0  0  0  0  0  0
    9.1540  -16.3852   20.4015 C   0  0  0  0  0  0  0  0  0  0  0  0
    8.1860  -17.0438   20.8605 O   0  0  0  0  0  0  0  0  0  0  0  0
   10.9755  -19.4822   20.6506 C   0  0  0  0  0  0  0  0  0  0  0  0
   11.6383  -18.5366   21.6398 C   0  0  1  0  0  0  0  0  0  0  0  0
   12.7440  -17.9203   21.0275 O   0  0  0  0  0  0  0  0  0  0  0  0
   10.6752  -17.4654   22.1076 C   0  0  2  0  0  0  0  0  0  0  0  0
   10.4222  -16.5919   20.9814 N   0  0  0  0  0  0  0  0  0  0  0  0
   11.3149  -16.7544   23.2390 C   0  0  0  0  0  0  0  0  0  0  0  0
   12.1338  -15.8453   22.9450 O   0  0  0  0  0  0  0  0  0  0  0  0
   11.0685  -17.0272   24.5866 N   0  0  0  0  0  0  0  0  0  0  0  0
   11.8550  -16.2847   25.6457 C   0  0  1  0  0  0  0  0  0  0  0  0
   10.9092  -16.1358   26.7657 C   0  0  0  0  0  0  0  0  0  0  0  0
   11.2688  -15.6740   28.0943 C   0  0  0  0  0  0  0  0  0  0  0  0
   10.3066  -15.5569   29.1973 C   0  0  0  0  0  0  0  0  0  0  0  0
   11.1343  -15.0106   30.4097 C   0  0  0  0  0  0  0  0  0  0  0  0
   10.2542  -14.7439   31.5232 N   0  0  0  0  0  0  0  0  0  0  0  0
   13.0252  -17.1383   25.9361 C   0  0  0  0  0  0  0  0  0  0  0  0
   12.8865  -18.5323   25.6955 O   0  0  0  0  0  0  0  0  0  0  0  0
   14.1293  -16.7794   26.3712 O   0  0  0  0  0  0  0  0  0  0  0  0
  2  1  1  1
  2  3  1  0
  4  2  1  0
  5  7  1  0
  5  4  1  0
  5  6  1  6
  7  8  2  0
 10  9  1  6
 10 11  1  0
 12 10  1  0
 12 13  1  6
 13  7  1  0
 14 12  1  0
 15 14  2  0
 16 14  1  0
 17 16  1  0
 17 18  1  1
 19 18  1  0
 20 19  1  0
 21 20  1  0
 22 21  1  0
 23 24  1  0
 23 17  1  0
 25 23  2  0
M  END
$$$$
