LTK.pdb
     RDKit          3D

 25 24  0  0  1  0  0  0  0  0999 V2000
    6.0776  -11.3790   24.8729 C   0  0  0  0  0  0  0  0  0  0  0  0
    6.1295  -12.1443   26.1489 C   0  0  2  0  0  0  0  0  0  0  0  0
    6.7400  -11.3483   27.2848 C   0  0  0  0  0  0  0  0  0  0  0  0
    6.8239  -13.4686   26.0445 C   0  0  0  0  0  0  0  0  0  0  0  0
    6.0476  -14.5148   25.3183 C   0  0  2  0  0  0  0  0  0  0  0  0
    5.2165  -15.2329   26.2322 N   0  0  0  0  0  0  0  0  0  0  0  0
    7.0352  -15.3990   24.6248 C   0  0  0  0  0  0  0  0  0  0  0  0
    7.5029  -16.3867   25.2471 O   0  0  0  0  0  0  0  0  0  0  0  0
    7.1332  -15.2779   20.5548 C   0  0  0  0  0  0  0  0  0  0  0  0
    8.4972  -15.5378   21.1745 C   0  0  1  0  0  0  0  0  0  0  0  0
    9.2313  -14.3390   21.2071 O   0  0  0  0  0  0  0  0  0  0  0  0
    8.3680  -16.0736   22.5853 C   0  0  2  0  0  0  0  0  0  0  0  0
    7.4760  -15.1876   23.3025 N   0  0  0  0  0  0  0  0  0  0  0  0
    9.7262  -16.1044   23.1762 C   0  0  0  0  0  0  0  0  0  0  0  0
   10.0791  -15.0921   23.8352 O   0  0  0  0  0  0  0  0  0  0  0  0
   10.6214  -17.1691   23.0485 N   0  0  0  0  0  0  0  0  0  0  0  0
   11.8951  -17.1645   23.8664 C   0  0  1  0  0  0  0  0  0  0  0  0
   12.0582  -18.5644   24.2963 C   0  0  0  0  0  0  0  0  0  0  0  0
   12.8845  -18.9955   25.4093 C   0  0  0  0  0  0  0  0  0  0  0  0
   12.3500  -19.3001   26.7426 C   0  0  0  0  0  0  0  0  0  0  0  0
   13.5965  -19.6909   27.6068 C   0  0  0  0  0  0  0  0  0  0  0  0
   13.1809  -19.9975   28.9555 N   0  0  0  0  0  0  0  0  0  0  0  0
   12.9468  -16.6736   22.9525 C   0  0  0  0  0  0  0  0  0  0  0  0
   12.6759  -16.7376   21.5586 O   0  0  0  0  0  0  0  0  0  0  0  0
   14.0533  -16.2063   23.2600 O   0  0  0  0  0  0  0  0  0  0  0  0
  2  1  1  6
  2  3  1  0
  4  2  1  0
  5  7  1  0
  5  4  1  0
  5  6  1  1
  7  8  2  0
 10  9  1  1
 10 11  1  0
 12 10  1  0
 12 13  1  1
 13  7  1  0
 14 12  1  0
 15 14  2  0
 16 14  1  0
 17 16  1  0
 17 18  1  6
 19 18  1  0
 20 19  1  0
 21 20  1  0
 22 21  1  0
 23 24  1  0
 23 17  1  0
 25 23  2  0
M  END
$$$$
