LTK.pdb
     RDKit          3D

 25 24  0  0  1  0  0  0  0  0999 V2000
    5.7152  -12.0189   25.7827 C   0  0  0  0  0  0  0  0  0  0  0  0
    6.4921  -12.8583   26.7358 C   0  0  2  0  0  0  0  0  0  0  0  0
    7.3995  -12.0397   27.6321 C   0  0  0  0  0  0  0  0  0  0  0  0
    7.2912  -13.9477   26.0864 C   0  0  0  0  0  0  0  0  0  0  0  0
    6.4885  -14.8810   25.2444 C   0  0  2  0  0  0  0  0  0  0  0  0
    5.5503  -15.5909   26.0553 N   0  0  0  0  0  0  0  0  0  0  0  0
    7.4511  -15.7917   24.5501 C   0  0  0  0  0  0  0  0  0  0  0  0
    7.7223  -16.9003   25.0785 O   0  0  0  0  0  0  0  0  0  0  0  0
    7.6775  -15.7367   20.5920 C   0  0  0  0  0  0  0  0  0  0  0  0
    9.0670  -15.8782   21.1931 C   0  0  1  0  0  0  0  0  0  0  0  0
    9.7231  -14.6352   21.1501 O   0  0  0  0  0  0  0  0  0  0  0  0
    8.9997  -16.3489   22.6311 C   0  0  2  0  0  0  0  0  0  0  0  0
    8.0775  -15.4770   23.3270 N   0  0  0  0  0  0  0  0  0  0  0  0
   10.3708  -16.2780   23.1878 C   0  0  0  0  0  0  0  0  0  0  0  0
   10.6829  -15.2170   23.7881 O   0  0  0  0  0  0  0  0  0  0  0  0
   11.3196  -17.2983   23.0883 N   0  0  0  0  0  0  0  0  0  0  0  0
   12.5583  -17.2413   23.9566 C   0  0  1  0  0  0  0  0  0  0  0  0
   12.4581  -18.4350   24.8146 C   0  0  0  0  0  0  0  0  0  0  0  0
   13.3643  -18.7465   25.9051 C   0  0  0  0  0  0  0  0  0  0  0  0
   13.1873  -19.8975   26.7995 C   0  0  0  0  0  0  0  0  0  0  0  0
   14.2993  -19.7452   27.8920 C   0  0  0  0  0  0  0  0  0  0  0  0
   14.1567  -20.7845   28.8846 N   0  0  0  0  0  0  0  0  0  0  0  0
   13.6976  -17.2517   23.0162 C   0  0  0  0  0  0  0  0  0  0  0  0
   13.4121  -17.5453   21.6551 O   0  0  0  0  0  0  0  0  0  0  0  0
   14.8899  -17.0324   23.2759 O   0  0  0  0  0  0  0  0  0  0  0  0
  2  1  1  6
  2  3  1  0
  4  2  1  0
  5  7  1  0
  5  4  1  0
  5  6  1  1
  7  8  2  0
 10  9  1  1
 10 11  1  0
 12 10  1  0
 12 13  1  1
 13  7  1  0
 14 12  1  0
 15 14  2  0
 16 14  1  0
 17 16  1  0
 17 18  1  1
 19 18  1  0
 20 19  1  0
 21 20  1  0
 22 21  1  0
 23 24  1  0
 23 17  1  0
 25 23  2  0
M  END
$$$$
