TSN.pdb
     RDKit          3D

 22 21  0  0  1  0  0  0  0  0999 V2000
    7.0502  -19.4058   19.2147 C   0  0  0  0  0  0  0  0  0  0  0  0
    7.7003  -18.9565   17.9441 C   0  0  1  0  0  0  0  0  0  0  0  0
    7.2122  -19.7342   16.8969 O   0  0  0  0  0  0  0  0  0  0  0  0
    7.5215  -17.4802   17.6638 C   0  0  2  0  0  0  0  0  0  0  0  0
    7.9954  -17.1467   16.3612 N   0  0  0  0  0  0  0  0  0  0  0  0
    8.1878  -16.7220   18.7528 C   0  0  0  0  0  0  0  0  0  0  0  0
    9.4463  -16.6987   18.8349 O   0  0  0  0  0  0  0  0  0  0  0  0
    6.2887  -15.2448   22.2937 O   0  0  0  0  0  0  0  0  0  0  0  0
    7.2530  -14.4386   21.6485 C   0  0  0  0  0  0  0  0  0  0  0  0
    8.1639  -15.2462   20.7919 C   0  0  2  0  0  0  0  0  0  0  0  0
    7.4986  -15.9885   19.7545 N   0  0  0  0  0  0  0  0  0  0  0  0
    8.9961  -16.1220   21.6570 C   0  0  0  0  0  0  0  0  0  0  0  0
    8.7541  -17.3555   21.8067 O   0  0  0  0  0  0  0  0  0  0  0  0
   13.6826  -18.0952   23.6828 N   0  0  0  0  0  0  0  0  0  0  0  0
   13.4194  -16.7116   23.7569 C   0  0  0  0  0  0  0  0  0  0  0  0
   14.1245  -16.0881   24.6368 O   0  0  0  0  0  0  0  0  0  0  0  0
   12.4407  -15.9693   22.9331 C   0  0  0  0  0  0  0  0  0  0  0  0
   11.0125  -16.4525   23.1496 C   0  0  2  0  0  0  0  0  0  0  0  0
   10.1017  -15.5989   22.3505 N   0  0  0  0  0  0  0  0  0  0  0  0
   10.6745  -16.1748   24.5639 C   0  0  0  0  0  0  0  0  0  0  0  0
   11.0567  -17.0694   25.5442 O   0  0  0  0  0  0  0  0  0  0  0  0
   10.0540  -15.1590   24.9043 O   0  0  0  0  0  0  0  0  0  0  0  0
  2  1  1  1
  3  2  1  0
  4  2  1  0
  4  5  1  6
  4  6  1  0
  6  7  2  0
  9  8  1  0
 10  9  1  1
 10 12  1  0
 11  6  1  0
 11 10  1  0
 12 19  1  0
 13 12  2  0
 15 14  1  0
 16 15  2  0
 17 15  1  0
 18 17  1  1
 19 18  1  0
 20 18  1  0
 20 21  1  0
 22 20  2  0
M  END
$$$$
