TSN.pdb
     RDKit          3D

 22 21  0  0  1  0  0  0  0  0999 V2000
    6.6277  -18.8811   18.0474 C   0  0  0  0  0  0  0  0  0  0  0  0
    7.3316  -18.1930   19.1744 C   0  0  1  0  0  0  0  0  0  0  0  0
    8.3460  -19.0267   19.6388 O   0  0  0  0  0  0  0  0  0  0  0  0
    7.8668  -16.8262   18.8070 C   0  0  2  0  0  0  0  0  0  0  0  0
    8.8412  -16.9210   17.7705 N   0  0  0  0  0  0  0  0  0  0  0  0
    8.3746  -16.1836   20.0455 C   0  0  0  0  0  0  0  0  0  0  0  0
    9.6005  -16.2423   20.3369 O   0  0  0  0  0  0  0  0  0  0  0  0
    7.6315  -13.5249   24.1069 O   0  0  0  0  0  0  0  0  0  0  0  0
    7.0544  -14.1499   22.9789 C   0  0  0  0  0  0  0  0  0  0  0  0
    8.0596  -14.9282   22.2045 C   0  0  2  0  0  0  0  0  0  0  0  0
    7.5619  -15.4775   20.9715 N   0  0  0  0  0  0  0  0  0  0  0  0
    8.6476  -15.9730   23.0824 C   0  0  0  0  0  0  0  0  0  0  0  0
    8.0555  -17.0646   23.3283 O   0  0  0  0  0  0  0  0  0  0  0  0
   12.5818  -18.2360   22.9260 N   0  0  0  0  0  0  0  0  0  0  0  0
   12.8017  -17.0079   23.5835 C   0  0  0  0  0  0  0  0  0  0  0  0
   13.7970  -16.3336   23.1200 O   0  0  0  0  0  0  0  0  0  0  0  0
   12.0056  -16.4715   24.7087 C   0  0  0  0  0  0  0  0  0  0  0  0
   10.5217  -16.7877   24.5745 C   0  0  2  0  0  0  0  0  0  0  0  0
    9.9057  -15.7797   23.6795 N   0  0  0  0  0  0  0  0  0  0  0  0
    9.9118  -16.5604   25.9042 C   0  0  0  0  0  0  0  0  0  0  0  0
   10.0287  -17.5285   26.8821 O   0  0  0  0  0  0  0  0  0  0  0  0
    9.2929  -15.5228   26.1749 O   0  0  0  0  0  0  0  0  0  0  0  0
  2  1  1  6
  3  2  1  0
  4  2  1  0
  4  5  1  6
  4  6  1  0
  6  7  2  0
  9  8  1  0
 10  9  1  1
 10 12  1  0
 11  6  1  0
 11 10  1  0
 12 19  1  0
 13 12  2  0
 15 14  1  0
 16 15  2  0
 17 15  1  0
 18 17  1  1
 19 18  1  0
 20 18  1  0
 20 21  1  0
 22 20  2  0
M  END
$$$$
