TSN.pdb
     RDKit          3D

 22 21  0  0  1  0  0  0  0  0999 V2000
    7.6418  -16.6200   17.3323 C   0  0  0  0  0  0  0  0  0  0  0  0
    8.3118  -15.3780   16.8345 C   0  0  1  0  0  0  0  0  0  0  0  0
    8.0966  -15.2775   15.4622 O   0  0  0  0  0  0  0  0  0  0  0  0
    7.8690  -14.1232   17.5550 C   0  0  2  0  0  0  0  0  0  0  0  0
    8.3279  -12.9561   16.8767 N   0  0  0  0  0  0  0  0  0  0  0  0
    8.3312  -14.2147   18.9631 C   0  0  0  0  0  0  0  0  0  0  0  0
    9.5616  -14.1548   19.2347 O   0  0  0  0  0  0  0  0  0  0  0  0
    7.3757  -14.6896   23.7591 O   0  0  0  0  0  0  0  0  0  0  0  0
    6.8596  -14.6718   22.4440 C   0  0  0  0  0  0  0  0  0  0  0  0
    7.9399  -14.5361   21.4289 C   0  0  2  0  0  0  0  0  0  0  0  0
    7.4681  -14.3714   20.0798 N   0  0  0  0  0  0  0  0  0  0  0  0
    8.8739  -15.6849   21.5558 C   0  0  0  0  0  0  0  0  0  0  0  0
    8.7699  -16.7259   20.8432 O   0  0  0  0  0  0  0  0  0  0  0  0
   13.5821  -18.2921   21.0432 N   0  0  0  0  0  0  0  0  0  0  0  0
   13.2922  -17.2677   21.9682 C   0  0  0  0  0  0  0  0  0  0  0  0
   14.0888  -17.2316   22.9803 O   0  0  0  0  0  0  0  0  0  0  0  0
   12.1937  -16.2837   21.8569 C   0  0  0  0  0  0  0  0  0  0  0  0
   10.9339  -16.7330   22.5856 C   0  0  2  0  0  0  0  0  0  0  0  0
    9.9248  -15.6519   22.4893 N   0  0  0  0  0  0  0  0  0  0  0  0
   11.2781  -16.8250   24.0225 C   0  0  0  0  0  0  0  0  0  0  0  0
   10.7071  -15.9421   24.9180 O   0  0  0  0  0  0  0  0  0  0  0  0
   12.0686  -17.6734   24.4563 O   0  0  0  0  0  0  0  0  0  0  0  0
  2  1  1  1
  3  2  1  0
  4  2  1  0
  4  5  1  6
  4  6  1  0
  6  7  2  0
  9  8  1  0
 10  9  1  1
 10 12  1  0
 11  6  1  0
 11 10  1  0
 12 19  1  0
 13 12  2  0
 15 14  1  0
 16 15  2  0
 17 15  1  0
 18 17  1  6
 19 18  1  0
 20 18  1  0
 20 21  1  0
 22 20  2  0
M  END
$$$$
