TSN.pdb
     RDKit          3D

 22 21  0  0  1  0  0  0  0  0999 V2000
    9.7147  -19.9448   16.4880 C   0  0  0  0  0  0  0  0  0  0  0  0
    9.1668  -18.6990   17.1100 C   0  0  1  0  0  0  0  0  0  0  0  0
    8.3309  -18.0736   16.1882 O   0  0  0  0  0  0  0  0  0  0  0  0
    8.4548  -18.9426   18.4228 C   0  0  2  0  0  0  0  0  0  0  0  0
    7.1457  -18.3780   18.4061 N   0  0  0  0  0  0  0  0  0  0  0  0
    9.3148  -18.4213   19.5153 C   0  0  0  0  0  0  0  0  0  0  0  0
   10.5160  -18.7936   19.6129 O   0  0  0  0  0  0  0  0  0  0  0  0
    9.1833  -14.6952   21.3834 O   0  0  0  0  0  0  0  0  0  0  0  0
    9.2189  -15.8059   22.2560 C   0  0  0  0  0  0  0  0  0  0  0  0
    9.7218  -17.0289   21.5725 C   0  0  2  0  0  0  0  0  0  0  0  0
    8.8810  -17.4988   20.5039 N   0  0  0  0  0  0  0  0  0  0  0  0
    9.9745  -18.0844   22.5875 C   0  0  0  0  0  0  0  0  0  0  0  0
    9.0836  -18.9099   22.9443 O   0  0  0  0  0  0  0  0  0  0  0  0
   14.4243  -20.7153   25.8722 N   0  0  0  0  0  0  0  0  0  0  0  0
   13.3056  -20.7795   25.0157 C   0  0  0  0  0  0  0  0  0  0  0  0
   12.5862  -21.8375   25.1681 O   0  0  0  0  0  0  0  0  0  0  0  0
   12.9238  -19.7649   24.0097 C   0  0  0  0  0  0  0  0  0  0  0  0
   11.5212  -19.2169   24.2391 C   0  0  2  0  0  0  0  0  0  0  0  0
   11.2365  -18.2034   23.1959 N   0  0  0  0  0  0  0  0  0  0  0  0
   11.5553  -18.4696   25.5167 C   0  0  0  0  0  0  0  0  0  0  0  0
   11.2300  -19.1158   26.6930 O   0  0  0  0  0  0  0  0  0  0  0  0
   11.8675  -17.2727   25.5702 O   0  0  0  0  0  0  0  0  0  0  0  0
  2  1  1  6
  3  2  1  0
  4  2  1  0
  4  5  1  6
  4  6  1  0
  6  7  2  0
  9  8  1  0
 10  9  1  1
 10 12  1  0
 11  6  1  0
 11 10  1  0
 12 19  1  0
 13 12  2  0
 15 14  1  0
 16 15  2  0
 17 15  1  0
 18 17  1  6
 19 18  1  0
 20 18  1  0
 20 21  1  0
 22 20  2  0
M  END
$$$$
