TSN.pdb
     RDKit          3D

 22 21  0  0  1  0  0  0  0  0999 V2000
    7.9983  -16.1932   17.7897 C   0  0  0  0  0  0  0  0  0  0  0  0
    8.3252  -14.8713   17.1695 C   0  0  1  0  0  0  0  0  0  0  0  0
    7.7943  -14.8417   15.8823 O   0  0  0  0  0  0  0  0  0  0  0  0
    7.8544  -13.6881   17.9870 C   0  0  2  0  0  0  0  0  0  0  0  0
    8.0180  -12.4704   17.2639 N   0  0  0  0  0  0  0  0  0  0  0  0
    8.5740  -13.7116   19.2856 C   0  0  0  0  0  0  0  0  0  0  0  0
    9.7838  -13.3603   19.3497 O   0  0  0  0  0  0  0  0  0  0  0  0
    6.9749  -15.3776   22.9407 O   0  0  0  0  0  0  0  0  0  0  0  0
    7.9175  -14.3254   22.9657 C   0  0  0  0  0  0  0  0  0  0  0  0
    8.7444  -14.2955   21.7282 C   0  0  2  0  0  0  0  0  0  0  0  0
    7.9908  -14.1139   20.5163 N   0  0  0  0  0  0  0  0  0  0  0  0
    9.5917  -15.5153   21.6796 C   0  0  0  0  0  0  0  0  0  0  0  0
    9.1901  -16.6004   21.1661 O   0  0  0  0  0  0  0  0  0  0  0  0
   13.0769  -14.2508   21.5777 N   0  0  0  0  0  0  0  0  0  0  0  0
   13.3705  -15.4578   20.9098 C   0  0  0  0  0  0  0  0  0  0  0  0
   14.3447  -15.3716   20.0710 O   0  0  0  0  0  0  0  0  0  0  0  0
   12.6718  -16.7472   21.1008 C   0  0  0  0  0  0  0  0  0  0  0  0
   11.7268  -16.7257   22.2952 C   0  0  2  0  0  0  0  0  0  0  0  0
   10.8929  -15.5033   22.2123 N   0  0  0  0  0  0  0  0  0  0  0  0
   12.5646  -16.5509   23.5032 C   0  0  0  0  0  0  0  0  0  0  0  0
   12.4577  -15.3906   24.2446 O   0  0  0  0  0  0  0  0  0  0  0  0
   13.3674  -17.4159   23.8773 O   0  0  0  0  0  0  0  0  0  0  0  0
  2  1  1  1
  3  2  1  0
  4  2  1  0
  4  5  1  6
  4  6  1  0
  6  7  2  0
  9  8  1  0
 10  9  1  1
 10 12  1  0
 11  6  1  0
 11 10  1  0
 12 19  1  0
 13 12  2  0
 15 14  1  0
 16 15  2  0
 17 15  1  0
 18 17  1  6
 19 18  1  0
 20 18  1  0
 20 21  1  0
 22 20  2  0
M  END
$$$$
