TSN.pdb
     RDKit          3D

 22 21  0  0  1  0  0  0  0  0999 V2000
    7.0193  -19.1932   18.8892 C   0  0  0  0  0  0  0  0  0  0  0  0
    7.8535  -18.8879   17.6850 C   0  0  1  0  0  0  0  0  0  0  0  0
    7.3659  -19.6256   16.6091 O   0  0  0  0  0  0  0  0  0  0  0  0
    7.9212  -17.4125   17.3559 C   0  0  2  0  0  0  0  0  0  0  0  0
    8.6039  -17.1951   16.1233 N   0  0  0  0  0  0  0  0  0  0  0  0
    8.5383  -16.7122   18.5106 C   0  0  0  0  0  0  0  0  0  0  0  0
    9.7875  -16.7453   18.6820 O   0  0  0  0  0  0  0  0  0  0  0  0
    6.3600  -15.0080   21.7793 O   0  0  0  0  0  0  0  0  0  0  0  0
    7.5280  -14.3617   21.3165 C   0  0  0  0  0  0  0  0  0  0  0  0
    8.4278  -15.3003   20.5917 C   0  0  2  0  0  0  0  0  0  0  0  0
    7.8098  -15.9758   19.4820 N   0  0  0  0  0  0  0  0  0  0  0  0
    9.0206  -16.2546   21.5643 C   0  0  0  0  0  0  0  0  0  0  0  0
    8.5864  -17.4351   21.7075 O   0  0  0  0  0  0  0  0  0  0  0  0
   13.6041  -15.9989   21.4249 N   0  0  0  0  0  0  0  0  0  0  0  0
   12.9377  -16.8670   22.3146 C   0  0  0  0  0  0  0  0  0  0  0  0
   13.0356  -18.1140   22.0055 O   0  0  0  0  0  0  0  0  0  0  0  0
   12.1765  -16.4610   23.5159 C   0  0  0  0  0  0  0  0  0  0  0  0
   10.6899  -16.7699   23.3948 C   0  0  2  0  0  0  0  0  0  0  0  0
   10.1050  -15.8702   22.3725 N   0  0  0  0  0  0  0  0  0  0  0  0
   10.0626  -16.3727   24.6756 C   0  0  0  0  0  0  0  0  0  0  0  0
    9.1876  -15.3045   24.7035 O   0  0  0  0  0  0  0  0  0  0  0  0
   10.2966  -16.9690   25.7351 O   0  0  0  0  0  0  0  0  0  0  0  0
  2  1  1  1
  3  2  1  0
  4  2  1  0
  4  5  1  6
  4  6  1  0
  6  7  2  0
  9  8  1  0
 10  9  1  1
 10 12  1  0
 11  6  1  0
 11 10  1  0
 12 19  1  0
 13 12  2  0
 15 14  1  0
 16 15  2  0
 17 15  1  0
 18 17  1  1
 19 18  1  0
 20 18  1  0
 20 21  1  0
 22 20  2  0
M  END
$$$$
