TSN.pdb
     RDKit          3D

 22 21  0  0  1  0  0  0  0  0999 V2000
    7.2193  -19.4725   17.0656 C   0  0  0  0  0  0  0  0  0  0  0  0
    7.9053  -18.6237   18.0893 C   0  0  1  0  0  0  0  0  0  0  0  0
    9.1969  -19.1103   18.2756 O   0  0  0  0  0  0  0  0  0  0  0  0
    7.9161  -17.1507   17.7429 C   0  0  2  0  0  0  0  0  0  0  0  0
    8.5492  -16.9265   16.4853 N   0  0  0  0  0  0  0  0  0  0  0  0
    8.5506  -16.4189   18.8684 C   0  0  0  0  0  0  0  0  0  0  0  0
    9.7753  -16.1203   18.8241 O   0  0  0  0  0  0  0  0  0  0  0  0
    6.8864  -15.9190   22.8024 O   0  0  0  0  0  0  0  0  0  0  0  0
    7.5698  -14.8449   22.1896 C   0  0  0  0  0  0  0  0  0  0  0  0
    8.5041  -15.3171   21.1312 C   0  0  2  0  0  0  0  0  0  0  0  0
    7.8660  -16.0086   20.0430 N   0  0  0  0  0  0  0  0  0  0  0  0
    9.5762  -16.1335   21.7575 C   0  0  0  0  0  0  0  0  0  0  0  0
    9.6588  -17.3860   21.5933 O   0  0  0  0  0  0  0  0  0  0  0  0
   14.8110  -17.1557   22.7873 N   0  0  0  0  0  0  0  0  0  0  0  0
   14.2067  -16.0215   23.3683 C   0  0  0  0  0  0  0  0  0  0  0  0
   14.8382  -15.5536   24.3893 O   0  0  0  0  0  0  0  0  0  0  0  0
   12.9632  -15.3681   22.9054 C   0  0  0  0  0  0  0  0  0  0  0  0
   11.7423  -16.2658   23.0587 C   0  0  2  0  0  0  0  0  0  0  0  0
   10.5533  -15.5294   22.5681 N   0  0  0  0  0  0  0  0  0  0  0  0
   11.5222  -16.4478   24.5113 C   0  0  0  0  0  0  0  0  0  0  0  0
   10.5071  -15.7531   25.1392 O   0  0  0  0  0  0  0  0  0  0  0  0
   12.2231  -17.2080   25.1923 O   0  0  0  0  0  0  0  0  0  0  0  0
  2  1  1  6
  3  2  1  0
  4  2  1  0
  4  5  1  6
  4  6  1  0
  6  7  2  0
  9  8  1  0
 10  9  1  1
 10 12  1  0
 11  6  1  0
 11 10  1  0
 12 19  1  0
 13 12  2  0
 15 14  1  0
 16 15  2  0
 17 15  1  0
 18 17  1  1
 19 18  1  0
 20 18  1  0
 20 21  1  0
 22 20  2  0
M  END
$$$$
