AMI.pdb
     RDKit          3D

 22 21  0  0  1  0  0  0  0  0999 V2000
    9.9387  -18.4989   20.6126 C   0  0  0  0  0  0  0  0  0  0  0  0
    9.7603  -17.0258   20.4605 C   0  0  2  0  0  0  0  0  0  0  0  0
   10.7120  -16.5434   19.4835 N   0  0  0  0  0  0  0  0  0  0  0  0
    9.8538  -16.2789   21.7431 C   0  0  0  0  0  0  0  0  0  0  0  0
   10.9994  -15.9927   22.1685 O   0  0  0  0  0  0  0  0  0  0  0  0
    5.9820  -11.9965   27.1276 C   0  0  0  0  0  0  0  0  0  0  0  0
    5.7976  -13.1315   25.7208 S   0  0  0  0  0  0  0  0  0  0  0  0
    7.4590  -13.8165   25.3618 C   0  0  0  0  0  0  0  0  0  0  0  0
    7.3322  -14.5994   24.0893 C   0  0  0  0  0  0  0  0  0  0  0  0
    8.7067  -15.1437   23.7225 C   0  0  2  0  0  0  0  0  0  0  0  0
    8.7265  -15.8837   22.4925 N   0  0  0  0  0  0  0  0  0  0  0  0
    9.2021  -15.9092   24.8626 C   0  0  0  0  0  0  0  0  0  0  0  0
    9.1555  -17.1738   24.7891 O   0  0  0  0  0  0  0  0  0  0  0  0
   10.8652  -13.0943   29.2661 C   0  0  0  0  0  0  0  0  0  0  0  0
   11.1053  -14.0022   28.0837 C   0  0  0  0  0  0  0  0  0  0  0  0
   10.4951  -15.3700   28.3845 C   0  0  2  0  0  0  0  0  0  0  0  0
   11.3154  -16.1319   29.4006 C   0  0  0  0  0  0  0  0  0  0  0  0
   10.3225  -16.1700   27.1062 C   0  0  2  0  0  0  0  0  0  0  0  0
    9.7348  -15.3655   26.0543 N   0  0  0  0  0  0  0  0  0  0  0  0
    9.4493  -17.3489   27.3164 C   0  0  0  0  0  0  0  0  0  0  0  0
    8.2020  -17.2701   27.1990 O   0  0  0  0  0  0  0  0  0  0  0  0
    9.9713  -18.5900   27.6520 O   0  0  0  0  0  0  0  0  0  0  0  0
  2  4  1  0
  2  3  1  0
  2  1  1  1
  4  5  2  0
  7  6  1  0
  7  8  1  0
  8  9  1  0
 10  9  1  1
 10 12  1  0
 11 10  1  0
 11  4  1  0
 12 13  2  0
 12 19  1  0
 15 14  1  0
 16 17  1  1
 16 15  1  0
 18 16  1  0
 18 19  1  6
 20 18  1  0
 20 22  1  0
 21 20  2  0
M  END
$$$$
