AMI.pdb
     RDKit          3D

 22 21  0  0  1  0  0  0  0  0999 V2000
    3.7315  -19.8595   23.6506 C   0  0  0  0  0  0  0  0  0  0  0  0
    5.2015  -19.6061   23.6542 C   0  0  2  0  0  0  0  0  0  0  0  0
    5.7666  -20.1804   24.8558 N   0  0  0  0  0  0  0  0  0  0  0  0
    5.5587  -18.1704   23.5035 C   0  0  0  0  0  0  0  0  0  0  0  0
    5.1601  -17.5759   22.4725 O   0  0  0  0  0  0  0  0  0  0  0  0
    7.5893  -12.3147   26.2567 C   0  0  0  0  0  0  0  0  0  0  0  0
    6.7806  -13.5088   27.3621 S   0  0  0  0  0  0  0  0  0  0  0  0
    6.1040  -14.8452   26.3064 C   0  0  0  0  0  0  0  0  0  0  0  0
    7.2803  -15.5248   25.6718 C   0  0  0  0  0  0  0  0  0  0  0  0
    6.8305  -16.1216   24.3446 C   0  0  2  0  0  0  0  0  0  0  0  0
    6.3161  -17.4573   24.4556 N   0  0  0  0  0  0  0  0  0  0  0  0
    7.9426  -16.0094   23.4054 C   0  0  0  0  0  0  0  0  0  0  0  0
    8.7027  -17.0146   23.2685 O   0  0  0  0  0  0  0  0  0  0  0  0
    7.5927  -11.8615   19.7887 C   0  0  0  0  0  0  0  0  0  0  0  0
    7.6327  -13.2625   20.3502 C   0  0  0  0  0  0  0  0  0  0  0  0
    9.0801  -13.6121   20.6920 C   0  0  2  0  0  0  0  0  0  0  0  0
    9.9407  -13.6858   19.4511 C   0  0  0  0  0  0  0  0  0  0  0  0
    9.1440  -14.9061   21.4828 C   0  0  2  0  0  0  0  0  0  0  0  0
    8.2543  -14.8717   22.6258 N   0  0  0  0  0  0  0  0  0  0  0  0
   10.5139  -15.1704   21.9829 C   0  0  0  0  0  0  0  0  0  0  0  0
   10.8619  -14.8455   23.1444 O   0  0  0  0  0  0  0  0  0  0  0  0
   11.4709  -15.7878   21.1902 O   0  0  0  0  0  0  0  0  0  0  0  0
  2  4  1  0
  2  3  1  0
  2  1  1  1
  4  5  2  0
  7  6  1  0
  7  8  1  0
  8  9  1  0
 10  9  1  1
 10 12  1  0
 11 10  1  0
 11  4  1  0
 12 13  2  0
 12 19  1  0
 15 14  1  0
 16 17  1  6
 16 15  1  0
 18 16  1  0
 18 19  1  1
 20 18  1  0
 20 22  1  0
 21 20  2  0
M  END
$$$$
