AMI.pdb
     RDKit          3D

 22 21  0  0  1  0  0  0  0  0999 V2000
    8.7134  -15.2614   19.3868 C   0  0  0  0  0  0  0  0  0  0  0  0
    8.8448  -16.1876   20.5487 C   0  0  2  0  0  0  0  0  0  0  0  0
    7.6312  -16.9676   20.6576 N   0  0  0  0  0  0  0  0  0  0  0  0
    9.1794  -15.4996   21.8239 C   0  0  0  0  0  0  0  0  0  0  0  0
   10.3455  -15.0551   21.9577 O   0  0  0  0  0  0  0  0  0  0  0  0
    6.3409  -10.9033   25.9615 C   0  0  0  0  0  0  0  0  0  0  0  0
    6.1695  -12.5595   26.6892 S   0  0  0  0  0  0  0  0  0  0  0  0
    7.6034  -13.5478   26.1186 C   0  0  0  0  0  0  0  0  0  0  0  0
    7.2468  -14.0724   24.7600 C   0  0  0  0  0  0  0  0  0  0  0  0
    8.4872  -14.7163   24.1541 C   0  0  2  0  0  0  0  0  0  0  0  0
    8.2560  -15.3272   22.8757 N   0  0  0  0  0  0  0  0  0  0  0  0
    9.0381  -15.6395   25.1419 C   0  0  0  0  0  0  0  0  0  0  0  0
    8.4289  -16.7352   25.3294 O   0  0  0  0  0  0  0  0  0  0  0  0
   14.3736  -15.5168   25.3756 C   0  0  0  0  0  0  0  0  0  0  0  0
   12.9432  -15.9874   25.2643 C   0  0  0  0  0  0  0  0  0  0  0  0
   12.3929  -16.2191   26.6705 C   0  0  2  0  0  0  0  0  0  0  0  0
   13.1215  -17.3422   27.3731 C   0  0  0  0  0  0  0  0  0  0  0  0
   10.8982  -16.4788   26.6225 C   0  0  2  0  0  0  0  0  0  0  0  0
   10.2004  -15.4230   25.9173 N   0  0  0  0  0  0  0  0  0  0  0  0
   10.3191  -16.5743   27.9834 C   0  0  0  0  0  0  0  0  0  0  0  0
    9.8466  -15.5682   28.5669 O   0  0  0  0  0  0  0  0  0  0  0  0
   10.2738  -17.7783   28.6717 O   0  0  0  0  0  0  0  0  0  0  0  0
  2  4  1  0
  2  3  1  0
  2  1  1  6
  4  5  2  0
  7  6  1  0
  7  8  1  0
  8  9  1  0
 10  9  1  1
 10 12  1  0
 11 10  1  0
 11  4  1  0
 12 13  2  0
 12 19  1  0
 15 14  1  0
 16 17  1  6
 16 15  1  0
 18 16  1  0
 18 19  1  6
 20 18  1  0
 20 22  1  0
 21 20  2  0
M  END
$$$$
