AMI.pdb
     RDKit          3D

 22 21  0  0  1  0  0  0  0  0999 V2000
    5.7892  -18.9595   24.8792 C   0  0  0  0  0  0  0  0  0  0  0  0
    6.0588  -18.7652   23.4251 C   0  0  2  0  0  0  0  0  0  0  0  0
    6.1053  -20.0624   22.7862 N   0  0  0  0  0  0  0  0  0  0  0  0
    7.2814  -17.9652   23.1477 C   0  0  0  0  0  0  0  0  0  0  0  0
    8.3910  -18.5435   23.2460 O   0  0  0  0  0  0  0  0  0  0  0  0
    7.8291  -12.1181   20.2414 C   0  0  0  0  0  0  0  0  0  0  0  0
    7.0013  -13.5262   19.4453 S   0  0  0  0  0  0  0  0  0  0  0  0
    7.3773  -15.0100   20.4529 C   0  0  0  0  0  0  0  0  0  0  0  0
    8.0445  -14.5195   21.7028 C   0  0  0  0  0  0  0  0  0  0  0  0
    8.3648  -15.7234   22.5793 C   0  0  2  0  0  0  0  0  0  0  0  0
    7.2489  -16.6030   22.7841 N   0  0  0  0  0  0  0  0  0  0  0  0
    8.9425  -15.2271   23.8249 C   0  0  0  0  0  0  0  0  0  0  0  0
   10.0433  -14.6023   23.7567 O   0  0  0  0  0  0  0  0  0  0  0  0
    6.0555  -12.4614   26.9805 C   0  0  0  0  0  0  0  0  0  0  0  0
    7.2176  -13.0421   26.2110 C   0  0  0  0  0  0  0  0  0  0  0  0
    7.9597  -14.0266   27.1133 C   0  0  2  0  0  0  0  0  0  0  0  0
    8.6132  -13.3238   28.2816 C   0  0  0  0  0  0  0  0  0  0  0  0
    8.9744  -14.8228   26.3133 C   0  0  2  0  0  0  0  0  0  0  0  0
    8.3826  -15.3803   25.1142 N   0  0  0  0  0  0  0  0  0  0  0  0
    9.5329  -15.9436   27.1061 C   0  0  0  0  0  0  0  0  0  0  0  0
   10.5613  -15.7992   27.8115 O   0  0  0  0  0  0  0  0  0  0  0  0
    8.9446  -17.2003   27.1036 O   0  0  0  0  0  0  0  0  0  0  0  0
  2  4  1  0
  2  3  1  0
  2  1  1  1
  4  5  2  0
  7  6  1  0
  7  8  1  0
  8  9  1  0
 10  9  1  6
 10 12  1  0
 11 10  1  0
 11  4  1  0
 12 13  2  0
 12 19  1  0
 15 14  1  0
 16 17  1  1
 16 15  1  0
 18 16  1  0
 18 19  1  6
 20 18  1  0
 20 22  1  0
 21 20  2  0
M  END
$$$$
