AMI.pdb
     RDKit          3D

 22 21  0  0  1  0  0  0  0  0999 V2000
    9.6172  -16.5658   18.7938 C   0  0  0  0  0  0  0  0  0  0  0  0
    9.4296  -17.2176   20.1224 C   0  0  2  0  0  0  0  0  0  0  0  0
    8.1022  -17.7907   20.1728 N   0  0  0  0  0  0  0  0  0  0  0  0
    9.6871  -16.3105   21.2724 C   0  0  0  0  0  0  0  0  0  0  0  0
   10.8372  -15.8198   21.3814 O   0  0  0  0  0  0  0  0  0  0  0  0
    5.2256  -13.8091   26.1399 C   0  0  0  0  0  0  0  0  0  0  0  0
    6.2017  -12.6018   25.1958 S   0  0  0  0  0  0  0  0  0  0  0  0
    7.8038  -13.3985   24.7998 C   0  0  0  0  0  0  0  0  0  0  0  0
    7.5130  -14.4585   23.7800 C   0  0  0  0  0  0  0  0  0  0  0  0
    8.8344  -15.0735   23.3377 C   0  0  2  0  0  0  0  0  0  0  0  0
    8.7087  -15.9823   22.2334 N   0  0  0  0  0  0  0  0  0  0  0  0
    9.4606  -15.6764   24.5106 C   0  0  0  0  0  0  0  0  0  0  0  0
    9.7222  -16.9160   24.4680 O   0  0  0  0  0  0  0  0  0  0  0  0
   11.3577  -14.4883   30.3127 C   0  0  0  0  0  0  0  0  0  0  0  0
   11.5354  -15.3198   29.0650 C   0  0  0  0  0  0  0  0  0  0  0  0
   10.8042  -14.6350   27.9117 C   0  0  2  0  0  0  0  0  0  0  0  0
    9.5519  -13.9339   28.3873 C   0  0  0  0  0  0  0  0  0  0  0  0
   10.4914  -15.6324   26.8111 C   0  0  2  0  0  0  0  0  0  0  0  0
    9.8060  -14.9992   25.7028 N   0  0  0  0  0  0  0  0  0  0  0  0
    9.6325  -16.7348   27.3046 C   0  0  0  0  0  0  0  0  0  0  0  0
    8.3839  -16.6993   27.1796 O   0  0  0  0  0  0  0  0  0  0  0  0
   10.1699  -17.8531   27.9259 O   0  0  0  0  0  0  0  0  0  0  0  0
  2  4  1  0
  2  3  1  0
  2  1  1  6
  4  5  2  0
  7  6  1  0
  7  8  1  0
  8  9  1  0
 10  9  1  1
 10 12  1  0
 11 10  1  0
 11  4  1  0
 12 13  2  0
 12 19  1  0
 15 14  1  0
 16 17  1  1
 16 15  1  0
 18 16  1  0
 18 19  1  6
 20 18  1  0
 20 22  1  0
 21 20  2  0
M  END
$$$$
