AMI.pdb
     RDKit          3D

 22 21  0  0  1  0  0  0  0  0999 V2000
    9.8639  -18.1240   20.7044 C   0  0  0  0  0  0  0  0  0  0  0  0
    9.6393  -16.6547   20.5800 C   0  0  2  0  0  0  0  0  0  0  0  0
   10.5768  -16.1239   19.6143 N   0  0  0  0  0  0  0  0  0  0  0  0
    9.7073  -15.9299   21.8768 C   0  0  0  0  0  0  0  0  0  0  0  0
   10.8425  -15.6130   22.3084 O   0  0  0  0  0  0  0  0  0  0  0  0
    5.8131  -11.2879   25.9077 C   0  0  0  0  0  0  0  0  0  0  0  0
    5.6009  -13.0887   26.0249 S   0  0  0  0  0  0  0  0  0  0  0  0
    7.2345  -13.8454   25.6829 C   0  0  0  0  0  0  0  0  0  0  0  0
    7.1405  -14.4673   24.3218 C   0  0  0  0  0  0  0  0  0  0  0  0
    8.5267  -14.9547   23.9207 C   0  0  2  0  0  0  0  0  0  0  0  0
    8.5672  -15.5877   22.6329 N   0  0  0  0  0  0  0  0  0  0  0  0
    9.0288  -15.8052   24.9959 C   0  0  0  0  0  0  0  0  0  0  0  0
    8.9956  -17.0601   24.8198 O   0  0  0  0  0  0  0  0  0  0  0  0
   10.6243  -13.3717   29.6631 C   0  0  0  0  0  0  0  0  0  0  0  0
   10.8428  -14.1088   28.3636 C   0  0  0  0  0  0  0  0  0  0  0  0
   10.3682  -15.5510   28.5326 C   0  0  2  0  0  0  0  0  0  0  0  0
   11.2929  -16.3371   29.4342 C   0  0  0  0  0  0  0  0  0  0  0  0
   10.2152  -16.2242   27.1809 C   0  0  2  0  0  0  0  0  0  0  0  0
    9.5544  -15.3546   26.2289 N   0  0  0  0  0  0  0  0  0  0  0  0
    9.4214  -17.4718   27.2817 C   0  0  0  0  0  0  0  0  0  0  0  0
    8.1664  -17.4538   27.2606 O   0  0  0  0  0  0  0  0  0  0  0  0
   10.0297  -18.7129   27.4038 O   0  0  0  0  0  0  0  0  0  0  0  0
  2  4  1  0
  2  3  1  0
  2  1  1  1
  4  5  2  0
  7  6  1  0
  7  8  1  0
  8  9  1  0
 10  9  1  1
 10 12  1  0
 11 10  1  0
 11  4  1  0
 12 13  2  0
 12 19  1  0
 15 14  1  0
 16 17  1  1
 16 15  1  0
 18 16  1  0
 18 19  1  6
 20 18  1  0
 20 22  1  0
 21 20  2  0
M  END
$$$$
