AMI.pdb
     RDKit          3D

 22 21  0  0  1  0  0  0  0  0999 V2000
    5.9529  -17.7824   19.2822 C   0  0  0  0  0  0  0  0  0  0  0  0
    7.0944  -17.7992   20.2422 C   0  0  2  0  0  0  0  0  0  0  0  0
    7.5556  -19.1626   20.3882 N   0  0  0  0  0  0  0  0  0  0  0  0
    6.7778  -17.1763   21.5550 C   0  0  0  0  0  0  0  0  0  0  0  0
    6.4064  -15.9774   21.5567 O   0  0  0  0  0  0  0  0  0  0  0  0
    6.9461  -19.4740   28.2522 C   0  0  0  0  0  0  0  0  0  0  0  0
    7.5668  -20.2739   26.7434 S   0  0  0  0  0  0  0  0  0  0  0  0
    7.7660  -18.9597   25.4818 C   0  0  0  0  0  0  0  0  0  0  0  0
    6.3851  -18.4944   25.1284 C   0  0  0  0  0  0  0  0  0  0  0  0
    6.5035  -17.3910   24.0851 C   0  0  2  0  0  0  0  0  0  0  0  0
    6.8757  -17.8646   22.7819 N   0  0  0  0  0  0  0  0  0  0  0  0
    7.4126  -16.3764   24.6101 C   0  0  0  0  0  0  0  0  0  0  0  0
    8.6314  -16.4428   24.2680 O   0  0  0  0  0  0  0  0  0  0  0  0
    5.3776  -11.5466   26.3096 C   0  0  0  0  0  0  0  0  0  0  0  0
    6.2420  -12.5380   25.5684 C   0  0  0  0  0  0  0  0  0  0  0  0
    7.2661  -13.1190   26.5418 C   0  0  2  0  0  0  0  0  0  0  0  0
    8.2431  -12.0657   27.0130 C   0  0  0  0  0  0  0  0  0  0  0  0
    7.9885  -14.2979   25.9156 C   0  0  2  0  0  0  0  0  0  0  0  0
    7.0564  -15.3152   25.4739 N   0  0  0  0  0  0  0  0  0  0  0  0
    8.9288  -14.9293   26.8715 C   0  0  0  0  0  0  0  0  0  0  0  0
    8.5529  -15.8263   27.6652 O   0  0  0  0  0  0  0  0  0  0  0  0
   10.2643  -14.5572   26.9313 O   0  0  0  0  0  0  0  0  0  0  0  0
  2  4  1  0
  2  3  1  0
  2  1  1  6
  4  5  2  0
  7  6  1  0
  7  8  1  0
  8  9  1  0
 10  9  1  1
 10 12  1  0
 11 10  1  0
 11  4  1  0
 12 13  2  0
 12 19  1  0
 15 14  1  0
 16 17  1  6
 16 15  1  0
 18 16  1  0
 18 19  1  1
 20 18  1  0
 20 22  1  0
 21 20  2  0
M  END
$$$$
