AMI.pdb
     RDKit          3D

 22 21  0  0  1  0  0  0  0  0999 V2000
    6.6737  -20.1571   21.4259 C   0  0  0  0  0  0  0  0  0  0  0  0
    6.8697  -19.2860   22.6207 C   0  0  2  0  0  0  0  0  0  0  0  0
    5.5798  -18.7878   23.0461 N   0  0  0  0  0  0  0  0  0  0  0  0
    7.8457  -18.1855   22.4018 C   0  0  0  0  0  0  0  0  0  0  0  0
    9.0662  -18.4780   22.4139 O   0  0  0  0  0  0  0  0  0  0  0  0
    6.7762  -13.0489   18.7445 C   0  0  0  0  0  0  0  0  0  0  0  0
    7.7853  -12.1911   19.9886 S   0  0  0  0  0  0  0  0  0  0  0  0
    8.6268  -13.4819   20.9805 C   0  0  0  0  0  0  0  0  0  0  0  0
    7.6541  -14.6143   21.1211 C   0  0  0  0  0  0  0  0  0  0  0  0
    8.3203  -15.7212   21.9279 C   0  0  2  0  0  0  0  0  0  0  0  0
    7.4648  -16.8452   22.1844 N   0  0  0  0  0  0  0  0  0  0  0  0
    8.8632  -15.1220   23.1435 C   0  0  0  0  0  0  0  0  0  0  0  0
    9.8465  -14.3311   23.0229 O   0  0  0  0  0  0  0  0  0  0  0  0
    5.8784  -12.4367   26.0782 C   0  0  0  0  0  0  0  0  0  0  0  0
    7.0784  -13.0132   25.3659 C   0  0  0  0  0  0  0  0  0  0  0  0
    7.8631  -13.8789   26.3501 C   0  0  2  0  0  0  0  0  0  0  0  0
    8.4624  -13.0492   27.4629 C   0  0  0  0  0  0  0  0  0  0  0  0
    8.9302  -14.6780   25.6244 C   0  0  2  0  0  0  0  0  0  0  0  0
    8.3895  -15.3443   24.4571 N   0  0  0  0  0  0  0  0  0  0  0  0
    9.5247  -15.7136   26.5024 C   0  0  0  0  0  0  0  0  0  0  0  0
   10.3070  -15.4109   27.4364 O   0  0  0  0  0  0  0  0  0  0  0  0
    9.2434  -17.0615   26.3308 O   0  0  0  0  0  0  0  0  0  0  0  0
  2  4  1  0
  2  3  1  0
  2  1  1  6
  4  5  2  0
  7  6  1  0
  7  8  1  0
  8  9  1  0
 10  9  1  1
 10 12  1  0
 11 10  1  0
 11  4  1  0
 12 13  2  0
 12 19  1  0
 15 14  1  0
 16 17  1  1
 16 15  1  0
 18 16  1  0
 18 19  1  6
 20 18  1  0
 20 22  1  0
 21 20  2  0
M  END
$$$$
