KID.pdb
     RDKit          3D

 26 25  0  0  1  0  0  0  0  0999 V2000
    6.4745  -16.0684   21.3886 N   0  0  0  0  0  0  0  0  0  0  0  0
    7.6203  -15.3018   21.0069 C   0  0  1  0  0  0  0  0  0  0  0  0
    7.2898  -14.1967   20.0397 C   0  0  0  0  0  0  0  0  0  0  0  0
    7.8066  -14.6027   18.6846 C   0  0  0  0  0  0  0  0  0  0  0  0
    8.0679  -13.4235   17.7843 C   0  0  0  0  0  0  0  0  0  0  0  0
    8.4271  -13.8405   16.3805 C   0  0  0  0  0  0  0  0  0  0  0  0
    8.7342  -12.6307   15.6325 N   0  0  0  0  0  0  0  0  0  0  0  0
    8.3103  -14.7936   22.2318 C   0  0  0  0  0  0  0  0  0  0  0  0
    9.4049  -14.1866   22.1499 O   0  0  0  0  0  0  0  0  0  0  0  0
    6.7168  -12.2634   27.4723 C   0  0  0  0  0  0  0  0  0  0  0  0
    7.6899  -13.1787   26.8169 C   0  0  0  0  0  0  0  0  0  0  0  0
    7.1101  -13.7319   25.4992 C   0  0  2  0  0  0  0  0  0  0  0  0
    5.9152  -14.5549   25.9648 C   0  0  0  0  0  0  0  0  0  0  0  0
    8.1554  -14.5273   24.7843 C   0  0  2  0  0  0  0  0  0  0  0  0
    7.7040  -15.0125   23.4717 N   0  0  0  0  0  0  0  0  0  0  0  0
    8.7766  -15.6269   25.5337 C   0  0  0  0  0  0  0  0  0  0  0  0
    8.1037  -16.7130   25.7591 O   0  0  0  0  0  0  0  0  0  0  0  0
   10.0849  -15.6621   26.0682 N   0  0  0  0  0  0  0  0  0  0  0  0
   10.5941  -16.8685   26.7098 C   0  0  1  0  0  0  0  0  0  0  0  0
   12.0309  -17.1455   26.4302 C   0  0  0  0  0  0  0  0  0  0  0  0
   12.3588  -17.3144   24.9999 C   0  0  0  0  0  0  0  0  0  0  0  0
   11.4537  -17.6388   24.2012 O   0  0  0  0  0  0  0  0  0  0  0  0
   10.4121  -16.7224   28.1777 C   0  0  0  0  0  0  0  0  0  0  0  0
   10.0838  -15.5168   28.7783 O   0  0  0  0  0  0  0  0  0  0  0  0
   13.6376  -17.1253   24.5122 O   0  0  0  0  0  0  0  0  0  0  0  0
   10.5516  -17.7115   28.9588 O   0  0  0  0  0  0  0  0  0  0  0  0
  2  3  1  0
  2  1  1  1
  4  3  1  0
  5  6  1  0
  5  4  1  0
  7  6  1  0
  8  9  2  0
  8  2  1  0
 10 11  1  0
 12 11  1  0
 12 14  1  0
 12 13  1  1
 14 15  1  6
 15  8  1  0
 16 17  2  0
 16 14  1  0
 18 16  1  0
 19 18  1  0
 19 20  1  1
 20 21  1  0
 21 22  2  0
 21 25  1  0
 23 19  1  0
 24 23  1  0
 26 23  2  0
M  END
$$$$
