KID.pdb
     RDKit          3D

 26 25  0  0  1  0  0  0  0  0999 V2000
    6.1684  -16.2997   22.1385 N   0  0  0  0  0  0  0  0  0  0  0  0
    7.1492  -15.4095   21.5985 C   0  0  1  0  0  0  0  0  0  0  0  0
    6.5451  -14.2957   20.7858 C   0  0  0  0  0  0  0  0  0  0  0  0
    7.6717  -13.5486   20.1218 C   0  0  0  0  0  0  0  0  0  0  0  0
    7.6306  -13.6492   18.6192 C   0  0  0  0  0  0  0  0  0  0  0  0
    8.7795  -12.9259   17.9632 C   0  0  0  0  0  0  0  0  0  0  0  0
    8.5484  -12.9551   16.5268 N   0  0  0  0  0  0  0  0  0  0  0  0
    8.0183  -14.8973   22.7018 C   0  0  0  0  0  0  0  0  0  0  0  0
    9.0849  -14.2865   22.4513 O   0  0  0  0  0  0  0  0  0  0  0  0
    6.0222  -11.8258   26.1652 C   0  0  0  0  0  0  0  0  0  0  0  0
    7.0328  -12.5850   25.3799 C   0  0  0  0  0  0  0  0  0  0  0  0
    7.4661  -13.8552   26.1397 C   0  0  2  0  0  0  0  0  0  0  0  0
    8.2074  -13.2995   27.3495 C   0  0  0  0  0  0  0  0  0  0  0  0
    8.3097  -14.7108   25.2494 C   0  0  2  0  0  0  0  0  0  0  0  0
    7.6117  -15.1166   24.0205 N   0  0  0  0  0  0  0  0  0  0  0  0
    8.9478  -15.8801   25.8676 C   0  0  0  0  0  0  0  0  0  0  0  0
    8.2302  -16.9148   26.1801 O   0  0  0  0  0  0  0  0  0  0  0  0
   10.3173  -16.0378   26.1810 N   0  0  0  0  0  0  0  0  0  0  0  0
   10.8305  -17.3201   26.6486 C   0  0  1  0  0  0  0  0  0  0  0  0
   12.2509  -17.5772   26.2801 C   0  0  0  0  0  0  0  0  0  0  0  0
   12.6024  -17.2151   24.8918 C   0  0  0  0  0  0  0  0  0  0  0  0
   11.9357  -17.6944   23.9494 O   0  0  0  0  0  0  0  0  0  0  0  0
   10.7070  -17.3544   28.1294 C   0  0  0  0  0  0  0  0  0  0  0  0
   10.8944  -18.5094   28.8729 O   0  0  0  0  0  0  0  0  0  0  0  0
   13.6477  -16.3608   24.5978 O   0  0  0  0  0  0  0  0  0  0  0  0
   10.4197  -16.3104   28.7892 O   0  0  0  0  0  0  0  0  0  0  0  0
  2  3  1  0
  2  1  1  1
  4  3  1  0
  5  6  1  0
  5  4  1  0
  7  6  1  0
  8  9  2  0
  8  2  1  0
 10 11  1  0
 12 11  1  0
 12 14  1  0
 12 13  1  1
 14 15  1  6
 15  8  1  0
 16 17  2  0
 16 14  1  0
 18 16  1  0
 19 18  1  0
 19 20  1  1
 20 21  1  0
 21 22  2  0
 21 25  1  0
 23 19  1  0
 24 23  1  0
 26 23  2  0
M  END
$$$$
