KID.pdb
     RDKit          3D

 26 25  0  0  1  0  0  0  0  0999 V2000
    8.1021  -14.7567   20.3504 N   0  0  0  0  0  0  0  0  0  0  0  0
    7.5734  -15.3839   21.5224 C   0  0  1  0  0  0  0  0  0  0  0  0
    7.5099  -16.8833   21.4063 C   0  0  0  0  0  0  0  0  0  0  0  0
    6.7680  -17.2146   20.1382 C   0  0  0  0  0  0  0  0  0  0  0  0
    6.4792  -18.6868   20.0008 C   0  0  0  0  0  0  0  0  0  0  0  0
    5.6283  -18.9954   18.7949 C   0  0  0  0  0  0  0  0  0  0  0  0
    5.3961  -20.4319   18.7826 N   0  0  0  0  0  0  0  0  0  0  0  0
    8.3535  -14.9420   22.7187 C   0  0  0  0  0  0  0  0  0  0  0  0
    9.5568  -14.6034   22.6144 O   0  0  0  0  0  0  0  0  0  0  0  0
    5.7487  -11.9450   26.3451 C   0  0  0  0  0  0  0  0  0  0  0  0
    6.8474  -12.5480   25.5429 C   0  0  0  0  0  0  0  0  0  0  0  0
    7.3018  -13.8840   26.1651 C   0  0  2  0  0  0  0  0  0  0  0  0
    7.8835  -13.4607   27.5084 C   0  0  0  0  0  0  0  0  0  0  0  0
    8.2862  -14.5520   25.2591 C   0  0  2  0  0  0  0  0  0  0  0  0
    7.7072  -14.9158   23.9573 N   0  0  0  0  0  0  0  0  0  0  0  0
    9.0232  -15.6955   25.8121 C   0  0  0  0  0  0  0  0  0  0  0  0
    8.3987  -16.8059   26.0575 O   0  0  0  0  0  0  0  0  0  0  0  0
   10.4004  -15.7508   26.1261 N   0  0  0  0  0  0  0  0  0  0  0  0
   11.0045  -16.9876   26.6077 C   0  0  1  0  0  0  0  0  0  0  0  0
   12.4271  -17.1667   26.2037 C   0  0  0  0  0  0  0  0  0  0  0  0
   12.7201  -16.8030   24.8023 C   0  0  0  0  0  0  0  0  0  0  0  0
   12.0697  -17.3455   23.8830 O   0  0  0  0  0  0  0  0  0  0  0  0
   10.9246  -16.9928   28.0919 C   0  0  0  0  0  0  0  0  0  0  0  0
   11.3137  -18.0780   28.8619 O   0  0  0  0  0  0  0  0  0  0  0  0
   13.6928  -15.8794   24.4711 O   0  0  0  0  0  0  0  0  0  0  0  0
   10.4893  -15.9873   28.7301 O   0  0  0  0  0  0  0  0  0  0  0  0
  2  3  1  0
  2  1  1  6
  4  3  1  0
  5  6  1  0
  5  4  1  0
  7  6  1  0
  8  9  2  0
  8  2  1  0
 10 11  1  0
 12 11  1  0
 12 14  1  0
 12 13  1  1
 14 15  1  6
 15  8  1  0
 16 17  2  0
 16 14  1  0
 18 16  1  0
 19 18  1  0
 19 20  1  1
 20 21  1  0
 21 22  2  0
 21 25  1  0
 23 19  1  0
 24 23  1  0
 26 23  2  0
M  END
$$$$
