KID.pdb
     RDKit          3D

 26 25  0  0  1  0  0  0  0  0999 V2000
    7.8227  -13.9173   19.9785 N   0  0  0  0  0  0  0  0  0  0  0  0
    7.3950  -14.7611   21.0515 C   0  0  1  0  0  0  0  0  0  0  0  0
    7.4707  -16.2254   20.7109 C   0  0  0  0  0  0  0  0  0  0  0  0
    6.6126  -16.4591   19.4954 C   0  0  0  0  0  0  0  0  0  0  0  0
    6.5902  -17.9035   19.0680 C   0  0  0  0  0  0  0  0  0  0  0  0
    5.6215  -18.1540   17.9400 C   0  0  0  0  0  0  0  0  0  0  0  0
    5.6646  -19.5768   17.6376 N   0  0  0  0  0  0  0  0  0  0  0  0
    8.1685  -14.4272   22.2865 C   0  0  0  0  0  0  0  0  0  0  0  0
    9.3864  -14.1339   22.2246 O   0  0  0  0  0  0  0  0  0  0  0  0
    5.7920  -11.4704   26.0391 C   0  0  0  0  0  0  0  0  0  0  0  0
    6.8258  -12.1447   25.2079 C   0  0  0  0  0  0  0  0  0  0  0  0
    7.1596  -13.5364   25.7828 C   0  0  2  0  0  0  0  0  0  0  0  0
    7.7787  -13.2127   27.1370 C   0  0  0  0  0  0  0  0  0  0  0  0
    8.0790  -14.2585   24.8504 C   0  0  2  0  0  0  0  0  0  0  0  0
    7.4991  -14.4505   23.5129 N   0  0  0  0  0  0  0  0  0  0  0  0
    8.6479  -15.5240   25.3316 C   0  0  0  0  0  0  0  0  0  0  0  0
    7.8738  -16.5488   25.5159 O   0  0  0  0  0  0  0  0  0  0  0  0
   10.0033  -15.7894   25.6334 N   0  0  0  0  0  0  0  0  0  0  0  0
   10.4335  -17.1323   26.0047 C   0  0  1  0  0  0  0  0  0  0  0  0
   11.8911  -17.3770   25.8174 C   0  0  0  0  0  0  0  0  0  0  0  0
   12.4199  -16.9698   24.4996 C   0  0  0  0  0  0  0  0  0  0  0  0
   13.5407  -16.4200   24.4361 O   0  0  0  0  0  0  0  0  0  0  0  0
   10.0925  -17.3472   27.4353 C   0  0  0  0  0  0  0  0  0  0  0  0
   10.1556  -18.5909   28.0446 O   0  0  0  0  0  0  0  0  0  0  0  0
   11.7151  -17.1768   23.3295 O   0  0  0  0  0  0  0  0  0  0  0  0
    9.7222  -16.3856   28.1742 O   0  0  0  0  0  0  0  0  0  0  0  0
  2  3  1  0
  2  1  1  6
  4  3  1  0
  5  6  1  0
  5  4  1  0
  7  6  1  0
  8  9  2  0
  8  2  1  0
 10 11  1  0
 12 11  1  0
 12 14  1  0
 12 13  1  1
 14 15  1  6
 15  8  1  0
 16 17  2  0
 16 14  1  0
 18 16  1  0
 19 18  1  0
 19 20  1  1
 20 21  1  0
 21 22  2  0
 21 25  1  0
 23 19  1  0
 24 23  1  0
 26 23  2  0
M  END
$$$$
