KID.pdb
     RDKit          3D

 26 25  0  0  1  0  0  0  0  0999 V2000
   10.4371  -17.8020   17.3532 N   0  0  0  0  0  0  0  0  0  0  0  0
    9.2194  -17.5354   18.0548 C   0  0  1  0  0  0  0  0  0  0  0  0
    8.3653  -18.7621   18.2327 C   0  0  0  0  0  0  0  0  0  0  0  0
    9.2525  -19.9675   18.0655 C   0  0  0  0  0  0  0  0  0  0  0  0
    8.5039  -21.2663   18.2151 C   0  0  0  0  0  0  0  0  0  0  0  0
    9.3731  -22.4662   17.9353 C   0  0  0  0  0  0  0  0  0  0  0  0
    8.5899  -23.6525   18.2465 N   0  0  0  0  0  0  0  0  0  0  0  0
    9.5301  -16.8692   19.3566 C   0  0  0  0  0  0  0  0  0  0  0  0
   10.6824  -16.9229   19.8492 O   0  0  0  0  0  0  0  0  0  0  0  0
    7.0101  -12.1865   19.9849 C   0  0  0  0  0  0  0  0  0  0  0  0
    8.0312  -13.2623   20.1054 C   0  0  0  0  0  0  0  0  0  0  0  0
    7.6747  -14.2204   21.2602 C   0  0  2  0  0  0  0  0  0  0  0  0
    7.8081  -13.3386   22.4958 C   0  0  0  0  0  0  0  0  0  0  0  0
    8.6031  -15.3926   21.2461 C   0  0  2  0  0  0  0  0  0  0  0  0
    8.5029  -16.1844   20.0112 N   0  0  0  0  0  0  0  0  0  0  0  0
    8.5600  -16.2838   22.4125 C   0  0  0  0  0  0  0  0  0  0  0  0
    7.9387  -17.4199   22.3319 O   0  0  0  0  0  0  0  0  0  0  0  0
    9.1417  -16.0567   23.6809 N   0  0  0  0  0  0  0  0  0  0  0  0
   10.0612  -17.0278   24.2621 C   0  0  1  0  0  0  0  0  0  0  0  0
   11.2517  -17.3199   23.4155 C   0  0  0  0  0  0  0  0  0  0  0  0
   12.2117  -18.2723   24.0100 C   0  0  0  0  0  0  0  0  0  0  0  0
   11.8819  -19.4714   24.1363 O   0  0  0  0  0  0  0  0  0  0  0  0
   10.5240  -16.4988   25.5718 C   0  0  0  0  0  0  0  0  0  0  0  0
   10.5109  -17.2536   26.7345 O   0  0  0  0  0  0  0  0  0  0  0  0
   13.4676  -17.8815   24.4331 O   0  0  0  0  0  0  0  0  0  0  0  0
   10.9586  -15.3130   25.6850 O   0  0  0  0  0  0  0  0  0  0  0  0
  2  3  1  0
  2  1  1  1
  4  3  1  0
  5  6  1  0
  5  4  1  0
  7  6  1  0
  8  9  2  0
  8  2  1  0
 10 11  1  0
 12 11  1  0
 12 14  1  0
 12 13  1  1
 14 15  1  6
 15  8  1  0
 16 17  2  0
 16 14  1  0
 18 16  1  0
 19 18  1  0
 19 20  1  6
 20 21  1  0
 21 22  2  0
 21 25  1  0
 23 19  1  0
 24 23  1  0
 26 23  2  0
M  END
$$$$
