KID.pdb
     RDKit          3D

 26 25  0  0  1  0  0  0  0  0999 V2000
    6.7748  -15.8203   21.3290 N   0  0  0  0  0  0  0  0  0  0  0  0
    7.8975  -14.9987   20.9965 C   0  0  1  0  0  0  0  0  0  0  0  0
    7.5378  -13.8566   20.0843 C   0  0  0  0  0  0  0  0  0  0  0  0
    7.4734  -14.3942   18.6789 C   0  0  0  0  0  0  0  0  0  0  0  0
    7.8842  -13.3761   17.6472 C   0  0  0  0  0  0  0  0  0  0  0  0
    7.7954  -13.9144   16.2415 C   0  0  0  0  0  0  0  0  0  0  0  0
    8.1923  -12.8434   15.3398 N   0  0  0  0  0  0  0  0  0  0  0  0
    8.5624  -14.5320   22.2516 C   0  0  0  0  0  0  0  0  0  0  0  0
    9.6572  -13.9213   22.2121 O   0  0  0  0  0  0  0  0  0  0  0  0
    7.0819  -11.8289   27.3157 C   0  0  0  0  0  0  0  0  0  0  0  0
    7.9545  -12.9090   26.7806 C   0  0  0  0  0  0  0  0  0  0  0  0
    7.3435  -13.5145   25.5005 C   0  0  2  0  0  0  0  0  0  0  0  0
    6.1419  -14.2916   26.0241 C   0  0  0  0  0  0  0  0  0  0  0  0
    8.3626  -14.3628   24.8092 C   0  0  2  0  0  0  0  0  0  0  0  0
    7.9322  -14.7941   23.4709 N   0  0  0  0  0  0  0  0  0  0  0  0
    8.8828  -15.5136   25.5586 C   0  0  0  0  0  0  0  0  0  0  0  0
    8.0790  -16.4695   25.9099 O   0  0  0  0  0  0  0  0  0  0  0  0
   10.2185  -15.7317   25.9672 N   0  0  0  0  0  0  0  0  0  0  0  0
   10.5936  -16.9589   26.6597 C   0  0  1  0  0  0  0  0  0  0  0  0
   12.0504  -17.2658   26.6066 C   0  0  0  0  0  0  0  0  0  0  0  0
   12.6103  -17.3631   25.2431 C   0  0  0  0  0  0  0  0  0  0  0  0
   13.8499  -17.3173   25.0885 O   0  0  0  0  0  0  0  0  0  0  0  0
   10.1836  -16.8298   28.0825 C   0  0  0  0  0  0  0  0  0  0  0  0
    9.9929  -17.9240   28.9122 O   0  0  0  0  0  0  0  0  0  0  0  0
   11.8073  -17.5037   24.1277 O   0  0  0  0  0  0  0  0  0  0  0  0
    9.9868  -15.6933   28.6091 O   0  0  0  0  0  0  0  0  0  0  0  0
  2  3  1  0
  2  1  1  1
  4  3  1  0
  5  6  1  0
  5  4  1  0
  7  6  1  0
  8  9  2  0
  8  2  1  0
 10 11  1  0
 12 11  1  0
 12 14  1  0
 12 13  1  1
 14 15  1  6
 15  8  1  0
 16 17  2  0
 16 14  1  0
 18 16  1  0
 19 18  1  0
 19 20  1  1
 20 21  1  0
 21 22  2  0
 21 25  1  0
 23 19  1  0
 24 23  1  0
 26 23  2  0
M  END
$$$$
