KID.pdb
     RDKit          3D

 26 25  0  0  1  0  0  0  0  0999 V2000
    8.6697  -14.8771   20.1557 N   0  0  0  0  0  0  0  0  0  0  0  0
    7.8896  -15.3006   21.2775 C   0  0  1  0  0  0  0  0  0  0  0  0
    7.5678  -16.7707   21.2455 C   0  0  0  0  0  0  0  0  0  0  0  0
    6.8477  -17.0552   19.9537 C   0  0  0  0  0  0  0  0  0  0  0  0
    6.5422  -18.5187   19.7680 C   0  0  0  0  0  0  0  0  0  0  0  0
    5.7847  -18.7903   18.4929 C   0  0  0  0  0  0  0  0  0  0  0  0
    5.5580  -20.2259   18.4192 N   0  0  0  0  0  0  0  0  0  0  0  0
    8.5778  -14.8997   22.5426 C   0  0  0  0  0  0  0  0  0  0  0  0
    9.8230  -14.7532   22.5804 O   0  0  0  0  0  0  0  0  0  0  0  0
    6.1776  -11.4202   25.9404 C   0  0  0  0  0  0  0  0  0  0  0  0
    7.2650  -12.2013   25.2911 C   0  0  0  0  0  0  0  0  0  0  0  0
    7.3193  -13.6326   25.8630 C   0  0  2  0  0  0  0  0  0  0  0  0
    7.7589  -13.4132   27.3054 C   0  0  0  0  0  0  0  0  0  0  0  0
    8.2682  -14.4609   25.0569 C   0  0  2  0  0  0  0  0  0  0  0  0
    7.7976  -14.6924   23.6832 N   0  0  0  0  0  0  0  0  0  0  0  0
    8.7079  -15.7294   25.6519 C   0  0  0  0  0  0  0  0  0  0  0  0
    7.8569  -16.6962   25.8082 O   0  0  0  0  0  0  0  0  0  0  0  0
   10.0090  -16.0562   26.0980 N   0  0  0  0  0  0  0  0  0  0  0  0
   10.3569  -17.4321   26.4329 C   0  0  1  0  0  0  0  0  0  0  0  0
   11.5952  -17.9251   25.7675 C   0  0  0  0  0  0  0  0  0  0  0  0
   12.0691  -19.2404   26.2444 C   0  0  0  0  0  0  0  0  0  0  0  0
   11.2388  -20.1553   26.4340 O   0  0  0  0  0  0  0  0  0  0  0  0
   10.5393  -17.5166   27.9056 C   0  0  0  0  0  0  0  0  0  0  0  0
   10.3959  -16.4226   28.7450 O   0  0  0  0  0  0  0  0  0  0  0  0
   13.4048  -19.4953   26.4894 O   0  0  0  0  0  0  0  0  0  0  0  0
   10.8395  -18.6124   28.4687 O   0  0  0  0  0  0  0  0  0  0  0  0
  2  3  1  0
  2  1  1  6
  4  3  1  0
  5  6  1  0
  5  4  1  0
  7  6  1  0
  8  9  2  0
  8  2  1  0
 10 11  1  0
 12 11  1  0
 12 14  1  0
 12 13  1  1
 14 15  1  6
 15  8  1  0
 16 17  2  0
 16 14  1  0
 18 16  1  0
 19 18  1  0
 19 20  1  6
 20 21  1  0
 21 22  2  0
 21 25  1  0
 23 19  1  0
 24 23  1  0
 26 23  2  0
M  END
$$$$
