KID.pdb
     RDKit          3D

 26 25  0  0  1  0  0  0  0  0999 V2000
    5.9948  -16.2010   21.7487 N   0  0  0  0  0  0  0  0  0  0  0  0
    6.9345  -15.2328   21.2738 C   0  0  1  0  0  0  0  0  0  0  0  0
    6.2812  -14.0959   20.5345 C   0  0  0  0  0  0  0  0  0  0  0  0
    7.3719  -13.2732   19.9007 C   0  0  0  0  0  0  0  0  0  0  0  0
    7.7223  -13.7421   18.5126 C   0  0  0  0  0  0  0  0  0  0  0  0
    8.8760  -12.9730   17.9202 C   0  0  0  0  0  0  0  0  0  0  0  0
    9.1340  -13.5251   16.5988 N   0  0  0  0  0  0  0  0  0  0  0  0
    7.7774  -14.7562   22.4129 C   0  0  0  0  0  0  0  0  0  0  0  0
    8.8651  -14.1664   22.2072 O   0  0  0  0  0  0  0  0  0  0  0  0
    5.7541  -11.8818   26.2119 C   0  0  0  0  0  0  0  0  0  0  0  0
    6.7923  -12.5408   25.3739 C   0  0  0  0  0  0  0  0  0  0  0  0
    7.1438  -13.9312   25.9413 C   0  0  2  0  0  0  0  0  0  0  0  0
    7.8278  -13.6034   27.2629 C   0  0  0  0  0  0  0  0  0  0  0  0
    8.0138  -14.6651   24.9714 C   0  0  2  0  0  0  0  0  0  0  0  0
    7.3220  -14.9851   23.7140 N   0  0  0  0  0  0  0  0  0  0  0  0
    8.7053  -15.8584   25.4757 C   0  0  0  0  0  0  0  0  0  0  0  0
    8.0376  -16.9527   25.6760 O   0  0  0  0  0  0  0  0  0  0  0  0
   10.0793  -15.9807   25.7852 N   0  0  0  0  0  0  0  0  0  0  0  0
   10.7008  -17.2943   25.9051 C   0  0  1  0  0  0  0  0  0  0  0  0
   12.0104  -17.4133   25.2051 C   0  0  0  0  0  0  0  0  0  0  0  0
   12.6787  -18.7208   25.3663 C   0  0  0  0  0  0  0  0  0  0  0  0
   12.0155  -19.7682   25.2058 O   0  0  0  0  0  0  0  0  0  0  0  0
   10.9032  -17.5790   27.3499 C   0  0  0  0  0  0  0  0  0  0  0  0
   10.5678  -16.6772   28.3480 O   0  0  0  0  0  0  0  0  0  0  0  0
   14.0177  -18.8264   25.6900 O   0  0  0  0  0  0  0  0  0  0  0  0
   11.4005  -18.6783   27.7396 O   0  0  0  0  0  0  0  0  0  0  0  0
  2  3  1  0
  2  1  1  1
  4  3  1  0
  5  6  1  0
  5  4  1  0
  7  6  1  0
  8  9  2  0
  8  2  1  0
 10 11  1  0
 12 11  1  0
 12 14  1  0
 12 13  1  1
 14 15  1  6
 15  8  1  0
 16 17  2  0
 16 14  1  0
 18 16  1  0
 19 18  1  0
 19 20  1  6
 20 21  1  0
 21 22  2  0
 21 25  1  0
 23 19  1  0
 24 23  1  0
 26 23  2  0
M  END
$$$$
