PIY.pdb
     RDKit          3D

 28 29  0  0  1  0  0  0  0  0999 V2000
    6.6794  -15.6621   21.8012 N   0  0  0  0  0  0  0  0  0  0  0  0
    6.2773  -14.4054   21.2017 C   0  0  0  0  0  0  0  0  0  0  0  0
    7.4592  -13.8811   20.4337 C   0  0  0  0  0  0  0  0  0  0  0  0
    8.4824  -14.9925   20.4765 C   0  0  0  0  0  0  0  0  0  0  0  0
    8.1184  -15.6970   21.7641 C   0  0  1  0  0  0  0  0  0  0  0  0
    8.6404  -14.9980   22.9529 C   0  0  0  0  0  0  0  0  0  0  0  0
    9.8471  -14.6412   23.0324 O   0  0  0  0  0  0  0  0  0  0  0  0
    5.9553  -11.2891   25.8369 C   0  0  0  0  0  0  0  0  0  0  0  0
    6.9889  -12.1631   25.2046 C   0  0  0  0  0  0  0  0  0  0  0  0
    7.4177  -13.3311   26.0166 C   0  0  2  0  0  0  0  0  0  0  0  0
    8.0961  -12.8281   27.2868 C   0  0  0  0  0  0  0  0  0  0  0  0
    8.3730  -14.2716   25.3555 C   0  0  2  0  0  0  0  0  0  0  0  0
    7.8095  -14.6881   24.0757 N   0  0  0  0  0  0  0  0  0  0  0  0
    8.8103  -15.4105   26.1905 C   0  0  0  0  0  0  0  0  0  0  0  0
    7.9996  -16.3365   26.5336 O   0  0  0  0  0  0  0  0  0  0  0  0
   12.0548  -18.3203   21.3908 O   0  0  0  0  0  0  0  0  0  0  0  0
   12.0279  -18.0435   22.7442 C   0  0  0  0  0  0  0  0  0  0  0  0
   11.1224  -18.7182   23.5320 C   0  0  0  0  0  0  0  0  0  0  0  0
   11.0912  -18.4434   24.8945 C   0  0  0  0  0  0  0  0  0  0  0  0
   11.9237  -17.5304   25.4832 C   0  0  0  0  0  0  0  0  0  0  0  0
   11.8956  -17.2404   26.9300 C   0  0  0  0  0  0  0  0  0  0  0  0
   10.5258  -16.7429   27.4026 C   0  0  2  0  0  0  0  0  0  0  0  0
   10.1420  -15.5570   26.6616 N   0  0  0  0  0  0  0  0  0  0  0  0
   10.6604  -16.3701   28.8258 C   0  0  0  0  0  0  0  0  0  0  0  0
   10.8986  -17.3134   29.8224 O   0  0  0  0  0  0  0  0  0  0  0  0
   12.8317  -16.8606   24.6632 C   0  0  0  0  0  0  0  0  0  0  0  0
   12.8770  -17.1207   23.3061 C   0  0  0  0  0  0  0  0  0  0  0  0
   10.5659  -15.1745   29.2164 O   0  0  0  0  0  0  0  0  0  0  0  0
  1  5  1  0
  2  1  1  0
  2  3  1  0
  3  4  1  0
  5  4  1  0
  5  6  1  1
  6  7  2  0
  9  8  1  0
 10  9  1  0
 10 12  1  0
 10 11  1  1
 12 13  1  6
 13  6  1  0
 14 23  1  0
 14 12  1  0
 15 14  2  0
 16 17  1  0
 17 27  2  0
 17 18  1  0
 18 19  2  0
 19 20  1  0
 20 21  1  0
 22 21  1  6
 22 23  1  0
 22 24  1  0
 24 25  1  0
 26 20  2  0
 27 26  1  0
 28 24  2  0
M  END
$$$$
