PIY.pdb
     RDKit          3D

 28 29  0  0  1  0  0  0  0  0999 V2000
    6.6674  -14.8117   20.8159 N   0  0  0  0  0  0  0  0  0  0  0  0
    6.4221  -13.4510   20.3812 C   0  0  0  0  0  0  0  0  0  0  0  0
    7.7098  -12.9294   19.8055 C   0  0  0  0  0  0  0  0  0  0  0  0
    8.6368  -14.1223   19.7670 C   0  0  0  0  0  0  0  0  0  0  0  0
    8.0964  -14.9692   20.8973 C   0  0  1  0  0  0  0  0  0  0  0  0
    8.5508  -14.4976   22.2184 C   0  0  0  0  0  0  0  0  0  0  0  0
    9.7648  -14.2459   22.4481 O   0  0  0  0  0  0  0  0  0  0  0  0
    5.8090  -11.4358   25.8296 C   0  0  0  0  0  0  0  0  0  0  0  0
    6.8013  -12.2006   25.0156 C   0  0  0  0  0  0  0  0  0  0  0  0
    7.1406  -13.5520   25.5312 C   0  0  2  0  0  0  0  0  0  0  0  0
    7.7761  -13.4101   26.9105 C   0  0  0  0  0  0  0  0  0  0  0  0
    8.0871  -14.3519   24.6954 C   0  0  2  0  0  0  0  0  0  0  0  0
    7.6429  -14.3010   23.3066 N   0  0  0  0  0  0  0  0  0  0  0  0
    8.3331  -15.7297   25.1716 C   0  0  0  0  0  0  0  0  0  0  0  0
    7.3816  -16.5735   25.2932 O   0  0  0  0  0  0  0  0  0  0  0  0
   14.1981  -16.8796   21.4557 O   0  0  0  0  0  0  0  0  0  0  0  0
   13.1712  -17.2684   22.2943 C   0  0  0  0  0  0  0  0  0  0  0  0
   12.5292  -18.4584   22.0343 C   0  0  0  0  0  0  0  0  0  0  0  0
   11.4952  -18.8542   22.8752 C   0  0  0  0  0  0  0  0  0  0  0  0
   11.0906  -18.1093   23.9497 C   0  0  0  0  0  0  0  0  0  0  0  0
    9.9962  -18.5296   24.8463 C   0  0  0  0  0  0  0  0  0  0  0  0
    9.7899  -17.5608   26.0152 C   0  0  2  0  0  0  0  0  0  0  0  0
    9.6241  -16.2082   25.5197 N   0  0  0  0  0  0  0  0  0  0  0  0
   11.0151  -17.5996   26.8397 C   0  0  0  0  0  0  0  0  0  0  0  0
   11.7585  -16.4559   27.1215 O   0  0  0  0  0  0  0  0  0  0  0  0
   11.7570  -16.9080   24.1912 C   0  0  0  0  0  0  0  0  0  0  0  0
   12.7876  -16.4982   23.3658 C   0  0  0  0  0  0  0  0  0  0  0  0
   11.4558  -18.6732   27.3338 O   0  0  0  0  0  0  0  0  0  0  0  0
  1  5  1  0
  2  1  1  0
  2  3  1  0
  3  4  1  0
  5  4  1  0
  5  6  1  1
  6  7  2  0
  9  8  1  0
 10  9  1  0
 10 12  1  0
 10 11  1  1
 12 13  1  6
 13  6  1  0
 14 23  1  0
 14 12  1  0
 15 14  2  0
 16 17  1  0
 17 27  2  0
 17 18  1  0
 18 19  2  0
 19 20  1  0
 20 21  1  0
 22 21  1  6
 22 23  1  0
 22 24  1  0
 24 25  1  0
 26 20  2  0
 27 26  1  0
 28 24  2  0
M  END
$$$$
