PIY.pdb
     RDKit          3D

 28 29  0  0  1  0  0  0  0  0999 V2000
    6.6800  -15.7141   21.8333 N   0  0  0  0  0  0  0  0  0  0  0  0
    6.1085  -14.4416   21.4403 C   0  0  0  0  0  0  0  0  0  0  0  0
    7.1580  -13.7075   20.6522 C   0  0  0  0  0  0  0  0  0  0  0  0
    8.2783  -14.7039   20.4627 C   0  0  0  0  0  0  0  0  0  0  0  0
    8.1059  -15.5951   21.6721 C   0  0  1  0  0  0  0  0  0  0  0  0
    8.6731  -14.9974   22.8949 C   0  0  0  0  0  0  0  0  0  0  0  0
    9.8473  -14.5388   22.9225 O   0  0  0  0  0  0  0  0  0  0  0  0
    6.3063  -11.5387   26.1047 C   0  0  0  0  0  0  0  0  0  0  0  0
    7.2618  -12.4316   25.3823 C   0  0  0  0  0  0  0  0  0  0  0  0
    7.7013  -13.6347   26.1351 C   0  0  2  0  0  0  0  0  0  0  0  0
    8.4916  -13.1896   27.3614 C   0  0  0  0  0  0  0  0  0  0  0  0
    8.5659  -14.5957   25.3846 C   0  0  2  0  0  0  0  0  0  0  0  0
    7.9250  -14.9057   24.1111 N   0  0  0  0  0  0  0  0  0  0  0  0
    8.9623  -15.8034   26.1394 C   0  0  0  0  0  0  0  0  0  0  0  0
    8.1017  -16.6741   26.5051 O   0  0  0  0  0  0  0  0  0  0  0  0
   12.8941  -17.3228   21.1073 O   0  0  0  0  0  0  0  0  0  0  0  0
   12.6997  -17.4186   22.4718 C   0  0  0  0  0  0  0  0  0  0  0  0
   11.9038  -18.4356   22.9494 C   0  0  0  0  0  0  0  0  0  0  0  0
   11.7050  -18.5365   24.3218 C   0  0  0  0  0  0  0  0  0  0  0  0
   12.2682  -17.6666   25.2157 C   0  0  0  0  0  0  0  0  0  0  0  0
   12.0623  -17.7745   26.6732 C   0  0  0  0  0  0  0  0  0  0  0  0
   10.6511  -17.3570   27.0993 C   0  0  2  0  0  0  0  0  0  0  0  0
   10.3066  -16.0804   26.5040 N   0  0  0  0  0  0  0  0  0  0  0  0
   10.6667  -17.1888   28.5669 C   0  0  0  0  0  0  0  0  0  0  0  0
   10.8366  -18.2631   29.4369 O   0  0  0  0  0  0  0  0  0  0  0  0
   13.0702  -16.6453   24.7063 C   0  0  0  0  0  0  0  0  0  0  0  0
   13.2791  -16.5292   23.3446 C   0  0  0  0  0  0  0  0  0  0  0  0
   10.5259  -16.0605   29.1129 O   0  0  0  0  0  0  0  0  0  0  0  0
  1  5  1  0
  2  1  1  0
  2  3  1  0
  3  4  1  0
  5  4  1  0
  5  6  1  1
  6  7  2  0
  9  8  1  0
 10  9  1  0
 10 12  1  0
 10 11  1  1
 12 13  1  6
 13  6  1  0
 14 23  1  0
 14 12  1  0
 15 14  2  0
 16 17  1  0
 17 27  2  0
 17 18  1  0
 18 19  2  0
 19 20  1  0
 20 21  1  0
 22 21  1  6
 22 23  1  0
 22 24  1  0
 24 25  1  0
 26 20  2  0
 27 26  1  0
 28 24  2  0
M  END
$$$$
