PIY.pdb
     RDKit          3D

 28 29  0  0  1  0  0  0  0  0999 V2000
    6.5731  -15.7162   21.4473 N   0  0  0  0  0  0  0  0  0  0  0  0
    6.4801  -14.5029   20.6601 C   0  0  0  0  0  0  0  0  0  0  0  0
    7.8094  -14.3086   19.9843 C   0  0  0  0  0  0  0  0  0  0  0  0
    8.5908  -15.5678   20.2807 C   0  0  0  0  0  0  0  0  0  0  0  0
    7.9753  -16.0116   21.5887 C   0  0  1  0  0  0  0  0  0  0  0  0
    8.5043  -15.2595   22.7414 C   0  0  0  0  0  0  0  0  0  0  0  0
    9.7284  -14.9728   22.8374 O   0  0  0  0  0  0  0  0  0  0  0  0
    5.6189  -11.4453   25.3930 C   0  0  0  0  0  0  0  0  0  0  0  0
    6.7036  -12.2860   24.8026 C   0  0  0  0  0  0  0  0  0  0  0  0
    7.2102  -13.3761   25.6757 C   0  0  2  0  0  0  0  0  0  0  0  0
    7.8731  -12.7592   26.9031 C   0  0  0  0  0  0  0  0  0  0  0  0
    8.2112  -14.2977   25.0567 C   0  0  2  0  0  0  0  0  0  0  0  0
    7.6610  -14.8163   23.8089 N   0  0  0  0  0  0  0  0  0  0  0  0
    8.7192  -15.3616   25.9487 C   0  0  0  0  0  0  0  0  0  0  0  0
    7.9520  -16.2799   26.3962 O   0  0  0  0  0  0  0  0  0  0  0  0
   14.0701  -20.5682   30.6825 O   0  0  0  0  0  0  0  0  0  0  0  0
   13.5810  -19.6369   29.7867 C   0  0  0  0  0  0  0  0  0  0  0  0
   12.2214  -19.5834   29.5756 C   0  0  0  0  0  0  0  0  0  0  0  0
   11.7241  -18.6481   28.6752 C   0  0  0  0  0  0  0  0  0  0  0  0
   12.5308  -17.7795   27.9913 C   0  0  0  0  0  0  0  0  0  0  0  0
   12.0048  -16.7827   27.0384 C   0  0  0  0  0  0  0  0  0  0  0  0
   10.5088  -16.5159   27.2340 C   0  0  2  0  0  0  0  0  0  0  0  0
   10.0751  -15.4404   26.3634 N   0  0  0  0  0  0  0  0  0  0  0  0
   10.3195  -16.0781   28.6321 C   0  0  0  0  0  0  0  0  0  0  0  0
    9.9417  -16.9589   29.6427 O   0  0  0  0  0  0  0  0  0  0  0  0
   13.9043  -17.8542   28.2230 C   0  0  0  0  0  0  0  0  0  0  0  0
   14.4170  -18.7779   29.1147 C   0  0  0  0  0  0  0  0  0  0  0  0
   10.4893  -14.8797   28.9872 O   0  0  0  0  0  0  0  0  0  0  0  0
  1  5  1  0
  2  1  1  0
  2  3  1  0
  3  4  1  0
  5  4  1  0
  5  6  1  1
  6  7  2  0
  9  8  1  0
 10  9  1  0
 10 12  1  0
 10 11  1  1
 12 13  1  6
 13  6  1  0
 14 23  1  0
 14 12  1  0
 15 14  2  0
 16 17  1  0
 17 27  2  0
 17 18  1  0
 18 19  2  0
 19 20  1  0
 20 21  1  0
 22 21  1  1
 22 23  1  0
 22 24  1  0
 24 25  1  0
 26 20  2  0
 27 26  1  0
 28 24  2  0
M  END
$$$$
