PIY.pdb
     RDKit          3D

 28 29  0  0  1  0  0  0  0  0999 V2000
    6.8367  -15.3713   20.4169 N   0  0  0  0  0  0  0  0  0  0  0  0
    6.1290  -14.1588   20.0572 C   0  0  0  0  0  0  0  0  0  0  0  0
    7.1225  -13.2441   19.3955 C   0  0  0  0  0  0  0  0  0  0  0  0
    8.3754  -14.0733   19.2331 C   0  0  0  0  0  0  0  0  0  0  0  0
    8.2417  -15.0598   20.3714 C   0  0  1  0  0  0  0  0  0  0  0  0
    8.6408  -14.4791   21.6667 C   0  0  0  0  0  0  0  0  0  0  0  0
    9.7661  -13.9335   21.8273 O   0  0  0  0  0  0  0  0  0  0  0  0
    6.0574  -11.7652   26.4943 C   0  0  0  0  0  0  0  0  0  0  0  0
    7.2561  -12.4261   25.8956 C   0  0  0  0  0  0  0  0  0  0  0  0
    6.9824  -13.3029   24.7279 C   0  0  2  0  0  0  0  0  0  0  0  0
    6.0660  -14.4402   25.1672 C   0  0  0  0  0  0  0  0  0  0  0  0
    8.1783  -13.9297   24.0866 C   0  0  2  0  0  0  0  0  0  0  0  0
    7.7764  -14.5032   22.8067 N   0  0  0  0  0  0  0  0  0  0  0  0
    8.9182  -14.8845   24.9389 C   0  0  0  0  0  0  0  0  0  0  0  0
    8.5238  -16.0906   25.0876 O   0  0  0  0  0  0  0  0  0  0  0  0
   12.8572  -18.3951   31.8246 O   0  0  0  0  0  0  0  0  0  0  0  0
   12.4336  -17.5043   30.8572 C   0  0  0  0  0  0  0  0  0  0  0  0
   13.0804  -17.5022   29.6417 C   0  0  0  0  0  0  0  0  0  0  0  0
   12.6580  -16.6077   28.6647 C   0  0  0  0  0  0  0  0  0  0  0  0
   11.6263  -15.7305   28.8626 C   0  0  0  0  0  0  0  0  0  0  0  0
   11.1732  -14.7832   27.8255 C   0  0  0  0  0  0  0  0  0  0  0  0
   10.7205  -15.4890   26.5431 C   0  0  2  0  0  0  0  0  0  0  0  0
   10.1032  -14.5370   25.6402 N   0  0  0  0  0  0  0  0  0  0  0  0
    9.6993  -16.4851   26.9266 C   0  0  0  0  0  0  0  0  0  0  0  0
    8.4365  -16.1172   27.3848 O   0  0  0  0  0  0  0  0  0  0  0  0
   10.9878  -15.7526   30.1026 C   0  0  0  0  0  0  0  0  0  0  0  0
   11.3941  -16.6351   31.0862 C   0  0  0  0  0  0  0  0  0  0  0  0
    9.9164  -17.7259   26.8605 O   0  0  0  0  0  0  0  0  0  0  0  0
  1  5  1  0
  2  1  1  0
  2  3  1  0
  3  4  1  0
  5  4  1  0
  5  6  1  1
  6  7  2  0
  9  8  1  0
 10  9  1  0
 10 12  1  0
 10 11  1  1
 12 13  1  6
 13  6  1  0
 14 23  1  0
 14 12  1  0
 15 14  2  0
 16 17  1  0
 17 27  2  0
 17 18  1  0
 18 19  2  0
 19 20  1  0
 20 21  1  0
 22 21  1  1
 22 23  1  0
 22 24  1  0
 24 25  1  0
 26 20  2  0
 27 26  1  0
 28 24  2  0
M  END
$$$$
