QEC.pdb
     RDKit          3D

 25 24  0  0  1  0  0  0  0  0999 V2000
    9.8486  -13.3205   19.0132 N   0  0  0  0  0  0  0  0  0  0  0  0
    8.5976  -13.1719   18.3775 C   0  0  0  0  0  0  0  0  0  0  0  0
    8.5635  -12.8526   17.1752 O   0  0  0  0  0  0  0  0  0  0  0  0
    7.3252  -13.3870   19.1072 C   0  0  0  0  0  0  0  0  0  0  0  0
    7.5972  -13.7811   20.5545 C   0  0  0  0  0  0  0  0  0  0  0  0
    7.8527  -15.2694   20.5640 C   0  0  2  0  0  0  0  0  0  0  0  0
    6.6612  -16.0204   20.2290 N   0  0  0  0  0  0  0  0  0  0  0  0
    8.3375  -15.7461   21.8794 C   0  0  0  0  0  0  0  0  0  0  0  0
    7.5178  -15.9895   22.7923 O   0  0  0  0  0  0  0  0  0  0  0  0
    9.7244  -15.9360   22.1339 N   0  0  0  0  0  0  0  0  0  0  0  0
   10.2300  -16.4063   23.4237 C   0  0  1  0  0  0  0  0  0  0  0  0
   11.7020  -16.6979   23.2877 C   0  0  0  0  0  0  0  0  0  0  0  0
   12.4355  -17.0101   24.5261 C   0  0  0  0  0  0  0  0  0  0  0  0
   13.8624  -17.2625   24.2508 C   0  0  0  0  0  0  0  0  0  0  0  0
   14.5508  -16.3995   23.6860 O   0  0  0  0  0  0  0  0  0  0  0  0
   10.0539  -15.2888   24.3817 C   0  0  0  0  0  0  0  0  0  0  0  0
   10.3889  -14.1216   24.0696 O   0  0  0  0  0  0  0  0  0  0  0  0
   14.4132  -18.4945   24.6422 O   0  0  0  0  0  0  0  0  0  0  0  0
    9.5050  -15.4597   25.6918 N   0  0  0  0  0  0  0  0  0  0  0  0
    9.4639  -14.3786   26.6629 C   0  0  1  0  0  0  0  0  0  0  0  0
    8.1171  -13.6725   26.4959 C   0  0  0  0  0  0  0  0  0  0  0  0
    7.8511  -12.4248   27.7595 S   0  0  0  0  0  0  0  0  0  0  0  0
    9.6525  -14.8598   28.0390 C   0  0  0  0  0  0  0  0  0  0  0  0
    9.7786  -14.0519   29.0150 O   0  0  0  0  0  0  0  0  0  0  0  0
    9.7043  -16.2067   28.3597 O   0  0  0  0  0  0  0  0  0  0  0  0
  1  2  1  0
  2  3  2  0
  4  5  1  0
  4  2  1  0
  5  6  1  0
  6  8  1  0
  6  7  1  1
  8  9  2  0
 10 11  1  0
 10  8  1  0
 12 13  1  0
 11 12  1  6
 13 14  1  0
 14 18  1  0
 14 15  2  0
 16 11  1  0
 17 16  2  0
 19 16  1  0
 20 19  1  0
 20 21  1  1
 22 21  1  0
 23 20  1  0
 24 23  2  0
 25 23  1  0
M  END
$$$$
