QEC.pdb
     RDKit          3D

 25 24  0  0  1  0  0  0  0  0999 V2000
   10.1071  -13.7881   17.1002 N   0  0  0  0  0  0  0  0  0  0  0  0
    8.7287  -13.5756   17.3147 C   0  0  0  0  0  0  0  0  0  0  0  0
    7.9133  -13.9941   16.4729 O   0  0  0  0  0  0  0  0  0  0  0  0
    8.2300  -12.8667   18.5175 C   0  0  0  0  0  0  0  0  0  0  0  0
    7.3485  -13.7863   19.3548 C   0  0  0  0  0  0  0  0  0  0  0  0
    8.2097  -14.9509   19.7824 C   0  0  2  0  0  0  0  0  0  0  0  0
    7.9669  -16.1242   18.9701 N   0  0  0  0  0  0  0  0  0  0  0  0
    7.9868  -15.3222   21.1983 C   0  0  0  0  0  0  0  0  0  0  0  0
    6.8421  -15.2245   21.6931 O   0  0  0  0  0  0  0  0  0  0  0  0
    9.0508  -15.7915   22.0181 N   0  0  0  0  0  0  0  0  0  0  0  0
    8.8437  -16.2387   23.3956 C   0  0  1  0  0  0  0  0  0  0  0  0
   10.0116  -17.0984   23.8045 C   0  0  0  0  0  0  0  0  0  0  0  0
   10.0742  -17.5070   25.2181 C   0  0  0  0  0  0  0  0  0  0  0  0
   11.2868  -18.3017   25.4897 C   0  0  0  0  0  0  0  0  0  0  0  0
   11.1904  -19.4911   25.8268 O   0  0  0  0  0  0  0  0  0  0  0  0
    8.8323  -15.0205   24.2401 C   0  0  0  0  0  0  0  0  0  0  0  0
    9.7771  -14.1979   24.1868 O   0  0  0  0  0  0  0  0  0  0  0  0
   12.5398  -17.6798   25.3572 O   0  0  0  0  0  0  0  0  0  0  0  0
    7.7726  -14.7075   25.1488 N   0  0  0  0  0  0  0  0  0  0  0  0
    7.8164  -13.5455   26.0214 C   0  0  1  0  0  0  0  0  0  0  0  0
    6.4169  -12.9278   26.0214 C   0  0  0  0  0  0  0  0  0  0  0  0
    6.2850  -11.5620   27.1797 S   0  0  0  0  0  0  0  0  0  0  0  0
    8.2536  -13.8882   27.3824 C   0  0  0  0  0  0  0  0  0  0  0  0
    8.1183  -15.0654   27.8482 O   0  0  0  0  0  0  0  0  0  0  0  0
    8.8342  -12.9641   28.2361 O   0  0  0  0  0  0  0  0  0  0  0  0
  1  2  1  0
  2  3  2  0
  4  5  1  0
  4  2  1  0
  5  6  1  0
  6  8  1  0
  6  7  1  6
  8  9  2  0
 10 11  1  0
 10  8  1  0
 12 13  1  0
 11 12  1  1
 13 14  1  0
 14 18  1  0
 14 15  2  0
 16 11  1  0
 17 16  2  0
 19 16  1  0
 20 19  1  0
 20 21  1  1
 22 21  1  0
 23 20  1  0
 24 23  2  0
 25 23  1  0
M  END
$$$$
