QEC.pdb
     RDKit          3D

 25 24  0  0  1  0  0  0  0  0999 V2000
   10.0876  -13.4772   18.8708 N   0  0  0  0  0  0  0  0  0  0  0  0
    8.9809  -13.2467   18.0262 C   0  0  0  0  0  0  0  0  0  0  0  0
    9.1801  -12.9629   16.8311 O   0  0  0  0  0  0  0  0  0  0  0  0
    7.5889  -13.3347   18.5286 C   0  0  0  0  0  0  0  0  0  0  0  0
    7.5758  -13.6684   20.0160 C   0  0  0  0  0  0  0  0  0  0  0  0
    7.8785  -15.1429   20.1381 C   0  0  2  0  0  0  0  0  0  0  0  0
    6.8947  -15.9512   19.4491 N   0  0  0  0  0  0  0  0  0  0  0  0
    7.9284  -15.5894   21.5490 C   0  0  0  0  0  0  0  0  0  0  0  0
    6.8687  -15.6939   22.2052 O   0  0  0  0  0  0  0  0  0  0  0  0
    9.1621  -15.9057   22.1832 N   0  0  0  0  0  0  0  0  0  0  0  0
    9.2344  -16.4136   23.5533 C   0  0  1  0  0  0  0  0  0  0  0  0
   10.5524  -17.1204   23.7370 C   0  0  0  0  0  0  0  0  0  0  0  0
   10.7182  -18.4094   23.0442 C   0  0  0  0  0  0  0  0  0  0  0  0
   11.4855  -19.3622   23.8682 C   0  0  0  0  0  0  0  0  0  0  0  0
   12.6974  -19.5279   23.6645 O   0  0  0  0  0  0  0  0  0  0  0  0
    9.2012  -15.2311   24.4467 C   0  0  0  0  0  0  0  0  0  0  0  0
   10.1240  -14.3827   24.4172 O   0  0  0  0  0  0  0  0  0  0  0  0
   10.8120  -20.0687   24.8790 O   0  0  0  0  0  0  0  0  0  0  0  0
    8.1440  -14.9828   25.3780 N   0  0  0  0  0  0  0  0  0  0  0  0
    8.1743  -13.8641   26.3061 C   0  0  1  0  0  0  0  0  0  0  0  0
    6.7555  -13.2964   26.3754 C   0  0  0  0  0  0  0  0  0  0  0  0
    6.6157  -11.9833   27.5923 S   0  0  0  0  0  0  0  0  0  0  0  0
    8.6623  -14.2576   27.6357 C   0  0  0  0  0  0  0  0  0  0  0  0
    9.2598  -13.4302   28.3969 O   0  0  0  0  0  0  0  0  0  0  0  0
    8.5056  -15.5383   28.1408 O   0  0  0  0  0  0  0  0  0  0  0  0
  1  2  1  0
  2  3  2  0
  4  5  1  0
  4  2  1  0
  5  6  1  0
  6  8  1  0
  6  7  1  6
  8  9  2  0
 10 11  1  0
 10  8  1  0
 12 13  1  0
 11 12  1  6
 13 14  1  0
 14 18  1  0
 14 15  2  0
 16 11  1  0
 17 16  2  0
 19 16  1  0
 20 19  1  0
 20 21  1  1
 22 21  1  0
 23 20  1  0
 24 23  2  0
 25 23  1  0
M  END
$$$$
