QEC.pdb
     RDKit          3D

 25 24  0  0  1  0  0  0  0  0999 V2000
    9.4542  -12.7235   19.0010 N   0  0  0  0  0  0  0  0  0  0  0  0
    8.7550  -13.3418   17.9427 C   0  0  0  0  0  0  0  0  0  0  0  0
    9.0500  -13.0493   16.7696 O   0  0  0  0  0  0  0  0  0  0  0  0
    7.6792  -14.3301   18.1953 C   0  0  0  0  0  0  0  0  0  0  0  0
    7.4175  -14.4672   19.6907 C   0  0  0  0  0  0  0  0  0  0  0  0
    7.7145  -15.9013   20.0591 C   0  0  2  0  0  0  0  0  0  0  0  0
    6.8114  -16.8220   19.4015 N   0  0  0  0  0  0  0  0  0  0  0  0
    7.6219  -16.1355   21.5182 C   0  0  0  0  0  0  0  0  0  0  0  0
    6.5021  -16.1467   22.0756 O   0  0  0  0  0  0  0  0  0  0  0  0
    8.7845  -16.3500   22.3099 N   0  0  0  0  0  0  0  0  0  0  0  0
    8.7207  -16.5898   23.7517 C   0  0  1  0  0  0  0  0  0  0  0  0
    9.9995  -17.2575   24.1868 C   0  0  0  0  0  0  0  0  0  0  0  0
   10.1788  -17.4733   25.6325 C   0  0  0  0  0  0  0  0  0  0  0  0
   11.4851  -18.0949   25.9205 C   0  0  0  0  0  0  0  0  0  0  0  0
   12.4257  -17.4040   26.3392 O   0  0  0  0  0  0  0  0  0  0  0  0
    8.6354  -15.2594   24.3999 C   0  0  0  0  0  0  0  0  0  0  0  0
    9.4959  -14.3784   24.1648 O   0  0  0  0  0  0  0  0  0  0  0  0
   11.6315  -19.4763   25.7092 O   0  0  0  0  0  0  0  0  0  0  0  0
    7.5947  -14.8986   25.3129 N   0  0  0  0  0  0  0  0  0  0  0  0
    7.5857  -13.6259   26.0155 C   0  0  1  0  0  0  0  0  0  0  0  0
    6.1232  -13.2024   26.1641 C   0  0  0  0  0  0  0  0  0  0  0  0
    5.9446  -11.7623   27.2218 S   0  0  0  0  0  0  0  0  0  0  0  0
    8.2581  -13.7062   27.3202 C   0  0  0  0  0  0  0  0  0  0  0  0
    8.6659  -12.6621   27.9240 O   0  0  0  0  0  0  0  0  0  0  0  0
    8.4889  -14.9082   27.9697 O   0  0  0  0  0  0  0  0  0  0  0  0
  1  2  1  0
  2  3  2  0
  4  5  1  0
  4  2  1  0
  5  6  1  0
  6  8  1  0
  6  7  1  6
  8  9  2  0
 10 11  1  0
 10  8  1  0
 12 13  1  0
 11 12  1  1
 13 14  1  0
 14 18  1  0
 14 15  2  0
 16 11  1  0
 17 16  2  0
 19 16  1  0
 20 19  1  0
 20 21  1  1
 22 21  1  0
 23 20  1  0
 24 23  2  0
 25 23  1  0
M  END
$$$$
