QEC.pdb
     RDKit          3D

 25 24  0  0  1  0  0  0  0  0999 V2000
   10.2765  -12.9937   17.6237 N   0  0  0  0  0  0  0  0  0  0  0  0
    9.7304  -12.7772   18.9067 C   0  0  0  0  0  0  0  0  0  0  0  0
   10.4976  -12.5646   19.8632 O   0  0  0  0  0  0  0  0  0  0  0  0
    8.2667  -12.7969   19.1413 C   0  0  0  0  0  0  0  0  0  0  0  0
    7.9561  -13.2901   20.5498 C   0  0  0  0  0  0  0  0  0  0  0  0
    8.0768  -14.7953   20.5248 C   0  0  2  0  0  0  0  0  0  0  0  0
    7.0630  -15.4009   19.6874 N   0  0  0  0  0  0  0  0  0  0  0  0
    7.9658  -15.3886   21.8769 C   0  0  0  0  0  0  0  0  0  0  0  0
    6.8365  -15.6162   22.3644 O   0  0  0  0  0  0  0  0  0  0  0  0
    9.1210  -15.7094   22.6429 N   0  0  0  0  0  0  0  0  0  0  0  0
    9.0394  -16.2587   23.9964 C   0  0  1  0  0  0  0  0  0  0  0  0
   10.1094  -17.3074   24.1568 C   0  0  0  0  0  0  0  0  0  0  0  0
    9.9414  -18.5522   23.3879 C   0  0  0  0  0  0  0  0  0  0  0  0
   11.0865  -19.4603   23.5875 C   0  0  0  0  0  0  0  0  0  0  0  0
   12.0569  -19.4190   22.8168 O   0  0  0  0  0  0  0  0  0  0  0  0
    9.3272  -15.1407   24.9263 C   0  0  0  0  0  0  0  0  0  0  0  0
   10.4226  -14.5328   24.8741 O   0  0  0  0  0  0  0  0  0  0  0  0
   11.0467  -20.3633   24.6634 O   0  0  0  0  0  0  0  0  0  0  0  0
    8.4014  -14.6904   25.9197 N   0  0  0  0  0  0  0  0  0  0  0  0
    8.7587  -13.6985   26.9206 C   0  0  1  0  0  0  0  0  0  0  0  0
    7.4673  -12.9928   27.3383 C   0  0  0  0  0  0  0  0  0  0  0  0
    6.2774  -12.9184   25.9954 S   0  0  0  0  0  0  0  0  0  0  0  0
    9.4436  -14.2960   28.0759 C   0  0  0  0  0  0  0  0  0  0  0  0
    9.5411  -15.5581   28.2120 O   0  0  0  0  0  0  0  0  0  0  0  0
   10.0204  -13.5341   29.0793 O   0  0  0  0  0  0  0  0  0  0  0  0
  1  2  1  0
  2  3  2  0
  4  5  1  0
  4  2  1  0
  5  6  1  0
  6  8  1  0
  6  7  1  6
  8  9  2  0
 10 11  1  0
 10  8  1  0
 12 13  1  0
 11 12  1  6
 13 14  1  0
 14 18  1  0
 14 15  2  0
 16 11  1  0
 17 16  2  0
 19 16  1  0
 20 19  1  0
 20 21  1  1
 22 21  1  0
 23 20  1  0
 24 23  2  0
 25 23  1  0
M  END
$$$$
