QEC.pdb
     RDKit          3D

 25 24  0  0  1  0  0  0  0  0999 V2000
    9.8694  -13.2784   18.1726 N   0  0  0  0  0  0  0  0  0  0  0  0
    8.4981  -13.0366   17.9441 C   0  0  0  0  0  0  0  0  0  0  0  0
    8.1610  -12.3269   16.9791 O   0  0  0  0  0  0  0  0  0  0  0  0
    7.4514  -13.6074   18.8253 C   0  0  0  0  0  0  0  0  0  0  0  0
    8.0834  -14.3810   19.9768 C   0  0  0  0  0  0  0  0  0  0  0  0
    8.4956  -15.7264   19.4283 C   0  0  2  0  0  0  0  0  0  0  0  0
    7.3580  -16.4796   18.9443 N   0  0  0  0  0  0  0  0  0  0  0  0
    9.1936  -16.5533   20.4389 C   0  0  0  0  0  0  0  0  0  0  0  0
    8.5349  -17.3175   21.1784 O   0  0  0  0  0  0  0  0  0  0  0  0
   10.6071  -16.5005   20.5920 N   0  0  0  0  0  0  0  0  0  0  0  0
   11.3315  -17.3758   21.5136 C   0  0  1  0  0  0  0  0  0  0  0  0
   12.7636  -17.4783   21.0567 C   0  0  0  0  0  0  0  0  0  0  0  0
   13.0419  -18.3997   19.9419 C   0  0  0  0  0  0  0  0  0  0  0  0
   14.4469  -18.2977   19.5046 C   0  0  0  0  0  0  0  0  0  0  0  0
   14.7572  -17.5375   18.5755 O   0  0  0  0  0  0  0  0  0  0  0  0
   11.3024  -16.7134   22.8394 C   0  0  0  0  0  0  0  0  0  0  0  0
   11.2939  -15.4628   22.9281 O   0  0  0  0  0  0  0  0  0  0  0  0
   15.4126  -19.0776   20.1632 O   0  0  0  0  0  0  0  0  0  0  0  0
   11.2825  -17.4346   24.0748 N   0  0  0  0  0  0  0  0  0  0  0  0
   10.7075  -16.8785   25.2888 C   0  0  1  0  0  0  0  0  0  0  0  0
    9.2665  -16.4802   24.9646 C   0  0  0  0  0  0  0  0  0  0  0  0
    8.4142  -15.8150   26.3983 S   0  0  0  0  0  0  0  0  0  0  0  0
   10.7649  -17.8223   26.4143 C   0  0  0  0  0  0  0  0  0  0  0  0
   10.4160  -19.0394   26.2806 O   0  0  0  0  0  0  0  0  0  0  0  0
   11.1971  -17.4535   27.6780 O   0  0  0  0  0  0  0  0  0  0  0  0
  1  2  1  0
  2  3  2  0
  4  5  1  0
  4  2  1  0
  5  6  1  0
  6  8  1  0
  6  7  1  1
  8  9  2  0
 10 11  1  0
 10  8  1  0
 12 13  1  0
 11 12  1  6
 13 14  1  0
 14 18  1  0
 14 15  2  0
 16 11  1  0
 17 16  2  0
 19 16  1  0
 20 19  1  0
 20 21  1  6
 22 21  1  0
 23 20  1  0
 24 23  2  0
 25 23  1  0
M  END
$$$$
