QEC.pdb
     RDKit          3D

 25 24  0  0  1  0  0  0  0  0999 V2000
   10.0360  -13.8628   18.3062 N   0  0  0  0  0  0  0  0  0  0  0  0
    8.8940  -13.5196   17.5518 C   0  0  0  0  0  0  0  0  0  0  0  0
    9.0098  -13.3397   16.3258 O   0  0  0  0  0  0  0  0  0  0  0  0
    7.5617  -13.3686   18.1844 C   0  0  0  0  0  0  0  0  0  0  0  0
    7.6487  -13.6238   19.6847 C   0  0  0  0  0  0  0  0  0  0  0  0
    7.7319  -15.1200   19.8719 C   0  0  2  0  0  0  0  0  0  0  0  0
    6.6338  -15.8037   19.2220 N   0  0  0  0  0  0  0  0  0  0  0  0
    7.7282  -15.5067   21.3012 C   0  0  0  0  0  0  0  0  0  0  0  0
    6.6444  -15.5818   21.9214 O   0  0  0  0  0  0  0  0  0  0  0  0
    8.9365  -15.7978   21.9936 N   0  0  0  0  0  0  0  0  0  0  0  0
    8.9537  -16.3106   23.3637 C   0  0  1  0  0  0  0  0  0  0  0  0
   10.2266  -17.0897   23.5713 C   0  0  0  0  0  0  0  0  0  0  0  0
   10.4966  -17.5712   24.9367 C   0  0  0  0  0  0  0  0  0  0  0  0
   11.7593  -18.3316   24.9935 C   0  0  0  0  0  0  0  0  0  0  0  0
   12.1876  -18.7489   26.0797 O   0  0  0  0  0  0  0  0  0  0  0  0
    8.9689  -15.1292   24.2589 C   0  0  0  0  0  0  0  0  0  0  0  0
    9.4644  -14.0434   23.8748 O   0  0  0  0  0  0  0  0  0  0  0  0
   12.4549  -18.5668   23.7955 O   0  0  0  0  0  0  0  0  0  0  0  0
    8.4342  -15.1453   25.5858 N   0  0  0  0  0  0  0  0  0  0  0  0
    8.3832  -13.9532   26.4164 C   0  0  1  0  0  0  0  0  0  0  0  0
    7.0126  -13.3095   26.1988 C   0  0  0  0  0  0  0  0  0  0  0  0
    6.7377  -11.9230   27.3063 S   0  0  0  0  0  0  0  0  0  0  0  0
    8.6173  -14.2541   27.8361 C   0  0  0  0  0  0  0  0  0  0  0  0
    8.6096  -15.4500   28.2729 O   0  0  0  0  0  0  0  0  0  0  0  0
    8.8587  -13.2683   28.7794 O   0  0  0  0  0  0  0  0  0  0  0  0
  1  2  1  0
  2  3  2  0
  4  5  1  0
  4  2  1  0
  5  6  1  0
  6  8  1  0
  6  7  1  6
  8  9  2  0
 10 11  1  0
 10  8  1  0
 12 13  1  0
 11 12  1  6
 13 14  1  0
 14 18  1  0
 14 15  2  0
 16 11  1  0
 17 16  2  0
 19 16  1  0
 20 19  1  0
 20 21  1  1
 22 21  1  0
 23 20  1  0
 24 23  2  0
 25 23  1  0
M  END
$$$$
