EAD.pdb
     RDKit          3D

 23 22  0  0  1  0  0  0  0  0999 V2000
   20.4711  -11.7899  -18.1142 N   0  0  0  0  0  0  0  0  0  0  0  0
   19.3783  -11.1312  -17.5177 C   0  0  1  0  0  0  0  0  0  0  0  0
   18.3156  -11.9589  -16.8824 C   0  0  0  0  0  0  0  0  0  0  0  0
   18.4211  -13.4035  -17.1865 C   0  0  0  0  0  0  0  0  0  0  0  0
   17.3978  -14.2268  -16.5448 C   0  0  0  0  0  0  0  0  0  0  0  0
   16.5083  -14.7669  -17.3133 O   0  0  0  0  0  0  0  0  0  0  0  0
   19.7986  -10.1126  -16.4695 C   0  0  0  0  0  0  0  0  0  0  0  0
   18.8084   -9.4576  -16.0329 O   0  0  0  0  0  0  0  0  0  0  0  0
   17.2695  -14.4915  -15.2264 O   0  0  0  0  0  0  0  0  0  0  0  0
   22.8470   -9.2357  -14.4153 C   0  0  0  0  0  0  0  0  0  0  0  0
   21.4957   -8.9938  -15.0119 C   0  0  2  0  0  0  0  0  0  0  0  0
   21.0927   -9.9033  -16.0240 N   0  0  0  0  0  0  0  0  0  0  0  0
   21.3426   -7.5496  -15.3143 C   0  0  0  0  0  0  0  0  0  0  0  0
   21.6102   -7.0701  -16.4264 O   0  0  0  0  0  0  0  0  0  0  0  0
   20.8772   -6.6138  -14.3377 N   0  0  0  0  0  0  0  0  0  0  0  0
   20.7887   -5.1756  -14.6740 C   0  0  1  0  0  0  0  0  0  0  0  0
   19.4932   -4.6097  -14.1648 C   0  0  0  0  0  0  0  0  0  0  0  0
   19.3489   -3.1638  -14.3590 C   0  0  0  0  0  0  0  0  0  0  0  0
   19.2850   -2.3718  -13.3713 O   0  0  0  0  0  0  0  0  0  0  0  0
   21.9860   -4.5216  -14.0986 C   0  0  0  0  0  0  0  0  0  0  0  0
   22.4974   -3.3811  -14.6961 O   0  0  0  0  0  0  0  0  0  0  0  0
   19.2736   -2.6073  -15.6080 O   0  0  0  0  0  0  0  0  0  0  0  0
   22.5672   -4.9475  -13.0897 O   0  0  0  0  0  0  0  0  0  0  0  0
  2  3  1  0
  2  1  1  1
  3  4  1  0
  4  5  1  0
  5  6  2  0
  5  9  1  0
  7  8  2  0
  7  2  1  0
 11 10  1  6
 11 13  1  0
 11 12  1  0
 12  7  1  0
 13 15  1  0
 14 13  2  0
 15 16  1  0
 16 17  1  1
 17 18  1  0
 18 19  2  0
 18 22  1  0
 20 16  1  0
 21 20  1  0
 23 20  2  0
M  END
$$$$
