EAD.pdb
     RDKit          3D

 23 22  0  0  1  0  0  0  0  0999 V2000
   13.2410  -11.1735  -10.7960 N   0  0  0  0  0  0  0  0  0  0  0  0
   14.5043  -10.5654  -10.9303 C   0  0  1  0  0  0  0  0  0  0  0  0
   15.1981  -10.6606  -12.2447 C   0  0  0  0  0  0  0  0  0  0  0  0
   15.4611  -12.0496  -12.6827 C   0  0  0  0  0  0  0  0  0  0  0  0
   16.7405  -12.5894  -12.2262 C   0  0  0  0  0  0  0  0  0  0  0  0
   17.7971  -11.8810  -12.4618 O   0  0  0  0  0  0  0  0  0  0  0  0
   14.4942   -9.0884  -10.5680 C   0  0  0  0  0  0  0  0  0  0  0  0
   13.7066   -8.4322  -11.3091 O   0  0  0  0  0  0  0  0  0  0  0  0
   16.9518  -13.7570  -11.5805 O   0  0  0  0  0  0  0  0  0  0  0  0
   15.4675   -6.8890   -7.6996 C   0  0  0  0  0  0  0  0  0  0  0  0
   15.1710   -7.1466   -9.1440 C   0  0  2  0  0  0  0  0  0  0  0  0
   15.2392   -8.5020   -9.5590 N   0  0  0  0  0  0  0  0  0  0  0  0
   15.8945   -6.1568   -9.9790 C   0  0  0  0  0  0  0  0  0  0  0  0
   17.0704   -6.3208  -10.3376 O   0  0  0  0  0  0  0  0  0  0  0  0
   15.2803   -4.9437  -10.4234 N   0  0  0  0  0  0  0  0  0  0  0  0
   16.0773   -3.9369  -11.1587 C   0  0  1  0  0  0  0  0  0  0  0  0
   15.3042   -3.4417  -12.3483 C   0  0  0  0  0  0  0  0  0  0  0  0
   15.9040   -2.2836  -13.0179 C   0  0  0  0  0  0  0  0  0  0  0  0
   15.3432   -1.1471  -12.9923 O   0  0  0  0  0  0  0  0  0  0  0  0
   16.4240   -2.8693  -10.1931 C   0  0  0  0  0  0  0  0  0  0  0  0
   17.4070   -1.9476  -10.5147 O   0  0  0  0  0  0  0  0  0  0  0  0
   17.0879   -2.3774  -13.6997 O   0  0  0  0  0  0  0  0  0  0  0  0
   15.8704   -2.7526   -9.0900 O   0  0  0  0  0  0  0  0  0  0  0  0
  2  3  1  0
  2  1  1  6
  3  4  1  0
  4  5  1  0
  5  6  2  0
  5  9  1  0
  7  8  2  0
  7  2  1  0
 11 10  1  1
 11 13  1  0
 11 12  1  0
 12  7  1  0
 13 15  1  0
 14 13  2  0
 15 16  1  0
 16 17  1  6
 17 18  1  0
 18 19  2  0
 18 22  1  0
 20 16  1  0
 21 20  1  0
 23 20  2  0
M  END
$$$$
