EAD.pdb
     RDKit          3D

 23 22  0  0  1  0  0  0  0  0999 V2000
   20.6050  -22.0654  -13.1071 N   0  0  0  0  0  0  0  0  0  0  0  0
   21.1106  -21.0943  -13.9932 C   0  0  1  0  0  0  0  0  0  0  0  0
   20.3134  -19.8557  -14.2136 C   0  0  0  0  0  0  0  0  0  0  0  0
   18.8557  -20.0925  -14.3118 C   0  0  0  0  0  0  0  0  0  0  0  0
   18.0441  -19.1659  -13.5248 C   0  0  0  0  0  0  0  0  0  0  0  0
   17.6159  -18.1022  -14.1238 O   0  0  0  0  0  0  0  0  0  0  0  0
   22.5126  -20.6307  -13.6296 C   0  0  0  0  0  0  0  0  0  0  0  0
   22.8309  -19.5765  -14.2522 O   0  0  0  0  0  0  0  0  0  0  0  0
   17.6859  -19.2908  -12.2282 O   0  0  0  0  0  0  0  0  0  0  0  0
   25.2691  -21.3741  -11.1658 C   0  0  0  0  0  0  0  0  0  0  0  0
   24.7152  -20.9189  -12.4799 C   0  0  2  0  0  0  0  0  0  0  0  0
   23.3607  -21.2582  -12.7330 N   0  0  0  0  0  0  0  0  0  0  0  0
   25.6902  -21.2212  -13.5562 C   0  0  0  0  0  0  0  0  0  0  0  0
   25.6922  -22.2993  -14.1694 O   0  0  0  0  0  0  0  0  0  0  0  0
   26.6961  -20.2857  -13.9552 N   0  0  0  0  0  0  0  0  0  0  0  0
   27.6157  -20.6167  -15.0661 C   0  0  1  0  0  0  0  0  0  0  0  0
   28.0389  -22.0553  -14.9687 C   0  0  0  0  0  0  0  0  0  0  0  0
   28.9566  -22.4870  -16.0274 C   0  0  0  0  0  0  0  0  0  0  0  0
   29.2421  -23.7113  -16.1898 O   0  0  0  0  0  0  0  0  0  0  0  0
   26.9078  -20.2929  -16.3257 C   0  0  0  0  0  0  0  0  0  0  0  0
   27.4776  -19.4041  -17.2227 O   0  0  0  0  0  0  0  0  0  0  0  0
   29.5457  -21.5927  -16.8809 O   0  0  0  0  0  0  0  0  0  0  0  0
   25.8107  -20.7849  -16.6278 O   0  0  0  0  0  0  0  0  0  0  0  0
  2  3  1  0
  2  1  1  1
  3  4  1  0
  4  5  1  0
  5  6  2  0
  5  9  1  0
  7  8  2  0
  7  2  1  0
 11 10  1  1
 11 13  1  0
 11 12  1  0
 12  7  1  0
 13 15  1  0
 14 13  2  0
 15 16  1  0
 16 17  1  6
 17 18  1  0
 18 19  2  0
 18 22  1  0
 20 16  1  0
 21 20  1  0
 23 20  2  0
M  END
$$$$
