EAD.pdb
     RDKit          3D

 23 22  0  0  1  0  0  0  0  0999 V2000
   17.9623  -12.1583  -16.4362 N   0  0  0  0  0  0  0  0  0  0  0  0
   18.8111  -11.2310  -17.0714 C   0  0  1  0  0  0  0  0  0  0  0  0
   18.2307  -10.3423  -18.1161 C   0  0  0  0  0  0  0  0  0  0  0  0
   17.3028  -11.0323  -19.0399 C   0  0  0  0  0  0  0  0  0  0  0  0
   16.8057  -10.1919  -20.1276 C   0  0  0  0  0  0  0  0  0  0  0  0
   17.6837   -9.5333  -20.8124 O   0  0  0  0  0  0  0  0  0  0  0  0
   19.5279  -10.3140  -16.0925 C   0  0  0  0  0  0  0  0  0  0  0  0
   18.7115   -9.6968  -15.3490 O   0  0  0  0  0  0  0  0  0  0  0  0
   15.5202  -10.0186  -20.5052 O   0  0  0  0  0  0  0  0  0  0  0  0
   23.0342   -9.4930  -14.9395 C   0  0  0  0  0  0  0  0  0  0  0  0
   21.5805   -9.2213  -15.1710 C   0  0  2  0  0  0  0  0  0  0  0  0
   20.8996  -10.1520  -15.9982 N   0  0  0  0  0  0  0  0  0  0  0  0
   21.3930   -7.7847  -15.4899 C   0  0  0  0  0  0  0  0  0  0  0  0
   21.4360   -7.3490  -16.6503 O   0  0  0  0  0  0  0  0  0  0  0  0
   21.1524   -6.8061  -14.4747 N   0  0  0  0  0  0  0  0  0  0  0  0
   21.1401   -5.3677  -14.8216 C   0  0  1  0  0  0  0  0  0  0  0  0
   19.7564   -4.8098  -14.6416 C   0  0  0  0  0  0  0  0  0  0  0  0
   19.6671   -3.3552  -14.8015 C   0  0  0  0  0  0  0  0  0  0  0  0
   19.9745   -2.7949  -15.8963 O   0  0  0  0  0  0  0  0  0  0  0  0
   22.1582   -4.7084  -13.9723 C   0  0  0  0  0  0  0  0  0  0  0  0
   22.7611   -3.5397  -14.4081 O   0  0  0  0  0  0  0  0  0  0  0  0
   19.2538   -2.5410  -13.7811 O   0  0  0  0  0  0  0  0  0  0  0  0
   22.5069   -5.1542  -12.8693 O   0  0  0  0  0  0  0  0  0  0  0  0
  2  3  1  0
  2  1  1  1
  3  4  1  0
  4  5  1  0
  5  6  2  0
  5  9  1  0
  7  8  2  0
  7  2  1  0
 11 10  1  6
 11 13  1  0
 11 12  1  0
 12  7  1  0
 13 15  1  0
 14 13  2  0
 15 16  1  0
 16 17  1  1
 17 18  1  0
 18 19  2  0
 18 22  1  0
 20 16  1  0
 21 20  1  0
 23 20  2  0
M  END
$$$$
