EAD.pdb
     RDKit          3D

 23 22  0  0  1  0  0  0  0  0999 V2000
   19.1384  -12.5400  -16.4978 N   0  0  0  0  0  0  0  0  0  0  0  0
   18.9685  -11.1703  -16.7788 C   0  0  1  0  0  0  0  0  0  0  0  0
   17.5818  -10.6408  -16.9005 C   0  0  0  0  0  0  0  0  0  0  0  0
   16.8003  -11.2575  -17.9956 C   0  0  0  0  0  0  0  0  0  0  0  0
   15.4900  -10.6473  -18.2134 C   0  0  0  0  0  0  0  0  0  0  0  0
   14.4514  -11.3607  -17.9201 O   0  0  0  0  0  0  0  0  0  0  0  0
   19.6757  -10.2668  -15.7806 C   0  0  0  0  0  0  0  0  0  0  0  0
   19.3171  -10.5139  -14.5930 O   0  0  0  0  0  0  0  0  0  0  0  0
   15.2331   -9.4108  -18.6929 O   0  0  0  0  0  0  0  0  0  0  0  0
   22.5628   -7.8328  -15.7088 C   0  0  0  0  0  0  0  0  0  0  0  0
   21.3278   -8.4891  -15.1752 C   0  0  2  0  0  0  0  0  0  0  0  0
   20.6023   -9.2879  -16.0969 N   0  0  0  0  0  0  0  0  0  0  0  0
   20.5469   -7.5027  -14.3892 C   0  0  0  0  0  0  0  0  0  0  0  0
   19.6469   -6.8132  -14.8920 O   0  0  0  0  0  0  0  0  0  0  0  0
   20.7849   -7.2813  -12.9962 N   0  0  0  0  0  0  0  0  0  0  0  0
   20.0683   -6.1990  -12.2859 C   0  0  1  0  0  0  0  0  0  0  0  0
   19.7703   -6.6225  -10.8752 C   0  0  0  0  0  0  0  0  0  0  0  0
   19.0794   -5.6076  -10.0740 C   0  0  0  0  0  0  0  0  0  0  0  0
   18.5657   -4.5823  -10.6143 O   0  0  0  0  0  0  0  0  0  0  0  0
   20.9162   -4.9883  -12.3728 C   0  0  0  0  0  0  0  0  0  0  0  0
   20.3213   -3.7402  -12.4603 O   0  0  0  0  0  0  0  0  0  0  0  0
   18.9614   -5.7188   -8.7143 O   0  0  0  0  0  0  0  0  0  0  0  0
   22.1551   -5.0316  -12.3705 O   0  0  0  0  0  0  0  0  0  0  0  0
  2  3  1  0
  2  1  1  1
  3  4  1  0
  4  5  1  0
  5  6  2  0
  5  9  1  0
  7  8  2  0
  7  2  1  0
 11 10  1  6
 11 13  1  0
 11 12  1  0
 12  7  1  0
 13 15  1  0
 14 13  2  0
 15 16  1  0
 16 17  1  1
 17 18  1  0
 18 19  2  0
 18 22  1  0
 20 16  1  0
 21 20  1  0
 23 20  2  0
M  END
$$$$
