EAD.pdb
     RDKit          3D

 23 22  0  0  1  0  0  0  0  0999 V2000
   15.8385  -10.9496  -17.7008 N   0  0  0  0  0  0  0  0  0  0  0  0
   16.4489  -10.6220  -16.4745 C   0  0  1  0  0  0  0  0  0  0  0  0
   17.4814  -11.5469  -15.9299 C   0  0  0  0  0  0  0  0  0  0  0  0
   16.9737  -12.9069  -15.6420 C   0  0  0  0  0  0  0  0  0  0  0  0
   17.9481  -13.7860  -14.9983 C   0  0  0  0  0  0  0  0  0  0  0  0
   17.5373  -14.9593  -14.6401 O   0  0  0  0  0  0  0  0  0  0  0  0
   17.0841   -9.2402  -16.4774 C   0  0  0  0  0  0  0  0  0  0  0  0
   17.8136   -9.0649  -17.4959 O   0  0  0  0  0  0  0  0  0  0  0  0
   19.2432  -13.5127  -14.7284 O   0  0  0  0  0  0  0  0  0  0  0  0
   16.7933   -5.9492  -14.6629 C   0  0  0  0  0  0  0  0  0  0  0  0
   17.4979   -6.9807  -15.4876 C   0  0  2  0  0  0  0  0  0  0  0  0
   16.9066   -8.2707  -15.5051 N   0  0  0  0  0  0  0  0  0  0  0  0
   18.9545   -6.9190  -15.2135 C   0  0  0  0  0  0  0  0  0  0  0  0
   19.5022   -7.6321  -14.3592 O   0  0  0  0  0  0  0  0  0  0  0  0
   19.8233   -6.0274  -15.9181 N   0  0  0  0  0  0  0  0  0  0  0  0
   21.2428   -5.9071  -15.5179 C   0  0  1  0  0  0  0  0  0  0  0  0
   22.0391   -5.2936  -16.6349 C   0  0  0  0  0  0  0  0  0  0  0  0
   23.4745   -5.1789  -16.3599 C   0  0  0  0  0  0  0  0  0  0  0  0
   23.9581   -5.5233  -15.2399 O   0  0  0  0  0  0  0  0  0  0  0  0
   21.2746   -5.1168  -14.2662 C   0  0  0  0  0  0  0  0  0  0  0  0
   20.1366   -4.4444  -13.8514 O   0  0  0  0  0  0  0  0  0  0  0  0
   24.3517   -4.6945  -17.2932 O   0  0  0  0  0  0  0  0  0  0  0  0
   22.2850   -5.0231  -13.5540 O   0  0  0  0  0  0  0  0  0  0  0  0
  2  3  1  0
  2  1  1  6
  3  4  1  0
  4  5  1  0
  5  6  2  0
  5  9  1  0
  7  8  2  0
  7  2  1  0
 11 10  1  1
 11 13  1  0
 11 12  1  0
 12  7  1  0
 13 15  1  0
 14 13  2  0
 15 16  1  0
 16 17  1  6
 17 18  1  0
 18 19  2  0
 18 22  1  0
 20 16  1  0
 21 20  1  0
 23 20  2  0
M  END
$$$$
