EAD.pdb
     RDKit          3D

 23 22  0  0  1  0  0  0  0  0999 V2000
   20.1125  -12.2579  -17.4141 N   0  0  0  0  0  0  0  0  0  0  0  0
   19.2243  -11.4068  -16.7283 C   0  0  1  0  0  0  0  0  0  0  0  0
   18.1396  -12.0245  -15.9159 C   0  0  0  0  0  0  0  0  0  0  0  0
   17.6988  -13.3467  -16.4137 C   0  0  0  0  0  0  0  0  0  0  0  0
   16.8095  -14.0639  -15.5018 C   0  0  0  0  0  0  0  0  0  0  0  0
   16.4143  -15.2402  -15.8673 O   0  0  0  0  0  0  0  0  0  0  0  0
   19.9331  -10.4278  -15.8052 C   0  0  0  0  0  0  0  0  0  0  0  0
   19.1112   -9.6863  -15.1929 O   0  0  0  0  0  0  0  0  0  0  0  0
   16.3446  -13.6360  -14.3077 O   0  0  0  0  0  0  0  0  0  0  0  0
   23.4498   -9.6051  -14.6445 C   0  0  0  0  0  0  0  0  0  0  0  0
   21.9860   -9.3671  -14.8476 C   0  0  2  0  0  0  0  0  0  0  0  0
   21.3034  -10.3337  -15.6311 N   0  0  0  0  0  0  0  0  0  0  0  0
   21.7632   -7.9441  -15.2021 C   0  0  0  0  0  0  0  0  0  0  0  0
   21.8633   -7.5238  -16.3647 O   0  0  0  0  0  0  0  0  0  0  0  0
   21.4200   -6.9612  -14.2211 N   0  0  0  0  0  0  0  0  0  0  0  0
   21.2976   -5.5388  -14.6099 C   0  0  1  0  0  0  0  0  0  0  0  0
   19.8522   -5.1906  -14.8284 C   0  0  0  0  0  0  0  0  0  0  0  0
   19.6077   -3.7698  -15.0945 C   0  0  0  0  0  0  0  0  0  0  0  0
   20.4055   -3.0883  -15.8059 O   0  0  0  0  0  0  0  0  0  0  0  0
   21.9429   -4.7408  -13.5426 C   0  0  0  0  0  0  0  0  0  0  0  0
   22.5002   -5.3831  -12.4490 O   0  0  0  0  0  0  0  0  0  0  0  0
   18.5155   -3.1179  -14.5871 O   0  0  0  0  0  0  0  0  0  0  0  0
   22.0139   -3.5035  -13.5758 O   0  0  0  0  0  0  0  0  0  0  0  0
  2  3  1  0
  2  1  1  1
  3  4  1  0
  4  5  1  0
  5  6  2  0
  5  9  1  0
  7  8  2  0
  7  2  1  0
 11 10  1  6
 11 13  1  0
 11 12  1  0
 12  7  1  0
 13 15  1  0
 14 13  2  0
 15 16  1  0
 16 17  1  1
 17 18  1  0
 18 19  2  0
 18 22  1  0
 20 16  1  0
 21 20  1  0
 23 20  2  0
M  END
$$$$
