EAD.pdb
     RDKit          3D

 23 22  0  0  1  0  0  0  0  0999 V2000
   13.3351  -11.3514  -10.9019 N   0  0  0  0  0  0  0  0  0  0  0  0
   14.6568  -10.9242  -10.6691 C   0  0  1  0  0  0  0  0  0  0  0  0
   15.7094  -11.3197  -11.6458 C   0  0  0  0  0  0  0  0  0  0  0  0
   15.8343  -12.7828  -11.8304 C   0  0  0  0  0  0  0  0  0  0  0  0
   16.9088  -13.1823  -12.7374 C   0  0  0  0  0  0  0  0  0  0  0  0
   16.9287  -14.4181  -13.1195 O   0  0  0  0  0  0  0  0  0  0  0  0
   14.7751   -9.4160  -10.5137 C   0  0  0  0  0  0  0  0  0  0  0  0
   13.9882   -8.8042  -11.2925 O   0  0  0  0  0  0  0  0  0  0  0  0
   17.8971  -12.4029  -13.2280 O   0  0  0  0  0  0  0  0  0  0  0  0
   16.0834   -6.8363   -8.1568 C   0  0  0  0  0  0  0  0  0  0  0  0
   15.8011   -7.3571   -9.5314 C   0  0  2  0  0  0  0  0  0  0  0  0
   15.6251   -8.7613   -9.6386 N   0  0  0  0  0  0  0  0  0  0  0  0
   16.7337   -6.7268  -10.4976 C   0  0  0  0  0  0  0  0  0  0  0  0
   17.9103   -7.0973  -10.6262 O   0  0  0  0  0  0  0  0  0  0  0  0
   16.3343   -5.6451  -11.3442 N   0  0  0  0  0  0  0  0  0  0  0  0
   17.2949   -5.0679  -12.3104 C   0  0  1  0  0  0  0  0  0  0  0  0
   16.9824   -5.5566  -13.6966 C   0  0  0  0  0  0  0  0  0  0  0  0
   17.7777   -4.9233  -14.7529 C   0  0  0  0  0  0  0  0  0  0  0  0
   17.2561   -4.0995  -15.5630 O   0  0  0  0  0  0  0  0  0  0  0  0
   17.2178   -3.5958  -12.1713 C   0  0  0  0  0  0  0  0  0  0  0  0
   16.2529   -3.0349  -11.3506 O   0  0  0  0  0  0  0  0  0  0  0  0
   19.1105   -5.1937  -14.9133 O   0  0  0  0  0  0  0  0  0  0  0  0
   17.9862   -2.8221  -12.7609 O   0  0  0  0  0  0  0  0  0  0  0  0
  2  3  1  0
  2  1  1  6
  3  4  1  0
  4  5  1  0
  5  6  2  0
  5  9  1  0
  7  8  2  0
  7  2  1  0
 11 10  1  1
 11 13  1  0
 11 12  1  0
 12  7  1  0
 13 15  1  0
 14 13  2  0
 15 16  1  0
 16 17  1  6
 17 18  1  0
 18 19  2  0
 18 22  1  0
 20 16  1  0
 21 20  1  0
 23 20  2  0
M  END
$$$$
