EAD.pdb
     RDKit          3D

 23 22  0  0  1  0  0  0  0  0999 V2000
   25.6720  -15.6191  -18.6056 N   0  0  0  0  0  0  0  0  0  0  0  0
   26.0325  -14.3563  -19.1147 C   0  0  1  0  0  0  0  0  0  0  0  0
   25.3890  -13.8930  -20.3755 C   0  0  0  0  0  0  0  0  0  0  0  0
   25.1893  -14.9667  -21.3743 C   0  0  0  0  0  0  0  0  0  0  0  0
   24.6536  -14.5030  -22.6529 C   0  0  0  0  0  0  0  0  0  0  0  0
   23.4746  -14.9198  -22.9841 O   0  0  0  0  0  0  0  0  0  0  0  0
   25.8390  -13.2326  -18.1084 C   0  0  0  0  0  0  0  0  0  0  0  0
   24.7109  -13.3048  -17.5405 O   0  0  0  0  0  0  0  0  0  0  0  0
   25.2540  -13.6814  -23.5415 O   0  0  0  0  0  0  0  0  0  0  0  0
   27.8324  -10.3890  -16.5831 C   0  0  0  0  0  0  0  0  0  0  0  0
   26.6069  -11.1991  -16.8708 C   0  0  2  0  0  0  0  0  0  0  0  0
   26.7610  -12.2399  -17.8232 N   0  0  0  0  0  0  0  0  0  0  0  0
   25.4492  -10.2907  -17.0579 C   0  0  0  0  0  0  0  0  0  0  0  0
   25.1077   -9.8680  -18.1728 O   0  0  0  0  0  0  0  0  0  0  0  0
   24.6513   -9.8404  -15.9594 N   0  0  0  0  0  0  0  0  0  0  0  0
   23.4955   -8.9486  -16.2008 C   0  0  1  0  0  0  0  0  0  0  0  0
   22.5943   -8.9419  -14.9984 C   0  0  0  0  0  0  0  0  0  0  0  0
   21.4228   -8.0700  -15.1275 C   0  0  0  0  0  0  0  0  0  0  0  0
   21.4195   -6.8988  -14.6424 O   0  0  0  0  0  0  0  0  0  0  0  0
   24.0410   -7.6139  -16.5379 C   0  0  0  0  0  0  0  0  0  0  0  0
   23.2666   -6.7196  -17.2589 O   0  0  0  0  0  0  0  0  0  0  0  0
   20.2855   -8.4797  -15.7706 O   0  0  0  0  0  0  0  0  0  0  0  0
   25.1761   -7.2455  -16.2024 O   0  0  0  0  0  0  0  0  0  0  0  0
  2  3  1  0
  2  1  1  1
  3  4  1  0
  4  5  1  0
  5  6  2  0
  5  9  1  0
  7  8  2  0
  7  2  1  0
 11 10  1  6
 11 13  1  0
 11 12  1  0
 12  7  1  0
 13 15  1  0
 14 13  2  0
 15 16  1  0
 16 17  1  1
 17 18  1  0
 18 19  2  0
 18 22  1  0
 20 16  1  0
 21 20  1  0
 23 20  2  0
M  END
$$$$
