EAD.pdb
     RDKit          3D

 23 22  0  0  1  0  0  0  0  0999 V2000
   12.6207  -10.1057  -11.7146 N   0  0  0  0  0  0  0  0  0  0  0  0
   13.8669  -10.7473  -11.8527 C   0  0  1  0  0  0  0  0  0  0  0  0
   13.8810  -12.2045  -12.1600 C   0  0  0  0  0  0  0  0  0  0  0  0
   12.6005  -12.7143  -12.6993 C   0  0  0  0  0  0  0  0  0  0  0  0
   12.6023  -14.1460  -12.9938 C   0  0  0  0  0  0  0  0  0  0  0  0
   12.0526  -14.9279  -12.1220 O   0  0  0  0  0  0  0  0  0  0  0  0
   14.7608  -10.0911  -12.8935 C   0  0  0  0  0  0  0  0  0  0  0  0
   15.9099  -10.6194  -12.9204 O   0  0  0  0  0  0  0  0  0  0  0  0
   13.1191  -14.7564  -14.0825 O   0  0  0  0  0  0  0  0  0  0  0  0
   14.5419   -7.3996  -15.5630 C   0  0  0  0  0  0  0  0  0  0  0  0
   15.2110   -8.4323  -14.7106 C   0  0  2  0  0  0  0  0  0  0  0  0
   14.3950   -9.0464  -13.7251 N   0  0  0  0  0  0  0  0  0  0  0  0
   16.5285   -7.9205  -14.2605 C   0  0  0  0  0  0  0  0  0  0  0  0
   16.6889   -7.3709  -13.1603 O   0  0  0  0  0  0  0  0  0  0  0  0
   17.7022   -8.0262  -15.0713 N   0  0  0  0  0  0  0  0  0  0  0  0
   18.9846   -7.4633  -14.5939 C   0  0  1  0  0  0  0  0  0  0  0  0
   20.0829   -8.4744  -14.7658 C   0  0  0  0  0  0  0  0  0  0  0  0
   21.4252   -7.9625  -14.4735 C   0  0  0  0  0  0  0  0  0  0  0  0
   21.5951   -6.8006  -13.9958 O   0  0  0  0  0  0  0  0  0  0  0  0
   19.2137   -6.2084  -15.3456 C   0  0  0  0  0  0  0  0  0  0  0  0
   18.4036   -5.8996  -16.4262 O   0  0  0  0  0  0  0  0  0  0  0  0
   22.5490   -8.7100  -14.7050 O   0  0  0  0  0  0  0  0  0  0  0  0
   20.1090   -5.4020  -15.0540 O   0  0  0  0  0  0  0  0  0  0  0  0
  2  3  1  0
  2  1  1  6
  3  4  1  0
  4  5  1  0
  5  6  2  0
  5  9  1  0
  7  8  2  0
  7  2  1  0
 11 10  1  1
 11 13  1  0
 11 12  1  0
 12  7  1  0
 13 15  1  0
 14 13  2  0
 15 16  1  0
 16 17  1  6
 17 18  1  0
 18 19  2  0
 18 22  1  0
 20 16  1  0
 21 20  1  0
 23 20  2  0
M  END
$$$$
