FEA.pdb
     RDKit          3D

 26 26  0  0  1  0  0  0  0  0999 V2000
   27.6555  -32.4740  -17.5140 N   0  0  0  0  0  0  0  0  0  0  0  0
   28.0049  -32.5988  -16.1367 C   0  0  1  0  0  0  0  0  0  0  0  0
   28.8190  -31.4395  -15.6549 C   0  0  0  0  0  0  0  0  0  0  0  0
   30.1405  -31.3092  -16.2577 C   0  0  0  0  0  0  0  0  0  0  0  0
   30.4263  -30.2888  -17.1281 C   0  0  0  0  0  0  0  0  0  0  0  0
   31.6764  -30.1754  -17.7035 C   0  0  0  0  0  0  0  0  0  0  0  0
   32.6612  -31.1105  -17.3956 C   0  0  0  0  0  0  0  0  0  0  0  0
   32.3939  -32.1522  -16.5172 C   0  0  0  0  0  0  0  0  0  0  0  0
   31.1248  -32.2244  -15.9646 C   0  0  0  0  0  0  0  0  0  0  0  0
   26.8001  -32.6760  -15.2693 C   0  0  0  0  0  0  0  0  0  0  0  0
   25.6677  -32.4437  -15.7504 O   0  0  0  0  0  0  0  0  0  0  0  0
   26.8761  -33.0052  -13.9038 N   0  0  0  0  0  0  0  0  0  0  0  0
   25.7333  -33.4670  -13.2002 C   0  0  1  0  0  0  0  0  0  0  0  0
   25.3449  -34.8201  -13.7485 C   0  0  0  0  0  0  0  0  0  0  0  0
   23.9834  -35.2185  -13.1774 C   0  0  0  0  0  0  0  0  0  0  0  0
   24.0599  -36.6039  -12.6794 C   0  0  0  0  0  0  0  0  0  0  0  0
   24.3833  -37.5295  -13.4741 O   0  0  0  0  0  0  0  0  0  0  0  0
   25.9232  -33.6344  -11.7422 C   0  0  0  0  0  0  0  0  0  0  0  0
   26.6946  -34.4911  -11.2663 O   0  0  0  0  0  0  0  0  0  0  0  0
   23.7941  -36.9683  -11.3557 O   0  0  0  0  0  0  0  0  0  0  0  0
   24.6869  -31.7629   -8.7853 C   0  0  0  0  0  0  0  0  0  0  0  0
   25.4518  -32.9282   -9.4259 C   0  0  2  0  0  0  0  0  0  0  0  0
   25.2114  -32.7979  -10.8505 N   0  0  0  0  0  0  0  0  0  0  0  0
   24.9661  -34.2184   -8.9294 C   0  0  0  0  0  0  0  0  0  0  0  0
   25.5231  -34.8300   -7.8104 O   0  0  0  0  0  0  0  0  0  0  0  0
   24.0149  -34.7794   -9.5419 O   0  0  0  0  0  0  0  0  0  0  0  0
  2  1  1  6
  3  2  1  0
  4  9  2  0
  4  3  1  0
  5  4  1  0
  6  7  1  0
  6  5  2  0
  7  8  2  0
  8  9  1  0
 10 12  1  0
 10  2  1  0
 11 10  2  0
 13 12  1  0
 13 14  1  6
 14 15  1  0
 15 16  1  0
 16 17  2  0
 18 13  1  0
 19 18  2  0
 20 16  1  0
 22 21  1  1
 22 24  1  0
 22 23  1  0
 23 18  1  0
 24 25  1  0
 26 24  2  0
M  END
$$$$
