FEA.pdb
     RDKit          3D

 26 26  0  0  1  0  0  0  0  0999 V2000
   25.1393  -35.2495  -13.7370 N   0  0  0  0  0  0  0  0  0  0  0  0
   26.1688  -34.7569  -12.8812 C   0  0  1  0  0  0  0  0  0  0  0  0
   26.4203  -33.2962  -13.0858 C   0  0  0  0  0  0  0  0  0  0  0  0
   27.0220  -32.9379  -14.3650 C   0  0  0  0  0  0  0  0  0  0  0  0
   28.3591  -33.1319  -14.5998 C   0  0  0  0  0  0  0  0  0  0  0  0
   28.9257  -32.7821  -15.8095 C   0  0  0  0  0  0  0  0  0  0  0  0
   28.1281  -32.2247  -16.8055 C   0  0  0  0  0  0  0  0  0  0  0  0
   26.7719  -32.0190  -16.5896 C   0  0  0  0  0  0  0  0  0  0  0  0
   26.2485  -32.3860  -15.3598 C   0  0  0  0  0  0  0  0  0  0  0  0
   25.8266  -34.9437  -11.4468 C   0  0  0  0  0  0  0  0  0  0  0  0
   24.6284  -34.9308  -11.0832 O   0  0  0  0  0  0  0  0  0  0  0  0
   26.8083  -35.1385  -10.4583 N   0  0  0  0  0  0  0  0  0  0  0  0
   26.4469  -35.3356   -9.1001 C   0  0  1  0  0  0  0  0  0  0  0  0
   27.2508  -36.4910   -8.5511 C   0  0  0  0  0  0  0  0  0  0  0  0
   26.6192  -37.8041   -9.0152 C   0  0  0  0  0  0  0  0  0  0  0  0
   26.5032  -38.7138   -7.8609 C   0  0  0  0  0  0  0  0  0  0  0  0
   26.0908  -39.8929   -8.0419 O   0  0  0  0  0  0  0  0  0  0  0  0
   26.6991  -34.1787   -8.2126 C   0  0  0  0  0  0  0  0  0  0  0  0
   27.7543  -33.5162   -8.2676 O   0  0  0  0  0  0  0  0  0  0  0  0
   26.8286  -38.3498   -6.5505 O   0  0  0  0  0  0  0  0  0  0  0  0
   24.6369  -32.1235   -5.9922 C   0  0  0  0  0  0  0  0  0  0  0  0
   26.0051  -32.7186   -6.3491 C   0  0  2  0  0  0  0  0  0  0  0  0
   25.7151  -33.8030   -7.2680 N   0  0  0  0  0  0  0  0  0  0  0  0
   26.6954  -33.2149   -5.1558 C   0  0  0  0  0  0  0  0  0  0  0  0
   27.2645  -32.3504   -4.2255 O   0  0  0  0  0  0  0  0  0  0  0  0
   26.7680  -34.4630   -4.9778 O   0  0  0  0  0  0  0  0  0  0  0  0
  2  1  1  6
  3  2  1  0
  4  9  2  0
  4  3  1  0
  5  4  1  0
  6  7  1  0
  6  5  2  0
  7  8  2  0
  8  9  1  0
 10 12  1  0
 10  2  1  0
 11 10  2  0
 13 12  1  0
 13 14  1  1
 14 15  1  0
 15 16  1  0
 16 17  2  0
 18 13  1  0
 19 18  2  0
 20 16  1  0
 22 21  1  1
 22 24  1  0
 22 23  1  0
 23 18  1  0
 24 25  1  0
 26 24  2  0
M  END
$$$$
