FEA.pdb
     RDKit          3D

 26 26  0  0  1  0  0  0  0  0999 V2000
   25.5030  -12.3655  -18.1660 N   0  0  0  0  0  0  0  0  0  0  0  0
   24.9496  -11.1586  -18.6875 C   0  0  1  0  0  0  0  0  0  0  0  0
   23.9420  -11.4195  -19.7624 C   0  0  0  0  0  0  0  0  0  0  0  0
   22.9131  -12.3986  -19.4315 C   0  0  0  0  0  0  0  0  0  0  0  0
   21.8326  -12.0592  -18.6583 C   0  0  0  0  0  0  0  0  0  0  0  0
   20.8661  -12.9926  -18.3400 C   0  0  0  0  0  0  0  0  0  0  0  0
   20.9900  -14.2972  -18.8109 C   0  0  0  0  0  0  0  0  0  0  0  0
   22.0760  -14.6631  -19.5951 C   0  0  0  0  0  0  0  0  0  0  0  0
   23.0202  -13.6917  -19.8883 C   0  0  0  0  0  0  0  0  0  0  0  0
   24.2656  -10.3669  -17.6315 C   0  0  0  0  0  0  0  0  0  0  0  0
   23.9416  -10.9128  -16.5522 O   0  0  0  0  0  0  0  0  0  0  0  0
   23.9594   -9.0035  -17.7930 N   0  0  0  0  0  0  0  0  0  0  0  0
   23.3837   -8.2547  -16.7337 C   0  0  1  0  0  0  0  0  0  0  0  0
   23.7598   -6.8023  -16.9113 C   0  0  0  0  0  0  0  0  0  0  0  0
   23.3805   -6.0299  -15.6471 C   0  0  0  0  0  0  0  0  0  0  0  0
   23.6771   -4.6005  -15.8523 C   0  0  0  0  0  0  0  0  0  0  0  0
   24.2846   -4.2391  -16.8980 O   0  0  0  0  0  0  0  0  0  0  0  0
   21.9066   -8.3087  -16.6616 C   0  0  0  0  0  0  0  0  0  0  0  0
   21.1865   -8.1764  -17.6713 O   0  0  0  0  0  0  0  0  0  0  0  0
   23.3205   -3.5964  -14.9467 O   0  0  0  0  0  0  0  0  0  0  0  0
   19.5592   -9.3626  -14.0197 C   0  0  0  0  0  0  0  0  0  0  0  0
   19.8409   -8.6834  -15.3661 C   0  0  2  0  0  0  0  0  0  0  0  0
   21.2815   -8.5188  -15.4100 N   0  0  0  0  0  0  0  0  0  0  0  0
   19.1635   -7.3875  -15.4586 C   0  0  0  0  0  0  0  0  0  0  0  0
   19.8662   -6.1876  -15.4039 O   0  0  0  0  0  0  0  0  0  0  0  0
   17.9079   -7.3729  -15.5927 O   0  0  0  0  0  0  0  0  0  0  0  0
  2  1  1  1
  3  2  1  0
  4  9  2  0
  4  3  1  0
  5  4  1  0
  6  7  1  0
  6  5  2  0
  7  8  2  0
  8  9  1  0
 10 12  1  0
 10  2  1  0
 11 10  2  0
 13 12  1  0
 13 14  1  6
 14 15  1  0
 15 16  1  0
 16 17  2  0
 18 13  1  0
 19 18  2  0
 20 16  1  0
 22 21  1  1
 22 24  1  0
 22 23  1  0
 23 18  1  0
 24 25  1  0
 26 24  2  0
M  END
$$$$
