FEA.pdb
     RDKit          3D

 26 26  0  0  1  0  0  0  0  0999 V2000
   26.9225  -21.7824   -8.5530 N   0  0  0  0  0  0  0  0  0  0  0  0
   26.3552  -20.4743   -8.5970 C   0  0  1  0  0  0  0  0  0  0  0  0
   27.3675  -19.4113   -8.3068 C   0  0  0  0  0  0  0  0  0  0  0  0
   27.9768  -19.4721   -6.9832 C   0  0  0  0  0  0  0  0  0  0  0  0
   29.0968  -20.2286   -6.7514 C   0  0  0  0  0  0  0  0  0  0  0  0
   29.6644  -20.2902   -5.4941 C   0  0  0  0  0  0  0  0  0  0  0  0
   29.0916  -19.5737   -4.4465 C   0  0  0  0  0  0  0  0  0  0  0  0
   27.9571  -18.8014   -4.6583 C   0  0  0  0  0  0  0  0  0  0  0  0
   27.4236  -18.7706   -5.9372 C   0  0  0  0  0  0  0  0  0  0  0  0
   25.7756  -20.1717   -9.9320 C   0  0  0  0  0  0  0  0  0  0  0  0
   25.5213  -18.9874  -10.2491 O   0  0  0  0  0  0  0  0  0  0  0  0
   25.4941  -21.1767  -10.8752 N   0  0  0  0  0  0  0  0  0  0  0  0
   24.9612  -20.8520  -12.1499 C   0  0  1  0  0  0  0  0  0  0  0  0
   25.4160  -21.8968  -13.1419 C   0  0  0  0  0  0  0  0  0  0  0  0
   26.9184  -21.7392  -13.3797 C   0  0  0  0  0  0  0  0  0  0  0  0
   27.1483  -21.4347  -14.8037 C   0  0  0  0  0  0  0  0  0  0  0  0
   26.1723  -21.4471  -15.6039 O   0  0  0  0  0  0  0  0  0  0  0  0
   23.4834  -20.8123  -12.2172 C   0  0  0  0  0  0  0  0  0  0  0  0
   22.7660  -21.5575  -11.5205 O   0  0  0  0  0  0  0  0  0  0  0  0
   28.4028  -21.1245  -15.3381 O   0  0  0  0  0  0  0  0  0  0  0  0
   21.0742  -18.6792  -14.0722 C   0  0  0  0  0  0  0  0  0  0  0  0
   21.4055  -19.8326  -13.1164 C   0  0  2  0  0  0  0  0  0  0  0  0
   22.8545  -19.9005  -13.0972 N   0  0  0  0  0  0  0  0  0  0  0  0
   20.8292  -21.0945  -13.5879 C   0  0  0  0  0  0  0  0  0  0  0  0
   19.5761  -21.5302  -13.1677 O   0  0  0  0  0  0  0  0  0  0  0  0
   21.4973  -21.7957  -14.3982 O   0  0  0  0  0  0  0  0  0  0  0  0
  2  1  1  6
  3  2  1  0
  4  9  2  0
  4  3  1  0
  5  4  1  0
  6  7  1  0
  6  5  2  0
  7  8  2  0
  8  9  1  0
 10 12  1  0
 10  2  1  0
 11 10  2  0
 13 12  1  0
 13 14  1  6
 14 15  1  0
 15 16  1  0
 16 17  2  0
 18 13  1  0
 19 18  2  0
 20 16  1  0
 22 21  1  6
 22 24  1  0
 22 23  1  0
 23 18  1  0
 24 25  1  0
 26 24  2  0
M  END
$$$$
