FEA.pdb
     RDKit          3D

 26 26  0  0  1  0  0  0  0  0999 V2000
   21.5787  -10.0618  -15.6466 N   0  0  0  0  0  0  0  0  0  0  0  0
   21.3239   -8.9115  -14.8423 C   0  0  1  0  0  0  0  0  0  0  0  0
   22.4624   -8.6048  -13.9212 C   0  0  0  0  0  0  0  0  0  0  0  0
   23.7859   -8.6270  -14.5333 C   0  0  0  0  0  0  0  0  0  0  0  0
   24.2414   -7.5698  -15.2784 C   0  0  0  0  0  0  0  0  0  0  0  0
   25.4917   -7.5999  -15.8637 C   0  0  0  0  0  0  0  0  0  0  0  0
   26.3020   -8.7196  -15.6948 C   0  0  0  0  0  0  0  0  0  0  0  0
   25.8611   -9.8019  -14.9447 C   0  0  0  0  0  0  0  0  0  0  0  0
   24.5991   -9.7255  -14.3766 C   0  0  0  0  0  0  0  0  0  0  0  0
   21.0966   -7.7000  -15.6732 C   0  0  0  0  0  0  0  0  0  0  0  0
   21.5247   -7.6592  -16.8492 O   0  0  0  0  0  0  0  0  0  0  0  0
   20.4078   -6.5735  -15.1880 N   0  0  0  0  0  0  0  0  0  0  0  0
   20.0994   -5.4832  -16.0427 C   0  0  1  0  0  0  0  0  0  0  0  0
   18.6444   -5.1220  -15.8557 C   0  0  0  0  0  0  0  0  0  0  0  0
   17.7811   -6.0919  -16.6635 C   0  0  0  0  0  0  0  0  0  0  0  0
   16.3616   -5.7437  -16.4711 C   0  0  0  0  0  0  0  0  0  0  0  0
   15.8148   -4.9212  -17.2569 O   0  0  0  0  0  0  0  0  0  0  0  0
   20.8817   -4.2524  -15.7918 C   0  0  0  0  0  0  0  0  0  0  0  0
   21.3809   -3.9975  -14.6776 O   0  0  0  0  0  0  0  0  0  0  0  0
   15.5628   -6.2771  -15.4547 O   0  0  0  0  0  0  0  0  0  0  0  0
   22.2292   -1.6294  -18.0265 C   0  0  0  0  0  0  0  0  0  0  0  0
   21.9499   -2.1913  -16.6266 C   0  0  2  0  0  0  0  0  0  0  0  0
   21.0766   -3.3287  -16.8455 N   0  0  0  0  0  0  0  0  0  0  0  0
   21.3026   -1.1916  -15.7730 C   0  0  0  0  0  0  0  0  0  0  0  0
   19.9621   -1.2926  -15.4132 O   0  0  0  0  0  0  0  0  0  0  0  0
   21.9912   -0.2177  -15.3584 O   0  0  0  0  0  0  0  0  0  0  0  0
  2  1  1  6
  3  2  1  0
  4  9  2  0
  4  3  1  0
  5  4  1  0
  6  7  1  0
  6  5  2  0
  7  8  2  0
  8  9  1  0
 10 12  1  0
 10  2  1  0
 11 10  2  0
 13 12  1  0
 13 14  1  1
 14 15  1  0
 15 16  1  0
 16 17  2  0
 18 13  1  0
 19 18  2  0
 20 16  1  0
 22 21  1  6
 22 24  1  0
 22 23  1  0
 23 18  1  0
 24 25  1  0
 26 24  2  0
M  END
$$$$
