FEA.pdb
     RDKit          3D

 26 26  0  0  1  0  0  0  0  0999 V2000
   20.8757   -8.8189  -17.6912 N   0  0  0  0  0  0  0  0  0  0  0  0
   20.4660   -8.0610  -16.5543 C   0  0  1  0  0  0  0  0  0  0  0  0
   21.6282   -7.4540  -15.8334 C   0  0  0  0  0  0  0  0  0  0  0  0
   22.3541   -8.3552  -14.9459 C   0  0  0  0  0  0  0  0  0  0  0  0
   21.9508   -8.5531  -13.6503 C   0  0  0  0  0  0  0  0  0  0  0  0
   22.6472   -9.4002  -12.8113 C   0  0  0  0  0  0  0  0  0  0  0  0
   23.7752  -10.0635  -13.2874 C   0  0  0  0  0  0  0  0  0  0  0  0
   24.2020   -9.8778  -14.5957 C   0  0  0  0  0  0  0  0  0  0  0  0
   23.4706   -9.0181  -15.4002 C   0  0  0  0  0  0  0  0  0  0  0  0
   19.5588   -6.9467  -16.9351 C   0  0  0  0  0  0  0  0  0  0  0  0
   19.7239   -6.3505  -18.0237 O   0  0  0  0  0  0  0  0  0  0  0  0
   18.5009   -6.5226  -16.1105 N   0  0  0  0  0  0  0  0  0  0  0  0
   17.6264   -5.4835  -16.5226 C   0  0  1  0  0  0  0  0  0  0  0  0
   16.2091   -5.8869  -16.1893 C   0  0  0  0  0  0  0  0  0  0  0  0
   15.7976   -7.0541  -17.0876 C   0  0  0  0  0  0  0  0  0  0  0  0
   15.3238   -6.5212  -18.3778 C   0  0  0  0  0  0  0  0  0  0  0  0
   14.6585   -5.4487  -18.3969 O   0  0  0  0  0  0  0  0  0  0  0  0
   17.8627   -4.1746  -15.8739 C   0  0  0  0  0  0  0  0  0  0  0  0
   18.2403   -4.0782  -14.6892 O   0  0  0  0  0  0  0  0  0  0  0  0
   15.5693   -7.1373  -19.6090 O   0  0  0  0  0  0  0  0  0  0  0  0
   17.9523   -0.6956  -17.1378 C   0  0  0  0  0  0  0  0  0  0  0  0
   17.9488   -1.7118  -15.9885 C   0  0  2  0  0  0  0  0  0  0  0  0
   17.6577   -2.9872  -16.6153 N   0  0  0  0  0  0  0  0  0  0  0  0
   16.9326   -1.3770  -14.9874 C   0  0  0  0  0  0  0  0  0  0  0  0
   17.1762   -0.4519  -13.9767 O   0  0  0  0  0  0  0  0  0  0  0  0
   15.8092   -1.9495  -15.0555 O   0  0  0  0  0  0  0  0  0  0  0  0
  2  1  1  6
  3  2  1  0
  4  9  2  0
  4  3  1  0
  5  4  1  0
  6  7  1  0
  6  5  2  0
  7  8  2  0
  8  9  1  0
 10 12  1  0
 10  2  1  0
 11 10  2  0
 13 12  1  0
 13 14  1  1
 14 15  1  0
 15 16  1  0
 16 17  2  0
 18 13  1  0
 19 18  2  0
 20 16  1  0
 22 21  1  6
 22 24  1  0
 22 23  1  0
 23 18  1  0
 24 25  1  0
 26 24  2  0
M  END
$$$$
