FEA.pdb
     RDKit          3D

 26 26  0  0  1  0  0  0  0  0999 V2000
   27.5632  -21.5359   -8.4564 N   0  0  0  0  0  0  0  0  0  0  0  0
   26.4314  -20.6958   -8.2376 C   0  0  1  0  0  0  0  0  0  0  0  0
   26.8094  -19.3966   -7.5988 C   0  0  0  0  0  0  0  0  0  0  0  0
   27.6196  -19.5054   -6.3911 C   0  0  0  0  0  0  0  0  0  0  0  0
   28.8841  -18.9780   -6.3347 C   0  0  0  0  0  0  0  0  0  0  0  0
   29.6507  -19.0921   -5.1919 C   0  0  0  0  0  0  0  0  0  0  0  0
   29.1324  -19.7519   -4.0806 C   0  0  0  0  0  0  0  0  0  0  0  0
   27.8545  -20.2940   -4.1155 C   0  0  0  0  0  0  0  0  0  0  0  0
   27.1230  -20.1542   -5.2844 C   0  0  0  0  0  0  0  0  0  0  0  0
   25.7353  -20.3698   -9.5100 C   0  0  0  0  0  0  0  0  0  0  0  0
   25.4370  -19.1824   -9.7729 O   0  0  0  0  0  0  0  0  0  0  0  0
   25.3891  -21.3555  -10.4520 N   0  0  0  0  0  0  0  0  0  0  0  0
   24.8046  -21.0021  -11.6962 C   0  0  1  0  0  0  0  0  0  0  0  0
   25.0326  -22.1319  -12.6730 C   0  0  0  0  0  0  0  0  0  0  0  0
   26.4948  -22.1177  -13.1206 C   0  0  0  0  0  0  0  0  0  0  0  0
   26.6651  -21.0937  -14.1673 C   0  0  0  0  0  0  0  0  0  0  0  0
   27.8101  -20.6035  -14.3722 O   0  0  0  0  0  0  0  0  0  0  0  0
   23.3453  -20.7604  -11.6542 C   0  0  0  0  0  0  0  0  0  0  0  0
   22.6012  -21.3262  -10.8287 O   0  0  0  0  0  0  0  0  0  0  0  0
   25.6202  -20.6205  -14.9671 O   0  0  0  0  0  0  0  0  0  0  0  0
   21.0707  -18.5326  -13.5673 C   0  0  0  0  0  0  0  0  0  0  0  0
   21.3344  -19.6290  -12.5272 C   0  0  2  0  0  0  0  0  0  0  0  0
   22.7661  -19.8574  -12.5765 N   0  0  0  0  0  0  0  0  0  0  0  0
   20.5980  -20.8541  -12.8494 C   0  0  0  0  0  0  0  0  0  0  0  0
   19.3251  -21.0987  -12.3431 O   0  0  0  0  0  0  0  0  0  0  0  0
   21.1439  -21.7022  -13.6093 O   0  0  0  0  0  0  0  0  0  0  0  0
  2  1  1  6
  3  2  1  0
  4  9  2  0
  4  3  1  0
  5  4  1  0
  6  7  1  0
  6  5  2  0
  7  8  2  0
  8  9  1  0
 10 12  1  0
 10  2  1  0
 11 10  2  0
 13 12  1  0
 13 14  1  6
 14 15  1  0
 15 16  1  0
 16 17  2  0
 18 13  1  0
 19 18  2  0
 20 16  1  0
 22 21  1  6
 22 24  1  0
 22 23  1  0
 23 18  1  0
 24 25  1  0
 26 24  2  0
M  END
$$$$
