FEA.pdb
     RDKit          3D

 26 26  0  0  1  0  0  0  0  0999 V2000
   21.9115  -28.2842  -16.4947 N   0  0  0  0  0  0  0  0  0  0  0  0
   21.9686  -29.6521  -16.0941 C   0  0  1  0  0  0  0  0  0  0  0  0
   23.1298  -30.3702  -16.7062 C   0  0  0  0  0  0  0  0  0  0  0  0
   23.0759  -30.5262  -18.1552 C   0  0  0  0  0  0  0  0  0  0  0  0
   23.7589  -29.6760  -18.9866 C   0  0  0  0  0  0  0  0  0  0  0  0
   23.6969  -29.8223  -20.3583 C   0  0  0  0  0  0  0  0  0  0  0  0
   22.9301  -30.8478  -20.9054 C   0  0  0  0  0  0  0  0  0  0  0  0
   22.2300  -31.7201  -20.0825 C   0  0  0  0  0  0  0  0  0  0  0  0
   22.3231  -31.5338  -18.7122 C   0  0  0  0  0  0  0  0  0  0  0  0
   22.1003  -29.7874  -14.6196 C   0  0  0  0  0  0  0  0  0  0  0  0
   22.7932  -28.9667  -13.9760 O   0  0  0  0  0  0  0  0  0  0  0  0
   21.4684  -30.8173  -13.8993 N   0  0  0  0  0  0  0  0  0  0  0  0
   21.5912  -30.9016  -12.4878 C   0  0  1  0  0  0  0  0  0  0  0  0
   20.3117  -31.4772  -11.9272 C   0  0  0  0  0  0  0  0  0  0  0  0
   19.2103  -30.4195  -12.0089 C   0  0  0  0  0  0  0  0  0  0  0  0
   17.9525  -30.9981  -11.5026 C   0  0  0  0  0  0  0  0  0  0  0  0
   16.9046  -30.2945  -11.5019 O   0  0  0  0  0  0  0  0  0  0  0  0
   22.6946  -31.7627  -12.0074 C   0  0  0  0  0  0  0  0  0  0  0  0
   23.0571  -32.7845  -12.6237 O   0  0  0  0  0  0  0  0  0  0  0  0
   17.8403  -32.3036  -11.0142 O   0  0  0  0  0  0  0  0  0  0  0  0
   25.1045  -31.4975   -9.2014 C   0  0  0  0  0  0  0  0  0  0  0  0
   24.4436  -32.2772  -10.3453 C   0  0  2  0  0  0  0  0  0  0  0  0
   23.3679  -31.4223  -10.8107 N   0  0  0  0  0  0  0  0  0  0  0  0
   23.9233  -33.5650   -9.8786 C   0  0  0  0  0  0  0  0  0  0  0  0
   24.7501  -34.6714   -9.7087 O   0  0  0  0  0  0  0  0  0  0  0  0
   22.6897  -33.6598   -9.6259 O   0  0  0  0  0  0  0  0  0  0  0  0
  2  1  1  1
  3  2  1  0
  4  9  2  0
  4  3  1  0
  5  4  1  0
  6  7  1  0
  6  5  2  0
  7  8  2  0
  8  9  1  0
 10 12  1  0
 10  2  1  0
 11 10  2  0
 13 12  1  0
 13 14  1  1
 14 15  1  0
 15 16  1  0
 16 17  2  0
 18 13  1  0
 19 18  2  0
 20 16  1  0
 22 21  1  1
 22 24  1  0
 22 23  1  0
 23 18  1  0
 24 25  1  0
 26 24  2  0
M  END
$$$$
