GWQ.pdb
     RDKit          3D

 28 29  0  0  1  0  0  0  0  0999 V2000
   27.7498  -22.6728  -15.2643 N   0  0  0  0  0  0  0  0  0  0  0  0
   27.9502  -21.4314  -14.5463 C   0  0  0  0  0  0  0  0  0  0  0  0
   27.3302  -21.5984  -13.1993 C   0  0  0  0  0  0  0  0  0  0  0  0
   26.2943  -22.2966  -13.0541 O   0  0  0  0  0  0  0  0  0  0  0  0
   27.8659  -20.9914  -12.0393 N   0  0  0  0  0  0  0  0  0  0  0  0
   27.1600  -21.0862  -10.7981 C   0  0  1  0  0  0  0  0  0  0  0  0
   28.0003  -20.7428   -9.6002 C   0  0  0  0  0  0  0  0  0  0  0  0
   27.2341  -20.7746   -8.3352 C   0  0  0  0  0  0  0  0  0  0  0  0
   25.9631  -21.1740   -8.0655 C   0  0  0  0  0  0  0  0  0  0  0  0
   25.6971  -21.0197   -6.7581 N   0  0  0  0  0  0  0  0  0  0  0  0
   26.7914  -20.5209   -6.1746 C   0  0  0  0  0  0  0  0  0  0  0  0
   27.0408  -20.1844   -4.8719 C   0  0  0  0  0  0  0  0  0  0  0  0
   28.2728  -19.6821   -4.5301 C   0  0  0  0  0  0  0  0  0  0  0  0
   29.2600  -19.5084   -5.4589 C   0  0  0  0  0  0  0  0  0  0  0  0
   29.0057  -19.8481   -6.7686 C   0  0  0  0  0  0  0  0  0  0  0  0
   27.7744  -20.3543   -7.1316 C   0  0  0  0  0  0  0  0  0  0  0  0
   26.0275  -20.1058  -10.8385 C   0  0  0  0  0  0  0  0  0  0  0  0
   26.2278  -18.9249  -11.2134 O   0  0  0  0  0  0  0  0  0  0  0  0
   22.9071  -22.4582  -14.5401 N   0  0  0  0  0  0  0  0  0  0  0  0
   22.3373  -21.1790  -14.5843 C   0  0  0  0  0  0  0  0  0  0  0  0
   21.4458  -20.8953  -15.4156 O   0  0  0  0  0  0  0  0  0  0  0  0
   22.7529  -20.0769  -13.6490 C   0  0  0  0  0  0  0  0  0  0  0  0
   23.8304  -20.5084  -12.7279 C   0  0  0  0  0  0  0  0  0  0  0  0
   23.5995  -20.0808  -11.3188 C   0  0  2  0  0  0  0  0  0  0  0  0
   24.7141  -20.4712  -10.4611 N   0  0  0  0  0  0  0  0  0  0  0  0
   22.3190  -20.5415  -10.7455 C   0  0  0  0  0  0  0  0  0  0  0  0
   21.2120  -19.7100  -10.7580 O   0  0  0  0  0  0  0  0  0  0  0  0
   22.2044  -21.6715  -10.2445 O   0  0  0  0  0  0  0  0  0  0  0  0
  2  1  1  0
  3  2  1  0
  4  3  2  0
  5  3  1  0
  6  5  1  0
  7  8  1  0
  6  7  1  1
  8 16  1  0
  9 10  1  0
  9  8  2  0
 10 11  1  0
 11 16  2  0
 11 12  1  0
 12 13  2  0
 13 14  1  0
 15 14  2  0
 16 15  1  0
 17  6  1  0
 17 18  2  0
 20 22  1  0
 20 19  1  0
 21 20  2  0
 24 23  1  6
 23 22  1  0
 24 25  1  0
 25 17  1  0
 26 24  1  0
 27 26  1  0
 28 26  2  0
M  END
$$$$
