GWQ.pdb
     RDKit          3D

 28 29  0  0  1  0  0  0  0  0999 V2000
   29.8096  -21.0200  -13.5416 N   0  0  0  0  0  0  0  0  0  0  0  0
   29.2689  -20.0278  -12.6361 C   0  0  0  0  0  0  0  0  0  0  0  0
   28.1420  -20.6727  -11.9005 C   0  0  0  0  0  0  0  0  0  0  0  0
   27.8768  -21.8894  -12.0762 O   0  0  0  0  0  0  0  0  0  0  0  0
   27.3304  -19.9619  -10.9857 N   0  0  0  0  0  0  0  0  0  0  0  0
   26.2851  -20.6439  -10.2857 C   0  0  1  0  0  0  0  0  0  0  0  0
   25.8929  -19.9806   -8.9952 C   0  0  0  0  0  0  0  0  0  0  0  0
   27.0564  -19.6590   -8.1400 C   0  0  0  0  0  0  0  0  0  0  0  0
   28.1138  -18.8282   -8.3386 C   0  0  0  0  0  0  0  0  0  0  0  0
   28.9322  -18.8583   -7.2740 N   0  0  0  0  0  0  0  0  0  0  0  0
   28.4111  -19.7064   -6.3819 C   0  0  0  0  0  0  0  0  0  0  0  0
   28.8507  -20.0907   -5.1444 C   0  0  0  0  0  0  0  0  0  0  0  0
   28.1138  -20.9948   -4.4187 C   0  0  0  0  0  0  0  0  0  0  0  0
   26.9491  -21.5229   -4.9005 C   0  0  0  0  0  0  0  0  0  0  0  0
   26.5097  -21.1340   -6.1458 C   0  0  0  0  0  0  0  0  0  0  0  0
   27.2360  -20.2269   -6.8901 C   0  0  0  0  0  0  0  0  0  0  0  0
   25.0720  -20.6500  -11.1653 C   0  0  0  0  0  0  0  0  0  0  0  0
   24.8482  -19.6873  -11.9389 O   0  0  0  0  0  0  0  0  0  0  0  0
   22.3328  -25.7485  -13.6214 N   0  0  0  0  0  0  0  0  0  0  0  0
   21.5648  -24.6780  -14.0981 C   0  0  0  0  0  0  0  0  0  0  0  0
   20.6437  -24.8596  -14.9258 O   0  0  0  0  0  0  0  0  0  0  0  0
   21.7926  -23.2594  -13.6534 C   0  0  0  0  0  0  0  0  0  0  0  0
   22.8717  -23.1617  -12.6428 C   0  0  0  0  0  0  0  0  0  0  0  0
   23.1061  -21.7670  -12.1724 C   0  0  2  0  0  0  0  0  0  0  0  0
   24.1512  -21.7237  -11.1543 N   0  0  0  0  0  0  0  0  0  0  0  0
   21.8921  -21.0730  -11.6980 C   0  0  0  0  0  0  0  0  0  0  0  0
   21.2449  -20.1642  -12.5181 O   0  0  0  0  0  0  0  0  0  0  0  0
   21.4272  -21.2842  -10.5666 O   0  0  0  0  0  0  0  0  0  0  0  0
  2  1  1  0
  3  2  1  0
  4  3  2  0
  5  3  1  0
  6  5  1  0
  7  8  1  0
  6  7  1  1
  8 16  1  0
  9 10  1  0
  9  8  2  0
 10 11  1  0
 11 16  2  0
 11 12  1  0
 12 13  2  0
 13 14  1  0
 15 14  2  0
 16 15  1  0
 17  6  1  0
 17 18  2  0
 20 22  1  0
 20 19  1  0
 21 20  2  0
 24 23  1  1
 23 22  1  0
 24 25  1  0
 25 17  1  0
 26 24  1  0
 27 26  1  0
 28 26  2  0
M  END
$$$$
