GWQ.pdb
     RDKit          3D

 28 29  0  0  1  0  0  0  0  0999 V2000
   27.4481  -22.0603  -14.5790 N   0  0  0  0  0  0  0  0  0  0  0  0
   26.9416  -20.8883  -13.8959 C   0  0  0  0  0  0  0  0  0  0  0  0
   26.4042  -21.3448  -12.5807 C   0  0  0  0  0  0  0  0  0  0  0  0
   26.2392  -22.5696  -12.3476 O   0  0  0  0  0  0  0  0  0  0  0  0
   26.0597  -20.4404  -11.5490 N   0  0  0  0  0  0  0  0  0  0  0  0
   25.5054  -20.9361  -10.3264 C   0  0  1  0  0  0  0  0  0  0  0  0
   25.9334  -20.1590   -9.1131 C   0  0  0  0  0  0  0  0  0  0  0  0
   27.2975  -20.5094   -8.6606 C   0  0  0  0  0  0  0  0  0  0  0  0
   28.2851  -21.2266   -9.2590 C   0  0  0  0  0  0  0  0  0  0  0  0
   29.3638  -21.2840   -8.4609 N   0  0  0  0  0  0  0  0  0  0  0  0
   29.0823  -20.6062   -7.3439 C   0  0  0  0  0  0  0  0  0  0  0  0
   29.8333  -20.3653   -6.2257 C   0  0  0  0  0  0  0  0  0  0  0  0
   29.2963  -19.6258   -5.2001 C   0  0  0  0  0  0  0  0  0  0  0  0
   28.0277  -19.1221   -5.2661 C   0  0  0  0  0  0  0  0  0  0  0  0
   27.2749  -19.3662   -6.3925 C   0  0  0  0  0  0  0  0  0  0  0  0
   27.7967  -20.1069   -7.4334 C   0  0  0  0  0  0  0  0  0  0  0  0
   24.0141  -20.8228  -10.4196 C   0  0  0  0  0  0  0  0  0  0  0  0
   23.4880  -20.1596  -11.3463 O   0  0  0  0  0  0  0  0  0  0  0  0
   19.5497  -23.8134   -6.8438 N   0  0  0  0  0  0  0  0  0  0  0  0
   18.8677  -23.2529   -7.9318 C   0  0  0  0  0  0  0  0  0  0  0  0
   17.6330  -23.4044   -8.0701 O   0  0  0  0  0  0  0  0  0  0  0  0
   19.5637  -22.4434   -8.9911 C   0  0  0  0  0  0  0  0  0  0  0  0
   21.0198  -22.3353   -8.7390 C   0  0  0  0  0  0  0  0  0  0  0  0
   21.7325  -21.5294   -9.7705 C   0  0  2  0  0  0  0  0  0  0  0  0
   23.1609  -21.4491   -9.4812 N   0  0  0  0  0  0  0  0  0  0  0  0
   21.1708  -20.1805   -9.9835 C   0  0  0  0  0  0  0  0  0  0  0  0
   20.2180  -19.9709  -10.9662 O   0  0  0  0  0  0  0  0  0  0  0  0
   21.5338  -19.2131   -9.2957 O   0  0  0  0  0  0  0  0  0  0  0  0
  2  1  1  0
  3  2  1  0
  4  3  2  0
  5  3  1  0
  6  5  1  0
  7  8  1  0
  6  7  1  1
  8 16  1  0
  9 10  1  0
  9  8  2  0
 10 11  1  0
 11 16  2  0
 11 12  1  0
 12 13  2  0
 13 14  1  0
 15 14  2  0
 16 15  1  0
 17  6  1  0
 17 18  2  0
 20 22  1  0
 20 19  1  0
 21 20  2  0
 24 23  1  1
 23 22  1  0
 24 25  1  0
 25 17  1  0
 26 24  1  0
 27 26  1  0
 28 26  2  0
M  END
$$$$
