GWQ.pdb
     RDKit          3D

 28 29  0  0  1  0  0  0  0  0999 V2000
   24.9459  -10.7539  -20.7047 N   0  0  0  0  0  0  0  0  0  0  0  0
   23.8042   -9.8633  -20.6915 C   0  0  0  0  0  0  0  0  0  0  0  0
   23.5733   -9.4669  -19.2715 C   0  0  0  0  0  0  0  0  0  0  0  0
   22.7239  -10.0718  -18.5685 O   0  0  0  0  0  0  0  0  0  0  0  0
   24.2846   -8.4105  -18.6556 N   0  0  0  0  0  0  0  0  0  0  0  0
   24.0562   -8.1111  -17.2751 C   0  0  1  0  0  0  0  0  0  0  0  0
   25.2990   -7.7038  -16.5342 C   0  0  0  0  0  0  0  0  0  0  0  0
   26.2911   -8.7967  -16.4360 C   0  0  0  0  0  0  0  0  0  0  0  0
   27.5523   -8.9110  -16.9300 C   0  0  0  0  0  0  0  0  0  0  0  0
   28.0789  -10.0973  -16.5843 N   0  0  0  0  0  0  0  0  0  0  0  0
   27.1645  -10.7565  -15.8662 C   0  0  0  0  0  0  0  0  0  0  0  0
   27.2014  -11.9938  -15.2828 C   0  0  0  0  0  0  0  0  0  0  0  0
   26.1053  -12.4437  -14.5877 C   0  0  0  0  0  0  0  0  0  0  0  0
   24.9745  -11.6866  -14.4623 C   0  0  0  0  0  0  0  0  0  0  0  0
   24.9408  -10.4423  -15.0503 C   0  0  0  0  0  0  0  0  0  0  0  0
   26.0319   -9.9727  -15.7527 C   0  0  0  0  0  0  0  0  0  0  0  0
   23.1037   -6.9564  -17.2076 C   0  0  0  0  0  0  0  0  0  0  0  0
   23.1737   -6.0300  -18.0515 O   0  0  0  0  0  0  0  0  0  0  0  0
   21.0512   -3.6358  -19.1728 N   0  0  0  0  0  0  0  0  0  0  0  0
   19.7391   -3.8012  -18.7101 C   0  0  0  0  0  0  0  0  0  0  0  0
   18.8505   -2.9580  -18.9668 O   0  0  0  0  0  0  0  0  0  0  0  0
   19.3169   -4.9860  -17.8856 C   0  0  0  0  0  0  0  0  0  0  0  0
   20.4219   -5.9560  -17.7022 C   0  0  0  0  0  0  0  0  0  0  0  0
   21.0454   -5.8815  -16.3505 C   0  0  2  0  0  0  0  0  0  0  0  0
   22.1084   -6.8713  -16.2061 N   0  0  0  0  0  0  0  0  0  0  0  0
   20.0868   -5.9845  -15.2320 C   0  0  0  0  0  0  0  0  0  0  0  0
   20.0293   -7.1384  -14.4689 O   0  0  0  0  0  0  0  0  0  0  0  0
   19.3183   -5.0509  -14.9513 O   0  0  0  0  0  0  0  0  0  0  0  0
  2  1  1  0
  3  2  1  0
  4  3  2  0
  5  3  1  0
  6  5  1  0
  7  8  1  0
  6  7  1  6
  8 16  1  0
  9 10  1  0
  9  8  2  0
 10 11  1  0
 11 16  2  0
 11 12  1  0
 12 13  2  0
 13 14  1  0
 15 14  2  0
 16 15  1  0
 17  6  1  0
 17 18  2  0
 20 22  1  0
 20 19  1  0
 21 20  2  0
 24 23  1  6
 23 22  1  0
 24 25  1  0
 25 17  1  0
 26 24  1  0
 27 26  1  0
 28 26  2  0
M  END
$$$$
