NID.pdb
     RDKit          3D

 25 24  0  0  1  0  0  0  0  0999 V2000
    7.4765  -18.5902   14.3751 N   0  0  0  0  0  0  0  0  0  0  0  0
    7.7305  -17.2757   14.8790 C   0  0  0  0  0  0  0  0  0  0  0  0
    8.2112  -16.4376   14.0575 O   0  0  0  0  0  0  0  0  0  0  0  0
    7.4477  -16.9177   16.2771 C   0  0  0  0  0  0  0  0  0  0  0  0
    8.4087  -17.6710   17.1767 C   0  0  2  0  0  0  0  0  0  0  0  0
    7.7317  -18.7125   17.8881 N   0  0  0  0  0  0  0  0  0  0  0  0
    9.1204  -16.7267   18.1072 C   0  0  0  0  0  0  0  0  0  0  0  0
   10.2595  -16.2907   17.8249 O   0  0  0  0  0  0  0  0  0  0  0  0
    7.5677  -12.1912   21.8643 C   0  0  0  0  0  0  0  0  0  0  0  0
    8.5307  -13.3323   21.6153 C   0  0  0  0  0  0  0  0  0  0  0  0
    7.9517  -14.3478   20.6341 C   0  0  2  0  0  0  0  0  0  0  0  0
    6.8674  -15.1011   21.4230 C   0  0  0  0  0  0  0  0  0  0  0  0
    9.0229  -15.3516   20.2692 C   0  0  2  0  0  0  0  0  0  0  0  0
    8.5158  -16.3239   19.3024 N   0  0  0  0  0  0  0  0  0  0  0  0
    9.5434  -16.0398   21.4526 C   0  0  0  0  0  0  0  0  0  0  0  0
    8.9501  -17.1356   21.8354 O   0  0  0  0  0  0  0  0  0  0  0  0
   10.6341  -15.6986   22.2810 N   0  0  0  0  0  0  0  0  0  0  0  0
   11.2795  -16.6502   23.1720 C   0  0  1  0  0  0  0  0  0  0  0  0
   12.7779  -16.5071   23.2416 C   0  0  0  0  0  0  0  0  0  0  0  0
   13.5263  -17.4243   22.3998 C   0  0  0  0  0  0  0  0  0  0  0  0
   12.9315  -18.3176   21.7558 O   0  0  0  0  0  0  0  0  0  0  0  0
   10.6575  -16.5921   24.5059 C   0  0  0  0  0  0  0  0  0  0  0  0
   10.0854  -15.5290   24.8549 O   0  0  0  0  0  0  0  0  0  0  0  0
   14.8940  -17.3347   22.2896 O   0  0  0  0  0  0  0  0  0  0  0  0
   10.6396  -17.6142   25.4345 O   0  0  0  0  0  0  0  0  0  0  0  0
  2  1  1  0
  2  3  2  0
  4  2  1  0
  5  4  1  0
  5  6  1  1
  7  8  2  0
  7  5  1  0
 10  9  1  0
 10 11  1  0
 11 13  1  0
 11 12  1  1
 13 14  1  6
 14  7  1  0
 15 16  2  0
 15 13  1  0
 17 15  1  0
 18 17  1  0
 18 19  1  1
 20 19  1  0
 20 21  2  0
 22 18  1  0
 23 22  2  0
 24 20  1  0
 25 22  1  0
M  END
$$$$
