NID.pdb
     RDKit          3D

 25 24  0  0  1  0  0  0  0  0999 V2000
    6.9237  -14.9374   18.2202 N   0  0  0  0  0  0  0  0  0  0  0  0
    7.9291  -15.5227   19.0524 C   0  0  0  0  0  0  0  0  0  0  0  0
    8.4172  -16.6256   18.6603 O   0  0  0  0  0  0  0  0  0  0  0  0
    8.3721  -14.8768   20.2973 C   0  0  0  0  0  0  0  0  0  0  0  0
    8.2628  -15.8781   21.4311 C   0  0  2  0  0  0  0  0  0  0  0  0
    6.9003  -16.2630   21.6425 N   0  0  0  0  0  0  0  0  0  0  0  0
    8.8938  -15.3359   22.6849 C   0  0  0  0  0  0  0  0  0  0  0  0
   10.0877  -14.9591   22.6865 O   0  0  0  0  0  0  0  0  0  0  0  0
    5.8328  -12.3579   25.9252 C   0  0  0  0  0  0  0  0  0  0  0  0
    7.0782  -12.9344   25.2863 C   0  0  0  0  0  0  0  0  0  0  0  0
    7.5322  -14.2070   25.9959 C   0  0  2  0  0  0  0  0  0  0  0  0
    8.1512  -13.7331   27.3217 C   0  0  0  0  0  0  0  0  0  0  0  0
    8.6351  -14.8575   25.1906 C   0  0  2  0  0  0  0  0  0  0  0  0
    8.1516  -15.2465   23.8670 N   0  0  0  0  0  0  0  0  0  0  0  0
    9.1975  -16.0182   25.8845 C   0  0  0  0  0  0  0  0  0  0  0  0
    8.4017  -17.0132   26.1598 O   0  0  0  0  0  0  0  0  0  0  0  0
   10.5205  -16.2487   26.3193 N   0  0  0  0  0  0  0  0  0  0  0  0
   10.9405  -17.4883   26.9539 C   0  0  1  0  0  0  0  0  0  0  0  0
   12.3649  -17.8789   26.6554 C   0  0  0  0  0  0  0  0  0  0  0  0
   12.7703  -17.7260   25.2689 C   0  0  0  0  0  0  0  0  0  0  0  0
   11.9971  -18.0642   24.3446 O   0  0  0  0  0  0  0  0  0  0  0  0
   10.6777  -17.4264   28.4020 C   0  0  0  0  0  0  0  0  0  0  0  0
   10.5218  -16.2991   28.9353 O   0  0  0  0  0  0  0  0  0  0  0  0
   14.0016  -17.2101   24.9399 O   0  0  0  0  0  0  0  0  0  0  0  0
   10.5831  -18.5097   29.2533 O   0  0  0  0  0  0  0  0  0  0  0  0
  2  1  1  0
  2  3  2  0
  4  2  1  0
  5  4  1  0
  5  6  1  1
  7  8  2  0
  7  5  1  0
 10  9  1  0
 10 11  1  0
 11 13  1  0
 11 12  1  1
 13 14  1  6
 14  7  1  0
 15 16  2  0
 15 13  1  0
 17 15  1  0
 18 17  1  0
 18 19  1  1
 20 19  1  0
 20 21  2  0
 22 18  1  0
 23 22  2  0
 24 20  1  0
 25 22  1  0
M  END
$$$$
