NID.pdb
     RDKit          3D

 25 24  0  0  1  0  0  0  0  0999 V2000
    7.8264  -20.9750   17.1683 N   0  0  0  0  0  0  0  0  0  0  0  0
    9.0367  -20.2730   17.4660 C   0  0  0  0  0  0  0  0  0  0  0  0
   10.0453  -20.5547   16.7507 O   0  0  0  0  0  0  0  0  0  0  0  0
    9.1048  -19.2767   18.5457 C   0  0  0  0  0  0  0  0  0  0  0  0
    8.7956  -17.9093   17.9670 C   0  0  2  0  0  0  0  0  0  0  0  0
    9.3416  -17.7771   16.6504 N   0  0  0  0  0  0  0  0  0  0  0  0
    9.2766  -16.8194   18.8862 C   0  0  0  0  0  0  0  0  0  0  0  0
   10.4510  -16.3927   18.8097 O   0  0  0  0  0  0  0  0  0  0  0  0
    7.9144  -12.6279   20.0534 C   0  0  0  0  0  0  0  0  0  0  0  0
    6.9142  -13.6999   20.4303 C   0  0  0  0  0  0  0  0  0  0  0  0
    7.4960  -14.6718   21.4532 C   0  0  2  0  0  0  0  0  0  0  0  0
    7.9234  -13.7985   22.6448 C   0  0  0  0  0  0  0  0  0  0  0  0
    8.7481  -15.3009   20.8835 C   0  0  2  0  0  0  0  0  0  0  0  0
    8.4144  -16.2688   19.8400 N   0  0  0  0  0  0  0  0  0  0  0  0
    9.5538  -15.9397   21.9265 C   0  0  0  0  0  0  0  0  0  0  0  0
    9.0365  -16.9486   22.5695 O   0  0  0  0  0  0  0  0  0  0  0  0
   10.8592  -15.6313   22.3660 N   0  0  0  0  0  0  0  0  0  0  0  0
   11.5877  -16.4523   23.3204 C   0  0  1  0  0  0  0  0  0  0  0  0
   13.0812  -16.2552   23.2858 C   0  0  0  0  0  0  0  0  0  0  0  0
   13.8285  -17.0175   24.2708 C   0  0  0  0  0  0  0  0  0  0  0  0
   13.4450  -18.1605   24.6073 O   0  0  0  0  0  0  0  0  0  0  0  0
   11.0374  -16.2595   24.6731 C   0  0  0  0  0  0  0  0  0  0  0  0
   11.4660  -16.9868   25.6041 O   0  0  0  0  0  0  0  0  0  0  0  0
   14.9656  -16.5082   24.8523 O   0  0  0  0  0  0  0  0  0  0  0  0
   10.0737  -15.3368   25.0296 O   0  0  0  0  0  0  0  0  0  0  0  0
  2  1  1  0
  2  3  2  0
  4  2  1  0
  5  4  1  0
  5  6  1  6
  7  8  2  0
  7  5  1  0
 10  9  1  0
 10 11  1  0
 11 13  1  0
 11 12  1  1
 13 14  1  6
 14  7  1  0
 15 16  2  0
 15 13  1  0
 17 15  1  0
 18 17  1  0
 18 19  1  1
 20 19  1  0
 20 21  2  0
 22 18  1  0
 23 22  2  0
 24 20  1  0
 25 22  1  0
M  END
$$$$
