NID.pdb
     RDKit          3D

 25 24  0  0  1  0  0  0  0  0999 V2000
    9.0283  -21.5708   17.1321 N   0  0  0  0  0  0  0  0  0  0  0  0
    8.4036  -20.3207   17.4369 C   0  0  0  0  0  0  0  0  0  0  0  0
    7.3413  -20.0483   16.7999 O   0  0  0  0  0  0  0  0  0  0  0  0
    8.9658  -19.4012   18.4376 C   0  0  0  0  0  0  0  0  0  0  0  0
    9.0654  -18.0170   17.8257 C   0  0  2  0  0  0  0  0  0  0  0  0
    9.8813  -18.0365   16.6497 N   0  0  0  0  0  0  0  0  0  0  0  0
    9.5628  -17.0205   18.8374 C   0  0  0  0  0  0  0  0  0  0  0  0
   10.7812  -16.7435   18.9142 O   0  0  0  0  0  0  0  0  0  0  0  0
    6.4725  -12.6266   20.2042 C   0  0  0  0  0  0  0  0  0  0  0  0
    7.6669  -13.5283   19.9764 C   0  0  0  0  0  0  0  0  0  0  0  0
    7.8070  -14.5618   21.0905 C   0  0  2  0  0  0  0  0  0  0  0  0
    8.1576  -13.7539   22.3514 C   0  0  0  0  0  0  0  0  0  0  0  0
    8.9861  -15.4601   20.7885 C   0  0  2  0  0  0  0  0  0  0  0  0
    8.6667  -16.3903   19.7070 N   0  0  0  0  0  0  0  0  0  0  0  0
    9.4217  -16.1969   21.9769 C   0  0  0  0  0  0  0  0  0  0  0  0
    8.6857  -17.1923   22.3854 O   0  0  0  0  0  0  0  0  0  0  0  0
   10.5615  -16.0005   22.7861 N   0  0  0  0  0  0  0  0  0  0  0  0
   10.8779  -16.8460   23.9265 C   0  0  1  0  0  0  0  0  0  0  0  0
   12.3545  -17.0329   24.1614 C   0  0  0  0  0  0  0  0  0  0  0  0
   13.1758  -17.0341   22.9632 C   0  0  0  0  0  0  0  0  0  0  0  0
   12.9280  -17.8298   22.0294 O   0  0  0  0  0  0  0  0  0  0  0  0
   10.1870  -16.3485   25.1286 C   0  0  0  0  0  0  0  0  0  0  0  0
    9.5757  -15.2528   25.0585 O   0  0  0  0  0  0  0  0  0  0  0  0
   14.2356  -16.1689   22.8256 O   0  0  0  0  0  0  0  0  0  0  0  0
   10.1429  -16.9812   26.3554 O   0  0  0  0  0  0  0  0  0  0  0  0
  2  1  1  0
  2  3  2  0
  4  2  1  0
  5  4  1  0
  5  6  1  6
  7  8  2  0
  7  5  1  0
 10  9  1  0
 10 11  1  0
 11 13  1  0
 11 12  1  1
 13 14  1  6
 14  7  1  0
 15 16  2  0
 15 13  1  0
 17 15  1  0
 18 17  1  0
 18 19  1  1
 20 19  1  0
 20 21  2  0
 22 18  1  0
 23 22  2  0
 24 20  1  0
 25 22  1  0
M  END
$$$$
