NID.pdb
     RDKit          3D

 25 24  0  0  1  0  0  0  0  0999 V2000
   10.2094  -17.0783   13.2637 N   0  0  0  0  0  0  0  0  0  0  0  0
    9.3313  -16.8354   14.3664 C   0  0  0  0  0  0  0  0  0  0  0  0
    8.1535  -17.2944   14.2640 O   0  0  0  0  0  0  0  0  0  0  0  0
    9.7739  -16.0919   15.5556 C   0  0  0  0  0  0  0  0  0  0  0  0
    9.5421  -16.9529   16.7825 C   0  0  2  0  0  0  0  0  0  0  0  0
    8.1897  -17.4196   16.8304 N   0  0  0  0  0  0  0  0  0  0  0  0
    9.9249  -16.2118   18.0348 C   0  0  0  0  0  0  0  0  0  0  0  0
   11.1237  -15.9435   18.2760 O   0  0  0  0  0  0  0  0  0  0  0  0
    6.6668  -12.3456   19.8971 C   0  0  0  0  0  0  0  0  0  0  0  0
    7.9002  -13.1902   19.6587 C   0  0  0  0  0  0  0  0  0  0  0  0
    7.9906  -14.3410   20.6570 C   0  0  2  0  0  0  0  0  0  0  0  0
    8.3443  -13.6843   22.0020 C   0  0  0  0  0  0  0  0  0  0  0  0
    9.1470  -15.2387   20.2759 C   0  0  2  0  0  0  0  0  0  0  0  0
    8.9426  -15.8131   18.9472 N   0  0  0  0  0  0  0  0  0  0  0  0
    9.3514  -16.3032   21.2608 C   0  0  0  0  0  0  0  0  0  0  0  0
    9.1650  -17.5357   20.8795 O   0  0  0  0  0  0  0  0  0  0  0  0
    9.7393  -16.2097   22.6148 N   0  0  0  0  0  0  0  0  0  0  0  0
   10.9464  -16.8309   23.1371 C   0  0  1  0  0  0  0  0  0  0  0  0
   12.1861  -16.5359   22.3329 C   0  0  0  0  0  0  0  0  0  0  0  0
   13.4087  -17.1347   22.8395 C   0  0  0  0  0  0  0  0  0  0  0  0
   13.5005  -18.3773   22.9580 O   0  0  0  0  0  0  0  0  0  0  0  0
   11.1159  -16.4842   24.5587 C   0  0  0  0  0  0  0  0  0  0  0  0
   12.0468  -17.0308   25.2022 O   0  0  0  0  0  0  0  0  0  0  0  0
   14.4861  -16.3590   23.1976 O   0  0  0  0  0  0  0  0  0  0  0  0
   10.3349  -15.5969   25.2728 O   0  0  0  0  0  0  0  0  0  0  0  0
  2  1  1  0
  2  3  2  0
  4  2  1  0
  5  4  1  0
  5  6  1  1
  7  8  2  0
  7  5  1  0
 10  9  1  0
 10 11  1  0
 11 13  1  0
 11 12  1  1
 13 14  1  6
 14  7  1  0
 15 16  2  0
 15 13  1  0
 17 15  1  0
 18 17  1  0
 18 19  1  6
 20 19  1  0
 20 21  2  0
 22 18  1  0
 23 22  2  0
 24 20  1  0
 25 22  1  0
M  END
$$$$
