NID.pdb
     RDKit          3D

 25 24  0  0  1  0  0  0  0  0999 V2000
    6.9442  -18.6822   19.5607 N   0  0  0  0  0  0  0  0  0  0  0  0
    6.9764  -17.3397   20.0533 C   0  0  0  0  0  0  0  0  0  0  0  0
    6.4628  -16.4508   19.3086 O   0  0  0  0  0  0  0  0  0  0  0  0
    7.5742  -17.0102   21.3560 C   0  0  0  0  0  0  0  0  0  0  0  0
    7.9378  -15.5378   21.3666 C   0  0  2  0  0  0  0  0  0  0  0  0
    8.7853  -15.2134   20.2595 N   0  0  0  0  0  0  0  0  0  0  0  0
    8.5590  -15.1508   22.6813 C   0  0  0  0  0  0  0  0  0  0  0  0
    9.7915  -15.2723   22.8647 O   0  0  0  0  0  0  0  0  0  0  0  0
    6.0045  -11.3182   25.6784 C   0  0  0  0  0  0  0  0  0  0  0  0
    7.1058  -12.1924   25.1176 C   0  0  0  0  0  0  0  0  0  0  0  0
    7.1540  -13.5478   25.8174 C   0  0  2  0  0  0  0  0  0  0  0  0
    7.7105  -13.2595   27.2218 C   0  0  0  0  0  0  0  0  0  0  0  0
    8.1535  -14.4360   25.1101 C   0  0  2  0  0  0  0  0  0  0  0  0
    7.7643  -14.6495   23.7172 N   0  0  0  0  0  0  0  0  0  0  0  0
    8.3116  -15.7217   25.7935 C   0  0  0  0  0  0  0  0  0  0  0  0
    7.5781  -16.7227   25.3945 O   0  0  0  0  0  0  0  0  0  0  0  0
    9.1699  -16.0718   26.8580 N   0  0  0  0  0  0  0  0  0  0  0  0
    9.8466  -17.3568   26.9394 C   0  0  1  0  0  0  0  0  0  0  0  0
   10.5904  -17.7394   25.6861 C   0  0  0  0  0  0  0  0  0  0  0  0
   11.3429  -18.9792   25.7679 C   0  0  0  0  0  0  0  0  0  0  0  0
   10.8210  -20.0022   26.2656 O   0  0  0  0  0  0  0  0  0  0  0  0
   10.7147  -17.3937   28.1289 C   0  0  0  0  0  0  0  0  0  0  0  0
   11.4986  -16.4320   28.3290 O   0  0  0  0  0  0  0  0  0  0  0  0
   12.6350  -19.0597   25.3046 O   0  0  0  0  0  0  0  0  0  0  0  0
   10.7545  -18.4042   29.0693 O   0  0  0  0  0  0  0  0  0  0  0  0
  2  1  1  0
  2  3  2  0
  4  2  1  0
  5  4  1  0
  5  6  1  6
  7  8  2  0
  7  5  1  0
 10  9  1  0
 10 11  1  0
 11 13  1  0
 11 12  1  1
 13 14  1  6
 14  7  1  0
 15 16  2  0
 15 13  1  0
 17 15  1  0
 18 17  1  0
 18 19  1  6
 20 19  1  0
 20 21  2  0
 22 18  1  0
 23 22  2  0
 24 20  1  0
 25 22  1  0
M  END
$$$$
