NID.pdb
     RDKit          3D

 25 24  0  0  1  0  0  0  0  0999 V2000
    7.1849  -17.0482   19.3356 N   0  0  0  0  0  0  0  0  0  0  0  0
    7.8132  -15.7681   19.2231 C   0  0  0  0  0  0  0  0  0  0  0  0
    7.8927  -15.2769   18.0566 O   0  0  0  0  0  0  0  0  0  0  0  0
    8.3385  -15.0606   20.4006 C   0  0  0  0  0  0  0  0  0  0  0  0
    8.1038  -15.9184   21.6291 C   0  0  2  0  0  0  0  0  0  0  0  0
    6.7039  -16.0626   21.8910 N   0  0  0  0  0  0  0  0  0  0  0  0
    8.8428  -15.3637   22.8167 C   0  0  0  0  0  0  0  0  0  0  0  0
   10.0714  -15.1323   22.7522 O   0  0  0  0  0  0  0  0  0  0  0  0
    6.0762  -11.9599   25.8777 C   0  0  0  0  0  0  0  0  0  0  0  0
    7.2758  -12.6396   25.2528 C   0  0  0  0  0  0  0  0  0  0  0  0
    7.7200  -13.8501   26.0692 C   0  0  2  0  0  0  0  0  0  0  0  0
    8.4471  -13.2688   27.2935 C   0  0  0  0  0  0  0  0  0  0  0  0
    8.7367  -14.6389   25.2739 C   0  0  2  0  0  0  0  0  0  0  0  0
    8.1635  -15.0997   24.0104 N   0  0  0  0  0  0  0  0  0  0  0  0
    9.2556  -15.7755   26.0379 C   0  0  0  0  0  0  0  0  0  0  0  0
    8.4285  -16.7332   26.3508 O   0  0  0  0  0  0  0  0  0  0  0  0
   10.5645  -16.0174   26.5078 N   0  0  0  0  0  0  0  0  0  0  0  0
   10.9513  -17.2520   27.1726 C   0  0  1  0  0  0  0  0  0  0  0  0
   12.3665  -17.6847   26.8890 C   0  0  0  0  0  0  0  0  0  0  0  0
   12.7305  -17.7257   25.4833 C   0  0  0  0  0  0  0  0  0  0  0  0
   11.9100  -18.1343   24.6309 O   0  0  0  0  0  0  0  0  0  0  0  0
   10.6851  -17.1499   28.6178 C   0  0  0  0  0  0  0  0  0  0  0  0
   10.5027  -16.0101   29.1148 O   0  0  0  0  0  0  0  0  0  0  0  0
   13.9733  -17.3200   25.0575 O   0  0  0  0  0  0  0  0  0  0  0  0
   10.6144  -18.2073   29.5033 O   0  0  0  0  0  0  0  0  0  0  0  0
  2  1  1  0
  2  3  2  0
  4  2  1  0
  5  4  1  0
  5  6  1  1
  7  8  2  0
  7  5  1  0
 10  9  1  0
 10 11  1  0
 11 13  1  0
 11 12  1  1
 13 14  1  6
 14  7  1  0
 15 16  2  0
 15 13  1  0
 17 15  1  0
 18 17  1  0
 18 19  1  1
 20 19  1  0
 20 21  2  0
 22 18  1  0
 23 22  2  0
 24 20  1  0
 25 22  1  0
M  END
$$$$
