NID.pdb
     RDKit          3D

 25 24  0  0  1  0  0  0  0  0999 V2000
    6.5991  -14.5975   20.9729 N   0  0  0  0  0  0  0  0  0  0  0  0
    7.7027  -15.1376   20.2405 C   0  0  0  0  0  0  0  0  0  0  0  0
    8.0553  -14.5050   19.1994 O   0  0  0  0  0  0  0  0  0  0  0  0
    8.3910  -16.3627   20.6746 C   0  0  0  0  0  0  0  0  0  0  0  0
    7.9649  -16.6837   22.0944 C   0  0  2  0  0  0  0  0  0  0  0  0
    6.5408  -16.6235   22.2257 N   0  0  0  0  0  0  0  0  0  0  0  0
    8.6579  -15.7792   23.0771 C   0  0  0  0  0  0  0  0  0  0  0  0
    9.8093  -15.3466   22.8436 O   0  0  0  0  0  0  0  0  0  0  0  0
    6.0927  -11.9945   25.8767 C   0  0  0  0  0  0  0  0  0  0  0  0
    7.2621  -12.7645   25.3013 C   0  0  0  0  0  0  0  0  0  0  0  0
    7.6470  -13.9431   26.1912 C   0  0  2  0  0  0  0  0  0  0  0  0
    8.3873  -13.3227   27.3881 C   0  0  0  0  0  0  0  0  0  0  0  0
    8.6361  -14.8189   25.4544 C   0  0  2  0  0  0  0  0  0  0  0  0
    8.0220  -15.4103   24.2669 N   0  0  0  0  0  0  0  0  0  0  0  0
    9.1766  -15.8692   26.3202 C   0  0  0  0  0  0  0  0  0  0  0  0
    8.3842  -16.8427   26.6715 O   0  0  0  0  0  0  0  0  0  0  0  0
   10.4746  -16.0092   26.8568 N   0  0  0  0  0  0  0  0  0  0  0  0
   10.8866  -17.1624   27.6417 C   0  0  1  0  0  0  0  0  0  0  0  0
   12.0223  -17.9445   27.0343 C   0  0  0  0  0  0  0  0  0  0  0  0
   12.5429  -19.0206   27.8595 C   0  0  0  0  0  0  0  0  0  0  0  0
   11.8449  -20.0340   28.0887 O   0  0  0  0  0  0  0  0  0  0  0  0
   11.1788  -16.7507   29.0256 C   0  0  0  0  0  0  0  0  0  0  0  0
   11.3461  -15.5283   29.2647 O   0  0  0  0  0  0  0  0  0  0  0  0
   13.8038  -18.9543   28.4038 O   0  0  0  0  0  0  0  0  0  0  0  0
   11.2901  -17.5942   30.1133 O   0  0  0  0  0  0  0  0  0  0  0  0
  2  1  1  0
  2  3  2  0
  4  2  1  0
  5  4  1  0
  5  6  1  6
  7  8  2  0
  7  5  1  0
 10  9  1  0
 10 11  1  0
 11 13  1  0
 11 12  1  1
 13 14  1  6
 14  7  1  0
 15 16  2  0
 15 13  1  0
 17 15  1  0
 18 17  1  0
 18 19  1  6
 20 19  1  0
 20 21  2  0
 22 18  1  0
 23 22  2  0
 24 20  1  0
 25 22  1  0
M  END
$$$$
