ASE.pdb
     RDKit          3D

 21 20  0  0  1  0  0  0  0  0999 V2000
   19.5138  -13.0031  -19.0590 C   0  0  0  0  0  0  0  0  0  0  0  0
   20.3741  -12.5667  -17.8661 C   0  0  2  0  0  0  0  0  0  0  0  0
   20.0544  -13.4415  -16.7747 N   0  0  0  0  0  0  0  0  0  0  0  0
   20.0260  -11.1467  -17.6053 C   0  0  0  0  0  0  0  0  0  0  0  0
   20.3150  -10.3053  -18.5102 O   0  0  0  0  0  0  0  0  0  0  0  0
   18.3665   -9.8225  -13.9564 O   0  0  0  0  0  0  0  0  0  0  0  0
   17.9951   -9.2338  -15.1405 C   0  0  0  0  0  0  0  0  0  0  0  0
   19.1208   -9.3047  -16.1477 C   0  0  2  0  0  0  0  0  0  0  0  0
   19.4024  -10.6757  -16.4361 N   0  0  0  0  0  0  0  0  0  0  0  0
   20.3121   -8.5356  -15.6885 C   0  0  0  0  0  0  0  0  0  0  0  0
   21.2781   -9.1396  -15.1092 O   0  0  0  0  0  0  0  0  0  0  0  0
   20.4527   -7.1387  -15.8530 N   0  0  0  0  0  0  0  0  0  0  0  0
   21.7010   -6.4309  -15.3873 C   0  0  1  0  0  0  0  0  0  0  0  0
   22.1699   -5.5558  -16.4698 C   0  0  0  0  0  0  0  0  0  0  0  0
   23.3357   -4.6691  -16.2682 C   0  0  0  0  0  0  0  0  0  0  0  0
   23.6712   -3.7134  -17.3182 C   0  0  0  0  0  0  0  0  0  0  0  0
   24.6036   -2.8925  -17.1553 O   0  0  0  0  0  0  0  0  0  0  0  0
   21.2887   -5.7635  -14.1320 C   0  0  0  0  0  0  0  0  0  0  0  0
   22.1405   -5.4366  -13.0936 O   0  0  0  0  0  0  0  0  0  0  0  0
   22.9719   -3.6972  -18.5108 O   0  0  0  0  0  0  0  0  0  0  0  0
   20.0625   -5.4488  -13.9409 O   0  0  0  0  0  0  0  0  0  0  0  0
  2  1  1  6
  2  4  1  0
  3  2  1  0
  4  5  2  0
  7  6  1  0
  8  7  1  1
  9  8  1  0
  9  4  1  0
 10 11  2  0
 10  8  1  0
 12 10  1  0
 13 12  1  0
 13 14  1  6
 14 15  1  0
 15 16  1  0
 16 20  1  0
 17 16  2  0
 18 13  1  0
 19 18  1  0
 21 18  2  0
M  END
$$$$
