ASE.pdb
     RDKit          3D

 21 20  0  0  1  0  0  0  0  0999 V2000
   22.0809  -11.3017  -16.1673 C   0  0  0  0  0  0  0  0  0  0  0  0
   20.5573  -11.2872  -15.9883 C   0  0  2  0  0  0  0  0  0  0  0  0
   19.9849  -11.7563  -17.2175 N   0  0  0  0  0  0  0  0  0  0  0  0
   20.1941   -9.8835  -15.6664 C   0  0  0  0  0  0  0  0  0  0  0  0
   20.3784   -9.0163  -16.5743 O   0  0  0  0  0  0  0  0  0  0  0  0
   19.1367   -8.6056  -11.8177 O   0  0  0  0  0  0  0  0  0  0  0  0
   18.4087   -8.1328  -12.8822 C   0  0  0  0  0  0  0  0  0  0  0  0
   19.2488   -8.1196  -14.1394 C   0  0  2  0  0  0  0  0  0  0  0  0
   19.6633   -9.4545  -14.4369 N   0  0  0  0  0  0  0  0  0  0  0  0
   20.3798   -7.1552  -14.0289 C   0  0  0  0  0  0  0  0  0  0  0  0
   21.5535   -7.5763  -13.7485 O   0  0  0  0  0  0  0  0  0  0  0  0
   20.2407   -5.7611  -14.2175 N   0  0  0  0  0  0  0  0  0  0  0  0
   21.4511   -4.8605  -14.2198 C   0  0  1  0  0  0  0  0  0  0  0  0
   22.0269   -4.8599  -15.5711 C   0  0  0  0  0  0  0  0  0  0  0  0
   23.2132   -4.0343  -15.8825 C   0  0  0  0  0  0  0  0  0  0  0  0
   23.7151   -4.0283  -17.2523 C   0  0  0  0  0  0  0  0  0  0  0  0
   24.7972   -4.5932  -17.5346 O   0  0  0  0  0  0  0  0  0  0  0  0
   20.9362   -3.5651  -13.7221 C   0  0  0  0  0  0  0  0  0  0  0  0
   21.6998   -2.5995  -13.0936 O   0  0  0  0  0  0  0  0  0  0  0  0
   23.0073   -3.4045  -18.2630 O   0  0  0  0  0  0  0  0  0  0  0  0
   19.6974   -3.2694  -13.8536 O   0  0  0  0  0  0  0  0  0  0  0  0
  2  1  1  6
  2  4  1  0
  3  2  1  0
  4  5  2  0
  7  6  1  0
  8  7  1  1
  9  8  1  0
  9  4  1  0
 10 11  2  0
 10  8  1  0
 12 10  1  0
 13 12  1  0
 13 14  1  6
 14 15  1  0
 15 16  1  0
 16 20  1  0
 17 16  2  0
 18 13  1  0
 19 18  1  0
 21 18  2  0
M  END
$$$$
