ASE.pdb
     RDKit          3D

 21 20  0  0  1  0  0  0  0  0999 V2000
   20.7751  -10.7079  -20.1032 C   0  0  0  0  0  0  0  0  0  0  0  0
   21.1679  -11.7789  -19.0776 C   0  0  2  0  0  0  0  0  0  0  0  0
   20.0942  -12.7295  -19.0298 N   0  0  0  0  0  0  0  0  0  0  0  0
   21.3786  -11.0621  -17.7941 C   0  0  0  0  0  0  0  0  0  0  0  0
   20.3520  -10.5761  -17.2284 O   0  0  0  0  0  0  0  0  0  0  0  0
   25.2057  -10.0503  -16.2473 O   0  0  0  0  0  0  0  0  0  0  0  0
   24.2103  -10.4993  -15.4141 C   0  0  0  0  0  0  0  0  0  0  0  0
   22.8493  -10.1438  -15.9690 C   0  0  2  0  0  0  0  0  0  0  0  0
   22.6259  -10.8886  -17.1680 N   0  0  0  0  0  0  0  0  0  0  0  0
   22.7005   -8.6714  -16.1458 C   0  0  0  0  0  0  0  0  0  0  0  0
   22.9570   -8.1345  -17.2769 O   0  0  0  0  0  0  0  0  0  0  0  0
   22.2829   -7.7978  -15.1159 N   0  0  0  0  0  0  0  0  0  0  0  0
   22.1447   -6.3174  -15.3715 C   0  0  1  0  0  0  0  0  0  0  0  0
   20.9287   -6.0946  -16.1647 C   0  0  0  0  0  0  0  0  0  0  0  0
   20.4552   -4.7225  -16.4455 C   0  0  0  0  0  0  0  0  0  0  0  0
   19.2503   -4.5547  -17.2508 C   0  0  0  0  0  0  0  0  0  0  0  0
   18.7569   -3.4164  -17.4259 O   0  0  0  0  0  0  0  0  0  0  0  0
   22.1695   -5.7153  -14.0195 C   0  0  0  0  0  0  0  0  0  0  0  0
   22.5114   -4.4048  -13.7437 O   0  0  0  0  0  0  0  0  0  0  0  0
   18.6334   -5.6442  -17.8375 O   0  0  0  0  0  0  0  0  0  0  0  0
   21.8651   -6.4188  -12.9940 O   0  0  0  0  0  0  0  0  0  0  0  0
  2  1  1  6
  2  4  1  0
  3  2  1  0
  4  5  2  0
  7  6  1  0
  8  7  1  6
  9  8  1  0
  9  4  1  0
 10 11  2  0
 10  8  1  0
 12 10  1  0
 13 12  1  0
 13 14  1  1
 14 15  1  0
 15 16  1  0
 16 20  1  0
 17 16  2  0
 18 13  1  0
 19 18  1  0
 21 18  2  0
M  END
$$$$
