ASE.pdb
     RDKit          3D

 21 20  0  0  1  0  0  0  0  0999 V2000
   18.0261  -11.5467  -18.6189 C   0  0  0  0  0  0  0  0  0  0  0  0
   19.0902  -11.5045  -17.5147 C   0  0  2  0  0  0  0  0  0  0  0  0
   18.7024  -12.4628  -16.5198 N   0  0  0  0  0  0  0  0  0  0  0  0
   19.1070  -10.1069  -17.0125 C   0  0  0  0  0  0  0  0  0  0  0  0
   19.5377   -9.2136  -17.8041 O   0  0  0  0  0  0  0  0  0  0  0  0
   17.9246   -9.0158  -13.0875 O   0  0  0  0  0  0  0  0  0  0  0  0
   17.6371   -8.2224  -14.1713 C   0  0  0  0  0  0  0  0  0  0  0  0
   18.6998   -8.3694  -15.2370 C   0  0  2  0  0  0  0  0  0  0  0  0
   18.6803   -9.7096  -15.7327 N   0  0  0  0  0  0  0  0  0  0  0  0
   20.0362   -7.9385  -14.7371 C   0  0  0  0  0  0  0  0  0  0  0  0
   20.8093   -8.7838  -14.1704 O   0  0  0  0  0  0  0  0  0  0  0  0
   20.5241   -6.6164  -14.8483 N   0  0  0  0  0  0  0  0  0  0  0  0
   21.8869   -6.2518  -14.3133 C   0  0  1  0  0  0  0  0  0  0  0  0
   22.7528   -5.9029  -15.4473 C   0  0  0  0  0  0  0  0  0  0  0  0
   22.5527   -4.6369  -16.1844 C   0  0  0  0  0  0  0  0  0  0  0  0
   23.4147   -4.3549  -17.3272 C   0  0  0  0  0  0  0  0  0  0  0  0
   23.1615   -4.8485  -18.4506 O   0  0  0  0  0  0  0  0  0  0  0  0
   21.6130   -5.1736  -13.3369 C   0  0  0  0  0  0  0  0  0  0  0  0
   20.3959   -4.5367  -13.1828 O   0  0  0  0  0  0  0  0  0  0  0  0
   24.5218   -3.5374  -17.1943 O   0  0  0  0  0  0  0  0  0  0  0  0
   22.5394   -4.7587  -12.5566 O   0  0  0  0  0  0  0  0  0  0  0  0
  2  1  1  6
  2  4  1  0
  3  2  1  0
  4  5  2  0
  7  6  1  0
  8  7  1  1
  9  8  1  0
  9  4  1  0
 10 11  2  0
 10  8  1  0
 12 10  1  0
 13 12  1  0
 13 14  1  6
 14 15  1  0
 15 16  1  0
 16 20  1  0
 17 16  2  0
 18 13  1  0
 19 18  1  0
 21 18  2  0
M  END
$$$$
