ASE.pdb
     RDKit          3D

 21 20  0  0  1  0  0  0  0  0999 V2000
   17.0317   -9.9727  -16.9188 C   0  0  0  0  0  0  0  0  0  0  0  0
   18.0902  -10.9419  -16.3769 C   0  0  2  0  0  0  0  0  0  0  0  0
   17.4015  -11.9109  -15.5736 N   0  0  0  0  0  0  0  0  0  0  0  0
   19.0514  -10.1127  -15.6060 C   0  0  0  0  0  0  0  0  0  0  0  0
   18.5988   -9.4925  -14.5957 O   0  0  0  0  0  0  0  0  0  0  0  0
   23.0548   -9.5850  -16.7823 O   0  0  0  0  0  0  0  0  0  0  0  0
   22.7466   -9.6763  -15.4469 C   0  0  0  0  0  0  0  0  0  0  0  0
   21.3465   -9.1677  -15.1865 C   0  0  2  0  0  0  0  0  0  0  0  0
   20.4159   -9.9708  -15.9152 N   0  0  0  0  0  0  0  0  0  0  0  0
   21.2330   -7.7106  -15.4790 C   0  0  0  0  0  0  0  0  0  0  0  0
   20.9289   -7.3171  -16.6563 O   0  0  0  0  0  0  0  0  0  0  0  0
   21.4462   -6.6999  -14.5140 N   0  0  0  0  0  0  0  0  0  0  0  0
   21.2340   -5.2472  -14.8616 C   0  0  1  0  0  0  0  0  0  0  0  0
   19.8137   -4.9262  -14.6683 C   0  0  0  0  0  0  0  0  0  0  0  0
   19.3388   -3.5294  -14.7639 C   0  0  0  0  0  0  0  0  0  0  0  0
   17.9376   -3.2504  -14.4686 C   0  0  0  0  0  0  0  0  0  0  0  0
   17.5019   -2.0763  -14.5084 O   0  0  0  0  0  0  0  0  0  0  0  0
   22.1961   -4.5266  -13.9978 C   0  0  0  0  0  0  0  0  0  0  0  0
   22.7811   -3.3130  -14.3068 O   0  0  0  0  0  0  0  0  0  0  0  0
   17.0653   -4.2727  -14.1439 O   0  0  0  0  0  0  0  0  0  0  0  0
   22.5507   -5.0233  -12.8723 O   0  0  0  0  0  0  0  0  0  0  0  0
  2  1  1  1
  2  4  1  0
  3  2  1  0
  4  5  2  0
  7  6  1  0
  8  7  1  6
  9  8  1  0
  9  4  1  0
 10 11  2  0
 10  8  1  0
 12 10  1  0
 13 12  1  0
 13 14  1  1
 14 15  1  0
 15 16  1  0
 16 20  1  0
 17 16  2  0
 18 13  1  0
 19 18  1  0
 21 18  2  0
M  END
$$$$
