ASE.pdb
     RDKit          3D

 21 20  0  0  1  0  0  0  0  0999 V2000
   18.0185  -12.8471  -17.8504 C   0  0  0  0  0  0  0  0  0  0  0  0
   19.2632  -12.3653  -17.0942 C   0  0  2  0  0  0  0  0  0  0  0  0
   19.3369  -13.1242  -15.8787 N   0  0  0  0  0  0  0  0  0  0  0  0
   19.0711  -10.9098  -16.8700 C   0  0  0  0  0  0  0  0  0  0  0  0
   19.0556  -10.1642  -17.8967 O   0  0  0  0  0  0  0  0  0  0  0  0
   18.3585   -9.2917  -13.0612 O   0  0  0  0  0  0  0  0  0  0  0  0
   17.7582   -8.7661  -14.1793 C   0  0  0  0  0  0  0  0  0  0  0  0
   18.6546   -8.9184  -15.3876 C   0  0  2  0  0  0  0  0  0  0  0  0
   18.9046  -10.3077  -15.6101 N   0  0  0  0  0  0  0  0  0  0  0  0
   19.8955   -8.1040  -15.2516 C   0  0  0  0  0  0  0  0  0  0  0  0
   20.9449   -8.6198  -14.7359 O   0  0  0  0  0  0  0  0  0  0  0  0
   19.9961   -6.7561  -15.6656 N   0  0  0  0  0  0  0  0  0  0  0  0
   21.2634   -5.9718  -15.4312 C   0  0  1  0  0  0  0  0  0  0  0  0
   21.2560   -4.8014  -16.3187 C   0  0  0  0  0  0  0  0  0  0  0  0
   22.3081   -3.7684  -16.2094 C   0  0  0  0  0  0  0  0  0  0  0  0
   22.2581   -2.6274  -17.1172 C   0  0  0  0  0  0  0  0  0  0  0  0
   21.4280   -2.5982  -18.0552 O   0  0  0  0  0  0  0  0  0  0  0  0
   21.2519   -5.6964  -13.9769 C   0  0  0  0  0  0  0  0  0  0  0  0
   20.1132   -5.6011  -13.1992 O   0  0  0  0  0  0  0  0  0  0  0  0
   23.1201   -1.5581  -16.9586 O   0  0  0  0  0  0  0  0  0  0  0  0
   22.3511   -5.5202  -13.3447 O   0  0  0  0  0  0  0  0  0  0  0  0
  2  1  1  6
  2  4  1  0
  3  2  1  0
  4  5  2  0
  7  6  1  0
  8  7  1  1
  9  8  1  0
  9  4  1  0
 10 11  2  0
 10  8  1  0
 12 10  1  0
 13 12  1  0
 13 14  1  6
 14 15  1  0
 15 16  1  0
 16 20  1  0
 17 16  2  0
 18 13  1  0
 19 18  1  0
 21 18  2  0
M  END
$$$$
