ASE.pdb
     RDKit          3D

 21 20  0  0  1  0  0  0  0  0999 V2000
   18.5996  -11.4467  -19.2166 C   0  0  0  0  0  0  0  0  0  0  0  0
   19.5777  -11.2774  -18.0470 C   0  0  2  0  0  0  0  0  0  0  0  0
   19.4793  -12.4608  -17.2416 N   0  0  0  0  0  0  0  0  0  0  0  0
   19.1587  -10.0431  -17.3353 C   0  0  0  0  0  0  0  0  0  0  0  0
   18.2133   -9.3716  -17.8507 O   0  0  0  0  0  0  0  0  0  0  0  0
   19.7455   -9.4390  -13.3230 O   0  0  0  0  0  0  0  0  0  0  0  0
   18.7606   -8.8455  -14.0742 C   0  0  0  0  0  0  0  0  0  0  0  0
   19.3013   -8.4163  -15.4196 C   0  0  2  0  0  0  0  0  0  0  0  0
   19.7311   -9.5734  -16.1397 N   0  0  0  0  0  0  0  0  0  0  0  0
   20.3601   -7.3772  -15.2750 C   0  0  0  0  0  0  0  0  0  0  0  0
   21.5856   -7.6821  -15.4711 O   0  0  0  0  0  0  0  0  0  0  0  0
   20.0952   -6.0339  -14.9233 N   0  0  0  0  0  0  0  0  0  0  0  0
   21.2197   -5.0364  -14.7940 C   0  0  1  0  0  0  0  0  0  0  0  0
   20.6958   -3.7020  -15.1138 C   0  0  0  0  0  0  0  0  0  0  0  0
   21.5425   -2.5017  -14.9456 C   0  0  0  0  0  0  0  0  0  0  0  0
   20.9615   -1.1955  -15.2367 C   0  0  0  0  0  0  0  0  0  0  0  0
   21.4046   -0.4993  -16.1795 O   0  0  0  0  0  0  0  0  0  0  0  0
   21.7196   -5.2352  -13.4150 C   0  0  0  0  0  0  0  0  0  0  0  0
   22.9929   -4.9161  -12.9818 O   0  0  0  0  0  0  0  0  0  0  0  0
   19.9120   -0.7035  -14.4830 O   0  0  0  0  0  0  0  0  0  0  0  0
   20.9582   -5.7418  -12.5191 O   0  0  0  0  0  0  0  0  0  0  0  0
  2  1  1  6
  2  4  1  0
  3  2  1  0
  4  5  2  0
  7  6  1  0
  8  7  1  1
  9  8  1  0
  9  4  1  0
 10 11  2  0
 10  8  1  0
 12 10  1  0
 13 12  1  0
 13 14  1  1
 14 15  1  0
 15 16  1  0
 16 20  1  0
 17 16  2  0
 18 13  1  0
 19 18  1  0
 21 18  2  0
M  END
$$$$
