ASE.pdb
     RDKit          3D

 21 20  0  0  1  0  0  0  0  0999 V2000
   19.6262  -15.4819  -15.2779 C   0  0  0  0  0  0  0  0  0  0  0  0
   18.4576  -14.7620  -15.9630 C   0  0  2  0  0  0  0  0  0  0  0  0
   18.0841  -15.5537  -17.0999 N   0  0  0  0  0  0  0  0  0  0  0  0
   18.9605  -13.4120  -16.3240 C   0  0  0  0  0  0  0  0  0  0  0  0
   20.1881  -13.1755  -16.1065 O   0  0  0  0  0  0  0  0  0  0  0  0
   16.5162  -10.4776  -18.0871 O   0  0  0  0  0  0  0  0  0  0  0  0
   17.8335  -10.6092  -18.4531 C   0  0  0  0  0  0  0  0  0  0  0  0
   18.6631  -11.1070  -17.2910 C   0  0  2  0  0  0  0  0  0  0  0  0
   18.1771  -12.3886  -16.8868 N   0  0  0  0  0  0  0  0  0  0  0  0
   18.7045  -10.1094  -16.1843 C   0  0  0  0  0  0  0  0  0  0  0  0
   17.9407  -10.2491  -15.1692 O   0  0  0  0  0  0  0  0  0  0  0  0
   19.5567   -8.9815  -16.1791 N   0  0  0  0  0  0  0  0  0  0  0  0
   19.5610   -8.0259  -15.0116 C   0  0  1  0  0  0  0  0  0  0  0  0
   20.8597   -7.3405  -14.9774 C   0  0  0  0  0  0  0  0  0  0  0  0
   21.1555   -6.3422  -13.9277 C   0  0  0  0  0  0  0  0  0  0  0  0
   22.4182   -5.6147  -13.9971 C   0  0  0  0  0  0  0  0  0  0  0  0
   23.3709   -6.0600  -14.6781 O   0  0  0  0  0  0  0  0  0  0  0  0
   18.3720   -7.1744  -15.2397 C   0  0  0  0  0  0  0  0  0  0  0  0
   17.5756   -6.6445  -14.2419 O   0  0  0  0  0  0  0  0  0  0  0  0
   22.5864   -4.4221  -13.3181 O   0  0  0  0  0  0  0  0  0  0  0  0
   18.0073   -6.8808  -16.4314 O   0  0  0  0  0  0  0  0  0  0  0  0
  2  1  1  6
  2  4  1  0
  3  2  1  0
  4  5  2  0
  7  6  1  0
  8  7  1  6
  9  8  1  0
  9  4  1  0
 10 11  2  0
 10  8  1  0
 12 10  1  0
 13 12  1  0
 13 14  1  6
 14 15  1  0
 15 16  1  0
 16 20  1  0
 17 16  2  0
 18 13  1  0
 19 18  1  0
 21 18  2  0
M  END
$$$$
