TQE.pdb
     RDKit          3D

 26 25  0  0  1  0  0  0  0  0999 V2000
   15.9756   -9.7317  -18.8173 C   0  0  0  0  0  0  0  0  0  0  0  0
   15.1540  -10.5747  -17.8812 C   0  0  1  0  0  0  0  0  0  0  0  0
   14.2986  -11.3831  -18.6255 O   0  0  0  0  0  0  0  0  0  0  0  0
   16.0413  -11.4389  -16.9786 C   0  0  2  0  0  0  0  0  0  0  0  0
   15.1762  -12.2802  -16.1998 N   0  0  0  0  0  0  0  0  0  0  0  0
   16.8430  -10.5152  -16.1398 C   0  0  0  0  0  0  0  0  0  0  0  0
   16.2176   -9.7647  -15.3468 O   0  0  0  0  0  0  0  0  0  0  0  0
   23.0645  -10.9495  -15.4336 N   0  0  0  0  0  0  0  0  0  0  0  0
   22.7981   -9.6793  -14.8336 C   0  0  0  0  0  0  0  0  0  0  0  0
   23.7573   -9.0350  -14.3472 O   0  0  0  0  0  0  0  0  0  0  0  0
   21.4437   -9.1058  -14.7668 C   0  0  0  0  0  0  0  0  0  0  0  0
   20.4037  -10.0001  -15.3242 C   0  0  0  0  0  0  0  0  0  0  0  0
   19.0200   -9.4264  -15.4344 C   0  0  2  0  0  0  0  0  0  0  0  0
   18.2402  -10.4285  -16.1766 N   0  0  0  0  0  0  0  0  0  0  0  0
   18.9498   -8.1659  -16.1623 C   0  0  0  0  0  0  0  0  0  0  0  0
   19.0243   -8.1410  -17.4108 O   0  0  0  0  0  0  0  0  0  0  0  0
   18.7959   -6.9502  -15.4618 N   0  0  0  0  0  0  0  0  0  0  0  0
   18.7322   -5.6568  -16.0989 C   0  0  1  0  0  0  0  0  0  0  0  0
   17.5737   -4.8960  -15.4452 C   0  0  0  0  0  0  0  0  0  0  0  0
   17.4635   -3.5592  -16.1207 C   0  0  0  0  0  0  0  0  0  0  0  0
   16.3406   -2.8130  -15.5286 C   0  0  0  0  0  0  0  0  0  0  0  0
   15.9491   -3.0583  -14.3701 O   0  0  0  0  0  0  0  0  0  0  0  0
   19.9557   -4.8643  -15.8263 C   0  0  0  0  0  0  0  0  0  0  0  0
   20.1152   -3.7665  -16.4174 O   0  0  0  0  0  0  0  0  0  0  0  0
   15.7187   -1.8218  -16.2895 O   0  0  0  0  0  0  0  0  0  0  0  0
   20.9402   -5.2718  -14.9484 O   0  0  0  0  0  0  0  0  0  0  0  0
  2  1  1  6
  3  2  1  0
  4  6  1  0
  4  2  1  0
  4  5  1  1
  6  7  2  0
  8  9  1  0
  9 10  2  0
  9 11  1  0
 11 12  1  0
 13 12  1  6
 14 13  1  0
 14  6  1  0
 15 17  1  0
 15 13  1  0
 16 15  2  0
 18 19  1  1
 18 17  1  0
 19 20  1  0
 20 21  1  0
 21 22  2  0
 23 18  1  0
 23 26  1  0
 24 23  2  0
 25 21  1  0
M  END
$$$$
