TQE.pdb
     RDKit          3D

 26 25  0  0  1  0  0  0  0  0999 V2000
   13.1985  -10.1965  -12.8066 C   0  0  0  0  0  0  0  0  0  0  0  0
   13.3794  -11.4283  -11.9629 C   0  0  1  0  0  0  0  0  0  0  0  0
   12.5627  -12.4433  -12.4546 O   0  0  0  0  0  0  0  0  0  0  0  0
   14.8408  -11.8896  -11.9489 C   0  0  2  0  0  0  0  0  0  0  0  0
   14.9015  -13.1103  -11.1946 N   0  0  0  0  0  0  0  0  0  0  0  0
   15.6374  -10.8003  -11.3339 C   0  0  0  0  0  0  0  0  0  0  0  0
   15.3846  -10.5042  -10.1374 O   0  0  0  0  0  0  0  0  0  0  0  0
   21.0773   -8.7072  -13.6528 N   0  0  0  0  0  0  0  0  0  0  0  0
   20.7974   -7.7268  -12.6503 C   0  0  0  0  0  0  0  0  0  0  0  0
   21.6545   -6.8398  -12.4259 O   0  0  0  0  0  0  0  0  0  0  0  0
   19.5450   -7.7238  -11.8763 C   0  0  0  0  0  0  0  0  0  0  0  0
   18.6514   -8.8564  -12.2089 C   0  0  0  0  0  0  0  0  0  0  0  0
   17.3928   -8.9735  -11.3977 C   0  0  2  0  0  0  0  0  0  0  0  0
   16.6441  -10.0883  -11.9976 N   0  0  0  0  0  0  0  0  0  0  0  0
   16.5460   -7.7879  -11.4304 C   0  0  0  0  0  0  0  0  0  0  0  0
   15.8753   -7.5064  -12.4482 O   0  0  0  0  0  0  0  0  0  0  0  0
   16.4726   -6.9378  -10.3061 N   0  0  0  0  0  0  0  0  0  0  0  0
   15.6666   -5.7418  -10.2528 C   0  0  1  0  0  0  0  0  0  0  0  0
   14.9671   -5.7376   -8.8894 C   0  0  0  0  0  0  0  0  0  0  0  0
   14.0746   -4.5310   -8.8352 C   0  0  0  0  0  0  0  0  0  0  0  0
   13.3658   -4.5155   -7.5446 C   0  0  0  0  0  0  0  0  0  0  0  0
   13.5487   -5.4175   -6.7029 O   0  0  0  0  0  0  0  0  0  0  0  0
   16.5120   -4.5239  -10.2894 C   0  0  0  0  0  0  0  0  0  0  0  0
   17.6834   -4.5810   -9.8369 O   0  0  0  0  0  0  0  0  0  0  0  0
   12.4814   -3.4690   -7.2778 O   0  0  0  0  0  0  0  0  0  0  0  0
   16.0772   -3.3169  -10.7995 O   0  0  0  0  0  0  0  0  0  0  0  0
  2  1  1  6
  3  2  1  0
  4  6  1  0
  4  2  1  0
  4  5  1  1
  6  7  2  0
  8  9  1  0
  9 10  2  0
  9 11  1  0
 11 12  1  0
 13 12  1  6
 14 13  1  0
 14  6  1  0
 15 17  1  0
 15 13  1  0
 16 15  2  0
 18 19  1  1
 18 17  1  0
 19 20  1  0
 20 21  1  0
 21 22  2  0
 23 18  1  0
 23 26  1  0
 24 23  2  0
 25 21  1  0
M  END
$$$$
