TQE.pdb
     RDKit          3D

 26 25  0  0  1  0  0  0  0  0999 V2000
   25.3956  -12.0095  -16.4681 C   0  0  0  0  0  0  0  0  0  0  0  0
   24.9211  -12.9513  -17.5404 C   0  0  1  0  0  0  0  0  0  0  0  0
   25.6558  -14.1321  -17.4696 O   0  0  0  0  0  0  0  0  0  0  0  0
   23.4252  -13.2536  -17.4004 C   0  0  2  0  0  0  0  0  0  0  0  0
   23.0799  -14.2072  -18.4173 N   0  0  0  0  0  0  0  0  0  0  0  0
   22.7027  -11.9678  -17.5571 C   0  0  0  0  0  0  0  0  0  0  0  0
   22.6461  -11.4739  -18.7129 O   0  0  0  0  0  0  0  0  0  0  0  0
   17.1712  -10.7803  -15.9039 N   0  0  0  0  0  0  0  0  0  0  0  0
   18.1078  -10.8638  -14.8268 C   0  0  0  0  0  0  0  0  0  0  0  0
   17.6749  -11.1076  -13.6758 O   0  0  0  0  0  0  0  0  0  0  0  0
   19.5547  -10.6734  -15.0217 C   0  0  0  0  0  0  0  0  0  0  0  0
   19.9161  -10.3412  -16.4185 C   0  0  0  0  0  0  0  0  0  0  0  0
   21.3586  -10.0095  -16.6734 C   0  0  2  0  0  0  0  0  0  0  0  0
   22.0857  -11.2771  -16.5067 N   0  0  0  0  0  0  0  0  0  0  0  0
   21.9230   -9.0369  -15.7464 C   0  0  0  0  0  0  0  0  0  0  0  0
   22.4803   -9.4065  -14.6892 O   0  0  0  0  0  0  0  0  0  0  0  0
   21.8465   -7.6569  -16.0330 N   0  0  0  0  0  0  0  0  0  0  0  0
   22.3098   -6.6225  -15.1396 C   0  0  1  0  0  0  0  0  0  0  0  0
   21.9417   -5.2816  -15.7834 C   0  0  0  0  0  0  0  0  0  0  0  0
   22.5272   -4.1892  -14.9352 C   0  0  0  0  0  0  0  0  0  0  0  0
   21.5171   -3.1347  -14.7455 C   0  0  0  0  0  0  0  0  0  0  0  0
   20.4739   -3.1173  -15.4287 O   0  0  0  0  0  0  0  0  0  0  0  0
   21.5906   -6.6723  -13.8436 C   0  0  0  0  0  0  0  0  0  0  0  0
   22.2196   -6.4111  -12.7870 O   0  0  0  0  0  0  0  0  0  0  0  0
   21.7482   -2.1501  -13.7834 O   0  0  0  0  0  0  0  0  0  0  0  0
   20.2525   -6.9936  -13.7335 O   0  0  0  0  0  0  0  0  0  0  0  0
  2  1  1  1
  3  2  1  0
  4  6  1  0
  4  2  1  0
  4  5  1  6
  6  7  2  0
  8  9  1  0
  9 10  2  0
  9 11  1  0
 11 12  1  0
 13 12  1  1
 14 13  1  0
 14  6  1  0
 15 17  1  0
 15 13  1  0
 16 15  2  0
 18 19  1  6
 18 17  1  0
 19 20  1  0
 20 21  1  0
 21 22  2  0
 23 18  1  0
 23 26  1  0
 24 23  2  0
 25 21  1  0
M  END
$$$$
