TQE.pdb
     RDKit          3D

 26 25  0  0  1  0  0  0  0  0999 V2000
   20.4570  -13.2647    6.2085 C   0  0  0  0  0  0  0  0  0  0  0  0
   19.2736  -12.3527    6.0360 C   0  0  1  0  0  0  0  0  0  0  0  0
   19.7237  -11.0778    5.7026 O   0  0  0  0  0  0  0  0  0  0  0  0
   18.3174  -12.8717    4.9566 C   0  0  2  0  0  0  0  0  0  0  0  0
   17.2626  -11.9075    4.8137 N   0  0  0  0  0  0  0  0  0  0  0  0
   17.8222  -14.1941    5.4102 C   0  0  0  0  0  0  0  0  0  0  0  0
   17.4106  -14.2813    6.5960 O   0  0  0  0  0  0  0  0  0  0  0  0
   17.2399  -19.1481    1.5386 N   0  0  0  0  0  0  0  0  0  0  0  0
   16.7584  -19.6780    2.7763 C   0  0  0  0  0  0  0  0  0  0  0  0
   16.3495  -20.8629    2.8004 O   0  0  0  0  0  0  0  0  0  0  0  0
   16.7256  -18.8842    4.0158 C   0  0  0  0  0  0  0  0  0  0  0  0
   17.1692  -17.4848    3.8239 C   0  0  0  0  0  0  0  0  0  0  0  0
   17.2952  -16.6488    5.0653 C   0  0  2  0  0  0  0  0  0  0  0  0
   17.7854  -15.3402    4.6065 N   0  0  0  0  0  0  0  0  0  0  0  0
   18.2396  -17.1695    6.0455 C   0  0  0  0  0  0  0  0  0  0  0  0
   19.4670  -16.9577    5.9292 O   0  0  0  0  0  0  0  0  0  0  0  0
   17.7768  -17.9241    7.1449 N   0  0  0  0  0  0  0  0  0  0  0  0
   18.6421  -18.5095    8.1406 C   0  0  1  0  0  0  0  0  0  0  0  0
   18.6907  -17.5301    9.3181 C   0  0  0  0  0  0  0  0  0  0  0  0
   19.6150  -18.1033   10.3538 C   0  0  0  0  0  0  0  0  0  0  0  0
   19.8467  -17.0949   11.4016 C   0  0  0  0  0  0  0  0  0  0  0  0
   18.9423  -16.3067   11.7426 O   0  0  0  0  0  0  0  0  0  0  0  0
   18.0707  -19.7704    8.6725 C   0  0  0  0  0  0  0  0  0  0  0  0
   16.9194  -20.1194    8.3081 O   0  0  0  0  0  0  0  0  0  0  0  0
   21.1019  -17.0358   12.0094 O   0  0  0  0  0  0  0  0  0  0  0  0
   18.7425  -20.5909    9.5565 O   0  0  0  0  0  0  0  0  0  0  0  0
  2  1  1  6
  3  2  1  0
  4  6  1  0
  4  2  1  0
  4  5  1  1
  6  7  2  0
  8  9  1  0
  9 10  2  0
  9 11  1  0
 11 12  1  0
 13 12  1  6
 14 13  1  0
 14  6  1  0
 15 17  1  0
 15 13  1  0
 16 15  2  0
 18 19  1  1
 18 17  1  0
 19 20  1  0
 20 21  1  0
 21 22  2  0
 23 18  1  0
 23 26  1  0
 24 23  2  0
 25 21  1  0
M  END
$$$$
