TQE.pdb
     RDKit          3D

 26 25  0  0  1  0  0  0  0  0999 V2000
   19.3041  -14.6256  -15.5397 C   0  0  0  0  0  0  0  0  0  0  0  0
   18.1885  -13.9217  -16.2621 C   0  0  1  0  0  0  0  0  0  0  0  0
   16.9691  -14.4481  -15.8435 O   0  0  0  0  0  0  0  0  0  0  0  0
   18.2226  -12.4102  -16.0111 C   0  0  2  0  0  0  0  0  0  0  0  0
   17.0419  -11.8469  -16.6039 N   0  0  0  0  0  0  0  0  0  0  0  0
   19.4698  -11.8931  -16.6249 C   0  0  0  0  0  0  0  0  0  0  0  0
   20.5603  -12.2724  -16.1249 O   0  0  0  0  0  0  0  0  0  0  0  0
   20.8162  -11.2623  -22.4625 N   0  0  0  0  0  0  0  0  0  0  0  0
   21.7962  -10.3783  -21.9124 C   0  0  0  0  0  0  0  0  0  0  0  0
   22.6640   -9.8969  -22.6784 O   0  0  0  0  0  0  0  0  0  0  0  0
   21.8216  -10.0170  -20.4854 C   0  0  0  0  0  0  0  0  0  0  0  0
   20.7238  -10.6353  -19.7078 C   0  0  0  0  0  0  0  0  0  0  0  0
   20.7368  -10.3916  -18.2257 C   0  0  2  0  0  0  0  0  0  0  0  0
   19.5068  -11.0169  -17.7167 N   0  0  0  0  0  0  0  0  0  0  0  0
   20.7200   -8.9838  -17.8495 C   0  0  0  0  0  0  0  0  0  0  0  0
   19.6717   -8.3075  -17.9418 O   0  0  0  0  0  0  0  0  0  0  0  0
   21.8949   -8.3630  -17.3735 N   0  0  0  0  0  0  0  0  0  0  0  0
   21.9825   -6.9647  -17.0272 C   0  0  1  0  0  0  0  0  0  0  0  0
   22.2545   -6.8961  -15.5208 C   0  0  0  0  0  0  0  0  0  0  0  0
   22.3373   -5.4470  -15.1349 C   0  0  0  0  0  0  0  0  0  0  0  0
   22.4600   -5.3461  -13.6710 C   0  0  0  0  0  0  0  0  0  0  0  0
   22.4797   -6.3694  -12.9582 O   0  0  0  0  0  0  0  0  0  0  0  0
   23.1432   -6.3206  -17.6885 C   0  0  0  0  0  0  0  0  0  0  0  0
   23.2962   -5.0780  -17.5769 O   0  0  0  0  0  0  0  0  0  0  0  0
   22.5543   -4.0797  -13.0917 O   0  0  0  0  0  0  0  0  0  0  0  0
   24.0755   -7.0201  -18.4285 O   0  0  0  0  0  0  0  0  0  0  0  0
  2  1  1  1
  3  2  1  0
  4  6  1  0
  4  2  1  0
  4  5  1  6
  6  7  2  0
  8  9  1  0
  9 10  2  0
  9 11  1  0
 11 12  1  0
 13 12  1  6
 14 13  1  0
 14  6  1  0
 15 17  1  0
 15 13  1  0
 16 15  2  0
 18 19  1  1
 18 17  1  0
 19 20  1  0
 20 21  1  0
 21 22  2  0
 23 18  1  0
 23 26  1  0
 24 23  2  0
 25 21  1  0
M  END
$$$$
