TQE.pdb
     RDKit          3D

 26 25  0  0  1  0  0  0  0  0999 V2000
   25.1954  -35.5291   -1.9452 C   0  0  0  0  0  0  0  0  0  0  0  0
   25.6998  -34.5675   -2.9857 C   0  0  1  0  0  0  0  0  0  0  0  0
   25.7091  -35.1998   -4.2264 O   0  0  0  0  0  0  0  0  0  0  0  0
   24.8367  -33.3026   -3.0467 C   0  0  2  0  0  0  0  0  0  0  0  0
   25.2904  -32.5231   -4.1645 N   0  0  0  0  0  0  0  0  0  0  0  0
   25.0051  -32.5955   -1.7539 C   0  0  0  0  0  0  0  0  0  0  0  0
   26.0976  -32.0032   -1.5573 O   0  0  0  0  0  0  0  0  0  0  0  0
   20.9188  -29.0684    3.2934 N   0  0  0  0  0  0  0  0  0  0  0  0
   21.3128  -29.7908    2.1240 C   0  0  0  0  0  0  0  0  0  0  0  0
   20.4714  -29.9505    1.2084 O   0  0  0  0  0  0  0  0  0  0  0  0
   22.6643  -30.3512    1.9597 C   0  0  0  0  0  0  0  0  0  0  0  0
   22.8187  -31.1474    0.7211 C   0  0  0  0  0  0  0  0  0  0  0  0
   24.1677  -31.7657    0.4894 C   0  0  2  0  0  0  0  0  0  0  0  0
   24.0312  -32.5476   -0.7488 N   0  0  0  0  0  0  0  0  0  0  0  0
   24.6047  -32.6657    1.5491 C   0  0  0  0  0  0  0  0  0  0  0  0
   24.0857  -33.7957    1.6857 O   0  0  0  0  0  0  0  0  0  0  0  0
   25.6256  -32.2697    2.4397 N   0  0  0  0  0  0  0  0  0  0  0  0
   26.0922  -33.0787    3.5400 C   0  0  1  0  0  0  0  0  0  0  0  0
   27.5223  -32.6241    3.8506 C   0  0  0  0  0  0  0  0  0  0  0  0
   28.4628  -33.5243    3.1018 C   0  0  0  0  0  0  0  0  0  0  0  0
   29.8465  -33.2020    3.4890 C   0  0  0  0  0  0  0  0  0  0  0  0
   30.0822  -32.3783    4.3954 O   0  0  0  0  0  0  0  0  0  0  0  0
   25.2995  -32.8230    4.7670 C   0  0  0  0  0  0  0  0  0  0  0  0
   24.8224  -31.6756    4.9565 O   0  0  0  0  0  0  0  0  0  0  0  0
   30.8948  -33.8369    2.8211 O   0  0  0  0  0  0  0  0  0  0  0  0
   25.0544  -33.7881    5.7233 O   0  0  0  0  0  0  0  0  0  0  0  0
  2  1  1  1
  3  2  1  0
  4  6  1  0
  4  2  1  0
  4  5  1  6
  6  7  2  0
  8  9  1  0
  9 10  2  0
  9 11  1  0
 11 12  1  0
 13 12  1  1
 14 13  1  0
 14  6  1  0
 15 17  1  0
 15 13  1  0
 16 15  2  0
 18 19  1  1
 18 17  1  0
 19 20  1  0
 20 21  1  0
 21 22  2  0
 23 18  1  0
 23 26  1  0
 24 23  2  0
 25 21  1  0
M  END
$$$$
