MMY.pdb
     RDKit          3D

 29 29  0  0  1  0  0  0  0  0999 V2000
    9.0715  -11.4074   20.7594 C   0  0  0  0  0  0  0  0  0  0  0  0
    8.2082  -11.7536   19.2207 S   0  0  0  0  0  0  0  0  0  0  0  0
    8.3748  -13.5024   18.7333 C   0  0  0  0  0  0  0  0  0  0  0  0
    7.7630  -14.3438   19.8232 C   0  0  0  0  0  0  0  0  0  0  0  0
    8.3384  -15.7421   19.7497 C   0  0  2  0  0  0  0  0  0  0  0  0
    7.7521  -16.4212   18.6235 N   0  0  0  0  0  0  0  0  0  0  0  0
    7.9596  -16.5233   20.9871 C   0  0  0  0  0  0  0  0  0  0  0  0
    6.7569  -16.7057   21.2543 O   0  0  0  0  0  0  0  0  0  0  0  0
   10.5464  -21.8473   21.8575 C   0  0  0  0  0  0  0  0  0  0  0  0
    8.7525  -21.6959   21.6733 S   0  0  0  0  0  0  0  0  0  0  0  0
    8.3096  -19.9237   21.7772 C   0  0  0  0  0  0  0  0  0  0  0  0
    9.1051  -19.2550   22.8849 C   0  0  0  0  0  0  0  0  0  0  0  0
    8.7740  -17.8142   23.0145 C   0  0  2  0  0  0  0  0  0  0  0  0
    8.9660  -17.0442   21.8381 N   0  0  0  0  0  0  0  0  0  0  0  0
    9.4065  -17.2301   24.2453 C   0  0  0  0  0  0  0  0  0  0  0  0
   10.5293  -16.6796   24.1768 O   0  0  0  0  0  0  0  0  0  0  0  0
    5.8784  -11.7397   24.8674 O   0  0  0  0  0  0  0  0  0  0  0  0
    6.5388  -12.7738   25.5327 C   0  0  0  0  0  0  0  0  0  0  0  0
    7.9069  -12.6718   25.7590 C   0  0  0  0  0  0  0  0  0  0  0  0
    8.5352  -13.7143   26.4222 C   0  0  0  0  0  0  0  0  0  0  0  0
    7.8540  -14.8278   26.8551 C   0  0  0  0  0  0  0  0  0  0  0  0
    8.5463  -15.9034   27.5321 C   0  0  0  0  0  0  0  0  0  0  0  0
    9.4589  -16.7248   26.6940 C   0  0  2  0  0  0  0  0  0  0  0  0
    8.7869  -17.2656   25.5213 N   0  0  0  0  0  0  0  0  0  0  0  0
   10.1533  -17.7735   27.4598 C   0  0  0  0  0  0  0  0  0  0  0  0
   11.0360  -17.4454   28.4577 O   0  0  0  0  0  0  0  0  0  0  0  0
    6.5021  -14.8960   26.6147 C   0  0  0  0  0  0  0  0  0  0  0  0
    5.8259  -13.8743   25.9524 C   0  0  0  0  0  0  0  0  0  0  0  0
    9.9444  -18.9854   27.2050 O   0  0  0  0  0  0  0  0  0  0  0  0
  2  1  1  0
  3  2  1  0
  4  5  1  0
  4  3  1  0
  5  6  1  6
  7  8  2  0
  7  5  1  0
  9 10  1  0
 10 11  1  0
 11 12  1  0
 13 12  1  6
 13 14  1  0
 14  7  1  0
 15 16  2  0
 15 13  1  0
 18 17  1  0
 19 18  2  0
 20 19  1  0
 21 20  2  0
 21 27  1  0
 22 21  1  0
 23 22  1  1
 23 24  1  0
 24 15  1  0
 25 23  1  0
 26 25  1  0
 27 28  2  0
 28 18  1  0
 29 25  2  0
M  END
$$$$
