MMY.pdb
     RDKit          3D

 29 29  0  0  1  0  0  0  0  0999 V2000
    9.0129  -17.7326   15.8914 C   0  0  0  0  0  0  0  0  0  0  0  0
    9.7587  -19.3071   16.3360 S   0  0  0  0  0  0  0  0  0  0  0  0
    9.7193  -19.5867   18.1370 C   0  0  0  0  0  0  0  0  0  0  0  0
   10.1146  -18.2986   18.8110 C   0  0  0  0  0  0  0  0  0  0  0  0
   10.1082  -18.5036   20.3110 C   0  0  2  0  0  0  0  0  0  0  0  0
    8.7850  -18.9032   20.7141 N   0  0  0  0  0  0  0  0  0  0  0  0
   10.4127  -17.1998   21.0128 C   0  0  0  0  0  0  0  0  0  0  0  0
   11.5853  -16.7821   21.0514 O   0  0  0  0  0  0  0  0  0  0  0  0
    7.3920  -11.4134   20.3335 C   0  0  0  0  0  0  0  0  0  0  0  0
    6.6664  -13.0708   20.2952 S   0  0  0  0  0  0  0  0  0  0  0  0
    7.9988  -14.2906   20.5862 C   0  0  0  0  0  0  0  0  0  0  0  0
    8.4572  -14.2218   22.0326 C   0  0  0  0  0  0  0  0  0  0  0  0
    9.4973  -15.2363   22.3345 C   0  0  2  0  0  0  0  0  0  0  0  0
    9.3710  -16.4579   21.6233 N   0  0  0  0  0  0  0  0  0  0  0  0
    9.6685  -15.3998   23.8177 C   0  0  0  0  0  0  0  0  0  0  0  0
   10.0754  -14.4423   24.5150 O   0  0  0  0  0  0  0  0  0  0  0  0
    6.4961  -11.2025   26.5952 O   0  0  0  0  0  0  0  0  0  0  0  0
    6.9686  -12.5153   26.6309 C   0  0  0  0  0  0  0  0  0  0  0  0
    8.1946  -12.7803   27.2312 C   0  0  0  0  0  0  0  0  0  0  0  0
    8.6377  -14.0935   27.2515 C   0  0  0  0  0  0  0  0  0  0  0  0
    7.9104  -15.1240   26.7034 C   0  0  0  0  0  0  0  0  0  0  0  0
    8.4118  -16.4814   26.7308 C   0  0  0  0  0  0  0  0  0  0  0  0
    9.6335  -16.7448   25.9258 C   0  0  2  0  0  0  0  0  0  0  0  0
    9.3867  -16.6131   24.4972 N   0  0  0  0  0  0  0  0  0  0  0  0
   10.2719  -18.0301   26.2553 C   0  0  0  0  0  0  0  0  0  0  0  0
   10.6007  -18.3383   27.5513 O   0  0  0  0  0  0  0  0  0  0  0  0
    6.7027  -14.8265   26.1177 C   0  0  0  0  0  0  0  0  0  0  0  0
    6.2148  -13.5229   26.0724 C   0  0  0  0  0  0  0  0  0  0  0  0
   10.5244  -18.8613   25.3484 O   0  0  0  0  0  0  0  0  0  0  0  0
  2  1  1  0
  3  2  1  0
  4  5  1  0
  4  3  1  0
  5  6  1  1
  7  8  2  0
  7  5  1  0
  9 10  1  0
 10 11  1  0
 11 12  1  0
 13 12  1  1
 13 14  1  0
 14  7  1  0
 15 16  2  0
 15 13  1  0
 18 17  1  0
 19 18  2  0
 20 19  1  0
 21 20  2  0
 21 27  1  0
 22 21  1  0
 23 22  1  1
 23 24  1  0
 24 15  1  0
 25 23  1  0
 26 25  1  0
 27 28  2  0
 28 18  1  0
 29 25  2  0
M  END
$$$$
