MMY.pdb
     RDKit          3D

 29 29  0  0  1  0  0  0  0  0999 V2000
    7.3504  -11.7010   18.5175 C   0  0  0  0  0  0  0  0  0  0  0  0
    7.6058  -12.9317   17.2317 S   0  0  0  0  0  0  0  0  0  0  0  0
    7.1897  -14.6090   17.8123 C   0  0  0  0  0  0  0  0  0  0  0  0
    6.9707  -14.5391   19.3013 C   0  0  0  0  0  0  0  0  0  0  0  0
    7.9939  -15.4146   19.9928 C   0  0  2  0  0  0  0  0  0  0  0  0
    7.4175  -16.7175   20.2014 N   0  0  0  0  0  0  0  0  0  0  0  0
    8.3217  -14.8495   21.3560 C   0  0  0  0  0  0  0  0  0  0  0  0
    8.8301  -13.7160   21.4452 O   0  0  0  0  0  0  0  0  0  0  0  0
    7.3405  -12.5056   27.0209 C   0  0  0  0  0  0  0  0  0  0  0  0
    6.2285  -13.6805   26.2096 S   0  0  0  0  0  0  0  0  0  0  0  0
    7.0085  -14.2287   24.6479 C   0  0  0  0  0  0  0  0  0  0  0  0
    8.1180  -15.2228   24.9441 C   0  0  0  0  0  0  0  0  0  0  0  0
    8.8296  -15.6443   23.7120 C   0  0  2  0  0  0  0  0  0  0  0  0
    8.0530  -15.6044   22.5249 N   0  0  0  0  0  0  0  0  0  0  0  0
    9.5555  -16.9407   23.9322 C   0  0  0  0  0  0  0  0  0  0  0  0
    8.9679  -18.0315   23.7495 O   0  0  0  0  0  0  0  0  0  0  0  0
   11.3564  -15.0637   31.9108 O   0  0  0  0  0  0  0  0  0  0  0  0
   11.1965  -15.2102   30.5320 C   0  0  0  0  0  0  0  0  0  0  0  0
   11.1992  -14.0788   29.7235 C   0  0  0  0  0  0  0  0  0  0  0  0
   11.0385  -14.2557   28.3582 C   0  0  0  0  0  0  0  0  0  0  0  0
   10.8791  -15.4984   27.7909 C   0  0  0  0  0  0  0  0  0  0  0  0
   10.6998  -15.6433   26.3621 C   0  0  0  0  0  0  0  0  0  0  0  0
   11.2696  -16.8734   25.7520 C   0  0  2  0  0  0  0  0  0  0  0  0
   10.9108  -17.0044   24.3472 N   0  0  0  0  0  0  0  0  0  0  0  0
   10.9520  -18.0924   26.5145 C   0  0  0  0  0  0  0  0  0  0  0  0
   11.9437  -18.8116   27.1325 O   0  0  0  0  0  0  0  0  0  0  0  0
   10.8812  -16.5954   28.6196 C   0  0  0  0  0  0  0  0  0  0  0  0
   11.0393  -16.4692   29.9975 C   0  0  0  0  0  0  0  0  0  0  0  0
    9.7640  -18.4890   26.6063 O   0  0  0  0  0  0  0  0  0  0  0  0
  2  1  1  0
  3  2  1  0
  4  5  1  0
  4  3  1  0
  5  6  1  1
  7  8  2  0
  7  5  1  0
  9 10  1  0
 10 11  1  0
 11 12  1  0
 13 12  1  1
 13 14  1  0
 14  7  1  0
 15 16  2  0
 15 13  1  0
 18 17  1  0
 19 18  2  0
 20 19  1  0
 21 20  2  0
 21 27  1  0
 22 21  1  0
 23 22  1  1
 23 24  1  0
 24 15  1  0
 25 23  1  0
 26 25  1  0
 27 28  2  0
 28 18  1  0
 29 25  2  0
M  END
$$$$
