MMY.pdb
     RDKit          3D

 29 29  0  0  1  0  0  0  0  0999 V2000
    7.3226  -11.7948   18.7686 C   0  0  0  0  0  0  0  0  0  0  0  0
    6.1677  -13.1013   18.3305 S   0  0  0  0  0  0  0  0  0  0  0  0
    6.4965  -14.6323   19.2640 C   0  0  0  0  0  0  0  0  0  0  0  0
    7.9905  -14.7861   19.3836 C   0  0  0  0  0  0  0  0  0  0  0  0
    8.2953  -15.9542   20.2971 C   0  0  2  0  0  0  0  0  0  0  0  0
    7.0562  -16.4499   20.8377 N   0  0  0  0  0  0  0  0  0  0  0  0
    9.1371  -15.4921   21.4646 C   0  0  0  0  0  0  0  0  0  0  0  0
   10.3623  -15.3286   21.3120 O   0  0  0  0  0  0  0  0  0  0  0  0
    6.1387  -12.8075   26.7597 C   0  0  0  0  0  0  0  0  0  0  0  0
    7.0747  -11.7986   25.5846 S   0  0  0  0  0  0  0  0  0  0  0  0
    7.7271  -12.8959   24.2739 C   0  0  0  0  0  0  0  0  0  0  0  0
    8.3581  -14.1289   24.8972 C   0  0  0  0  0  0  0  0  0  0  0  0
    9.1949  -14.8760   23.9257 C   0  0  2  0  0  0  0  0  0  0  0  0
    8.5365  -15.2472   22.7246 N   0  0  0  0  0  0  0  0  0  0  0  0
    9.9239  -16.0008   24.6036 C   0  0  0  0  0  0  0  0  0  0  0  0
    9.3182  -17.0554   24.9027 O   0  0  0  0  0  0  0  0  0  0  0  0
    9.6051  -14.0329   30.7548 O   0  0  0  0  0  0  0  0  0  0  0  0
    9.9803  -14.9207   29.7453 C   0  0  0  0  0  0  0  0  0  0  0  0
    9.9720  -16.2869   30.0040 C   0  0  0  0  0  0  0  0  0  0  0  0
   10.3493  -17.1439   28.9820 C   0  0  0  0  0  0  0  0  0  0  0  0
   10.7253  -16.6877   27.7403 C   0  0  0  0  0  0  0  0  0  0  0  0
   11.1268  -17.6120   26.7015 C   0  0  0  0  0  0  0  0  0  0  0  0
   11.9610  -17.0468   25.6086 C   0  0  2  0  0  0  0  0  0  0  0  0
   11.3021  -15.9373   24.9347 N   0  0  0  0  0  0  0  0  0  0  0  0
   12.4268  -18.0680   24.6554 C   0  0  0  0  0  0  0  0  0  0  0  0
   12.2037  -17.9248   23.3091 O   0  0  0  0  0  0  0  0  0  0  0  0
   10.7223  -15.3309   27.5189 C   0  0  0  0  0  0  0  0  0  0  0  0
   10.3512  -14.4296   28.5137 C   0  0  0  0  0  0  0  0  0  0  0  0
   13.0352  -19.0864   25.0673 O   0  0  0  0  0  0  0  0  0  0  0  0
  2  1  1  0
  3  2  1  0
  4  5  1  0
  4  3  1  0
  5  6  1  1
  7  8  2  0
  7  5  1  0
  9 10  1  0
 10 11  1  0
 11 12  1  0
 13 12  1  1
 13 14  1  0
 14  7  1  0
 15 16  2  0
 15 13  1  0
 18 17  1  0
 19 18  2  0
 20 19  1  0
 21 20  2  0
 21 27  1  0
 22 21  1  0
 23 22  1  1
 23 24  1  0
 24 15  1  0
 25 23  1  0
 26 25  1  0
 27 28  2  0
 28 18  1  0
 29 25  2  0
M  END
$$$$
