MMY.pdb
     RDKit          3D

 29 29  0  0  1  0  0  0  0  0999 V2000
    8.0732  -20.6873   22.1925 C   0  0  0  0  0  0  0  0  0  0  0  0
    9.5439  -20.4181   21.1937 S   0  0  0  0  0  0  0  0  0  0  0  0
    9.9000  -18.6425   20.9837 C   0  0  0  0  0  0  0  0  0  0  0  0
    8.5883  -17.9025   21.0246 C   0  0  0  0  0  0  0  0  0  0  0  0
    8.8449  -16.4289   20.7909 C   0  0  2  0  0  0  0  0  0  0  0  0
    9.9757  -16.2938   19.9099 N   0  0  0  0  0  0  0  0  0  0  0  0
    9.2122  -15.7548   22.0931 C   0  0  0  0  0  0  0  0  0  0  0  0
   10.4119  -15.6308   22.4038 O   0  0  0  0  0  0  0  0  0  0  0  0
    6.4424  -11.5961   28.2630 C   0  0  0  0  0  0  0  0  0  0  0  0
    6.0144  -12.4393   26.7200 S   0  0  0  0  0  0  0  0  0  0  0  0
    7.4860  -13.3567   26.1367 C   0  0  0  0  0  0  0  0  0  0  0  0
    7.1802  -14.0400   24.8151 C   0  0  0  0  0  0  0  0  0  0  0  0
    8.3721  -14.7234   24.2543 C   0  0  2  0  0  0  0  0  0  0  0  0
    8.1984  -15.2675   22.9552 N   0  0  0  0  0  0  0  0  0  0  0  0
    8.9565  -15.6817   25.2524 C   0  0  0  0  0  0  0  0  0  0  0  0
    8.4027  -16.7843   25.4672 O   0  0  0  0  0  0  0  0  0  0  0  0
   13.1064  -18.5221   21.4231 O   0  0  0  0  0  0  0  0  0  0  0  0
   12.8561  -18.0732   22.7207 C   0  0  0  0  0  0  0  0  0  0  0  0
   12.4177  -18.9789   23.6804 C   0  0  0  0  0  0  0  0  0  0  0  0
   12.1776  -18.5039   24.9603 C   0  0  0  0  0  0  0  0  0  0  0  0
   12.3580  -17.1838   25.3011 C   0  0  0  0  0  0  0  0  0  0  0  0
   12.0835  -16.7211   26.6447 C   0  0  0  0  0  0  0  0  0  0  0  0
   10.6700  -16.3679   26.9398 C   0  0  2  0  0  0  0  0  0  0  0  0
   10.1367  -15.4031   25.9890 N   0  0  0  0  0  0  0  0  0  0  0  0
   10.4652  -15.9353   28.3324 C   0  0  0  0  0  0  0  0  0  0  0  0
    9.8646  -14.7339   28.6127 O   0  0  0  0  0  0  0  0  0  0  0  0
   12.7922  -16.3155   24.3276 C   0  0  0  0  0  0  0  0  0  0  0  0
   13.0471  -16.7447   23.0275 C   0  0  0  0  0  0  0  0  0  0  0  0
   10.8412  -16.6650   29.2827 O   0  0  0  0  0  0  0  0  0  0  0  0
  2  1  1  0
  3  2  1  0
  4  5  1  0
  4  3  1  0
  5  6  1  6
  7  8  2  0
  7  5  1  0
  9 10  1  0
 10 11  1  0
 11 12  1  0
 13 12  1  1
 13 14  1  0
 14  7  1  0
 15 16  2  0
 15 13  1  0
 18 17  1  0
 19 18  2  0
 20 19  1  0
 21 20  2  0
 21 27  1  0
 22 21  1  0
 23 22  1  6
 23 24  1  0
 24 15  1  0
 25 23  1  0
 26 25  1  0
 27 28  2  0
 28 18  1  0
 29 25  2  0
M  END
$$$$
