MMY.pdb
     RDKit          3D

 29 29  0  0  1  0  0  0  0  0999 V2000
    7.7188  -11.4373   19.5915 C   0  0  0  0  0  0  0  0  0  0  0  0
    7.3833  -12.7502   18.4098 S   0  0  0  0  0  0  0  0  0  0  0  0
    7.7832  -14.3916   19.0947 C   0  0  0  0  0  0  0  0  0  0  0  0
    8.4892  -14.1820   20.4090 C   0  0  0  0  0  0  0  0  0  0  0  0
    8.7661  -15.5292   21.0416 C   0  0  2  0  0  0  0  0  0  0  0  0
    7.5457  -16.2931   21.0477 N   0  0  0  0  0  0  0  0  0  0  0  0
    9.1851  -15.3479   22.4827 C   0  0  0  0  0  0  0  0  0  0  0  0
   10.3425  -14.9691   22.7431 O   0  0  0  0  0  0  0  0  0  0  0  0
    5.8758  -11.9987   27.5153 C   0  0  0  0  0  0  0  0  0  0  0  0
    7.3924  -12.3135   26.5795 S   0  0  0  0  0  0  0  0  0  0  0  0
    7.0127  -13.5153   25.2530 C   0  0  0  0  0  0  0  0  0  0  0  0
    7.3757  -14.9188   25.7062 C   0  0  0  0  0  0  0  0  0  0  0  0
    8.5048  -15.4804   24.9239 C   0  0  2  0  0  0  0  0  0  0  0  0
    8.2672  -15.6079   23.5307 N   0  0  0  0  0  0  0  0  0  0  0  0
    9.0393  -16.7235   25.5759 C   0  0  0  0  0  0  0  0  0  0  0  0
    8.3000  -17.7227   25.7298 O   0  0  0  0  0  0  0  0  0  0  0  0
   10.8369  -23.5853   22.5652 O   0  0  0  0  0  0  0  0  0  0  0  0
   10.9306  -22.2558   22.9794 C   0  0  0  0  0  0  0  0  0  0  0  0
    9.7736  -21.4905   23.0746 C   0  0  0  0  0  0  0  0  0  0  0  0
    9.8980  -20.1735   23.4887 C   0  0  0  0  0  0  0  0  0  0  0  0
   11.1138  -19.6126   23.8025 C   0  0  0  0  0  0  0  0  0  0  0  0
   11.2067  -18.2294   24.2180 C   0  0  0  0  0  0  0  0  0  0  0  0
   11.1966  -17.9838   25.6841 C   0  0  2  0  0  0  0  0  0  0  0  0
   10.3748  -16.8366   26.0415 N   0  0  0  0  0  0  0  0  0  0  0  0
   12.5488  -17.8896   26.2597 C   0  0  0  0  0  0  0  0  0  0  0  0
   13.3115  -16.7636   26.0784 O   0  0  0  0  0  0  0  0  0  0  0  0
   12.2375  -20.3977   23.6972 C   0  0  0  0  0  0  0  0  0  0  0  0
   12.1640  -21.7262   23.2857 C   0  0  0  0  0  0  0  0  0  0  0  0
   13.0205  -18.8446   26.9249 O   0  0  0  0  0  0  0  0  0  0  0  0
  2  1  1  0
  3  2  1  0
  4  5  1  0
  4  3  1  0
  5  6  1  1
  7  8  2  0
  7  5  1  0
  9 10  1  0
 10 11  1  0
 11 12  1  0
 13 12  1  1
 13 14  1  0
 14  7  1  0
 15 16  2  0
 15 13  1  0
 18 17  1  0
 19 18  2  0
 20 19  1  0
 21 20  2  0
 21 27  1  0
 22 21  1  0
 23 22  1  6
 23 24  1  0
 24 15  1  0
 25 23  1  0
 26 25  1  0
 27 28  2  0
 28 18  1  0
 29 25  2  0
M  END
$$$$
