MMY.pdb
     RDKit          3D

 29 29  0  0  1  0  0  0  0  0999 V2000
   11.0766  -20.1795   16.5952 C   0  0  0  0  0  0  0  0  0  0  0  0
    9.3595  -20.6371   16.8696 S   0  0  0  0  0  0  0  0  0  0  0  0
    8.9219  -20.5818   18.6385 C   0  0  0  0  0  0  0  0  0  0  0  0
    9.5657  -19.3564   19.2334 C   0  0  0  0  0  0  0  0  0  0  0  0
    9.2378  -19.2935   20.7100 C   0  0  2  0  0  0  0  0  0  0  0  0
    7.8062  -19.3029   20.8632 N   0  0  0  0  0  0  0  0  0  0  0  0
    9.7397  -17.9939   21.2966 C   0  0  0  0  0  0  0  0  0  0  0  0
   10.9638  -17.7664   21.3288 O   0  0  0  0  0  0  0  0  0  0  0  0
    7.1859  -12.3421   18.5725 C   0  0  0  0  0  0  0  0  0  0  0  0
    6.9554  -12.9589   20.2582 S   0  0  0  0  0  0  0  0  0  0  0  0
    8.3272  -14.1062   20.6451 C   0  0  0  0  0  0  0  0  0  0  0  0
    8.1302  -14.7013   22.0286 C   0  0  0  0  0  0  0  0  0  0  0  0
    9.1303  -15.7562   22.3270 C   0  0  2  0  0  0  0  0  0  0  0  0
    8.8237  -17.0407   21.8073 N   0  0  0  0  0  0  0  0  0  0  0  0
    9.4935  -15.7500   23.7845 C   0  0  0  0  0  0  0  0  0  0  0  0
   10.1357  -14.7908   24.2704 O   0  0  0  0  0  0  0  0  0  0  0  0
    6.5688  -11.1209   26.7582 O   0  0  0  0  0  0  0  0  0  0  0  0
    7.0320  -12.4365   26.8089 C   0  0  0  0  0  0  0  0  0  0  0  0
    6.1771  -13.4724   26.4492 C   0  0  0  0  0  0  0  0  0  0  0  0
    6.6653  -14.7683   26.5094 C   0  0  0  0  0  0  0  0  0  0  0  0
    7.9502  -15.0527   26.9086 C   0  0  0  0  0  0  0  0  0  0  0  0
    8.4210  -16.4198   26.9727 C   0  0  0  0  0  0  0  0  0  0  0  0
    9.5486  -16.7673   26.0684 C   0  0  2  0  0  0  0  0  0  0  0  0
    9.1401  -16.7995   24.6714 N   0  0  0  0  0  0  0  0  0  0  0  0
   10.2422  -18.0041   26.4650 C   0  0  0  0  0  0  0  0  0  0  0  0
   10.7462  -18.1502   27.7328 O   0  0  0  0  0  0  0  0  0  0  0  0
    8.7686  -14.0045   27.2575 C   0  0  0  0  0  0  0  0  0  0  0  0
    8.3243  -12.6854   27.2133 C   0  0  0  0  0  0  0  0  0  0  0  0
   10.3813  -18.9425   25.6421 O   0  0  0  0  0  0  0  0  0  0  0  0
  2  1  1  0
  3  2  1  0
  4  5  1  0
  4  3  1  0
  5  6  1  6
  7  8  2  0
  7  5  1  0
  9 10  1  0
 10 11  1  0
 11 12  1  0
 13 12  1  1
 13 14  1  0
 14  7  1  0
 15 16  2  0
 15 13  1  0
 18 17  1  0
 19 18  2  0
 20 19  1  0
 21 20  2  0
 21 27  1  0
 22 21  1  0
 23 22  1  1
 23 24  1  0
 24 15  1  0
 25 23  1  0
 26 25  1  0
 27 28  2  0
 28 18  1  0
 29 25  2  0
M  END
$$$$
