MMY.pdb
     RDKit          3D

 29 29  0  0  1  0  0  0  0  0999 V2000
    8.4679  -20.9457   19.9878 C   0  0  0  0  0  0  0  0  0  0  0  0
    6.8560  -21.7350   19.8788 S   0  0  0  0  0  0  0  0  0  0  0  0
    5.6472  -20.9559   20.9992 C   0  0  0  0  0  0  0  0  0  0  0  0
    6.0764  -19.5284   21.2180 C   0  0  0  0  0  0  0  0  0  0  0  0
    5.1101  -18.8630   22.1746 C   0  0  2  0  0  0  0  0  0  0  0  0
    3.7798  -18.9747   21.6351 N   0  0  0  0  0  0  0  0  0  0  0  0
    5.4235  -17.3882   22.2844 C   0  0  0  0  0  0  0  0  0  0  0  0
    5.4997  -16.6977   21.2507 O   0  0  0  0  0  0  0  0  0  0  0  0
    7.2433  -11.9653   27.5588 C   0  0  0  0  0  0  0  0  0  0  0  0
    6.9646  -13.7440   27.3756 S   0  0  0  0  0  0  0  0  0  0  0  0
    7.0233  -14.1566   25.5940 C   0  0  0  0  0  0  0  0  0  0  0  0
    6.7586  -15.6391   25.3967 C   0  0  0  0  0  0  0  0  0  0  0  0
    6.7430  -16.0142   23.9610 C   0  0  2  0  0  0  0  0  0  0  0  0
    5.6299  -16.7952   23.5548 N   0  0  0  0  0  0  0  0  0  0  0  0
    8.0738  -16.5694   23.5402 C   0  0  0  0  0  0  0  0  0  0  0  0
    8.1594  -17.3052   22.5303 O   0  0  0  0  0  0  0  0  0  0  0  0
    7.5882  -14.5953   17.9045 O   0  0  0  0  0  0  0  0  0  0  0  0
    8.1936  -14.5417   19.1609 C   0  0  0  0  0  0  0  0  0  0  0  0
    7.7285  -13.6288   20.1010 C   0  0  0  0  0  0  0  0  0  0  0  0
    8.3494  -13.5989   21.3400 C   0  0  0  0  0  0  0  0  0  0  0  0
    9.3950  -14.4332   21.6594 C   0  0  0  0  0  0  0  0  0  0  0  0
   10.0282  -14.3637   22.9589 C   0  0  0  0  0  0  0  0  0  0  0  0
   10.4045  -15.6635   23.5744 C   0  0  2  0  0  0  0  0  0  0  0  0
    9.2778  -16.3002   24.2410 N   0  0  0  0  0  0  0  0  0  0  0  0
   11.5777  -15.5617   24.4585 C   0  0  0  0  0  0  0  0  0  0  0  0
   12.7888  -15.1392   23.9712 O   0  0  0  0  0  0  0  0  0  0  0  0
    9.8297  -15.3234   20.7062 C   0  0  0  0  0  0  0  0  0  0  0  0
    9.2383  -15.3915   19.4471 C   0  0  0  0  0  0  0  0  0  0  0  0
   11.4815  -15.8633   25.6737 O   0  0  0  0  0  0  0  0  0  0  0  0
  2  1  1  0
  3  2  1  0
  4  5  1  0
  4  3  1  0
  5  6  1  6
  7  8  2  0
  7  5  1  0
  9 10  1  0
 10 11  1  0
 11 12  1  0
 13 12  1  1
 13 14  1  0
 14  7  1  0
 15 16  2  0
 15 13  1  0
 18 17  1  0
 19 18  2  0
 20 19  1  0
 21 20  2  0
 21 27  1  0
 22 21  1  0
 23 22  1  1
 23 24  1  0
 24 15  1  0
 25 23  1  0
 26 25  1  0
 27 28  2  0
 28 18  1  0
 29 25  2  0
M  END
$$$$
