ILA.pdb
     RDKit          3D

 22 21  0  0  1  0  0  0  0  0999 V2000
    7.6158  -19.3349   19.6517 C   0  0  0  0  0  0  0  0  0  0  0  0
    7.5947  -17.8336   19.6883 C   0  0  0  0  0  0  0  0  0  0  0  0
    7.9471  -17.2386   21.0116 C   0  0  2  0  0  0  0  0  0  0  0  0
    6.9457  -17.7673   22.0211 C   0  0  0  0  0  0  0  0  0  0  0  0
    7.9024  -15.7293   20.9319 C   0  0  2  0  0  0  0  0  0  0  0  0
    8.7709  -15.2867   19.8784 N   0  0  0  0  0  0  0  0  0  0  0  0
    8.3244  -15.1149   22.2141 C   0  0  0  0  0  0  0  0  0  0  0  0
    9.5514  -14.9516   22.3936 O   0  0  0  0  0  0  0  0  0  0  0  0
    5.7321  -12.1795   27.0310 C   0  0  0  0  0  0  0  0  0  0  0  0
    6.9823  -12.5745   26.3034 C   0  0  2  0  0  0  0  0  0  0  0  0
    8.0091  -11.4857   26.4016 C   0  0  0  0  0  0  0  0  0  0  0  0
    6.8288  -13.2630   25.0211 C   0  0  0  0  0  0  0  0  0  0  0  0
    7.8874  -14.1293   24.4854 C   0  0  2  0  0  0  0  0  0  0  0  0
    7.4193  -14.7164   23.2168 N   0  0  0  0  0  0  0  0  0  0  0  0
    8.5129  -15.1243   25.3363 C   0  0  0  0  0  0  0  0  0  0  0  0
    9.0917  -14.7656   26.3877 O   0  0  0  0  0  0  0  0  0  0  0  0
    8.6716  -18.8670   25.7619 C   0  0  0  0  0  0  0  0  0  0  0  0
    9.1905  -17.4518   25.9393 C   0  0  2  0  0  0  0  0  0  0  0  0
    8.5221  -16.5247   25.0627 N   0  0  0  0  0  0  0  0  0  0  0  0
   10.6352  -17.4405   25.6334 C   0  0  0  0  0  0  0  0  0  0  0  0
   11.4048  -18.1798   26.2716 O   0  0  0  0  0  0  0  0  0  0  0  0
   11.1348  -16.5989   24.6270 O   0  0  0  0  0  0  0  0  0  0  0  0
  2  1  1  0
  3  2  1  0
  3  4  1  1
  5  3  1  0
  5  6  1  6
  7  5  1  0
  7  8  2  0
 10  9  1  6
 10 12  1  0
 10 11  1  0
 13 12  1  1
 13 14  1  0
 14  7  1  0
 15 13  1  0
 15 19  1  0
 16 15  2  0
 18 17  1  6
 18 20  1  0
 19 18  1  0
 20 21  2  0
 20 22  1  0
M  END
$$$$
