ILA.pdb
     RDKit          3D

 22 21  0  0  1  0  0  0  0  0999 V2000
    7.3237  -12.6685   17.8894 C   0  0  0  0  0  0  0  0  0  0  0  0
    7.7243  -13.8658   18.7028 C   0  0  0  0  0  0  0  0  0  0  0  0
    7.9488  -13.5862   20.1522 C   0  0  2  0  0  0  0  0  0  0  0  0
    9.0827  -12.5825   20.2442 C   0  0  0  0  0  0  0  0  0  0  0  0
    8.2875  -14.8661   20.8826 C   0  0  2  0  0  0  0  0  0  0  0  0
    7.1597  -15.7523   20.8289 N   0  0  0  0  0  0  0  0  0  0  0  0
    8.6391  -14.5955   22.2978 C   0  0  0  0  0  0  0  0  0  0  0  0
    9.7677  -14.1060   22.5233 O   0  0  0  0  0  0  0  0  0  0  0  0
    5.8327  -12.5214   27.2376 C   0  0  0  0  0  0  0  0  0  0  0  0
    7.0962  -12.9295   26.5409 C   0  0  2  0  0  0  0  0  0  0  0  0
    8.0882  -11.8049   26.5585 C   0  0  0  0  0  0  0  0  0  0  0  0
    6.9672  -13.7151   25.3129 C   0  0  0  0  0  0  0  0  0  0  0  0
    8.1077  -14.4509   24.7509 C   0  0  2  0  0  0  0  0  0  0  0  0
    7.7724  -14.8617   23.3755 N   0  0  0  0  0  0  0  0  0  0  0  0
    8.7137  -15.5357   25.5001 C   0  0  0  0  0  0  0  0  0  0  0  0
    8.8943  -15.4125   26.7336 O   0  0  0  0  0  0  0  0  0  0  0  0
    9.1931  -19.1999   25.2440 C   0  0  0  0  0  0  0  0  0  0  0  0
    9.6444  -17.8407   25.7464 C   0  0  2  0  0  0  0  0  0  0  0  0
    9.1343  -16.7724   24.9260 N   0  0  0  0  0  0  0  0  0  0  0  0
   11.1204  -17.7982   25.7215 C   0  0  0  0  0  0  0  0  0  0  0  0
   11.7017  -17.1235   24.8539 O   0  0  0  0  0  0  0  0  0  0  0  0
   11.8611  -18.5166   26.6734 O   0  0  0  0  0  0  0  0  0  0  0  0
  2  1  1  0
  3  2  1  0
  3  4  1  6
  5  3  1  0
  5  6  1  1
  7  5  1  0
  7  8  2  0
 10  9  1  6
 10 12  1  0
 10 11  1  0
 13 12  1  1
 13 14  1  0
 14  7  1  0
 15 13  1  0
 15 19  1  0
 16 15  2  0
 18 17  1  6
 18 20  1  0
 19 18  1  0
 20 21  2  0
 20 22  1  0
M  END
$$$$
