ILA.pdb
     RDKit          3D

 22 21  0  0  1  0  0  0  0  0999 V2000
    7.9613  -11.8951   20.0837 C   0  0  0  0  0  0  0  0  0  0  0  0
    7.7547  -13.1804   20.8328 C   0  0  0  0  0  0  0  0  0  0  0  0
    8.6480  -14.2987   20.4076 C   0  0  2  0  0  0  0  0  0  0  0  0
    8.2828  -14.6440   18.9762 C   0  0  0  0  0  0  0  0  0  0  0  0
    8.4649  -15.4878   21.3234 C   0  0  2  0  0  0  0  0  0  0  0  0
    7.0991  -15.9249   21.2613 N   0  0  0  0  0  0  0  0  0  0  0  0
    8.8119  -15.1414   22.7231 C   0  0  0  0  0  0  0  0  0  0  0  0
    9.9888  -14.7832   22.9488 O   0  0  0  0  0  0  0  0  0  0  0  0
    8.1616  -11.9427   25.9836 C   0  0  0  0  0  0  0  0  0  0  0  0
    6.9663  -12.8296   25.8025 C   0  0  2  0  0  0  0  0  0  0  0  0
    5.7781  -12.2556   26.5152 C   0  0  0  0  0  0  0  0  0  0  0  0
    7.1806  -14.2755   25.8748 C   0  0  0  0  0  0  0  0  0  0  0  0
    8.2998  -14.9199   25.1746 C   0  0  2  0  0  0  0  0  0  0  0  0
    7.8899  -15.1982   23.7862 N   0  0  0  0  0  0  0  0  0  0  0  0
    8.9725  -16.0584   25.7717 C   0  0  0  0  0  0  0  0  0  0  0  0
    9.2069  -16.0648   27.0023 O   0  0  0  0  0  0  0  0  0  0  0  0
    9.5676  -19.6525   25.0140 C   0  0  0  0  0  0  0  0  0  0  0  0
    9.9354  -18.3628   25.7245 C   0  0  2  0  0  0  0  0  0  0  0  0
    9.4026  -17.2093   25.0462 N   0  0  0  0  0  0  0  0  0  0  0  0
   11.4077  -18.2540   25.7660 C   0  0  0  0  0  0  0  0  0  0  0  0
   11.9756  -17.3494   25.1296 O   0  0  0  0  0  0  0  0  0  0  0  0
   12.1598  -19.1682   26.5205 O   0  0  0  0  0  0  0  0  0  0  0  0
  2  1  1  0
  3  2  1  0
  3  4  1  6
  5  3  1  0
  5  6  1  1
  7  5  1  0
  7  8  2  0
 10  9  1  1
 10 12  1  0
 10 11  1  0
 13 12  1  1
 13 14  1  0
 14  7  1  0
 15 13  1  0
 15 19  1  0
 16 15  2  0
 18 17  1  6
 18 20  1  0
 19 18  1  0
 20 21  2  0
 20 22  1  0
M  END
$$$$
