ILA.pdb
     RDKit          3D

 22 21  0  0  1  0  0  0  0  0999 V2000
    8.1916  -18.8676   18.8025 C   0  0  0  0  0  0  0  0  0  0  0  0
    8.3026  -18.9078   20.2998 C   0  0  0  0  0  0  0  0  0  0  0  0
    8.6111  -17.5928   20.9362 C   0  0  2  0  0  0  0  0  0  0  0  0
    9.9186  -17.1037   20.3422 C   0  0  0  0  0  0  0  0  0  0  0  0
    8.7148  -17.7524   22.4362 C   0  0  2  0  0  0  0  0  0  0  0  0
    7.5121  -18.3606   22.9300 N   0  0  0  0  0  0  0  0  0  0  0  0
    8.9162  -16.4412   23.0993 C   0  0  0  0  0  0  0  0  0  0  0  0
    9.9341  -15.7886   22.7793 O   0  0  0  0  0  0  0  0  0  0  0  0
    5.7694  -12.4672   26.7116 C   0  0  0  0  0  0  0  0  0  0  0  0
    7.0129  -12.7934   25.9398 C   0  0  2  0  0  0  0  0  0  0  0  0
    7.5199  -11.5745   25.2281 C   0  0  0  0  0  0  0  0  0  0  0  0
    7.0509  -14.0720   25.2288 C   0  0  0  0  0  0  0  0  0  0  0  0
    8.3170  -14.6493   24.7580 C   0  0  2  0  0  0  0  0  0  0  0  0
    8.0270  -15.9119   24.0546 N   0  0  0  0  0  0  0  0  0  0  0  0
    9.4358  -14.7908   25.6710 C   0  0  0  0  0  0  0  0  0  0  0  0
   10.6012  -14.5842   25.2606 O   0  0  0  0  0  0  0  0  0  0  0  0
   10.4976  -14.0702   28.8895 C   0  0  0  0  0  0  0  0  0  0  0  0
   10.4635  -15.2255   27.9059 C   0  0  2  0  0  0  0  0  0  0  0  0
    9.3114  -15.1586   27.0440 N   0  0  0  0  0  0  0  0  0  0  0  0
   10.4157  -16.4892   28.6687 C   0  0  0  0  0  0  0  0  0  0  0  0
    9.4536  -17.2623   28.5185 O   0  0  0  0  0  0  0  0  0  0  0  0
   11.4522  -16.8137   29.5582 O   0  0  0  0  0  0  0  0  0  0  0  0
  2  1  1  0
  3  2  1  0
  3  4  1  6
  5  3  1  0
  5  6  1  1
  7  5  1  0
  7  8  2  0
 10  9  1  6
 10 12  1  0
 10 11  1  0
 13 12  1  1
 13 14  1  0
 14  7  1  0
 15 13  1  0
 15 19  1  0
 16 15  2  0
 18 17  1  1
 18 20  1  0
 19 18  1  0
 20 21  2  0
 20 22  1  0
M  END
$$$$
