ILA.pdb
     RDKit          3D

 22 21  0  0  1  0  0  0  0  0999 V2000
    6.8963  -18.2269   18.8336 C   0  0  0  0  0  0  0  0  0  0  0  0
    6.9637  -16.8135   19.3372 C   0  0  0  0  0  0  0  0  0  0  0  0
    7.6112  -16.6596   20.6737 C   0  0  2  0  0  0  0  0  0  0  0  0
    6.9669  -17.6714   21.6026 C   0  0  0  0  0  0  0  0  0  0  0  0
    7.4235  -15.2485   21.1834 C   0  0  2  0  0  0  0  0  0  0  0  0
    7.9981  -14.3276   20.2443 N   0  0  0  0  0  0  0  0  0  0  0  0
    8.0647  -15.0705   22.5088 C   0  0  0  0  0  0  0  0  0  0  0  0
    9.3132  -15.0004   22.5355 O   0  0  0  0  0  0  0  0  0  0  0  0
    7.9305  -11.7612   25.5924 C   0  0  0  0  0  0  0  0  0  0  0  0
    6.7977  -12.7317   25.7453 C   0  0  2  0  0  0  0  0  0  0  0  0
    5.7155  -12.1400   26.5985 C   0  0  0  0  0  0  0  0  0  0  0  0
    7.1378  -14.1412   25.9434 C   0  0  0  0  0  0  0  0  0  0  0  0
    8.0243  -14.8533   25.0133 C   0  0  2  0  0  0  0  0  0  0  0  0
    7.3407  -14.9793   23.7134 N   0  0  0  0  0  0  0  0  0  0  0  0
    8.6464  -16.1017   25.4133 C   0  0  0  0  0  0  0  0  0  0  0  0
    7.9375  -17.1195   25.5890 O   0  0  0  0  0  0  0  0  0  0  0  0
   12.0337  -17.6696   25.3344 C   0  0  0  0  0  0  0  0  0  0  0  0
   10.6152  -17.5711   25.8652 C   0  0  2  0  0  0  0  0  0  0  0  0
   10.0468  -16.2688   25.6298 N   0  0  0  0  0  0  0  0  0  0  0  0
   10.6405  -17.8248   27.3198 C   0  0  0  0  0  0  0  0  0  0  0  0
   11.1139  -18.8910   27.7501 O   0  0  0  0  0  0  0  0  0  0  0  0
   10.1321  -16.8658   28.2102 O   0  0  0  0  0  0  0  0  0  0  0  0
  2  1  1  0
  3  2  1  0
  3  4  1  1
  5  3  1  0
  5  6  1  6
  7  5  1  0
  7  8  2  0
 10  9  1  1
 10 12  1  0
 10 11  1  0
 13 12  1  1
 13 14  1  0
 14  7  1  0
 15 13  1  0
 15 19  1  0
 16 15  2  0
 18 17  1  1
 18 20  1  0
 19 18  1  0
 20 21  2  0
 20 22  1  0
M  END
$$$$
