ILA.pdb
     RDKit          3D

 22 21  0  0  1  0  0  0  0  0999 V2000
    7.4592  -12.2191   18.5813 C   0  0  0  0  0  0  0  0  0  0  0  0
    7.4531  -13.5586   19.2606 C   0  0  0  0  0  0  0  0  0  0  0  0
    7.9524  -13.5447   20.6677 C   0  0  2  0  0  0  0  0  0  0  0  0
    9.3623  -12.9855   20.6370 C   0  0  0  0  0  0  0  0  0  0  0  0
    7.9285  -14.9432   21.2420 C   0  0  2  0  0  0  0  0  0  0  0  0
    6.5944  -15.4657   21.1558 N   0  0  0  0  0  0  0  0  0  0  0  0
    8.3720  -14.9462   22.6572 C   0  0  0  0  0  0  0  0  0  0  0  0
    9.6008  -14.8552   22.8718 O   0  0  0  0  0  0  0  0  0  0  0  0
    8.1682  -12.0742   26.1832 C   0  0  0  0  0  0  0  0  0  0  0  0
    6.8913  -12.8334   25.9797 C   0  0  2  0  0  0  0  0  0  0  0  0
    5.7773  -12.1983   26.7575 C   0  0  0  0  0  0  0  0  0  0  0  0
    6.9702  -14.2945   25.9574 C   0  0  0  0  0  0  0  0  0  0  0  0
    7.9681  -14.9953   25.1383 C   0  0  2  0  0  0  0  0  0  0  0  0
    7.4848  -15.0453   23.7465 N   0  0  0  0  0  0  0  0  0  0  0  0
    8.4911  -16.2785   25.5689 C   0  0  0  0  0  0  0  0  0  0  0  0
    7.7132  -17.2508   25.7062 O   0  0  0  0  0  0  0  0  0  0  0  0
   11.6525  -18.1835   25.5925 C   0  0  0  0  0  0  0  0  0  0  0  0
   10.3201  -17.8440   26.2351 C   0  0  2  0  0  0  0  0  0  0  0  0
    9.8654  -16.5302   25.8582 N   0  0  0  0  0  0  0  0  0  0  0  0
   10.4821  -17.8900   27.7023 C   0  0  0  0  0  0  0  0  0  0  0  0
   10.2675  -16.8680   28.3771 O   0  0  0  0  0  0  0  0  0  0  0  0
   10.8765  -19.0823   28.3296 O   0  0  0  0  0  0  0  0  0  0  0  0
  2  1  1  0
  3  2  1  0
  3  4  1  6
  5  3  1  0
  5  6  1  1
  7  5  1  0
  7  8  2  0
 10  9  1  1
 10 12  1  0
 10 11  1  0
 13 12  1  1
 13 14  1  0
 14  7  1  0
 15 13  1  0
 15 19  1  0
 16 15  2  0
 18 17  1  6
 18 20  1  0
 19 18  1  0
 20 21  2  0
 20 22  1  0
M  END
$$$$
