ILA.pdb
     RDKit          3D

 22 21  0  0  1  0  0  0  0  0999 V2000
    6.8398  -12.2971   28.0319 C   0  0  0  0  0  0  0  0  0  0  0  0
    6.1984  -13.1882   27.0072 C   0  0  0  0  0  0  0  0  0  0  0  0
    7.1577  -13.8741   26.0915 C   0  0  2  0  0  0  0  0  0  0  0  0
    7.9785  -12.7940   25.4123 C   0  0  0  0  0  0  0  0  0  0  0  0
    6.4052  -14.7096   25.0806 C   0  0  2  0  0  0  0  0  0  0  0  0
    5.6457  -15.7134   25.7703 N   0  0  0  0  0  0  0  0  0  0  0  0
    7.3366  -15.3600   24.1272 C   0  0  0  0  0  0  0  0  0  0  0  0
    7.5095  -16.5929   24.2471 O   0  0  0  0  0  0  0  0  0  0  0  0
    6.5246  -14.0883   20.1003 C   0  0  0  0  0  0  0  0  0  0  0  0
    7.8480  -13.5798   20.5885 C   0  0  2  0  0  0  0  0  0  0  0  0
    8.2453  -12.3481   19.8306 C   0  0  0  0  0  0  0  0  0  0  0  0
    8.8841  -14.5696   20.8860 C   0  0  0  0  0  0  0  0  0  0  0  0
    8.8514  -15.3652   22.1205 C   0  0  2  0  0  0  0  0  0  0  0  0
    8.0203  -14.6609   23.1136 N   0  0  0  0  0  0  0  0  0  0  0  0
   10.0872  -15.8507   22.7057 C   0  0  0  0  0  0  0  0  0  0  0  0
   10.9316  -16.4273   21.9819 O   0  0  0  0  0  0  0  0  0  0  0  0
   12.0577  -15.5771   25.9083 C   0  0  0  0  0  0  0  0  0  0  0  0
   11.6719  -16.2376   24.5975 C   0  0  2  0  0  0  0  0  0  0  0  0
   10.4294  -15.7201   24.0847 N   0  0  0  0  0  0  0  0  0  0  0  0
   11.5248  -17.6887   24.8293 C   0  0  0  0  0  0  0  0  0  0  0  0
   10.4131  -18.2256   24.6816 O   0  0  0  0  0  0  0  0  0  0  0  0
   12.6357  -18.4559   25.2143 O   0  0  0  0  0  0  0  0  0  0  0  0
  2  1  1  0
  3  2  1  0
  3  4  1  6
  5  3  1  0
  5  6  1  1
  7  5  1  0
  7  8  2  0
 10  9  1  6
 10 12  1  0
 10 11  1  0
 13 12  1  6
 13 14  1  0
 14  7  1  0
 15 13  1  0
 15 19  1  0
 16 15  2  0
 18 17  1  1
 18 20  1  0
 19 18  1  0
 20 21  2  0
 20 22  1  0
M  END
$$$$
