ILA.pdb
     RDKit          3D

 22 21  0  0  1  0  0  0  0  0999 V2000
    7.3622  -16.4083   17.8832 C   0  0  0  0  0  0  0  0  0  0  0  0
    7.2356  -15.1562   18.7030 C   0  0  0  0  0  0  0  0  0  0  0  0
    7.8060  -15.2536   20.0794 C   0  0  2  0  0  0  0  0  0  0  0  0
    7.1937  -16.4785   20.7322 C   0  0  0  0  0  0  0  0  0  0  0  0
    7.4922  -13.9989   20.8626 C   0  0  2  0  0  0  0  0  0  0  0  0
    8.0251  -12.8626   20.1662 N   0  0  0  0  0  0  0  0  0  0  0  0
    8.0724  -14.0622   22.2260 C   0  0  0  0  0  0  0  0  0  0  0  0
    9.3092  -13.9076   22.3291 O   0  0  0  0  0  0  0  0  0  0  0  0
    7.9629  -11.5414   25.9876 C   0  0  0  0  0  0  0  0  0  0  0  0
    6.7834  -12.4494   25.8062 C   0  0  2  0  0  0  0  0  0  0  0  0
    5.6329  -11.9846   26.6487 C   0  0  0  0  0  0  0  0  0  0  0  0
    7.0435  -13.8874   25.7283 C   0  0  0  0  0  0  0  0  0  0  0  0
    7.9362  -14.4501   24.7063 C   0  0  2  0  0  0  0  0  0  0  0  0
    7.3039  -14.2848   23.3850 N   0  0  0  0  0  0  0  0  0  0  0  0
    8.4841  -15.7832   24.8736 C   0  0  0  0  0  0  0  0  0  0  0  0
    7.7269  -16.7786   24.8015 O   0  0  0  0  0  0  0  0  0  0  0  0
   11.7278  -17.6090   24.7786 C   0  0  0  0  0  0  0  0  0  0  0  0
   10.3261  -17.4091   25.3251 C   0  0  2  0  0  0  0  0  0  0  0  0
    9.8615  -16.0609   25.1218 N   0  0  0  0  0  0  0  0  0  0  0  0
   10.3428  -17.6945   26.7740 C   0  0  0  0  0  0  0  0  0  0  0  0
   10.0626  -16.7918   27.5819 O   0  0  0  0  0  0  0  0  0  0  0  0
   10.6736  -18.9787   27.2343 O   0  0  0  0  0  0  0  0  0  0  0  0
  2  1  1  0
  3  2  1  0
  3  4  1  1
  5  3  1  0
  5  6  1  6
  7  5  1  0
  7  8  2  0
 10  9  1  1
 10 12  1  0
 10 11  1  0
 13 12  1  1
 13 14  1  0
 14  7  1  0
 15 13  1  0
 15 19  1  0
 16 15  2  0
 18 17  1  1
 18 20  1  0
 19 18  1  0
 20 21  2  0
 20 22  1  0
M  END
$$$$
