MDG.pdb
     RDKit          3D

 21 20  0  0  1  0  0  0  0  0999 V2000
   27.2942  -14.9788  -14.5686 C   0  0  0  0  0  0  0  0  0  0  0  0
   27.5844  -13.3770  -15.3827 S   0  0  0  0  0  0  0  0  0  0  0  0
   26.1463  -13.0555  -16.4758 C   0  0  0  0  0  0  0  0  0  0  0  0
   26.3538  -11.7035  -17.0734 C   0  0  0  0  0  0  0  0  0  0  0  0
   26.0694  -10.5608  -16.1413 C   0  0  2  0  0  0  0  0  0  0  0  0
   24.9784  -10.7774  -15.2467 N   0  0  0  0  0  0  0  0  0  0  0  0
   25.9446   -9.2679  -16.8596 C   0  0  0  0  0  0  0  0  0  0  0  0
   26.6831   -9.0546  -17.8553 O   0  0  0  0  0  0  0  0  0  0  0  0
   25.0344   -8.2392  -16.4941 N   0  0  0  0  0  0  0  0  0  0  0  0
   24.7934   -7.0686  -17.3307 C   0  0  1  0  0  0  0  0  0  0  0  0
   24.1606   -7.5633  -18.6022 C   0  0  0  0  0  0  0  0  0  0  0  0
   23.8122   -6.5479  -19.5854 C   0  0  0  0  0  0  0  0  0  0  0  0
   24.6905   -5.7468  -19.9955 O   0  0  0  0  0  0  0  0  0  0  0  0
   24.0719   -6.0149  -16.6299 C   0  0  0  0  0  0  0  0  0  0  0  0
   23.9089   -4.8714  -17.1782 O   0  0  0  0  0  0  0  0  0  0  0  0
   22.5343   -6.4276  -20.0942 O   0  0  0  0  0  0  0  0  0  0  0  0
   23.5105   -6.1647  -15.3349 N   0  0  0  0  0  0  0  0  0  0  0  0
   22.8626   -5.0460  -14.6757 C   0  0  0  0  0  0  0  0  0  0  0  0
   21.4195   -5.0298  -14.9796 C   0  0  0  0  0  0  0  0  0  0  0  0
   20.8140   -5.8330  -15.9297 O   0  0  0  0  0  0  0  0  0  0  0  0
   20.6703   -4.2380  -14.3418 O   0  0  0  0  0  0  0  0  0  0  0  0
  2  1  1  0
  3  2  1  0
  4  3  1  0
  4  5  1  0
  5  6  1  6
  7  8  2  0
  7  5  1  0
  9  7  1  0
 10  9  1  0
 10 14  1  0
 10 11  1  6
 12 16  1  0
 12 11  1  0
 13 12  2  0
 14 15  2  0
 14 17  1  0
 17 18  1  0
 19 18  1  0
 19 20  1  0
 21 19  2  0
M  END
$$$$
