MDG.pdb
     RDKit          3D

 21 20  0  0  1  0  0  0  0  0999 V2000
   15.4975  -16.3455  -15.0511 C   0  0  0  0  0  0  0  0  0  0  0  0
   16.6707  -15.0685  -15.6041 S   0  0  0  0  0  0  0  0  0  0  0  0
   16.2227  -13.5111  -14.7439 C   0  0  0  0  0  0  0  0  0  0  0  0
   17.1755  -12.4662  -15.2218 C   0  0  0  0  0  0  0  0  0  0  0  0
   16.9544  -11.1044  -14.6285 C   0  0  2  0  0  0  0  0  0  0  0  0
   15.6501  -10.5649  -14.8412 N   0  0  0  0  0  0  0  0  0  0  0  0
   18.0178  -10.1439  -15.0154 C   0  0  0  0  0  0  0  0  0  0  0  0
   19.2198  -10.4626  -14.8263 O   0  0  0  0  0  0  0  0  0  0  0  0
   17.7672   -8.8698  -15.5936 N   0  0  0  0  0  0  0  0  0  0  0  0
   18.8381   -7.9642  -15.9954 C   0  0  1  0  0  0  0  0  0  0  0  0
   18.4643   -7.4179  -17.3459 C   0  0  0  0  0  0  0  0  0  0  0  0
   18.3748   -8.3857  -18.4296 C   0  0  0  0  0  0  0  0  0  0  0  0
   19.3735   -9.0917  -18.7219 O   0  0  0  0  0  0  0  0  0  0  0  0
   19.1507   -6.9741  -14.9737 C   0  0  0  0  0  0  0  0  0  0  0  0
   18.2101   -6.3703  -14.3528 O   0  0  0  0  0  0  0  0  0  0  0  0
   17.2174   -8.5625  -19.1614 O   0  0  0  0  0  0  0  0  0  0  0  0
   20.4708   -6.6144  -14.5960 N   0  0  0  0  0  0  0  0  0  0  0  0
   20.6999   -5.6370  -13.5481 C   0  0  0  0  0  0  0  0  0  0  0  0
   22.1361   -5.3194  -13.4400 C   0  0  0  0  0  0  0  0  0  0  0  0
   22.6492   -4.2748  -12.6918 O   0  0  0  0  0  0  0  0  0  0  0  0
   22.9682   -6.0360  -14.0637 O   0  0  0  0  0  0  0  0  0  0  0  0
  2  1  1  0
  3  2  1  0
  4  3  1  0
  4  5  1  0
  5  6  1  6
  7  8  2  0
  7  5  1  0
  9  7  1  0
 10  9  1  0
 10 14  1  0
 10 11  1  6
 12 16  1  0
 12 11  1  0
 13 12  2  0
 14 15  2  0
 14 17  1  0
 17 18  1  0
 19 18  1  0
 19 20  1  0
 21 19  2  0
M  END
$$$$
