MDG.pdb
     RDKit          3D

 21 20  0  0  1  0  0  0  0  0999 V2000
   16.9923  -28.3426  -11.5128 C   0  0  0  0  0  0  0  0  0  0  0  0
   16.2590  -27.3323  -10.1883 S   0  0  0  0  0  0  0  0  0  0  0  0
   17.5716  -26.2073   -9.5740 C   0  0  0  0  0  0  0  0  0  0  0  0
   17.9198  -25.2953  -10.7032 C   0  0  0  0  0  0  0  0  0  0  0  0
   19.0465  -24.3460  -10.4117 C   0  0  2  0  0  0  0  0  0  0  0  0
   19.0494  -23.8113   -9.0882 N   0  0  0  0  0  0  0  0  0  0  0  0
   19.1616  -23.2792  -11.4372 C   0  0  0  0  0  0  0  0  0  0  0  0
   19.3773  -23.6083  -12.6319 O   0  0  0  0  0  0  0  0  0  0  0  0
   19.0428  -21.8906  -11.1577 N   0  0  0  0  0  0  0  0  0  0  0  0
   19.1491  -20.8681  -12.1928 C   0  0  1  0  0  0  0  0  0  0  0  0
   18.5459  -19.6112  -11.6286 C   0  0  0  0  0  0  0  0  0  0  0  0
   18.5613  -18.4434  -12.4976 C   0  0  0  0  0  0  0  0  0  0  0  0
   18.9412  -18.5566  -13.6910 O   0  0  0  0  0  0  0  0  0  0  0  0
   20.5000  -20.7423  -12.7230 C   0  0  0  0  0  0  0  0  0  0  0  0
   21.4903  -20.5798  -11.9307 O   0  0  0  0  0  0  0  0  0  0  0  0
   18.1685  -17.1955  -12.0562 O   0  0  0  0  0  0  0  0  0  0  0  0
   20.8166  -20.7906  -14.1058 N   0  0  0  0  0  0  0  0  0  0  0  0
   22.1937  -20.6930  -14.5530 C   0  0  0  0  0  0  0  0  0  0  0  0
   22.2690  -20.7816  -16.0233 C   0  0  0  0  0  0  0  0  0  0  0  0
   23.4458  -20.7226  -16.7484 O   0  0  0  0  0  0  0  0  0  0  0  0
   21.2004  -20.9206  -16.6819 O   0  0  0  0  0  0  0  0  0  0  0  0
  2  1  1  0
  3  2  1  0
  4  3  1  0
  4  5  1  0
  5  6  1  1
  7  8  2  0
  7  5  1  0
  9  7  1  0
 10  9  1  0
 10 14  1  0
 10 11  1  1
 12 16  1  0
 12 11  1  0
 13 12  2  0
 14 15  2  0
 14 17  1  0
 17 18  1  0
 19 18  1  0
 19 20  1  0
 21 19  2  0
M  END
$$$$
