MDG.pdb
     RDKit          3D

 21 20  0  0  1  0  0  0  0  0999 V2000
   28.3717  -19.1612   -3.9137 C   0  0  0  0  0  0  0  0  0  0  0  0
   27.4607  -19.7631   -5.3700 S   0  0  0  0  0  0  0  0  0  0  0  0
   28.5548  -19.5382   -6.8255 C   0  0  0  0  0  0  0  0  0  0  0  0
   27.6682  -19.2342   -7.9873 C   0  0  0  0  0  0  0  0  0  0  0  0
   26.7236  -20.3419   -8.3559 C   0  0  2  0  0  0  0  0  0  0  0  0
   27.3209  -21.6363   -8.4294 N   0  0  0  0  0  0  0  0  0  0  0  0
   25.9380  -20.0276   -9.5753 C   0  0  0  0  0  0  0  0  0  0  0  0
   25.3195  -18.9338   -9.6321 O   0  0  0  0  0  0  0  0  0  0  0  0
   25.8351  -20.8906  -10.7000 N   0  0  0  0  0  0  0  0  0  0  0  0
   25.0762  -20.5380  -11.8951 C   0  0  1  0  0  0  0  0  0  0  0  0
   25.8857  -20.9955  -13.0772 C   0  0  0  0  0  0  0  0  0  0  0  0
   25.2855  -20.7888  -14.3873 C   0  0  0  0  0  0  0  0  0  0  0  0
   24.5888  -19.7641  -14.6015 O   0  0  0  0  0  0  0  0  0  0  0  0
   23.6990  -21.0102  -11.8468 C   0  0  0  0  0  0  0  0  0  0  0  0
   23.4212  -22.1303  -11.2962 O   0  0  0  0  0  0  0  0  0  0  0  0
   25.4539  -21.6880  -15.4213 O   0  0  0  0  0  0  0  0  0  0  0  0
   22.5964  -20.2945  -12.3822 N   0  0  0  0  0  0  0  0  0  0  0  0
   21.2562  -20.8479  -12.3224 C   0  0  0  0  0  0  0  0  0  0  0  0
   21.0550  -21.8372  -13.3976 C   0  0  0  0  0  0  0  0  0  0  0  0
   20.7277  -21.5144  -14.7025 O   0  0  0  0  0  0  0  0  0  0  0  0
   21.1857  -23.0645  -13.1298 O   0  0  0  0  0  0  0  0  0  0  0  0
  2  1  1  0
  3  2  1  0
  4  3  1  0
  4  5  1  0
  5  6  1  6
  7  8  2  0
  7  5  1  0
  9  7  1  0
 10  9  1  0
 10 14  1  0
 10 11  1  6
 12 16  1  0
 12 11  1  0
 13 12  2  0
 14 15  2  0
 14 17  1  0
 17 18  1  0
 19 18  1  0
 19 20  1  0
 21 19  2  0
M  END
$$$$
