MDG.pdb
     RDKit          3D

 21 20  0  0  1  0  0  0  0  0999 V2000
   29.3076  -10.1255  -16.4486 C   0  0  0  0  0  0  0  0  0  0  0  0
   28.8590  -11.2607  -17.7987 S   0  0  0  0  0  0  0  0  0  0  0  0
   27.2967  -12.0910  -17.3129 C   0  0  0  0  0  0  0  0  0  0  0  0
   26.2149  -11.0679  -17.4181 C   0  0  0  0  0  0  0  0  0  0  0  0
   25.6766  -10.5937  -16.0987 C   0  0  2  0  0  0  0  0  0  0  0  0
   25.2815  -11.6351  -15.2059 N   0  0  0  0  0  0  0  0  0  0  0  0
   24.6111   -9.5733  -16.2609 C   0  0  0  0  0  0  0  0  0  0  0  0
   24.8385   -8.5700  -16.9848 O   0  0  0  0  0  0  0  0  0  0  0  0
   23.3324   -9.6532  -15.6454 N   0  0  0  0  0  0  0  0  0  0  0  0
   22.3034   -8.6366  -15.8351 C   0  0  1  0  0  0  0  0  0  0  0  0
   20.9770   -9.3442  -15.7909 C   0  0  0  0  0  0  0  0  0  0  0  0
   20.7866  -10.4159  -16.7576 C   0  0  0  0  0  0  0  0  0  0  0  0
   20.5940  -11.5923  -16.3574 O   0  0  0  0  0  0  0  0  0  0  0  0
   22.4524   -7.5085  -14.9256 C   0  0  0  0  0  0  0  0  0  0  0  0
   22.4863   -7.7001  -13.6619 O   0  0  0  0  0  0  0  0  0  0  0  0
   20.8092  -10.1881  -18.1192 O   0  0  0  0  0  0  0  0  0  0  0  0
   22.5705   -6.1589  -15.3492 N   0  0  0  0  0  0  0  0  0  0  0  0
   22.9223   -5.1153  -14.4043 C   0  0  0  0  0  0  0  0  0  0  0  0
   21.7095   -4.4617  -13.8779 C   0  0  0  0  0  0  0  0  0  0  0  0
   21.7189   -3.3860  -13.0079 O   0  0  0  0  0  0  0  0  0  0  0  0
   20.5785   -4.8976  -14.2327 O   0  0  0  0  0  0  0  0  0  0  0  0
  2  1  1  0
  3  2  1  0
  4  3  1  0
  4  5  1  0
  5  6  1  6
  7  8  2  0
  7  5  1  0
  9  7  1  0
 10  9  1  0
 10 14  1  0
 10 11  1  1
 12 16  1  0
 12 11  1  0
 13 12  2  0
 14 15  2  0
 14 17  1  0
 17 18  1  0
 19 18  1  0
 19 20  1  0
 21 19  2  0
M  END
$$$$
