MDG.pdb
     RDKit          3D

 21 20  0  0  1  0  0  0  0  0999 V2000
   25.6748  -19.5958   -8.1120 C   0  0  0  0  0  0  0  0  0  0  0  0
   26.4903  -21.1974   -8.3998 S   0  0  0  0  0  0  0  0  0  0  0  0
   27.0512  -21.2144  -10.1466 C   0  0  0  0  0  0  0  0  0  0  0  0
   26.1057  -20.3483  -10.9107 C   0  0  0  0  0  0  0  0  0  0  0  0
   25.4042  -21.0412  -12.0435 C   0  0  2  0  0  0  0  0  0  0  0  0
   26.2695  -21.7024  -12.9664 N   0  0  0  0  0  0  0  0  0  0  0  0
   24.4385  -20.1508  -12.7346 C   0  0  0  0  0  0  0  0  0  0  0  0
   23.5780  -19.5419  -12.0483 O   0  0  0  0  0  0  0  0  0  0  0  0
   24.4192  -19.9357  -14.1395 N   0  0  0  0  0  0  0  0  0  0  0  0
   23.4386  -19.0731  -14.7897 C   0  0  1  0  0  0  0  0  0  0  0  0
   23.8458  -18.9595  -16.2330 C   0  0  0  0  0  0  0  0  0  0  0  0
   23.0308  -18.0862  -17.0650 C   0  0  0  0  0  0  0  0  0  0  0  0
   22.2914  -17.2221  -16.5284 O   0  0  0  0  0  0  0  0  0  0  0  0
   22.0666  -19.4989  -14.5480 C   0  0  0  0  0  0  0  0  0  0  0  0
   21.7115  -20.7011  -14.8000 O   0  0  0  0  0  0  0  0  0  0  0  0
   23.0378  -18.1701  -18.4432 O   0  0  0  0  0  0  0  0  0  0  0  0
   21.0526  -18.6506  -14.0314 N   0  0  0  0  0  0  0  0  0  0  0  0
   19.7559  -19.1877  -13.6626 C   0  0  0  0  0  0  0  0  0  0  0  0
   18.7792  -18.9755  -14.7472 C   0  0  0  0  0  0  0  0  0  0  0  0
   17.4260  -19.2436  -14.6409 O   0  0  0  0  0  0  0  0  0  0  0  0
   19.1846  -18.5199  -15.8531 O   0  0  0  0  0  0  0  0  0  0  0  0
  2  1  1  0
  3  2  1  0
  4  3  1  0
  4  5  1  0
  5  6  1  6
  7  8  2  0
  7  5  1  0
  9  7  1  0
 10  9  1  0
 10 14  1  0
 10 11  1  6
 12 16  1  0
 12 11  1  0
 13 12  2  0
 14 15  2  0
 14 17  1  0
 17 18  1  0
 19 18  1  0
 19 20  1  0
 21 19  2  0
M  END
$$$$
