MDG.pdb
     RDKit          3D

 21 20  0  0  1  0  0  0  0  0999 V2000
   19.0773  -12.1991  -14.3773 C   0  0  0  0  0  0  0  0  0  0  0  0
   18.0596  -12.1889  -15.8863 S   0  0  0  0  0  0  0  0  0  0  0  0
   18.8781  -11.0668  -17.0851 C   0  0  0  0  0  0  0  0  0  0  0  0
   19.4031   -9.9096  -16.3021 C   0  0  0  0  0  0  0  0  0  0  0  0
   20.1735   -8.9076  -17.1133 C   0  0  2  0  0  0  0  0  0  0  0  0
   21.4632   -9.3480  -17.5378 N   0  0  0  0  0  0  0  0  0  0  0  0
   20.2342   -7.5790  -16.4543 C   0  0  0  0  0  0  0  0  0  0  0  0
   19.1624   -7.0433  -16.0717 O   0  0  0  0  0  0  0  0  0  0  0  0
   21.4382   -6.8601  -16.2224 N   0  0  0  0  0  0  0  0  0  0  0  0
   21.4550   -5.5168  -15.6535 C   0  0  1  0  0  0  0  0  0  0  0  0
   22.3326   -5.5702  -14.4333 C   0  0  0  0  0  0  0  0  0  0  0  0
   21.8175   -6.3283  -13.3024 C   0  0  0  0  0  0  0  0  0  0  0  0
   20.8277   -5.8961  -12.6583 O   0  0  0  0  0  0  0  0  0  0  0  0
   21.7922   -4.4943  -16.6347 C   0  0  0  0  0  0  0  0  0  0  0  0
   22.7161   -4.7053  -17.4931 O   0  0  0  0  0  0  0  0  0  0  0  0
   22.3817   -7.5233  -12.9023 O   0  0  0  0  0  0  0  0  0  0  0  0
   21.1480   -3.2323  -16.7179 N   0  0  0  0  0  0  0  0  0  0  0  0
   21.5942   -2.2357  -17.6738 C   0  0  0  0  0  0  0  0  0  0  0  0
   20.7309   -1.0412  -17.6189 C   0  0  0  0  0  0  0  0  0  0  0  0
   20.9477    0.1116  -18.3527 O   0  0  0  0  0  0  0  0  0  0  0  0
   19.7228   -1.0513  -16.8582 O   0  0  0  0  0  0  0  0  0  0  0  0
  2  1  1  0
  3  2  1  0
  4  3  1  0
  4  5  1  0
  5  6  1  1
  7  8  2  0
  7  5  1  0
  9  7  1  0
 10  9  1  0
 10 14  1  0
 10 11  1  1
 12 16  1  0
 12 11  1  0
 13 12  2  0
 14 15  2  0
 14 17  1  0
 17 18  1  0
 19 18  1  0
 19 20  1  0
 21 19  2  0
M  END
$$$$
