MDG.pdb
     RDKit          3D

 21 20  0  0  1  0  0  0  0  0999 V2000
   28.4030  -13.9161  -15.1486 C   0  0  0  0  0  0  0  0  0  0  0  0
   27.2530  -12.6987  -15.8616 S   0  0  0  0  0  0  0  0  0  0  0  0
   27.7006  -11.0595  -15.1698 C   0  0  0  0  0  0  0  0  0  0  0  0
   26.7255  -10.0764  -15.7272 C   0  0  0  0  0  0  0  0  0  0  0  0
   25.4550  -10.6861  -16.2464 C   0  0  2  0  0  0  0  0  0  0  0  0
   25.6272  -11.5774  -17.3480 N   0  0  0  0  0  0  0  0  0  0  0  0
   24.4135   -9.6651  -16.5213 C   0  0  0  0  0  0  0  0  0  0  0  0
   24.4104   -9.0889  -17.6394 O   0  0  0  0  0  0  0  0  0  0  0  0
   23.4043   -9.2882  -15.5940 N   0  0  0  0  0  0  0  0  0  0  0  0
   22.4275   -8.2421  -15.8767 C   0  0  1  0  0  0  0  0  0  0  0  0
   21.1164   -8.9292  -16.1430 C   0  0  0  0  0  0  0  0  0  0  0  0
   19.9919   -8.0652  -16.4720 C   0  0  0  0  0  0  0  0  0  0  0  0
   19.0118   -7.9883  -15.6880 O   0  0  0  0  0  0  0  0  0  0  0  0
   22.4046   -7.2028  -14.8563 C   0  0  0  0  0  0  0  0  0  0  0  0
   22.2573   -7.5128  -13.6245 O   0  0  0  0  0  0  0  0  0  0  0  0
   19.9584   -7.3140  -17.6300 O   0  0  0  0  0  0  0  0  0  0  0  0
   22.5413   -5.8173  -15.1325 N   0  0  0  0  0  0  0  0  0  0  0  0
   22.5992   -4.8499  -14.0524 C   0  0  0  0  0  0  0  0  0  0  0  0
   21.2738   -4.2431  -13.8280 C   0  0  0  0  0  0  0  0  0  0  0  0
   20.1994   -4.9050  -13.2608 O   0  0  0  0  0  0  0  0  0  0  0  0
   21.0873   -3.0414  -14.1689 O   0  0  0  0  0  0  0  0  0  0  0  0
  2  1  1  0
  3  2  1  0
  4  3  1  0
  4  5  1  0
  5  6  1  6
  7  8  2  0
  7  5  1  0
  9  7  1  0
 10  9  1  0
 10 14  1  0
 10 11  1  1
 12 16  1  0
 12 11  1  0
 13 12  2  0
 14 15  2  0
 14 17  1  0
 17 18  1  0
 19 18  1  0
 19 20  1  0
 21 19  2  0
M  END
$$$$
