MDG.pdb
     RDKit          3D

 21 20  0  0  1  0  0  0  0  0999 V2000
   29.7792  -19.5594   -5.4927 C   0  0  0  0  0  0  0  0  0  0  0  0
   28.2941  -20.5739   -5.2130 S   0  0  0  0  0  0  0  0  0  0  0  0
   26.9400  -19.8401   -6.2099 C   0  0  0  0  0  0  0  0  0  0  0  0
   27.0703  -20.3971   -7.5887 C   0  0  0  0  0  0  0  0  0  0  0  0
   26.1069  -19.8206   -8.5863 C   0  0  2  0  0  0  0  0  0  0  0  0
   24.7500  -19.7706   -8.1459 N   0  0  0  0  0  0  0  0  0  0  0  0
   26.2302  -20.4599   -9.9201 C   0  0  0  0  0  0  0  0  0  0  0  0
   27.3785  -20.7131  -10.3665 O   0  0  0  0  0  0  0  0  0  0  0  0
   25.1231  -20.8108  -10.7396 N   0  0  0  0  0  0  0  0  0  0  0  0
   25.2707  -21.1905  -12.1405 C   0  0  1  0  0  0  0  0  0  0  0  0
   23.9315  -21.6992  -12.5985 C   0  0  0  0  0  0  0  0  0  0  0  0
   23.6961  -23.1268  -12.4386 C   0  0  0  0  0  0  0  0  0  0  0  0
   22.5681  -23.6095  -12.7144 O   0  0  0  0  0  0  0  0  0  0  0  0
   25.8602  -20.1334  -12.9510 C   0  0  0  0  0  0  0  0  0  0  0  0
   25.3890  -18.9457  -12.9020 O   0  0  0  0  0  0  0  0  0  0  0  0
   24.6785  -23.9864  -11.9889 O   0  0  0  0  0  0  0  0  0  0  0  0
   26.9627  -20.3251  -13.8241 N   0  0  0  0  0  0  0  0  0  0  0  0
   27.5284  -19.2079  -14.5574 C   0  0  0  0  0  0  0  0  0  0  0  0
   28.6286  -19.6628  -15.4280 C   0  0  0  0  0  0  0  0  0  0  0  0
   29.3159  -18.8449  -16.3072 O   0  0  0  0  0  0  0  0  0  0  0  0
   28.9814  -20.8746  -15.3829 O   0  0  0  0  0  0  0  0  0  0  0  0
  2  1  1  0
  3  2  1  0
  4  3  1  0
  4  5  1  0
  5  6  1  1
  7  8  2  0
  7  5  1  0
  9  7  1  0
 10  9  1  0
 10 14  1  0
 10 11  1  6
 12 16  1  0
 12 11  1  0
 13 12  2  0
 14 15  2  0
 14 17  1  0
 17 18  1  0
 19 18  1  0
 19 20  1  0
 21 19  2  0
M  END
$$$$
