MDG.pdb
     RDKit          3D

 21 20  0  0  1  0  0  0  0  0999 V2000
   25.6372  -16.6914  -16.7700 C   0  0  0  0  0  0  0  0  0  0  0  0
   27.4064  -16.4677  -16.4052 S   0  0  0  0  0  0  0  0  0  0  0  0
   28.0554  -18.0916  -15.8501 C   0  0  0  0  0  0  0  0  0  0  0  0
   26.9126  -18.8211  -15.2258 C   0  0  0  0  0  0  0  0  0  0  0  0
   27.2889  -20.1130  -14.5588 C   0  0  2  0  0  0  0  0  0  0  0  0
   27.9654  -21.0453  -15.4018 N   0  0  0  0  0  0  0  0  0  0  0  0
   26.1403  -20.7379  -13.8565 C   0  0  0  0  0  0  0  0  0  0  0  0
   25.7198  -21.8537  -14.2571 O   0  0  0  0  0  0  0  0  0  0  0  0
   25.4730  -20.1533  -12.7460 N   0  0  0  0  0  0  0  0  0  0  0  0
   24.3619  -20.8069  -12.0629 C   0  0  1  0  0  0  0  0  0  0  0  0
   24.5426  -20.5516  -10.5918 C   0  0  0  0  0  0  0  0  0  0  0  0
   25.6313  -21.2676   -9.9430 C   0  0  0  0  0  0  0  0  0  0  0  0
   26.2595  -22.1557  -10.5739 O   0  0  0  0  0  0  0  0  0  0  0  0
   23.0660  -20.4393  -12.6173 C   0  0  0  0  0  0  0  0  0  0  0  0
   21.9896  -20.8755  -12.0825 O   0  0  0  0  0  0  0  0  0  0  0  0
   26.0081  -21.0059   -8.6408 O   0  0  0  0  0  0  0  0  0  0  0  0
   22.8972  -19.5988  -13.7486 N   0  0  0  0  0  0  0  0  0  0  0  0
   21.5734  -19.1702  -14.1606 C   0  0  0  0  0  0  0  0  0  0  0  0
   21.0910  -19.9884  -15.2888 C   0  0  0  0  0  0  0  0  0  0  0  0
   19.8846  -19.7893  -15.9362 O   0  0  0  0  0  0  0  0  0  0  0  0
   21.8118  -20.9378  -15.7062 O   0  0  0  0  0  0  0  0  0  0  0  0
  2  1  1  0
  3  2  1  0
  4  3  1  0
  4  5  1  0
  5  6  1  6
  7  8  2  0
  7  5  1  0
  9  7  1  0
 10  9  1  0
 10 14  1  0
 10 11  1  1
 12 16  1  0
 12 11  1  0
 13 12  2  0
 14 15  2  0
 14 17  1  0
 17 18  1  0
 19 18  1  0
 19 20  1  0
 21 19  2  0
M  END
$$$$
