MDG.pdb
     RDKit          3D

 21 20  0  0  1  0  0  0  0  0999 V2000
   27.1453   -9.5680  -17.4047 C   0  0  0  0  0  0  0  0  0  0  0  0
   27.0230   -9.7463  -15.5975 S   0  0  0  0  0  0  0  0  0  0  0  0
   25.4114  -10.5464  -15.2390 C   0  0  0  0  0  0  0  0  0  0  0  0
   24.3509   -9.5669  -15.6184 C   0  0  0  0  0  0  0  0  0  0  0  0
   22.9507  -10.1043  -15.5401 C   0  0  2  0  0  0  0  0  0  0  0  0
   22.7289  -11.3034  -16.2821 N   0  0  0  0  0  0  0  0  0  0  0  0
   21.9335   -9.0686  -15.8496 C   0  0  0  0  0  0  0  0  0  0  0  0
   21.3775   -9.0840  -16.9778 O   0  0  0  0  0  0  0  0  0  0  0  0
   21.5387   -8.0456  -14.9453 N   0  0  0  0  0  0  0  0  0  0  0  0
   20.5994   -6.9913  -15.3119 C   0  0  1  0  0  0  0  0  0  0  0  0
   19.3049   -7.2960  -14.6094 C   0  0  0  0  0  0  0  0  0  0  0  0
   18.1926   -6.4006  -14.8923 C   0  0  0  0  0  0  0  0  0  0  0  0
   18.2638   -5.1900  -14.5595 O   0  0  0  0  0  0  0  0  0  0  0  0
   21.1402   -5.6560  -15.0967 C   0  0  0  0  0  0  0  0  0  0  0  0
   21.6643   -5.3469  -13.9721 O   0  0  0  0  0  0  0  0  0  0  0  0
   17.0433   -6.8349  -15.5224 O   0  0  0  0  0  0  0  0  0  0  0  0
   21.1333   -4.6303  -16.0778 N   0  0  0  0  0  0  0  0  0  0  0  0
   21.6633   -3.3137  -15.7752 C   0  0  0  0  0  0  0  0  0  0  0  0
   23.1109   -3.2610  -16.0523 C   0  0  0  0  0  0  0  0  0  0  0  0
   23.8816   -2.1159  -15.9572 O   0  0  0  0  0  0  0  0  0  0  0  0
   23.7045   -4.3200  -16.4005 O   0  0  0  0  0  0  0  0  0  0  0  0
  2  1  1  0
  3  2  1  0
  4  3  1  0
  4  5  1  0
  5  6  1  6
  7  8  2  0
  7  5  1  0
  9  7  1  0
 10  9  1  0
 10 14  1  0
 10 11  1  1
 12 16  1  0
 12 11  1  0
 13 12  2  0
 14 15  2  0
 14 17  1  0
 17 18  1  0
 19 18  1  0
 19 20  1  0
 21 19  2  0
M  END
$$$$
