RLG.pdb
     RDKit          3D

 24 23  0  0  1  0  0  0  0  0999 V2000
    7.4107  -14.0530   15.7414 N   0  0  0  0  0  0  0  0  0  0  0  0
    7.8381  -13.4775   16.9912 C   0  0  0  0  0  0  0  0  0  0  0  0
    8.8132  -12.6428   16.9433 N   0  0  0  0  0  0  0  0  0  0  0  0
    7.1725  -13.8592   18.1630 N   0  0  0  0  0  0  0  0  0  0  0  0
    7.9089  -13.8086   19.4341 C   0  0  0  0  0  0  0  0  0  0  0  0
    8.5893  -15.1029   19.7091 C   0  0  0  0  0  0  0  0  0  0  0  0
    9.3937  -15.1878   20.9572 C   0  0  0  0  0  0  0  0  0  0  0  0
    8.7295  -15.9465   22.0526 C   0  0  2  0  0  0  0  0  0  0  0  0
    7.2901  -16.0121   21.9446 N   0  0  0  0  0  0  0  0  0  0  0  0
    9.0467  -15.3895   23.3986 C   0  0  0  0  0  0  0  0  0  0  0  0
   10.0194  -14.6114   23.5405 O   0  0  0  0  0  0  0  0  0  0  0  0
    9.2023  -12.1541   17.7614 C   0  0  0  0  0  0  0  0  0  0  0  0
    8.2175  -12.1485   25.7623 C   0  0  2  0  0  0  0  0  0  0  0  0
    7.1002  -13.2165   25.6929 C   0  0  0  0  0  0  0  0  0  0  0  0
    5.8882  -12.5691   26.2558 C   0  0  0  0  0  0  0  0  0  0  0  0
    7.5899  -14.3742   26.4606 C   0  0  2  0  0  0  0  0  0  0  0  0
    8.6407  -15.2398   25.9000 N   0  0  0  0  0  0  0  0  0  0  0  0
    8.2812  -15.7071   24.5511 C   0  0  0  0  0  0  0  0  0  0  0  0
    9.0159  -16.3801   26.7497 O   0  0  0  0  0  0  0  0  0  0  0  0
    9.4102  -16.2844   27.9409 N   0  0  0  0  0  0  0  0  0  0  0  0
    8.9045  -17.6865   26.1673 C   0  0  0  0  0  0  0  0  0  0  0  0
    9.8485  -18.7192   26.3189 C   0  0  0  0  0  0  0  0  0  0  0  0
   11.1739  -18.3942   26.8652 O   0  0  0  0  0  0  0  0  0  0  0  0
   11.6617  -19.2401   27.8996 O   0  0  0  0  0  0  0  0  0  0  0  0
  1  2  1  0
  2  4  1  0
  3  2  2  0
  4  5  1  0
  5  6  1  0
  7  8  1  0
  7  6  1  0
  8  9  1  6
  8 10  1  0
 10 11  2  0
 13 12  1  6
 13 15  1  0
 14 13  1  0
 16 15  1  6
 16 18  1  0
 17 10  1  0
 17 16  1  0
 18 19  2  0
 20 21  1  0
 20 18  1  0
 21 22  1  0
 22 24  2  0
 22 23  1  0
M  END
$$$$
