RLG.pdb
     RDKit          3D

 24 23  0  0  1  0  0  0  0  0999 V2000
    7.8495  -17.4963   16.2264 N   0  0  0  0  0  0  0  0  0  0  0  0
    8.6318  -18.6105   16.6983 C   0  0  0  0  0  0  0  0  0  0  0  0
    9.2667  -19.2910   15.8131 N   0  0  0  0  0  0  0  0  0  0  0  0
    8.6500  -18.8773   18.0732 N   0  0  0  0  0  0  0  0  0  0  0  0
    8.0996  -17.8682   18.9892 C   0  0  0  0  0  0  0  0  0  0  0  0
    8.9543  -16.6506   19.0185 C   0  0  0  0  0  0  0  0  0  0  0  0
    8.7330  -15.7006   20.1412 C   0  0  0  0  0  0  0  0  0  0  0  0
    8.5725  -16.3599   21.4665 C   0  0  2  0  0  0  0  0  0  0  0  0
    7.2763  -16.9617   21.6798 N   0  0  0  0  0  0  0  0  0  0  0  0
    8.8149  -15.4200   22.5980 C   0  0  0  0  0  0  0  0  0  0  0  0
    9.9050  -14.8062   22.6791 O   0  0  0  0  0  0  0  0  0  0  0  0
    9.8597  -20.1065   16.0203 C   0  0  0  0  0  0  0  0  0  0  0  0
    5.4668  -12.3528   26.6914 C   0  0  1  0  0  0  0  0  0  0  0  0
    6.9345  -12.7296   26.3790 C   0  0  0  0  0  0  0  0  0  0  0  0
    7.6324  -11.4462   26.1135 C   0  0  0  0  0  0  0  0  0  0  0  0
    6.8868  -13.6509   25.2307 C   0  0  2  0  0  0  0  0  0  0  0  0
    8.1112  -14.3347   24.7824 N   0  0  0  0  0  0  0  0  0  0  0  0
    7.8469  -15.1836   23.6091 C   0  0  0  0  0  0  0  0  0  0  0  0
    8.7996  -15.1096   25.8258 O   0  0  0  0  0  0  0  0  0  0  0  0
    9.2541  -14.6238   26.8940 N   0  0  0  0  0  0  0  0  0  0  0  0
    8.9409  -16.5192   25.5990 C   0  0  0  0  0  0  0  0  0  0  0  0
    9.5350  -17.4242   26.4983 C   0  0  0  0  0  0  0  0  0  0  0  0
   11.0005  -17.4581   26.6063 O   0  0  0  0  0  0  0  0  0  0  0  0
   11.5741  -16.7710   27.7119 O   0  0  0  0  0  0  0  0  0  0  0  0
  1  2  1  0
  2  4  1  0
  3  2  2  0
  4  5  1  0
  5  6  1  0
  7  8  1  0
  7  6  1  0
  8  9  1  1
  8 10  1  0
 10 11  2  0
 13 12  1  1
 13 15  1  0
 14 13  1  0
 16 15  1  6
 16 18  1  0
 17 10  1  0
 17 16  1  0
 18 19  2  0
 20 21  1  0
 20 18  1  0
 21 22  1  0
 22 24  2  0
 22 23  1  0
M  END
$$$$
