RLG.pdb
     RDKit          3D

 24 23  0  0  1  0  0  0  0  0999 V2000
    9.4974  -14.0470   16.9744 N   0  0  0  0  0  0  0  0  0  0  0  0
    8.0951  -13.8771   16.6907 C   0  0  0  0  0  0  0  0  0  0  0  0
    7.6818  -14.2774   15.5424 N   0  0  0  0  0  0  0  0  0  0  0  0
    7.2825  -13.2944   17.6715 N   0  0  0  0  0  0  0  0  0  0  0  0
    7.8877  -12.9447   18.9645 C   0  0  0  0  0  0  0  0  0  0  0  0
    8.4761  -14.1436   19.6205 C   0  0  0  0  0  0  0  0  0  0  0  0
    9.0396  -13.9555   20.9840 C   0  0  0  0  0  0  0  0  0  0  0  0
    8.8256  -15.1169   21.8907 C   0  0  2  0  0  0  0  0  0  0  0  0
    7.4700  -15.6167   21.9095 N   0  0  0  0  0  0  0  0  0  0  0  0
    9.2032  -14.8103   23.3000 C   0  0  0  0  0  0  0  0  0  0  0  0
   10.3123  -14.2820   23.5499 O   0  0  0  0  0  0  0  0  0  0  0  0
    6.7089  -14.2019   15.2147 C   0  0  0  0  0  0  0  0  0  0  0  0
    7.9669  -11.7084   26.2108 C   0  0  2  0  0  0  0  0  0  0  0  0
    6.8914  -12.7757   25.8976 C   0  0  0  0  0  0  0  0  0  0  0  0
    5.6571  -12.3179   26.5843 C   0  0  0  0  0  0  0  0  0  0  0  0
    7.4279  -14.0564   26.3892 C   0  0  2  0  0  0  0  0  0  0  0  0
    8.6268  -14.6415   25.7665 N   0  0  0  0  0  0  0  0  0  0  0  0
    8.3457  -15.0957   24.3947 C   0  0  0  0  0  0  0  0  0  0  0  0
    9.2564  -15.7220   26.5407 O   0  0  0  0  0  0  0  0  0  0  0  0
    9.4465  -15.6928   27.7843 N   0  0  0  0  0  0  0  0  0  0  0  0
    9.6629  -16.8891   25.8121 C   0  0  0  0  0  0  0  0  0  0  0  0
   10.2470  -18.0339   26.3856 C   0  0  0  0  0  0  0  0  0  0  0  0
   10.4986  -19.2047   25.5333 O   0  0  0  0  0  0  0  0  0  0  0  0
   11.0193  -20.3615   26.1770 O   0  0  0  0  0  0  0  0  0  0  0  0
  1  2  1  0
  2  4  1  0
  3  2  2  0
  4  5  1  0
  5  6  1  0
  7  8  1  0
  7  6  1  0
  8  9  1  1
  8 10  1  0
 10 11  2  0
 13 12  1  6
 13 15  1  0
 14 13  1  0
 16 15  1  6
 16 18  1  0
 17 10  1  0
 17 16  1  0
 18 19  2  0
 20 21  1  0
 20 18  1  0
 21 22  1  0
 22 24  2  0
 22 23  1  0
M  END
$$$$
