RLG.pdb
     RDKit          3D

 24 23  0  0  1  0  0  0  0  0999 V2000
   12.9029  -19.9765   21.9016 N   0  0  0  0  0  0  0  0  0  0  0  0
   12.4589  -19.8819   20.5342 C   0  0  0  0  0  0  0  0  0  0  0  0
   13.1066  -20.5696   19.6640 N   0  0  0  0  0  0  0  0  0  0  0  0
   11.3642  -19.0575   20.2444 N   0  0  0  0  0  0  0  0  0  0  0  0
   10.7966  -18.2416   21.3272 C   0  0  0  0  0  0  0  0  0  0  0  0
    9.3178  -18.3928   21.3911 C   0  0  0  0  0  0  0  0  0  0  0  0
    8.6198  -17.7090   22.5123 C   0  0  0  0  0  0  0  0  0  0  0  0
    7.9231  -16.4549   22.1140 C   0  0  2  0  0  0  0  0  0  0  0  0
    8.1575  -16.0513   20.7466 N   0  0  0  0  0  0  0  0  0  0  0  0
    8.2928  -15.3025   22.9845 C   0  0  0  0  0  0  0  0  0  0  0  0
    9.2352  -14.5450   22.6532 O   0  0  0  0  0  0  0  0  0  0  0  0
   12.8582  -20.6298   18.6669 C   0  0  0  0  0  0  0  0  0  0  0  0
    5.5050  -11.9019   27.2004 C   0  0  1  0  0  0  0  0  0  0  0  0
    6.9236  -12.1845   26.6511 C   0  0  0  0  0  0  0  0  0  0  0  0
    7.3839  -10.9083   26.0478 C   0  0  0  0  0  0  0  0  0  0  0  0
    6.7806  -13.2977   25.6971 C   0  0  2  0  0  0  0  0  0  0  0  0
    7.9738  -13.8879   25.0682 N   0  0  0  0  0  0  0  0  0  0  0  0
    7.6117  -15.0181   24.1972 C   0  0  0  0  0  0  0  0  0  0  0  0
    9.0297  -14.2898   26.0099 O   0  0  0  0  0  0  0  0  0  0  0  0
    9.5783  -13.5191   26.8397 N   0  0  0  0  0  0  0  0  0  0  0  0
    9.4400  -15.6641   25.9752 C   0  0  0  0  0  0  0  0  0  0  0  0
   10.3934  -16.2420   26.8341 C   0  0  0  0  0  0  0  0  0  0  0  0
   10.7212  -17.6660   26.6746 O   0  0  0  0  0  0  0  0  0  0  0  0
   11.8649  -17.9723   25.8862 O   0  0  0  0  0  0  0  0  0  0  0  0
  1  2  1  0
  2  4  1  0
  3  2  2  0
  4  5  1  0
  5  6  1  0
  7  8  1  0
  7  6  1  0
  8  9  1  6
  8 10  1  0
 10 11  2  0
 13 12  1  1
 13 15  1  0
 14 13  1  0
 16 15  1  6
 16 18  1  0
 17 10  1  0
 17 16  1  0
 18 19  2  0
 20 21  1  0
 20 18  1  0
 21 22  1  0
 22 24  2  0
 22 23  1  0
M  END
$$$$
