RLG.pdb
     RDKit          3D

 24 23  0  0  1  0  0  0  0  0999 V2000
   11.5506  -21.5203   21.2330 N   0  0  0  0  0  0  0  0  0  0  0  0
   11.0856  -21.3735   19.8773 C   0  0  0  0  0  0  0  0  0  0  0  0
   10.8938  -22.4533   19.2086 N   0  0  0  0  0  0  0  0  0  0  0  0
   10.8750  -20.0807   19.3811 N   0  0  0  0  0  0  0  0  0  0  0  0
   11.1596  -18.9385   20.2613 C   0  0  0  0  0  0  0  0  0  0  0  0
    9.9711  -18.5908   21.0863 C   0  0  0  0  0  0  0  0  0  0  0  0
   10.1223  -17.4598   22.0401 C   0  0  0  0  0  0  0  0  0  0  0  0
    9.2530  -16.2908   21.7326 C   0  0  2  0  0  0  0  0  0  0  0  0
    9.5303  -15.6594   20.4628 N   0  0  0  0  0  0  0  0  0  0  0  0
    9.3372  -15.2331   22.7798 C   0  0  0  0  0  0  0  0  0  0  0  0
   10.4037  -14.5938   22.9392 O   0  0  0  0  0  0  0  0  0  0  0  0
   10.5292  -22.4856   18.2464 C   0  0  0  0  0  0  0  0  0  0  0  0
    5.9428  -12.1086   26.7968 C   0  0  1  0  0  0  0  0  0  0  0  0
    7.3243  -12.7896   26.6499 C   0  0  0  0  0  0  0  0  0  0  0  0
    8.3222  -11.6910   26.6956 C   0  0  0  0  0  0  0  0  0  0  0  0
    7.2845  -13.5296   25.3769 C   0  0  2  0  0  0  0  0  0  0  0  0
    8.4130  -14.3920   24.9895 N   0  0  0  0  0  0  0  0  0  0  0  0
    8.2413  -14.9105   23.6225 C   0  0  0  0  0  0  0  0  0  0  0  0
    8.6907  -15.4961   25.9207 O   0  0  0  0  0  0  0  0  0  0  0  0
    7.8415  -16.3461   26.2948 N   0  0  0  0  0  0  0  0  0  0  0  0
   10.0330  -15.6042   26.4157 C   0  0  0  0  0  0  0  0  0  0  0  0
   10.4987  -16.6256   27.2644 C   0  0  0  0  0  0  0  0  0  0  0  0
   10.5049  -16.3941   28.7160 O   0  0  0  0  0  0  0  0  0  0  0  0
   11.0030  -17.4507   29.5277 O   0  0  0  0  0  0  0  0  0  0  0  0
  1  2  1  0
  2  4  1  0
  3  2  2  0
  4  5  1  0
  5  6  1  0
  7  8  1  0
  7  6  1  0
  8  9  1  6
  8 10  1  0
 10 11  2  0
 13 12  1  1
 13 15  1  0
 14 13  1  0
 16 15  1  6
 16 18  1  0
 17 10  1  0
 17 16  1  0
 18 19  2  0
 20 21  1  0
 20 18  1  0
 21 22  1  0
 22 24  2  0
 22 23  1  0
M  END
$$$$
