RLG.pdb
     RDKit          3D

 24 23  0  0  1  0  0  0  0  0999 V2000
    8.5345  -13.9581   16.9844 N   0  0  0  0  0  0  0  0  0  0  0  0
    8.0858  -13.3933   18.2316 C   0  0  0  0  0  0  0  0  0  0  0  0
    8.5229  -12.2230   18.5301 N   0  0  0  0  0  0  0  0  0  0  0  0
    7.2136  -14.1456   19.0285 N   0  0  0  0  0  0  0  0  0  0  0  0
    7.6943  -15.4197   19.5817 C   0  0  0  0  0  0  0  0  0  0  0  0
    9.1812  -15.4559   19.6255 C   0  0  0  0  0  0  0  0  0  0  0  0
    9.8025  -16.2780   20.6979 C   0  0  0  0  0  0  0  0  0  0  0  0
    8.8832  -16.5923   21.8261 C   0  0  2  0  0  0  0  0  0  0  0  0
    7.4799  -16.5171   21.4904 N   0  0  0  0  0  0  0  0  0  0  0  0
    9.1051  -15.7012   23.0005 C   0  0  0  0  0  0  0  0  0  0  0  0
   10.2656  -15.3273   23.2920 O   0  0  0  0  0  0  0  0  0  0  0  0
    8.2402  -11.6911   19.3649 C   0  0  0  0  0  0  0  0  0  0  0  0
    5.4897  -12.3546   26.7052 C   0  0  1  0  0  0  0  0  0  0  0  0
    6.9738  -12.7252   26.4726 C   0  0  0  0  0  0  0  0  0  0  0  0
    7.6699  -11.4442   26.1912 C   0  0  0  0  0  0  0  0  0  0  0  0
    6.9870  -13.6883   25.3581 C   0  0  2  0  0  0  0  0  0  0  0  0
    8.2441  -14.3481   24.9684 N   0  0  0  0  0  0  0  0  0  0  0  0
    8.0392  -15.2473   23.8210 C   0  0  0  0  0  0  0  0  0  0  0  0
    8.9272  -15.0619   26.0579 O   0  0  0  0  0  0  0  0  0  0  0  0
    9.6153  -14.5078   26.9540 N   0  0  0  0  0  0  0  0  0  0  0  0
    8.7751  -16.4880   26.0935 C   0  0  0  0  0  0  0  0  0  0  0  0
    9.2079  -17.3182   27.1444 C   0  0  0  0  0  0  0  0  0  0  0  0
   10.5856  -17.8303   27.1226 O   0  0  0  0  0  0  0  0  0  0  0  0
   10.9649  -18.6845   28.1950 O   0  0  0  0  0  0  0  0  0  0  0  0
  1  2  1  0
  2  4  1  0
  3  2  2  0
  4  5  1  0
  5  6  1  0
  7  8  1  0
  7  6  1  0
  8  9  1  6
  8 10  1  0
 10 11  2  0
 13 12  1  1
 13 15  1  0
 14 13  1  0
 16 15  1  6
 16 18  1  0
 17 10  1  0
 17 16  1  0
 18 19  2  0
 20 21  1  0
 20 18  1  0
 21 22  1  0
 22 24  2  0
 22 23  1  0
M  END
$$$$
