QFR.pdb
     RDKit          3D

 32 32  0  0  1  0  0  0  0  0999 V2000
   10.8322  -16.4117   15.9813 N   0  0  0  0  0  0  0  0  0  0  0  0
    9.4439  -16.6725   15.9474 C   0  0  0  0  0  0  0  0  0  0  0  0
    8.8900  -16.9770   14.8598 O   0  0  0  0  0  0  0  0  0  0  0  0
    8.6531  -16.5863   17.1869 C   0  0  0  0  0  0  0  0  0  0  0  0
    9.5424  -16.1963   18.3619 C   0  0  0  0  0  0  0  0  0  0  0  0
    8.9418  -16.8600   19.5849 C   0  0  2  0  0  0  0  0  0  0  0  0
    7.5111  -17.0094   19.4672 N   0  0  0  0  0  0  0  0  0  0  0  0
    9.2101  -16.0063   20.7791 C   0  0  0  0  0  0  0  0  0  0  0  0
   10.3315  -15.5267   21.0221 O   0  0  0  0  0  0  0  0  0  0  0  0
    8.1459  -15.7268   21.6776 N   0  0  0  0  0  0  0  0  0  0  0  0
    8.3717  -15.0122   22.9592 C   0  0  1  0  0  0  0  0  0  0  0  0
    7.2013  -14.1435   23.1262 C   0  0  0  0  0  0  0  0  0  0  0  0
    6.9843  -13.4172   24.3462 C   0  0  0  0  0  0  0  0  0  0  0  0
    6.2412  -13.9145   25.4223 C   0  0  0  0  0  0  0  0  0  0  0  0
    6.0830  -13.1792   26.5769 C   0  0  0  0  0  0  0  0  0  0  0  0
    6.6377  -11.9413   26.7269 C   0  0  0  0  0  0  0  0  0  0  0  0
    7.3725  -11.4367   25.6766 C   0  0  0  0  0  0  0  0  0  0  0  0
    7.5341  -12.1681   24.5189 C   0  0  0  0  0  0  0  0  0  0  0  0
    8.5901  -16.0590   23.9729 C   0  0  0  0  0  0  0  0  0  0  0  0
    7.9847  -17.1834   23.8486 O   0  0  0  0  0  0  0  0  0  0  0  0
   15.3615  -19.2548   24.1119 N   0  0  0  0  0  0  0  0  0  0  0  0
   14.8840  -20.4303   24.8077 C   0  0  0  0  0  0  0  0  0  0  0  0
   15.7160  -21.2905   25.2365 N   0  0  0  0  0  0  0  0  0  0  0  0
   13.4881  -20.5771   24.9894 N   0  0  0  0  0  0  0  0  0  0  0  0
   12.5627  -19.5968   24.4925 C   0  0  0  0  0  0  0  0  0  0  0  0
   12.2947  -18.4473   25.4383 C   0  0  0  0  0  0  0  0  0  0  0  0
   11.3495  -17.4439   24.8561 C   0  0  0  0  0  0  0  0  0  0  0  0
   10.1169  -17.1619   25.6400 C   0  0  2  0  0  0  0  0  0  0  0  0
    9.4263  -15.9681   25.1109 N   0  0  0  0  0  0  0  0  0  0  0  0
   10.4623  -16.9017   27.0556 C   0  0  0  0  0  0  0  0  0  0  0  0
   10.9181  -17.8893   27.8977 O   0  0  0  0  0  0  0  0  0  0  0  0
   10.3559  -15.7512   27.5725 O   0  0  0  0  0  0  0  0  0  0  0  0
  1  2  1  0
  2  4  1  0
  3  2  2  0
  4  5  1  0
  6  7  1  6
  6  5  1  0
  8  9  2  0
  8  6  1  0
 10  8  1  0
 11 10  1  0
 11 12  1  1
 13 14  2  0
 13 12  1  0
 15 14  1  0
 16 15  2  0
 17 16  1  0
 17 18  2  0
 18 13  1  0
 19 20  2  0
 19 11  1  0
 22 23  2  0
 22 21  1  0
 24 22  1  0
 25 24  1  0
 26 27  1  0
 26 25  1  0
 28 29  1  0
 28 27  1  6
 29 19  1  0
 30 28  1  0
 31 30  1  0
 32 30  2  0
M  END
$$$$
