QFR.pdb
     RDKit          3D

 32 32  0  0  1  0  0  0  0  0999 V2000
    9.4126  -19.9599   16.7915 N   0  0  0  0  0  0  0  0  0  0  0  0
    9.3974  -19.5303   18.1374 C   0  0  0  0  0  0  0  0  0  0  0  0
    9.1117  -20.3453   19.0521 O   0  0  0  0  0  0  0  0  0  0  0  0
    9.7165  -18.1295   18.4616 C   0  0  0  0  0  0  0  0  0  0  0  0
    9.6391  -17.8986   19.9663 C   0  0  0  0  0  0  0  0  0  0  0  0
    8.7685  -16.6735   20.1615 C   0  0  2  0  0  0  0  0  0  0  0  0
    8.9067  -15.7368   19.0721 N   0  0  0  0  0  0  0  0  0  0  0  0
    9.1883  -15.9764   21.4125 C   0  0  0  0  0  0  0  0  0  0  0  0
   10.3625  -15.9832   21.8220 O   0  0  0  0  0  0  0  0  0  0  0  0
    8.2120  -15.2755   22.1698 N   0  0  0  0  0  0  0  0  0  0  0  0
    8.5404  -14.6370   23.4693 C   0  0  1  0  0  0  0  0  0  0  0  0
    7.4216  -13.7290   23.7450 C   0  0  0  0  0  0  0  0  0  0  0  0
    7.3145  -13.0439   25.0029 C   0  0  0  0  0  0  0  0  0  0  0  0
    8.1401  -11.9785   25.3777 C   0  0  0  0  0  0  0  0  0  0  0  0
    7.9777  -11.3460   26.5911 C   0  0  0  0  0  0  0  0  0  0  0  0
    7.0127  -11.7238   27.4792 C   0  0  0  0  0  0  0  0  0  0  0  0
    6.1910  -12.7715   27.1257 C   0  0  0  0  0  0  0  0  0  0  0  0
    6.3491  -13.4078   25.9127 C   0  0  0  0  0  0  0  0  0  0  0  0
    8.7669  -15.7422   24.4170 C   0  0  0  0  0  0  0  0  0  0  0  0
    8.0781  -16.8180   24.2966 O   0  0  0  0  0  0  0  0  0  0  0  0
   13.4384  -20.9243   27.7124 N   0  0  0  0  0  0  0  0  0  0  0  0
   13.2080  -21.6394   26.4756 C   0  0  0  0  0  0  0  0  0  0  0  0
   13.2313  -22.9103   26.4685 N   0  0  0  0  0  0  0  0  0  0  0  0
   12.9585  -20.8843   25.3048 N   0  0  0  0  0  0  0  0  0  0  0  0
   12.9642  -19.4477   25.3268 C   0  0  0  0  0  0  0  0  0  0  0  0
   11.8584  -18.8261   26.1505 C   0  0  0  0  0  0  0  0  0  0  0  0
   11.2560  -17.6317   25.4799 C   0  0  0  0  0  0  0  0  0  0  0  0
   10.0690  -17.0278   26.1429 C   0  0  2  0  0  0  0  0  0  0  0  0
    9.6954  -15.7592   25.4848 N   0  0  0  0  0  0  0  0  0  0  0  0
   10.3722  -16.7359   27.5620 C   0  0  0  0  0  0  0  0  0  0  0  0
   10.2060  -15.4852   28.1101 O   0  0  0  0  0  0  0  0  0  0  0  0
   10.8040  -17.6245   28.3533 O   0  0  0  0  0  0  0  0  0  0  0  0
  1  2  1  0
  2  4  1  0
  3  2  2  0
  4  5  1  0
  6  7  1  6
  6  5  1  0
  8  9  2  0
  8  6  1  0
 10  8  1  0
 11 10  1  0
 11 12  1  1
 13 14  2  0
 13 12  1  0
 15 14  1  0
 16 15  2  0
 17 16  1  0
 17 18  2  0
 18 13  1  0
 19 20  2  0
 19 11  1  0
 22 23  2  0
 22 21  1  0
 24 22  1  0
 25 24  1  0
 26 27  1  0
 26 25  1  0
 28 29  1  0
 28 27  1  6
 29 19  1  0
 30 28  1  0
 31 30  1  0
 32 30  2  0
M  END
$$$$
