QFR.pdb
     RDKit          3D

 32 32  0  0  1  0  0  0  0  0999 V2000
    9.1738  -17.3528   16.7072 N   0  0  0  0  0  0  0  0  0  0  0  0
    8.5374  -16.3323   15.9657 C   0  0  0  0  0  0  0  0  0  0  0  0
    8.2822  -16.5098   14.7467 O   0  0  0  0  0  0  0  0  0  0  0  0
    8.1762  -15.0658   16.6250 C   0  0  0  0  0  0  0  0  0  0  0  0
    8.5871  -15.0915   18.0926 C   0  0  0  0  0  0  0  0  0  0  0  0
    7.9989  -13.8426   18.7180 C   0  0  2  0  0  0  0  0  0  0  0  0
    8.3795  -12.6508   17.9983 N   0  0  0  0  0  0  0  0  0  0  0  0
    8.5137  -13.7117   20.1126 C   0  0  0  0  0  0  0  0  0  0  0  0
    9.6819  -13.3691   20.3666 O   0  0  0  0  0  0  0  0  0  0  0  0
    7.6391  -13.9883   21.1972 N   0  0  0  0  0  0  0  0  0  0  0  0
    8.0726  -13.8387   22.6093 C   0  0  1  0  0  0  0  0  0  0  0  0
    6.8970  -13.3235   23.3197 C   0  0  0  0  0  0  0  0  0  0  0  0
    6.9155  -13.1304   24.7429 C   0  0  0  0  0  0  0  0  0  0  0  0
    7.6023  -12.0880   25.3745 C   0  0  0  0  0  0  0  0  0  0  0  0
    7.5679  -11.9413   26.7442 C   0  0  0  0  0  0  0  0  0  0  0  0
    6.8689  -12.7972   27.5452 C   0  0  0  0  0  0  0  0  0  0  0  0
    6.1869  -13.8294   26.9391 C   0  0  0  0  0  0  0  0  0  0  0  0
    6.2179  -13.9808   25.5690 C   0  0  0  0  0  0  0  0  0  0  0  0
    8.5873  -15.1579   23.0162 C   0  0  0  0  0  0  0  0  0  0  0  0
    7.8958  -16.2058   22.7514 O   0  0  0  0  0  0  0  0  0  0  0  0
   14.8027  -16.3736   18.7964 N   0  0  0  0  0  0  0  0  0  0  0  0
   13.9789  -15.5577   19.6623 C   0  0  0  0  0  0  0  0  0  0  0  0
   14.1246  -14.2949   19.6646 N   0  0  0  0  0  0  0  0  0  0  0  0
   13.0262  -16.2073   20.4831 N   0  0  0  0  0  0  0  0  0  0  0  0
   12.3394  -15.5041   21.5311 C   0  0  0  0  0  0  0  0  0  0  0  0
   12.4347  -16.1546   22.8933 C   0  0  0  0  0  0  0  0  0  0  0  0
   11.3733  -17.1886   23.1022 C   0  0  0  0  0  0  0  0  0  0  0  0
   10.2330  -16.8006   23.9754 C   0  0  2  0  0  0  0  0  0  0  0  0
    9.8058  -15.4161   23.6878 N   0  0  0  0  0  0  0  0  0  0  0  0
   10.6348  -16.8700   25.3983 C   0  0  0  0  0  0  0  0  0  0  0  0
   10.5025  -15.8023   26.2556 O   0  0  0  0  0  0  0  0  0  0  0  0
   11.1257  -17.9198   25.9073 O   0  0  0  0  0  0  0  0  0  0  0  0
  1  2  1  0
  2  4  1  0
  3  2  2  0
  4  5  1  0
  6  7  1  6
  6  5  1  0
  8  9  2  0
  8  6  1  0
 10  8  1  0
 11 10  1  0
 11 12  1  1
 13 14  2  0
 13 12  1  0
 15 14  1  0
 16 15  2  0
 17 16  1  0
 17 18  2  0
 18 13  1  0
 19 20  2  0
 19 11  1  0
 22 23  2  0
 22 21  1  0
 24 22  1  0
 25 24  1  0
 26 27  1  0
 26 25  1  0
 28 29  1  0
 28 27  1  6
 29 19  1  0
 30 28  1  0
 31 30  1  0
 32 30  2  0
M  END
$$$$
