QFR.pdb
     RDKit          3D

 32 32  0  0  1  0  0  0  0  0999 V2000
    7.9044  -12.5485   16.5335 N   0  0  0  0  0  0  0  0  0  0  0  0
    7.4835  -13.8749   16.2888 C   0  0  0  0  0  0  0  0  0  0  0  0
    6.9191  -14.1628   15.2021 O   0  0  0  0  0  0  0  0  0  0  0  0
    7.7086  -14.9135   17.3085 C   0  0  0  0  0  0  0  0  0  0  0  0
    8.3675  -14.3138   18.5454 C   0  0  0  0  0  0  0  0  0  0  0  0
    8.5961  -15.4661   19.5029 C   0  0  2  0  0  0  0  0  0  0  0  0
    7.4126  -16.2770   19.6603 N   0  0  0  0  0  0  0  0  0  0  0  0
    8.9491  -14.9168   20.8449 C   0  0  0  0  0  0  0  0  0  0  0  0
    9.9558  -14.2125   21.0373 O   0  0  0  0  0  0  0  0  0  0  0  0
    8.1052  -15.2068   21.9502 N   0  0  0  0  0  0  0  0  0  0  0  0
    8.4089  -14.7126   23.3168 C   0  0  1  0  0  0  0  0  0  0  0  0
    7.1998  -14.0011   23.7457 C   0  0  0  0  0  0  0  0  0  0  0  0
    7.1007  -13.4321   25.0608 C   0  0  0  0  0  0  0  0  0  0  0  0
    6.3394  -13.9924   26.0922 C   0  0  0  0  0  0  0  0  0  0  0  0
    6.2979  -13.4118   27.3412 C   0  0  0  0  0  0  0  0  0  0  0  0
    6.9904  -12.2722   27.6315 C   0  0  0  0  0  0  0  0  0  0  0  0
    7.7451  -11.7073   26.6270 C   0  0  0  0  0  0  0  0  0  0  0  0
    7.7903  -12.2841   25.3754 C   0  0  0  0  0  0  0  0  0  0  0  0
    8.8113  -15.8972   24.0950 C   0  0  0  0  0  0  0  0  0  0  0  0
    8.0621  -16.9388   24.0777 O   0  0  0  0  0  0  0  0  0  0  0  0
   15.0790  -18.9314   21.5965 N   0  0  0  0  0  0  0  0  0  0  0  0
   13.9958  -19.8410   21.9021 C   0  0  0  0  0  0  0  0  0  0  0  0
   14.2232  -21.0894   21.9773 N   0  0  0  0  0  0  0  0  0  0  0  0
   12.7064  -19.2964   22.1117 N   0  0  0  0  0  0  0  0  0  0  0  0
   12.4715  -18.2973   23.1170 C   0  0  0  0  0  0  0  0  0  0  0  0
   11.8061  -18.8127   24.3738 C   0  0  0  0  0  0  0  0  0  0  0  0
   11.6331  -17.7404   25.4031 C   0  0  0  0  0  0  0  0  0  0  0  0
   10.2423  -17.2699   25.6427 C   0  0  2  0  0  0  0  0  0  0  0  0
    9.9762  -16.0284   24.8877 N   0  0  0  0  0  0  0  0  0  0  0  0
   10.0424  -16.9833   27.0810 C   0  0  0  0  0  0  0  0  0  0  0  0
   10.0655  -17.9691   28.0403 O   0  0  0  0  0  0  0  0  0  0  0  0
    9.8372  -15.8103   27.5101 O   0  0  0  0  0  0  0  0  0  0  0  0
  1  2  1  0
  2  4  1  0
  3  2  2  0
  4  5  1  0
  6  7  1  1
  6  5  1  0
  8  9  2  0
  8  6  1  0
 10  8  1  0
 11 10  1  0
 11 12  1  1
 13 14  2  0
 13 12  1  0
 15 14  1  0
 16 15  2  0
 17 16  1  0
 17 18  2  0
 18 13  1  0
 19 20  2  0
 19 11  1  0
 22 23  2  0
 22 21  1  0
 24 22  1  0
 25 24  1  0
 26 27  1  0
 26 25  1  0
 28 29  1  0
 28 27  1  1
 29 19  1  0
 30 28  1  0
 31 30  1  0
 32 30  2  0
M  END
$$$$
