QFR.pdb
     RDKit          3D

 32 32  0  0  1  0  0  0  0  0999 V2000
    5.9051  -17.8352   17.6138 N   0  0  0  0  0  0  0  0  0  0  0  0
    7.2625  -17.5373   17.8684 C   0  0  0  0  0  0  0  0  0  0  0  0
    7.9619  -18.3324   18.5475 O   0  0  0  0  0  0  0  0  0  0  0  0
    7.8511  -16.2964   17.3365 C   0  0  0  0  0  0  0  0  0  0  0  0
    8.6392  -15.5713   18.4212 C   0  0  0  0  0  0  0  0  0  0  0  0
    7.7411  -14.4587   18.9236 C   0  0  2  0  0  0  0  0  0  0  0  0
    7.7426  -13.3231   18.0328 N   0  0  0  0  0  0  0  0  0  0  0  0
    8.2436  -13.9932   20.2495 C   0  0  0  0  0  0  0  0  0  0  0  0
    9.3432  -13.4295   20.3894 O   0  0  0  0  0  0  0  0  0  0  0  0
    7.4380  -14.1995   21.4012 N   0  0  0  0  0  0  0  0  0  0  0  0
    7.8805  -13.7713   22.7521 C   0  0  1  0  0  0  0  0  0  0  0  0
    6.6984  -13.1579   23.3673 C   0  0  0  0  0  0  0  0  0  0  0  0
    6.6848  -12.8056   24.7597 C   0  0  0  0  0  0  0  0  0  0  0  0
    6.0133  -13.5448   25.7395 C   0  0  0  0  0  0  0  0  0  0  0  0
    6.0519  -13.1689   27.0646 C   0  0  0  0  0  0  0  0  0  0  0  0
    6.7404  -12.0674   27.4833 C   0  0  0  0  0  0  0  0  0  0  0  0
    7.4072  -11.3281   26.5311 C   0  0  0  0  0  0  0  0  0  0  0  0
    7.3720  -11.6998   25.2038 C   0  0  0  0  0  0  0  0  0  0  0  0
    8.4337  -14.9752   23.3969 C   0  0  0  0  0  0  0  0  0  0  0  0
    7.8082  -16.0892   23.2785 O   0  0  0  0  0  0  0  0  0  0  0  0
   16.0754  -17.5799   21.7454 N   0  0  0  0  0  0  0  0  0  0  0  0
   15.5338  -16.3676   22.3210 C   0  0  0  0  0  0  0  0  0  0  0  0
   16.1844  -15.2797   22.2266 N   0  0  0  0  0  0  0  0  0  0  0  0
   14.2801  -16.4412   22.9736 N   0  0  0  0  0  0  0  0  0  0  0  0
   13.6927  -17.7049   23.3234 C   0  0  0  0  0  0  0  0  0  0  0  0
   12.4551  -17.6064   24.1874 C   0  0  0  0  0  0  0  0  0  0  0  0
   11.6385  -16.3932   23.8704 C   0  0  0  0  0  0  0  0  0  0  0  0
   10.2630  -16.3539   24.4358 C   0  0  2  0  0  0  0  0  0  0  0  0
    9.6241  -15.0513   24.1583 N   0  0  0  0  0  0  0  0  0  0  0  0
   10.3106  -16.5375   25.9037 C   0  0  0  0  0  0  0  0  0  0  0  0
   10.7278  -17.7110   26.4878 O   0  0  0  0  0  0  0  0  0  0  0  0
    9.9676  -15.6211   26.7069 O   0  0  0  0  0  0  0  0  0  0  0  0
  1  2  1  0
  2  4  1  0
  3  2  2  0
  4  5  1  0
  6  7  1  6
  6  5  1  0
  8  9  2  0
  8  6  1  0
 10  8  1  0
 11 10  1  0
 11 12  1  1
 13 14  2  0
 13 12  1  0
 15 14  1  0
 16 15  2  0
 17 16  1  0
 17 18  2  0
 18 13  1  0
 19 20  2  0
 19 11  1  0
 22 23  2  0
 22 21  1  0
 24 22  1  0
 25 24  1  0
 26 27  1  0
 26 25  1  0
 28 29  1  0
 28 27  1  1
 29 19  1  0
 30 28  1  0
 31 30  1  0
 32 30  2  0
M  END
$$$$
