KTK.pdb
     RDKit          3D

 26 25  0  0  1  0  0  0  0  0999 V2000
   18.5959  -14.8920  -15.7941 N   0  0  0  0  0  0  0  0  0  0  0  0
   17.9011  -13.6588  -16.1061 C   0  0  1  0  0  0  0  0  0  0  0  0
   16.8018  -13.4909  -15.0805 C   0  0  0  0  0  0  0  0  0  0  0  0
   15.7271  -14.5633  -15.2661 C   0  0  0  0  0  0  0  0  0  0  0  0
   14.5371  -14.2994  -14.3926 C   0  0  0  0  0  0  0  0  0  0  0  0
   13.4362  -15.3175  -14.5795 C   0  0  0  0  0  0  0  0  0  0  0  0
   12.3478  -14.9336  -13.6978 N   0  0  0  0  0  0  0  0  0  0  0  0
   18.7981  -12.4888  -16.0684 C   0  0  0  0  0  0  0  0  0  0  0  0
   19.3933  -12.2657  -14.9733 O   0  0  0  0  0  0  0  0  0  0  0  0
   21.6999  -11.6630  -18.4501 C   0  0  0  0  0  0  0  0  0  0  0  0
   20.8012  -10.4520  -18.3205 C   0  0  1  0  0  0  0  0  0  0  0  0
   19.9572  -10.3159  -19.4094 O   0  0  0  0  0  0  0  0  0  0  0  0
   20.0009  -10.5772  -17.0202 C   0  0  2  0  0  0  0  0  0  0  0  0
   19.0332  -11.6156  -17.1539 N   0  0  0  0  0  0  0  0  0  0  0  0
   19.3897   -9.2409  -16.7911 C   0  0  0  0  0  0  0  0  0  0  0  0
   20.1460   -8.2613  -16.5783 O   0  0  0  0  0  0  0  0  0  0  0  0
   17.9822   -9.0669  -16.8106 N   0  0  0  0  0  0  0  0  0  0  0  0
   17.3413   -7.7794  -16.5571 C   0  0  1  0  0  0  0  0  0  0  0  0
   15.8806   -7.8391  -16.8756 C   0  0  0  0  0  0  0  0  0  0  0  0
   15.1490   -6.5457  -16.6484 C   0  0  0  0  0  0  0  0  0  0  0  0
   13.6485   -6.7146  -16.8874 C   0  0  0  0  0  0  0  0  0  0  0  0
   12.9147   -5.4308  -16.7040 C   0  0  0  0  0  0  0  0  0  0  0  0
   11.5014   -5.6773  -16.9576 N   0  0  0  0  0  0  0  0  0  0  0  0
   17.5839   -7.4370  -15.1460 C   0  0  0  0  0  0  0  0  0  0  0  0
   17.3573   -8.3181  -14.2617 O   0  0  0  0  0  0  0  0  0  0  0  0
   18.0458   -6.2274  -14.6715 O   0  0  0  0  0  0  0  0  0  0  0  0
  2  1  1  1
  3  2  1  0
  4  3  1  0
  5  4  1  0
  6  5  1  0
  7  6  1  0
  8  9  2  0
  8  2  1  0
 11 10  1  6
 11 13  1  0
 12 11  1  0
 13 14  1  6
 14  8  1  0
 15 13  1  0
 16 15  2  0
 17 15  1  0
 18 17  1  0
 18 24  1  0
 18 19  1  1
 20 19  1  0
 21 20  1  0
 21 22  1  0
 22 23  1  0
 24 26  1  0
 25 24  2  0
M  END
$$$$
