KTK.pdb
     RDKit          3D

 26 25  0  0  1  0  0  0  0  0999 V2000
   18.3175  -20.5674  -11.9099 N   0  0  0  0  0  0  0  0  0  0  0  0
   19.6266  -20.9983  -12.3589 C   0  0  1  0  0  0  0  0  0  0  0  0
   19.6135  -22.5106  -12.3953 C   0  0  0  0  0  0  0  0  0  0  0  0
   18.7163  -23.0658  -11.2879 C   0  0  0  0  0  0  0  0  0  0  0  0
   18.8892  -24.5478  -11.1380 C   0  0  0  0  0  0  0  0  0  0  0  0
   18.0693  -25.1214  -10.0056 C   0  0  0  0  0  0  0  0  0  0  0  0
   18.3537  -26.5447   -9.9532 N   0  0  0  0  0  0  0  0  0  0  0  0
   19.9582  -20.4724  -13.6962 C   0  0  0  0  0  0  0  0  0  0  0  0
   19.0153  -19.9248  -14.3399 O   0  0  0  0  0  0  0  0  0  0  0  0
   21.7924  -17.6356  -14.7286 C   0  0  0  0  0  0  0  0  0  0  0  0
   22.4586  -18.7945  -15.4387 C   0  0  1  0  0  0  0  0  0  0  0  0
   23.5965  -19.2215  -14.7758 O   0  0  0  0  0  0  0  0  0  0  0  0
   21.4424  -19.9332  -15.5706 C   0  0  2  0  0  0  0  0  0  0  0  0
   21.2356  -20.5379  -14.2962 N   0  0  0  0  0  0  0  0  0  0  0  0
   22.0144  -20.8720  -16.5721 C   0  0  0  0  0  0  0  0  0  0  0  0
   22.5461  -21.9348  -16.1665 O   0  0  0  0  0  0  0  0  0  0  0  0
   21.9650  -20.5812  -17.9594 N   0  0  0  0  0  0  0  0  0  0  0  0
   22.5267  -21.4692  -18.9737 C   0  0  1  0  0  0  0  0  0  0  0  0
   22.0164  -21.1143  -20.3347 C   0  0  0  0  0  0  0  0  0  0  0  0
   22.4256  -22.0768  -21.4144 C   0  0  0  0  0  0  0  0  0  0  0  0
   21.8822  -21.6390  -22.7747 C   0  0  0  0  0  0  0  0  0  0  0  0
   22.1982  -22.6332  -23.8387 C   0  0  0  0  0  0  0  0  0  0  0  0
   21.5387  -22.2075  -25.0659 N   0  0  0  0  0  0  0  0  0  0  0  0
   23.9925  -21.3620  -18.8898 C   0  0  0  0  0  0  0  0  0  0  0  0
   24.4991  -20.2550  -18.5327 O   0  0  0  0  0  0  0  0  0  0  0  0
   24.8974  -22.3659  -19.1642 O   0  0  0  0  0  0  0  0  0  0  0  0
  2  1  1  6
  3  2  1  0
  4  3  1  0
  5  4  1  0
  6  5  1  0
  7  6  1  0
  8  9  2  0
  8  2  1  0
 11 10  1  1
 11 13  1  0
 12 11  1  0
 13 14  1  1
 14  8  1  0
 15 13  1  0
 16 15  2  0
 17 15  1  0
 18 17  1  0
 18 24  1  0
 18 19  1  6
 20 19  1  0
 21 20  1  0
 21 22  1  0
 22 23  1  0
 24 26  1  0
 25 24  2  0
M  END
$$$$
