KTK.pdb
     RDKit          3D

 26 25  0  0  1  0  0  0  0  0999 V2000
   22.4920  -21.9360  -15.8308 N   0  0  0  0  0  0  0  0  0  0  0  0
   21.8489  -23.1873  -15.4819 C   0  0  1  0  0  0  0  0  0  0  0  0
   22.9414  -24.1648  -15.1087 C   0  0  0  0  0  0  0  0  0  0  0  0
   23.7291  -24.5881  -16.3496 C   0  0  0  0  0  0  0  0  0  0  0  0
   24.8584  -25.5073  -15.9911 C   0  0  0  0  0  0  0  0  0  0  0  0
   25.6028  -26.0203  -17.2020 C   0  0  0  0  0  0  0  0  0  0  0  0
   26.7007  -26.8354  -16.7123 N   0  0  0  0  0  0  0  0  0  0  0  0
   20.9110  -23.0365  -14.3540 C   0  0  0  0  0  0  0  0  0  0  0  0
   20.3610  -21.9037  -14.2215 O   0  0  0  0  0  0  0  0  0  0  0  0
   18.3616  -22.2893  -13.9423 C   0  0  0  0  0  0  0  0  0  0  0  0
   18.2481  -23.5512  -13.1142 C   0  0  1  0  0  0  0  0  0  0  0  0
   17.8627  -24.6386  -13.8794 O   0  0  0  0  0  0  0  0  0  0  0  0
   19.5968  -23.8103  -12.4354 C   0  0  2  0  0  0  0  0  0  0  0  0
   20.5912  -24.0541  -13.4276 N   0  0  0  0  0  0  0  0  0  0  0  0
   19.3793  -24.9732  -11.5342 C   0  0  0  0  0  0  0  0  0  0  0  0
   19.4740  -26.1309  -12.0113 O   0  0  0  0  0  0  0  0  0  0  0  0
   19.0709  -24.7881  -10.1622 N   0  0  0  0  0  0  0  0  0  0  0  0
   18.7819  -25.8995   -9.2600 C   0  0  1  0  0  0  0  0  0  0  0  0
   18.5333  -25.4067   -7.8694 C   0  0  0  0  0  0  0  0  0  0  0  0
   18.1170  -26.4798   -6.9026 C   0  0  0  0  0  0  0  0  0  0  0  0
   17.8559  -25.8962   -5.5139 C   0  0  0  0  0  0  0  0  0  0  0  0
   17.2379  -26.9004   -4.6029 C   0  0  0  0  0  0  0  0  0  0  0  0
   16.9135  -26.2341   -3.3486 N   0  0  0  0  0  0  0  0  0  0  0  0
   17.6190  -26.6187   -9.8057 C   0  0  0  0  0  0  0  0  0  0  0  0
   17.6089  -27.8860   -9.7470 O   0  0  0  0  0  0  0  0  0  0  0  0
   16.5088  -26.0444  -10.3880 O   0  0  0  0  0  0  0  0  0  0  0  0
  2  1  1  1
  3  2  1  0
  4  3  1  0
  5  4  1  0
  6  5  1  0
  7  6  1  0
  8  9  2  0
  8  2  1  0
 11 10  1  6
 11 13  1  0
 12 11  1  0
 13 14  1  6
 14  8  1  0
 15 13  1  0
 16 15  2  0
 17 15  1  0
 18 17  1  0
 18 24  1  0
 18 19  1  1
 20 19  1  0
 21 20  1  0
 21 22  1  0
 22 23  1  0
 24 26  1  0
 25 24  2  0
M  END
$$$$
