KTK.pdb
     RDKit          3D

 26 25  0  0  1  0  0  0  0  0999 V2000
   23.5125  -19.7811  -16.3299 N   0  0  0  0  0  0  0  0  0  0  0  0
   22.4506  -20.7529  -16.1601 C   0  0  1  0  0  0  0  0  0  0  0  0
   22.9754  -22.0826  -16.6552 C   0  0  0  0  0  0  0  0  0  0  0  0
   22.9037  -22.1526  -18.1814 C   0  0  0  0  0  0  0  0  0  0  0  0
   23.3592  -23.4886  -18.6877 C   0  0  0  0  0  0  0  0  0  0  0  0
   23.2923  -23.5981  -20.1934 C   0  0  0  0  0  0  0  0  0  0  0  0
   23.9052  -24.8641  -20.5554 N   0  0  0  0  0  0  0  0  0  0  0  0
   22.0297  -20.8785  -14.7523 C   0  0  0  0  0  0  0  0  0  0  0  0
   22.9494  -20.8648  -13.8822 O   0  0  0  0  0  0  0  0  0  0  0  0
   20.0367  -18.5515  -12.8170 C   0  0  0  0  0  0  0  0  0  0  0  0
   19.3750  -19.8990  -12.6234 C   0  0  1  0  0  0  0  0  0  0  0  0
   18.2539  -20.0438  -13.4225 O   0  0  0  0  0  0  0  0  0  0  0  0
   20.4044  -20.9937  -12.9214 C   0  0  2  0  0  0  0  0  0  0  0  0
   20.6919  -21.0107  -14.3177 N   0  0  0  0  0  0  0  0  0  0  0  0
   19.7970  -22.2625  -12.4387 C   0  0  0  0  0  0  0  0  0  0  0  0
   19.5172  -23.1536  -13.2780 O   0  0  0  0  0  0  0  0  0  0  0  0
   19.5355  -22.4706  -11.0604 N   0  0  0  0  0  0  0  0  0  0  0  0
   18.9699  -23.7131  -10.5419 C   0  0  1  0  0  0  0  0  0  0  0  0
   18.9620  -23.7120   -9.0457 C   0  0  0  0  0  0  0  0  0  0  0  0
   18.3565  -24.9442   -8.4337 C   0  0  0  0  0  0  0  0  0  0  0  0
   18.2994  -24.8289   -6.9102 C   0  0  0  0  0  0  0  0  0  0  0  0
   17.4949  -25.9278   -6.3057 C   0  0  0  0  0  0  0  0  0  0  0  0
   17.6179  -25.8343   -4.8570 N   0  0  0  0  0  0  0  0  0  0  0  0
   17.6141  -23.8463  -11.0998 C   0  0  0  0  0  0  0  0  0  0  0  0
   16.8799  -22.8133  -11.1594 O   0  0  0  0  0  0  0  0  0  0  0  0
   17.0433  -25.0065  -11.5793 O   0  0  0  0  0  0  0  0  0  0  0  0
  2  1  1  1
  3  2  1  0
  4  3  1  0
  5  4  1  0
  6  5  1  0
  7  6  1  0
  8  9  2  0
  8  2  1  0
 11 10  1  6
 11 13  1  0
 12 11  1  0
 13 14  1  6
 14  8  1  0
 15 13  1  0
 16 15  2  0
 17 15  1  0
 18 17  1  0
 18 24  1  0
 18 19  1  1
 20 19  1  0
 21 20  1  0
 21 22  1  0
 22 23  1  0
 24 26  1  0
 25 24  2  0
M  END
$$$$
