KTK.pdb
     RDKit          3D

 26 25  0  0  1  0  0  0  0  0999 V2000
   24.1539  -20.0125  -15.2868 N   0  0  0  0  0  0  0  0  0  0  0  0
   23.9108  -18.9580  -16.2512 C   0  0  1  0  0  0  0  0  0  0  0  0
   22.6517  -19.3220  -17.0066 C   0  0  0  0  0  0  0  0  0  0  0  0
   21.9847  -20.5467  -16.3784 C   0  0  0  0  0  0  0  0  0  0  0  0
   20.7479  -20.9393  -17.1300 C   0  0  0  0  0  0  0  0  0  0  0  0
   20.0636  -22.1505  -16.5396 C   0  0  0  0  0  0  0  0  0  0  0  0
   18.8429  -22.3610  -17.2978 N   0  0  0  0  0  0  0  0  0  0  0  0
   23.7406  -17.6422  -15.6074 C   0  0  0  0  0  0  0  0  0  0  0  0
   23.2485  -17.6413  -14.4407 O   0  0  0  0  0  0  0  0  0  0  0  0
   26.0513  -14.9329  -14.6057 C   0  0  0  0  0  0  0  0  0  0  0  0
   25.0003  -14.2851  -15.4815 C   0  0  1  0  0  0  0  0  0  0  0  0
   25.4706  -14.0445  -16.7611 O   0  0  0  0  0  0  0  0  0  0  0  0
   23.7670  -15.1932  -15.5136 C   0  0  2  0  0  0  0  0  0  0  0  0
   24.0841  -16.4045  -16.1955 N   0  0  0  0  0  0  0  0  0  0  0  0
   22.7030  -14.4067  -16.1927 C   0  0  0  0  0  0  0  0  0  0  0  0
   22.3903  -14.7083  -17.3708 O   0  0  0  0  0  0  0  0  0  0  0  0
   22.0493  -13.3361  -15.5308 N   0  0  0  0  0  0  0  0  0  0  0  0
   21.0185  -12.5230  -16.1703 C   0  0  1  0  0  0  0  0  0  0  0  0
   20.0024  -12.0675  -15.1711 C   0  0  0  0  0  0  0  0  0  0  0  0
   18.9003  -11.2280  -15.7546 C   0  0  0  0  0  0  0  0  0  0  0  0
   17.8459  -10.8956  -14.6987 C   0  0  0  0  0  0  0  0  0  0  0  0
   16.7097  -10.1264  -15.2797 C   0  0  0  0  0  0  0  0  0  0  0  0
   15.8503  -11.0600  -15.9953 N   0  0  0  0  0  0  0  0  0  0  0  0
   21.6940  -11.3903  -16.8246 C   0  0  0  0  0  0  0  0  0  0  0  0
   22.8289  -11.0282  -16.3879 O   0  0  0  0  0  0  0  0  0  0  0  0
   21.2110  -10.6630  -17.8920 O   0  0  0  0  0  0  0  0  0  0  0  0
  2  1  1  1
  3  2  1  0
  4  3  1  0
  5  4  1  0
  6  5  1  0
  7  6  1  0
  8  9  2  0
  8  2  1  0
 11 10  1  1
 11 13  1  0
 12 11  1  0
 13 14  1  6
 14  8  1  0
 15 13  1  0
 16 15  2  0
 17 15  1  0
 18 17  1  0
 18 24  1  0
 18 19  1  1
 20 19  1  0
 21 20  1  0
 21 22  1  0
 22 23  1  0
 24 26  1  0
 25 24  2  0
M  END
$$$$
