KTK.pdb
     RDKit          3D

 26 25  0  0  1  0  0  0  0  0999 V2000
   22.7532  -17.9473  -15.2372 N   0  0  0  0  0  0  0  0  0  0  0  0
   22.2877  -16.8513  -16.0638 C   0  0  1  0  0  0  0  0  0  0  0  0
   20.8015  -17.0442  -16.2700 C   0  0  0  0  0  0  0  0  0  0  0  0
   20.5413  -18.1570  -17.2867 C   0  0  0  0  0  0  0  0  0  0  0  0
   19.4386  -19.0651  -16.8305 C   0  0  0  0  0  0  0  0  0  0  0  0
   19.2255  -20.2390  -17.7579 C   0  0  0  0  0  0  0  0  0  0  0  0
   18.1587  -21.0431  -17.1878 N   0  0  0  0  0  0  0  0  0  0  0  0
   22.5361  -15.5383  -15.4401 C   0  0  0  0  0  0  0  0  0  0  0  0
   22.3482  -15.4595  -14.1904 O   0  0  0  0  0  0  0  0  0  0  0  0
   25.3898  -14.0493  -14.5461 C   0  0  0  0  0  0  0  0  0  0  0  0
   24.7479  -12.9478  -15.3622 C   0  0  1  0  0  0  0  0  0  0  0  0
   25.2711  -12.8810  -16.6421 O   0  0  0  0  0  0  0  0  0  0  0  0
   23.2356  -13.1896  -15.4012 C   0  0  2  0  0  0  0  0  0  0  0  0
   22.9621  -14.3827  -16.1323 N   0  0  0  0  0  0  0  0  0  0  0  0
   22.6480  -11.9766  -16.0297 C   0  0  0  0  0  0  0  0  0  0  0  0
   22.6005  -11.9106  -17.2828 O   0  0  0  0  0  0  0  0  0  0  0  0
   22.1489  -10.9110  -15.2378 N   0  0  0  0  0  0  0  0  0  0  0  0
   21.5504   -9.7104  -15.8149 C   0  0  1  0  0  0  0  0  0  0  0  0
   20.2425   -9.3985  -15.1587 C   0  0  0  0  0  0  0  0  0  0  0  0
   19.5791   -8.1515  -15.6732 C   0  0  0  0  0  0  0  0  0  0  0  0
   18.2545   -7.8975  -14.9532 C   0  0  0  0  0  0  0  0  0  0  0  0
   17.5668   -6.6848  -15.4791 C   0  0  0  0  0  0  0  0  0  0  0  0
   16.2862   -7.0975  -16.0378 N   0  0  0  0  0  0  0  0  0  0  0  0
   22.5211   -8.6150  -15.6568 C   0  0  0  0  0  0  0  0  0  0  0  0
   22.2662   -7.4971  -16.2000 O   0  0  0  0  0  0  0  0  0  0  0  0
   23.7096   -8.6770  -14.9601 O   0  0  0  0  0  0  0  0  0  0  0  0
  2  1  1  1
  3  2  1  0
  4  3  1  0
  5  4  1  0
  6  5  1  0
  7  6  1  0
  8  9  2  0
  8  2  1  0
 11 10  1  1
 11 13  1  0
 12 11  1  0
 13 14  1  6
 14  8  1  0
 15 13  1  0
 16 15  2  0
 17 15  1  0
 18 17  1  0
 18 24  1  0
 18 19  1  1
 20 19  1  0
 21 20  1  0
 21 22  1  0
 22 23  1  0
 24 26  1  0
 25 24  2  0
M  END
$$$$
