KTK.pdb
     RDKit          3D

 26 25  0  0  1  0  0  0  0  0999 V2000
   22.1098  -14.1342  -17.5214 N   0  0  0  0  0  0  0  0  0  0  0  0
   22.1932  -12.7895  -18.0561 C   0  0  1  0  0  0  0  0  0  0  0  0
   20.8970  -12.5155  -18.7863 C   0  0  0  0  0  0  0  0  0  0  0  0
   20.6529  -13.5756  -19.8616 C   0  0  0  0  0  0  0  0  0  0  0  0
   19.4225  -13.2673  -20.6616 C   0  0  0  0  0  0  0  0  0  0  0  0
   19.1327  -14.3107  -21.7156 C   0  0  0  0  0  0  0  0  0  0  0  0
   17.9795  -13.8472  -22.4670 N   0  0  0  0  0  0  0  0  0  0  0  0
   22.3904  -11.7804  -16.9990 C   0  0  0  0  0  0  0  0  0  0  0  0
   21.7452  -11.9528  -15.9232 O   0  0  0  0  0  0  0  0  0  0  0  0
   25.2566  -11.0799  -15.0625 C   0  0  0  0  0  0  0  0  0  0  0  0
   24.8445   -9.7131  -15.5656 C   0  0  1  0  0  0  0  0  0  0  0  0
   25.6444   -9.2844  -16.6110 O   0  0  0  0  0  0  0  0  0  0  0  0
   23.3741   -9.7745  -15.9913 C   0  0  2  0  0  0  0  0  0  0  0  0
   23.2364  -10.6539  -17.1050 N   0  0  0  0  0  0  0  0  0  0  0  0
   22.9854   -8.3741  -16.3065 C   0  0  0  0  0  0  0  0  0  0  0  0
   22.7023   -8.0805  -17.4941 O   0  0  0  0  0  0  0  0  0  0  0  0
   22.9326   -7.3835  -15.2928 N   0  0  0  0  0  0  0  0  0  0  0  0
   22.5399   -6.0020  -15.5572 C   0  0  1  0  0  0  0  0  0  0  0  0
   21.1823   -5.9441  -16.1834 C   0  0  0  0  0  0  0  0  0  0  0  0
   20.6306   -4.5531  -16.3263 C   0  0  0  0  0  0  0  0  0  0  0  0
   19.2095   -4.5815  -16.8893 C   0  0  0  0  0  0  0  0  0  0  0  0
   18.6580   -3.2078  -17.0592 C   0  0  0  0  0  0  0  0  0  0  0  0
   17.2618   -3.3269  -17.4579 N   0  0  0  0  0  0  0  0  0  0  0  0
   22.5870   -5.2780  -14.2762 C   0  0  0  0  0  0  0  0  0  0  0  0
   22.3866   -5.9285  -13.2055 O   0  0  0  0  0  0  0  0  0  0  0  0
   22.8346   -3.9312  -14.1130 O   0  0  0  0  0  0  0  0  0  0  0  0
  2  1  1  1
  3  2  1  0
  4  3  1  0
  5  4  1  0
  6  5  1  0
  7  6  1  0
  8  9  2  0
  8  2  1  0
 11 10  1  6
 11 13  1  0
 12 11  1  0
 13 14  1  6
 14  8  1  0
 15 13  1  0
 16 15  2  0
 17 15  1  0
 18 17  1  0
 18 24  1  0
 18 19  1  1
 20 19  1  0
 21 20  1  0
 21 22  1  0
 22 23  1  0
 24 26  1  0
 25 24  2  0
M  END
$$$$
