KTK.pdb
     RDKit          3D

 26 25  0  0  1  0  0  0  0  0999 V2000
   31.6570  -25.1553  -15.8067 N   0  0  0  0  0  0  0  0  0  0  0  0
   31.8903  -24.0230  -16.6810 C   0  0  1  0  0  0  0  0  0  0  0  0
   32.9529  -24.4353  -17.6757 C   0  0  0  0  0  0  0  0  0  0  0  0
   34.1093  -25.1394  -16.9639 C   0  0  0  0  0  0  0  0  0  0  0  0
   35.1640  -25.5749  -17.9369 C   0  0  0  0  0  0  0  0  0  0  0  0
   36.3140  -26.2942  -17.2708 C   0  0  0  0  0  0  0  0  0  0  0  0
   37.2609  -26.6415  -18.3159 N   0  0  0  0  0  0  0  0  0  0  0  0
   30.6698  -23.6130  -17.3999 C   0  0  0  0  0  0  0  0  0  0  0  0
   30.6362  -23.8527  -18.6428 O   0  0  0  0  0  0  0  0  0  0  0  0
   27.3424  -24.9140  -17.3329 C   0  0  0  0  0  0  0  0  0  0  0  0
   27.1923  -23.4394  -17.0259 C   0  0  1  0  0  0  0  0  0  0  0  0
   27.0646  -23.2048  -15.6675 O   0  0  0  0  0  0  0  0  0  0  0  0
   28.4047  -22.6978  -17.5977 C   0  0  2  0  0  0  0  0  0  0  0  0
   29.5550  -22.9815  -16.8045 N   0  0  0  0  0  0  0  0  0  0  0  0
   28.0372  -21.2567  -17.5918 C   0  0  0  0  0  0  0  0  0  0  0  0
   28.6331  -20.4864  -16.7991 O   0  0  0  0  0  0  0  0  0  0  0  0
   27.0352  -20.7537  -18.4605 N   0  0  0  0  0  0  0  0  0  0  0  0
   26.6866  -19.3371  -18.5287 C   0  0  1  0  0  0  0  0  0  0  0  0
   27.8579  -18.5207  -18.9759 C   0  0  0  0  0  0  0  0  0  0  0  0
   27.5549  -17.0596  -19.1575 C   0  0  0  0  0  0  0  0  0  0  0  0
   28.7847  -16.3022  -19.6588 C   0  0  0  0  0  0  0  0  0  0  0  0
   28.5005  -14.8507  -19.8393 C   0  0  0  0  0  0  0  0  0  0  0  0
   29.6489  -14.2434  -20.4987 N   0  0  0  0  0  0  0  0  0  0  0  0
   25.5430  -19.2088  -19.4468 C   0  0  0  0  0  0  0  0  0  0  0  0
   25.4086  -20.0684  -20.3701 O   0  0  0  0  0  0  0  0  0  0  0  0
   24.5753  -18.2272  -19.4066 O   0  0  0  0  0  0  0  0  0  0  0  0
  2  1  1  1
  3  2  1  0
  4  3  1  0
  5  4  1  0
  6  5  1  0
  7  6  1  0
  8  9  2  0
  8  2  1  0
 11 10  1  1
 11 13  1  0
 12 11  1  0
 13 14  1  1
 14  8  1  0
 15 13  1  0
 16 15  2  0
 17 15  1  0
 18 17  1  0
 18 24  1  0
 18 19  1  6
 20 19  1  0
 21 20  1  0
 21 22  1  0
 22 23  1  0
 24 26  1  0
 25 24  2  0
M  END
$$$$
