KTK.pdb
     RDKit          3D

 26 25  0  0  1  0  0  0  0  0999 V2000
   24.2487  -15.1903  -19.6600 N   0  0  0  0  0  0  0  0  0  0  0  0
   22.8982  -15.7144  -19.6110 C   0  0  1  0  0  0  0  0  0  0  0  0
   22.8682  -16.9592  -20.4701 C   0  0  0  0  0  0  0  0  0  0  0  0
   22.3053  -16.6407  -21.8562 C   0  0  0  0  0  0  0  0  0  0  0  0
   21.3956  -17.7308  -22.3388 C   0  0  0  0  0  0  0  0  0  0  0  0
   20.9022  -17.5005  -23.7484 C   0  0  0  0  0  0  0  0  0  0  0  0
   20.0674  -18.6366  -24.0976 N   0  0  0  0  0  0  0  0  0  0  0  0
   22.4796  -16.0493  -18.2372 C   0  0  0  0  0  0  0  0  0  0  0  0
   23.3290  -15.8461  -17.3203 O   0  0  0  0  0  0  0  0  0  0  0  0
   20.2626  -14.6065  -15.9277 C   0  0  0  0  0  0  0  0  0  0  0  0
   19.7979  -16.0453  -15.9979 C   0  0  1  0  0  0  0  0  0  0  0  0
   18.6753  -16.1874  -16.7956 O   0  0  0  0  0  0  0  0  0  0  0  0
   20.9532  -16.9046  -16.5210 C   0  0  2  0  0  0  0  0  0  0  0  0
   21.2162  -16.5725  -17.8824 N   0  0  0  0  0  0  0  0  0  0  0  0
   20.5210  -18.3162  -16.3414 C   0  0  0  0  0  0  0  0  0  0  0  0
   20.5756  -19.0928  -17.3267 O   0  0  0  0  0  0  0  0  0  0  0  0
   20.0551  -18.7848  -15.0864 N   0  0  0  0  0  0  0  0  0  0  0  0
   20.0677  -20.1973  -14.7158 C   0  0  1  0  0  0  0  0  0  0  0  0
   21.4661  -20.7283  -14.6857 C   0  0  0  0  0  0  0  0  0  0  0  0
   21.5616  -22.1881  -14.3399 C   0  0  0  0  0  0  0  0  0  0  0  0
   22.9940  -22.6977  -14.5009 C   0  0  0  0  0  0  0  0  0  0  0  0
   23.0804  -24.1703  -14.2907 C   0  0  0  0  0  0  0  0  0  0  0  0
   24.4307  -24.5975  -14.6319 N   0  0  0  0  0  0  0  0  0  0  0  0
   19.4055  -20.3148  -13.4062 C   0  0  0  0  0  0  0  0  0  0  0  0
   19.6861  -19.4644  -12.5076 O   0  0  0  0  0  0  0  0  0  0  0  0
   18.4861  -21.2768  -13.0443 O   0  0  0  0  0  0  0  0  0  0  0  0
  2  1  1  1
  3  2  1  0
  4  3  1  0
  5  4  1  0
  6  5  1  0
  7  6  1  0
  8  9  2  0
  8  2  1  0
 11 10  1  6
 11 13  1  0
 12 11  1  0
 13 14  1  6
 14  8  1  0
 15 13  1  0
 16 15  2  0
 17 15  1  0
 18 17  1  0
 18 24  1  0
 18 19  1  1
 20 19  1  0
 21 20  1  0
 21 22  1  0
 22 23  1  0
 24 26  1  0
 25 24  2  0
M  END
$$$$
