MGD.pdb
     RDKit          3D

 21 20  0  0  1  0  0  0  0  0999 V2000
   27.7508  -18.7662   -6.9519 C   0  0  0  0  0  0  0  0  0  0  0  0
   26.8157  -20.3199   -6.9834 S   0  0  0  0  0  0  0  0  0  0  0  0
   25.6031  -20.3280   -8.3362 C   0  0  0  0  0  0  0  0  0  0  0  0
   26.2774  -20.4584   -9.6783 C   0  0  0  0  0  0  0  0  0  0  0  0
   25.2851  -20.3747  -10.8074 C   0  0  2  0  0  0  0  0  0  0  0  0
   24.2395  -21.3462  -10.5593 N   0  0  0  0  0  0  0  0  0  0  0  0
   25.8974  -20.5890  -12.1313 C   0  0  0  0  0  0  0  0  0  0  0  0
   26.6801  -19.7121  -12.5737 O   0  0  0  0  0  0  0  0  0  0  0  0
   25.6561  -21.7275  -12.9370 N   0  0  0  0  0  0  0  0  0  0  0  0
   26.1747  -21.9435  -14.2436 C   0  0  0  0  0  0  0  0  0  0  0  0
   25.5967  -21.1143  -15.3155 C   0  0  0  0  0  0  0  0  0  0  0  0
   25.9698  -21.3388  -16.4865 O   0  0  0  0  0  0  0  0  0  0  0  0
   24.6613  -20.0993  -15.0614 N   0  0  0  0  0  0  0  0  0  0  0  0
   23.9570  -19.3601  -16.1145 C   0  0  1  0  0  0  0  0  0  0  0  0
   22.6618  -18.8472  -15.6060 C   0  0  0  0  0  0  0  0  0  0  0  0
   21.6369  -19.8734  -15.3392 C   0  0  0  0  0  0  0  0  0  0  0  0
   21.7597  -21.0610  -15.7254 O   0  0  0  0  0  0  0  0  0  0  0  0
   24.8579  -18.2935  -16.6446 C   0  0  0  0  0  0  0  0  0  0  0  0
   25.8058  -17.7156  -15.7977 O   0  0  0  0  0  0  0  0  0  0  0  0
   20.4873  -19.5378  -14.6379 O   0  0  0  0  0  0  0  0  0  0  0  0
   24.8393  -17.8562  -17.8157 O   0  0  0  0  0  0  0  0  0  0  0  0
  2  1  1  0
  3  2  1  0
  4  5  1  0
  4  3  1  0
  5  6  1  1
  7  8  2  0
  7  5  1  0
  9  7  1  0
 10  9  1  0
 10 11  1  0
 11 13  1  0
 12 11  2  0
 13 14  1  0
 14 18  1  0
 14 15  1  1
 16 15  1  0
 17 16  2  0
 18 19  1  0
 20 16  1  0
 21 18  2  0
M  END
$$$$
