MGD.pdb
     RDKit          3D

 21 20  0  0  1  0  0  0  0  0999 V2000
   29.5876  -22.2187  -15.6171 C   0  0  0  0  0  0  0  0  0  0  0  0
   28.5141  -23.2825  -16.6198 S   0  0  0  0  0  0  0  0  0  0  0  0
   27.3105  -22.2990  -17.5604 C   0  0  0  0  0  0  0  0  0  0  0  0
   26.5283  -21.3781  -16.6587 C   0  0  0  0  0  0  0  0  0  0  0  0
   25.7074  -22.1476  -15.6586 C   0  0  2  0  0  0  0  0  0  0  0  0
   24.5500  -22.6840  -16.3451 N   0  0  0  0  0  0  0  0  0  0  0  0
   25.2994  -21.3344  -14.4985 C   0  0  0  0  0  0  0  0  0  0  0  0
   26.1512  -20.5735  -13.9763 O   0  0  0  0  0  0  0  0  0  0  0  0
   24.0009  -21.3588  -13.9356 N   0  0  0  0  0  0  0  0  0  0  0  0
   23.5360  -20.5185  -12.8866 C   0  0  0  0  0  0  0  0  0  0  0  0
   22.1444  -20.7330  -12.4529 C   0  0  0  0  0  0  0  0  0  0  0  0
   21.7328  -20.0694  -11.4777 O   0  0  0  0  0  0  0  0  0  0  0  0
   21.2888  -21.6450  -13.0900 N   0  0  0  0  0  0  0  0  0  0  0  0
   19.9102  -21.3309  -13.4802 C   0  0  1  0  0  0  0  0  0  0  0  0
   19.8955  -20.5702  -14.7532 C   0  0  0  0  0  0  0  0  0  0  0  0
   19.2293  -19.2559  -14.6960 C   0  0  0  0  0  0  0  0  0  0  0  0
   18.7292  -18.8023  -13.6383 O   0  0  0  0  0  0  0  0  0  0  0  0
   19.1190  -22.5965  -13.5286 C   0  0  0  0  0  0  0  0  0  0  0  0
   19.7890  -23.8201  -13.5879 O   0  0  0  0  0  0  0  0  0  0  0  0
   19.1400  -18.4747  -15.8396 O   0  0  0  0  0  0  0  0  0  0  0  0
   17.8705  -22.6621  -13.5215 O   0  0  0  0  0  0  0  0  0  0  0  0
  2  1  1  0
  3  2  1  0
  4  5  1  0
  4  3  1  0
  5  6  1  6
  7  8  2  0
  7  5  1  0
  9  7  1  0
 10  9  1  0
 10 11  1  0
 11 13  1  0
 12 11  2  0
 13 14  1  0
 14 18  1  0
 14 15  1  6
 16 15  1  0
 17 16  2  0
 18 19  1  0
 20 16  1  0
 21 18  2  0
M  END
$$$$
