MGD.pdb
     RDKit          3D

 21 20  0  0  1  0  0  0  0  0999 V2000
   29.9153  -20.5548   -5.9468 C   0  0  0  0  0  0  0  0  0  0  0  0
   28.4888  -19.8132   -5.1071 S   0  0  0  0  0  0  0  0  0  0  0  0
   27.0226  -19.8156   -6.1798 C   0  0  0  0  0  0  0  0  0  0  0  0
   27.3645  -20.2657   -7.5774 C   0  0  0  0  0  0  0  0  0  0  0  0
   26.1557  -20.2537   -8.4747 C   0  0  2  0  0  0  0  0  0  0  0  0
   25.2142  -21.2338   -7.9730 N   0  0  0  0  0  0  0  0  0  0  0  0
   26.4831  -20.5157   -9.8881 C   0  0  0  0  0  0  0  0  0  0  0  0
   27.0329  -19.6014  -10.5508 O   0  0  0  0  0  0  0  0  0  0  0  0
   26.2148  -21.7399  -10.5461 N   0  0  0  0  0  0  0  0  0  0  0  0
   25.8826  -21.8867  -11.9211 C   0  0  0  0  0  0  0  0  0  0  0  0
   24.5688  -21.3601  -12.3303 C   0  0  0  0  0  0  0  0  0  0  0  0
   23.8798  -20.7838  -11.4620 O   0  0  0  0  0  0  0  0  0  0  0  0
   24.0802  -21.4886  -13.6396 N   0  0  0  0  0  0  0  0  0  0  0  0
   22.7691  -20.9922  -14.0710 C   0  0  1  0  0  0  0  0  0  0  0  0
   22.9033  -19.6496  -14.6861 C   0  0  0  0  0  0  0  0  0  0  0  0
   21.6351  -18.9401  -14.9371 C   0  0  0  0  0  0  0  0  0  0  0  0
   20.5516  -19.2969  -14.4144 O   0  0  0  0  0  0  0  0  0  0  0  0
   22.1391  -22.0039  -14.9709 C   0  0  0  0  0  0  0  0  0  0  0  0
   22.9062  -22.5985  -15.9747 O   0  0  0  0  0  0  0  0  0  0  0  0
   21.6142  -17.8358  -15.7774 O   0  0  0  0  0  0  0  0  0  0  0  0
   20.9480  -22.3785  -14.9055 O   0  0  0  0  0  0  0  0  0  0  0  0
  2  1  1  0
  3  2  1  0
  4  5  1  0
  4  3  1  0
  5  6  1  1
  7  8  2  0
  7  5  1  0
  9  7  1  0
 10  9  1  0
 10 11  1  0
 11 13  1  0
 12 11  2  0
 13 14  1  0
 14 18  1  0
 14 15  1  6
 16 15  1  0
 17 16  2  0
 18 19  1  0
 20 16  1  0
 21 18  2  0
M  END
$$$$
