MGD.pdb
     RDKit          3D

 21 20  0  0  1  0  0  0  0  0999 V2000
   27.8734  -13.6264  -14.6239 C   0  0  0  0  0  0  0  0  0  0  0  0
   28.4191  -12.3275  -15.7661 S   0  0  0  0  0  0  0  0  0  0  0  0
   27.1796  -12.0294  -17.0604 C   0  0  0  0  0  0  0  0  0  0  0  0
   25.9042  -11.4708  -16.4821 C   0  0  0  0  0  0  0  0  0  0  0  0
   24.8550  -11.2722  -17.5433 C   0  0  2  0  0  0  0  0  0  0  0  0
   25.4780  -11.4780  -18.8349 N   0  0  0  0  0  0  0  0  0  0  0  0
   24.2097   -9.9483  -17.4767 C   0  0  0  0  0  0  0  0  0  0  0  0
   23.5194   -9.6732  -16.4642 O   0  0  0  0  0  0  0  0  0  0  0  0
   24.3216   -8.9645  -18.4882 N   0  0  0  0  0  0  0  0  0  0  0  0
   23.2408   -8.2437  -19.0669 C   0  0  0  0  0  0  0  0  0  0  0  0
   22.6750   -7.1567  -18.2489 C   0  0  0  0  0  0  0  0  0  0  0  0
   21.7341   -6.4948  -18.7359 O   0  0  0  0  0  0  0  0  0  0  0  0
   23.1564   -6.8499  -16.9668 N   0  0  0  0  0  0  0  0  0  0  0  0
   22.6280   -5.7606  -16.1387 C   0  0  1  0  0  0  0  0  0  0  0  0
   22.1997   -6.2792  -14.8170 C   0  0  0  0  0  0  0  0  0  0  0  0
   21.6710   -5.2680  -13.8828 C   0  0  0  0  0  0  0  0  0  0  0  0
   20.5944   -4.6585  -14.0924 O   0  0  0  0  0  0  0  0  0  0  0  0
   23.6502   -4.6752  -16.0544 C   0  0  0  0  0  0  0  0  0  0  0  0
   23.3398   -3.4943  -15.3770 O   0  0  0  0  0  0  0  0  0  0  0  0
   22.3711   -4.9628  -12.7241 O   0  0  0  0  0  0  0  0  0  0  0  0
   24.7958   -4.7291  -16.5523 O   0  0  0  0  0  0  0  0  0  0  0  0
  2  1  1  0
  3  2  1  0
  4  5  1  0
  4  3  1  0
  5  6  1  6
  7  8  2  0
  7  5  1  0
  9  7  1  0
 10  9  1  0
 10 11  1  0
 11 13  1  0
 12 11  2  0
 13 14  1  0
 14 18  1  0
 14 15  1  1
 16 15  1  0
 17 16  2  0
 18 19  1  0
 20 16  1  0
 21 18  2  0
M  END
$$$$
