MGD.pdb
     RDKit          3D

 21 20  0  0  1  0  0  0  0  0999 V2000
   17.8926  -12.3490    2.9878 C   0  0  0  0  0  0  0  0  0  0  0  0
   18.4982  -13.9080    3.6896 S   0  0  0  0  0  0  0  0  0  0  0  0
   17.9539  -15.3290    2.6971 C   0  0  0  0  0  0  0  0  0  0  0  0
   18.4986  -16.6235    3.2452 C   0  0  0  0  0  0  0  0  0  0  0  0
   18.0281  -17.8068    2.4422 C   0  0  2  0  0  0  0  0  0  0  0  0
   16.5795  -17.7958    2.4327 N   0  0  0  0  0  0  0  0  0  0  0  0
   18.5400  -19.0915    2.9529 C   0  0  0  0  0  0  0  0  0  0  0  0
   18.0419  -20.1523    2.5011 O   0  0  0  0  0  0  0  0  0  0  0  0
   19.5628  -19.2027    3.9250 N   0  0  0  0  0  0  0  0  0  0  0  0
   20.0871  -20.4197    4.4415 C   0  0  0  0  0  0  0  0  0  0  0  0
   19.1512  -21.2500    5.2196 C   0  0  0  0  0  0  0  0  0  0  0  0
   18.0182  -20.7796    5.4556 O   0  0  0  0  0  0  0  0  0  0  0  0
   19.4922  -22.5257    5.6949 N   0  0  0  0  0  0  0  0  0  0  0  0
   18.5674  -23.3931    6.4323 C   0  0  1  0  0  0  0  0  0  0  0  0
   18.8940  -24.8191    6.1897 C   0  0  0  0  0  0  0  0  0  0  0  0
   18.1961  -25.4419    5.0496 C   0  0  0  0  0  0  0  0  0  0  0  0
   17.7335  -24.7689    4.0970 O   0  0  0  0  0  0  0  0  0  0  0  0
   18.5890  -23.0100    7.8755 C   0  0  0  0  0  0  0  0  0  0  0  0
   19.6059  -22.1774    8.3471 O   0  0  0  0  0  0  0  0  0  0  0  0
   18.0330  -26.8194    5.0065 O   0  0  0  0  0  0  0  0  0  0  0  0
   17.7524  -23.3798    8.7279 O   0  0  0  0  0  0  0  0  0  0  0  0
  2  1  1  0
  3  2  1  0
  4  5  1  0
  4  3  1  0
  5  6  1  1
  7  8  2  0
  7  5  1  0
  9  7  1  0
 10  9  1  0
 10 11  1  0
 11 13  1  0
 12 11  2  0
 13 14  1  0
 14 18  1  0
 14 15  1  1
 16 15  1  0
 17 16  2  0
 18 19  1  0
 20 16  1  0
 21 18  2  0
M  END
$$$$
