MGD.pdb
     RDKit          3D

 21 20  0  0  1  0  0  0  0  0999 V2000
   29.9602  -21.5743   -9.9270 C   0  0  0  0  0  0  0  0  0  0  0  0
   28.6825  -21.1829   -8.7007 S   0  0  0  0  0  0  0  0  0  0  0  0
   27.0272  -21.2034   -9.4493 C   0  0  0  0  0  0  0  0  0  0  0  0
   27.1030  -21.3554  -10.9473 C   0  0  0  0  0  0  0  0  0  0  0  0
   26.5001  -20.1716  -11.6555 C   0  0  2  0  0  0  0  0  0  0  0  0
   25.0907  -20.4389  -11.8573 N   0  0  0  0  0  0  0  0  0  0  0  0
   27.1647  -19.8643  -12.9351 C   0  0  0  0  0  0  0  0  0  0  0  0
   28.4185  -19.9190  -12.9825 O   0  0  0  0  0  0  0  0  0  0  0  0
   26.4729  -19.5103  -14.1182 N   0  0  0  0  0  0  0  0  0  0  0  0
   26.9820  -19.6223  -15.4414 C   0  0  0  0  0  0  0  0  0  0  0  0
   26.4356  -20.7224  -16.2551 C   0  0  0  0  0  0  0  0  0  0  0  0
   26.0901  -20.4600  -17.4266 O   0  0  0  0  0  0  0  0  0  0  0  0
   26.2932  -22.0275  -15.7590 N   0  0  0  0  0  0  0  0  0  0  0  0
   25.6300  -23.1094  -16.4946 C   0  0  1  0  0  0  0  0  0  0  0  0
   25.9832  -24.4243  -15.9067 C   0  0  0  0  0  0  0  0  0  0  0  0
   25.4079  -25.5972  -16.5909 C   0  0  0  0  0  0  0  0  0  0  0  0
   24.6713  -25.4904  -17.6012 O   0  0  0  0  0  0  0  0  0  0  0  0
   24.1609  -22.8432  -16.5296 C   0  0  0  0  0  0  0  0  0  0  0  0
   23.4708  -22.9734  -17.7364 O   0  0  0  0  0  0  0  0  0  0  0  0
   25.6766  -26.8744  -16.1194 O   0  0  0  0  0  0  0  0  0  0  0  0
   23.4705  -22.5025  -15.5445 O   0  0  0  0  0  0  0  0  0  0  0  0
  2  1  1  0
  3  2  1  0
  4  5  1  0
  4  3  1  0
  5  6  1  6
  7  8  2  0
  7  5  1  0
  9  7  1  0
 10  9  1  0
 10 11  1  0
 11 13  1  0
 12 11  2  0
 13 14  1  0
 14 18  1  0
 14 15  1  1
 16 15  1  0
 17 16  2  0
 18 19  1  0
 20 16  1  0
 21 18  2  0
M  END
$$$$
