MGD.pdb
     RDKit          3D

 21 20  0  0  1  0  0  0  0  0999 V2000
   27.3885  -15.8810  -16.4178 C   0  0  0  0  0  0  0  0  0  0  0  0
   25.6931  -15.3518  -16.0502 S   0  0  0  0  0  0  0  0  0  0  0  0
   25.6717  -14.0627  -14.7702 C   0  0  0  0  0  0  0  0  0  0  0  0
   24.2627  -13.6440  -14.4350 C   0  0  0  0  0  0  0  0  0  0  0  0
   23.5537  -13.0743  -15.6347 C   0  0  2  0  0  0  0  0  0  0  0  0
   24.3232  -11.9457  -16.1171 N   0  0  0  0  0  0  0  0  0  0  0  0
   22.1628  -12.6778  -15.3491 C   0  0  0  0  0  0  0  0  0  0  0  0
   21.3675  -13.5560  -14.9324 O   0  0  0  0  0  0  0  0  0  0  0  0
   21.6674  -11.3624  -15.5162 N   0  0  0  0  0  0  0  0  0  0  0  0
   20.3827  -10.9031  -15.1147 C   0  0  0  0  0  0  0  0  0  0  0  0
   20.1020   -9.4760  -15.3499 C   0  0  0  0  0  0  0  0  0  0  0  0
   18.9052   -9.1259  -15.4262 O   0  0  0  0  0  0  0  0  0  0  0  0
   21.1209   -8.5211  -15.4906 N   0  0  0  0  0  0  0  0  0  0  0  0
   20.8759   -7.1124  -15.8180 C   0  0  1  0  0  0  0  0  0  0  0  0
   21.9965   -6.2690  -15.3362 C   0  0  0  0  0  0  0  0  0  0  0  0
   22.0519   -6.0658  -13.8766 C   0  0  0  0  0  0  0  0  0  0  0  0
   21.1825   -6.5311  -13.1007 O   0  0  0  0  0  0  0  0  0  0  0  0
   20.6222   -6.9919  -17.2847 C   0  0  0  0  0  0  0  0  0  0  0  0
   20.0064   -5.8407  -17.7800 O   0  0  0  0  0  0  0  0  0  0  0  0
   23.0931   -5.3378  -13.3181 O   0  0  0  0  0  0  0  0  0  0  0  0
   20.9199   -7.8567  -18.1371 O   0  0  0  0  0  0  0  0  0  0  0  0
  2  1  1  0
  3  2  1  0
  4  5  1  0
  4  3  1  0
  5  6  1  1
  7  8  2  0
  7  5  1  0
  9  7  1  0
 10  9  1  0
 10 11  1  0
 11 13  1  0
 12 11  2  0
 13 14  1  0
 14 18  1  0
 14 15  1  6
 16 15  1  0
 17 16  2  0
 18 19  1  0
 20 16  1  0
 21 18  2  0
M  END
$$$$
