MGD.pdb
     RDKit          3D

 21 20  0  0  1  0  0  0  0  0999 V2000
   25.7159  -16.6892  -14.5605 C   0  0  0  0  0  0  0  0  0  0  0  0
   27.0446  -15.5802  -15.1029 S   0  0  0  0  0  0  0  0  0  0  0  0
   26.4503  -14.4108  -16.3598 C   0  0  0  0  0  0  0  0  0  0  0  0
   25.3833  -13.5018  -15.8045 C   0  0  0  0  0  0  0  0  0  0  0  0
   24.0435  -13.7694  -16.4367 C   0  0  2  0  0  0  0  0  0  0  0  0
   24.1851  -13.6183  -17.8705 N   0  0  0  0  0  0  0  0  0  0  0  0
   22.9759  -12.8940  -15.9195 C   0  0  0  0  0  0  0  0  0  0  0  0
   22.7032  -12.9482  -14.6947 O   0  0  0  0  0  0  0  0  0  0  0  0
   22.2368  -11.9925  -16.7224 N   0  0  0  0  0  0  0  0  0  0  0  0
   21.2142  -11.1183  -16.2613 C   0  0  0  0  0  0  0  0  0  0  0  0
   21.5466   -9.6830  -16.2463 C   0  0  0  0  0  0  0  0  0  0  0  0
   22.6809   -9.3469  -16.6477 O   0  0  0  0  0  0  0  0  0  0  0  0
   20.6440   -8.7054  -15.8000 N   0  0  0  0  0  0  0  0  0  0  0  0
   20.8688   -7.2633  -15.9464 C   0  0  1  0  0  0  0  0  0  0  0  0
   19.6158   -6.5858  -16.3591 C   0  0  0  0  0  0  0  0  0  0  0  0
   19.7250   -5.1305  -16.5711 C   0  0  0  0  0  0  0  0  0  0  0  0
   20.8314   -4.5507  -16.6903 O   0  0  0  0  0  0  0  0  0  0  0  0
   21.4484   -6.7310  -14.6773 C   0  0  0  0  0  0  0  0  0  0  0  0
   22.1240   -5.5091  -14.6935 O   0  0  0  0  0  0  0  0  0  0  0  0
   18.5774   -4.3537  -16.6451 O   0  0  0  0  0  0  0  0  0  0  0  0
   21.3823   -7.2989  -13.5654 O   0  0  0  0  0  0  0  0  0  0  0  0
  2  1  1  0
  3  2  1  0
  4  5  1  0
  4  3  1  0
  5  6  1  6
  7  8  2  0
  7  5  1  0
  9  7  1  0
 10  9  1  0
 10 11  1  0
 11 13  1  0
 12 11  2  0
 13 14  1  0
 14 18  1  0
 14 15  1  1
 16 15  1  0
 17 16  2  0
 18 19  1  0
 20 16  1  0
 21 18  2  0
M  END
$$$$
