VTM.pdb
     RDKit          3D

 23 22  0  0  1  0  0  0  0  0999 V2000
    8.2365  -12.4854   17.8509 C   0  0  0  0  0  0  0  0  0  0  0  0
    7.9418  -13.3844   19.0556 C   0  0  2  0  0  0  0  0  0  0  0  0
    8.5685  -12.7212   20.2611 C   0  0  0  0  0  0  0  0  0  0  0  0
    8.5849  -14.7216   18.7572 C   0  0  2  0  0  0  0  0  0  0  0  0
    8.0516  -15.2245   17.5382 N   0  0  0  0  0  0  0  0  0  0  0  0
    8.3393  -15.5978   19.9261 C   0  0  0  0  0  0  0  0  0  0  0  0
    7.1785  -16.0336   20.1060 O   0  0  0  0  0  0  0  0  0  0  0  0
    9.5619  -18.8796   20.7224 C   0  0  0  0  0  0  0  0  0  0  0  0
    9.9144  -18.0698   21.9521 C   0  0  1  0  0  0  0  0  0  0  0  0
   11.2615  -17.7118   21.8185 O   0  0  0  0  0  0  0  0  0  0  0  0
    9.1217  -16.7795   22.0075 C   0  0  2  0  0  0  0  0  0  0  0  0
    9.3511  -15.9594   20.8388 N   0  0  0  0  0  0  0  0  0  0  0  0
    9.4463  -15.9839   23.1965 C   0  0  0  0  0  0  0  0  0  0  0  0
   10.2242  -15.0174   23.1059 O   0  0  0  0  0  0  0  0  0  0  0  0
    6.4251  -10.9556   27.5737 C   0  0  0  0  0  0  0  0  0  0  0  0
    6.2458  -12.4563   26.5561 S   0  0  0  0  0  0  0  0  0  0  0  0
    7.7535  -13.4712   26.6679 C   0  0  0  0  0  0  0  0  0  0  0  0
    7.7037  -14.4881   25.5590 C   0  0  0  0  0  0  0  0  0  0  0  0
    8.9390  -15.3656   25.5495 C   0  0  2  0  0  0  0  0  0  0  0  0
    8.8829  -16.3080   24.4408 N   0  0  0  0  0  0  0  0  0  0  0  0
    9.0711  -16.1407   26.7932 C   0  0  0  0  0  0  0  0  0  0  0  0
    9.4583  -15.5304   27.9611 O   0  0  0  0  0  0  0  0  0  0  0  0
    8.8282  -17.3634   26.7821 O   0  0  0  0  0  0  0  0  0  0  0  0
  2  3  1  1
  2  1  1  0
  4  2  1  0
  4  5  1  6
  6  7  2  0
  6  4  1  0
  9  8  1  6
  9 10  1  0
  9 11  1  0
 11 12  1  6
 12  6  1  0
 13 11  1  0
 13 20  1  0
 14 13  2  0
 15 16  1  0
 16 17  1  0
 19 18  1  1
 18 17  1  0
 19 20  1  0
 19 21  1  0
 21 22  1  0
 23 21  2  0
M  END
$$$$
