VTM.pdb
     RDKit          3D

 23 22  0  0  1  0  0  0  0  0999 V2000
    6.9402  -13.1704   20.5456 C   0  0  0  0  0  0  0  0  0  0  0  0
    8.3548  -13.2199   19.9604 C   0  0  2  0  0  0  0  0  0  0  0  0
    8.3390  -12.3794   18.7038 C   0  0  0  0  0  0  0  0  0  0  0  0
    8.6393  -14.6747   19.6550 C   0  0  2  0  0  0  0  0  0  0  0  0
    7.7979  -15.0915   18.5866 N   0  0  0  0  0  0  0  0  0  0  0  0
    8.4361  -15.4350   20.9101 C   0  0  0  0  0  0  0  0  0  0  0  0
    7.2617  -15.6884   21.2655 O   0  0  0  0  0  0  0  0  0  0  0  0
    9.4897  -18.7867   21.7429 C   0  0  0  0  0  0  0  0  0  0  0  0
    9.9893  -17.9660   22.9130 C   0  0  1  0  0  0  0  0  0  0  0  0
   11.3530  -17.7420   22.6868 O   0  0  0  0  0  0  0  0  0  0  0  0
    9.3232  -16.6056   22.9555 C   0  0  2  0  0  0  0  0  0  0  0  0
    9.5027  -15.8824   21.7162 N   0  0  0  0  0  0  0  0  0  0  0  0
    9.8370  -15.7744   24.0497 C   0  0  0  0  0  0  0  0  0  0  0  0
   10.2589  -14.6278   23.8156 O   0  0  0  0  0  0  0  0  0  0  0  0
    7.0836  -11.6591   25.8953 C   0  0  0  0  0  0  0  0  0  0  0  0
    6.8597  -12.6455   27.4107 S   0  0  0  0  0  0  0  0  0  0  0  0
    8.3070  -13.7177   27.6783 C   0  0  0  0  0  0  0  0  0  0  0  0
    8.5066  -14.5365   26.4310 C   0  0  0  0  0  0  0  0  0  0  0  0
    9.7783  -15.3576   26.4990 C   0  0  2  0  0  0  0  0  0  0  0  0
    9.8561  -16.2668   25.3641 N   0  0  0  0  0  0  0  0  0  0  0  0
    9.8455  -16.1643   27.7278 C   0  0  0  0  0  0  0  0  0  0  0  0
   10.5767  -15.7351   28.8083 O   0  0  0  0  0  0  0  0  0  0  0  0
    9.2311  -17.2476   27.7841 O   0  0  0  0  0  0  0  0  0  0  0  0
  2  3  1  6
  2  1  1  0
  4  2  1  0
  4  5  1  6
  6  7  2  0
  6  4  1  0
  9  8  1  6
  9 10  1  0
  9 11  1  0
 11 12  1  6
 12  6  1  0
 13 11  1  0
 13 20  1  0
 14 13  2  0
 15 16  1  0
 16 17  1  0
 19 18  1  6
 18 17  1  0
 19 20  1  0
 19 21  1  0
 21 22  1  0
 23 21  2  0
M  END
$$$$
