VTM.pdb
     RDKit          3D

 23 22  0  0  1  0  0  0  0  0999 V2000
    7.2119  -13.2451   20.7197 C   0  0  0  0  0  0  0  0  0  0  0  0
    8.6271  -13.2844   20.1349 C   0  0  2  0  0  0  0  0  0  0  0  0
    8.6614  -12.2831   19.0027 C   0  0  0  0  0  0  0  0  0  0  0  0
    8.8436  -14.6972   19.6371 C   0  0  2  0  0  0  0  0  0  0  0  0
    7.8745  -14.9837   18.6361 N   0  0  0  0  0  0  0  0  0  0  0  0
    8.7729  -15.5935   20.8144 C   0  0  0  0  0  0  0  0  0  0  0  0
    7.6420  -15.9324   21.2337 O   0  0  0  0  0  0  0  0  0  0  0  0
    9.7070  -18.9645   21.0157 C   0  0  0  0  0  0  0  0  0  0  0  0
   10.4507  -18.3631   22.1893 C   0  0  1  0  0  0  0  0  0  0  0  0
   11.7600  -18.1293   21.7515 O   0  0  0  0  0  0  0  0  0  0  0  0
    9.8717  -17.0174   22.5769 C   0  0  2  0  0  0  0  0  0  0  0  0
    9.9183  -16.0779   21.4785 N   0  0  0  0  0  0  0  0  0  0  0  0
   10.5753  -16.4229   23.7186 C   0  0  0  0  0  0  0  0  0  0  0  0
   11.4955  -15.6080   23.5274 O   0  0  0  0  0  0  0  0  0  0  0  0
    8.5568  -12.6125   27.5869 C   0  0  0  0  0  0  0  0  0  0  0  0
    9.4306  -13.5129   28.9080 S   0  0  0  0  0  0  0  0  0  0  0  0
   10.5767  -14.7285   28.1836 C   0  0  0  0  0  0  0  0  0  0  0  0
    9.9839  -15.1967   26.8814 C   0  0  0  0  0  0  0  0  0  0  0  0
   10.8986  -16.1731   26.1700 C   0  0  2  0  0  0  0  0  0  0  0  0
   10.2156  -16.7694   25.0305 N   0  0  0  0  0  0  0  0  0  0  0  0
   11.3324  -17.2643   27.0566 C   0  0  0  0  0  0  0  0  0  0  0  0
   12.3598  -17.0757   27.9485 O   0  0  0  0  0  0  0  0  0  0  0  0
   10.7590  -18.3695   26.9941 O   0  0  0  0  0  0  0  0  0  0  0  0
  2  3  1  6
  2  1  1  0
  4  2  1  0
  4  5  1  6
  6  7  2  0
  6  4  1  0
  9  8  1  6
  9 10  1  0
  9 11  1  0
 11 12  1  6
 12  6  1  0
 13 11  1  0
 13 20  1  0
 14 13  2  0
 15 16  1  0
 16 17  1  0
 19 18  1  1
 18 17  1  0
 19 20  1  0
 19 21  1  0
 21 22  1  0
 23 21  2  0
M  END
$$$$
