VTM.pdb
     RDKit          3D

 23 22  0  0  1  0  0  0  0  0999 V2000
    7.8263  -12.6728   18.4798 C   0  0  0  0  0  0  0  0  0  0  0  0
    7.8985  -13.4803   19.7794 C   0  0  2  0  0  0  0  0  0  0  0  0
    8.9356  -12.8122   20.6535 C   0  0  0  0  0  0  0  0  0  0  0  0
    8.3171  -14.8811   19.3884 C   0  0  2  0  0  0  0  0  0  0  0  0
    7.3393  -15.4227   18.5087 N   0  0  0  0  0  0  0  0  0  0  0  0
    8.4909  -15.6534   20.6405 C   0  0  0  0  0  0  0  0  0  0  0  0
    7.4669  -15.9605   21.2939 O   0  0  0  0  0  0  0  0  0  0  0  0
   11.3260  -18.5874   23.4609 C   0  0  0  0  0  0  0  0  0  0  0  0
   11.1490  -17.7522   22.2106 C   0  0  1  0  0  0  0  0  0  0  0  0
   10.8900  -18.6497   21.1674 O   0  0  0  0  0  0  0  0  0  0  0  0
    9.9388  -16.8469   22.3199 C   0  0  2  0  0  0  0  0  0  0  0  0
    9.7527  -16.0546   21.1246 N   0  0  0  0  0  0  0  0  0  0  0  0
   10.0349  -15.9340   23.4643 C   0  0  0  0  0  0  0  0  0  0  0  0
   10.7950  -14.9505   23.4143 O   0  0  0  0  0  0  0  0  0  0  0  0
    5.4474  -12.4247   26.6020 C   0  0  0  0  0  0  0  0  0  0  0  0
    7.2085  -11.9748   26.7286 S   0  0  0  0  0  0  0  0  0  0  0  0
    8.2137  -13.4629   27.0304 C   0  0  0  0  0  0  0  0  0  0  0  0
    8.2750  -14.2422   25.7440 C   0  0  0  0  0  0  0  0  0  0  0  0
    9.3805  -15.2783   25.7704 C   0  0  2  0  0  0  0  0  0  0  0  0
    9.2722  -16.1646   24.6200 N   0  0  0  0  0  0  0  0  0  0  0  0
    9.3263  -16.1077   26.9846 C   0  0  0  0  0  0  0  0  0  0  0  0
    9.8064  -15.6315   28.1801 O   0  0  0  0  0  0  0  0  0  0  0  0
    8.8391  -17.2535   26.9230 O   0  0  0  0  0  0  0  0  0  0  0  0
  2  3  1  1
  2  1  1  0
  4  2  1  0
  4  5  1  6
  6  7  2  0
  6  4  1  0
  9  8  1  1
  9 10  1  0
  9 11  1  0
 11 12  1  6
 12  6  1  0
 13 11  1  0
 13 20  1  0
 14 13  2  0
 15 16  1  0
 16 17  1  0
 19 18  1  1
 18 17  1  0
 19 20  1  0
 19 21  1  0
 21 22  1  0
 23 21  2  0
M  END
$$$$
