VTM.pdb
     RDKit          3D

 23 22  0  0  1  0  0  0  0  0999 V2000
    8.4481  -12.5268   18.5001 C   0  0  0  0  0  0  0  0  0  0  0  0
    8.0317  -13.2602   19.7788 C   0  0  2  0  0  0  0  0  0  0  0  0
    8.6462  -12.5064   20.9363 C   0  0  0  0  0  0  0  0  0  0  0  0
    8.5898  -14.6626   19.6670 C   0  0  2  0  0  0  0  0  0  0  0  0
    8.0344  -15.2861   18.5155 N   0  0  0  0  0  0  0  0  0  0  0  0
    8.2797  -15.3613   20.9358 C   0  0  0  0  0  0  0  0  0  0  0  0
    7.0843  -15.6487   21.1768 O   0  0  0  0  0  0  0  0  0  0  0  0
    8.7098  -18.6260   21.9161 C   0  0  0  0  0  0  0  0  0  0  0  0
    9.4471  -17.8817   23.0091 C   0  0  1  0  0  0  0  0  0  0  0  0
   10.7954  -17.8570   22.6321 O   0  0  0  0  0  0  0  0  0  0  0  0
    8.9906  -16.4395   23.0976 C   0  0  2  0  0  0  0  0  0  0  0  0
    9.2676  -15.7142   21.8776 N   0  0  0  0  0  0  0  0  0  0  0  0
    9.6290  -15.7266   24.2095 C   0  0  0  0  0  0  0  0  0  0  0  0
   10.6857  -15.0979   24.0215 O   0  0  0  0  0  0  0  0  0  0  0  0
    5.3671  -12.5916   26.7204 C   0  0  0  0  0  0  0  0  0  0  0  0
    7.0014  -12.0204   27.2881 S   0  0  0  0  0  0  0  0  0  0  0  0
    8.3179  -12.9437   26.4335 C   0  0  0  0  0  0  0  0  0  0  0  0
    8.6615  -14.1399   27.2803 C   0  0  0  0  0  0  0  0  0  0  0  0
    9.6739  -15.0365   26.5966 C   0  0  2  0  0  0  0  0  0  0  0  0
    9.0529  -15.7502   25.4894 N   0  0  0  0  0  0  0  0  0  0  0  0
   10.2332  -16.0364   27.5198 C   0  0  0  0  0  0  0  0  0  0  0  0
   11.1203  -15.6653   28.5005 O   0  0  0  0  0  0  0  0  0  0  0  0
    9.8959  -17.2312   27.4070 O   0  0  0  0  0  0  0  0  0  0  0  0
  2  3  1  1
  2  1  1  0
  4  2  1  0
  4  5  1  6
  6  7  2  0
  6  4  1  0
  9  8  1  6
  9 10  1  0
  9 11  1  0
 11 12  1  6
 12  6  1  0
 13 11  1  0
 13 20  1  0
 14 13  2  0
 15 16  1  0
 16 17  1  0
 19 18  1  1
 18 17  1  0
 19 20  1  0
 19 21  1  0
 21 22  1  0
 23 21  2  0
M  END
$$$$
