VTM.pdb
     RDKit          3D

 23 22  0  0  1  0  0  0  0  0999 V2000
    6.8855  -13.4134   20.1675 C   0  0  0  0  0  0  0  0  0  0  0  0
    8.3320  -13.2370   19.6955 C   0  0  2  0  0  0  0  0  0  0  0  0
    8.3311  -12.1052   18.6932 C   0  0  0  0  0  0  0  0  0  0  0  0
    8.7348  -14.5483   19.0560 C   0  0  2  0  0  0  0  0  0  0  0  0
    7.9134  -14.7737   17.9169 N   0  0  0  0  0  0  0  0  0  0  0  0
    8.6199  -15.5975   20.0954 C   0  0  0  0  0  0  0  0  0  0  0  0
    7.5378  -16.2219   20.1895 O   0  0  0  0  0  0  0  0  0  0  0  0
   10.4520  -18.9580   23.1010 C   0  0  0  0  0  0  0  0  0  0  0  0
   10.6290  -17.9312   22.0027 C   0  0  1  0  0  0  0  0  0  0  0  0
   10.4639  -18.6138   20.7912 O   0  0  0  0  0  0  0  0  0  0  0  0
    9.5468  -16.8720   22.0595 C   0  0  2  0  0  0  0  0  0  0  0  0
    9.6711  -15.9206   20.9776 N   0  0  0  0  0  0  0  0  0  0  0  0
    9.5666  -16.1312   23.3256 C   0  0  0  0  0  0  0  0  0  0  0  0
   10.1871  -15.0563   23.4086 O   0  0  0  0  0  0  0  0  0  0  0  0
    6.9206  -11.0572   27.4127 C   0  0  0  0  0  0  0  0  0  0  0  0
    6.5306  -12.6805   26.6832 S   0  0  0  0  0  0  0  0  0  0  0  0
    8.0671  -13.5588   26.2546 C   0  0  0  0  0  0  0  0  0  0  0  0
    7.6839  -14.8877   25.6604 C   0  0  0  0  0  0  0  0  0  0  0  0
    8.8404  -15.8664   25.6876 C   0  0  2  0  0  0  0  0  0  0  0  0
    8.8877  -16.6300   24.4484 N   0  0  0  0  0  0  0  0  0  0  0  0
    8.7250  -16.8214   26.8010 C   0  0  0  0  0  0  0  0  0  0  0  0
    9.3104  -16.5561   28.0148 O   0  0  0  0  0  0  0  0  0  0  0  0
    8.0888  -17.8808   26.6364 O   0  0  0  0  0  0  0  0  0  0  0  0
  2  3  1  6
  2  1  1  0
  4  2  1  0
  4  5  1  6
  6  7  2  0
  6  4  1  0
  9  8  1  1
  9 10  1  0
  9 11  1  0
 11 12  1  6
 12  6  1  0
 13 11  1  0
 13 20  1  0
 14 13  2  0
 15 16  1  0
 16 17  1  0
 19 18  1  6
 18 17  1  0
 19 20  1  0
 19 21  1  0
 21 22  1  0
 23 21  2  0
M  END
$$$$
