VCL.pdb
     RDKit          3D

 22 21  0  0  1  0  0  0  0  0999 V2000
    8.5535  -12.9811   18.0492 C   0  0  0  0  0  0  0  0  0  0  0  0
    7.8045  -13.6062   19.2062 C   0  0  2  0  0  0  0  0  0  0  0  0
    8.0888  -12.8252   20.4637 C   0  0  0  0  0  0  0  0  0  0  0  0
    8.2022  -15.0634   19.3539 C   0  0  2  0  0  0  0  0  0  0  0  0
    7.7576  -15.7561   18.1808 N   0  0  0  0  0  0  0  0  0  0  0  0
    7.6218  -15.6452   20.5979 C   0  0  0  0  0  0  0  0  0  0  0  0
    6.4093  -16.0135   20.5447 O   0  0  0  0  0  0  0  0  0  0  0  0
    8.3700  -15.7836   21.7750 N   0  0  0  0  0  0  0  0  0  0  0  0
    7.7491  -16.3440   22.9910 C   0  0  1  0  0  0  0  0  0  0  0  0
    7.9235  -17.8248   22.9472 C   0  0  0  0  0  0  0  0  0  0  0  0
    7.4073  -18.7339   24.3906 S   0  0  0  0  0  0  0  0  0  0  0  0
    8.3500  -15.7304   24.1636 C   0  0  0  0  0  0  0  0  0  0  0  0
    9.6221  -15.5529   24.2544 O   0  0  0  0  0  0  0  0  0  0  0  0
    7.7934  -11.5677   25.8921 C   0  0  0  0  0  0  0  0  0  0  0  0
    6.7996  -12.5809   26.4561 C   0  0  2  0  0  0  0  0  0  0  0  0
    5.6734  -11.8953   27.1212 C   0  0  0  0  0  0  0  0  0  0  0  0
    7.4977  -13.6733   27.1911 C   0  0  0  0  0  0  0  0  0  0  0  0
    8.2841  -14.6566   26.4072 C   0  0  2  0  0  0  0  0  0  0  0  0
    7.6095  -15.2786   25.2777 N   0  0  0  0  0  0  0  0  0  0  0  0
    8.7852  -15.7587   27.3207 C   0  0  0  0  0  0  0  0  0  0  0  0
    8.2788  -16.8844   27.1370 O   0  0  0  0  0  0  0  0  0  0  0  0
    9.7233  -15.6024   28.3019 O   0  0  0  0  0  0  0  0  0  0  0  0
  2  1  1  6
  2  3  1  0
  4  2  1  0
  4  5  1  6
  6  4  1  0
  6  8  1  0
  7  6  2  0
  9  8  1  0
  9 12  1  0
  9 10  1  1
 11 10  1  0
 12 19  1  0
 12 13  2  0
 15 17  1  0
 15 14  1  1
 16 15  1  0
 18 20  1  0
 18 17  1  1
 19 18  1  0
 20 22  1  0
 21 20  2  0
M  END
$$$$
