VCL.pdb
     RDKit          3D

 22 21  0  0  1  0  0  0  0  0999 V2000
   13.0740  -19.5216   20.4209 C   0  0  0  0  0  0  0  0  0  0  0  0
   12.4139  -18.3313   21.0826 C   0  0  2  0  0  0  0  0  0  0  0  0
   11.9199  -18.7317   22.4492 C   0  0  0  0  0  0  0  0  0  0  0  0
   11.2837  -17.8150   20.2112 C   0  0  2  0  0  0  0  0  0  0  0  0
   11.8476  -17.4305   18.9510 N   0  0  0  0  0  0  0  0  0  0  0  0
   10.5806  -16.6807   20.8761 C   0  0  0  0  0  0  0  0  0  0  0  0
   11.2243  -15.5930   20.9821 O   0  0  0  0  0  0  0  0  0  0  0  0
    9.2722  -16.7988   21.3642 N   0  0  0  0  0  0  0  0  0  0  0  0
    8.6048  -15.6429   21.9942 C   0  0  1  0  0  0  0  0  0  0  0  0
    7.1983  -15.6067   21.4986 C   0  0  0  0  0  0  0  0  0  0  0  0
    6.0648  -14.5553   22.3852 S   0  0  0  0  0  0  0  0  0  0  0  0
    8.7004  -15.7622   23.4396 C   0  0  0  0  0  0  0  0  0  0  0  0
    8.3371  -16.8344   24.0530 O   0  0  0  0  0  0  0  0  0  0  0  0
    8.1078  -11.8610   26.4693 C   0  0  0  0  0  0  0  0  0  0  0  0
    6.8887  -12.4826   25.7915 C   0  0  2  0  0  0  0  0  0  0  0  0
    5.6534  -12.1516   26.5300 C   0  0  0  0  0  0  0  0  0  0  0  0
    7.1374  -13.9065   25.4288 C   0  0  0  0  0  0  0  0  0  0  0  0
    8.5230  -14.4258   25.5309 C   0  0  2  0  0  0  0  0  0  0  0  0
    9.1949  -14.7401   24.2790 N   0  0  0  0  0  0  0  0  0  0  0  0
    8.5428  -15.6684   26.4003 C   0  0  0  0  0  0  0  0  0  0  0  0
    9.3702  -15.6605   27.3345 O   0  0  0  0  0  0  0  0  0  0  0  0
    7.7408  -16.7614   26.2300 O   0  0  0  0  0  0  0  0  0  0  0  0
  2  1  1  6
  2  3  1  0
  4  2  1  0
  4  5  1  6
  6  4  1  0
  6  8  1  0
  7  6  2  0
  9  8  1  0
  9 12  1  0
  9 10  1  1
 11 10  1  0
 12 19  1  0
 12 13  2  0
 15 17  1  0
 15 14  1  1
 16 15  1  0
 18 20  1  0
 18 17  1  6
 19 18  1  0
 20 22  1  0
 21 20  2  0
M  END
$$$$
