VCL.pdb
     RDKit          3D

 22 21  0  0  1  0  0  0  0  0999 V2000
    8.3719  -13.1146   17.8347 C   0  0  0  0  0  0  0  0  0  0  0  0
    7.6339  -13.7789   18.9770 C   0  0  2  0  0  0  0  0  0  0  0  0
    7.6326  -12.8590   20.1710 C   0  0  0  0  0  0  0  0  0  0  0  0
    8.2780  -15.1138   19.3032 C   0  0  2  0  0  0  0  0  0  0  0  0
    8.1160  -15.9649   18.1616 N   0  0  0  0  0  0  0  0  0  0  0  0
    7.6722  -15.7061   20.5301 C   0  0  0  0  0  0  0  0  0  0  0  0
    6.8184  -16.6280   20.3576 O   0  0  0  0  0  0  0  0  0  0  0  0
    8.0215  -15.2735   21.8166 N   0  0  0  0  0  0  0  0  0  0  0  0
    7.5475  -16.0099   23.0046 C   0  0  1  0  0  0  0  0  0  0  0  0
    7.7899  -17.4619   22.7638 C   0  0  0  0  0  0  0  0  0  0  0  0
    7.5111  -18.5583   24.1410 S   0  0  0  0  0  0  0  0  0  0  0  0
    8.2261  -15.5035   24.1860 C   0  0  0  0  0  0  0  0  0  0  0  0
    9.5091  -15.4087   24.2377 O   0  0  0  0  0  0  0  0  0  0  0  0
    7.6149  -11.5081   25.7066 C   0  0  0  0  0  0  0  0  0  0  0  0
    6.7493  -12.4455   26.5457 C   0  0  2  0  0  0  0  0  0  0  0  0
    5.7522  -11.6823   27.3229 C   0  0  0  0  0  0  0  0  0  0  0  0
    7.5797  -13.4573   27.2583 C   0  0  0  0  0  0  0  0  0  0  0  0
    8.2965  -14.4733   26.4498 C   0  0  2  0  0  0  0  0  0  0  0  0
    7.5545  -15.0740   25.3514 N   0  0  0  0  0  0  0  0  0  0  0  0
    8.7912  -15.5897   27.3493 C   0  0  0  0  0  0  0  0  0  0  0  0
    9.5030  -15.2334   28.3104 O   0  0  0  0  0  0  0  0  0  0  0  0
    8.5184  -16.9177   27.1787 O   0  0  0  0  0  0  0  0  0  0  0  0
  2  1  1  6
  2  3  1  0
  4  2  1  0
  4  5  1  6
  6  4  1  0
  6  8  1  0
  7  6  2  0
  9  8  1  0
  9 12  1  0
  9 10  1  6
 11 10  1  0
 12 19  1  0
 12 13  2  0
 15 17  1  0
 15 14  1  1
 16 15  1  0
 18 20  1  0
 18 17  1  1
 19 18  1  0
 20 22  1  0
 21 20  2  0
M  END
$$$$
