VCL.pdb
     RDKit          3D

 22 21  0  0  1  0  0  0  0  0999 V2000
    7.0097  -13.0289   20.5209 C   0  0  0  0  0  0  0  0  0  0  0  0
    8.3063  -13.4313   19.8520 C   0  0  2  0  0  0  0  0  0  0  0  0
    8.4414  -12.6949   18.5438 C   0  0  0  0  0  0  0  0  0  0  0  0
    8.3402  -14.9352   19.6505 C   0  0  2  0  0  0  0  0  0  0  0  0
    7.3793  -15.2596   18.6380 N   0  0  0  0  0  0  0  0  0  0  0  0
    8.0613  -15.6456   20.9313 C   0  0  0  0  0  0  0  0  0  0  0  0
    6.8516  -15.9455   21.1664 O   0  0  0  0  0  0  0  0  0  0  0  0
    9.0782  -15.9713   21.8391 N   0  0  0  0  0  0  0  0  0  0  0  0
    8.7509  -16.6245   23.1215 C   0  0  1  0  0  0  0  0  0  0  0  0
    9.5349  -17.8913   23.1974 C   0  0  0  0  0  0  0  0  0  0  0  0
    9.5298  -18.7423   24.7634 S   0  0  0  0  0  0  0  0  0  0  0  0
    9.0350  -15.7082   24.2135 C   0  0  0  0  0  0  0  0  0  0  0  0
   10.1749  -15.1189   24.3197 O   0  0  0  0  0  0  0  0  0  0  0  0
    7.9691  -11.5995   25.8469 C   0  0  0  0  0  0  0  0  0  0  0  0
    6.9160  -12.6478   26.1994 C   0  0  2  0  0  0  0  0  0  0  0  0
    5.6742  -12.0040   26.6728 C   0  0  0  0  0  0  0  0  0  0  0  0
    7.4996  -13.7487   27.0168 C   0  0  0  0  0  0  0  0  0  0  0  0
    8.5240  -14.6206   26.3922 C   0  0  2  0  0  0  0  0  0  0  0  0
    8.1061  -15.3850   25.2267 N   0  0  0  0  0  0  0  0  0  0  0  0
    9.0682  -15.5923   27.4217 C   0  0  0  0  0  0  0  0  0  0  0  0
    9.5795  -15.0746   28.4356 O   0  0  0  0  0  0  0  0  0  0  0  0
    9.0377  -16.9539   27.3125 O   0  0  0  0  0  0  0  0  0  0  0  0
  2  1  1  6
  2  3  1  0
  4  2  1  0
  4  5  1  6
  6  4  1  0
  6  8  1  0
  7  6  2  0
  9  8  1  0
  9 12  1  0
  9 10  1  1
 11 10  1  0
 12 19  1  0
 12 13  2  0
 15 17  1  0
 15 14  1  1
 16 15  1  0
 18 20  1  0
 18 17  1  1
 19 18  1  0
 20 22  1  0
 21 20  2  0
M  END
$$$$
