VCL.pdb
     RDKit          3D

 22 21  0  0  1  0  0  0  0  0999 V2000
    8.3173  -12.6690   18.1105 C   0  0  0  0  0  0  0  0  0  0  0  0
    7.9951  -13.5296   19.3130 C   0  0  2  0  0  0  0  0  0  0  0  0
    8.3079  -12.7628   20.5724 C   0  0  0  0  0  0  0  0  0  0  0  0
    8.7756  -14.8293   19.2440 C   0  0  2  0  0  0  0  0  0  0  0  0
    8.4647  -15.4569   17.9937 N   0  0  0  0  0  0  0  0  0  0  0  0
    8.4454  -15.7053   20.4043 C   0  0  0  0  0  0  0  0  0  0  0  0
    7.9060  -16.8226   20.1413 O   0  0  0  0  0  0  0  0  0  0  0  0
    8.7134  -15.3234   21.7259 N   0  0  0  0  0  0  0  0  0  0  0  0
    8.7354  -16.3321   22.8031 C   0  0  1  0  0  0  0  0  0  0  0  0
    9.7002  -17.3981   22.4056 C   0  0  0  0  0  0  0  0  0  0  0  0
    9.9501  -18.7249   23.5691 S   0  0  0  0  0  0  0  0  0  0  0  0
    9.0800  -15.6864   24.0589 C   0  0  0  0  0  0  0  0  0  0  0  0
   10.2273  -15.1303   24.2384 O   0  0  0  0  0  0  0  0  0  0  0  0
    7.6636  -11.8844   25.7688 C   0  0  0  0  0  0  0  0  0  0  0  0
    6.7835  -13.0704   26.1573 C   0  0  2  0  0  0  0  0  0  0  0  0
    5.4603  -12.6099   26.6241 C   0  0  0  0  0  0  0  0  0  0  0  0
    7.5310  -14.0474   26.9986 C   0  0  0  0  0  0  0  0  0  0  0  0
    8.5894  -14.8633   26.3552 C   0  0  2  0  0  0  0  0  0  0  0  0
    8.2055  -15.6070   25.1647 N   0  0  0  0  0  0  0  0  0  0  0  0
    9.1621  -15.8454   27.3590 C   0  0  0  0  0  0  0  0  0  0  0  0
    9.5872  -15.3460   28.4208 O   0  0  0  0  0  0  0  0  0  0  0  0
    9.2423  -17.1976   27.1800 O   0  0  0  0  0  0  0  0  0  0  0  0
  2  1  1  6
  2  3  1  0
  4  2  1  0
  4  5  1  6
  6  4  1  0
  6  8  1  0
  7  6  2  0
  9  8  1  0
  9 12  1  0
  9 10  1  6
 11 10  1  0
 12 19  1  0
 12 13  2  0
 15 17  1  0
 15 14  1  1
 16 15  1  0
 18 20  1  0
 18 17  1  1
 19 18  1  0
 20 22  1  0
 21 20  2  0
M  END
$$$$
