VCL.pdb
     RDKit          3D

 22 21  0  0  1  0  0  0  0  0999 V2000
   11.6234  -15.8706   21.3534 C   0  0  0  0  0  0  0  0  0  0  0  0
   12.1924  -17.2673   21.2264 C   0  0  2  0  0  0  0  0  0  0  0  0
   13.0465  -17.3464   19.9869 C   0  0  0  0  0  0  0  0  0  0  0  0
   11.0664  -18.2843   21.1927 C   0  0  2  0  0  0  0  0  0  0  0  0
   10.3474  -18.0958   19.9674 N   0  0  0  0  0  0  0  0  0  0  0  0
   10.1841  -18.1344   22.3851 C   0  0  0  0  0  0  0  0  0  0  0  0
    9.1254  -17.4532   22.2303 O   0  0  0  0  0  0  0  0  0  0  0  0
   10.4987  -18.7133   23.6220 N   0  0  0  0  0  0  0  0  0  0  0  0
    9.6156  -18.5086   24.7867 C   0  0  1  0  0  0  0  0  0  0  0  0
    9.1273  -19.8480   25.2258 C   0  0  0  0  0  0  0  0  0  0  0  0
   10.3705  -21.0573   25.6362 S   0  0  0  0  0  0  0  0  0  0  0  0
   10.3447  -17.7962   25.8229 C   0  0  0  0  0  0  0  0  0  0  0  0
   11.6303  -17.8277   25.8855 O   0  0  0  0  0  0  0  0  0  0  0  0
    8.9930  -13.0576   28.5838 C   0  0  0  0  0  0  0  0  0  0  0  0
   10.1709  -13.9803   28.2784 C   0  0  2  0  0  0  0  0  0  0  0  0
   10.6736  -13.7520   26.9087 C   0  0  0  0  0  0  0  0  0  0  0  0
    9.8879  -15.3798   28.7052 C   0  0  0  0  0  0  0  0  0  0  0  0
   10.5018  -16.4876   27.9333 C   0  0  2  0  0  0  0  0  0  0  0  0
    9.7232  -17.0191   26.8248 N   0  0  0  0  0  0  0  0  0  0  0  0
   10.8399  -17.6363   28.8641 C   0  0  0  0  0  0  0  0  0  0  0  0
   11.7117  -17.3957   29.7241 O   0  0  0  0  0  0  0  0  0  0  0  0
   10.2715  -18.8781   28.8210 O   0  0  0  0  0  0  0  0  0  0  0  0
  2  1  1  6
  2  3  1  0
  4  2  1  0
  4  5  1  6
  6  4  1  0
  6  8  1  0
  7  6  2  0
  9  8  1  0
  9 12  1  0
  9 10  1  1
 11 10  1  0
 12 19  1  0
 12 13  2  0
 15 17  1  0
 15 14  1  6
 16 15  1  0
 18 20  1  0
 18 17  1  1
 19 18  1  0
 20 22  1  0
 21 20  2  0
M  END
$$$$
