VCL.pdb
     RDKit          3D

 22 21  0  0  1  0  0  0  0  0999 V2000
    8.0966  -12.6249   17.8062 C   0  0  0  0  0  0  0  0  0  0  0  0
    7.8711  -13.4356   19.0642 C   0  0  2  0  0  0  0  0  0  0  0  0
    8.4129  -12.6775   20.2490 C   0  0  0  0  0  0  0  0  0  0  0  0
    8.5267  -14.7975   18.9273 C   0  0  2  0  0  0  0  0  0  0  0  0
    7.9259  -15.4581   17.8063 N   0  0  0  0  0  0  0  0  0  0  0  0
    8.3754  -15.5846   20.1844 C   0  0  0  0  0  0  0  0  0  0  0  0
    7.2678  -16.1778   20.3572 O   0  0  0  0  0  0  0  0  0  0  0  0
    9.4004  -15.6721   21.1363 N   0  0  0  0  0  0  0  0  0  0  0  0
    9.2026  -16.4500   22.3749 C   0  0  1  0  0  0  0  0  0  0  0  0
   10.1631  -17.5910   22.3513 C   0  0  0  0  0  0  0  0  0  0  0  0
   11.7581  -17.2787   21.6200 S   0  0  0  0  0  0  0  0  0  0  0  0
    9.3777  -15.5768   23.5236 C   0  0  0  0  0  0  0  0  0  0  0  0
    9.9573  -14.4320   23.4179 O   0  0  0  0  0  0  0  0  0  0  0  0
    8.0533  -12.1052   26.7538 C   0  0  0  0  0  0  0  0  0  0  0  0
    6.8972  -12.8889   26.1362 C   0  0  2  0  0  0  0  0  0  0  0  0
    5.8928  -13.2357   27.1617 C   0  0  0  0  0  0  0  0  0  0  0  0
    7.3936  -13.9685   25.2369 C   0  0  0  0  0  0  0  0  0  0  0  0
    8.4842  -14.8457   25.7277 C   0  0  2  0  0  0  0  0  0  0  0  0
    8.9322  -15.8955   24.8250 N   0  0  0  0  0  0  0  0  0  0  0  0
    8.0725  -15.4940   27.0355 C   0  0  0  0  0  0  0  0  0  0  0  0
    8.6974  -15.1141   28.0467 O   0  0  0  0  0  0  0  0  0  0  0  0
    7.0947  -16.4386   27.1726 O   0  0  0  0  0  0  0  0  0  0  0  0
  2  1  1  6
  2  3  1  0
  4  2  1  0
  4  5  1  6
  6  4  1  0
  6  8  1  0
  7  6  2  0
  9  8  1  0
  9 12  1  0
  9 10  1  1
 11 10  1  0
 12 19  1  0
 12 13  2  0
 15 17  1  0
 15 14  1  1
 16 15  1  0
 18 20  1  0
 18 17  1  6
 19 18  1  0
 20 22  1  0
 21 20  2  0
M  END
$$$$
