VCL.pdb
     RDKit          3D

 22 21  0  0  1  0  0  0  0  0999 V2000
    8.3742  -12.7416   17.8359 C   0  0  0  0  0  0  0  0  0  0  0  0
    7.8255  -13.5746   18.9741 C   0  0  2  0  0  0  0  0  0  0  0  0
    7.9122  -12.7857   20.2556 C   0  0  0  0  0  0  0  0  0  0  0  0
    8.5883  -14.8829   19.0731 C   0  0  2  0  0  0  0  0  0  0  0  0
    8.3718  -15.6052   17.8543 N   0  0  0  0  0  0  0  0  0  0  0  0
    8.1493  -15.6606   20.2670 C   0  0  0  0  0  0  0  0  0  0  0  0
    7.3492  -16.6226   20.0595 O   0  0  0  0  0  0  0  0  0  0  0  0
    8.5925  -15.3529   21.5605 N   0  0  0  0  0  0  0  0  0  0  0  0
    8.1300  -16.1473   22.7152 C   0  0  1  0  0  0  0  0  0  0  0  0
    8.5705  -17.5563   22.5011 C   0  0  0  0  0  0  0  0  0  0  0  0
   10.3116  -17.8165   22.2232 S   0  0  0  0  0  0  0  0  0  0  0  0
    8.6517  -15.5634   23.9398 C   0  0  0  0  0  0  0  0  0  0  0  0
    9.8739  -15.1688   24.0310 O   0  0  0  0  0  0  0  0  0  0  0  0
    7.9717  -11.6280   25.6030 C   0  0  0  0  0  0  0  0  0  0  0  0
    6.9368  -12.6326   26.1050 C   0  0  2  0  0  0  0  0  0  0  0  0
    5.7500  -11.9374   26.6426 C   0  0  0  0  0  0  0  0  0  0  0  0
    7.5714  -13.6958   26.9342 C   0  0  0  0  0  0  0  0  0  0  0  0
    8.4453  -14.6857   26.2588 C   0  0  2  0  0  0  0  0  0  0  0  0
    7.8813  -15.3748   25.1079 N   0  0  0  0  0  0  0  0  0  0  0  0
    8.9019  -15.7327   27.2566 C   0  0  0  0  0  0  0  0  0  0  0  0
    8.4622  -16.8855   27.0689 O   0  0  0  0  0  0  0  0  0  0  0  0
    9.7346  -15.5016   28.3150 O   0  0  0  0  0  0  0  0  0  0  0  0
  2  1  1  6
  2  3  1  0
  4  2  1  0
  4  5  1  6
  6  4  1  0
  6  8  1  0
  7  6  2  0
  9  8  1  0
  9 12  1  0
  9 10  1  6
 11 10  1  0
 12 19  1  0
 12 13  2  0
 15 17  1  0
 15 14  1  1
 16 15  1  0
 18 20  1  0
 18 17  1  1
 19 18  1  0
 20 22  1  0
 21 20  2  0
M  END
$$$$
