VCL.pdb
     RDKit          3D

 22 21  0  0  1  0  0  0  0  0999 V2000
    8.2485  -13.1174   18.1316 C   0  0  0  0  0  0  0  0  0  0  0  0
    7.5668  -13.6652   19.3668 C   0  0  2  0  0  0  0  0  0  0  0  0
    7.9549  -12.8315   20.5610 C   0  0  0  0  0  0  0  0  0  0  0  0
    7.9400  -15.1234   19.5607 C   0  0  2  0  0  0  0  0  0  0  0  0
    7.4421  -15.8531   18.4321 N   0  0  0  0  0  0  0  0  0  0  0  0
    7.3905  -15.6423   20.8459 C   0  0  0  0  0  0  0  0  0  0  0  0
    6.1455  -15.8816   20.8797 O   0  0  0  0  0  0  0  0  0  0  0  0
    8.2007  -15.8589   21.9688 N   0  0  0  0  0  0  0  0  0  0  0  0
    7.6140  -16.3676   23.2240 C   0  0  1  0  0  0  0  0  0  0  0  0
    7.7021  -17.8564   23.1943 C   0  0  0  0  0  0  0  0  0  0  0  0
    7.3942  -18.7065   24.7302 S   0  0  0  0  0  0  0  0  0  0  0  0
    8.3094  -15.7746   24.3542 C   0  0  0  0  0  0  0  0  0  0  0  0
    9.5906  -15.6481   24.3663 O   0  0  0  0  0  0  0  0  0  0  0  0
    7.7267  -11.6959   25.7965 C   0  0  0  0  0  0  0  0  0  0  0  0
    6.8828  -12.6438   26.6458 C   0  0  2  0  0  0  0  0  0  0  0  0
    5.8654  -11.8958   27.4114 C   0  0  0  0  0  0  0  0  0  0  0  0
    7.7365  -13.6255   27.3727 C   0  0  0  0  0  0  0  0  0  0  0  0
    8.4221  -14.6790   26.5853 C   0  0  2  0  0  0  0  0  0  0  0  0
    7.6568  -15.2896   25.5086 N   0  0  0  0  0  0  0  0  0  0  0  0
    8.8972  -15.7836   27.5097 C   0  0  0  0  0  0  0  0  0  0  0  0
    8.3783  -16.9033   27.3243 O   0  0  0  0  0  0  0  0  0  0  0  0
    9.8249  -15.6354   28.5019 O   0  0  0  0  0  0  0  0  0  0  0  0
  2  1  1  6
  2  3  1  0
  4  2  1  0
  4  5  1  6
  6  4  1  0
  6  8  1  0
  7  6  2  0
  9  8  1  0
  9 12  1  0
  9 10  1  6
 11 10  1  0
 12 19  1  0
 12 13  2  0
 15 17  1  0
 15 14  1  1
 16 15  1  0
 18 20  1  0
 18 17  1  1
 19 18  1  0
 20 22  1  0
 21 20  2  0
M  END
$$$$
