EAH.pdb
     RDKit          3D

 25 25  0  0  1  0  0  0  0  0999 V2000
    7.2532  -18.8327   21.1250 N   0  0  0  0  0  0  0  0  0  0  0  0
    8.6158  -18.5402   20.7542 C   0  0  1  0  0  0  0  0  0  0  0  0
    8.8749  -18.7851   19.3146 C   0  0  0  0  0  0  0  0  0  0  0  0
    7.9938  -18.1497   18.3217 C   0  0  0  0  0  0  0  0  0  0  0  0
    8.2672  -18.3112   16.9100 C   0  0  0  0  0  0  0  0  0  0  0  0
    7.8666  -19.4119   16.3837 O   0  0  0  0  0  0  0  0  0  0  0  0
    8.8827  -17.1082   21.0681 C   0  0  0  0  0  0  0  0  0  0  0  0
   10.0540  -16.6150   20.9019 O   0  0  0  0  0  0  0  0  0  0  0  0
    8.8981  -17.4605   16.0350 O   0  0  0  0  0  0  0  0  0  0  0  0
    6.9238  -13.9529   21.5614 C   0  0  0  0  0  0  0  0  0  0  0  0
    8.1447  -14.7946   21.7226 C   0  0  2  0  0  0  0  0  0  0  0  0
    7.8938  -16.2225   21.5569 N   0  0  0  0  0  0  0  0  0  0  0  0
    8.7619  -14.5652   23.0629 C   0  0  0  0  0  0  0  0  0  0  0  0
    9.1709  -13.4308   23.4213 O   0  0  0  0  0  0  0  0  0  0  0  0
    8.8878  -15.6398   23.9385 N   0  0  0  0  0  0  0  0  0  0  0  0
    9.4660  -15.5491   25.2975 C   0  0  1  0  0  0  0  0  0  0  0  0
    8.2973  -15.5299   26.2153 C   0  0  0  0  0  0  0  0  0  0  0  0
    7.5983  -14.2551   26.3618 C   0  0  0  0  0  0  0  0  0  0  0  0
    8.3184  -13.0605   26.4956 C   0  0  0  0  0  0  0  0  0  0  0  0
    7.4352  -12.0564   26.6090 N   0  0  0  0  0  0  0  0  0  0  0  0
    6.2226  -12.5924   26.5498 C   0  0  0  0  0  0  0  0  0  0  0  0
    6.3234  -13.9169   26.4010 N   0  0  0  0  0  0  0  0  0  0  0  0
   10.3639  -16.6990   25.4795 C   0  0  0  0  0  0  0  0  0  0  0  0
   10.9993  -16.8795   26.5460 O   0  0  0  0  0  0  0  0  0  0  0  0
   10.5346  -17.6246   24.4698 O   0  0  0  0  0  0  0  0  0  0  0  0
  2  1  1  6
  2  7  1  0
  3  4  1  0
  3  2  1  0
  4  5  1  0
  5  9  1  0
  6  5  2  0
  7 12  1  0
  7  8  2  0
 11 10  1  1
 11 13  1  0
 12 11  1  0
 13 14  2  0
 15 13  1  0
 15 16  1  0
 16 23  1  0
 16 17  1  1
 17 18  1  0
 18 19  2  0
 18 22  1  0
 19 20  1  0
 20 21  1  0
 22 21  2  0
 23 25  1  0
 24 23  2  0
M  END
$$$$
