EAH.pdb
     RDKit          3D

 25 25  0  0  1  0  0  0  0  0999 V2000
    8.7031  -15.8206   18.9852 N   0  0  0  0  0  0  0  0  0  0  0  0
    7.6971  -15.8932   20.0158 C   0  0  1  0  0  0  0  0  0  0  0  0
    7.0644  -17.2322   20.0949 C   0  0  0  0  0  0  0  0  0  0  0  0
    7.8066  -18.3942   19.5802 C   0  0  0  0  0  0  0  0  0  0  0  0
    7.2147  -19.7128   19.6476 C   0  0  0  0  0  0  0  0  0  0  0  0
    7.0664  -20.3189   18.5253 O   0  0  0  0  0  0  0  0  0  0  0  0
    8.3468  -15.5756   21.3188 C   0  0  0  0  0  0  0  0  0  0  0  0
    9.5636  -15.9140   21.5366 O   0  0  0  0  0  0  0  0  0  0  0  0
    6.7797  -20.4250   20.7388 O   0  0  0  0  0  0  0  0  0  0  0  0
    7.5128  -13.7986   24.5738 C   0  0  0  0  0  0  0  0  0  0  0  0
    8.3401  -14.6243   23.6470 C   0  0  2  0  0  0  0  0  0  0  0  0
    7.6861  -14.9012   22.3723 N   0  0  0  0  0  0  0  0  0  0  0  0
    8.7083  -15.9198   24.2921 C   0  0  0  0  0  0  0  0  0  0  0  0
    7.8990  -16.8802   24.3646 O   0  0  0  0  0  0  0  0  0  0  0  0
    9.9842  -16.0656   24.8287 N   0  0  0  0  0  0  0  0  0  0  0  0
   10.4212  -17.2172   25.6486 C   0  0  1  0  0  0  0  0  0  0  0  0
   11.8201  -17.4858   25.2250 C   0  0  0  0  0  0  0  0  0  0  0  0
   11.9990  -18.1752   23.9491 C   0  0  0  0  0  0  0  0  0  0  0  0
   10.8884  -18.6166   23.2174 C   0  0  0  0  0  0  0  0  0  0  0  0
   11.3385  -19.2065   22.0992 N   0  0  0  0  0  0  0  0  0  0  0  0
   12.6636  -19.1395   22.1268 C   0  0  0  0  0  0  0  0  0  0  0  0
   13.0591  -18.5180   23.2421 N   0  0  0  0  0  0  0  0  0  0  0  0
   10.2750  -16.8412   27.0624 C   0  0  0  0  0  0  0  0  0  0  0  0
   10.4170  -17.6770   27.9870 O   0  0  0  0  0  0  0  0  0  0  0  0
    9.9743  -15.5414   27.4168 O   0  0  0  0  0  0  0  0  0  0  0  0
  2  1  1  6
  2  7  1  0
  3  4  1  0
  3  2  1  0
  4  5  1  0
  5  9  1  0
  6  5  2  0
  7 12  1  0
  7  8  2  0
 11 10  1  1
 11 13  1  0
 12 11  1  0
 13 14  2  0
 15 13  1  0
 15 16  1  0
 16 23  1  0
 16 17  1  1
 17 18  1  0
 18 19  2  0
 18 22  1  0
 19 20  1  0
 20 21  1  0
 22 21  2  0
 23 25  1  0
 24 23  2  0
M  END
$$$$
