EAH.pdb
     RDKit          3D

 25 25  0  0  1  0  0  0  0  0999 V2000
    8.8527  -16.8459   17.3359 N   0  0  0  0  0  0  0  0  0  0  0  0
    8.4378  -17.5586   18.5189 C   0  0  1  0  0  0  0  0  0  0  0  0
    9.0618  -18.9003   18.6184 C   0  0  0  0  0  0  0  0  0  0  0  0
   10.3317  -19.1412   17.9146 C   0  0  0  0  0  0  0  0  0  0  0  0
   10.9428  -20.4519   17.9624 C   0  0  0  0  0  0  0  0  0  0  0  0
   12.2179  -20.4819   17.8131 O   0  0  0  0  0  0  0  0  0  0  0  0
    8.8220  -16.7452   19.7069 C   0  0  0  0  0  0  0  0  0  0  0  0
   10.0217  -16.7803   20.1568 O   0  0  0  0  0  0  0  0  0  0  0  0
   10.3636  -21.6845   18.1430 O   0  0  0  0  0  0  0  0  0  0  0  0
    7.2519  -14.2036   22.0578 C   0  0  0  0  0  0  0  0  0  0  0  0
    8.3306  -15.0936   21.5390 C   0  0  2  0  0  0  0  0  0  0  0  0
    7.9179  -15.9056   20.3990 N   0  0  0  0  0  0  0  0  0  0  0  0
    8.8259  -15.9962   22.6206 C   0  0  0  0  0  0  0  0  0  0  0  0
    8.3832  -17.1648   22.7662 O   0  0  0  0  0  0  0  0  0  0  0  0
    9.8049  -15.5280   23.4921 N   0  0  0  0  0  0  0  0  0  0  0  0
   10.4186  -16.3322   24.5719 C   0  0  1  0  0  0  0  0  0  0  0  0
   11.7583  -15.7276   24.7917 C   0  0  0  0  0  0  0  0  0  0  0  0
   12.8046  -16.0845   23.8362 C   0  0  0  0  0  0  0  0  0  0  0  0
   12.5575  -17.0289   22.8309 C   0  0  0  0  0  0  0  0  0  0  0  0
   13.6775  -17.1604   22.1034 N   0  0  0  0  0  0  0  0  0  0  0  0
   14.5819  -16.3410   22.6247 C   0  0  0  0  0  0  0  0  0  0  0  0
   14.0539  -15.6942   23.6684 N   0  0  0  0  0  0  0  0  0  0  0  0
    9.5250  -16.2718   25.7379 C   0  0  0  0  0  0  0  0  0  0  0  0
    8.6207  -15.4077   25.8339 O   0  0  0  0  0  0  0  0  0  0  0  0
    9.6571  -17.1759   26.7726 O   0  0  0  0  0  0  0  0  0  0  0  0
  2  1  1  6
  2  7  1  0
  3  4  1  0
  3  2  1  0
  4  5  1  0
  5  9  1  0
  6  5  2  0
  7 12  1  0
  7  8  2  0
 11 10  1  1
 11 13  1  0
 12 11  1  0
 13 14  2  0
 15 13  1  0
 15 16  1  0
 16 23  1  0
 16 17  1  1
 17 18  1  0
 18 19  2  0
 18 22  1  0
 19 20  1  0
 20 21  1  0
 22 21  2  0
 23 25  1  0
 24 23  2  0
M  END
$$$$
