EAH.pdb
     RDKit          3D

 25 25  0  0  1  0  0  0  0  0999 V2000
   12.7578  -16.9641   15.6115 N   0  0  0  0  0  0  0  0  0  0  0  0
   11.3901  -16.5098   15.6610 C   0  0  1  0  0  0  0  0  0  0  0  0
   10.5728  -17.0547   14.5498 C   0  0  0  0  0  0  0  0  0  0  0  0
   11.2621  -17.5971   13.3680 C   0  0  0  0  0  0  0  0  0  0  0  0
   10.4939  -18.2103   12.3061 C   0  0  0  0  0  0  0  0  0  0  0  0
    9.9274  -17.4018   11.4849 O   0  0  0  0  0  0  0  0  0  0  0  0
   10.8065  -16.9420   16.9622 C   0  0  0  0  0  0  0  0  0  0  0  0
    9.6041  -16.6238   17.2716 O   0  0  0  0  0  0  0  0  0  0  0  0
   10.2722  -19.5393   12.0377 O   0  0  0  0  0  0  0  0  0  0  0  0
   11.5602  -19.2553   19.8386 C   0  0  0  0  0  0  0  0  0  0  0  0
   10.9515  -18.0426   19.2191 C   0  0  2  0  0  0  0  0  0  0  0  0
   11.5168  -17.7080   17.9161 N   0  0  0  0  0  0  0  0  0  0  0  0
   11.0985  -16.8652   20.1258 C   0  0  0  0  0  0  0  0  0  0  0  0
   12.0678  -16.0690   20.0300 O   0  0  0  0  0  0  0  0  0  0  0  0
   10.1341  -16.6456   21.1051 N   0  0  0  0  0  0  0  0  0  0  0  0
   10.1915  -15.5590   22.1079 C   0  0  1  0  0  0  0  0  0  0  0  0
    8.8710  -14.8826   22.0221 C   0  0  0  0  0  0  0  0  0  0  0  0
    8.6640  -13.9882   20.8853 C   0  0  0  0  0  0  0  0  0  0  0  0
    9.6991  -13.7477   19.9720 C   0  0  0  0  0  0  0  0  0  0  0  0
    9.2379  -12.9010   19.0385 N   0  0  0  0  0  0  0  0  0  0  0  0
    7.9779  -12.6235   19.3493 C   0  0  0  0  0  0  0  0  0  0  0  0
    7.6345  -13.2794   20.4622 N   0  0  0  0  0  0  0  0  0  0  0  0
   10.4785  -16.1702   23.4140 C   0  0  0  0  0  0  0  0  0  0  0  0
   10.3736  -17.4058   23.6032 O   0  0  0  0  0  0  0  0  0  0  0  0
   10.8771  -15.3919   24.4820 O   0  0  0  0  0  0  0  0  0  0  0  0
  2  1  1  6
  2  7  1  0
  3  4  1  0
  3  2  1  0
  4  5  1  0
  5  9  1  0
  6  5  2  0
  7 12  1  0
  7  8  2  0
 11 10  1  1
 11 13  1  0
 12 11  1  0
 13 14  2  0
 15 13  1  0
 15 16  1  0
 16 23  1  0
 16 17  1  1
 17 18  1  0
 18 19  2  0
 18 22  1  0
 19 20  1  0
 20 21  1  0
 22 21  2  0
 23 25  1  0
 24 23  2  0
M  END
$$$$
