EAH.pdb
     RDKit          3D

 25 25  0  0  1  0  0  0  0  0999 V2000
    9.3802  -14.6428   14.4782 N   0  0  0  0  0  0  0  0  0  0  0  0
    8.5789  -15.1945   15.5426 C   0  0  1  0  0  0  0  0  0  0  0  0
    8.6126  -16.6771   15.5654 C   0  0  0  0  0  0  0  0  0  0  0  0
    9.9038  -17.3559   15.3710 C   0  0  0  0  0  0  0  0  0  0  0  0
    9.9544  -18.8006   15.3090 C   0  0  0  0  0  0  0  0  0  0  0  0
    8.8271  -19.4063   15.4153 O   0  0  0  0  0  0  0  0  0  0  0  0
    9.1017  -14.6681   16.8349 C   0  0  0  0  0  0  0  0  0  0  0  0
   10.3617  -14.6580   17.0692 O   0  0  0  0  0  0  0  0  0  0  0  0
   11.0345  -19.6354   15.1540 O   0  0  0  0  0  0  0  0  0  0  0  0
    7.7710  -13.1248   20.0447 C   0  0  0  0  0  0  0  0  0  0  0  0
    8.8053  -13.7027   19.1384 C   0  0  2  0  0  0  0  0  0  0  0  0
    8.2699  -14.1604   17.8604 N   0  0  0  0  0  0  0  0  0  0  0  0
    9.5036  -14.8420   19.8051 C   0  0  0  0  0  0  0  0  0  0  0  0
    9.2306  -16.0397   19.5339 O   0  0  0  0  0  0  0  0  0  0  0  0
   10.4838  -14.5676   20.7545 N   0  0  0  0  0  0  0  0  0  0  0  0
   11.3153  -15.5946   21.4202 C   0  0  1  0  0  0  0  0  0  0  0  0
   12.6993  -15.0542   21.3861 C   0  0  0  0  0  0  0  0  0  0  0  0
   13.3620  -15.0276   20.0841 C   0  0  0  0  0  0  0  0  0  0  0  0
   13.6965  -13.8077   19.4811 C   0  0  0  0  0  0  0  0  0  0  0  0
   14.2901  -14.0760   18.3078 N   0  0  0  0  0  0  0  0  0  0  0  0
   14.3266  -15.3964   18.1799 C   0  0  0  0  0  0  0  0  0  0  0  0
   13.7669  -15.9674   19.2510 N   0  0  0  0  0  0  0  0  0  0  0  0
   10.7754  -15.8001   22.7722 C   0  0  0  0  0  0  0  0  0  0  0  0
   11.2705  -16.6404   23.5612 O   0  0  0  0  0  0  0  0  0  0  0  0
    9.6955  -15.0646   23.2174 O   0  0  0  0  0  0  0  0  0  0  0  0
  2  1  1  6
  2  7  1  0
  3  4  1  0
  3  2  1  0
  4  5  1  0
  5  9  1  0
  6  5  2  0
  7 12  1  0
  7  8  2  0
 11 10  1  1
 11 13  1  0
 12 11  1  0
 13 14  2  0
 15 13  1  0
 15 16  1  0
 16 23  1  0
 16 17  1  1
 17 18  1  0
 18 19  2  0
 18 22  1  0
 19 20  1  0
 20 21  1  0
 22 21  2  0
 23 25  1  0
 24 23  2  0
M  END
$$$$
