EAH.pdb
     RDKit          3D

 25 25  0  0  1  0  0  0  0  0999 V2000
    8.1471  -18.5678   21.1569 N   0  0  0  0  0  0  0  0  0  0  0  0
    9.3009  -17.9415   20.5603 C   0  0  1  0  0  0  0  0  0  0  0  0
    9.3054  -18.0568   19.0817 C   0  0  0  0  0  0  0  0  0  0  0  0
    8.5809  -19.1766   18.4597 C   0  0  0  0  0  0  0  0  0  0  0  0
    8.4234  -19.2211   17.0220 C   0  0  0  0  0  0  0  0  0  0  0  0
    7.7187  -20.1924   16.5649 O   0  0  0  0  0  0  0  0  0  0  0  0
    9.2950  -16.5016   20.9440 C   0  0  0  0  0  0  0  0  0  0  0  0
   10.2297  -15.7203   20.5457 O   0  0  0  0  0  0  0  0  0  0  0  0
    8.9181  -18.3763   16.0581 O   0  0  0  0  0  0  0  0  0  0  0  0
    6.9496  -13.8486   21.8871 C   0  0  0  0  0  0  0  0  0  0  0  0
    8.2829  -14.4924   22.0684 C   0  0  2  0  0  0  0  0  0  0  0  0
    8.2904  -15.9164   21.7498 N   0  0  0  0  0  0  0  0  0  0  0  0
    8.7633  -14.3087   23.4704 C   0  0  0  0  0  0  0  0  0  0  0  0
    8.8669  -13.1695   23.9939 O   0  0  0  0  0  0  0  0  0  0  0  0
    9.1066  -15.4323   24.2166 N   0  0  0  0  0  0  0  0  0  0  0  0
    9.5802  -15.3940   25.6179 C   0  0  1  0  0  0  0  0  0  0  0  0
    8.3460  -15.4260   26.4451 C   0  0  0  0  0  0  0  0  0  0  0  0
    7.5768  -14.1862   26.5249 C   0  0  0  0  0  0  0  0  0  0  0  0
    8.2256  -12.9569   26.7021 C   0  0  0  0  0  0  0  0  0  0  0  0
    7.2887  -11.9967   26.7375 N   0  0  0  0  0  0  0  0  0  0  0  0
    6.1117  -12.5919   26.5903 C   0  0  0  0  0  0  0  0  0  0  0  0
    6.2878  -13.9107   26.4626 N   0  0  0  0  0  0  0  0  0  0  0  0
   10.4772  -16.5416   25.8186 C   0  0  0  0  0  0  0  0  0  0  0  0
   10.6402  -17.4161   24.9341 O   0  0  0  0  0  0  0  0  0  0  0  0
   11.1746  -16.6906   27.0005 O   0  0  0  0  0  0  0  0  0  0  0  0
  2  1  1  6
  2  7  1  0
  3  4  1  0
  3  2  1  0
  4  5  1  0
  5  9  1  0
  6  5  2  0
  7 12  1  0
  7  8  2  0
 11 10  1  1
 11 13  1  0
 12 11  1  0
 13 14  2  0
 15 13  1  0
 15 16  1  0
 16 23  1  0
 16 17  1  1
 17 18  1  0
 18 19  2  0
 18 22  1  0
 19 20  1  0
 20 21  1  0
 22 21  2  0
 23 25  1  0
 24 23  2  0
M  END
$$$$
