EAH.pdb
     RDKit          3D

 25 25  0  0  1  0  0  0  0  0999 V2000
    9.9748  -23.3507   31.2536 N   0  0  0  0  0  0  0  0  0  0  0  0
   10.7601  -24.2085   32.1062 C   0  0  1  0  0  0  0  0  0  0  0  0
   10.3244  -25.6246   32.0390 C   0  0  0  0  0  0  0  0  0  0  0  0
    9.7970  -26.1402   30.7654 C   0  0  0  0  0  0  0  0  0  0  0  0
    9.3476  -27.5126   30.6763 C   0  0  0  0  0  0  0  0  0  0  0  0
   10.2326  -28.4096   30.9239 O   0  0  0  0  0  0  0  0  0  0  0  0
   12.1836  -24.1082   31.6772 C   0  0  0  0  0  0  0  0  0  0  0  0
   13.0979  -24.7472   32.3084 O   0  0  0  0  0  0  0  0  0  0  0  0
    8.1067  -28.0115   30.3623 O   0  0  0  0  0  0  0  0  0  0  0  0
   14.0968  -23.5592   28.6226 C   0  0  0  0  0  0  0  0  0  0  0  0
   13.9874  -23.3524   30.0958 C   0  0  2  0  0  0  0  0  0  0  0  0
   12.6110  -23.3249   30.5795 N   0  0  0  0  0  0  0  0  0  0  0  0
   14.6650  -22.0830   30.4951 C   0  0  0  0  0  0  0  0  0  0  0  0
   14.0204  -21.0239   30.7084 O   0  0  0  0  0  0  0  0  0  0  0  0
   16.0499  -22.0742   30.6334 N   0  0  0  0  0  0  0  0  0  0  0  0
   16.8316  -20.9325   31.1576 C   0  0  1  0  0  0  0  0  0  0  0  0
   17.8645  -21.5409   32.0359 C   0  0  0  0  0  0  0  0  0  0  0  0
   17.4123  -22.0412   33.3322 C   0  0  0  0  0  0  0  0  0  0  0  0
   16.1146  -21.7696   33.7859 C   0  0  0  0  0  0  0  0  0  0  0  0
   15.9691  -22.3449   34.9896 N   0  0  0  0  0  0  0  0  0  0  0  0
   17.1161  -22.9469   35.2776 C   0  0  0  0  0  0  0  0  0  0  0  0
   17.9840  -22.7624   34.2778 N   0  0  0  0  0  0  0  0  0  0  0  0
   17.3704  -20.1930   30.0067 C   0  0  0  0  0  0  0  0  0  0  0  0
   17.7303  -20.7759   28.9558 O   0  0  0  0  0  0  0  0  0  0  0  0
   17.4964  -18.8191   30.0502 O   0  0  0  0  0  0  0  0  0  0  0  0
  2  1  1  6
  2  7  1  0
  3  4  1  0
  3  2  1  0
  4  5  1  0
  5  9  1  0
  6  5  2  0
  7 12  1  0
  7  8  2  0
 11 10  1  6
 11 13  1  0
 12 11  1  0
 13 14  2  0
 15 13  1  0
 15 16  1  0
 16 23  1  0
 16 17  1  1
 17 18  1  0
 18 19  2  0
 18 22  1  0
 19 20  1  0
 20 21  1  0
 22 21  2  0
 23 25  1  0
 24 23  2  0
M  END
$$$$
