KRI.pdb
     RDKit          3D

 29 28  0  0  1  0  0  0  0  0999 V2000
   20.5567  -17.4632  -16.1976 N   0  0  0  0  0  0  0  0  0  0  0  0
   20.2922  -18.3977  -15.1512 C   0  0  1  0  0  0  0  0  0  0  0  0
   18.9767  -19.0532  -15.3336 C   0  0  0  0  0  0  0  0  0  0  0  0
   18.2746  -18.8227  -16.6147 C   0  0  0  0  0  0  0  0  0  0  0  0
   17.5524  -19.9630  -17.2234 C   0  0  0  0  0  0  0  0  0  0  0  0
   16.8895  -20.8494  -16.1552 C   0  0  0  0  0  0  0  0  0  0  0  0
   16.1207  -21.8523  -16.8343 N   0  0  0  0  0  0  0  0  0  0  0  0
   21.4127  -19.3467  -14.9257 C   0  0  0  0  0  0  0  0  0  0  0  0
   21.3798  -20.1784  -13.9676 O   0  0  0  0  0  0  0  0  0  0  0  0
   28.5092  -21.2317  -15.5549 N   0  0  0  0  0  0  0  0  0  0  0  0
   28.6031  -22.3040  -16.5205 C   0  0  0  0  0  0  0  0  0  0  0  0
   29.4951  -23.2275  -16.3899 N   0  0  0  0  0  0  0  0  0  0  0  0
   27.7044  -22.3355  -17.6174 N   0  0  0  0  0  0  0  0  0  0  0  0
   26.5736  -21.4434  -17.7417 C   0  0  0  0  0  0  0  0  0  0  0  0
   25.8140  -21.2874  -16.4407 C   0  0  0  0  0  0  0  0  0  0  0  0
   24.5424  -20.5670  -16.7156 C   0  0  0  0  0  0  0  0  0  0  0  0
   23.7136  -20.2375  -15.5277 C   0  0  2  0  0  0  0  0  0  0  0  0
   22.5747  -19.3967  -15.7394 N   0  0  0  0  0  0  0  0  0  0  0  0
   24.4800  -19.9082  -14.3172 C   0  0  0  0  0  0  0  0  0  0  0  0
   24.9048  -18.7624  -14.1326 O   0  0  0  0  0  0  0  0  0  0  0  0
   29.5768  -23.9441  -17.1217 C   0  0  0  0  0  0  0  0  0  0  0  0
   22.8240  -20.1310   -9.4478 C   0  0  0  0  0  0  0  0  0  0  0  0
   23.5418  -19.8823  -10.7509 C   0  0  2  0  0  0  0  0  0  0  0  0
   24.7569  -20.7085  -10.8893 C   0  0  0  0  0  0  0  0  0  0  0  0
   25.7039  -20.3820   -9.7348 C   0  0  2  0  0  0  0  0  0  0  0  0
   25.5341  -20.6263  -12.1369 N   0  0  0  0  0  0  0  0  0  0  0  0
   24.7457  -20.8876  -13.3533 C   0  0  0  0  0  0  0  0  0  0  0  0
   26.7919  -21.4159  -12.1799 O   0  0  0  0  0  0  0  0  0  0  0  0
   28.0087  -20.9308  -11.7357 O   0  0  0  0  0  0  0  0  0  0  0  0
  2  1  1  6
  2  8  1  0
  3  4  1  0
  3  2  1  0
  5  6  1  0
  5  4  1  0
  7  6  1  0
  8 18  1  0
  8  9  2  0
 11 13  1  0
 11 10  1  0
 12 11  2  0
 14 15  1  0
 14 13  1  0
 17 16  1  6
 16 15  1  0
 17 19  1  0
 18 17  1  0
 19 20  2  0
 21 22  1  0
 22 23  1  0
 23 25  1  0
 23 24  1  6
 25 27  1  0
 25 26  1  6
 26 19  1  0
 27 29  2  0
 27 28  1  0
M  END
$$$$
