KRI.pdb
     RDKit          3D

 29 28  0  0  1  0  0  0  0  0999 V2000
   19.9075  -19.6329  -14.8180 N   0  0  0  0  0  0  0  0  0  0  0  0
   20.1535  -19.8819  -13.4338 C   0  0  1  0  0  0  0  0  0  0  0  0
   19.0236  -20.6059  -12.8072 C   0  0  0  0  0  0  0  0  0  0  0  0
   17.6693  -20.0406  -12.9901 C   0  0  0  0  0  0  0  0  0  0  0  0
   17.5114  -18.9139  -13.9376 C   0  0  0  0  0  0  0  0  0  0  0  0
   16.0604  -18.4043  -13.9754 C   0  0  0  0  0  0  0  0  0  0  0  0
   15.2425  -19.4525  -14.5145 N   0  0  0  0  0  0  0  0  0  0  0  0
   21.4801  -20.5022  -13.1840 C   0  0  0  0  0  0  0  0  0  0  0  0
   21.8313  -20.8406  -12.0123 O   0  0  0  0  0  0  0  0  0  0  0  0
   26.2844  -25.6621  -15.8345 N   0  0  0  0  0  0  0  0  0  0  0  0
   25.3248  -25.0288  -16.7117 C   0  0  0  0  0  0  0  0  0  0  0  0
   24.3078  -25.6879  -17.1556 N   0  0  0  0  0  0  0  0  0  0  0  0
   25.5084  -23.6724  -17.0831 N   0  0  0  0  0  0  0  0  0  0  0  0
   26.3739  -22.7639  -16.3651 C   0  0  0  0  0  0  0  0  0  0  0  0
   25.8011  -22.3580  -15.0230 C   0  0  0  0  0  0  0  0  0  0  0  0
   24.4144  -21.8616  -15.2281 C   0  0  0  0  0  0  0  0  0  0  0  0
   23.7297  -21.3325  -14.0207 C   0  0  2  0  0  0  0  0  0  0  0  0
   22.4319  -20.7576  -14.2056 N   0  0  0  0  0  0  0  0  0  0  0  0
   24.5948  -20.5686  -13.1100 C   0  0  0  0  0  0  0  0  0  0  0  0
   24.7136  -19.3445  -13.2323 O   0  0  0  0  0  0  0  0  0  0  0  0
   23.6597  -25.2218  -17.8024 C   0  0  0  0  0  0  0  0  0  0  0  0
   26.2839  -19.6586   -7.5024 C   0  0  0  0  0  0  0  0  0  0  0  0
   26.8029  -19.6644   -8.9186 C   0  0  2  0  0  0  0  0  0  0  0  0
   25.8936  -20.3641   -9.8470 C   0  0  0  0  0  0  0  0  0  0  0  0
   25.5935  -21.7527   -9.2831 C   0  0  2  0  0  0  0  0  0  0  0  0
   26.3041  -20.5348  -11.2505 N   0  0  0  0  0  0  0  0  0  0  0  0
   25.3029  -21.2147  -12.0901 C   0  0  0  0  0  0  0  0  0  0  0  0
   27.6393  -21.1469  -11.4740 O   0  0  0  0  0  0  0  0  0  0  0  0
   27.8185  -22.3798  -12.0749 O   0  0  0  0  0  0  0  0  0  0  0  0
  2  1  1  6
  2  8  1  0
  3  4  1  0
  3  2  1  0
  5  6  1  0
  5  4  1  0
  7  6  1  0
  8 18  1  0
  8  9  2  0
 11 13  1  0
 11 10  1  0
 12 11  2  0
 14 15  1  0
 14 13  1  0
 17 16  1  6
 16 15  1  0
 17 19  1  0
 18 17  1  0
 19 20  2  0
 21 22  1  0
 22 23  1  0
 23 25  1  0
 23 24  1  6
 25 27  1  0
 25 26  1  6
 26 19  1  0
 27 29  2  0
 27 28  1  0
M  END
$$$$
