KRI.pdb
     RDKit          3D

 29 28  0  0  1  0  0  0  0  0999 V2000
   28.0762  -18.7862  -20.1904 N   0  0  0  0  0  0  0  0  0  0  0  0
   27.4836  -17.8201  -19.3221 C   0  0  1  0  0  0  0  0  0  0  0  0
   26.6424  -16.8621  -20.0758 C   0  0  0  0  0  0  0  0  0  0  0  0
   27.3299  -15.7431  -20.7560 C   0  0  0  0  0  0  0  0  0  0  0  0
   28.3449  -14.9854  -19.9891 C   0  0  0  0  0  0  0  0  0  0  0  0
   28.3114  -13.4862  -20.3320 C   0  0  0  0  0  0  0  0  0  0  0  0
   28.1243  -13.3655  -21.7492 N   0  0  0  0  0  0  0  0  0  0  0  0
   26.8004  -18.4334  -18.1542 C   0  0  0  0  0  0  0  0  0  0  0  0
   25.6174  -18.8824  -18.2528 O   0  0  0  0  0  0  0  0  0  0  0  0
   25.6936  -23.0073  -13.6404 N   0  0  0  0  0  0  0  0  0  0  0  0
   25.4398  -22.4138  -12.3464 C   0  0  0  0  0  0  0  0  0  0  0  0
   24.4224  -22.7836  -11.6438 N   0  0  0  0  0  0  0  0  0  0  0  0
   26.3201  -21.4181  -11.8510 N   0  0  0  0  0  0  0  0  0  0  0  0
   27.3138  -20.7601  -12.6693 C   0  0  0  0  0  0  0  0  0  0  0  0
   26.8326  -19.4274  -13.2043 C   0  0  0  0  0  0  0  0  0  0  0  0
   27.5769  -19.1198  -14.4544 C   0  0  0  0  0  0  0  0  0  0  0  0
   26.7669  -19.0825  -15.6990 C   0  0  2  0  0  0  0  0  0  0  0  0
   27.3984  -18.5616  -16.8733 N   0  0  0  0  0  0  0  0  0  0  0  0
   25.3815  -18.6261  -15.5160 C   0  0  0  0  0  0  0  0  0  0  0  0
   25.1335  -17.4340  -15.3042 O   0  0  0  0  0  0  0  0  0  0  0  0
   24.3124  -22.4059  -10.6946 C   0  0  0  0  0  0  0  0  0  0  0  0
   19.7542  -19.3049  -17.4558 C   0  0  0  0  0  0  0  0  0  0  0  0
   20.5654  -19.0583  -16.2083 C   0  0  2  0  0  0  0  0  0  0  0  0
   21.9866  -19.4164  -16.3827 C   0  0  0  0  0  0  0  0  0  0  0  0
   22.0770  -20.9020  -16.7303 C   0  0  2  0  0  0  0  0  0  0  0  0
   22.9246  -19.1620  -15.2769 N   0  0  0  0  0  0  0  0  0  0  0  0
   24.3183  -19.5344  -15.5745 C   0  0  0  0  0  0  0  0  0  0  0  0
   22.5370  -19.7049  -13.9494 O   0  0  0  0  0  0  0  0  0  0  0  0
   23.2205  -20.7288  -13.3187 O   0  0  0  0  0  0  0  0  0  0  0  0
  2  1  1  6
  2  8  1  0
  3  4  1  0
  3  2  1  0
  5  6  1  0
  5  4  1  0
  7  6  1  0
  8 18  1  0
  8  9  2  0
 11 13  1  0
 11 10  1  0
 12 11  2  0
 14 15  1  0
 14 13  1  0
 17 16  1  1
 16 15  1  0
 17 19  1  0
 18 17  1  0
 19 20  2  0
 21 22  1  0
 22 23  1  0
 23 25  1  0
 23 24  1  6
 25 27  1  0
 25 26  1  1
 26 19  1  0
 27 29  2  0
 27 28  1  0
M  END
$$$$
