KRI.pdb
     RDKit          3D

 29 28  0  0  1  0  0  0  0  0999 V2000
   12.4902  -23.4781  -10.0010 N   0  0  0  0  0  0  0  0  0  0  0  0
   13.7025  -22.9914   -9.4249 C   0  0  1  0  0  0  0  0  0  0  0  0
   13.4648  -21.7713   -8.6198 C   0  0  0  0  0  0  0  0  0  0  0  0
   12.0598  -21.4097   -8.3325 C   0  0  0  0  0  0  0  0  0  0  0  0
   11.7394  -19.9773   -8.1378 C   0  0  0  0  0  0  0  0  0  0  0  0
   10.2506  -19.7689   -7.8116 C   0  0  0  0  0  0  0  0  0  0  0  0
   10.0433  -18.3667   -7.5899 N   0  0  0  0  0  0  0  0  0  0  0  0
   14.4681  -24.0454   -8.7110 C   0  0  0  0  0  0  0  0  0  0  0  0
   13.9087  -24.7816   -7.8416 O   0  0  0  0  0  0  0  0  0  0  0  0
   21.6173  -28.4892  -11.2125 N   0  0  0  0  0  0  0  0  0  0  0  0
   20.2067  -28.7561  -11.3858 C   0  0  0  0  0  0  0  0  0  0  0  0
   19.7937  -29.4904  -12.3634 N   0  0  0  0  0  0  0  0  0  0  0  0
   19.2747  -28.2037  -10.4703 N   0  0  0  0  0  0  0  0  0  0  0  0
   19.6614  -27.3935   -9.3372 C   0  0  0  0  0  0  0  0  0  0  0  0
   18.4826  -27.0235   -8.4612 C   0  0  0  0  0  0  0  0  0  0  0  0
   17.7756  -25.8694   -9.0773 C   0  0  0  0  0  0  0  0  0  0  0  0
   16.6209  -25.3326   -8.3124 C   0  0  2  0  0  0  0  0  0  0  0  0
   15.8452  -24.3046   -8.9373 N   0  0  0  0  0  0  0  0  0  0  0  0
   16.8872  -25.0938   -6.8865 C   0  0  0  0  0  0  0  0  0  0  0  0
   17.2653  -23.9848   -6.4932 O   0  0  0  0  0  0  0  0  0  0  0  0
   18.7830  -29.6280  -12.4869 C   0  0  0  0  0  0  0  0  0  0  0  0
   14.9553  -26.9330   -1.4045 C   0  0  0  0  0  0  0  0  0  0  0  0
   16.1291  -26.3715   -2.1674 C   0  0  2  0  0  0  0  0  0  0  0  0
   15.9588  -26.4923   -3.6285 C   0  0  0  0  0  0  0  0  0  0  0  0
   15.7795  -27.9692   -3.9790 C   0  0  2  0  0  0  0  0  0  0  0  0
   17.0035  -25.9505   -4.5131 N   0  0  0  0  0  0  0  0  0  0  0  0
   16.7210  -26.1194   -5.9488 C   0  0  0  0  0  0  0  0  0  0  0  0
   18.3957  -26.3821   -4.2256 O   0  0  0  0  0  0  0  0  0  0  0  0
   19.1810  -25.8082   -3.2422 O   0  0  0  0  0  0  0  0  0  0  0  0
  2  1  1  1
  2  8  1  0
  3  4  1  0
  3  2  1  0
  5  6  1  0
  5  4  1  0
  7  6  1  0
  8 18  1  0
  8  9  2  0
 11 13  1  0
 11 10  1  0
 12 11  2  0
 14 15  1  0
 14 13  1  0
 17 16  1  6
 16 15  1  0
 17 19  1  0
 18 17  1  0
 19 20  2  0
 21 22  1  0
 22 23  1  0
 23 25  1  0
 23 24  1  6
 25 27  1  0
 25 26  1  1
 26 19  1  0
 27 29  2  0
 27 28  1  0
M  END
$$$$
