KRI.pdb
     RDKit          3D

 29 28  0  0  1  0  0  0  0  0999 V2000
   18.3124  -23.7822   -8.7043 N   0  0  0  0  0  0  0  0  0  0  0  0
   18.2386  -25.0273   -8.0097 C   0  0  1  0  0  0  0  0  0  0  0  0
   19.1185  -26.0440   -8.6306 C   0  0  0  0  0  0  0  0  0  0  0  0
   18.9324  -26.3140  -10.0727 C   0  0  0  0  0  0  0  0  0  0  0  0
   18.2064  -27.5455  -10.4586 C   0  0  0  0  0  0  0  0  0  0  0  0
   18.1069  -27.6893  -11.9869 C   0  0  0  0  0  0  0  0  0  0  0  0
   17.2694  -28.8201  -12.2664 N   0  0  0  0  0  0  0  0  0  0  0  0
   18.4248  -24.8837   -6.5428 C   0  0  0  0  0  0  0  0  0  0  0  0
   19.0101  -23.8680   -6.0563 O   0  0  0  0  0  0  0  0  0  0  0  0
   13.8351  -22.1874   -6.9807 N   0  0  0  0  0  0  0  0  0  0  0  0
   12.8173  -22.9312   -6.2722 C   0  0  0  0  0  0  0  0  0  0  0  0
   11.6501  -23.1057   -6.7944 N   0  0  0  0  0  0  0  0  0  0  0  0
   13.1106  -23.4709   -4.9938 N   0  0  0  0  0  0  0  0  0  0  0  0
   14.4208  -23.4037   -4.3864 C   0  0  0  0  0  0  0  0  0  0  0  0
   15.2590  -24.6301   -4.6816 C   0  0  0  0  0  0  0  0  0  0  0  0
   16.5985  -24.4516   -4.0608 C   0  0  0  0  0  0  0  0  0  0  0  0
   17.5579  -25.5688   -4.2560 C   0  0  2  0  0  0  0  0  0  0  0  0
   17.9767  -25.8427   -5.5971 N   0  0  0  0  0  0  0  0  0  0  0  0
   17.2658  -26.7735   -3.4658 C   0  0  0  0  0  0  0  0  0  0  0  0
   16.4399  -27.6028   -3.8632 O   0  0  0  0  0  0  0  0  0  0  0  0
   10.9352  -23.6071   -6.2529 C   0  0  0  0  0  0  0  0  0  0  0  0
   21.5391  -29.1896   -1.0551 C   0  0  0  0  0  0  0  0  0  0  0  0
   20.2853  -28.8408   -1.8178 C   0  0  2  0  0  0  0  0  0  0  0  0
   19.1065  -28.7243   -0.9373 C   0  0  0  0  0  0  0  0  0  0  0  0
   18.8608  -30.0765   -0.2685 C   0  0  2  0  0  0  0  0  0  0  0  0
   17.8287  -28.2770   -1.5156 N   0  0  0  0  0  0  0  0  0  0  0  0
   17.9150  -27.0014   -2.2470 C   0  0  0  0  0  0  0  0  0  0  0  0
   16.6660  -28.2432   -0.5914 O   0  0  0  0  0  0  0  0  0  0  0  0
   15.9123  -29.3597   -0.2780 O   0  0  0  0  0  0  0  0  0  0  0  0
  2  1  1  6
  2  8  1  0
  3  4  1  0
  3  2  1  0
  5  6  1  0
  5  4  1  0
  7  6  1  0
  8 18  1  0
  8  9  2  0
 11 13  1  0
 11 10  1  0
 12 11  2  0
 14 15  1  0
 14 13  1  0
 17 16  1  6
 16 15  1  0
 17 19  1  0
 18 17  1  0
 19 20  2  0
 21 22  1  0
 22 23  1  0
 23 25  1  0
 23 24  1  1
 25 27  1  0
 25 26  1  6
 26 19  1  0
 27 29  2  0
 27 28  1  0
M  END
$$$$
