KRI.pdb
     RDKit          3D

 29 28  0  0  1  0  0  0  0  0999 V2000
   26.8613  -26.8812  -16.6983 N   0  0  0  0  0  0  0  0  0  0  0  0
   25.7162  -26.0671  -16.9523 C   0  0  1  0  0  0  0  0  0  0  0  0
   24.4606  -26.8316  -16.7726 C   0  0  0  0  0  0  0  0  0  0  0  0
   24.2346  -27.9871  -17.6676 C   0  0  0  0  0  0  0  0  0  0  0  0
   24.7389  -29.3094  -17.2320 C   0  0  0  0  0  0  0  0  0  0  0  0
   24.3192  -30.4245  -18.2049 C   0  0  0  0  0  0  0  0  0  0  0  0
   24.9737  -31.6332  -17.7938 N   0  0  0  0  0  0  0  0  0  0  0  0
   25.7479  -24.7775  -16.2154 C   0  0  0  0  0  0  0  0  0  0  0  0
   26.4857  -24.6286  -15.1935 O   0  0  0  0  0  0  0  0  0  0  0  0
   27.8266  -16.9961  -17.6010 N   0  0  0  0  0  0  0  0  0  0  0  0
   27.0002  -16.7745  -16.4354 C   0  0  0  0  0  0  0  0  0  0  0  0
   27.1412  -15.7060  -15.7254 N   0  0  0  0  0  0  0  0  0  0  0  0
   26.0285  -17.7428  -16.0749 N   0  0  0  0  0  0  0  0  0  0  0  0
   25.8394  -18.9822  -16.7946 C   0  0  0  0  0  0  0  0  0  0  0  0
   24.7655  -19.8527  -16.1758 C   0  0  0  0  0  0  0  0  0  0  0  0
   24.7785  -21.1772  -16.8517 C   0  0  0  0  0  0  0  0  0  0  0  0
   25.0446  -22.3487  -15.9780 C   0  0  2  0  0  0  0  0  0  0  0  0
   24.9778  -23.6436  -16.5843 N   0  0  0  0  0  0  0  0  0  0  0  0
   24.4160  -22.2797  -14.6509 C   0  0  0  0  0  0  0  0  0  0  0  0
   23.2712  -22.7100  -14.4728 O   0  0  0  0  0  0  0  0  0  0  0  0
   26.5624  -15.5903  -14.8843 C   0  0  0  0  0  0  0  0  0  0  0  0
   25.9825  -20.3051   -8.9121 C   0  0  0  0  0  0  0  0  0  0  0  0
   24.9498  -20.9267   -9.8189 C   0  0  2  0  0  0  0  0  0  0  0  0
   25.4206  -21.0373  -11.2133 C   0  0  0  0  0  0  0  0  0  0  0  0
   25.9387  -19.6717  -11.6638 C   0  0  2  0  0  0  0  0  0  0  0  0
   24.4852  -21.5183  -12.2434 N   0  0  0  0  0  0  0  0  0  0  0  0
   25.1014  -21.7216  -13.5657 C   0  0  0  0  0  0  0  0  0  0  0  0
   23.2236  -20.7485  -12.3953 O   0  0  0  0  0  0  0  0  0  0  0  0
   22.0768  -21.0193  -11.6710 O   0  0  0  0  0  0  0  0  0  0  0  0
  2  1  1  1
  2  8  1  0
  3  4  1  0
  3  2  1  0
  5  6  1  0
  5  4  1  0
  7  6  1  0
  8 18  1  0
  8  9  2  0
 11 13  1  0
 11 10  1  0
 12 11  2  0
 14 15  1  0
 14 13  1  0
 17 16  1  6
 16 15  1  0
 17 19  1  0
 18 17  1  0
 19 20  2  0
 21 22  1  0
 22 23  1  0
 23 25  1  0
 23 24  1  6
 25 27  1  0
 25 26  1  6
 26 19  1  0
 27 29  2  0
 27 28  1  0
M  END
$$$$
