KRI.pdb
     RDKit          3D

 29 28  0  0  1  0  0  0  0  0999 V2000
   24.3165  -18.1904  -16.3550 N   0  0  0  0  0  0  0  0  0  0  0  0
   23.5314  -18.9661  -15.4494 C   0  0  1  0  0  0  0  0  0  0  0  0
   22.5232  -19.7779  -16.1691 C   0  0  0  0  0  0  0  0  0  0  0  0
   22.7280  -19.9867  -17.6188 C   0  0  0  0  0  0  0  0  0  0  0  0
   23.1595  -21.3291  -18.0709 C   0  0  0  0  0  0  0  0  0  0  0  0
   23.3369  -21.3829  -19.5979 C   0  0  0  0  0  0  0  0  0  0  0  0
   23.8351  -22.6853  -19.9350 N   0  0  0  0  0  0  0  0  0  0  0  0
   24.3554  -19.7422  -14.4872 C   0  0  0  0  0  0  0  0  0  0  0  0
   23.8125  -20.4096  -13.5541 O   0  0  0  0  0  0  0  0  0  0  0  0
   31.7623  -20.6165  -11.2125 N   0  0  0  0  0  0  0  0  0  0  0  0
   31.4204  -22.0205  -11.2636 C   0  0  0  0  0  0  0  0  0  0  0  0
   32.3395  -22.9226  -11.1782 N   0  0  0  0  0  0  0  0  0  0  0  0
   30.0622  -22.4029  -11.4084 N   0  0  0  0  0  0  0  0  0  0  0  0
   29.2495  -22.0271  -12.5434 C   0  0  0  0  0  0  0  0  0  0  0  0
   28.9693  -20.5393  -12.5871 C   0  0  0  0  0  0  0  0  0  0  0  0
   28.0917  -20.2545  -13.7534 C   0  0  0  0  0  0  0  0  0  0  0  0
   26.6318  -20.2451  -13.4796 C   0  0  2  0  0  0  0  0  0  0  0  0
   25.7730  -19.7967  -14.5334 N   0  0  0  0  0  0  0  0  0  0  0  0
   26.2599  -19.7362  -12.1515 C   0  0  0  0  0  0  0  0  0  0  0  0
   26.2747  -18.5234  -11.9145 O   0  0  0  0  0  0  0  0  0  0  0  0
   32.0756  -23.9099  -11.2838 C   0  0  0  0  0  0  0  0  0  0  0  0
   22.7104  -21.1291   -7.3779 C   0  0  0  0  0  0  0  0  0  0  0  0
   23.9584  -20.4070   -7.8208 C   0  0  2  0  0  0  0  0  0  0  0  0
   24.3964  -20.8179   -9.1691 C   0  0  0  0  0  0  0  0  0  0  0  0
   24.6453  -22.3259   -9.1633 C   0  0  2  0  0  0  0  0  0  0  0  0
   25.5827  -20.1751   -9.7578 N   0  0  0  0  0  0  0  0  0  0  0  0
   25.8858  -20.6168  -11.1299 C   0  0  0  0  0  0  0  0  0  0  0  0
   26.8219  -20.2089   -8.9389 O   0  0  0  0  0  0  0  0  0  0  0  0
   26.9936  -19.4582   -7.7900 O   0  0  0  0  0  0  0  0  0  0  0  0
  2  1  1  6
  2  8  1  0
  3  4  1  0
  3  2  1  0
  5  6  1  0
  5  4  1  0
  7  6  1  0
  8 18  1  0
  8  9  2  0
 11 13  1  0
 11 10  1  0
 12 11  2  0
 14 15  1  0
 14 13  1  0
 17 16  1  6
 16 15  1  0
 17 19  1  0
 18 17  1  0
 19 20  2  0
 21 22  1  0
 22 23  1  0
 23 25  1  0
 23 24  1  6
 25 27  1  0
 25 26  1  1
 26 19  1  0
 27 29  2  0
 27 28  1  0
M  END
$$$$
