KRI.pdb
     RDKit          3D

 29 28  0  0  1  0  0  0  0  0999 V2000
   27.8621  -21.0892  -18.7948 N   0  0  0  0  0  0  0  0  0  0  0  0
   27.4688  -20.0291  -17.9231 C   0  0  1  0  0  0  0  0  0  0  0  0
   26.9350  -18.8758  -18.6836 C   0  0  0  0  0  0  0  0  0  0  0  0
   25.6895  -19.0869  -19.4527 C   0  0  0  0  0  0  0  0  0  0  0  0
   24.6356  -18.0509  -19.3620 C   0  0  0  0  0  0  0  0  0  0  0  0
   23.3663  -18.4653  -20.1258 C   0  0  0  0  0  0  0  0  0  0  0  0
   22.3849  -17.4365  -19.9344 N   0  0  0  0  0  0  0  0  0  0  0  0
   26.5849  -20.4849  -16.8194 C   0  0  0  0  0  0  0  0  0  0  0  0
   25.5686  -21.2078  -17.0545 O   0  0  0  0  0  0  0  0  0  0  0  0
   23.5579  -20.1410  -10.1805 N   0  0  0  0  0  0  0  0  0  0  0  0
   24.2853  -20.9458   -9.2243 C   0  0  0  0  0  0  0  0  0  0  0  0
   23.6959  -21.4073   -8.1730 N   0  0  0  0  0  0  0  0  0  0  0  0
   25.6571  -21.2270   -9.4497 N   0  0  0  0  0  0  0  0  0  0  0  0
   26.3978  -20.7085  -10.5778 C   0  0  0  0  0  0  0  0  0  0  0  0
   25.6467  -20.8639  -11.8838 C   0  0  0  0  0  0  0  0  0  0  0  0
   26.5230  -20.4051  -12.9942 C   0  0  0  0  0  0  0  0  0  0  0  0
   25.9504  -20.5155  -14.3604 C   0  0  2  0  0  0  0  0  0  0  0  0
   26.8003  -20.1574  -15.4552 N   0  0  0  0  0  0  0  0  0  0  0  0
   24.5723  -20.0202  -14.4899 C   0  0  0  0  0  0  0  0  0  0  0  0
   24.3395  -18.8070  -14.5254 O   0  0  0  0  0  0  0  0  0  0  0  0
   24.2276  -22.0074   -7.5304 C   0  0  0  0  0  0  0  0  0  0  0  0
   21.1778  -21.3023  -18.3321 C   0  0  0  0  0  0  0  0  0  0  0  0
   21.9543  -20.6529  -17.2138 C   0  0  2  0  0  0  0  0  0  0  0  0
   21.4064  -20.9837  -15.8838 C   0  0  0  0  0  0  0  0  0  0  0  0
   19.9574  -20.5017  -15.8187 C   0  0  2  0  0  0  0  0  0  0  0  0
   22.0959  -20.4784  -14.6853 N   0  0  0  0  0  0  0  0  0  0  0  0
   23.4984  -20.9141  -14.5715 C   0  0  0  0  0  0  0  0  0  0  0  0
   21.4016  -20.6925  -13.3894 O   0  0  0  0  0  0  0  0  0  0  0  0
   20.5799  -19.7470  -12.8028 O   0  0  0  0  0  0  0  0  0  0  0  0
  2  1  1  6
  2  8  1  0
  3  4  1  0
  3  2  1  0
  5  6  1  0
  5  4  1  0
  7  6  1  0
  8 18  1  0
  8  9  2  0
 11 13  1  0
 11 10  1  0
 12 11  2  0
 14 15  1  0
 14 13  1  0
 17 16  1  1
 16 15  1  0
 17 19  1  0
 18 17  1  0
 19 20  2  0
 21 22  1  0
 22 23  1  0
 23 25  1  0
 23 24  1  1
 25 27  1  0
 25 26  1  1
 26 19  1  0
 27 29  2  0
 27 28  1  0
M  END
$$$$
