KRI.pdb
     RDKit          3D

 29 28  0  0  1  0  0  0  0  0999 V2000
   24.3963  -17.4799  -18.3928 N   0  0  0  0  0  0  0  0  0  0  0  0
   22.9814  -17.4040  -18.2169 C   0  0  1  0  0  0  0  0  0  0  0  0
   22.2929  -17.1289  -19.4990 C   0  0  0  0  0  0  0  0  0  0  0  0
   22.8947  -16.1126  -20.3890 C   0  0  0  0  0  0  0  0  0  0  0  0
   22.1935  -15.7982  -21.6547 C   0  0  0  0  0  0  0  0  0  0  0  0
   22.9514  -14.7401  -22.4747 C   0  0  0  0  0  0  0  0  0  0  0  0
   22.2709  -14.5881  -23.7284 N   0  0  0  0  0  0  0  0  0  0  0  0
   22.4277  -18.5639  -17.4718 C   0  0  0  0  0  0  0  0  0  0  0  0
   21.6451  -19.3881  -18.0366 O   0  0  0  0  0  0  0  0  0  0  0  0
   23.3560  -24.8093  -14.4347 N   0  0  0  0  0  0  0  0  0  0  0  0
   24.6127  -24.0964  -14.4930 C   0  0  0  0  0  0  0  0  0  0  0  0
   25.5665  -24.5107  -15.2574 N   0  0  0  0  0  0  0  0  0  0  0  0
   24.7921  -22.9331  -13.7017 N   0  0  0  0  0  0  0  0  0  0  0  0
   23.7577  -22.3831  -12.8547 C   0  0  0  0  0  0  0  0  0  0  0  0
   22.6321  -21.7548  -13.6498 C   0  0  0  0  0  0  0  0  0  0  0  0
   23.1878  -20.6397  -14.4616 C   0  0  0  0  0  0  0  0  0  0  0  0
   22.2224  -19.9367  -15.3449 C   0  0  2  0  0  0  0  0  0  0  0  0
   22.7207  -18.8338  -16.1094 N   0  0  0  0  0  0  0  0  0  0  0  0
   20.9030  -19.6958  -14.7430 C   0  0  0  0  0  0  0  0  0  0  0  0
   20.7254  -18.7449  -13.9738 O   0  0  0  0  0  0  0  0  0  0  0  0
   26.4194  -23.9434  -15.3367 C   0  0  0  0  0  0  0  0  0  0  0  0
   16.2806  -20.3663  -17.6964 C   0  0  0  0  0  0  0  0  0  0  0  0
   17.4057  -19.9140  -16.7992 C   0  0  2  0  0  0  0  0  0  0  0  0
   17.4003  -20.6097  -15.4976 C   0  0  0  0  0  0  0  0  0  0  0  0
   16.0584  -20.3533  -14.8121 C   0  0  2  0  0  0  0  0  0  0  0  0
   18.4611  -20.3039  -14.5237 N   0  0  0  0  0  0  0  0  0  0  0  0
   19.8247  -20.5416  -15.0273 C   0  0  0  0  0  0  0  0  0  0  0  0
   18.3136  -20.9166  -13.1783 O   0  0  0  0  0  0  0  0  0  0  0  0
   17.6961  -20.2795  -12.1172 O   0  0  0  0  0  0  0  0  0  0  0  0
  2  1  1  6
  2  8  1  0
  3  4  1  0
  3  2  1  0
  5  6  1  0
  5  4  1  0
  7  6  1  0
  8 18  1  0
  8  9  2  0
 11 13  1  0
 11 10  1  0
 12 11  2  0
 14 15  1  0
 14 13  1  0
 17 16  1  1
 16 15  1  0
 17 19  1  0
 18 17  1  0
 19 20  2  0
 21 22  1  0
 22 23  1  0
 23 25  1  0
 23 24  1  1
 25 27  1  0
 25 26  1  1
 26 19  1  0
 27 29  2  0
 27 28  1  0
M  END
$$$$
