KRI.pdb
     RDKit          3D

 29 28  0  0  1  0  0  0  0  0999 V2000
   28.3919  -19.4287  -16.5240 N   0  0  0  0  0  0  0  0  0  0  0  0
   27.2154  -19.5005  -17.3297 C   0  0  1  0  0  0  0  0  0  0  0  0
   27.5017  -20.1103  -18.6486 C   0  0  0  0  0  0  0  0  0  0  0  0
   27.5494  -19.2071  -19.8188 C   0  0  0  0  0  0  0  0  0  0  0  0
   27.8865  -19.7961  -21.1348 C   0  0  0  0  0  0  0  0  0  0  0  0
   27.8762  -18.7361  -22.2495 C   0  0  0  0  0  0  0  0  0  0  0  0
   28.2788  -19.3782  -23.4676 N   0  0  0  0  0  0  0  0  0  0  0  0
   26.0637  -20.1135  -16.6191 C   0  0  0  0  0  0  0  0  0  0  0  0
   25.2387  -20.8564  -17.2341 O   0  0  0  0  0  0  0  0  0  0  0  0
   24.0105  -21.2785  -10.0037 N   0  0  0  0  0  0  0  0  0  0  0  0
   25.3444  -20.7372   -9.8668 C   0  0  0  0  0  0  0  0  0  0  0  0
   25.5900  -19.8095   -9.0037 N   0  0  0  0  0  0  0  0  0  0  0  0
   26.3868  -21.2341  -10.6903 N   0  0  0  0  0  0  0  0  0  0  0  0
   26.2312  -22.3755  -11.5638 C   0  0  0  0  0  0  0  0  0  0  0  0
   26.0893  -21.9763  -13.0179 C   0  0  0  0  0  0  0  0  0  0  0  0
   24.9946  -20.9763  -13.1321 C   0  0  0  0  0  0  0  0  0  0  0  0
   24.7081  -20.4820  -14.5033 C   0  0  2  0  0  0  0  0  0  0  0  0
   25.8021  -19.9222  -15.2371 N   0  0  0  0  0  0  0  0  0  0  0  0
   23.4547  -19.7248  -14.6331 C   0  0  0  0  0  0  0  0  0  0  0  0
   23.4367  -18.5014  -14.4582 O   0  0  0  0  0  0  0  0  0  0  0  0
   26.5514  -19.4581   -8.9145 C   0  0  0  0  0  0  0  0  0  0  0  0
   19.0778  -18.5216  -18.2515 C   0  0  0  0  0  0  0  0  0  0  0  0
   19.3168  -18.7209  -16.7756 C   0  0  2  0  0  0  0  0  0  0  0  0
   20.5882  -19.4187  -16.5018 C   0  0  0  0  0  0  0  0  0  0  0  0
   20.5723  -20.7649  -17.2255 C   0  0  2  0  0  0  0  0  0  0  0  0
   20.9735  -19.6716  -15.1036 N   0  0  0  0  0  0  0  0  0  0  0  0
   22.2582  -20.3764  -14.9533 C   0  0  0  0  0  0  0  0  0  0  0  0
   19.9472  -20.3196  -14.2469 O   0  0  0  0  0  0  0  0  0  0  0  0
   18.7860  -19.6864  -13.8422 O   0  0  0  0  0  0  0  0  0  0  0  0
  2  1  1  1
  2  8  1  0
  3  4  1  0
  3  2  1  0
  5  6  1  0
  5  4  1  0
  7  6  1  0
  8 18  1  0
  8  9  2  0
 11 13  1  0
 11 10  1  0
 12 11  2  0
 14 15  1  0
 14 13  1  0
 17 16  1  1
 16 15  1  0
 17 19  1  0
 18 17  1  0
 19 20  2  0
 21 22  1  0
 22 23  1  0
 23 25  1  0
 23 24  1  6
 25 27  1  0
 25 26  1  1
 26 19  1  0
 27 29  2  0
 27 28  1  0
M  END
$$$$
