KRI.pdb
     RDKit          3D

 29 28  0  0  1  0  0  0  0  0999 V2000
   25.9832  -18.3660  -16.3262 N   0  0  0  0  0  0  0  0  0  0  0  0
   25.1412  -17.8813  -15.2801 C   0  0  1  0  0  0  0  0  0  0  0  0
   24.0149  -17.0853  -15.8197 C   0  0  0  0  0  0  0  0  0  0  0  0
   23.0900  -17.7630  -16.7538 C   0  0  0  0  0  0  0  0  0  0  0  0
   22.0228  -16.9514  -17.3822 C   0  0  0  0  0  0  0  0  0  0  0  0
   21.1103  -17.8092  -18.2755 C   0  0  0  0  0  0  0  0  0  0  0  0
   20.0727  -16.9595  -18.7850 N   0  0  0  0  0  0  0  0  0  0  0  0
   24.7268  -18.9459  -14.3304 C   0  0  0  0  0  0  0  0  0  0  0  0
   23.5314  -19.3719  -14.3099 O   0  0  0  0  0  0  0  0  0  0  0  0
   22.4979  -25.3256  -13.4990 N   0  0  0  0  0  0  0  0  0  0  0  0
   23.2134  -25.6173  -14.7212 C   0  0  0  0  0  0  0  0  0  0  0  0
   22.6151  -26.1920  -15.7099 N   0  0  0  0  0  0  0  0  0  0  0  0
   24.5834  -25.2662  -14.8282 N   0  0  0  0  0  0  0  0  0  0  0  0
   25.2079  -24.2510  -14.0101 C   0  0  0  0  0  0  0  0  0  0  0  0
   24.8607  -22.8482  -14.4633 C   0  0  0  0  0  0  0  0  0  0  0  0
   25.9543  -21.9298  -14.0485 C   0  0  0  0  0  0  0  0  0  0  0  0
   25.6019  -20.9298  -13.0081 C   0  0  2  0  0  0  0  0  0  0  0  0
   25.6084  -19.5525  -13.3978 N   0  0  0  0  0  0  0  0  0  0  0  0
   26.2030  -21.1782  -11.6897 C   0  0  0  0  0  0  0  0  0  0  0  0
   27.3832  -21.5319  -11.5919 O   0  0  0  0  0  0  0  0  0  0  0  0
   23.1405  -26.3600  -16.5767 C   0  0  0  0  0  0  0  0  0  0  0  0
   28.5893  -19.1846   -7.1769 C   0  0  0  0  0  0  0  0  0  0  0  0
   27.6196  -20.3094   -7.4411 C   0  0  2  0  0  0  0  0  0  0  0  0
   26.9630  -20.1871   -8.7573 C   0  0  0  0  0  0  0  0  0  0  0  0
   26.2417  -18.8410   -8.8202 C   0  0  2  0  0  0  0  0  0  0  0  0
   26.0035  -21.2238   -9.1720 N   0  0  0  0  0  0  0  0  0  0  0  0
   25.4484  -21.0223  -10.5214 C   0  0  0  0  0  0  0  0  0  0  0  0
   24.9019  -21.5175   -8.2194 O   0  0  0  0  0  0  0  0  0  0  0  0
   25.0304  -22.3931   -7.1564 O   0  0  0  0  0  0  0  0  0  0  0  0
  2  1  1  6
  2  8  1  0
  3  4  1  0
  3  2  1  0
  5  6  1  0
  5  4  1  0
  7  6  1  0
  8 18  1  0
  8  9  2  0
 11 13  1  0
 11 10  1  0
 12 11  2  0
 14 15  1  0
 14 13  1  0
 17 16  1  6
 16 15  1  0
 17 19  1  0
 18 17  1  0
 19 20  2  0
 21 22  1  0
 22 23  1  0
 23 25  1  0
 23 24  1  6
 25 27  1  0
 25 26  1  1
 26 19  1  0
 27 29  2  0
 27 28  1  0
M  END
$$$$
