IGC.pdb
     RDKit          3D

 19 18  0  0  1  0  0  0  0  0999 V2000
    7.5891  -11.8817   19.4231 C   0  0  0  0  0  0  0  0  0  0  0  0
    6.9994  -13.2351   19.7446 C   0  0  0  0  0  0  0  0  0  0  0  0
    8.0907  -14.0845   20.3476 C   0  0  2  0  0  0  0  0  0  0  0  0
    9.1588  -14.2684   19.2881 C   0  0  0  0  0  0  0  0  0  0  0  0
    7.5937  -15.4617   20.7275 C   0  0  2  0  0  0  0  0  0  0  0  0
    6.3858  -15.3750   21.5260 N   0  0  0  0  0  0  0  0  0  0  0  0
    8.5816  -16.2478   21.4616 C   0  0  0  0  0  0  0  0  0  0  0  0
    8.6895  -16.1521   22.7118 O   0  0  0  0  0  0  0  0  0  0  0  0
    9.4886  -17.1710   20.8383 N   0  0  0  0  0  0  0  0  0  0  0  0
   10.4593  -17.9154   21.6034 C   0  0  0  0  0  0  0  0  0  0  0  0
   10.8705  -17.3121   22.8568 C   0  0  0  0  0  0  0  0  0  0  0  0
   12.1287  -17.1872   23.0538 O   0  0  0  0  0  0  0  0  0  0  0  0
   10.0549  -16.8361   23.9062 N   0  0  0  0  0  0  0  0  0  0  0  0
   10.5521  -16.5717   25.2477 C   0  0  1  0  0  0  0  0  0  0  0  0
    9.3982  -15.9750   26.0303 C   0  0  0  0  0  0  0  0  0  0  0  0
    8.7837  -14.4490   25.3207 S   0  0  0  0  0  0  0  0  0  0  0  0
   11.0659  -17.7981   25.8916 C   0  0  0  0  0  0  0  0  0  0  0  0
   11.7484  -17.6685   26.9382 O   0  0  0  0  0  0  0  0  0  0  0  0
   10.8445  -19.0667   25.4185 O   0  0  0  0  0  0  0  0  0  0  0  0
  2  3  1  0
  2  1  1  0
  3  4  1  6
  5  6  1  1
  5  3  1  0
  7  5  1  0
  8  7  2  0
  9  7  1  0
 10  9  1  0
 11 13  1  0
 11 10  1  0
 12 11  2  0
 14 15  1  1
 14 17  1  0
 14 13  1  0
 15 16  1  0
 17 19  1  0
 18 17  2  0
M  END
$$$$
