IGC.pdb
     RDKit          3D

 19 18  0  0  1  0  0  0  0  0999 V2000
    6.4866  -12.5100   18.2984 C   0  0  0  0  0  0  0  0  0  0  0  0
    7.8030  -13.2062   18.5541 C   0  0  0  0  0  0  0  0  0  0  0  0
    7.7290  -13.8514   19.9159 C   0  0  2  0  0  0  0  0  0  0  0  0
    7.5835  -12.7400   20.9360 C   0  0  0  0  0  0  0  0  0  0  0  0
    8.9936  -14.6088   20.2547 C   0  0  2  0  0  0  0  0  0  0  0  0
    9.2383  -15.6663   19.2924 N   0  0  0  0  0  0  0  0  0  0  0  0
    8.9736  -15.1929   21.5932 C   0  0  0  0  0  0  0  0  0  0  0  0
    8.5279  -16.3535   21.7891 O   0  0  0  0  0  0  0  0  0  0  0  0
    9.4469  -14.5132   22.7667 N   0  0  0  0  0  0  0  0  0  0  0  0
    9.3951  -15.1260   24.0720 C   0  0  0  0  0  0  0  0  0  0  0  0
   10.4952  -16.0146   24.3948 C   0  0  0  0  0  0  0  0  0  0  0  0
   10.5064  -16.5183   25.5710 O   0  0  0  0  0  0  0  0  0  0  0  0
   11.5734  -16.4050   23.5713 N   0  0  0  0  0  0  0  0  0  0  0  0
   12.6179  -17.3211   24.0031 C   0  0  1  0  0  0  0  0  0  0  0  0
   12.5110  -18.5504   23.1215 C   0  0  0  0  0  0  0  0  0  0  0  0
   13.1357  -20.0343   23.9075 S   0  0  0  0  0  0  0  0  0  0  0  0
   13.9574  -16.7046   23.9121 C   0  0  0  0  0  0  0  0  0  0  0  0
   14.7578  -16.8998   24.8604 O   0  0  0  0  0  0  0  0  0  0  0  0
   14.3803  -15.9340   22.8589 O   0  0  0  0  0  0  0  0  0  0  0  0
  2  3  1  0
  2  1  1  0
  3  4  1  1
  5  6  1  6
  5  3  1  0
  7  5  1  0
  8  7  2  0
  9  7  1  0
 10  9  1  0
 11 13  1  0
 11 10  1  0
 12 11  2  0
 14 15  1  6
 14 17  1  0
 14 13  1  0
 15 16  1  0
 17 19  1  0
 18 17  2  0
M  END
$$$$
