IGC.pdb
     RDKit          3D

 19 18  0  0  1  0  0  0  0  0999 V2000
    5.6544  -11.1816   26.6789 C   0  0  0  0  0  0  0  0  0  0  0  0
    5.4352  -12.4881   25.9524 C   0  0  0  0  0  0  0  0  0  0  0  0
    6.7850  -13.1202   25.7185 C   0  0  2  0  0  0  0  0  0  0  0  0
    7.6204  -12.1268   24.9359 C   0  0  0  0  0  0  0  0  0  0  0  0
    6.6859  -14.3783   24.8848 C   0  0  2  0  0  0  0  0  0  0  0  0
    5.8679  -15.3763   25.5473 N   0  0  0  0  0  0  0  0  0  0  0  0
    7.9857  -14.9701   24.5791 C   0  0  0  0  0  0  0  0  0  0  0  0
    8.9009  -14.2891   24.0476 O   0  0  0  0  0  0  0  0  0  0  0  0
    8.3215  -16.3400   24.8507 N   0  0  0  0  0  0  0  0  0  0  0  0
    9.6345  -16.8695   24.5724 C   0  0  0  0  0  0  0  0  0  0  0  0
   10.5509  -16.9044   25.6962 C   0  0  0  0  0  0  0  0  0  0  0  0
   11.6932  -17.4450   25.4951 O   0  0  0  0  0  0  0  0  0  0  0  0
   10.3483  -16.4136   27.0043 N   0  0  0  0  0  0  0  0  0  0  0  0
   11.3307  -16.5469   28.0690 C   0  0  1  0  0  0  0  0  0  0  0  0
   11.0160  -15.4702   29.0896 C   0  0  0  0  0  0  0  0  0  0  0  0
   10.3926  -13.9624   28.3496 S   0  0  0  0  0  0  0  0  0  0  0  0
   11.2996  -17.8936   28.6758 C   0  0  0  0  0  0  0  0  0  0  0  0
   10.3697  -18.6673   28.3374 O   0  0  0  0  0  0  0  0  0  0  0  0
   12.2212  -18.3504   29.5836 O   0  0  0  0  0  0  0  0  0  0  0  0
  2  3  1  0
  2  1  1  0
  3  4  1  6
  5  6  1  1
  5  3  1  0
  7  5  1  0
  8  7  2  0
  9  7  1  0
 10  9  1  0
 11 13  1  0
 11 10  1  0
 12 11  2  0
 14 15  1  1
 14 17  1  0
 14 13  1  0
 15 16  1  0
 17 19  1  0
 18 17  2  0
M  END
$$$$
