IGC.pdb
     RDKit          3D

 19 18  0  0  1  0  0  0  0  0999 V2000
    5.8038  -11.5553   26.8803 C   0  0  0  0  0  0  0  0  0  0  0  0
    5.5650  -12.7850   26.0354 C   0  0  0  0  0  0  0  0  0  0  0  0
    6.9092  -13.3303   25.6208 C   0  0  2  0  0  0  0  0  0  0  0  0
    7.5764  -12.2800   24.7555 C   0  0  0  0  0  0  0  0  0  0  0  0
    6.7797  -14.5843   24.7849 C   0  0  2  0  0  0  0  0  0  0  0  0
    6.2071  -15.6679   25.5609 N   0  0  0  0  0  0  0  0  0  0  0  0
    8.0502  -15.0350   24.2229 C   0  0  0  0  0  0  0  0  0  0  0  0
    8.7238  -14.2930   23.4617 O   0  0  0  0  0  0  0  0  0  0  0  0
    8.6234  -16.3262   24.4829 N   0  0  0  0  0  0  0  0  0  0  0  0
    9.9920  -16.6317   24.1433 C   0  0  0  0  0  0  0  0  0  0  0  0
   10.9595  -16.4588   25.2100 C   0  0  0  0  0  0  0  0  0  0  0  0
   12.1890  -16.6532   24.9136 O   0  0  0  0  0  0  0  0  0  0  0  0
   10.7226  -16.0986   26.5544 N   0  0  0  0  0  0  0  0  0  0  0  0
   11.7669  -16.0565   27.5664 C   0  0  1  0  0  0  0  0  0  0  0  0
   11.6163  -14.7341   28.2933 C   0  0  0  0  0  0  0  0  0  0  0  0
    9.9141  -14.3420   28.6916 S   0  0  0  0  0  0  0  0  0  0  0  0
   11.6720  -17.1997   28.4974 C   0  0  0  0  0  0  0  0  0  0  0  0
   12.5705  -17.3237   29.3665 O   0  0  0  0  0  0  0  0  0  0  0  0
   10.6660  -18.1321   28.4716 O   0  0  0  0  0  0  0  0  0  0  0  0
  2  3  1  0
  2  1  1  0
  3  4  1  6
  5  6  1  1
  5  3  1  0
  7  5  1  0
  8  7  2  0
  9  7  1  0
 10  9  1  0
 11 13  1  0
 11 10  1  0
 12 11  2  0
 14 15  1  1
 14 17  1  0
 14 13  1  0
 15 16  1  0
 17 19  1  0
 18 17  2  0
M  END
$$$$
