IGC.pdb
     RDKit          3D

 19 18  0  0  1  0  0  0  0  0999 V2000
    7.0592  -12.6480   19.2744 C   0  0  0  0  0  0  0  0  0  0  0  0
    8.2576  -13.1819   20.0240 C   0  0  0  0  0  0  0  0  0  0  0  0
    7.7627  -14.1921   21.0294 C   0  0  2  0  0  0  0  0  0  0  0  0
    6.8800  -13.4539   22.0158 C   0  0  0  0  0  0  0  0  0  0  0  0
    8.8959  -14.8111   21.8172 C   0  0  2  0  0  0  0  0  0  0  0  0
    9.8440  -15.4648   20.9352 N   0  0  0  0  0  0  0  0  0  0  0  0
    8.4433  -15.7785   22.8132 C   0  0  0  0  0  0  0  0  0  0  0  0
    8.5647  -17.0160   22.6193 O   0  0  0  0  0  0  0  0  0  0  0  0
    7.8383  -15.4117   24.0633 N   0  0  0  0  0  0  0  0  0  0  0  0
    7.6520  -16.3691   25.1266 C   0  0  0  0  0  0  0  0  0  0  0  0
    8.7854  -16.5554   26.0124 C   0  0  0  0  0  0  0  0  0  0  0  0
    9.5944  -17.5045   25.7256 O   0  0  0  0  0  0  0  0  0  0  0  0
    9.1214  -15.8176   27.1681 N   0  0  0  0  0  0  0  0  0  0  0  0
   10.4069  -15.9271   27.8405 C   0  0  1  0  0  0  0  0  0  0  0  0
   10.5690  -14.6731   28.6778 C   0  0  0  0  0  0  0  0  0  0  0  0
    9.6353  -13.2811   28.0449 S   0  0  0  0  0  0  0  0  0  0  0  0
   10.4872  -17.1465   28.6708 C   0  0  0  0  0  0  0  0  0  0  0  0
    9.4638  -17.8708   28.7485 O   0  0  0  0  0  0  0  0  0  0  0  0
   11.6073  -17.5358   29.3607 O   0  0  0  0  0  0  0  0  0  0  0  0
  2  3  1  0
  2  1  1  0
  3  4  1  1
  5  6  1  6
  5  3  1  0
  7  5  1  0
  8  7  2  0
  9  7  1  0
 10  9  1  0
 11 13  1  0
 11 10  1  0
 12 11  2  0
 14 15  1  1
 14 17  1  0
 14 13  1  0
 15 16  1  0
 17 19  1  0
 18 17  2  0
M  END
$$$$
