IGC.pdb
     RDKit          3D

 19 18  0  0  1  0  0  0  0  0999 V2000
    7.7478  -13.2615   19.6450 C   0  0  0  0  0  0  0  0  0  0  0  0
    6.9556  -13.3321   20.9297 C   0  0  0  0  0  0  0  0  0  0  0  0
    7.8527  -13.9105   21.9959 C   0  0  2  0  0  0  0  0  0  0  0  0
    9.2648  -13.4464   21.7000 C   0  0  0  0  0  0  0  0  0  0  0  0
    7.8627  -15.4228   21.9704 C   0  0  2  0  0  0  0  0  0  0  0  0
    6.5153  -15.9519   22.0649 N   0  0  0  0  0  0  0  0  0  0  0  0
    8.6696  -16.0110   23.0361 C   0  0  0  0  0  0  0  0  0  0  0  0
    8.1597  -16.3122   24.1466 O   0  0  0  0  0  0  0  0  0  0  0  0
   10.0735  -16.2885   22.9123 N   0  0  0  0  0  0  0  0  0  0  0  0
   10.8458  -16.8044   24.0165 C   0  0  0  0  0  0  0  0  0  0  0  0
   10.9190  -15.9512   25.1872 C   0  0  0  0  0  0  0  0  0  0  0  0
   12.0566  -15.8585   25.7658 O   0  0  0  0  0  0  0  0  0  0  0  0
    9.8860  -15.1965   25.7842 N   0  0  0  0  0  0  0  0  0  0  0  0
   10.0342  -14.5036   27.0548 C   0  0  1  0  0  0  0  0  0  0  0  0
    8.7960  -13.6459   27.2305 C   0  0  0  0  0  0  0  0  0  0  0  0
    8.5060  -12.5408   25.8504 S   0  0  0  0  0  0  0  0  0  0  0  0
   10.2009  -15.4499   28.1770 C   0  0  0  0  0  0  0  0  0  0  0  0
   10.5357  -14.9816   29.2935 O   0  0  0  0  0  0  0  0  0  0  0  0
   10.0131  -16.8051   28.0756 O   0  0  0  0  0  0  0  0  0  0  0  0
  2  3  1  0
  2  1  1  0
  3  4  1  6
  5  6  1  1
  5  3  1  0
  7  5  1  0
  8  7  2  0
  9  7  1  0
 10  9  1  0
 11 13  1  0
 11 10  1  0
 12 11  2  0
 14 15  1  1
 14 17  1  0
 14 13  1  0
 15 16  1  0
 17 19  1  0
 18 17  2  0
M  END
$$$$
