IGC.pdb
     RDKit          3D

 19 18  0  0  1  0  0  0  0  0999 V2000
    7.2086  -12.1579   27.4956 C   0  0  0  0  0  0  0  0  0  0  0  0
    6.4651  -13.2534   26.7677 C   0  0  0  0  0  0  0  0  0  0  0  0
    7.4332  -13.9218   25.8231 C   0  0  2  0  0  0  0  0  0  0  0  0
    7.8622  -12.8838   24.8054 C   0  0  0  0  0  0  0  0  0  0  0  0
    6.7893  -15.0585   25.0607 C   0  0  2  0  0  0  0  0  0  0  0  0
    6.1633  -16.0020   25.9674 N   0  0  0  0  0  0  0  0  0  0  0  0
    7.7274  -15.7842   24.2085 C   0  0  0  0  0  0  0  0  0  0  0  0
    8.2700  -16.8502   24.5999 O   0  0  0  0  0  0  0  0  0  0  0  0
    8.1007  -15.3564   22.8891 N   0  0  0  0  0  0  0  0  0  0  0  0
    9.0468  -16.0969   22.0900 C   0  0  0  0  0  0  0  0  0  0  0  0
   10.1655  -16.6733   22.8112 C   0  0  0  0  0  0  0  0  0  0  0  0
   10.4523  -17.8938   22.5553 O   0  0  0  0  0  0  0  0  0  0  0  0
   10.9946  -16.0579   23.7740 N   0  0  0  0  0  0  0  0  0  0  0  0
   12.1376  -16.7194   24.3845 C   0  0  1  0  0  0  0  0  0  0  0  0
   13.1646  -15.6405   24.6691 C   0  0  0  0  0  0  0  0  0  0  0  0
   13.8558  -14.9194   23.1817 S   0  0  0  0  0  0  0  0  0  0  0  0
   11.7572  -17.4428   25.6152 C   0  0  0  0  0  0  0  0  0  0  0  0
   10.8431  -16.9529   26.3239 O   0  0  0  0  0  0  0  0  0  0  0  0
   12.3390  -18.6136   26.0310 O   0  0  0  0  0  0  0  0  0  0  0  0
  2  3  1  0
  2  1  1  0
  3  4  1  6
  5  6  1  1
  5  3  1  0
  7  5  1  0
  8  7  2  0
  9  7  1  0
 10  9  1  0
 11 13  1  0
 11 10  1  0
 12 11  2  0
 14 15  1  1
 14 17  1  0
 14 13  1  0
 15 16  1  0
 17 19  1  0
 18 17  2  0
M  END
$$$$
