MYK.pdb
     RDKit          3D

 30 30  0  0  1  0  0  0  0  0999 V2000
    8.0345  -11.4055   19.2824 C   0  0  0  0  0  0  0  0  0  0  0  0
    6.8096  -12.6620   18.7712 S   0  0  0  0  0  0  0  0  0  0  0  0
    7.3560  -14.2968   19.3644 C   0  0  0  0  0  0  0  0  0  0  0  0
    8.4628  -14.1426   20.3596 C   0  0  0  0  0  0  0  0  0  0  0  0
    8.9748  -15.4739   20.8018 C   0  0  2  0  0  0  0  0  0  0  0  0
    7.7530  -16.3019   20.9913 N   0  0  0  0  0  0  0  0  0  0  0  0
    9.6564  -15.3783   22.1107 C   0  0  0  0  0  0  0  0  0  0  0  0
   10.8591  -14.9627   22.2130 O   0  0  0  0  0  0  0  0  0  0  0  0
   10.7608  -15.5642   30.9252 O   0  0  0  0  0  0  0  0  0  0  0  0
   10.3127  -15.4062   29.6187 C   0  0  0  0  0  0  0  0  0  0  0  0
   10.4244  -14.2047   28.9532 C   0  0  0  0  0  0  0  0  0  0  0  0
    9.9585  -14.1188   27.6568 C   0  0  0  0  0  0  0  0  0  0  0  0
    9.3862  -15.1799   26.9962 C   0  0  0  0  0  0  0  0  0  0  0  0
    8.8764  -15.1073   25.6273 C   0  0  0  0  0  0  0  0  0  0  0  0
    9.8126  -15.7407   24.5900 C   0  0  2  0  0  0  0  0  0  0  0  0
    9.0421  -15.7309   23.3629 N   0  0  0  0  0  0  0  0  0  0  0  0
   10.0827  -17.1207   24.9875 C   0  0  0  0  0  0  0  0  0  0  0  0
    9.1935  -17.9970   24.6922 O   0  0  0  0  0  0  0  0  0  0  0  0
    9.2856  -16.3706   27.6828 C   0  0  0  0  0  0  0  0  0  0  0  0
    9.7457  -16.4922   28.9920 C   0  0  0  0  0  0  0  0  0  0  0  0
   11.2252  -17.5805   25.6618 N   0  0  0  0  0  0  0  0  0  0  0  0
   11.9825  -18.6874   25.0732 C   0  0  1  0  0  0  0  0  0  0  0  0
   12.2587  -18.4274   23.6257 C   0  0  0  0  0  0  0  0  0  0  0  0
   11.4406  -19.3434   22.7652 C   0  0  0  0  0  0  0  0  0  0  0  0
   11.7125  -19.1841   21.2890 C   0  0  0  0  0  0  0  0  0  0  0  0
   10.8395  -20.2178   20.5675 C   0  0  0  0  0  0  0  0  0  0  0  0
   11.1376  -20.1127   19.1557 N   0  0  0  0  0  0  0  0  0  0  0  0
   13.2104  -18.8924   25.8752 C   0  0  0  0  0  0  0  0  0  0  0  0
   13.5152  -20.1610   26.3544 O   0  0  0  0  0  0  0  0  0  0  0  0
   14.0089  -17.9815   26.1567 O   0  0  0  0  0  0  0  0  0  0  0  0
  1  2  1  0
  2  3  1  0
  4  5  1  0
  4  3  1  0
  5  6  1  1
  7  5  1  0
  7  8  2  0
  9 10  1  0
 10 11  2  0
 11 12  1  0
 13 12  2  0
 13 14  1  0
 15 14  1  1
 15 16  1  0
 16  7  1  0
 17 15  1  0
 18 17  2  0
 19 13  1  0
 20 10  1  0
 20 19  2  0
 21 17  1  0
 22 21  1  0
 22 28  1  0
 22 23  1  6
 24 23  1  0
 25 26  1  0
 25 24  1  0
 27 26  1  0
 28 29  1  0
 30 28  2  0
M  END
$$$$
