MYK.pdb
     RDKit          3D

 30 30  0  0  1  0  0  0  0  0999 V2000
    3.7898  -17.5956   21.5143 C   0  0  0  0  0  0  0  0  0  0  0  0
    4.8470  -18.2603   20.1799 S   0  0  0  0  0  0  0  0  0  0  0  0
    5.9759  -16.9475   19.6095 C   0  0  0  0  0  0  0  0  0  0  0  0
    7.1091  -16.7850   20.5733 C   0  0  0  0  0  0  0  0  0  0  0  0
    7.3676  -15.3420   20.8578 C   0  0  2  0  0  0  0  0  0  0  0  0
    8.0213  -14.8274   19.6240 N   0  0  0  0  0  0  0  0  0  0  0  0
    8.3262  -15.1786   21.9719 C   0  0  0  0  0  0  0  0  0  0  0  0
    9.5841  -15.3131   21.8008 O   0  0  0  0  0  0  0  0  0  0  0  0
   10.7120  -15.4676   30.5298 O   0  0  0  0  0  0  0  0  0  0  0  0
   10.1000  -15.1685   29.3178 C   0  0  0  0  0  0  0  0  0  0  0  0
   10.3593  -13.9949   28.6437 C   0  0  0  0  0  0  0  0  0  0  0  0
    9.7160  -13.7629   27.4448 C   0  0  0  0  0  0  0  0  0  0  0  0
    8.8256  -14.6512   26.8898 C   0  0  0  0  0  0  0  0  0  0  0  0
    8.1254  -14.4199   25.6268 C   0  0  0  0  0  0  0  0  0  0  0  0
    8.9134  -14.8841   24.3949 C   0  0  2  0  0  0  0  0  0  0  0  0
    7.9421  -14.8553   23.3201 N   0  0  0  0  0  0  0  0  0  0  0  0
    9.3576  -16.2584   24.6168 C   0  0  0  0  0  0  0  0  0  0  0  0
    8.4599  -17.1741   24.5810 O   0  0  0  0  0  0  0  0  0  0  0  0
    8.5829  -15.8174   27.5828 C   0  0  0  0  0  0  0  0  0  0  0  0
    9.2149  -16.0836   28.7954 C   0  0  0  0  0  0  0  0  0  0  0  0
   10.6758  -16.6735   24.8644 N   0  0  0  0  0  0  0  0  0  0  0  0
   10.9345  -18.1052   25.0340 C   0  0  1  0  0  0  0  0  0  0  0  0
   11.7172  -18.6410   23.8768 C   0  0  0  0  0  0  0  0  0  0  0  0
   12.0559  -20.0848   24.0991 C   0  0  0  0  0  0  0  0  0  0  0  0
   12.7794  -20.7189   22.9359 C   0  0  0  0  0  0  0  0  0  0  0  0
   13.0251  -22.1836   23.3171 C   0  0  0  0  0  0  0  0  0  0  0  0
   13.6834  -22.8099   22.1913 N   0  0  0  0  0  0  0  0  0  0  0  0
   11.6061  -18.3076   26.3382 C   0  0  0  0  0  0  0  0  0  0  0  0
   12.5629  -17.3956   26.7681 O   0  0  0  0  0  0  0  0  0  0  0  0
   11.3654  -19.2643   27.0954 O   0  0  0  0  0  0  0  0  0  0  0  0
  1  2  1  0
  2  3  1  0
  4  5  1  0
  4  3  1  0
  5  6  1  6
  7  5  1  0
  7  8  2  0
  9 10  1  0
 10 11  2  0
 11 12  1  0
 13 12  2  0
 13 14  1  0
 15 14  1  1
 15 16  1  0
 16  7  1  0
 17 15  1  0
 18 17  2  0
 19 13  1  0
 20 10  1  0
 20 19  2  0
 21 17  1  0
 22 21  1  0
 22 28  1  0
 22 23  1  6
 24 23  1  0
 25 26  1  0
 25 24  1  0
 27 26  1  0
 28 29  1  0
 30 28  2  0
M  END
$$$$
