MYK.pdb
     RDKit          3D

 30 30  0  0  1  0  0  0  0  0999 V2000
    8.1455  -11.8066   19.0586 C   0  0  0  0  0  0  0  0  0  0  0  0
    6.6835  -12.8562   19.3764 S   0  0  0  0  0  0  0  0  0  0  0  0
    7.2419  -14.4767   19.9971 C   0  0  0  0  0  0  0  0  0  0  0  0
    8.5508  -14.3350   20.7085 C   0  0  0  0  0  0  0  0  0  0  0  0
    9.0754  -15.6665   21.1352 C   0  0  2  0  0  0  0  0  0  0  0  0
    7.8994  -16.5752   21.0594 N   0  0  0  0  0  0  0  0  0  0  0  0
    9.5275  -15.6385   22.5430 C   0  0  0  0  0  0  0  0  0  0  0  0
   10.6368  -15.1051   22.8816 O   0  0  0  0  0  0  0  0  0  0  0  0
    6.4935  -10.6428   26.6567 O   0  0  0  0  0  0  0  0  0  0  0  0
    6.8442  -11.9687   26.4294 C   0  0  0  0  0  0  0  0  0  0  0  0
    6.1549  -12.7590   25.5352 C   0  0  0  0  0  0  0  0  0  0  0  0
    6.5579  -14.0672   25.3588 C   0  0  0  0  0  0  0  0  0  0  0  0
    7.6186  -14.6207   26.0359 C   0  0  0  0  0  0  0  0  0  0  0  0
    8.0549  -16.0069   25.8720 C   0  0  0  0  0  0  0  0  0  0  0  0
    9.3003  -16.1574   24.9887 C   0  0  2  0  0  0  0  0  0  0  0  0
    8.7762  -16.1913   23.6383 N   0  0  0  0  0  0  0  0  0  0  0  0
    9.9393  -17.4346   25.2981 C   0  0  0  0  0  0  0  0  0  0  0  0
    9.1664  -18.4310   25.5340 O   0  0  0  0  0  0  0  0  0  0  0  0
    8.2919  -13.8105   26.9245 C   0  0  0  0  0  0  0  0  0  0  0  0
    7.9120  -12.4855   27.1268 C   0  0  0  0  0  0  0  0  0  0  0  0
   11.3208  -17.6765   25.3607 N   0  0  0  0  0  0  0  0  0  0  0  0
   11.7766  -19.0186   25.7301 C   0  0  1  0  0  0  0  0  0  0  0  0
   13.1789  -19.2477   25.2611 C   0  0  0  0  0  0  0  0  0  0  0  0
   13.6322  -20.6299   25.6256 C   0  0  0  0  0  0  0  0  0  0  0  0
   15.0436  -20.9354   25.1861 C   0  0  0  0  0  0  0  0  0  0  0  0
   15.3558  -22.3570   25.6684 C   0  0  0  0  0  0  0  0  0  0  0  0
   16.6649  -22.7001   25.1570 N   0  0  0  0  0  0  0  0  0  0  0  0
   11.6153  -19.1808   27.1932 C   0  0  0  0  0  0  0  0  0  0  0  0
   11.0213  -20.3324   27.6963 O   0  0  0  0  0  0  0  0  0  0  0  0
   11.9853  -18.3333   28.0248 O   0  0  0  0  0  0  0  0  0  0  0  0
  1  2  1  0
  2  3  1  0
  4  5  1  0
  4  3  1  0
  5  6  1  1
  7  5  1  0
  7  8  2  0
  9 10  1  0
 10 11  2  0
 11 12  1  0
 13 12  2  0
 13 14  1  0
 15 14  1  1
 15 16  1  0
 16  7  1  0
 17 15  1  0
 18 17  2  0
 19 13  1  0
 20 10  1  0
 20 19  2  0
 21 17  1  0
 22 21  1  0
 22 28  1  0
 22 23  1  1
 24 23  1  0
 25 26  1  0
 25 24  1  0
 27 26  1  0
 28 29  1  0
 30 28  2  0
M  END
$$$$
