MYK.pdb
     RDKit          3D

 30 30  0  0  1  0  0  0  0  0999 V2000
    4.5086  -19.6429   22.3065 C   0  0  0  0  0  0  0  0  0  0  0  0
    4.1016  -18.9617   20.6601 S   0  0  0  0  0  0  0  0  0  0  0  0
    4.5329  -17.1907   20.6292 C   0  0  0  0  0  0  0  0  0  0  0  0
    5.9040  -16.9824   21.1914 C   0  0  0  0  0  0  0  0  0  0  0  0
    6.2052  -15.5276   21.3434 C   0  0  2  0  0  0  0  0  0  0  0  0
    6.6834  -15.1009   20.0004 N   0  0  0  0  0  0  0  0  0  0  0  0
    7.3098  -15.3062   22.3014 C   0  0  0  0  0  0  0  0  0  0  0  0
    8.5331  -15.4102   21.9517 O   0  0  0  0  0  0  0  0  0  0  0  0
   11.1112  -14.8741   30.3380 O   0  0  0  0  0  0  0  0  0  0  0  0
   10.2667  -14.7268   29.2436 C   0  0  0  0  0  0  0  0  0  0  0  0
   10.1987  -13.5483   28.5324 C   0  0  0  0  0  0  0  0  0  0  0  0
    9.3379  -13.4721   27.4562 C   0  0  0  0  0  0  0  0  0  0  0  0
    8.5424  -14.5206   27.0591 C   0  0  0  0  0  0  0  0  0  0  0  0
    7.6161  -14.4572   25.9292 C   0  0  0  0  0  0  0  0  0  0  0  0
    8.2346  -14.9172   24.6027 C   0  0  2  0  0  0  0  0  0  0  0  0
    7.1155  -14.9558   23.6832 N   0  0  0  0  0  0  0  0  0  0  0  0
    8.7688  -16.2657   24.7807 C   0  0  0  0  0  0  0  0  0  0  0  0
    7.9279  -17.1937   25.0591 O   0  0  0  0  0  0  0  0  0  0  0  0
    8.6282  -15.6882   27.7862 C   0  0  0  0  0  0  0  0  0  0  0  0
    9.4864  -15.7997   28.8778 C   0  0  0  0  0  0  0  0  0  0  0  0
   10.1167  -16.6438   24.6745 N   0  0  0  0  0  0  0  0  0  0  0  0
   10.4614  -18.0541   24.8688 C   0  0  1  0  0  0  0  0  0  0  0  0
   10.7693  -18.7077   23.5584 C   0  0  0  0  0  0  0  0  0  0  0  0
   11.6595  -17.8280   22.7324 C   0  0  0  0  0  0  0  0  0  0  0  0
   12.0332  -18.4317   21.4004 C   0  0  0  0  0  0  0  0  0  0  0  0
   12.8882  -17.3892   20.6700 C   0  0  0  0  0  0  0  0  0  0  0  0
   13.2458  -17.9571   19.3884 N   0  0  0  0  0  0  0  0  0  0  0  0
   11.5779  -18.1332   25.8384 C   0  0  0  0  0  0  0  0  0  0  0  0
   12.0722  -16.9689   26.4148 O   0  0  0  0  0  0  0  0  0  0  0  0
   12.1178  -19.1998   26.1812 O   0  0  0  0  0  0  0  0  0  0  0  0
  1  2  1  0
  2  3  1  0
  4  5  1  0
  4  3  1  0
  5  6  1  6
  7  5  1  0
  7  8  2  0
  9 10  1  0
 10 11  2  0
 11 12  1  0
 13 12  2  0
 13 14  1  0
 15 14  1  1
 15 16  1  0
 16  7  1  0
 17 15  1  0
 18 17  2  0
 19 13  1  0
 20 10  1  0
 20 19  2  0
 21 17  1  0
 22 21  1  0
 22 28  1  0
 22 23  1  6
 24 23  1  0
 25 26  1  0
 25 24  1  0
 27 26  1  0
 28 29  1  0
 30 28  2  0
M  END
$$$$
