MYK.pdb
     RDKit          3D

 30 30  0  0  1  0  0  0  0  0999 V2000
    6.2113  -20.0903   20.4764 C   0  0  0  0  0  0  0  0  0  0  0  0
    6.6410  -19.2232   18.9259 S   0  0  0  0  0  0  0  0  0  0  0  0
    6.7933  -17.4391   19.2681 C   0  0  0  0  0  0  0  0  0  0  0  0
    7.5612  -17.2189   20.5335 C   0  0  0  0  0  0  0  0  0  0  0  0
    7.5387  -15.7793   20.9299 C   0  0  2  0  0  0  0  0  0  0  0  0
    8.2062  -15.0697   19.8050 N   0  0  0  0  0  0  0  0  0  0  0  0
    8.3463  -15.5457   22.1466 C   0  0  0  0  0  0  0  0  0  0  0  0
    9.5646  -15.1698   22.0821 O   0  0  0  0  0  0  0  0  0  0  0  0
    5.9902  -10.1349   27.1012 O   0  0  0  0  0  0  0  0  0  0  0  0
    6.4480  -11.4005   26.7528 C   0  0  0  0  0  0  0  0  0  0  0  0
    7.4342  -11.5810   25.8075 C   0  0  0  0  0  0  0  0  0  0  0  0
    7.8409  -12.8661   25.5105 C   0  0  0  0  0  0  0  0  0  0  0  0
    7.3061  -13.9784   26.1160 C   0  0  0  0  0  0  0  0  0  0  0  0
    7.7147  -15.3485   25.8082 C   0  0  0  0  0  0  0  0  0  0  0  0
    8.6935  -15.4467   24.6309 C   0  0  2  0  0  0  0  0  0  0  0  0
    7.8463  -15.7105   23.4854 N   0  0  0  0  0  0  0  0  0  0  0  0
    9.5806  -16.5857   24.8565 C   0  0  0  0  0  0  0  0  0  0  0  0
   10.3284  -16.5448   25.8981 O   0  0  0  0  0  0  0  0  0  0  0  0
    6.3213  -13.7720   27.0578 C   0  0  0  0  0  0  0  0  0  0  0  0
    5.8872  -12.4885   27.3817 C   0  0  0  0  0  0  0  0  0  0  0  0
    9.6922  -17.7235   24.0415 N   0  0  0  0  0  0  0  0  0  0  0  0
   10.6782  -18.7446   24.4028 C   0  0  1  0  0  0  0  0  0  0  0  0
   10.4935  -19.9745   23.5709 C   0  0  0  0  0  0  0  0  0  0  0  0
   11.4970  -21.0205   23.9552 C   0  0  0  0  0  0  0  0  0  0  0  0
   11.4242  -22.2652   23.1044 C   0  0  0  0  0  0  0  0  0  0  0  0
   12.5251  -23.2064   23.6079 C   0  0  0  0  0  0  0  0  0  0  0  0
   12.4541  -24.4087   22.8063 N   0  0  0  0  0  0  0  0  0  0  0  0
   12.0302  -18.1530   24.2802 C   0  0  0  0  0  0  0  0  0  0  0  0
   12.3133  -17.2974   23.2220 O   0  0  0  0  0  0  0  0  0  0  0  0
   12.9546  -18.3762   25.0817 O   0  0  0  0  0  0  0  0  0  0  0  0
  1  2  1  0
  2  3  1  0
  4  5  1  0
  4  3  1  0
  5  6  1  6
  7  5  1  0
  7  8  2  0
  9 10  1  0
 10 11  2  0
 11 12  1  0
 13 12  2  0
 13 14  1  0
 15 14  1  1
 15 16  1  0
 16  7  1  0
 17 15  1  0
 18 17  2  0
 19 13  1  0
 20 10  1  0
 20 19  2  0
 21 17  1  0
 22 21  1  0
 22 28  1  0
 22 23  1  6
 24 23  1  0
 25 26  1  0
 25 24  1  0
 27 26  1  0
 28 29  1  0
 30 28  2  0
M  END
$$$$
