MYK.pdb
     RDKit          3D

 30 30  0  0  1  0  0  0  0  0999 V2000
    8.4812  -17.2589   17.6959 C   0  0  0  0  0  0  0  0  0  0  0  0
    7.2409  -16.1754   16.9035 S   0  0  0  0  0  0  0  0  0  0  0  0
    6.9940  -14.6989   17.9438 C   0  0  0  0  0  0  0  0  0  0  0  0
    7.7521  -14.8373   19.2265 C   0  0  0  0  0  0  0  0  0  0  0  0
    7.5452  -13.6454   20.1022 C   0  0  2  0  0  0  0  0  0  0  0  0
    8.0956  -12.5052   19.3204 N   0  0  0  0  0  0  0  0  0  0  0  0
    8.3330  -13.7531   21.3490 C   0  0  0  0  0  0  0  0  0  0  0  0
    9.6090  -13.7129   21.3429 O   0  0  0  0  0  0  0  0  0  0  0  0
   10.0203  -15.0056   29.9987 O   0  0  0  0  0  0  0  0  0  0  0  0
    9.4160  -14.7845   28.7664 C   0  0  0  0  0  0  0  0  0  0  0  0
    8.8165  -15.8036   28.0585 C   0  0  0  0  0  0  0  0  0  0  0  0
    8.2352  -15.5125   26.8410 C   0  0  0  0  0  0  0  0  0  0  0  0
    8.2262  -14.2489   26.2997 C   0  0  0  0  0  0  0  0  0  0  0  0
    7.6258  -13.9214   25.0070 C   0  0  0  0  0  0  0  0  0  0  0  0
    8.5877  -14.0899   23.8237 C   0  0  2  0  0  0  0  0  0  0  0  0
    7.7506  -13.9041   22.6558 N   0  0  0  0  0  0  0  0  0  0  0  0
    9.1108  -15.4542   23.8393 C   0  0  0  0  0  0  0  0  0  0  0  0
    8.2800  -16.3998   23.5913 O   0  0  0  0  0  0  0  0  0  0  0  0
    8.8320  -13.2468   27.0264 C   0  0  0  0  0  0  0  0  0  0  0  0
    9.4282  -13.5055   28.2587 C   0  0  0  0  0  0  0  0  0  0  0  0
   10.4385  -15.8299   24.0987 N   0  0  0  0  0  0  0  0  0  0  0  0
   10.8014  -17.2425   23.9628 C   0  0  1  0  0  0  0  0  0  0  0  0
   11.8842  -17.4137   22.9443 C   0  0  0  0  0  0  0  0  0  0  0  0
   12.2931  -18.8535   22.8537 C   0  0  0  0  0  0  0  0  0  0  0  0
   13.3554  -19.1128   21.8133 C   0  0  0  0  0  0  0  0  0  0  0  0
   13.5510  -20.6325   21.7543 C   0  0  0  0  0  0  0  0  0  0  0  0
   14.5869  -20.8889   20.7775 N   0  0  0  0  0  0  0  0  0  0  0  0
   11.1690  -17.7615   25.3001 C   0  0  0  0  0  0  0  0  0  0  0  0
   11.7103  -16.9002   26.2473 O   0  0  0  0  0  0  0  0  0  0  0  0
   11.0221  -18.9481   25.6423 O   0  0  0  0  0  0  0  0  0  0  0  0
  1  2  1  0
  2  3  1  0
  4  5  1  0
  4  3  1  0
  5  6  1  6
  7  5  1  0
  7  8  2  0
  9 10  1  0
 10 11  2  0
 11 12  1  0
 13 12  2  0
 13 14  1  0
 15 14  1  1
 15 16  1  0
 16  7  1  0
 17 15  1  0
 18 17  2  0
 19 13  1  0
 20 10  1  0
 20 19  2  0
 21 17  1  0
 22 21  1  0
 22 28  1  0
 22 23  1  6
 24 23  1  0
 25 26  1  0
 25 24  1  0
 27 26  1  0
 28 29  1  0
 30 28  2  0
M  END
$$$$
