MYK.pdb
     RDKit          3D

 30 30  0  0  1  0  0  0  0  0999 V2000
    7.6980  -11.0575   20.2671 C   0  0  0  0  0  0  0  0  0  0  0  0
    6.9987  -12.1551   18.9839 S   0  0  0  0  0  0  0  0  0  0  0  0
    7.1153  -13.8824   19.5548 C   0  0  0  0  0  0  0  0  0  0  0  0
    8.4066  -14.1019   20.2786 C   0  0  0  0  0  0  0  0  0  0  0  0
    8.5146  -15.5092   20.7665 C   0  0  2  0  0  0  0  0  0  0  0  0
    7.1210  -15.8914   21.1215 N   0  0  0  0  0  0  0  0  0  0  0  0
    9.3268  -15.5881   21.9998 C   0  0  0  0  0  0  0  0  0  0  0  0
   10.6024  -15.5489   21.9677 O   0  0  0  0  0  0  0  0  0  0  0  0
   11.2225  -15.0527   30.6618 O   0  0  0  0  0  0  0  0  0  0  0  0
   10.5803  -15.1650   29.4339 C   0  0  0  0  0  0  0  0  0  0  0  0
   10.0265  -16.3536   29.0103 C   0  0  0  0  0  0  0  0  0  0  0  0
    9.4035  -16.3933   27.7793 C   0  0  0  0  0  0  0  0  0  0  0  0
    9.3094  -15.2986   26.9532 C   0  0  0  0  0  0  0  0  0  0  0  0
    8.6636  -15.3219   25.6412 C   0  0  0  0  0  0  0  0  0  0  0  0
    9.6222  -15.6594   24.4918 C   0  0  2  0  0  0  0  0  0  0  0  0
    8.7701  -15.7081   23.3210 N   0  0  0  0  0  0  0  0  0  0  0  0
   10.1949  -16.9814   24.7359 C   0  0  0  0  0  0  0  0  0  0  0  0
    9.3721  -17.9519   24.8999 O   0  0  0  0  0  0  0  0  0  0  0  0
    9.8709  -14.1216   27.3989 C   0  0  0  0  0  0  0  0  0  0  0  0
   10.5071  -14.0462   28.6360 C   0  0  0  0  0  0  0  0  0  0  0  0
   11.5623  -17.2921   24.8068 N   0  0  0  0  0  0  0  0  0  0  0  0
   11.9482  -18.6837   25.0511 C   0  0  1  0  0  0  0  0  0  0  0  0
   13.1552  -19.0464   24.2444 C   0  0  0  0  0  0  0  0  0  0  0  0
   12.7755  -19.2799   22.8126 C   0  0  0  0  0  0  0  0  0  0  0  0
   13.9448  -19.6504   21.9330 C   0  0  0  0  0  0  0  0  0  0  0  0
   13.3981  -19.7783   20.5062 C   0  0  0  0  0  0  0  0  0  0  0  0
   14.5284  -20.0360   19.6407 N   0  0  0  0  0  0  0  0  0  0  0  0
   12.1420  -18.8662   26.5079 C   0  0  0  0  0  0  0  0  0  0  0  0
   12.6063  -17.8064   27.2781 O   0  0  0  0  0  0  0  0  0  0  0  0
   11.9112  -19.9325   27.1049 O   0  0  0  0  0  0  0  0  0  0  0  0
  1  2  1  0
  2  3  1  0
  4  5  1  0
  4  3  1  0
  5  6  1  1
  7  5  1  0
  7  8  2  0
  9 10  1  0
 10 11  2  0
 11 12  1  0
 13 12  2  0
 13 14  1  0
 15 14  1  1
 15 16  1  0
 16  7  1  0
 17 15  1  0
 18 17  2  0
 19 13  1  0
 20 10  1  0
 20 19  2  0
 21 17  1  0
 22 21  1  0
 22 28  1  0
 22 23  1  6
 24 23  1  0
 25 26  1  0
 25 24  1  0
 27 26  1  0
 28 29  1  0
 30 28  2  0
M  END
$$$$
