MYK.pdb
     RDKit          3D

 30 30  0  0  1  0  0  0  0  0999 V2000
    9.7567  -13.4273   28.4436 C   0  0  0  0  0  0  0  0  0  0  0  0
   10.8582  -14.8857   28.4328 S   0  0  0  0  0  0  0  0  0  0  0  0
   10.0173  -16.2562   27.5740 C   0  0  0  0  0  0  0  0  0  0  0  0
    8.5346  -16.0568   27.6097 C   0  0  0  0  0  0  0  0  0  0  0  0
    7.8253  -17.1940   26.9510 C   0  0  2  0  0  0  0  0  0  0  0  0
    8.6615  -18.3861   27.2576 N   0  0  0  0  0  0  0  0  0  0  0  0
    7.8013  -17.0318   25.4813 C   0  0  0  0  0  0  0  0  0  0  0  0
    7.9251  -18.0287   24.6935 O   0  0  0  0  0  0  0  0  0  0  0  0
    7.9967  -12.7495   17.6376 O   0  0  0  0  0  0  0  0  0  0  0  0
    7.8786  -13.1350   18.9681 C   0  0  0  0  0  0  0  0  0  0  0  0
    7.0295  -14.1479   19.3578 C   0  0  0  0  0  0  0  0  0  0  0  0
    6.9624  -14.4789   20.6961 C   0  0  0  0  0  0  0  0  0  0  0  0
    7.7058  -13.8429   21.6618 C   0  0  0  0  0  0  0  0  0  0  0  0
    7.6416  -14.1704   23.0857 C   0  0  0  0  0  0  0  0  0  0  0  0
    7.6850  -15.6772   23.3709 C   0  0  2  0  0  0  0  0  0  0  0  0
    7.6350  -15.7671   24.8162 N   0  0  0  0  0  0  0  0  0  0  0  0
    8.9602  -16.2056   22.8913 C   0  0  0  0  0  0  0  0  0  0  0  0
    8.9187  -17.0158   21.8976 O   0  0  0  0  0  0  0  0  0  0  0  0
    8.5474  -12.8333   21.2473 C   0  0  0  0  0  0  0  0  0  0  0  0
    8.6399  -12.4737   19.9046 C   0  0  0  0  0  0  0  0  0  0  0  0
   10.2291  -15.9096   23.4142 N   0  0  0  0  0  0  0  0  0  0  0  0
   11.4098  -16.3456   22.6649 C   0  0  1  0  0  0  0  0  0  0  0  0
   11.7869  -15.3279   21.6348 C   0  0  0  0  0  0  0  0  0  0  0  0
   13.0030  -15.7749   20.8798 C   0  0  0  0  0  0  0  0  0  0  0  0
   13.4469  -14.7956   19.8204 C   0  0  0  0  0  0  0  0  0  0  0  0
   14.6618  -15.4214   19.1250 C   0  0  0  0  0  0  0  0  0  0  0  0
   15.0451  -14.5265   18.0549 N   0  0  0  0  0  0  0  0  0  0  0  0
   12.4963  -16.6318   23.6296 C   0  0  0  0  0  0  0  0  0  0  0  0
   12.2493  -16.5304   24.9937 O   0  0  0  0  0  0  0  0  0  0  0  0
   13.6459  -16.9656   23.2927 O   0  0  0  0  0  0  0  0  0  0  0  0
  1  2  1  0
  2  3  1  0
  4  5  1  0
  4  3  1  0
  5  6  1  6
  7  5  1  0
  7  8  2  0
  9 10  1  0
 10 11  2  0
 11 12  1  0
 13 12  2  0
 13 14  1  0
 15 14  1  1
 15 16  1  0
 16  7  1  0
 17 15  1  0
 18 17  2  0
 19 13  1  0
 20 10  1  0
 20 19  2  0
 21 17  1  0
 22 21  1  0
 22 28  1  0
 22 23  1  6
 24 23  1  0
 25 26  1  0
 25 24  1  0
 27 26  1  0
 28 29  1  0
 30 28  2  0
M  END
$$$$
