MYK.pdb
     RDKit          3D

 30 30  0  0  1  0  0  0  0  0999 V2000
    7.5997  -11.2147   19.9924 C   0  0  0  0  0  0  0  0  0  0  0  0
    6.9432  -12.3909   18.7572 S   0  0  0  0  0  0  0  0  0  0  0  0
    7.6472  -14.0414   19.0789 C   0  0  0  0  0  0  0  0  0  0  0  0
    8.3490  -14.0557   20.4005 C   0  0  0  0  0  0  0  0  0  0  0  0
    8.8827  -15.4159   20.7089 C   0  0  2  0  0  0  0  0  0  0  0  0
    7.6725  -16.2679   20.8631 N   0  0  0  0  0  0  0  0  0  0  0  0
    9.6047  -15.4286   21.9994 C   0  0  0  0  0  0  0  0  0  0  0  0
   10.8524  -15.1689   22.0735 O   0  0  0  0  0  0  0  0  0  0  0  0
   10.6710  -15.6744   30.8396 O   0  0  0  0  0  0  0  0  0  0  0  0
   10.2085  -15.5250   29.5371 C   0  0  0  0  0  0  0  0  0  0  0  0
   10.2747  -14.3170   28.8773 C   0  0  0  0  0  0  0  0  0  0  0  0
    9.7968  -14.2404   27.5846 C   0  0  0  0  0  0  0  0  0  0  0  0
    9.2560  -15.3169   26.9224 C   0  0  0  0  0  0  0  0  0  0  0  0
    8.7343  -15.2546   25.5575 C   0  0  0  0  0  0  0  0  0  0  0  0
    9.7505  -15.6864   24.4923 C   0  0  2  0  0  0  0  0  0  0  0  0
    8.9837  -15.7224   23.2634 N   0  0  0  0  0  0  0  0  0  0  0  0
   10.2209  -17.0316   24.8155 C   0  0  0  0  0  0  0  0  0  0  0  0
    9.3310  -17.9485   24.9302 O   0  0  0  0  0  0  0  0  0  0  0  0
    9.2007  -16.5138   27.6033 C   0  0  0  0  0  0  0  0  0  0  0  0
    9.6740  -16.6265   28.9086 C   0  0  0  0  0  0  0  0  0  0  0  0
   11.5565  -17.4178   25.0115 N   0  0  0  0  0  0  0  0  0  0  0  0
   11.8261  -18.7810   25.4744 C   0  0  1  0  0  0  0  0  0  0  0  0
   12.5952  -19.5461   24.4438 C   0  0  0  0  0  0  0  0  0  0  0  0
   12.0411  -19.2816   23.0757 C   0  0  0  0  0  0  0  0  0  0  0  0
   12.8301  -19.9394   21.9697 C   0  0  0  0  0  0  0  0  0  0  0  0
   12.1016  -19.6180   20.6593 C   0  0  0  0  0  0  0  0  0  0  0  0
   12.8688  -20.2182   19.5896 N   0  0  0  0  0  0  0  0  0  0  0  0
   12.5178  -18.7027   26.7815 C   0  0  0  0  0  0  0  0  0  0  0  0
   13.3284  -17.6101   27.0664 O   0  0  0  0  0  0  0  0  0  0  0  0
   12.4198  -19.5719   27.6655 O   0  0  0  0  0  0  0  0  0  0  0  0
  1  2  1  0
  2  3  1  0
  4  5  1  0
  4  3  1  0
  5  6  1  1
  7  5  1  0
  7  8  2  0
  9 10  1  0
 10 11  2  0
 11 12  1  0
 13 12  2  0
 13 14  1  0
 15 14  1  1
 15 16  1  0
 16  7  1  0
 17 15  1  0
 18 17  2  0
 19 13  1  0
 20 10  1  0
 20 19  2  0
 21 17  1  0
 22 21  1  0
 22 28  1  0
 22 23  1  6
 24 23  1  0
 25 26  1  0
 25 24  1  0
 27 26  1  0
 28 29  1  0
 30 28  2  0
M  END
$$$$
