FWP.pdb
     RDKit          3D

 33 36  0  0  1  0  0  0  0  0999 V2000
   28.3222  -20.6769   -8.4958 N   0  0  0  0  0  0  0  0  0  0  0  0
   26.8757  -20.6189   -8.3205 C   0  0  1  0  0  0  0  0  0  0  0  0
   26.4769  -19.6162   -7.2872 C   0  0  0  0  0  0  0  0  0  0  0  0
   27.2329  -19.7513   -6.0269 C   0  0  0  0  0  0  0  0  0  0  0  0
   28.2542  -18.8627   -5.7602 C   0  0  0  0  0  0  0  0  0  0  0  0
   28.9948  -18.9671   -4.5793 C   0  0  0  0  0  0  0  0  0  0  0  0
   28.7243  -19.9531   -3.6602 C   0  0  0  0  0  0  0  0  0  0  0  0
   27.7030  -20.8318   -3.9396 C   0  0  0  0  0  0  0  0  0  0  0  0
   26.9691  -20.7257   -5.1130 C   0  0  0  0  0  0  0  0  0  0  0  0
   26.2226  -20.2616   -9.6019 C   0  0  0  0  0  0  0  0  0  0  0  0
   26.5073  -19.1686  -10.1415 O   0  0  0  0  0  0  0  0  0  0  0  0
   25.2863  -21.1037  -10.2450 N   0  0  0  0  0  0  0  0  0  0  0  0
   24.8155  -20.7650  -11.5458 C   0  0  1  0  0  0  0  0  0  0  0  0
   25.4123  -21.6653  -12.6221 C   0  0  0  0  0  0  0  0  0  0  0  0
   26.7738  -21.2332  -13.0309 C   0  0  0  0  0  0  0  0  0  0  0  0
   27.9562  -21.8425  -12.5747 C   0  0  0  0  0  0  0  0  0  0  0  0
   29.0007  -21.2439  -13.1579 N   0  0  0  0  0  0  0  0  0  0  0  0
   28.5332  -20.2816  -13.9626 C   0  0  0  0  0  0  0  0  0  0  0  0
   29.1418  -19.3473  -14.7988 C   0  0  0  0  0  0  0  0  0  0  0  0
   28.3991  -18.4430  -15.5249 C   0  0  0  0  0  0  0  0  0  0  0  0
   27.0252  -18.4296  -15.4494 C   0  0  0  0  0  0  0  0  0  0  0  0
   26.4218  -19.3513  -14.6247 C   0  0  0  0  0  0  0  0  0  0  0  0
   27.1496  -20.2537  -13.9011 C   0  0  0  0  0  0  0  0  0  0  0  0
   23.3418  -20.7960  -11.6593 C   0  0  0  0  0  0  0  0  0  0  0  0
   22.7212  -21.3002  -10.6928 O   0  0  0  0  0  0  0  0  0  0  0  0
   22.5926  -20.3058  -12.7577 N   0  0  0  0  0  0  0  0  0  0  0  0
   23.0148  -19.8005  -14.0256 C   0  0  0  0  0  0  0  0  0  0  0  0
   22.0374  -18.6765  -14.3029 C   0  0  0  0  0  0  0  0  0  0  0  0
   20.9048  -18.8381  -13.3178 C   0  0  0  0  0  0  0  0  0  0  0  0
   21.1389  -20.2222  -12.7458 C   0  0  1  0  0  0  0  0  0  0  0  0
   20.5308  -21.2422  -13.6266 C   0  0  0  0  0  0  0  0  0  0  0  0
   19.1922  -21.5864  -13.5691 O   0  0  0  0  0  0  0  0  0  0  0  0
   21.2552  -21.8238  -14.4635 O   0  0  0  0  0  0  0  0  0  0  0  0
  2  3  1  0
  2  1  1  6
  3  4  1  0
  4  9  2  0
  5  6  2  0
  5  4  1  0
  6  7  1  0
  7  8  2  0
  9  8  1  0
 10  2  1  0
 10 11  2  0
 12 10  1  0
 13 12  1  0
 13 14  1  6
 15 14  1  0
 15 23  1  0
 16 15  2  0
 17 16  1  0
 17 18  1  0
 18 19  1  0
 18 23  2  0
 19 20  2  0
 20 21  1  0
 22 21  2  0
 23 22  1  0
 24 13  1  0
 24 26  1  0
 25 24  2  0
 26 30  1  0
 27 26  1  0
 27 28  1  0
 28 29  1  0
 30 29  1  0
 31 32  1  0
 30 31  1  6
 33 31  2  0
M  END
$$$$
