FWP.pdb
     RDKit          3D

 33 36  0  0  1  0  0  0  0  0999 V2000
   29.2747  -20.2727  -12.0996 N   0  0  0  0  0  0  0  0  0  0  0  0
   28.3718  -21.3851  -12.3709 C   0  0  1  0  0  0  0  0  0  0  0  0
   28.1155  -22.2083  -11.1506 C   0  0  0  0  0  0  0  0  0  0  0  0
   27.8917  -21.3947   -9.9397 C   0  0  0  0  0  0  0  0  0  0  0  0
   26.6076  -20.9981   -9.6275 C   0  0  0  0  0  0  0  0  0  0  0  0
   26.3616  -20.2208   -8.4920 C   0  0  0  0  0  0  0  0  0  0  0  0
   27.3888  -19.8350   -7.6636 C   0  0  0  0  0  0  0  0  0  0  0  0
   28.6638  -20.2381   -7.9875 C   0  0  0  0  0  0  0  0  0  0  0  0
   28.9051  -21.0101   -9.1156 C   0  0  0  0  0  0  0  0  0  0  0  0
   27.0757  -20.8757  -12.8775 C   0  0  0  0  0  0  0  0  0  0  0  0
   26.6561  -19.7718  -12.4624 O   0  0  0  0  0  0  0  0  0  0  0  0
   26.2870  -21.5849  -13.8125 N   0  0  0  0  0  0  0  0  0  0  0  0
   25.0899  -20.9955  -14.3109 C   0  0  1  0  0  0  0  0  0  0  0  0
   25.0748  -20.9333  -15.8344 C   0  0  0  0  0  0  0  0  0  0  0  0
   23.8775  -20.2283  -16.3605 C   0  0  0  0  0  0  0  0  0  0  0  0
   23.7005  -18.8348  -16.2957 C   0  0  0  0  0  0  0  0  0  0  0  0
   22.5429  -18.5205  -16.8879 N   0  0  0  0  0  0  0  0  0  0  0  0
   21.9776  -19.6528  -17.3242 C   0  0  0  0  0  0  0  0  0  0  0  0
   20.7886  -19.9385  -17.9929 C   0  0  0  0  0  0  0  0  0  0  0  0
   20.4415  -21.2306  -18.3193 C   0  0  0  0  0  0  0  0  0  0  0  0
   21.2590  -22.2888  -17.9949 C   0  0  0  0  0  0  0  0  0  0  0  0
   22.4339  -22.0095  -17.3349 C   0  0  0  0  0  0  0  0  0  0  0  0
   22.7881  -20.7308  -17.0077 C   0  0  0  0  0  0  0  0  0  0  0  0
   23.8651  -21.6819  -13.8479 C   0  0  0  0  0  0  0  0  0  0  0  0
   23.9713  -22.9099  -13.6150 O   0  0  0  0  0  0  0  0  0  0  0  0
   22.6043  -21.0662  -13.6497 N   0  0  0  0  0  0  0  0  0  0  0  0
   22.1646  -19.7321  -13.9104 C   0  0  0  0  0  0  0  0  0  0  0  0
   21.2332  -19.4329  -12.7535 C   0  0  0  0  0  0  0  0  0  0  0  0
   20.9417  -20.7537  -12.0829 C   0  0  0  0  0  0  0  0  0  0  0  0
   21.4645  -21.7699  -13.0788 C   0  0  1  0  0  0  0  0  0  0  0  0
   20.4343  -22.0510  -14.1014 C   0  0  0  0  0  0  0  0  0  0  0  0
   19.3393  -22.8626  -13.8650 O   0  0  0  0  0  0  0  0  0  0  0  0
   20.5537  -21.5344  -15.2338 O   0  0  0  0  0  0  0  0  0  0  0  0
  2  3  1  0
  2  1  1  1
  3  4  1  0
  4  9  2  0
  5  6  2  0
  5  4  1  0
  6  7  1  0
  7  8  2  0
  9  8  1  0
 10  2  1  0
 10 11  2  0
 12 10  1  0
 13 12  1  0
 13 14  1  6
 15 14  1  0
 15 23  1  0
 16 15  2  0
 17 16  1  0
 17 18  1  0
 18 19  1  0
 18 23  2  0
 19 20  2  0
 20 21  1  0
 22 21  2  0
 23 22  1  0
 24 13  1  0
 24 26  1  0
 25 24  2  0
 26 30  1  0
 27 26  1  0
 27 28  1  0
 28 29  1  0
 30 29  1  0
 31 32  1  0
 30 31  1  6
 33 31  2  0
M  END
$$$$
