FWP.pdb
     RDKit          3D

 33 36  0  0  1  0  0  0  0  0999 V2000
   29.4420  -19.6493  -20.5538 N   0  0  0  0  0  0  0  0  0  0  0  0
   28.9829  -20.7666  -19.7369 C   0  0  1  0  0  0  0  0  0  0  0  0
   30.1204  -21.5820  -19.2137 C   0  0  0  0  0  0  0  0  0  0  0  0
   30.5601  -22.6324  -20.1527 C   0  0  0  0  0  0  0  0  0  0  0  0
   31.4228  -22.2972  -21.1759 C   0  0  0  0  0  0  0  0  0  0  0  0
   31.8530  -23.2662  -22.0870 C   0  0  0  0  0  0  0  0  0  0  0  0
   31.4283  -24.5699  -21.9853 C   0  0  0  0  0  0  0  0  0  0  0  0
   30.5683  -24.8892  -20.9599 C   0  0  0  0  0  0  0  0  0  0  0  0
   30.1430  -23.9249  -20.0566 C   0  0  0  0  0  0  0  0  0  0  0  0
   28.1938  -20.2650  -18.5872 C   0  0  0  0  0  0  0  0  0  0  0  0
   28.5711  -19.2242  -18.0030 O   0  0  0  0  0  0  0  0  0  0  0  0
   27.0284  -20.9134  -18.1172 N   0  0  0  0  0  0  0  0  0  0  0  0
   26.2880  -20.3364  -17.0460 C   0  0  1  0  0  0  0  0  0  0  0  0
   24.7959  -20.2699  -17.3531 C   0  0  0  0  0  0  0  0  0  0  0  0
   24.0151  -19.6688  -16.2412 C   0  0  0  0  0  0  0  0  0  0  0  0
   23.9486  -18.2864  -15.9919 C   0  0  0  0  0  0  0  0  0  0  0  0
   23.1376  -18.0764  -14.9490 N   0  0  0  0  0  0  0  0  0  0  0  0
   22.6879  -19.2640  -14.5253 C   0  0  0  0  0  0  0  0  0  0  0  0
   21.8386  -19.6581  -13.4930 C   0  0  0  0  0  0  0  0  0  0  0  0
   21.5473  -20.9856  -13.2709 C   0  0  0  0  0  0  0  0  0  0  0  0
   22.0869  -21.9731  -14.0628 C   0  0  0  0  0  0  0  0  0  0  0  0
   22.9256  -21.5865  -15.0832 C   0  0  0  0  0  0  0  0  0  0  0  0
   23.2200  -20.2719  -15.3127 C   0  0  0  0  0  0  0  0  0  0  0  0
   26.4808  -21.0382  -15.7591 C   0  0  0  0  0  0  0  0  0  0  0  0
   26.5245  -22.2907  -15.8111 O   0  0  0  0  0  0  0  0  0  0  0  0
   26.6192  -20.4121  -14.4954 N   0  0  0  0  0  0  0  0  0  0  0  0
   26.6345  -19.0299  -14.1341 C   0  0  0  0  0  0  0  0  0  0  0  0
   27.6616  -18.9652  -13.0222 C   0  0  0  0  0  0  0  0  0  0  0  0
   27.9214  -20.3891  -12.5926 C   0  0  0  0  0  0  0  0  0  0  0  0
   26.8008  -21.1614  -13.2602 C   0  0  1  0  0  0  0  0  0  0  0  0
   25.5865  -21.1189  -12.4178 C   0  0  0  0  0  0  0  0  0  0  0  0
   24.5050  -20.3021  -12.6950 O   0  0  0  0  0  0  0  0  0  0  0  0
   25.5293  -21.8526  -11.4069 O   0  0  0  0  0  0  0  0  0  0  0  0
  2  3  1  0
  2  1  1  1
  3  4  1  0
  4  9  2  0
  5  6  2  0
  5  4  1  0
  6  7  1  0
  7  8  2  0
  9  8  1  0
 10  2  1  0
 10 11  2  0
 12 10  1  0
 13 12  1  0
 13 14  1  6
 15 14  1  0
 15 23  1  0
 16 15  2  0
 17 16  1  0
 17 18  1  0
 18 19  1  0
 18 23  2  0
 19 20  2  0
 20 21  1  0
 22 21  2  0
 23 22  1  0
 24 13  1  0
 24 26  1  0
 25 24  2  0
 26 30  1  0
 27 26  1  0
 27 28  1  0
 28 29  1  0
 30 29  1  0
 31 32  1  0
 30 31  1  1
 33 31  2  0
M  END
$$$$
