FWP.pdb
     RDKit          3D

 33 36  0  0  1  0  0  0  0  0999 V2000
   28.2981  -20.4455   -9.1963 N   0  0  0  0  0  0  0  0  0  0  0  0
   26.8804  -20.5826   -8.8836 C   0  0  1  0  0  0  0  0  0  0  0  0
   26.4495  -19.6349   -7.8119 C   0  0  0  0  0  0  0  0  0  0  0  0
   27.2857  -19.7138   -6.5984 C   0  0  0  0  0  0  0  0  0  0  0  0
   27.5210  -20.9472   -6.0265 C   0  0  0  0  0  0  0  0  0  0  0  0
   28.3025  -21.0565   -4.8727 C   0  0  0  0  0  0  0  0  0  0  0  0
   28.8524  -19.9427   -4.2833 C   0  0  0  0  0  0  0  0  0  0  0  0
   28.6093  -18.7197   -4.8649 C   0  0  0  0  0  0  0  0  0  0  0  0
   27.8329  -18.6142   -6.0107 C   0  0  0  0  0  0  0  0  0  0  0  0
   26.0659  -20.3273  -10.0950 C   0  0  0  0  0  0  0  0  0  0  0  0
   26.1196  -19.1982  -10.6329 O   0  0  0  0  0  0  0  0  0  0  0  0
   25.2253  -21.3065  -10.6729 N   0  0  0  0  0  0  0  0  0  0  0  0
   24.5448  -21.0172  -11.8902 C   0  0  1  0  0  0  0  0  0  0  0  0
   25.2301  -21.6552  -13.0937 C   0  0  0  0  0  0  0  0  0  0  0  0
   26.5236  -21.0017  -13.4210 C   0  0  0  0  0  0  0  0  0  0  0  0
   27.7701  -21.4639  -12.9624 C   0  0  0  0  0  0  0  0  0  0  0  0
   28.7305  -20.6796  -13.4645 N   0  0  0  0  0  0  0  0  0  0  0  0
   28.1484  -19.7402  -14.2200 C   0  0  0  0  0  0  0  0  0  0  0  0
   28.6352  -18.6699  -14.9683 C   0  0  0  0  0  0  0  0  0  0  0  0
   27.7875  -17.8334  -15.6597 C   0  0  0  0  0  0  0  0  0  0  0  0
   26.4251  -18.0251  -15.6353 C   0  0  0  0  0  0  0  0  0  0  0  0
   25.9418  -19.0814  -14.8974 C   0  0  0  0  0  0  0  0  0  0  0  0
   26.7746  -19.9181  -14.2090 C   0  0  0  0  0  0  0  0  0  0  0  0
   23.1243  -21.4264  -11.8760 C   0  0  0  0  0  0  0  0  0  0  0  0
   22.8455  -22.4401  -11.1917 O   0  0  0  0  0  0  0  0  0  0  0  0
   22.0738  -20.7694  -12.5638 N   0  0  0  0  0  0  0  0  0  0  0  0
   22.1016  -19.6950  -13.5051 C   0  0  0  0  0  0  0  0  0  0  0  0
   20.8681  -18.8869  -13.1578 C   0  0  0  0  0  0  0  0  0  0  0  0
   20.0291  -19.7516  -12.2479 C   0  0  0  0  0  0  0  0  0  0  0  0
   20.6721  -21.1179  -12.3799 C   0  0  1  0  0  0  0  0  0  0  0  0
   20.1290  -21.8195  -13.5627 C   0  0  0  0  0  0  0  0  0  0  0  0
   18.8326  -22.2981  -13.6259 O   0  0  0  0  0  0  0  0  0  0  0  0
   20.8714  -21.9911  -14.5541 O   0  0  0  0  0  0  0  0  0  0  0  0
  2  3  1  0
  2  1  1  6
  3  4  1  0
  4  9  2  0
  5  6  2  0
  5  4  1  0
  6  7  1  0
  7  8  2  0
  9  8  1  0
 10  2  1  0
 10 11  2  0
 12 10  1  0
 13 12  1  0
 13 14  1  6
 15 14  1  0
 15 23  1  0
 16 15  2  0
 17 16  1  0
 17 18  1  0
 18 19  1  0
 18 23  2  0
 19 20  2  0
 20 21  1  0
 22 21  2  0
 23 22  1  0
 24 13  1  0
 24 26  1  0
 25 24  2  0
 26 30  1  0
 27 26  1  0
 27 28  1  0
 28 29  1  0
 30 29  1  0
 31 32  1  0
 30 31  1  6
 33 31  2  0
M  END
$$$$
