FWP.pdb
     RDKit          3D

 33 36  0  0  1  0  0  0  0  0999 V2000
   26.7403  -18.4739   -8.2292 N   0  0  0  0  0  0  0  0  0  0  0  0
   26.6597  -19.8276   -8.7655 C   0  0  1  0  0  0  0  0  0  0  0  0
   26.5403  -20.8518   -7.6841 C   0  0  0  0  0  0  0  0  0  0  0  0
   27.4887  -20.6353   -6.5742 C   0  0  0  0  0  0  0  0  0  0  0  0
   28.8421  -20.7438   -6.8193 C   0  0  0  0  0  0  0  0  0  0  0  0
   29.7671  -20.5523   -5.7888 C   0  0  0  0  0  0  0  0  0  0  0  0
   29.3517  -20.2526   -4.5129 C   0  0  0  0  0  0  0  0  0  0  0  0
   27.9992  -20.1474   -4.2837 C   0  0  0  0  0  0  0  0  0  0  0  0
   27.0830  -20.3381   -5.3089 C   0  0  0  0  0  0  0  0  0  0  0  0
   25.4865  -19.9497   -9.6627 C   0  0  0  0  0  0  0  0  0  0  0  0
   24.3484  -19.6954   -9.2079 O   0  0  0  0  0  0  0  0  0  0  0  0
   25.5956  -20.3438  -11.0163 N   0  0  0  0  0  0  0  0  0  0  0  0
   24.5353  -20.0492  -11.9205 C   0  0  1  0  0  0  0  0  0  0  0  0
   25.0479  -19.4574  -13.2290 C   0  0  0  0  0  0  0  0  0  0  0  0
   26.4956  -19.7168  -13.4392 C   0  0  0  0  0  0  0  0  0  0  0  0
   27.1753  -20.8267  -12.9067 C   0  0  0  0  0  0  0  0  0  0  0  0
   28.4498  -20.7847  -13.3109 N   0  0  0  0  0  0  0  0  0  0  0  0
   28.6086  -19.6970  -14.0750 C   0  0  0  0  0  0  0  0  0  0  0  0
   29.6967  -19.1462  -14.7496 C   0  0  0  0  0  0  0  0  0  0  0  0
   29.5773  -17.9802  -15.4725 C   0  0  0  0  0  0  0  0  0  0  0  0
   28.3753  -17.3153  -15.5539 C   0  0  0  0  0  0  0  0  0  0  0  0
   27.2992  -17.8572  -14.8890 C   0  0  0  0  0  0  0  0  0  0  0  0
   27.4069  -19.0144  -14.1700 C   0  0  0  0  0  0  0  0  0  0  0  0
   23.6861  -21.2203  -12.2254 C   0  0  0  0  0  0  0  0  0  0  0  0
   24.1809  -22.3452  -11.9740 O   0  0  0  0  0  0  0  0  0  0  0  0
   22.3783  -21.1668  -12.7684 N   0  0  0  0  0  0  0  0  0  0  0  0
   21.5968  -20.0575  -13.2154 C   0  0  0  0  0  0  0  0  0  0  0  0
   20.1896  -20.4188  -12.7859 C   0  0  0  0  0  0  0  0  0  0  0  0
   20.2149  -21.8821  -12.4153 C   0  0  0  0  0  0  0  0  0  0  0  0
   21.5522  -22.3517  -12.9527 C   0  0  1  0  0  0  0  0  0  0  0  0
   21.4257  -22.7063  -14.3824 C   0  0  0  0  0  0  0  0  0  0  0  0
   20.8483  -23.8854  -14.8183 O   0  0  0  0  0  0  0  0  0  0  0  0
   21.8591  -21.9076  -15.2413 O   0  0  0  0  0  0  0  0  0  0  0  0
  2  3  1  0
  2  1  1  1
  3  4  1  0
  4  9  2  0
  5  6  2  0
  5  4  1  0
  6  7  1  0
  7  8  2  0
  9  8  1  0
 10  2  1  0
 10 11  2  0
 12 10  1  0
 13 12  1  0
 13 14  1  6
 15 14  1  0
 15 23  1  0
 16 15  2  0
 17 16  1  0
 17 18  1  0
 18 19  1  0
 18 23  2  0
 19 20  2  0
 20 21  1  0
 22 21  2  0
 23 22  1  0
 24 13  1  0
 24 26  1  0
 25 24  2  0
 26 30  1  0
 27 26  1  0
 27 28  1  0
 28 29  1  0
 30 29  1  0
 31 32  1  0
 30 31  1  6
 33 31  2  0
M  END
$$$$
