FWP.pdb
     RDKit          3D

 33 36  0  0  1  0  0  0  0  0999 V2000
   21.4292  -16.0678  -17.1235 N   0  0  0  0  0  0  0  0  0  0  0  0
   22.1528  -17.2914  -17.4484 C   0  0  1  0  0  0  0  0  0  0  0  0
   22.4566  -17.3912  -18.9080 C   0  0  0  0  0  0  0  0  0  0  0  0
   21.2538  -17.6021  -19.7368 C   0  0  0  0  0  0  0  0  0  0  0  0
   20.8351  -16.5920  -20.5782 C   0  0  0  0  0  0  0  0  0  0  0  0
   19.6957  -16.7562  -21.3713 C   0  0  0  0  0  0  0  0  0  0  0  0
   18.9690  -17.9226  -21.3316 C   0  0  0  0  0  0  0  0  0  0  0  0
   19.3987  -18.9210  -20.4879 C   0  0  0  0  0  0  0  0  0  0  0  0
   20.5304  -18.7552  -19.7016 C   0  0  0  0  0  0  0  0  0  0  0  0
   23.4287  -17.3422  -16.6962 C   0  0  0  0  0  0  0  0  0  0  0  0
   24.3213  -16.5060  -16.9625 O   0  0  0  0  0  0  0  0  0  0  0  0
   23.6848  -18.2987  -15.6868 N   0  0  0  0  0  0  0  0  0  0  0  0
   24.9812  -18.3709  -15.1013 C   0  0  1  0  0  0  0  0  0  0  0  0
   24.9587  -18.0197  -13.6177 C   0  0  0  0  0  0  0  0  0  0  0  0
   24.2719  -19.0537  -12.8013 C   0  0  0  0  0  0  0  0  0  0  0  0
   23.1155  -19.7367  -13.2181 C   0  0  0  0  0  0  0  0  0  0  0  0
   22.7752  -20.6215  -12.2743 N   0  0  0  0  0  0  0  0  0  0  0  0
   23.6636  -20.5290  -11.2772 C   0  0  0  0  0  0  0  0  0  0  0  0
   23.8081  -21.1818  -10.0543 C   0  0  0  0  0  0  0  0  0  0  0  0
   24.8379  -20.8732   -9.1935 C   0  0  0  0  0  0  0  0  0  0  0  0
   25.7632  -19.9056   -9.5115 C   0  0  0  0  0  0  0  0  0  0  0  0
   25.6230  -19.2598  -10.7186 C   0  0  0  0  0  0  0  0  0  0  0  0
   24.6056  -19.5595  -11.5803 C   0  0  0  0  0  0  0  0  0  0  0  0
   25.6252  -19.6909  -15.2708 C   0  0  0  0  0  0  0  0  0  0  0  0
   24.9329  -20.5794  -15.8230 O   0  0  0  0  0  0  0  0  0  0  0  0
   26.9425  -20.0197  -14.8649 N   0  0  0  0  0  0  0  0  0  0  0  0
   27.9022  -19.2743  -14.1136 C   0  0  0  0  0  0  0  0  0  0  0  0
   29.2206  -19.6307  -14.7694 C   0  0  0  0  0  0  0  0  0  0  0  0
   28.9544  -20.8298  -15.6473 C   0  0  0  0  0  0  0  0  0  0  0  0
   27.5787  -21.2851  -15.2028 C   0  0  1  0  0  0  0  0  0  0  0  0
   27.6954  -22.1650  -14.0204 C   0  0  0  0  0  0  0  0  0  0  0  0
   28.0779  -23.4919  -14.1030 O   0  0  0  0  0  0  0  0  0  0  0  0
   27.4374  -21.6935  -12.8914 O   0  0  0  0  0  0  0  0  0  0  0  0
  2  3  1  0
  2  1  1  6
  3  4  1  0
  4  9  2  0
  5  6  2  0
  5  4  1  0
  6  7  1  0
  7  8  2  0
  9  8  1  0
 10  2  1  0
 10 11  2  0
 12 10  1  0
 13 12  1  0
 13 14  1  1
 15 14  1  0
 15 23  1  0
 16 15  2  0
 17 16  1  0
 17 18  1  0
 18 19  1  0
 18 23  2  0
 19 20  2  0
 20 21  1  0
 22 21  2  0
 23 22  1  0
 24 13  1  0
 24 26  1  0
 25 24  2  0
 26 30  1  0
 27 26  1  0
 27 28  1  0
 28 29  1  0
 30 29  1  0
 31 32  1  0
 30 31  1  1
 33 31  2  0
M  END
$$$$
