FWP.pdb
     RDKit          3D

 33 36  0  0  1  0  0  0  0  0999 V2000
   23.8538  -19.4583  -13.5577 N   0  0  0  0  0  0  0  0  0  0  0  0
   23.8367  -20.4203  -12.4619 C   0  0  1  0  0  0  0  0  0  0  0  0
   23.8377  -21.8306  -12.9553 C   0  0  0  0  0  0  0  0  0  0  0  0
   22.5619  -22.2254  -13.5833 C   0  0  0  0  0  0  0  0  0  0  0  0
   22.4873  -22.2988  -14.9591 C   0  0  0  0  0  0  0  0  0  0  0  0
   21.2921  -22.6623  -15.5862 C   0  0  0  0  0  0  0  0  0  0  0  0
   20.1680  -22.9539  -14.8503 C   0  0  0  0  0  0  0  0  0  0  0  0
   20.2575  -22.8767  -13.4795 C   0  0  0  0  0  0  0  0  0  0  0  0
   21.4457  -22.5155  -12.8594 C   0  0  0  0  0  0  0  0  0  0  0  0
   25.0216  -20.2230  -11.5940 C   0  0  0  0  0  0  0  0  0  0  0  0
   26.0744  -19.7740  -12.1010 O   0  0  0  0  0  0  0  0  0  0  0  0
   25.0167  -20.5219  -10.2120 N   0  0  0  0  0  0  0  0  0  0  0  0
   26.1704  -20.2344   -9.4278 C   0  0  1  0  0  0  0  0  0  0  0  0
   25.8173  -19.9658   -7.9689 C   0  0  0  0  0  0  0  0  0  0  0  0
   26.9622  -19.4099   -7.2023 C   0  0  0  0  0  0  0  0  0  0  0  0
   27.5125  -18.1368   -7.4340 C   0  0  0  0  0  0  0  0  0  0  0  0
   28.4987  -17.9283   -6.5545 N   0  0  0  0  0  0  0  0  0  0  0  0
   28.5989  -19.0131   -5.7765 C   0  0  0  0  0  0  0  0  0  0  0  0
   29.4340  -19.3626   -4.7168 C   0  0  0  0  0  0  0  0  0  0  0  0
   29.3212  -20.5818   -4.0863 C   0  0  0  0  0  0  0  0  0  0  0  0
   28.3770  -21.5011   -4.4824 C   0  0  0  0  0  0  0  0  0  0  0  0
   27.5509  -21.1583   -5.5282 C   0  0  0  0  0  0  0  0  0  0  0  0
   27.6539  -19.9507   -6.1596 C   0  0  0  0  0  0  0  0  0  0  0  0
   27.1944  -21.2992   -9.4840 C   0  0  0  0  0  0  0  0  0  0  0  0
   26.7692  -22.4793   -9.4717 O   0  0  0  0  0  0  0  0  0  0  0  0
   28.5941  -21.0892   -9.5516 N   0  0  0  0  0  0  0  0  0  0  0  0
   29.3641  -19.8887   -9.4664 C   0  0  0  0  0  0  0  0  0  0  0  0
   30.4841  -20.1141  -10.4613 C   0  0  0  0  0  0  0  0  0  0  0  0
   30.4647  -21.5840  -10.8057 C   0  0  0  0  0  0  0  0  0  0  0  0
   29.5450  -22.1731   -9.7547 C   0  0  1  0  0  0  0  0  0  0  0  0
   30.3073  -22.4626   -8.5215 C   0  0  0  0  0  0  0  0  0  0  0  0
   30.1990  -21.7007   -7.3720 O   0  0  0  0  0  0  0  0  0  0  0  0
   31.0876  -23.4397   -8.5116 O   0  0  0  0  0  0  0  0  0  0  0  0
  2  3  1  0
  2  1  1  6
  3  4  1  0
  4  9  2  0
  5  6  2  0
  5  4  1  0
  6  7  1  0
  7  8  2  0
  9  8  1  0
 10  2  1  0
 10 11  2  0
 12 10  1  0
 13 12  1  0
 13 14  1  1
 15 14  1  0
 15 23  1  0
 16 15  2  0
 17 16  1  0
 17 18  1  0
 18 19  1  0
 18 23  2  0
 19 20  2  0
 20 21  1  0
 22 21  2  0
 23 22  1  0
 24 13  1  0
 24 26  1  0
 25 24  2  0
 26 30  1  0
 27 26  1  0
 27 28  1  0
 28 29  1  0
 30 29  1  0
 31 32  1  0
 30 31  1  1
 33 31  2  0
M  END
$$$$
