FWP.pdb
     RDKit          3D

 33 36  0  0  1  0  0  0  0  0999 V2000
   17.1709  -19.4409    2.4456 N   0  0  0  0  0  0  0  0  0  0  0  0
   16.6951  -19.2970    3.8165 C   0  0  1  0  0  0  0  0  0  0  0  0
   16.3946  -20.6182    4.4462 C   0  0  0  0  0  0  0  0  0  0  0  0
   15.3568  -21.3807    3.7253 C   0  0  0  0  0  0  0  0  0  0  0  0
   14.0318  -21.0373    3.8989 C   0  0  0  0  0  0  0  0  0  0  0  0
   13.0235  -21.7437    3.2369 C   0  0  0  0  0  0  0  0  0  0  0  0
   13.3270  -22.7924    2.4012 C   0  0  0  0  0  0  0  0  0  0  0  0
   14.6525  -23.1232    2.2378 C   0  0  0  0  0  0  0  0  0  0  0  0
   15.6517  -22.4199    2.8964 C   0  0  0  0  0  0  0  0  0  0  0  0
   17.7150  -18.6035    4.6381 C   0  0  0  0  0  0  0  0  0  0  0  0
   18.9263  -18.8067    4.3966 O   0  0  0  0  0  0  0  0  0  0  0  0
   17.3794  -17.7190    5.6890 N   0  0  0  0  0  0  0  0  0  0  0  0
   18.4163  -17.1217    6.4615 C   0  0  1  0  0  0  0  0  0  0  0  0
   17.9776  -15.7996    7.0819 C   0  0  0  0  0  0  0  0  0  0  0  0
   18.1026  -14.6610    6.1359 C   0  0  0  0  0  0  0  0  0  0  0  0
   17.1811  -14.3956    5.1073 C   0  0  0  0  0  0  0  0  0  0  0  0
   17.5613  -13.2851    4.4656 N   0  0  0  0  0  0  0  0  0  0  0  0
   18.6834  -12.8354    5.0407 C   0  0  0  0  0  0  0  0  0  0  0  0
   19.5188  -11.7466    4.7978 C   0  0  0  0  0  0  0  0  0  0  0  0
   20.6443  -11.5219    5.5589 C   0  0  0  0  0  0  0  0  0  0  0  0
   20.9852  -12.3679    6.5892 C   0  0  0  0  0  0  0  0  0  0  0  0
   20.1617  -13.4436    6.8314 C   0  0  0  0  0  0  0  0  0  0  0  0
   19.0420  -13.6746    6.0829 C   0  0  0  0  0  0  0  0  0  0  0  0
   18.9302  -18.0045    7.5301 C   0  0  0  0  0  0  0  0  0  0  0  0
   18.2122  -18.9883    7.8305 O   0  0  0  0  0  0  0  0  0  0  0  0
   20.1518  -17.8260    8.2258 N   0  0  0  0  0  0  0  0  0  0  0  0
   21.1652  -16.8277    8.0934 C   0  0  0  0  0  0  0  0  0  0  0  0
   22.4518  -17.5967    8.3138 C   0  0  0  0  0  0  0  0  0  0  0  0
   22.0600  -18.9337    8.8955 C   0  0  0  0  0  0  0  0  0  0  0  0
   20.6046  -18.7347    9.2695 C   0  0  1  0  0  0  0  0  0  0  0  0
   20.5074  -18.1135   10.6076 C   0  0  0  0  0  0  0  0  0  0  0  0
   20.6650  -18.8261   11.7828 O   0  0  0  0  0  0  0  0  0  0  0  0
   20.2718  -16.8880   10.6866 O   0  0  0  0  0  0  0  0  0  0  0  0
  2  3  1  0
  2  1  1  6
  3  4  1  0
  4  9  2  0
  5  6  2  0
  5  4  1  0
  6  7  1  0
  7  8  2  0
  9  8  1  0
 10  2  1  0
 10 11  2  0
 12 10  1  0
 13 12  1  0
 13 14  1  1
 15 14  1  0
 15 23  1  0
 16 15  2  0
 17 16  1  0
 17 18  1  0
 18 19  1  0
 18 23  2  0
 19 20  2  0
 20 21  1  0
 22 21  2  0
 23 22  1  0
 24 13  1  0
 24 26  1  0
 25 24  2  0
 26 30  1  0
 27 26  1  0
 27 28  1  0
 28 29  1  0
 30 29  1  0
 31 32  1  0
 30 31  1  1
 33 31  2  0
M  END
$$$$
