RWW.pdb
     RDKit          3D

 40 43  0  0  1  0  0  0  0  0999 V2000
    6.6236  -16.9658   16.1371 N   0  0  0  0  0  0  0  0  0  0  0  0
    7.3201  -16.9406   14.9003 C   0  0  0  0  0  0  0  0  0  0  0  0
    6.9845  -16.0861   14.0006 N   0  0  0  0  0  0  0  0  0  0  0  0
    8.3886  -17.8357   14.6138 N   0  0  0  0  0  0  0  0  0  0  0  0
    8.8916  -18.7619   15.5920 C   0  0  0  0  0  0  0  0  0  0  0  0
   10.2415  -18.3085   16.0922 C   0  0  0  0  0  0  0  0  0  0  0  0
   10.1402  -17.3471   17.2600 C   0  0  0  0  0  0  0  0  0  0  0  0
   10.1270  -18.1750   18.5267 C   0  0  2  0  0  0  0  0  0  0  0  0
    9.0748  -19.1677   18.5352 N   0  0  0  0  0  0  0  0  0  0  0  0
   10.0127  -17.3298   19.7419 C   0  0  0  0  0  0  0  0  0  0  0  0
   10.8055  -16.3736   19.9503 O   0  0  0  0  0  0  0  0  0  0  0  0
    7.4057  -16.0140   13.0700 N   0  0  0  0  0  0  0  0  0  0  0  0
    9.0035  -17.5798   20.7007 C   0  0  1  0  0  0  0  0  0  0  0  0
    8.8349  -16.8465   21.9329 C   0  0  0  0  0  0  0  0  0  0  0  0
    7.4399  -16.9246   22.4474 C   0  0  0  0  0  0  0  0  0  0  0  0
    7.1710  -16.0855   23.6291 C   0  0  0  0  0  0  0  0  0  0  0  0
    6.7028  -16.5562   24.8614 N   0  0  0  0  0  0  0  0  0  0  0  0
    6.5547  -15.5144   25.6934 C   0  0  0  0  0  0  0  0  0  0  0  0
    6.9026  -14.3544   25.0802 C   0  0  0  0  0  0  0  0  0  0  0  0
    6.9232  -13.0566   25.5275 C   0  0  0  0  0  0  0  0  0  0  0  0
    7.3382  -12.0594   24.6838 C   0  0  0  0  0  0  0  0  0  0  0  0
    7.7244  -12.4087   23.3987 C   0  0  0  0  0  0  0  0  0  0  0  0
    7.7016  -13.7093   22.9559 C   0  0  0  0  0  0  0  0  0  0  0  0
    7.2860  -14.7227   23.7924 C   0  0  0  0  0  0  0  0  0  0  0  0
    9.8826  -17.2124   22.9085 O   0  0  0  0  0  0  0  0  0  0  0  0
   10.0366  -18.4378   23.1777 N   0  0  0  0  0  0  0  0  0  0  0  0
   10.7305  -16.3121   23.5665 C   0  0  2  0  0  0  0  0  0  0  0  0
   11.7674  -16.6926   24.5260 C   0  0  0  0  0  0  0  0  0  0  0  0
   11.9738  -15.5750   25.5062 C   0  0  0  0  0  0  0  0  0  0  0  0
   11.0605  -15.5623   26.6438 C   0  0  0  0  0  0  0  0  0  0  0  0
   10.3931  -16.6808   27.1121 N   0  0  0  0  0  0  0  0  0  0  0  0
    9.6618  -16.3300   28.1808 C   0  0  0  0  0  0  0  0  0  0  0  0
    9.8228  -15.0257   28.4317 C   0  0  0  0  0  0  0  0  0  0  0  0
    9.2691  -14.2346   29.4169 C   0  0  0  0  0  0  0  0  0  0  0  0
    9.5935  -12.8970   29.4574 C   0  0  0  0  0  0  0  0  0  0  0  0
   10.4560  -12.3838   28.5206 C   0  0  0  0  0  0  0  0  0  0  0  0
   10.9928  -13.1906   27.5519 C   0  0  0  0  0  0  0  0  0  0  0  0
   10.6986  -14.5440   27.4689 C   0  0  0  0  0  0  0  0  0  0  0  0
   11.6351  -18.0290   25.0672 O   0  0  0  0  0  0  0  0  0  0  0  0
   10.4766  -18.8211   24.9483 O   0  0  0  0  0  0  0  0  0  0  0  0
  2  3  2  0
  2  1  1  0
  4  2  1  0
  5  4  1  0
  6  5  1  0
  7  6  1  0
  8  7  1  0
  8  9  1  6
 10 12  1  0
 10  8  1  0
 11 10  2  0
 13 14  1  6
 13 24  1  0
 13 12  1  0
 14 15  1  0
 15 16  2  0
 15 23  1  0
 16 17  1  0
 17 18  1  0
 18 19  2  0
 20 19  1  0
 21 20  2  0
 22 23  2  0
 22 21  1  0
 23 18  1  0
 24 26  1  0
 25 24  2  0
 26 27  1  0
 27 38  1  0
 27 28  1  6
 29 28  1  0
 29 30  2  0
 31 30  1  0
 32 31  1  0
 33 32  2  0
 34 33  1  0
 35 34  2  0
 35 36  1  0
 36 37  2  0
 37 32  1  0
 37 29  1  0
 38 40  2  0
 38 39  1  0
M  END
$$$$
