RWW.pdb
     RDKit          3D

 40 43  0  0  1  0  0  0  0  0999 V2000
   13.1235  -18.1429   14.4611 N   0  0  0  0  0  0  0  0  0  0  0  0
   13.2215  -16.9533   15.2295 C   0  0  0  0  0  0  0  0  0  0  0  0
   13.1380  -15.8117   14.6448 N   0  0  0  0  0  0  0  0  0  0  0  0
   13.4111  -16.9753   16.6397 N   0  0  0  0  0  0  0  0  0  0  0  0
   13.5721  -18.2040   17.3692 C   0  0  0  0  0  0  0  0  0  0  0  0
   12.3533  -18.4680   18.2193 C   0  0  0  0  0  0  0  0  0  0  0  0
   12.2316  -17.5041   19.3831 C   0  0  0  0  0  0  0  0  0  0  0  0
   11.0510  -17.9510   20.2179 C   0  0  2  0  0  0  0  0  0  0  0  0
    9.9846  -18.5170   19.4209 N   0  0  0  0  0  0  0  0  0  0  0  0
   10.5082  -16.8468   21.0488 C   0  0  0  0  0  0  0  0  0  0  0  0
   10.9952  -15.6865   20.9935 O   0  0  0  0  0  0  0  0  0  0  0  0
   13.1270  -14.9051   15.1207 N   0  0  0  0  0  0  0  0  0  0  0  0
    9.4237  -17.0731   21.9279 C   0  0  1  0  0  0  0  0  0  0  0  0
    8.8653  -16.0864   22.8220 C   0  0  0  0  0  0  0  0  0  0  0  0
    7.5397  -15.5927   22.3573 C   0  0  0  0  0  0  0  0  0  0  0  0
    7.5031  -15.1579   20.9494 C   0  0  0  0  0  0  0  0  0  0  0  0
    7.0702  -15.9435   19.8748 N   0  0  0  0  0  0  0  0  0  0  0  0
    7.1936  -15.2332   18.7435 C   0  0  0  0  0  0  0  0  0  0  0  0
    7.6915  -13.9971   19.0022 C   0  0  0  0  0  0  0  0  0  0  0  0
    7.9762  -12.9374   18.1772 C   0  0  0  0  0  0  0  0  0  0  0  0
    8.4703  -11.7779   18.7156 C   0  0  0  0  0  0  0  0  0  0  0  0
    8.6636  -11.7244   20.0876 C   0  0  0  0  0  0  0  0  0  0  0  0
    8.3772  -12.7882   20.9088 C   0  0  0  0  0  0  0  0  0  0  0  0
    7.8805  -13.9610   20.3820 C   0  0  0  0  0  0  0  0  0  0  0  0
    8.8994  -16.5659   24.2193 O   0  0  0  0  0  0  0  0  0  0  0  0
    7.7957  -16.7518   24.8067 N   0  0  0  0  0  0  0  0  0  0  0  0
   10.0588  -16.8374   24.9572 C   0  0  2  0  0  0  0  0  0  0  0  0
   10.3189  -16.3482   26.3114 C   0  0  0  0  0  0  0  0  0  0  0  0
    9.1007  -16.5625   27.1613 C   0  0  0  0  0  0  0  0  0  0  0  0
    7.9870  -15.6568   26.9003 C   0  0  0  0  0  0  0  0  0  0  0  0
    6.7282  -16.0734   26.5034 N   0  0  0  0  0  0  0  0  0  0  0  0
    5.9373  -14.9967   26.3796 C   0  0  0  0  0  0  0  0  0  0  0  0
    6.6278  -13.8905   26.6791 C   0  0  0  0  0  0  0  0  0  0  0  0
    6.2315  -12.5691   26.6845 C   0  0  0  0  0  0  0  0  0  0  0  0
    7.1481  -11.6007   27.0286 C   0  0  0  0  0  0  0  0  0  0  0  0
    8.4290  -11.9706   27.3560 C   0  0  0  0  0  0  0  0  0  0  0  0
    8.7979  -13.2902   27.3430 C   0  0  0  0  0  0  0  0  0  0  0  0
    7.9120  -14.3032   27.0049 C   0  0  0  0  0  0  0  0  0  0  0  0
   11.5926  -16.7508   26.8699 O   0  0  0  0  0  0  0  0  0  0  0  0
   12.0893  -16.3078   28.1112 O   0  0  0  0  0  0  0  0  0  0  0  0
  2  3  2  0
  2  1  1  0
  4  2  1  0
  5  4  1  0
  6  5  1  0
  7  6  1  0
  8  7  1  0
  8  9  1  6
 10 12  1  0
 10  8  1  0
 11 10  2  0
 13 14  1  1
 13 24  1  0
 13 12  1  0
 14 15  1  0
 15 16  2  0
 15 23  1  0
 16 17  1  0
 17 18  1  0
 18 19  2  0
 20 19  1  0
 21 20  2  0
 22 23  2  0
 22 21  1  0
 23 18  1  0
 24 26  1  0
 25 24  2  0
 26 27  1  0
 27 38  1  0
 27 28  1  6
 29 28  1  0
 29 30  2  0
 31 30  1  0
 32 31  1  0
 33 32  2  0
 34 33  1  0
 35 34  2  0
 35 36  1  0
 36 37  2  0
 37 32  1  0
 37 29  1  0
 38 40  2  0
 38 39  1  0
M  END
$$$$
