RWW.pdb
     RDKit          3D

 40 43  0  0  1  0  0  0  0  0999 V2000
    9.4884  -15.8704   13.4202 N   0  0  0  0  0  0  0  0  0  0  0  0
   10.2697  -17.0108   13.7436 C   0  0  0  0  0  0  0  0  0  0  0  0
   10.8115  -17.6966   12.8012 N   0  0  0  0  0  0  0  0  0  0  0  0
   10.4791  -17.4297   15.0873 N   0  0  0  0  0  0  0  0  0  0  0  0
    9.9701  -16.6850   16.2072 C   0  0  0  0  0  0  0  0  0  0  0  0
   10.2602  -17.4177   17.4945 C   0  0  0  0  0  0  0  0  0  0  0  0
   11.1602  -16.6302   18.4262 C   0  0  0  0  0  0  0  0  0  0  0  0
   11.2283  -17.3871   19.7349 C   0  0  2  0  0  0  0  0  0  0  0  0
   10.4312  -18.5943   19.7251 N   0  0  0  0  0  0  0  0  0  0  0  0
   10.8238  -16.5425   20.8870 C   0  0  0  0  0  0  0  0  0  0  0  0
   11.3469  -15.4143   21.0862 O   0  0  0  0  0  0  0  0  0  0  0  0
   11.3748  -18.5411   12.9357 N   0  0  0  0  0  0  0  0  0  0  0  0
    9.8343  -16.9879   21.7941 C   0  0  1  0  0  0  0  0  0  0  0  0
    9.4291  -16.2820   22.9866 C   0  0  0  0  0  0  0  0  0  0  0  0
    7.9549  -16.0831   23.0488 C   0  0  0  0  0  0  0  0  0  0  0  0
    7.3803  -15.3687   21.8945 C   0  0  0  0  0  0  0  0  0  0  0  0
    6.4385  -15.9003   21.0057 N   0  0  0  0  0  0  0  0  0  0  0  0
    6.1592  -14.9794   20.0712 C   0  0  0  0  0  0  0  0  0  0  0  0
    6.8702  -13.8432   20.2861 C   0  0  0  0  0  0  0  0  0  0  0  0
    6.9090  -12.6496   19.6089 C   0  0  0  0  0  0  0  0  0  0  0  0
    7.7255  -11.6453   20.0597 C   0  0  0  0  0  0  0  0  0  0  0  0
    8.4865  -11.8809   21.1946 C   0  0  0  0  0  0  0  0  0  0  0  0
    8.4441  -13.0777   21.8683 C   0  0  0  0  0  0  0  0  0  0  0  0
    7.6286  -14.0972   21.4268 C   0  0  0  0  0  0  0  0  0  0  0  0
   10.0285  -16.8969   24.1892 O   0  0  0  0  0  0  0  0  0  0  0  0
    9.8184  -18.1270   24.3903 N   0  0  0  0  0  0  0  0  0  0  0  0
   10.8189  -16.2306   25.1345 C   0  0  2  0  0  0  0  0  0  0  0  0
   10.6915  -16.3831   26.5841 C   0  0  0  0  0  0  0  0  0  0  0  0
   10.1855  -15.1008   27.1776 C   0  0  0  0  0  0  0  0  0  0  0  0
    8.7857  -14.7932   26.9046 C   0  0  0  0  0  0  0  0  0  0  0  0
    7.8215  -15.7498   26.6381 N   0  0  0  0  0  0  0  0  0  0  0  0
    6.6420  -15.1351   26.4622 C   0  0  0  0  0  0  0  0  0  0  0  0
    6.7946  -13.8132   26.6023 C   0  0  0  0  0  0  0  0  0  0  0  0
    5.8683  -12.7957   26.5034 C   0  0  0  0  0  0  0  0  0  0  0  0
    6.2851  -11.4960   26.6859 C   0  0  0  0  0  0  0  0  0  0  0  0
    7.6065  -11.2440   26.9602 C   0  0  0  0  0  0  0  0  0  0  0  0
    8.5072  -12.2724   27.0533 C   0  0  0  0  0  0  0  0  0  0  0  0
    8.1374  -13.5983   26.8789 C   0  0  0  0  0  0  0  0  0  0  0  0
   10.0490  -17.6077   27.0132 O   0  0  0  0  0  0  0  0  0  0  0  0
   10.1133  -18.1193   28.3238 O   0  0  0  0  0  0  0  0  0  0  0  0
  2  3  2  0
  2  1  1  0
  4  2  1  0
  5  4  1  0
  6  5  1  0
  7  6  1  0
  8  7  1  0
  8  9  1  6
 10 12  1  0
 10  8  1  0
 11 10  2  0
 13 14  1  1
 13 24  1  0
 13 12  1  0
 14 15  1  0
 15 16  2  0
 15 23  1  0
 16 17  1  0
 17 18  1  0
 18 19  2  0
 20 19  1  0
 21 20  2  0
 22 23  2  0
 22 21  1  0
 23 18  1  0
 24 26  1  0
 25 24  2  0
 26 27  1  0
 27 38  1  0
 27 28  1  6
 29 28  1  0
 29 30  2  0
 31 30  1  0
 32 31  1  0
 33 32  2  0
 34 33  1  0
 35 34  2  0
 35 36  1  0
 36 37  2  0
 37 32  1  0
 37 29  1  0
 38 40  2  0
 38 39  1  0
M  END
$$$$
