RWW.pdb
     RDKit          3D

 40 43  0  0  1  0  0  0  0  0999 V2000
    6.7967  -14.2545   15.4630 N   0  0  0  0  0  0  0  0  0  0  0  0
    8.0639  -13.8160   15.9293 C   0  0  0  0  0  0  0  0  0  0  0  0
    8.2488  -12.5703   16.1866 N   0  0  0  0  0  0  0  0  0  0  0  0
    9.1512  -14.7128   16.1254 N   0  0  0  0  0  0  0  0  0  0  0  0
    9.0707  -16.1014   15.7604 C   0  0  0  0  0  0  0  0  0  0  0  0
    9.0492  -16.9644   16.9984 C   0  0  0  0  0  0  0  0  0  0  0  0
   10.2428  -16.7227   17.9012 C   0  0  0  0  0  0  0  0  0  0  0  0
   10.1183  -17.6674   19.0769 C   0  0  2  0  0  0  0  0  0  0  0  0
    8.9770  -18.5496   18.9673 N   0  0  0  0  0  0  0  0  0  0  0  0
   10.0528  -16.9402   20.3696 C   0  0  0  0  0  0  0  0  0  0  0  0
   10.9344  -16.1010   20.6932 O   0  0  0  0  0  0  0  0  0  0  0  0
    9.1221  -12.1635   16.5337 N   0  0  0  0  0  0  0  0  0  0  0  0
    8.9912  -17.1740   21.2744 C   0  0  1  0  0  0  0  0  0  0  0  0
    8.9084  -16.6297   22.6091 C   0  0  0  0  0  0  0  0  0  0  0  0
    7.6384  -17.0028   23.2908 C   0  0  0  0  0  0  0  0  0  0  0  0
    7.0482  -15.9369   24.1204 C   0  0  0  0  0  0  0  0  0  0  0  0
    6.1247  -16.1381   25.1530 N   0  0  0  0  0  0  0  0  0  0  0  0
    5.7923  -14.9470   25.6729 C   0  0  0  0  0  0  0  0  0  0  0  0
    6.4504  -13.9434   25.0386 C   0  0  0  0  0  0  0  0  0  0  0  0
    6.4379  -12.5833   25.2254 C   0  0  0  0  0  0  0  0  0  0  0  0
    7.2249  -11.7872   24.4346 C   0  0  0  0  0  0  0  0  0  0  0  0
    8.0097  -12.3974   23.4680 C   0  0  0  0  0  0  0  0  0  0  0  0
    8.0181  -13.7592   23.2850 C   0  0  0  0  0  0  0  0  0  0  0  0
    7.2317  -14.5727   24.0719 C   0  0  0  0  0  0  0  0  0  0  0  0
   10.1383  -16.9250   23.3731 O   0  0  0  0  0  0  0  0  0  0  0  0
   10.7987  -17.9545   23.0540 N   0  0  0  0  0  0  0  0  0  0  0  0
   10.6434  -16.1556   24.4292 C   0  0  2  0  0  0  0  0  0  0  0  0
   11.8975  -16.4263   25.1326 C   0  0  0  0  0  0  0  0  0  0  0  0
   12.0321  -15.4833   26.2923 C   0  0  0  0  0  0  0  0  0  0  0  0
   11.2216  -15.8077   27.4613 C   0  0  0  0  0  0  0  0  0  0  0  0
   11.4727  -16.8768   28.3037 N   0  0  0  0  0  0  0  0  0  0  0  0
   10.5620  -16.8719   29.2890 C   0  0  0  0  0  0  0  0  0  0  0  0
    9.7234  -15.8422   29.1258 C   0  0  0  0  0  0  0  0  0  0  0  0
    8.6399  -15.4490   29.8837 C   0  0  0  0  0  0  0  0  0  0  0  0
    7.9223  -14.3400   29.4944 C   0  0  0  0  0  0  0  0  0  0  0  0
    8.2996  -13.6550   28.3660 C   0  0  0  0  0  0  0  0  0  0  0  0
    9.3799  -14.0659   27.6300 C   0  0  0  0  0  0  0  0  0  0  0  0
   10.1357  -15.1754   27.9807 C   0  0  0  0  0  0  0  0  0  0  0  0
   12.1629  -17.8268   25.3865 O   0  0  0  0  0  0  0  0  0  0  0  0
   11.1688  -18.8221   25.4556 O   0  0  0  0  0  0  0  0  0  0  0  0
  2  3  2  0
  2  1  1  0
  4  2  1  0
  5  4  1  0
  6  5  1  0
  7  6  1  0
  8  7  1  0
  8  9  1  6
 10 12  1  0
 10  8  1  0
 11 10  2  0
 13 14  1  1
 13 24  1  0
 13 12  1  0
 14 15  1  0
 15 16  2  0
 15 23  1  0
 16 17  1  0
 17 18  1  0
 18 19  2  0
 20 19  1  0
 21 20  2  0
 22 23  2  0
 22 21  1  0
 23 18  1  0
 24 26  1  0
 25 24  2  0
 26 27  1  0
 27 38  1  0
 27 28  1  6
 29 28  1  0
 29 30  2  0
 31 30  1  0
 32 31  1  0
 33 32  2  0
 34 33  1  0
 35 34  2  0
 35 36  1  0
 36 37  2  0
 37 32  1  0
 37 29  1  0
 38 40  2  0
 38 39  1  0
M  END
$$$$
