RWW.pdb
     RDKit          3D

 40 43  0  0  1  0  0  0  0  0999 V2000
   10.2309  -15.4019   12.6278 N   0  0  0  0  0  0  0  0  0  0  0  0
   11.1624  -15.8433   13.6039 C   0  0  0  0  0  0  0  0  0  0  0  0
   12.3385  -15.3258   13.6381 N   0  0  0  0  0  0  0  0  0  0  0  0
   10.8412  -16.8490   14.5580 N   0  0  0  0  0  0  0  0  0  0  0  0
    9.4823  -17.2165   14.8517 C   0  0  0  0  0  0  0  0  0  0  0  0
    9.2200  -17.0987   16.3333 C   0  0  0  0  0  0  0  0  0  0  0  0
   10.3160  -17.7246   17.1733 C   0  0  0  0  0  0  0  0  0  0  0  0
    9.6466  -18.4570   18.3160 C   0  0  2  0  0  0  0  0  0  0  0  0
    8.3059  -18.8933   17.9918 N   0  0  0  0  0  0  0  0  0  0  0  0
    9.6093  -17.6390   19.5544 C   0  0  0  0  0  0  0  0  0  0  0  0
   10.3108  -16.5997   19.6730 O   0  0  0  0  0  0  0  0  0  0  0  0
   13.0672  -15.5627   14.3175 N   0  0  0  0  0  0  0  0  0  0  0  0
    8.7790  -18.0097   20.6377 C   0  0  1  0  0  0  0  0  0  0  0  0
    8.7081  -17.3130   21.9003 C   0  0  0  0  0  0  0  0  0  0  0  0
    7.3124  -16.9374   22.2576 C   0  0  0  0  0  0  0  0  0  0  0  0
    7.1792  -16.1942   23.5236 C   0  0  0  0  0  0  0  0  0  0  0  0
    6.7477  -16.7417   24.7375 N   0  0  0  0  0  0  0  0  0  0  0  0
    6.7303  -15.7734   25.6657 C   0  0  0  0  0  0  0  0  0  0  0  0
    7.1322  -14.5901   25.1358 C   0  0  0  0  0  0  0  0  0  0  0  0
    7.2806  -13.3444   25.6934 C   0  0  0  0  0  0  0  0  0  0  0  0
    7.7231  -12.3062   24.9157 C   0  0  0  0  0  0  0  0  0  0  0  0
    8.0056  -12.5621   23.5825 C   0  0  0  0  0  0  0  0  0  0  0  0
    7.8550  -13.8109   23.0294 C   0  0  0  0  0  0  0  0  0  0  0  0
    7.4102  -14.8644   23.7985 C   0  0  0  0  0  0  0  0  0  0  0  0
    9.4452  -18.0497   22.9479 O   0  0  0  0  0  0  0  0  0  0  0  0
    8.8999  -19.0778   23.4412 N   0  0  0  0  0  0  0  0  0  0  0  0
   10.7089  -17.7070   23.4460 C   0  0  2  0  0  0  0  0  0  0  0  0
   11.0186  -17.4968   24.8604 C   0  0  0  0  0  0  0  0  0  0  0  0
   10.3411  -16.2458   25.3384 C   0  0  0  0  0  0  0  0  0  0  0  0
   10.3445  -16.0441   26.7833 C   0  0  0  0  0  0  0  0  0  0  0  0
   10.7330  -17.0078   27.6977 N   0  0  0  0  0  0  0  0  0  0  0  0
   10.6451  -16.4903   28.9324 C   0  0  0  0  0  0  0  0  0  0  0  0
   10.2139  -15.2256   28.8640 C   0  0  0  0  0  0  0  0  0  0  0  0
    9.9711  -14.3133   29.8698 C   0  0  0  0  0  0  0  0  0  0  0  0
    9.5172  -13.0572   29.5341 C   0  0  0  0  0  0  0  0  0  0  0  0
    9.3172  -12.7437   28.2125 C   0  0  0  0  0  0  0  0  0  0  0  0
    9.5658  -13.6678   27.2318 C   0  0  0  0  0  0  0  0  0  0  0  0
   10.0249  -14.9456   27.5180 C   0  0  0  0  0  0  0  0  0  0  0  0
   10.8927  -18.6748   25.6928 O   0  0  0  0  0  0  0  0  0  0  0  0
    9.8220  -19.5869   25.6186 O   0  0  0  0  0  0  0  0  0  0  0  0
  2  3  2  0
  2  1  1  0
  4  2  1  0
  5  4  1  0
  6  5  1  0
  7  6  1  0
  8  7  1  0
  8  9  1  6
 10 12  1  0
 10  8  1  0
 11 10  2  0
 13 14  1  1
 13 24  1  0
 13 12  1  0
 14 15  1  0
 15 16  2  0
 15 23  1  0
 16 17  1  0
 17 18  1  0
 18 19  2  0
 20 19  1  0
 21 20  2  0
 22 23  2  0
 22 21  1  0
 23 18  1  0
 24 26  1  0
 25 24  2  0
 26 27  1  0
 27 38  1  0
 27 28  1  6
 29 28  1  0
 29 30  2  0
 31 30  1  0
 32 31  1  0
 33 32  2  0
 34 33  1  0
 35 34  2  0
 35 36  1  0
 36 37  2  0
 37 32  1  0
 37 29  1  0
 38 40  2  0
 38 39  1  0
M  END
$$$$
