RWW.pdb
     RDKit          3D

 40 43  0  0  1  0  0  0  0  0999 V2000
    7.7926  -18.8211   15.6737 N   0  0  0  0  0  0  0  0  0  0  0  0
    7.1627  -18.2712   16.8210 C   0  0  0  0  0  0  0  0  0  0  0  0
    6.0981  -18.8218   17.2853 N   0  0  0  0  0  0  0  0  0  0  0  0
    7.6701  -17.1198   17.4855 N   0  0  0  0  0  0  0  0  0  0  0  0
    8.8278  -16.4119   17.0097 C   0  0  0  0  0  0  0  0  0  0  0  0
   10.0840  -17.0316   17.5716 C   0  0  0  0  0  0  0  0  0  0  0  0
   10.6255  -16.2743   18.7682 C   0  0  0  0  0  0  0  0  0  0  0  0
   10.9681  -17.2953   19.8314 C   0  0  2  0  0  0  0  0  0  0  0  0
   10.2741  -18.5509   19.6455 N   0  0  0  0  0  0  0  0  0  0  0  0
   10.6990  -16.7849   21.1993 C   0  0  0  0  0  0  0  0  0  0  0  0
   11.3390  -15.8077   21.6703 O   0  0  0  0  0  0  0  0  0  0  0  0
    5.5707  -18.4921   18.0987 N   0  0  0  0  0  0  0  0  0  0  0  0
    9.7102  -17.3877   22.0113 C   0  0  2  0  0  0  0  0  0  0  0  0
    9.4289  -17.0215   23.3793 C   0  0  0  0  0  0  0  0  0  0  0  0
    7.9695  -16.8707   23.6322 C   0  0  0  0  0  0  0  0  0  0  0  0
    7.4450  -15.5092   23.4220 C   0  0  0  0  0  0  0  0  0  0  0  0
    7.0694  -14.9729   22.1848 N   0  0  0  0  0  0  0  0  0  0  0  0
    6.6601  -13.7088   22.3687 C   0  0  0  0  0  0  0  0  0  0  0  0
    6.7405  -13.3616   23.6785 C   0  0  0  0  0  0  0  0  0  0  0  0
    6.4288  -12.1965   24.3342 C   0  0  0  0  0  0  0  0  0  0  0  0
    6.6000  -12.1206   25.6920 C   0  0  0  0  0  0  0  0  0  0  0  0
    7.0866  -13.2381   26.3531 C   0  0  0  0  0  0  0  0  0  0  0  0
    7.3974  -14.4018   25.6918 C   0  0  0  0  0  0  0  0  0  0  0  0
    7.2313  -14.4930   24.3267 C   0  0  0  0  0  0  0  0  0  0  0  0
   10.1371  -17.9163   24.3180 O   0  0  0  0  0  0  0  0  0  0  0  0
   10.0816  -19.1607   24.1029 N   0  0  0  0  0  0  0  0  0  0  0  0
   10.8740  -17.5030   25.4354 C   0  0  2  0  0  0  0  0  0  0  0  0
   11.6320  -18.3968   26.3113 C   0  0  0  0  0  0  0  0  0  0  0  0
   12.3508  -17.5856   27.3495 C   0  0  0  0  0  0  0  0  0  0  0  0
   11.5127  -17.0477   28.4156 C   0  0  0  0  0  0  0  0  0  0  0  0
   11.2966  -17.6846   29.6253 N   0  0  0  0  0  0  0  0  0  0  0  0
   10.5065  -16.9105   30.3846 C   0  0  0  0  0  0  0  0  0  0  0  0
   10.1955  -15.7914   29.7206 C   0  0  0  0  0  0  0  0  0  0  0  0
    9.4126  -14.7208   30.1000 C   0  0  0  0  0  0  0  0  0  0  0  0
    9.2388  -13.6775   29.2181 C   0  0  0  0  0  0  0  0  0  0  0  0
    9.8452  -13.7270   27.9874 C   0  0  0  0  0  0  0  0  0  0  0  0
   10.6181  -14.8019   27.6343 C   0  0  0  0  0  0  0  0  0  0  0  0
   10.8251  -15.8768   28.4869 C   0  0  0  0  0  0  0  0  0  0  0  0
   10.9035  -19.5606   26.7710 O   0  0  0  0  0  0  0  0  0  0  0  0
    9.5026  -19.6931   26.7116 O   0  0  0  0  0  0  0  0  0  0  0  0
  2  3  2  0
  2  1  1  0
  4  2  1  0
  5  4  1  0
  6  5  1  0
  7  6  1  0
  8  7  1  0
  8  9  1  6
 10 12  1  0
 10  8  1  0
 11 10  2  0
 13 14  1  6
 13 24  1  0
 13 12  1  0
 14 15  1  0
 15 16  2  0
 15 23  1  0
 16 17  1  0
 17 18  1  0
 18 19  2  0
 20 19  1  0
 21 20  2  0
 22 23  2  0
 22 21  1  0
 23 18  1  0
 24 26  1  0
 25 24  2  0
 26 27  1  0
 27 38  1  0
 27 28  1  6
 29 28  1  0
 29 30  2  0
 31 30  1  0
 32 31  1  0
 33 32  2  0
 34 33  1  0
 35 34  2  0
 35 36  1  0
 36 37  2  0
 37 32  1  0
 37 29  1  0
 38 40  2  0
 38 39  1  0
M  END
$$$$
