RWW.pdb
     RDKit          3D

 40 43  0  0  1  0  0  0  0  0999 V2000
    8.6356  -15.9351   15.0517 N   0  0  0  0  0  0  0  0  0  0  0  0
    8.6459  -15.7581   16.4602 C   0  0  0  0  0  0  0  0  0  0  0  0
    8.0972  -14.7147   16.9725 N   0  0  0  0  0  0  0  0  0  0  0  0
    9.2476  -16.7025   17.3384 N   0  0  0  0  0  0  0  0  0  0  0  0
   10.3927  -17.4820   16.9525 C   0  0  0  0  0  0  0  0  0  0  0  0
   10.8224  -18.3744   18.0914 C   0  0  0  0  0  0  0  0  0  0  0  0
   11.8242  -17.7064   19.0125 C   0  0  0  0  0  0  0  0  0  0  0  0
   11.4551  -18.0837   20.4308 C   0  0  2  0  0  0  0  0  0  0  0  0
   10.3335  -18.9953   20.4933 N   0  0  0  0  0  0  0  0  0  0  0  0
   11.1636  -16.8909   21.2652 C   0  0  0  0  0  0  0  0  0  0  0  0
   11.9174  -15.8820   21.2497 O   0  0  0  0  0  0  0  0  0  0  0  0
    8.1395  -14.4519   17.9613 N   0  0  0  0  0  0  0  0  0  0  0  0
   10.0245  -16.8588   22.1029 C   0  0  1  0  0  0  0  0  0  0  0  0
    9.6019  -15.7172   22.8792 C   0  0  0  0  0  0  0  0  0  0  0  0
    8.1434  -15.4520   22.7412 C   0  0  0  0  0  0  0  0  0  0  0  0
    7.7106  -15.0803   21.3820 C   0  0  0  0  0  0  0  0  0  0  0  0
    6.8585  -15.8400   20.5720 N   0  0  0  0  0  0  0  0  0  0  0  0
    6.7000  -15.2076   19.3997 C   0  0  0  0  0  0  0  0  0  0  0  0
    7.4074  -14.0493   19.3772 C   0  0  0  0  0  0  0  0  0  0  0  0
    7.5433  -13.0820   18.4124 C   0  0  0  0  0  0  0  0  0  0  0  0
    8.3275  -11.9862   18.6625 C   0  0  0  0  0  0  0  0  0  0  0  0
    8.9576  -11.9005   19.8947 C   0  0  0  0  0  0  0  0  0  0  0  0
    8.8185  -12.8718   20.8567 C   0  0  0  0  0  0  0  0  0  0  0  0
    8.0339  -13.9797   20.6195 C   0  0  0  0  0  0  0  0  0  0  0  0
   10.0901  -15.8192   24.2702 O   0  0  0  0  0  0  0  0  0  0  0  0
   10.8357  -14.8950   24.7034 N   0  0  0  0  0  0  0  0  0  0  0  0
    9.7948  -16.8593   25.1609 C   0  0  1  0  0  0  0  0  0  0  0  0
   10.1385  -16.8619   26.5831 C   0  0  0  0  0  0  0  0  0  0  0  0
    9.5903  -15.6239   27.2306 C   0  0  0  0  0  0  0  0  0  0  0  0
    8.2728  -15.2041   26.7653 C   0  0  0  0  0  0  0  0  0  0  0  0
    7.3502  -16.0566   26.1841 N   0  0  0  0  0  0  0  0  0  0  0  0
    6.2390  -15.3602   25.9008 C   0  0  0  0  0  0  0  0  0  0  0  0
    6.3965  -14.0846   26.2727 C   0  0  0  0  0  0  0  0  0  0  0  0
    5.5302  -13.0158   26.1729 C   0  0  0  0  0  0  0  0  0  0  0  0
    5.9389  -11.7826   26.6295 C   0  0  0  0  0  0  0  0  0  0  0  0
    7.1933  -11.6459   27.1704 C   0  0  0  0  0  0  0  0  0  0  0  0
    8.0353  -12.7233   27.2584 C   0  0  0  0  0  0  0  0  0  0  0  0
    7.6705  -13.9860   26.8140 C   0  0  0  0  0  0  0  0  0  0  0  0
    9.9082  -18.1194   27.2627 O   0  0  0  0  0  0  0  0  0  0  0  0
    9.3021  -19.2427   26.6673 O   0  0  0  0  0  0  0  0  0  0  0  0
  2  3  2  0
  2  1  1  0
  4  2  1  0
  5  4  1  0
  6  5  1  0
  7  6  1  0
  8  7  1  0
  8  9  1  6
 10 12  1  0
 10  8  1  0
 11 10  2  0
 13 14  1  6
 13 24  1  0
 13 12  1  0
 14 15  1  0
 15 16  2  0
 15 23  1  0
 16 17  1  0
 17 18  1  0
 18 19  2  0
 20 19  1  0
 21 20  2  0
 22 23  2  0
 22 21  1  0
 23 18  1  0
 24 26  1  0
 25 24  2  0
 26 27  1  0
 27 38  1  0
 27 28  1  1
 29 28  1  0
 29 30  2  0
 31 30  1  0
 32 31  1  0
 33 32  2  0
 34 33  1  0
 35 34  2  0
 35 36  1  0
 36 37  2  0
 37 32  1  0
 37 29  1  0
 38 40  2  0
 38 39  1  0
M  END
$$$$
