GFA.pdb
     RDKit          3D

 21 21  0  0  1  0  0  0  0  0999 V2000
   29.3954  -20.0796  -13.9050 N   0  0  0  0  0  0  0  0  0  0  0  0
   28.4813  -19.3396  -13.0605 C   0  0  0  0  0  0  0  0  0  0  0  0
   27.4210  -20.2579  -12.5908 C   0  0  0  0  0  0  0  0  0  0  0  0
   27.3129  -21.4317  -13.0658 O   0  0  0  0  0  0  0  0  0  0  0  0
   26.4697  -19.8986  -11.5967 N   0  0  0  0  0  0  0  0  0  0  0  0
   25.4454  -20.7895  -11.0996 C   0  0  1  0  0  0  0  0  0  0  0  0
   25.2756  -20.6690   -9.6135 C   0  0  0  0  0  0  0  0  0  0  0  0
   26.5358  -20.5818   -8.8667 C   0  0  0  0  0  0  0  0  0  0  0  0
   27.5693  -21.4949   -9.0160 C   0  0  0  0  0  0  0  0  0  0  0  0
   28.7450  -21.3885   -8.2991 C   0  0  0  0  0  0  0  0  0  0  0  0
   28.9513  -20.3666   -7.3965 C   0  0  0  0  0  0  0  0  0  0  0  0
   27.9287  -19.4546   -7.2420 C   0  0  0  0  0  0  0  0  0  0  0  0
   26.7452  -19.5612   -7.9633 C   0  0  0  0  0  0  0  0  0  0  0  0
   24.2198  -20.7053  -11.8890 C   0  0  0  0  0  0  0  0  0  0  0  0
   23.7381  -19.5643  -12.1104 O   0  0  0  0  0  0  0  0  0  0  0  0
   22.1466  -23.0098  -14.0656 C   0  0  0  0  0  0  0  0  0  0  0  0
   22.3718  -21.7171  -13.2741 C   0  0  2  0  0  0  0  0  0  0  0  0
   23.5244  -21.8109  -12.4305 N   0  0  0  0  0  0  0  0  0  0  0  0
   21.1179  -21.4211  -12.5556 C   0  0  0  0  0  0  0  0  0  0  0  0
   21.0892  -21.4194  -11.3057 O   0  0  0  0  0  0  0  0  0  0  0  0
   19.9567  -21.1413  -13.2477 O   0  0  0  0  0  0  0  0  0  0  0  0
  1  2  1  0
  2  3  1  0
  3  4  2  0
  5  6  1  0
  5  3  1  0
  6 14  1  0
  6  7  1  1
  8  7  1  0
  9  8  2  0
 10  9  1  0
 11 10  2  0
 11 12  1  0
 12 13  2  0
 13  8  1  0
 14 15  2  0
 17 16  1  1
 17 19  1  0
 18 14  1  0
 18 17  1  0
 19 20  2  0
 19 21  1  0
M  END
$$$$
