GFA.pdb
     RDKit          3D

 21 21  0  0  1  0  0  0  0  0999 V2000
   16.6601  -30.6716   -4.5821 N   0  0  0  0  0  0  0  0  0  0  0  0
   16.7444  -29.7202   -5.6703 C   0  0  0  0  0  0  0  0  0  0  0  0
   16.1542  -28.4387   -5.2262 C   0  0  0  0  0  0  0  0  0  0  0  0
   15.2224  -28.4106   -4.3625 O   0  0  0  0  0  0  0  0  0  0  0  0
   16.5795  -27.1763   -5.7242 N   0  0  0  0  0  0  0  0  0  0  0  0
   15.9623  -25.9183   -5.3689 C   0  0  1  0  0  0  0  0  0  0  0  0
   16.9005  -25.0349   -4.6002 C   0  0  0  0  0  0  0  0  0  0  0  0
   17.3375  -25.5916   -3.3146 C   0  0  0  0  0  0  0  0  0  0  0  0
   16.6002  -25.4680   -2.1461 C   0  0  0  0  0  0  0  0  0  0  0  0
   17.0364  -26.0020   -0.9493 C   0  0  0  0  0  0  0  0  0  0  0  0
   18.2297  -26.6866   -0.8555 C   0  0  0  0  0  0  0  0  0  0  0  0
   18.9688  -26.8139   -2.0126 C   0  0  0  0  0  0  0  0  0  0  0  0
   18.5303  -26.2767   -3.2174 C   0  0  0  0  0  0  0  0  0  0  0  0
   15.2945  -25.2974   -6.5095 C   0  0  0  0  0  0  0  0  0  0  0  0
   15.8863  -25.3131   -7.6196 O   0  0  0  0  0  0  0  0  0  0  0  0
   11.9723  -23.5815   -7.2413 C   0  0  0  0  0  0  0  0  0  0  0  0
   13.4044  -24.0130   -7.5749 C   0  0  2  0  0  0  0  0  0  0  0  0
   14.0255  -24.6752   -6.4682 N   0  0  0  0  0  0  0  0  0  0  0  0
   14.1236  -22.8134   -8.0441 C   0  0  0  0  0  0  0  0  0  0  0  0
   14.8580  -22.1695   -7.2638 O   0  0  0  0  0  0  0  0  0  0  0  0
   13.9994  -22.3812   -9.3492 O   0  0  0  0  0  0  0  0  0  0  0  0
  1  2  1  0
  2  3  1  0
  3  4  2  0
  5  6  1  0
  5  3  1  0
  6 14  1  0
  6  7  1  6
  8  7  1  0
  9  8  2  0
 10  9  1  0
 11 10  2  0
 11 12  1  0
 12 13  2  0
 13  8  1  0
 14 15  2  0
 17 16  1  1
 17 19  1  0
 18 14  1  0
 18 17  1  0
 19 20  2  0
 19 21  1  0
M  END
$$$$
