GFA.pdb
     RDKit          3D

 21 21  0  0  1  0  0  0  0  0999 V2000
   22.4789  -10.2215  -20.4674 N   0  0  0  0  0  0  0  0  0  0  0  0
   23.6736  -10.3832  -19.6656 C   0  0  0  0  0  0  0  0  0  0  0  0
   23.4773   -9.6854  -18.3763 C   0  0  0  0  0  0  0  0  0  0  0  0
   23.0725  -10.3117  -17.3472 O   0  0  0  0  0  0  0  0  0  0  0  0
   23.7225   -8.2955  -18.2026 N   0  0  0  0  0  0  0  0  0  0  0  0
   23.5157   -7.5880  -16.9590 C   0  0  1  0  0  0  0  0  0  0  0  0
   24.8111   -7.1258  -16.3589 C   0  0  0  0  0  0  0  0  0  0  0  0
   25.7818   -8.1995  -16.1170 C   0  0  0  0  0  0  0  0  0  0  0  0
   25.6761   -9.0919  -15.0603 C   0  0  0  0  0  0  0  0  0  0  0  0
   26.6054  -10.0932  -14.8564 C   0  0  0  0  0  0  0  0  0  0  0  0
   27.6878  -10.2565  -15.6950 C   0  0  0  0  0  0  0  0  0  0  0  0
   27.8003   -9.3734  -16.7480 C   0  0  0  0  0  0  0  0  0  0  0  0
   26.8653   -8.3655  -16.9538 C   0  0  0  0  0  0  0  0  0  0  0  0
   22.4710   -6.5744  -17.0757 C   0  0  0  0  0  0  0  0  0  0  0  0
   22.5459   -5.7573  -18.0294 O   0  0  0  0  0  0  0  0  0  0  0  0
   19.0852   -5.8448  -15.5404 C   0  0  0  0  0  0  0  0  0  0  0  0
   20.3381   -5.4544  -16.3316 C   0  0  2  0  0  0  0  0  0  0  0  0
   21.3719   -6.4353  -16.1971 N   0  0  0  0  0  0  0  0  0  0  0  0
   20.7271   -4.1007  -15.8930 C   0  0  0  0  0  0  0  0  0  0  0  0
   21.7603   -3.9283  -15.2105 O   0  0  0  0  0  0  0  0  0  0  0  0
   19.9600   -3.0027  -16.2269 O   0  0  0  0  0  0  0  0  0  0  0  0
  1  2  1  0
  2  3  1  0
  3  4  2  0
  5  6  1  0
  5  3  1  0
  6 14  1  0
  6  7  1  6
  8  7  1  0
  9  8  2  0
 10  9  1  0
 11 10  2  0
 11 12  1  0
 12 13  2  0
 13  8  1  0
 14 15  2  0
 17 16  1  1
 17 19  1  0
 18 14  1  0
 18 17  1  0
 19 20  2  0
 19 21  1  0
M  END
$$$$
