GFA.pdb
     RDKit          3D

 21 21  0  0  1  0  0  0  0  0999 V2000
   28.3241  -23.1687  -17.3813 N   0  0  0  0  0  0  0  0  0  0  0  0
   27.9792  -21.8472  -16.9004 C   0  0  0  0  0  0  0  0  0  0  0  0
   27.1631  -21.9870  -15.6747 C   0  0  0  0  0  0  0  0  0  0  0  0
   26.7081  -23.1180  -15.3157 O   0  0  0  0  0  0  0  0  0  0  0  0
   26.8381  -20.8891  -14.8313 N   0  0  0  0  0  0  0  0  0  0  0  0
   26.0028  -20.9930  -13.6560 C   0  0  1  0  0  0  0  0  0  0  0  0
   26.5762  -20.2333  -12.4960 C   0  0  0  0  0  0  0  0  0  0  0  0
   25.8181  -20.3744  -11.2474 C   0  0  0  0  0  0  0  0  0  0  0  0
   26.2130  -21.2087  -10.2119 C   0  0  0  0  0  0  0  0  0  0  0  0
   25.4791  -21.3223   -9.0474 C   0  0  0  0  0  0  0  0  0  0  0  0
   24.3140  -20.6103   -8.8549 C   0  0  0  0  0  0  0  0  0  0  0  0
   23.9144  -19.7786   -9.8795 C   0  0  0  0  0  0  0  0  0  0  0  0
   24.6526  -19.6638  -11.0518 C   0  0  0  0  0  0  0  0  0  0  0  0
   24.5993  -20.7273  -13.9594 C   0  0  0  0  0  0  0  0  0  0  0  0
   24.3085  -19.6210  -14.4833 O   0  0  0  0  0  0  0  0  0  0  0  0
   21.4912  -22.5396  -14.7120 C   0  0  0  0  0  0  0  0  0  0  0  0
   22.1570  -21.3516  -14.0093 C   0  0  2  0  0  0  0  0  0  0  0  0
   23.5311  -21.6197  -13.7111 N   0  0  0  0  0  0  0  0  0  0  0  0
   21.3338  -21.0251  -12.8294 C   0  0  0  0  0  0  0  0  0  0  0  0
   21.5917  -21.5334  -11.7168 O   0  0  0  0  0  0  0  0  0  0  0  0
   20.2670  -20.1550  -12.9318 O   0  0  0  0  0  0  0  0  0  0  0  0
  1  2  1  0
  2  3  1  0
  3  4  2  0
  5  6  1  0
  5  3  1  0
  6 14  1  0
  6  7  1  1
  8  7  1  0
  9  8  2  0
 10  9  1  0
 11 10  2  0
 11 12  1  0
 12 13  2  0
 13  8  1  0
 14 15  2  0
 17 16  1  1
 17 19  1  0
 18 14  1  0
 18 17  1  0
 19 20  2  0
 19 21  1  0
M  END
$$$$
