GFA.pdb
     RDKit          3D

 21 21  0  0  1  0  0  0  0  0999 V2000
   21.0165   -2.1949  -16.9395 N   0  0  0  0  0  0  0  0  0  0  0  0
   20.1922   -3.3845  -16.8967 C   0  0  0  0  0  0  0  0  0  0  0  0
   21.0638   -4.5707  -17.0425 C   0  0  0  0  0  0  0  0  0  0  0  0
   21.5994   -4.8571  -18.1588 O   0  0  0  0  0  0  0  0  0  0  0  0
   21.3565   -5.4536  -15.9669 N   0  0  0  0  0  0  0  0  0  0  0  0
   22.2285   -6.6013  -16.0784 C   0  0  1  0  0  0  0  0  0  0  0  0
   23.2859   -6.6031  -15.0137 C   0  0  0  0  0  0  0  0  0  0  0  0
   24.2107   -7.7405  -15.0829 C   0  0  0  0  0  0  0  0  0  0  0  0
   25.3053   -7.7757  -15.9344 C   0  0  0  0  0  0  0  0  0  0  0  0
   26.1593   -8.8602  -15.9789 C   0  0  0  0  0  0  0  0  0  0  0  0
   25.9665   -9.9655  -15.1772 C   0  0  0  0  0  0  0  0  0  0  0  0
   24.8806   -9.9385  -14.3278 C   0  0  0  0  0  0  0  0  0  0  0  0
   24.0207   -8.8472  -14.2826 C   0  0  0  0  0  0  0  0  0  0  0  0
   21.4770   -7.8440  -16.2311 C   0  0  0  0  0  0  0  0  0  0  0  0
   20.5929   -8.1075  -15.3756 O   0  0  0  0  0  0  0  0  0  0  0  0
   20.6207  -10.3276  -18.8648 C   0  0  0  0  0  0  0  0  0  0  0  0
   20.9412  -10.0130  -17.3997 C   0  0  2  0  0  0  0  0  0  0  0  0
   21.6628   -8.7835  -17.2713 N   0  0  0  0  0  0  0  0  0  0  0  0
   21.6414  -11.1868  -16.8443 C   0  0  0  0  0  0  0  0  0  0  0  0
   22.8824  -11.2934  -16.9513 O   0  0  0  0  0  0  0  0  0  0  0  0
   20.9415  -12.1860  -16.1984 O   0  0  0  0  0  0  0  0  0  0  0  0
  1  2  1  0
  2  3  1  0
  3  4  2  0
  5  6  1  0
  5  3  1  0
  6 14  1  0
  6  7  1  1
  8  7  1  0
  9  8  2  0
 10  9  1  0
 11 10  2  0
 11 12  1  0
 12 13  2  0
 13  8  1  0
 14 15  2  0
 17 16  1  6
 17 19  1  0
 18 14  1  0
 18 17  1  0
 19 20  2  0
 19 21  1  0
M  END
$$$$
