GFA.pdb
     RDKit          3D

 21 21  0  0  1  0  0  0  0  0999 V2000
   18.2627  -10.4114  -15.6223 N   0  0  0  0  0  0  0  0  0  0  0  0
   17.7719   -9.0650  -15.4161 C   0  0  0  0  0  0  0  0  0  0  0  0
   18.0449   -8.6700  -14.0171 C   0  0  0  0  0  0  0  0  0  0  0  0
   17.8499   -9.4800  -13.0575 O   0  0  0  0  0  0  0  0  0  0  0  0
   18.5338   -7.3842  -13.6567 N   0  0  0  0  0  0  0  0  0  0  0  0
   18.8414   -6.9878  -12.3008 C   0  0  1  0  0  0  0  0  0  0  0  0
   20.2678   -6.5440  -12.1601 C   0  0  0  0  0  0  0  0  0  0  0  0
   21.2542   -7.5211  -12.6356 C   0  0  0  0  0  0  0  0  0  0  0  0
   21.6395   -8.6294  -11.8957 C   0  0  0  0  0  0  0  0  0  0  0  0
   22.5712   -9.5329  -12.3681 C   0  0  0  0  0  0  0  0  0  0  0  0
   23.1667   -9.3785  -13.6022 C   0  0  0  0  0  0  0  0  0  0  0  0
   22.7891   -8.2793  -14.3442 C   0  0  0  0  0  0  0  0  0  0  0  0
   21.8515   -7.3695  -13.8692 C   0  0  0  0  0  0  0  0  0  0  0  0
   17.8357   -6.0794  -11.7571 C   0  0  0  0  0  0  0  0  0  0  0  0
   17.4792   -5.1024  -12.4650 O   0  0  0  0  0  0  0  0  0  0  0  0
   15.6757   -5.8209   -8.6285 C   0  0  0  0  0  0  0  0  0  0  0  0
   16.2299   -5.3215   -9.9671 C   0  0  2  0  0  0  0  0  0  0  0  0
   17.2237   -6.2095  -10.4891 N   0  0  0  0  0  0  0  0  0  0  0  0
   16.7030   -3.9403   -9.7555 C   0  0  0  0  0  0  0  0  0  0  0  0
   15.8993   -3.0371   -9.4373 O   0  0  0  0  0  0  0  0  0  0  0  0
   18.0376   -3.6205   -9.9045 O   0  0  0  0  0  0  0  0  0  0  0  0
  1  2  1  0
  2  3  1  0
  3  4  2  0
  5  6  1  0
  5  3  1  0
  6 14  1  0
  6  7  1  6
  8  7  1  0
  9  8  2  0
 10  9  1  0
 11 10  2  0
 11 12  1  0
 12 13  2  0
 13  8  1  0
 14 15  2  0
 17 16  1  1
 17 19  1  0
 18 14  1  0
 18 17  1  0
 19 20  2  0
 19 21  1  0
M  END
$$$$
