DSS.pdb
     RDKit          3D

 21 20  0  0  1  0  0  0  0  0999 V2000
   14.1939  -14.6588   16.6101 N   0  0  0  0  0  0  0  0  0  0  0  0
   14.4814  -14.8687   18.0022 C   0  0  1  0  0  0  0  0  0  0  0  0
   15.3136  -13.6890   18.4671 C   0  0  0  0  0  0  0  0  0  0  0  0
   16.6704  -13.8599   17.9199 C   0  0  0  0  0  0  0  0  0  0  0  0
   16.9823  -14.9187   17.3480 O   0  0  0  0  0  0  0  0  0  0  0  0
   13.2629  -15.0451   18.8319 C   0  0  0  0  0  0  0  0  0  0  0  0
   12.5349  -14.0378   18.9949 O   0  0  0  0  0  0  0  0  0  0  0  0
   17.5942  -12.8498   18.0405 O   0  0  0  0  0  0  0  0  0  0  0  0
   10.3733  -17.8321   18.7970 O   0  0  0  0  0  0  0  0  0  0  0  0
   11.0776  -17.8016   19.9880 C   0  0  0  0  0  0  0  0  0  0  0  0
   11.7679  -16.5103   20.2809 C   0  0  2  0  0  0  0  0  0  0  0  0
   12.9084  -16.2823   19.4276 N   0  0  0  0  0  0  0  0  0  0  0  0
   12.0793  -16.2974   21.7108 C   0  0  0  0  0  0  0  0  0  0  0  0
   13.2584  -16.4128   22.1327 O   0  0  0  0  0  0  0  0  0  0  0  0
    9.0911  -15.8587   24.3802 O   0  0  0  0  0  0  0  0  0  0  0  0
   10.2586  -15.2387   24.8089 C   0  0  0  0  0  0  0  0  0  0  0  0
   11.4737  -15.8599   24.1043 C   0  0  2  0  0  0  0  0  0  0  0  0
   11.1205  -15.9566   22.7014 N   0  0  0  0  0  0  0  0  0  0  0  0
   11.6814  -17.2295   24.6221 C   0  0  0  0  0  0  0  0  0  0  0  0
   12.1554  -17.5035   25.9016 O   0  0  0  0  0  0  0  0  0  0  0  0
   11.4281  -18.2263   23.8990 O   0  0  0  0  0  0  0  0  0  0  0  0
  2  1  1  6
  2  3  1  0
  3  4  1  0
  4  8  1  0
  5  4  2  0
  6  2  1  0
  7  6  2  0
 11 10  1  1
 10  9  1  0
 11 13  1  0
 11 12  1  0
 12  6  1  0
 13 14  2  0
 16 15  1  0
 17 16  1  1
 18 17  1  0
 18 13  1  0
 19 20  1  0
 19 17  1  0
 21 19  2  0
M  END
$$$$
