DSS.pdb
     RDKit          3D

 21 20  0  0  1  0  0  0  0  0999 V2000
   14.9519  -16.3822   17.2640 N   0  0  0  0  0  0  0  0  0  0  0  0
   15.8237  -16.6161   18.3821 C   0  0  1  0  0  0  0  0  0  0  0  0
   17.1470  -15.9482   18.0614 C   0  0  0  0  0  0  0  0  0  0  0  0
   17.6661  -16.5615   16.8269 C   0  0  0  0  0  0  0  0  0  0  0  0
   18.1261  -15.8448   15.9214 O   0  0  0  0  0  0  0  0  0  0  0  0
   15.2633  -16.1392   19.6716 C   0  0  0  0  0  0  0  0  0  0  0  0
   16.0807  -15.8796   20.5857 O   0  0  0  0  0  0  0  0  0  0  0  0
   17.6429  -17.9269   16.6735 O   0  0  0  0  0  0  0  0  0  0  0  0
   10.9801  -16.0043   20.4762 O   0  0  0  0  0  0  0  0  0  0  0  0
   11.8588  -15.0232   20.9015 C   0  0  0  0  0  0  0  0  0  0  0  0
   13.2656  -15.4803   21.1056 C   0  0  2  0  0  0  0  0  0  0  0  0
   13.8725  -15.9732   19.8933 N   0  0  0  0  0  0  0  0  0  0  0  0
   13.4457  -16.4053   22.2453 C   0  0  0  0  0  0  0  0  0  0  0  0
   13.6831  -17.6244   22.0482 O   0  0  0  0  0  0  0  0  0  0  0  0
   13.8180  -17.0559   27.0528 O   0  0  0  0  0  0  0  0  0  0  0  0
   13.7807  -16.2027   25.9565 C   0  0  0  0  0  0  0  0  0  0  0  0
   13.4608  -16.9974   24.6817 C   0  0  2  0  0  0  0  0  0  0  0  0
   13.3721  -16.0235   23.6112 N   0  0  0  0  0  0  0  0  0  0  0  0
   12.1358  -17.6365   24.8335 C   0  0  0  0  0  0  0  0  0  0  0  0
   10.9871  -17.1855   24.1902 O   0  0  0  0  0  0  0  0  0  0  0  0
   11.9982  -18.6430   25.5741 O   0  0  0  0  0  0  0  0  0  0  0  0
  2  1  1  6
  2  3  1  0
  3  4  1  0
  4  8  1  0
  5  4  2  0
  6  2  1  0
  7  6  2  0
 11 10  1  6
 10  9  1  0
 11 13  1  0
 11 12  1  0
 12  6  1  0
 13 14  2  0
 16 15  1  0
 17 16  1  1
 18 17  1  0
 18 13  1  0
 19 20  1  0
 19 17  1  0
 21 19  2  0
M  END
$$$$
