DSS.pdb
     RDKit          3D

 21 20  0  0  1  0  0  0  0  0999 V2000
   13.2145  -15.8720   17.4271 N   0  0  0  0  0  0  0  0  0  0  0  0
   13.7730  -15.1641   18.5459 C   0  0  1  0  0  0  0  0  0  0  0  0
   14.5390  -13.9809   17.9859 C   0  0  0  0  0  0  0  0  0  0  0  0
   15.7243  -14.5091   17.2891 C   0  0  0  0  0  0  0  0  0  0  0  0
   15.5867  -15.2605   16.3084 O   0  0  0  0  0  0  0  0  0  0  0  0
   12.7539  -14.7412   19.5393 C   0  0  0  0  0  0  0  0  0  0  0  0
   13.1692  -14.1515   20.5645 O   0  0  0  0  0  0  0  0  0  0  0  0
   16.9845  -14.1727   17.7215 O   0  0  0  0  0  0  0  0  0  0  0  0
    8.5409  -15.9232   19.3061 O   0  0  0  0  0  0  0  0  0  0  0  0
    8.9646  -14.6658   19.6995 C   0  0  0  0  0  0  0  0  0  0  0  0
   10.3289  -14.6194   20.3047 C   0  0  2  0  0  0  0  0  0  0  0  0
   11.3661  -14.9772   19.3681 N   0  0  0  0  0  0  0  0  0  0  0  0
   10.4504  -15.3444   21.5878 C   0  0  0  0  0  0  0  0  0  0  0  0
   11.0691  -16.4376   21.6488 O   0  0  0  0  0  0  0  0  0  0  0  0
    8.0807  -14.4341   24.7430 O   0  0  0  0  0  0  0  0  0  0  0  0
    9.3437  -14.8562   25.1404 C   0  0  0  0  0  0  0  0  0  0  0  0
    9.9929  -15.6934   24.0283 C   0  0  2  0  0  0  0  0  0  0  0  0
    9.9055  -14.8962   22.8204 N   0  0  0  0  0  0  0  0  0  0  0  0
    9.1976  -16.9238   23.8264 C   0  0  0  0  0  0  0  0  0  0  0  0
    9.1725  -17.9796   24.7326 O   0  0  0  0  0  0  0  0  0  0  0  0
    8.4939  -17.0618   22.7938 O   0  0  0  0  0  0  0  0  0  0  0  0
  2  1  1  6
  2  3  1  0
  3  4  1  0
  4  8  1  0
  5  4  2  0
  6  2  1  0
  7  6  2  0
 11 10  1  6
 10  9  1  0
 11 13  1  0
 11 12  1  0
 12  6  1  0
 13 14  2  0
 16 15  1  0
 17 16  1  1
 18 17  1  0
 18 13  1  0
 19 20  1  0
 19 17  1  0
 21 19  2  0
M  END
$$$$
