DSS.pdb
     RDKit          3D

 21 20  0  0  1  0  0  0  0  0999 V2000
   12.7056  -18.2753   15.4064 N   0  0  0  0  0  0  0  0  0  0  0  0
   12.3547  -18.9786   16.6093 C   0  0  1  0  0  0  0  0  0  0  0  0
   13.4268  -20.0262   16.8406 C   0  0  0  0  0  0  0  0  0  0  0  0
   13.4897  -20.8705   15.6353 C   0  0  0  0  0  0  0  0  0  0  0  0
   14.4692  -20.7962   14.8735 O   0  0  0  0  0  0  0  0  0  0  0  0
   12.1938  -18.0854   17.7843 C   0  0  0  0  0  0  0  0  0  0  0  0
   13.0068  -17.1378   17.8941 O   0  0  0  0  0  0  0  0  0  0  0  0
   12.4660  -21.7418   15.3504 O   0  0  0  0  0  0  0  0  0  0  0  0
    9.2957  -18.8342   21.0044 O   0  0  0  0  0  0  0  0  0  0  0  0
    9.6110  -17.5830   20.5038 C   0  0  0  0  0  0  0  0  0  0  0  0
   10.9864  -17.4579   19.9360 C   0  0  2  0  0  0  0  0  0  0  0  0
   11.1779  -18.2667   18.7570 N   0  0  0  0  0  0  0  0  0  0  0  0
   12.0715  -17.6335   20.9251 C   0  0  0  0  0  0  0  0  0  0  0  0
   12.6602  -18.7390   21.0393 O   0  0  0  0  0  0  0  0  0  0  0  0
   15.3078  -15.5654   23.8784 O   0  0  0  0  0  0  0  0  0  0  0  0
   14.1984  -15.4456   23.0501 C   0  0  0  0  0  0  0  0  0  0  0  0
   13.6443  -16.8366   22.7080 C   0  0  2  0  0  0  0  0  0  0  0  0
   12.5338  -16.6165   21.8019 N   0  0  0  0  0  0  0  0  0  0  0  0
   13.1160  -17.4601   23.9406 C   0  0  0  0  0  0  0  0  0  0  0  0
   13.8922  -18.2200   24.8105 O   0  0  0  0  0  0  0  0  0  0  0  0
   11.9067  -17.3198   24.2543 O   0  0  0  0  0  0  0  0  0  0  0  0
  2  1  1  6
  2  3  1  0
  3  4  1  0
  4  8  1  0
  5  4  2  0
  6  2  1  0
  7  6  2  0
 11 10  1  1
 10  9  1  0
 11 13  1  0
 11 12  1  0
 12  6  1  0
 13 14  2  0
 16 15  1  0
 17 16  1  1
 18 17  1  0
 18 13  1  0
 19 20  1  0
 19 17  1  0
 21 19  2  0
M  END
$$$$
