DSS.pdb
     RDKit          3D

 21 20  0  0  1  0  0  0  0  0999 V2000
   11.7905  -20.1297   16.3472 N   0  0  0  0  0  0  0  0  0  0  0  0
   12.5179  -19.0981   17.0339 C   0  0  1  0  0  0  0  0  0  0  0  0
   12.5610  -17.8951   16.1113 C   0  0  0  0  0  0  0  0  0  0  0  0
   13.7281  -18.0555   15.2272 C   0  0  0  0  0  0  0  0  0  0  0  0
   14.5603  -18.9515   15.4510 O   0  0  0  0  0  0  0  0  0  0  0  0
   11.9405  -18.7569   18.3585 C   0  0  0  0  0  0  0  0  0  0  0  0
   12.4605  -17.7979   18.9758 O   0  0  0  0  0  0  0  0  0  0  0  0
   13.8997  -17.2152   14.1536 O   0  0  0  0  0  0  0  0  0  0  0  0
    8.5687  -20.9383   20.1143 O   0  0  0  0  0  0  0  0  0  0  0  0
    8.8841  -19.6157   20.3725 C   0  0  0  0  0  0  0  0  0  0  0  0
   10.3349  -19.2793   20.2639 C   0  0  2  0  0  0  0  0  0  0  0  0
   10.8507  -19.4623   18.9292 N   0  0  0  0  0  0  0  0  0  0  0  0
   11.1859  -19.9163   21.2918 C   0  0  0  0  0  0  0  0  0  0  0  0
   12.0057  -20.8161   20.9757 O   0  0  0  0  0  0  0  0  0  0  0  0
   12.9141  -19.8748   25.8275 O   0  0  0  0  0  0  0  0  0  0  0  0
   12.0205  -19.3705   24.8903 C   0  0  0  0  0  0  0  0  0  0  0  0
   12.0281  -20.2484   23.6301 C   0  0  2  0  0  0  0  0  0  0  0  0
   11.1617  -19.5880   22.6733 N   0  0  0  0  0  0  0  0  0  0  0  0
   11.4354  -21.5634   23.9568 C   0  0  0  0  0  0  0  0  0  0  0  0
   12.1781  -22.6499   24.4089 O   0  0  0  0  0  0  0  0  0  0  0  0
   10.1983  -21.7500   23.8324 O   0  0  0  0  0  0  0  0  0  0  0  0
  2  1  1  6
  2  3  1  0
  3  4  1  0
  4  8  1  0
  5  4  2  0
  6  2  1  0
  7  6  2  0
 11 10  1  6
 10  9  1  0
 11 13  1  0
 11 12  1  0
 12  6  1  0
 13 14  2  0
 16 15  1  0
 17 16  1  1
 18 17  1  0
 18 13  1  0
 19 20  1  0
 19 17  1  0
 21 19  2  0
M  END
$$$$
