EME.pdb
     RDKit          3D

 27 26  0  0  1  0  0  0  0  0999 V2000
    7.3213  -14.4504   19.1741 N   0  0  0  0  0  0  0  0  0  0  0  0
    7.1420  -15.4630   20.1836 C   0  0  1  0  0  0  0  0  0  0  0  0
    7.6505  -16.8013   19.7360 C   0  0  0  0  0  0  0  0  0  0  0  0
    9.1331  -16.9173   19.9114 C   0  0  0  0  0  0  0  0  0  0  0  0
    9.5991  -18.2316   19.4178 C   0  0  0  0  0  0  0  0  0  0  0  0
    8.8559  -19.0964   18.8740 O   0  0  0  0  0  0  0  0  0  0  0  0
    7.8596  -15.1154   21.4404 C   0  0  0  0  0  0  0  0  0  0  0  0
    9.1061  -15.1913   21.4501 O   0  0  0  0  0  0  0  0  0  0  0  0
   10.9503  -18.5451   19.5604 O   0  0  0  0  0  0  0  0  0  0  0  0
    6.4123  -10.7850   27.0527 C   0  0  0  0  0  0  0  0  0  0  0  0
    6.5877  -12.5511   27.3264 S   0  0  0  0  0  0  0  0  0  0  0  0
    7.6539  -13.3662   26.1332 C   0  0  0  0  0  0  0  0  0  0  0  0
    6.9150  -13.6725   24.8332 C   0  0  0  0  0  0  0  0  0  0  0  0
    7.8079  -14.3561   23.8577 C   0  0  2  0  0  0  0  0  0  0  0  0
    7.1874  -14.7044   22.6193 N   0  0  0  0  0  0  0  0  0  0  0  0
    8.5011  -15.5477   24.4306 C   0  0  0  0  0  0  0  0  0  0  0  0
    7.9824  -16.6684   24.1938 O   0  0  0  0  0  0  0  0  0  0  0  0
    9.6696  -15.4639   25.1978 N   0  0  0  0  0  0  0  0  0  0  0  0
   10.4217  -16.6965   25.5031 C   0  0  1  0  0  0  0  0  0  0  0  0
   11.6018  -16.8029   24.6231 C   0  0  0  0  0  0  0  0  0  0  0  0
   12.4306  -18.0108   24.8652 C   0  0  0  0  0  0  0  0  0  0  0  0
   13.6467  -18.0843   24.0324 C   0  0  0  0  0  0  0  0  0  0  0  0
   14.2507  -17.0016   23.7653 O   0  0  0  0  0  0  0  0  0  0  0  0
   10.5366  -16.9143   26.9331 C   0  0  0  0  0  0  0  0  0  0  0  0
   11.0506  -17.9333   27.4525 O   0  0  0  0  0  0  0  0  0  0  0  0
   14.1547  -19.2661   23.5335 O   0  0  0  0  0  0  0  0  0  0  0  0
   10.0591  -15.9588   27.8558 O   0  0  0  0  0  0  0  0  0  0  0  0
  2  1  1  6
  2  3  1  0
  4  5  1  0
  4  3  1  0
  5  6  2  0
  7  2  1  0
  8  7  2  0
  9  5  1  0
 11 12  1  0
 11 10  1  0
 12 13  1  0
 14 13  1  1
 14 16  1  0
 14 15  1  0
 15  7  1  0
 16 17  2  0
 18 16  1  0
 19 18  1  0
 19 20  1  1
 21 20  1  0
 22 21  1  0
 23 22  2  0
 24 27  1  0
 24 19  1  0
 25 24  2  0
 26 22  1  0
M  END
$$$$
