EME.pdb
     RDKit          3D

 27 26  0  0  1  0  0  0  0  0999 V2000
    8.5171  -15.5731   18.9664 N   0  0  0  0  0  0  0  0  0  0  0  0
    7.5374  -15.6921   20.0166 C   0  0  1  0  0  0  0  0  0  0  0  0
    6.9025  -17.0508   20.0436 C   0  0  0  0  0  0  0  0  0  0  0  0
    7.8919  -18.1175   20.3982 C   0  0  0  0  0  0  0  0  0  0  0  0
    7.2308  -19.4408   20.3968 C   0  0  0  0  0  0  0  0  0  0  0  0
    6.3911  -19.8222   21.2602 O   0  0  0  0  0  0  0  0  0  0  0  0
    8.1414  -15.4600   21.3569 C   0  0  0  0  0  0  0  0  0  0  0  0
    9.3239  -15.8160   21.5426 O   0  0  0  0  0  0  0  0  0  0  0  0
    7.5526  -20.3345   19.3761 O   0  0  0  0  0  0  0  0  0  0  0  0
    7.4994  -11.5451   28.3080 C   0  0  0  0  0  0  0  0  0  0  0  0
    6.6797  -12.2777   26.8880 S   0  0  0  0  0  0  0  0  0  0  0  0
    7.7870  -13.1775   25.7975 C   0  0  0  0  0  0  0  0  0  0  0  0
    7.0577  -13.7088   24.5664 C   0  0  0  0  0  0  0  0  0  0  0  0
    7.9799  -14.4802   23.6886 C   0  0  2  0  0  0  0  0  0  0  0  0
    7.4310  -14.8543   22.4242 N   0  0  0  0  0  0  0  0  0  0  0  0
    8.5672  -15.6768   24.3608 C   0  0  0  0  0  0  0  0  0  0  0  0
    7.8745  -16.7261   24.3480 O   0  0  0  0  0  0  0  0  0  0  0  0
    9.8208  -15.6717   24.9850 N   0  0  0  0  0  0  0  0  0  0  0  0
   10.3640  -16.9345   25.5219 C   0  0  1  0  0  0  0  0  0  0  0  0
   11.6474  -17.2547   24.8673 C   0  0  0  0  0  0  0  0  0  0  0  0
   12.3499  -18.4250   25.4518 C   0  0  0  0  0  0  0  0  0  0  0  0
   13.6245  -18.7572   24.7864 C   0  0  0  0  0  0  0  0  0  0  0  0
   13.5760  -19.4180   23.7049 O   0  0  0  0  0  0  0  0  0  0  0  0
   10.2248  -17.0077   26.9645 C   0  0  0  0  0  0  0  0  0  0  0  0
   10.3844  -18.0542   27.6365 O   0  0  0  0  0  0  0  0  0  0  0  0
   14.8580  -18.3864   25.2808 O   0  0  0  0  0  0  0  0  0  0  0  0
    9.8892  -15.8653   27.7224 O   0  0  0  0  0  0  0  0  0  0  0  0
  2  1  1  6
  2  3  1  0
  4  5  1  0
  4  3  1  0
  5  6  2  0
  7  2  1  0
  8  7  2  0
  9  5  1  0
 11 12  1  0
 11 10  1  0
 12 13  1  0
 14 13  1  1
 14 16  1  0
 14 15  1  0
 15  7  1  0
 16 17  2  0
 18 16  1  0
 19 18  1  0
 19 20  1  1
 21 20  1  0
 22 21  1  0
 23 22  2  0
 24 27  1  0
 24 19  1  0
 25 24  2  0
 26 22  1  0
M  END
$$$$
