EME.pdb
     RDKit          3D

 27 26  0  0  1  0  0  0  0  0999 V2000
    6.6640  -17.0822   20.2662 N   0  0  0  0  0  0  0  0  0  0  0  0
    8.0978  -16.9488   20.2094 C   0  0  1  0  0  0  0  0  0  0  0  0
    8.5514  -16.2723   18.9498 C   0  0  0  0  0  0  0  0  0  0  0  0
    7.6285  -16.5567   17.8053 C   0  0  0  0  0  0  0  0  0  0  0  0
    8.4083  -16.9695   16.6179 C   0  0  0  0  0  0  0  0  0  0  0  0
    9.1150  -18.0147   16.5538 O   0  0  0  0  0  0  0  0  0  0  0  0
    8.6184  -16.1499   21.3522 C   0  0  0  0  0  0  0  0  0  0  0  0
    9.8490  -15.9494   21.4218 O   0  0  0  0  0  0  0  0  0  0  0  0
    8.3662  -16.1530   15.4884 O   0  0  0  0  0  0  0  0  0  0  0  0
    7.0171  -11.6372   27.7720 C   0  0  0  0  0  0  0  0  0  0  0  0
    6.4100  -12.5854   26.3730 S   0  0  0  0  0  0  0  0  0  0  0  0
    7.7013  -13.4368   25.4604 C   0  0  0  0  0  0  0  0  0  0  0  0
    7.1491  -14.1360   24.2211 C   0  0  0  0  0  0  0  0  0  0  0  0
    8.2110  -14.9156   23.5278 C   0  0  2  0  0  0  0  0  0  0  0  0
    7.7768  -15.6113   22.3584 N   0  0  0  0  0  0  0  0  0  0  0  0
    8.9390  -15.8520   24.4343 C   0  0  0  0  0  0  0  0  0  0  0  0
    8.3895  -16.9608   24.6572 O   0  0  0  0  0  0  0  0  0  0  0  0
   10.1714  -15.5486   25.0262 N   0  0  0  0  0  0  0  0  0  0  0  0
   10.9967  -16.6425   25.5742 C   0  0  1  0  0  0  0  0  0  0  0  0
   12.3117  -16.6714   24.9046 C   0  0  0  0  0  0  0  0  0  0  0  0
   13.2585  -17.6644   25.4723 C   0  0  0  0  0  0  0  0  0  0  0  0
   14.5923  -17.6551   24.8408 C   0  0  0  0  0  0  0  0  0  0  0  0
   14.6520  -17.7340   23.5764 O   0  0  0  0  0  0  0  0  0  0  0  0
   10.8950  -16.7186   27.0197 C   0  0  0  0  0  0  0  0  0  0  0  0
   11.2783  -17.6974   27.7034 O   0  0  0  0  0  0  0  0  0  0  0  0
   15.7695  -17.5655   25.5547 O   0  0  0  0  0  0  0  0  0  0  0  0
   10.3384  -15.6586   27.7672 O   0  0  0  0  0  0  0  0  0  0  0  0
  2  1  1  6
  2  3  1  0
  4  5  1  0
  4  3  1  0
  5  6  2  0
  7  2  1  0
  8  7  2  0
  9  5  1  0
 11 12  1  0
 11 10  1  0
 12 13  1  0
 14 13  1  1
 14 16  1  0
 14 15  1  0
 15  7  1  0
 16 17  2  0
 18 16  1  0
 19 18  1  0
 19 20  1  1
 21 20  1  0
 22 21  1  0
 23 22  2  0
 24 27  1  0
 24 19  1  0
 25 24  2  0
 26 22  1  0
M  END
$$$$
