EME.pdb
     RDKit          3D

 27 26  0  0  1  0  0  0  0  0999 V2000
    7.7120  -13.7717   19.1988 N   0  0  0  0  0  0  0  0  0  0  0  0
    7.5246  -14.7453   20.2446 C   0  0  1  0  0  0  0  0  0  0  0  0
    7.8888  -16.1300   19.7975 C   0  0  0  0  0  0  0  0  0  0  0  0
    7.0978  -16.5503   18.5974 C   0  0  0  0  0  0  0  0  0  0  0  0
    7.4312  -17.9454   18.2357 C   0  0  0  0  0  0  0  0  0  0  0  0
    8.2492  -18.6725   18.8668 O   0  0  0  0  0  0  0  0  0  0  0  0
    8.3572  -14.4331   21.4381 C   0  0  0  0  0  0  0  0  0  0  0  0
    9.5855  -14.2748   21.2776 O   0  0  0  0  0  0  0  0  0  0  0  0
    6.8043  -18.5027   17.1217 O   0  0  0  0  0  0  0  0  0  0  0  0
    6.8959  -11.5482   27.6007 C   0  0  0  0  0  0  0  0  0  0  0  0
    5.7833  -12.4324   26.5029 S   0  0  0  0  0  0  0  0  0  0  0  0
    6.6097  -13.6149   25.4335 C   0  0  0  0  0  0  0  0  0  0  0  0
    7.8959  -13.0408   24.8453 C   0  0  0  0  0  0  0  0  0  0  0  0
    8.5492  -14.0168   23.9306 C   0  0  2  0  0  0  0  0  0  0  0  0
    7.8134  -14.3093   22.7419 N   0  0  0  0  0  0  0  0  0  0  0  0
    8.9413  -15.2870   24.6100 C   0  0  0  0  0  0  0  0  0  0  0  0
    8.1737  -16.2702   24.4516 O   0  0  0  0  0  0  0  0  0  0  0  0
   10.0956  -15.4174   25.3922 N   0  0  0  0  0  0  0  0  0  0  0  0
   10.6311  -16.7647   25.6681 C   0  0  1  0  0  0  0  0  0  0  0  0
   11.9656  -16.9163   25.0562 C   0  0  0  0  0  0  0  0  0  0  0  0
   12.5949  -18.2396   25.2960 C   0  0  0  0  0  0  0  0  0  0  0  0
   13.9276  -18.3938   24.6812 C   0  0  0  0  0  0  0  0  0  0  0  0
   14.3370  -17.4732   23.9109 O   0  0  0  0  0  0  0  0  0  0  0  0
   10.3915  -17.1660   27.0419 C   0  0  0  0  0  0  0  0  0  0  0  0
    9.9672  -16.3978   27.9376 O   0  0  0  0  0  0  0  0  0  0  0  0
   14.7439  -19.4839   24.9021 O   0  0  0  0  0  0  0  0  0  0  0  0
   10.6309  -18.4909   27.4656 O   0  0  0  0  0  0  0  0  0  0  0  0
  2  1  1  6
  2  3  1  0
  4  5  1  0
  4  3  1  0
  5  6  2  0
  7  2  1  0
  8  7  2  0
  9  5  1  0
 11 12  1  0
 11 10  1  0
 12 13  1  0
 14 13  1  1
 14 16  1  0
 14 15  1  0
 15  7  1  0
 16 17  2  0
 18 16  1  0
 19 18  1  0
 19 20  1  1
 21 20  1  0
 22 21  1  0
 23 22  2  0
 24 27  1  0
 24 19  1  0
 25 24  2  0
 26 22  1  0
M  END
$$$$
