EME.pdb
     RDKit          3D

 27 26  0  0  1  0  0  0  0  0999 V2000
    7.8332  -15.8398   19.2694 N   0  0  0  0  0  0  0  0  0  0  0  0
    7.2217  -16.2089   20.5210 C   0  0  1  0  0  0  0  0  0  0  0  0
    7.1322  -17.6969   20.6874 C   0  0  0  0  0  0  0  0  0  0  0  0
    8.4024  -18.3770   20.2794 C   0  0  0  0  0  0  0  0  0  0  0  0
    8.2529  -19.8435   20.4034 C   0  0  0  0  0  0  0  0  0  0  0  0
    7.7122  -20.4273   21.3847 O   0  0  0  0  0  0  0  0  0  0  0  0
    7.9888  -15.6798   21.6815 C   0  0  0  0  0  0  0  0  0  0  0  0
    9.2165  -15.4964   21.5450 O   0  0  0  0  0  0  0  0  0  0  0  0
    8.7412  -20.6430   19.3707 O   0  0  0  0  0  0  0  0  0  0  0  0
    5.8352  -11.3630   26.7059 C   0  0  0  0  0  0  0  0  0  0  0  0
    6.7881  -12.7297   27.3761 S   0  0  0  0  0  0  0  0  0  0  0  0
    7.8843  -13.5023   26.1818 C   0  0  0  0  0  0  0  0  0  0  0  0
    7.1081  -14.1307   25.0275 C   0  0  0  0  0  0  0  0  0  0  0  0
    8.0292  -14.7633   24.0440 C   0  0  2  0  0  0  0  0  0  0  0  0
    7.3838  -15.3781   22.9280 N   0  0  0  0  0  0  0  0  0  0  0  0
    8.9863  -15.7236   24.6688 C   0  0  0  0  0  0  0  0  0  0  0  0
    8.5438  -16.8719   24.9267 O   0  0  0  0  0  0  0  0  0  0  0  0
   10.3157  -15.4008   24.9685 N   0  0  0  0  0  0  0  0  0  0  0  0
   11.2511  -16.4774   25.3481 C   0  0  1  0  0  0  0  0  0  0  0  0
   12.5562  -16.2721   24.6903 C   0  0  0  0  0  0  0  0  0  0  0  0
   13.5981  -17.2500   25.0938 C   0  0  0  0  0  0  0  0  0  0  0  0
   14.9200  -17.0087   24.4838 C   0  0  0  0  0  0  0  0  0  0  0  0
   15.0481  -16.0040   23.7205 O   0  0  0  0  0  0  0  0  0  0  0  0
   11.1704  -16.7831   26.7643 C   0  0  0  0  0  0  0  0  0  0  0  0
   11.7175  -17.7737   27.3046 O   0  0  0  0  0  0  0  0  0  0  0  0
   16.0159  -17.8181   24.7021 O   0  0  0  0  0  0  0  0  0  0  0  0
   10.4454  -15.9549   27.6478 O   0  0  0  0  0  0  0  0  0  0  0  0
  2  1  1  6
  2  3  1  0
  4  5  1  0
  4  3  1  0
  5  6  2  0
  7  2  1  0
  8  7  2  0
  9  5  1  0
 11 12  1  0
 11 10  1  0
 12 13  1  0
 14 13  1  1
 14 16  1  0
 14 15  1  0
 15  7  1  0
 16 17  2  0
 18 16  1  0
 19 18  1  0
 19 20  1  1
 21 20  1  0
 22 21  1  0
 23 22  2  0
 24 27  1  0
 24 19  1  0
 25 24  2  0
 26 22  1  0
M  END
$$$$
