EME.pdb
     RDKit          3D

 27 26  0  0  1  0  0  0  0  0999 V2000
    7.0438  -17.5045   21.1058 N   0  0  0  0  0  0  0  0  0  0  0  0
    8.4001  -17.0522   20.9253 C   0  0  1  0  0  0  0  0  0  0  0  0
    8.5474  -16.1825   19.7120 C   0  0  0  0  0  0  0  0  0  0  0  0
    7.8979  -16.7949   18.5097 C   0  0  0  0  0  0  0  0  0  0  0  0
    8.0262  -15.8872   17.3486 C   0  0  0  0  0  0  0  0  0  0  0  0
    8.6964  -14.8163   17.3481 O   0  0  0  0  0  0  0  0  0  0  0  0
    8.8737  -16.2629   22.0948 C   0  0  0  0  0  0  0  0  0  0  0  0
   10.0080  -15.7436   22.0379 O   0  0  0  0  0  0  0  0  0  0  0  0
    7.3635  -16.2300   16.1707 O   0  0  0  0  0  0  0  0  0  0  0  0
    5.4344  -11.6332   26.3955 C   0  0  0  0  0  0  0  0  0  0  0  0
    7.0222  -12.4398   26.6260 S   0  0  0  0  0  0  0  0  0  0  0  0
    7.6311  -13.2729   25.1563 C   0  0  0  0  0  0  0  0  0  0  0  0
    7.4815  -14.7881   25.2639 C   0  0  0  0  0  0  0  0  0  0  0  0
    8.5394  -15.4877   24.4844 C   0  0  2  0  0  0  0  0  0  0  0  0
    8.0921  -16.0790   23.2636 N   0  0  0  0  0  0  0  0  0  0  0  0
    9.2936  -16.4938   25.2890 C   0  0  0  0  0  0  0  0  0  0  0  0
    8.7184  -17.5919   25.4994 O   0  0  0  0  0  0  0  0  0  0  0  0
   10.5767  -16.2649   25.8013 N   0  0  0  0  0  0  0  0  0  0  0  0
   11.2130  -17.2987   26.6406 C   0  0  1  0  0  0  0  0  0  0  0  0
   12.6308  -17.4582   26.2631 C   0  0  0  0  0  0  0  0  0  0  0  0
   12.8445  -17.7555   24.8241 C   0  0  0  0  0  0  0  0  0  0  0  0
   14.2633  -17.8861   24.4398 C   0  0  0  0  0  0  0  0  0  0  0  0
   14.8882  -18.9235   24.8165 O   0  0  0  0  0  0  0  0  0  0  0  0
   10.8220  -17.1747   28.0326 C   0  0  0  0  0  0  0  0  0  0  0  0
   10.1778  -16.2063   28.5009 O   0  0  0  0  0  0  0  0  0  0  0  0
   14.9383  -16.9405   23.6956 O   0  0  0  0  0  0  0  0  0  0  0  0
   11.1563  -18.1716   28.9742 O   0  0  0  0  0  0  0  0  0  0  0  0
  2  1  1  1
  2  3  1  0
  4  5  1  0
  4  3  1  0
  5  6  2  0
  7  2  1  0
  8  7  2  0
  9  5  1  0
 11 12  1  0
 11 10  1  0
 12 13  1  0
 14 13  1  1
 14 16  1  0
 14 15  1  0
 15  7  1  0
 16 17  2  0
 18 16  1  0
 19 18  1  0
 19 20  1  1
 21 20  1  0
 22 21  1  0
 23 22  2  0
 24 27  1  0
 24 19  1  0
 25 24  2  0
 26 22  1  0
M  END
$$$$
