EME.pdb
     RDKit          3D

 27 26  0  0  1  0  0  0  0  0999 V2000
    9.6993  -15.7786   19.6821 N   0  0  0  0  0  0  0  0  0  0  0  0
    8.4331  -15.7167   20.3673 C   0  0  1  0  0  0  0  0  0  0  0  0
    7.6015  -16.9417   20.1266 C   0  0  0  0  0  0  0  0  0  0  0  0
    8.2186  -18.1594   20.7420 C   0  0  0  0  0  0  0  0  0  0  0  0
    7.4156  -19.3563   20.4087 C   0  0  0  0  0  0  0  0  0  0  0  0
    7.6726  -20.5256   20.8119 O   0  0  0  0  0  0  0  0  0  0  0  0
    8.6133  -15.5871   21.8390 C   0  0  0  0  0  0  0  0  0  0  0  0
    9.6485  -16.0610   22.3522 O   0  0  0  0  0  0  0  0  0  0  0  0
    6.2974  -19.1902   19.5924 O   0  0  0  0  0  0  0  0  0  0  0  0
    7.8270  -11.4996   28.0562 C   0  0  0  0  0  0  0  0  0  0  0  0
    7.5383  -11.9873   26.3522 S   0  0  0  0  0  0  0  0  0  0  0  0
    6.9531  -13.6754   26.1716 C   0  0  0  0  0  0  0  0  0  0  0  0
    6.6553  -14.0164   24.7138 C   0  0  0  0  0  0  0  0  0  0  0  0
    7.8275  -14.6653   24.0651 C   0  0  2  0  0  0  0  0  0  0  0  0
    7.6614  -14.9508   22.6755 N   0  0  0  0  0  0  0  0  0  0  0  0
    8.2931  -15.8890   24.7823 C   0  0  0  0  0  0  0  0  0  0  0  0
    7.6501  -16.9475   24.5653 O   0  0  0  0  0  0  0  0  0  0  0  0
    9.3844  -15.8989   25.6599 N   0  0  0  0  0  0  0  0  0  0  0  0
    9.7967  -17.1715   26.2834 C   0  0  1  0  0  0  0  0  0  0  0  0
   10.6983  -17.9118   25.3793 C   0  0  0  0  0  0  0  0  0  0  0  0
   11.9336  -17.1720   25.0169 C   0  0  0  0  0  0  0  0  0  0  0  0
   12.8119  -17.8907   24.0736 C   0  0  0  0  0  0  0  0  0  0  0  0
   12.4654  -19.0545   23.7076 O   0  0  0  0  0  0  0  0  0  0  0  0
   10.1251  -16.9996   27.6863 C   0  0  0  0  0  0  0  0  0  0  0  0
   10.1264  -15.8954   28.2806 O   0  0  0  0  0  0  0  0  0  0  0  0
   13.9842  -17.3614   23.5744 O   0  0  0  0  0  0  0  0  0  0  0  0
   10.4753  -18.1039   28.4926 O   0  0  0  0  0  0  0  0  0  0  0  0
  2  1  1  6
  2  3  1  0
  4  5  1  0
  4  3  1  0
  5  6  2  0
  7  2  1  0
  8  7  2  0
  9  5  1  0
 11 12  1  0
 11 10  1  0
 12 13  1  0
 14 13  1  1
 14 16  1  0
 14 15  1  0
 15  7  1  0
 16 17  2  0
 18 16  1  0
 19 18  1  0
 19 20  1  6
 21 20  1  0
 22 21  1  0
 23 22  2  0
 24 27  1  0
 24 19  1  0
 25 24  2  0
 26 22  1  0
M  END
$$$$
