TST.pdb
     RDKit          3D

 21 20  0  0  1  0  0  0  0  0999 V2000
   21.4602  -10.4901  -18.9701 C   0  0  0  0  0  0  0  0  0  0  0  0
   20.0909  -11.1214  -18.9336 C   0  0  1  0  0  0  0  0  0  0  0  0
   20.0776  -12.3649  -19.5431 O   0  0  0  0  0  0  0  0  0  0  0  0
   19.6647  -11.2563  -17.4686 C   0  0  2  0  0  0  0  0  0  0  0  0
   18.4732  -12.0498  -17.4527 N   0  0  0  0  0  0  0  0  0  0  0  0
   19.3985   -9.8889  -16.9221 C   0  0  0  0  0  0  0  0  0  0  0  0
   18.9357   -8.9728  -17.6406 O   0  0  0  0  0  0  0  0  0  0  0  0
   17.5868   -9.4062  -13.5055 O   0  0  0  0  0  0  0  0  0  0  0  0
   18.8795   -8.8451  -13.4737 C   0  0  0  0  0  0  0  0  0  0  0  0
   19.2905   -8.4000  -14.8824 C   0  0  2  0  0  0  0  0  0  0  0  0
   19.6769   -9.6365  -15.5724 N   0  0  0  0  0  0  0  0  0  0  0  0
   20.4966   -7.5514  -14.8417 C   0  0  0  0  0  0  0  0  0  0  0  0
   21.6775   -8.0167  -14.7684 O   0  0  0  0  0  0  0  0  0  0  0  0
   21.0668   -4.2902  -17.1740 C   0  0  0  0  0  0  0  0  0  0  0  0
   21.3799   -4.0180  -15.7191 C   0  0  1  0  0  0  0  0  0  0  0  0
   20.2504   -3.4016  -15.1744 O   0  0  0  0  0  0  0  0  0  0  0  0
   21.6008   -5.3006  -14.9455 C   0  0  2  0  0  0  0  0  0  0  0  0
   20.4233   -6.1140  -14.8826 N   0  0  0  0  0  0  0  0  0  0  0  0
   22.0760   -5.0406  -13.5776 C   0  0  0  0  0  0  0  0  0  0  0  0
   23.1565   -4.4538  -13.3906 O   0  0  0  0  0  0  0  0  0  0  0  0
   21.3243   -5.4470  -12.4977 O   0  0  0  0  0  0  0  0  0  0  0  0
  2  1  1  1
  2  3  1  0
  2  4  1  0
  4  5  1  6
  6  4  1  0
  6 11  1  0
  7  6  2  0
  8  9  1  0
 10 11  1  0
 10  9  1  1
 10 12  1  0
 12 18  1  0
 13 12  2  0
 15 14  1  6
 15 17  1  0
 16 15  1  0
 17 19  1  0
 17 18  1  1
 19 20  2  0
 19 21  1  0
M  END
$$$$
