TST.pdb
     RDKit          3D

 21 20  0  0  1  0  0  0  0  0999 V2000
   22.7443  -21.6691  -12.4902 C   0  0  0  0  0  0  0  0  0  0  0  0
   23.1396  -21.0018  -11.1968 C   0  0  1  0  0  0  0  0  0  0  0  0
   22.4768  -21.5462  -10.1094 O   0  0  0  0  0  0  0  0  0  0  0  0
   24.6522  -21.1635  -11.0174 C   0  0  2  0  0  0  0  0  0  0  0  0
   24.9716  -20.6733   -9.7107 N   0  0  0  0  0  0  0  0  0  0  0  0
   25.3456  -20.3574  -12.0703 C   0  0  0  0  0  0  0  0  0  0  0  0
   25.4906  -19.1179  -11.9597 O   0  0  0  0  0  0  0  0  0  0  0  0
   27.4298  -22.4772  -14.9681 O   0  0  0  0  0  0  0  0  0  0  0  0
   27.8127  -21.1944  -14.5268 C   0  0  0  0  0  0  0  0  0  0  0  0
   26.5679  -20.3328  -14.2826 C   0  0  2  0  0  0  0  0  0  0  0  0
   25.8417  -21.0140  -13.2042 N   0  0  0  0  0  0  0  0  0  0  0  0
   25.6751  -20.3426  -15.4569 C   0  0  0  0  0  0  0  0  0  0  0  0
   24.9682  -21.3454  -15.7903 O   0  0  0  0  0  0  0  0  0  0  0  0
   22.6007  -18.3746  -16.3811 C   0  0  0  0  0  0  0  0  0  0  0  0
   23.6421  -18.1309  -17.4511 C   0  0  1  0  0  0  0  0  0  0  0  0
   24.3007  -16.9473  -17.1076 O   0  0  0  0  0  0  0  0  0  0  0  0
   24.6858  -19.2274  -17.4753 C   0  0  2  0  0  0  0  0  0  0  0  0
   25.5372  -19.2011  -16.3235 N   0  0  0  0  0  0  0  0  0  0  0  0
   25.5182  -19.1650  -18.6868 C   0  0  0  0  0  0  0  0  0  0  0  0
   26.7395  -18.9475  -18.5973 O   0  0  0  0  0  0  0  0  0  0  0  0
   24.9466  -19.3478  -19.9262 O   0  0  0  0  0  0  0  0  0  0  0  0
  2  1  1  6
  2  3  1  0
  2  4  1  0
  4  5  1  1
  6  4  1  0
  6 11  1  0
  7  6  2  0
  8  9  1  0
 10 11  1  0
 10  9  1  6
 10 12  1  0
 12 18  1  0
 13 12  2  0
 15 14  1  1
 15 17  1  0
 16 15  1  0
 17 19  1  0
 17 18  1  1
 19 20  2  0
 19 21  1  0
M  END
$$$$
