TST.pdb
     RDKit          3D

 21 20  0  0  1  0  0  0  0  0999 V2000
   16.3060   -5.1844   -9.4712 C   0  0  0  0  0  0  0  0  0  0  0  0
   15.7206   -6.2518   -8.5809 C   0  0  1  0  0  0  0  0  0  0  0  0
   15.0153   -5.7108   -7.5188 O   0  0  0  0  0  0  0  0  0  0  0  0
   14.7924   -7.1266   -9.4291 C   0  0  2  0  0  0  0  0  0  0  0  0
   14.2580   -8.1314   -8.5604 N   0  0  0  0  0  0  0  0  0  0  0  0
   15.5960   -7.7483  -10.5276 C   0  0  0  0  0  0  0  0  0  0  0  0
   16.1669   -8.8536  -10.3795 O   0  0  0  0  0  0  0  0  0  0  0  0
   15.9862   -7.8198  -15.2992 O   0  0  0  0  0  0  0  0  0  0  0  0
   15.4341   -7.3284  -14.0990 C   0  0  0  0  0  0  0  0  0  0  0  0
   16.3779   -7.6286  -12.9283 C   0  0  2  0  0  0  0  0  0  0  0  0
   15.7069   -7.0699  -11.7485 N   0  0  0  0  0  0  0  0  0  0  0  0
   17.6507   -6.8963  -13.0695 C   0  0  0  0  0  0  0  0  0  0  0  0
   17.8270   -5.7110  -12.6446 O   0  0  0  0  0  0  0  0  0  0  0  0
   21.3525   -8.0153  -12.1953 C   0  0  0  0  0  0  0  0  0  0  0  0
   21.2505   -7.5847  -13.6421 C   0  0  1  0  0  0  0  0  0  0  0  0
   21.1060   -8.7508  -14.3982 O   0  0  0  0  0  0  0  0  0  0  0  0
   20.0174   -6.7415  -13.8887 C   0  0  2  0  0  0  0  0  0  0  0  0
   18.8025   -7.4787  -13.7077 N   0  0  0  0  0  0  0  0  0  0  0  0
   20.0201   -6.1471  -15.2344 C   0  0  0  0  0  0  0  0  0  0  0  0
   19.1755   -6.4993  -16.0767 O   0  0  0  0  0  0  0  0  0  0  0  0
   20.9598   -5.1968  -15.5665 O   0  0  0  0  0  0  0  0  0  0  0  0
  2  1  1  6
  2  3  1  0
  2  4  1  0
  4  5  1  1
  6  4  1  0
  6 11  1  0
  7  6  2  0
  8  9  1  0
 10 11  1  0
 10  9  1  6
 10 12  1  0
 12 18  1  0
 13 12  2  0
 15 14  1  1
 15 17  1  0
 16 15  1  0
 17 19  1  0
 17 18  1  6
 19 20  2  0
 19 21  1  0
M  END
$$$$
