TST.pdb
     RDKit          3D

 21 20  0  0  1  0  0  0  0  0999 V2000
   24.1119  -12.5826  -15.6653 C   0  0  0  0  0  0  0  0  0  0  0  0
   23.3438  -11.2933  -15.8148 C   0  0  1  0  0  0  0  0  0  0  0  0
   23.7016  -10.6076  -16.9636 O   0  0  0  0  0  0  0  0  0  0  0  0
   21.8496  -11.6280  -15.8537 C   0  0  2  0  0  0  0  0  0  0  0  0
   21.6015  -12.2824  -17.1027 N   0  0  0  0  0  0  0  0  0  0  0  0
   21.0731  -10.3523  -15.7601 C   0  0  0  0  0  0  0  0  0  0  0  0
   20.5053   -9.8538  -16.7596 O   0  0  0  0  0  0  0  0  0  0  0  0
   19.1481   -9.9706  -12.7582 O   0  0  0  0  0  0  0  0  0  0  0  0
   19.5764   -8.6381  -12.9254 C   0  0  0  0  0  0  0  0  0  0  0  0
   20.2277   -8.4677  -14.3032 C   0  0  2  0  0  0  0  0  0  0  0  0
   20.9844   -9.7066  -14.5199 N   0  0  0  0  0  0  0  0  0  0  0  0
   21.2158   -7.3724  -14.2930 C   0  0  0  0  0  0  0  0  0  0  0  0
   22.4120   -7.5128  -13.8858 O   0  0  0  0  0  0  0  0  0  0  0  0
   21.4352   -4.6672  -17.3273 C   0  0  0  0  0  0  0  0  0  0  0  0
   21.5503   -4.0205  -15.9644 C   0  0  1  0  0  0  0  0  0  0  0  0
   20.2864   -3.5121  -15.6537 O   0  0  0  0  0  0  0  0  0  0  0  0
   21.8960   -5.0328  -14.8929 C   0  0  2  0  0  0  0  0  0  0  0  0
   20.8931   -6.0456  -14.7498 N   0  0  0  0  0  0  0  0  0  0  0  0
   22.1198   -4.3936  -13.5868 C   0  0  0  0  0  0  0  0  0  0  0  0
   23.0160   -3.5418  -13.4515 O   0  0  0  0  0  0  0  0  0  0  0  0
   21.3362   -4.7370  -12.5078 O   0  0  0  0  0  0  0  0  0  0  0  0
  2  1  1  6
  2  3  1  0
  2  4  1  0
  4  5  1  6
  6  4  1  0
  6 11  1  0
  7  6  2  0
  8  9  1  0
 10 11  1  0
 10  9  1  1
 10 12  1  0
 12 18  1  0
 13 12  2  0
 15 14  1  6
 15 17  1  0
 16 15  1  0
 17 19  1  0
 17 18  1  1
 19 20  2  0
 19 21  1  0
M  END
$$$$
