TST.pdb
     RDKit          3D

 21 20  0  0  1  0  0  0  0  0999 V2000
   12.6338  -11.0301  -11.2136 C   0  0  0  0  0  0  0  0  0  0  0  0
   13.2190  -12.4038  -11.4263 C   0  0  1  0  0  0  0  0  0  0  0  0
   12.2363  -13.3645  -11.5974 O   0  0  0  0  0  0  0  0  0  0  0  0
   14.1187  -12.3544  -12.6650 C   0  0  2  0  0  0  0  0  0  0  0  0
   14.5537  -13.6947  -12.9177 N   0  0  0  0  0  0  0  0  0  0  0  0
   15.2854  -11.4647  -12.3713 C   0  0  0  0  0  0  0  0  0  0  0  0
   16.3010  -11.8891  -11.7727 O   0  0  0  0  0  0  0  0  0  0  0  0
   17.8302   -7.7731  -13.7601 O   0  0  0  0  0  0  0  0  0  0  0  0
   16.7982   -8.7235  -13.8960 C   0  0  0  0  0  0  0  0  0  0  0  0
   16.2977   -9.1529  -12.5116 C   0  0  2  0  0  0  0  0  0  0  0  0
   15.2316  -10.1256  -12.7796 N   0  0  0  0  0  0  0  0  0  0  0  0
   15.6642   -8.0256  -11.8015 C   0  0  0  0  0  0  0  0  0  0  0  0
   14.5206   -7.5608  -12.1057 O   0  0  0  0  0  0  0  0  0  0  0  0
   15.4865   -7.4053   -7.7692 C   0  0  0  0  0  0  0  0  0  0  0  0
   16.0555   -6.2312   -8.5351 C   0  0  1  0  0  0  0  0  0  0  0  0
   17.4465   -6.3480   -8.4728 O   0  0  0  0  0  0  0  0  0  0  0  0
   15.6722   -6.2801   -9.9989 C   0  0  2  0  0  0  0  0  0  0  0  0
   16.3038   -7.3601  -10.6965 N   0  0  0  0  0  0  0  0  0  0  0  0
   15.9825   -5.0184  -10.6892 C   0  0  0  0  0  0  0  0  0  0  0  0
   15.4031   -3.9672  -10.3637 O   0  0  0  0  0  0  0  0  0  0  0  0
   16.9175   -4.9975  -11.7000 O   0  0  0  0  0  0  0  0  0  0  0  0
  2  1  1  6
  2  3  1  0
  2  4  1  0
  4  5  1  1
  6  4  1  0
  6 11  1  0
  7  6  2  0
  8  9  1  0
 10 11  1  0
 10  9  1  6
 10 12  1  0
 12 18  1  0
 13 12  2  0
 15 14  1  1
 15 17  1  0
 16 15  1  0
 17 19  1  0
 17 18  1  6
 19 20  2  0
 19 21  1  0
M  END
$$$$
