AGK.pdb
     RDKit          3D

 19 18  0  0  1  0  0  0  0  0999 V2000
   14.2228  -14.2827  -15.4296 C   0  0  0  0  0  0  0  0  0  0  0  0
   15.6641  -13.9029  -15.6971 C   0  0  2  0  0  0  0  0  0  0  0  0
   16.5763  -14.5879  -14.8126 N   0  0  0  0  0  0  0  0  0  0  0  0
   15.8326  -12.4516  -15.5183 C   0  0  0  0  0  0  0  0  0  0  0  0
   15.0358  -11.8403  -14.7663 O   0  0  0  0  0  0  0  0  0  0  0  0
   16.8539  -11.7389  -16.1625 N   0  0  0  0  0  0  0  0  0  0  0  0
   17.0312  -10.3421  -15.8772 C   0  0  0  0  0  0  0  0  0  0  0  0
   18.4355  -10.1439  -15.4315 C   0  0  0  0  0  0  0  0  0  0  0  0
   19.0589  -11.0216  -14.7763 O   0  0  0  0  0  0  0  0  0  0  0  0
   19.1702   -8.9555  -15.7121 N   0  0  0  0  0  0  0  0  0  0  0  0
   20.5947   -8.8426  -15.4516 C   0  0  1  0  0  0  0  0  0  0  0  0
   21.4169   -8.8033  -16.6884 C   0  0  0  0  0  0  0  0  0  0  0  0
   22.8820   -8.6629  -16.5340 C   0  0  0  0  0  0  0  0  0  0  0  0
   23.6848   -8.5827  -17.7888 C   0  0  0  0  0  0  0  0  0  0  0  0
   25.1736   -8.4535  -17.4145 C   0  0  0  0  0  0  0  0  0  0  0  0
   25.9390   -8.5111  -18.6461 N   0  0  0  0  0  0  0  0  0  0  0  0
   20.7837   -7.6982  -14.5329 C   0  0  0  0  0  0  0  0  0  0  0  0
   21.8345   -7.6046  -13.8535 O   0  0  0  0  0  0  0  0  0  0  0  0
   19.8318   -6.7013  -14.3814 O   0  0  0  0  0  0  0  0  0  0  0  0
  2  1  1  1
  3  2  1  0
  4  5  2  0
  4  2  1  0
  6  4  1  0
  7  6  1  0
  8  7  1  0
  9  8  2  0
 10  8  1  0
 11 12  1  6
 11 10  1  0
 12 13  1  0
 13 14  1  0
 14 15  1  0
 15 16  1  0
 17 11  1  0
 18 17  2  0
 19 17  1  0
M  END
$$$$
