AGK.pdb
     RDKit          3D

 19 18  0  0  1  0  0  0  0  0999 V2000
   18.6149  -13.1761  -17.5538 C   0  0  0  0  0  0  0  0  0  0  0  0
   18.2068  -12.3072  -16.3827 C   0  0  2  0  0  0  0  0  0  0  0  0
   17.5363  -11.1029  -16.8115 N   0  0  0  0  0  0  0  0  0  0  0  0
   19.4006  -11.9330  -15.6071 C   0  0  0  0  0  0  0  0  0  0  0  0
   20.1258  -12.8439  -15.1400 O   0  0  0  0  0  0  0  0  0  0  0  0
   19.7462  -10.5936  -15.3781 N   0  0  0  0  0  0  0  0  0  0  0  0
   20.8798  -10.2863  -14.5509 C   0  0  0  0  0  0  0  0  0  0  0  0
   21.0286   -8.8077  -14.5148 C   0  0  0  0  0  0  0  0  0  0  0  0
   20.6702   -8.1241  -13.5186 O   0  0  0  0  0  0  0  0  0  0  0  0
   21.5834   -8.0645  -15.5968 N   0  0  0  0  0  0  0  0  0  0  0  0
   21.7054   -6.6176  -15.5643 C   0  0  1  0  0  0  0  0  0  0  0  0
   22.3829   -6.0579  -16.7622 C   0  0  0  0  0  0  0  0  0  0  0  0
   21.6243   -6.0378  -18.0326 C   0  0  0  0  0  0  0  0  0  0  0  0
   22.2832   -5.3792  -19.1979 C   0  0  0  0  0  0  0  0  0  0  0  0
   21.3059   -5.3908  -20.3886 C   0  0  0  0  0  0  0  0  0  0  0  0
   21.9583   -4.7140  -21.4942 N   0  0  0  0  0  0  0  0  0  0  0  0
   20.3591   -6.0694  -15.2883 C   0  0  0  0  0  0  0  0  0  0  0  0
   19.3384   -6.6747  -15.6959 O   0  0  0  0  0  0  0  0  0  0  0  0
   20.1665   -4.8895  -14.5856 O   0  0  0  0  0  0  0  0  0  0  0  0
  2  1  1  6
  3  2  1  0
  4  5  2  0
  4  2  1  0
  6  4  1  0
  7  6  1  0
  8  7  1  0
  9  8  2  0
 10  8  1  0
 11 12  1  6
 11 10  1  0
 12 13  1  0
 13 14  1  0
 14 15  1  0
 15 16  1  0
 17 11  1  0
 18 17  2  0
 19 17  1  0
M  END
$$$$
