AGK.pdb
     RDKit          3D

 19 18  0  0  1  0  0  0  0  0999 V2000
   20.1422  -13.5036  -18.9691 C   0  0  0  0  0  0  0  0  0  0  0  0
   21.2232  -13.4421  -17.9105 C   0  0  2  0  0  0  0  0  0  0  0  0
   21.5024  -14.7416  -17.3475 N   0  0  0  0  0  0  0  0  0  0  0  0
   20.8018  -12.5384  -16.8277 C   0  0  0  0  0  0  0  0  0  0  0  0
   19.8862  -12.9099  -16.0546 O   0  0  0  0  0  0  0  0  0  0  0  0
   21.3932  -11.2812  -16.6388 N   0  0  0  0  0  0  0  0  0  0  0  0
   20.9985  -10.4743  -15.5177 C   0  0  0  0  0  0  0  0  0  0  0  0
   21.7992   -9.2224  -15.5544 C   0  0  0  0  0  0  0  0  0  0  0  0
   22.5882   -8.9613  -16.5018 O   0  0  0  0  0  0  0  0  0  0  0  0
   21.7313   -8.2364  -14.5278 N   0  0  0  0  0  0  0  0  0  0  0  0
   22.3384   -6.9244  -14.6686 C   0  0  1  0  0  0  0  0  0  0  0  0
   21.9452   -6.2262  -15.9197 C   0  0  0  0  0  0  0  0  0  0  0  0
   22.4749   -4.8620  -16.1394 C   0  0  0  0  0  0  0  0  0  0  0  0
   22.1124   -4.2000  -17.4263 C   0  0  0  0  0  0  0  0  0  0  0  0
   22.7616   -2.8035  -17.4627 C   0  0  0  0  0  0  0  0  0  0  0  0
   22.2955   -2.1376  -18.6649 N   0  0  0  0  0  0  0  0  0  0  0  0
   22.0678   -6.1790  -13.4194 C   0  0  0  0  0  0  0  0  0  0  0  0
   21.0532   -6.4503  -12.7329 O   0  0  0  0  0  0  0  0  0  0  0  0
   22.9006   -5.1695  -12.9609 O   0  0  0  0  0  0  0  0  0  0  0  0
  2  1  1  6
  3  2  1  0
  4  5  2  0
  4  2  1  0
  6  4  1  0
  7  6  1  0
  8  7  1  0
  9  8  2  0
 10  8  1  0
 11 12  1  6
 11 10  1  0
 12 13  1  0
 13 14  1  0
 14 15  1  0
 15 16  1  0
 17 11  1  0
 18 17  2  0
 19 17  1  0
M  END
$$$$
