AGK.pdb
     RDKit          3D

 19 18  0  0  1  0  0  0  0  0999 V2000
   28.3663  -22.6844  -16.2841 C   0  0  0  0  0  0  0  0  0  0  0  0
   27.1080  -21.8433  -16.2359 C   0  0  2  0  0  0  0  0  0  0  0  0
   27.3469  -20.4884  -16.6726 N   0  0  0  0  0  0  0  0  0  0  0  0
   26.5887  -21.8116  -14.8590 C   0  0  0  0  0  0  0  0  0  0  0  0
   26.1912  -22.8824  -14.3398 O   0  0  0  0  0  0  0  0  0  0  0  0
   26.5270  -20.6235  -14.1170 N   0  0  0  0  0  0  0  0  0  0  0  0
   26.0028  -20.6502  -12.7798 C   0  0  0  0  0  0  0  0  0  0  0  0
   24.5444  -20.3726  -12.8577 C   0  0  0  0  0  0  0  0  0  0  0  0
   23.8729  -20.0375  -11.8452 O   0  0  0  0  0  0  0  0  0  0  0  0
   23.8085  -20.4653  -14.0745 N   0  0  0  0  0  0  0  0  0  0  0  0
   22.3817  -20.2019  -14.1420 C   0  0  1  0  0  0  0  0  0  0  0  0
   22.0187  -19.1901  -15.1675 C   0  0  0  0  0  0  0  0  0  0  0  0
   20.5849  -18.8620  -15.3301 C   0  0  0  0  0  0  0  0  0  0  0  0
   20.0966  -18.6585  -16.7251 C   0  0  0  0  0  0  0  0  0  0  0  0
   18.6379  -18.1664  -16.6702 C   0  0  0  0  0  0  0  0  0  0  0  0
   18.2158  -17.9019  -18.0333 N   0  0  0  0  0  0  0  0  0  0  0  0
   21.6999  -21.5082  -14.2768 C   0  0  0  0  0  0  0  0  0  0  0  0
   20.5439  -21.6645  -13.8143 O   0  0  0  0  0  0  0  0  0  0  0  0
   22.2918  -22.5947  -14.9029 O   0  0  0  0  0  0  0  0  0  0  0  0
  2  1  1  1
  3  2  1  0
  4  5  2  0
  4  2  1  0
  6  4  1  0
  7  6  1  0
  8  7  1  0
  9  8  2  0
 10  8  1  0
 11 12  1  6
 11 10  1  0
 12 13  1  0
 13 14  1  0
 14 15  1  0
 15 16  1  0
 17 11  1  0
 18 17  2  0
 19 17  1  0
M  END
$$$$
