AGK.pdb
     RDKit          3D

 19 18  0  0  1  0  0  0  0  0999 V2000
   20.0091  -21.3686  -18.0558 C   0  0  0  0  0  0  0  0  0  0  0  0
   21.2166  -21.7570  -17.2287 C   0  0  2  0  0  0  0  0  0  0  0  0
   21.4862  -23.1734  -17.2985 N   0  0  0  0  0  0  0  0  0  0  0  0
   20.9899  -21.3877  -15.8219 C   0  0  0  0  0  0  0  0  0  0  0  0
   20.7630  -20.1857  -15.5433 O   0  0  0  0  0  0  0  0  0  0  0  0
   21.0208  -22.3382  -14.7916 N   0  0  0  0  0  0  0  0  0  0  0  0
   20.7816  -21.9226  -13.4375 C   0  0  0  0  0  0  0  0  0  0  0  0
   19.9346  -22.9569  -12.7874 C   0  0  0  0  0  0  0  0  0  0  0  0
   19.5922  -24.0124  -13.3848 O   0  0  0  0  0  0  0  0  0  0  0  0
   19.4535  -22.8282  -11.4522 N   0  0  0  0  0  0  0  0  0  0  0  0
   18.7383  -23.8971  -10.7772 C   0  0  1  0  0  0  0  0  0  0  0  0
   18.9041  -23.8742   -9.3010 C   0  0  0  0  0  0  0  0  0  0  0  0
   18.2761  -24.9653   -8.5232 C   0  0  0  0  0  0  0  0  0  0  0  0
   18.5430  -24.9835   -7.0555 C   0  0  0  0  0  0  0  0  0  0  0  0
   17.8179  -26.1938   -6.4372 C   0  0  0  0  0  0  0  0  0  0  0  0
   18.1651  -26.2368   -5.0288 N   0  0  0  0  0  0  0  0  0  0  0  0
   17.3384  -23.8586  -11.2546 C   0  0  0  0  0  0  0  0  0  0  0  0
   16.7474  -22.7589  -11.3810 O   0  0  0  0  0  0  0  0  0  0  0  0
   16.6303  -25.0070  -11.5749 O   0  0  0  0  0  0  0  0  0  0  0  0
  2  1  1  6
  3  2  1  0
  4  5  2  0
  4  2  1  0
  6  4  1  0
  7  6  1  0
  8  7  1  0
  9  8  2  0
 10  8  1  0
 11 12  1  1
 11 10  1  0
 12 13  1  0
 13 14  1  0
 14 15  1  0
 15 16  1  0
 17 11  1  0
 18 17  2  0
 19 17  1  0
M  END
$$$$
