AGK.pdb
     RDKit          3D

 19 18  0  0  1  0  0  0  0  0999 V2000
   24.4973  -18.6786  -17.2809 C   0  0  0  0  0  0  0  0  0  0  0  0
   23.4432  -19.7296  -17.0027 C   0  0  2  0  0  0  0  0  0  0  0  0
   22.2010  -19.4410  -17.6789 N   0  0  0  0  0  0  0  0  0  0  0  0
   23.1879  -19.8005  -15.5548 C   0  0  0  0  0  0  0  0  0  0  0  0
   24.1263  -20.1371  -14.7931 O   0  0  0  0  0  0  0  0  0  0  0  0
   21.9314  -19.5036  -15.0080 N   0  0  0  0  0  0  0  0  0  0  0  0
   21.7532  -19.5383  -13.5830 C   0  0  0  0  0  0  0  0  0  0  0  0
   20.8610  -20.6837  -13.2642 C   0  0  0  0  0  0  0  0  0  0  0  0
   20.5491  -21.5481  -14.1267 O   0  0  0  0  0  0  0  0  0  0  0  0
   20.2996  -20.8834  -11.9697 N   0  0  0  0  0  0  0  0  0  0  0  0
   19.5209  -22.0625  -11.6335 C   0  0  1  0  0  0  0  0  0  0  0  0
   19.6292  -22.4502  -10.2034 C   0  0  0  0  0  0  0  0  0  0  0  0
   18.9067  -23.6651   -9.7653 C   0  0  0  0  0  0  0  0  0  0  0  0
   18.9293  -23.9699   -8.3051 C   0  0  0  0  0  0  0  0  0  0  0  0
   18.0885  -25.2357   -8.0524 C   0  0  0  0  0  0  0  0  0  0  0  0
   18.1663  -25.5346   -6.6344 N   0  0  0  0  0  0  0  0  0  0  0  0
   18.1430  -21.8326  -12.1212 C   0  0  0  0  0  0  0  0  0  0  0  0
   17.6303  -20.6901  -12.0409 O   0  0  0  0  0  0  0  0  0  0  0  0
   17.3717  -22.8435  -12.6744 O   0  0  0  0  0  0  0  0  0  0  0  0
  2  1  1  1
  3  2  1  0
  4  5  2  0
  4  2  1  0
  6  4  1  0
  7  6  1  0
  8  7  1  0
  9  8  2  0
 10  8  1  0
 11 12  1  1
 11 10  1  0
 12 13  1  0
 13 14  1  0
 14 15  1  0
 15 16  1  0
 17 11  1  0
 18 17  2  0
 19 17  1  0
M  END
$$$$
