AGK.pdb
     RDKit          3D

 19 18  0  0  1  0  0  0  0  0999 V2000
   18.9523  -23.3479  -13.8451 C   0  0  0  0  0  0  0  0  0  0  0  0
   20.2758  -23.0749  -14.5286 C   0  0  2  0  0  0  0  0  0  0  0  0
   21.2120  -24.1581  -14.3450 N   0  0  0  0  0  0  0  0  0  0  0  0
   20.8667  -21.8418  -13.9838 C   0  0  0  0  0  0  0  0  0  0  0  0
   20.2727  -20.7533  -14.1744 O   0  0  0  0  0  0  0  0  0  0  0  0
   22.0687  -21.8517  -13.2618 N   0  0  0  0  0  0  0  0  0  0  0  0
   22.6357  -20.6103  -12.8136 C   0  0  0  0  0  0  0  0  0  0  0  0
   23.9772  -20.4713  -13.4387 C   0  0  0  0  0  0  0  0  0  0  0  0
   25.0249  -20.3404  -12.7505 O   0  0  0  0  0  0  0  0  0  0  0  0
   24.1714  -20.4763  -14.8505 N   0  0  0  0  0  0  0  0  0  0  0  0
   25.4917  -20.5313  -15.4534 C   0  0  1  0  0  0  0  0  0  0  0  0
   26.0009  -21.9161  -15.6278 C   0  0  0  0  0  0  0  0  0  0  0  0
   27.3393  -22.0833  -16.2364 C   0  0  0  0  0  0  0  0  0  0  0  0
   27.8477  -23.4797  -16.3675 C   0  0  0  0  0  0  0  0  0  0  0  0
   29.2398  -23.4382  -17.0260 C   0  0  0  0  0  0  0  0  0  0  0  0
   29.7745  -24.7870  -16.9999 N   0  0  0  0  0  0  0  0  0  0  0  0
   25.4450  -19.7171  -16.6879 C   0  0  0  0  0  0  0  0  0  0  0  0
   26.4918  -19.1843  -17.1293 O   0  0  0  0  0  0  0  0  0  0  0  0
   24.2716  -19.5079  -17.3966 O   0  0  0  0  0  0  0  0  0  0  0  0
  2  1  1  1
  3  2  1  0
  4  5  2  0
  4  2  1  0
  6  4  1  0
  7  6  1  0
  8  7  1  0
  9  8  2  0
 10  8  1  0
 11 12  1  6
 11 10  1  0
 12 13  1  0
 13 14  1  0
 14 15  1  0
 15 16  1  0
 17 11  1  0
 18 17  2  0
 19 17  1  0
M  END
$$$$
