AGK.pdb
     RDKit          3D

 19 18  0  0  1  0  0  0  0  0999 V2000
   30.4462  -20.9268  -10.4961 C   0  0  0  0  0  0  0  0  0  0  0  0
   29.3924  -21.6207  -11.3333 C   0  0  2  0  0  0  0  0  0  0  0  0
   29.9577  -22.2412  -12.5076 N   0  0  0  0  0  0  0  0  0  0  0  0
   28.3773  -20.6428  -11.7576 C   0  0  0  0  0  0  0  0  0  0  0  0
   27.6530  -20.1082  -10.8837 O   0  0  0  0  0  0  0  0  0  0  0  0
   28.1997  -20.2954  -13.1043 N   0  0  0  0  0  0  0  0  0  0  0  0
   27.2131  -19.3129  -13.4579 C   0  0  0  0  0  0  0  0  0  0  0  0
   25.8885  -19.9871  -13.4819 C   0  0  0  0  0  0  0  0  0  0  0  0
   25.5727  -20.8079  -14.3846 O   0  0  0  0  0  0  0  0  0  0  0  0
   24.8896  -19.7540  -12.4927 N   0  0  0  0  0  0  0  0  0  0  0  0
   23.7169  -20.6003  -12.3575 C   0  0  1  0  0  0  0  0  0  0  0  0
   23.1925  -20.6605  -10.9688 C   0  0  0  0  0  0  0  0  0  0  0  0
   21.9569  -21.4408  -10.7353 C   0  0  0  0  0  0  0  0  0  0  0  0
   21.4193  -21.4465   -9.3437 C   0  0  0  0  0  0  0  0  0  0  0  0
   20.1766  -22.3557   -9.2987 C   0  0  0  0  0  0  0  0  0  0  0  0
   19.7103  -22.3886   -7.9248 N   0  0  0  0  0  0  0  0  0  0  0  0
   22.7410  -20.1653  -13.3811 C   0  0  0  0  0  0  0  0  0  0  0  0
   22.1149  -21.0186  -14.0553 O   0  0  0  0  0  0  0  0  0  0  0  0
   22.4802  -18.8280  -13.6389 O   0  0  0  0  0  0  0  0  0  0  0  0
  2  1  1  6
  3  2  1  0
  4  5  2  0
  4  2  1  0
  6  4  1  0
  7  6  1  0
  8  7  1  0
  9  8  2  0
 10  8  1  0
 11 12  1  1
 11 10  1  0
 12 13  1  0
 13 14  1  0
 14 15  1  0
 15 16  1  0
 17 11  1  0
 18 17  2  0
 19 17  1  0
M  END
$$$$
