AGK.pdb
     RDKit          3D

 19 18  0  0  1  0  0  0  0  0999 V2000
   23.7195  -18.0526  -17.4948 C   0  0  0  0  0  0  0  0  0  0  0  0
   22.6722  -19.0901  -17.1485 C   0  0  2  0  0  0  0  0  0  0  0  0
   21.3331  -18.5612  -17.2519 N   0  0  0  0  0  0  0  0  0  0  0  0
   22.8871  -19.5671  -15.7726 C   0  0  0  0  0  0  0  0  0  0  0  0
   23.9456  -20.1864  -15.5077 O   0  0  0  0  0  0  0  0  0  0  0  0
   21.9457  -19.3488  -14.7567 N   0  0  0  0  0  0  0  0  0  0  0  0
   22.1945  -19.8628  -13.4385 C   0  0  0  0  0  0  0  0  0  0  0  0
   21.2675  -21.0028  -13.2127 C   0  0  0  0  0  0  0  0  0  0  0  0
   21.0531  -21.8750  -14.0967 O   0  0  0  0  0  0  0  0  0  0  0  0
   20.5611  -21.1880  -11.9890 N   0  0  0  0  0  0  0  0  0  0  0  0
   19.7440  -22.3612  -11.7330 C   0  0  1  0  0  0  0  0  0  0  0  0
   19.7035  -22.7476  -10.2990 C   0  0  0  0  0  0  0  0  0  0  0  0
   18.8618  -23.9056   -9.9241 C   0  0  0  0  0  0  0  0  0  0  0  0
   18.8838  -24.3154   -8.4898 C   0  0  0  0  0  0  0  0  0  0  0  0
   17.9532  -25.5297   -8.3093 C   0  0  0  0  0  0  0  0  0  0  0  0
   17.9570  -25.8758   -6.9000 N   0  0  0  0  0  0  0  0  0  0  0  0
   18.4245  -22.1223  -12.3586 C   0  0  0  0  0  0  0  0  0  0  0  0
   17.8376  -23.0526  -12.9625 O   0  0  0  0  0  0  0  0  0  0  0  0
   17.7909  -20.8898  -12.3101 O   0  0  0  0  0  0  0  0  0  0  0  0
  2  1  1  1
  3  2  1  0
  4  5  2  0
  4  2  1  0
  6  4  1  0
  7  6  1  0
  8  7  1  0
  9  8  2  0
 10  8  1  0
 11 12  1  1
 11 10  1  0
 12 13  1  0
 13 14  1  0
 14 15  1  0
 15 16  1  0
 17 11  1  0
 18 17  2  0
 19 17  1  0
M  END
$$$$
