AGK.pdb
     RDKit          3D

 19 18  0  0  1  0  0  0  0  0999 V2000
   15.6856   -9.9825  -15.1825 C   0  0  0  0  0  0  0  0  0  0  0  0
   15.9204  -11.0454  -14.1298 C   0  0  2  0  0  0  0  0  0  0  0  0
   14.6819  -11.5605  -13.5967 N   0  0  0  0  0  0  0  0  0  0  0  0
   16.7112  -10.4787  -13.0251 C   0  0  0  0  0  0  0  0  0  0  0  0
   17.8597  -10.0375  -13.2704 O   0  0  0  0  0  0  0  0  0  0  0  0
   16.2174  -10.4195  -11.7141 N   0  0  0  0  0  0  0  0  0  0  0  0
   16.9816   -9.7486  -10.6994 C   0  0  0  0  0  0  0  0  0  0  0  0
   16.4754   -8.3547  -10.5963 C   0  0  0  0  0  0  0  0  0  0  0  0
   16.3372   -7.6173  -11.6089 O   0  0  0  0  0  0  0  0  0  0  0  0
   16.1135   -7.7586   -9.3536 N   0  0  0  0  0  0  0  0  0  0  0  0
   15.5215   -6.4348   -9.2695 C   0  0  1  0  0  0  0  0  0  0  0  0
   14.3723   -6.3636   -8.3307 C   0  0  0  0  0  0  0  0  0  0  0  0
   13.1845   -7.1916   -8.6363 C   0  0  0  0  0  0  0  0  0  0  0  0
   12.0317   -7.0853   -7.6952 C   0  0  0  0  0  0  0  0  0  0  0  0
   10.9192   -8.0402   -8.1681 C   0  0  0  0  0  0  0  0  0  0  0  0
    9.8279   -7.9428   -7.2166 N   0  0  0  0  0  0  0  0  0  0  0  0
   16.6182   -5.4799   -8.9965 C   0  0  0  0  0  0  0  0  0  0  0  0
   17.6508   -5.8636   -8.3956 O   0  0  0  0  0  0  0  0  0  0  0  0
   16.5576   -4.1487   -9.3803 O   0  0  0  0  0  0  0  0  0  0  0  0
  2  1  1  6
  3  2  1  0
  4  5  2  0
  4  2  1  0
  6  4  1  0
  7  6  1  0
  8  7  1  0
  9  8  2  0
 10  8  1  0
 11 12  1  1
 11 10  1  0
 12 13  1  0
 13 14  1  0
 14 15  1  0
 15 16  1  0
 17 11  1  0
 18 17  2  0
 19 17  1  0
M  END
$$$$
