AGK.pdb
     RDKit          3D

 19 18  0  0  1  0  0  0  0  0999 V2000
   15.5268  -10.5936  -16.2801 C   0  0  0  0  0  0  0  0  0  0  0  0
   16.9970  -10.4716  -15.9383 C   0  0  2  0  0  0  0  0  0  0  0  0
   17.2942  -11.0092  -14.6320 N   0  0  0  0  0  0  0  0  0  0  0  0
   17.3939   -9.0544  -15.9677 C   0  0  0  0  0  0  0  0  0  0  0  0
   17.3496   -8.4386  -17.0599 O   0  0  0  0  0  0  0  0  0  0  0  0
   17.8174   -8.3789  -14.8144 N   0  0  0  0  0  0  0  0  0  0  0  0
   18.1423   -6.9817  -14.8912 C   0  0  0  0  0  0  0  0  0  0  0  0
   19.5644   -6.8229  -14.4886 C   0  0  0  0  0  0  0  0  0  0  0  0
   20.2038   -7.7454  -13.9156 O   0  0  0  0  0  0  0  0  0  0  0  0
   20.2995   -5.6243  -14.7208 N   0  0  0  0  0  0  0  0  0  0  0  0
   21.7190   -5.5149  -14.4331 C   0  0  1  0  0  0  0  0  0  0  0  0
   22.4841   -4.8255  -15.5038 C   0  0  0  0  0  0  0  0  0  0  0  0
   22.5475   -5.4781  -16.8305 C   0  0  0  0  0  0  0  0  0  0  0  0
   23.4697   -6.6433  -16.9623 C   0  0  0  0  0  0  0  0  0  0  0  0
   23.2826   -7.2649  -18.3594 C   0  0  0  0  0  0  0  0  0  0  0  0
   24.0743   -8.4803  -18.4050 N   0  0  0  0  0  0  0  0  0  0  0  0
   21.8491   -4.9215  -13.0839 C   0  0  0  0  0  0  0  0  0  0  0  0
   22.9570   -4.9367  -12.4949 O   0  0  0  0  0  0  0  0  0  0  0  0
   20.7797   -4.3371  -12.4224 O   0  0  0  0  0  0  0  0  0  0  0  0
  2  1  1  1
  3  2  1  0
  4  5  2  0
  4  2  1  0
  6  4  1  0
  7  6  1  0
  8  7  1  0
  9  8  2  0
 10  8  1  0
 11 12  1  6
 11 10  1  0
 12 13  1  0
 13 14  1  0
 14 15  1  0
 15 16  1  0
 17 11  1  0
 18 17  2  0
 19 17  1  0
M  END
$$$$
