AGK.pdb
     RDKit          3D

 19 18  0  0  1  0  0  0  0  0999 V2000
   19.0851  -14.8979  -16.9903 C   0  0  0  0  0  0  0  0  0  0  0  0
   17.9699  -13.9777  -16.5402 C   0  0  2  0  0  0  0  0  0  0  0  0
   17.0934  -13.6184  -17.6295 N   0  0  0  0  0  0  0  0  0  0  0  0
   18.5449  -12.7481  -15.9709 C   0  0  0  0  0  0  0  0  0  0  0  0
   18.9906  -12.7778  -14.7985 O   0  0  0  0  0  0  0  0  0  0  0  0
   18.6073  -11.5521  -16.6999 N   0  0  0  0  0  0  0  0  0  0  0  0
   19.1198  -10.3660  -16.0721 C   0  0  0  0  0  0  0  0  0  0  0  0
   18.0897   -9.3020  -16.2011 C   0  0  0  0  0  0  0  0  0  0  0  0
   17.1502   -9.3794  -17.0375 O   0  0  0  0  0  0  0  0  0  0  0  0
   18.0923   -8.1279  -15.3934 N   0  0  0  0  0  0  0  0  0  0  0  0
   17.1237   -7.0602  -15.5708 C   0  0  1  0  0  0  0  0  0  0  0  0
   15.8616   -7.2807  -14.8186 C   0  0  0  0  0  0  0  0  0  0  0  0
   14.8443   -6.2067  -14.8559 C   0  0  0  0  0  0  0  0  0  0  0  0
   13.5839   -6.4490  -14.0953 C   0  0  0  0  0  0  0  0  0  0  0  0
   12.6362   -5.2552  -14.3179 C   0  0  0  0  0  0  0  0  0  0  0  0
   11.4221   -5.5168  -13.5671 N   0  0  0  0  0  0  0  0  0  0  0  0
   17.8166   -5.7858  -15.2790 C   0  0  0  0  0  0  0  0  0  0  0  0
   18.8433   -5.7795  -14.5577 O   0  0  0  0  0  0  0  0  0  0  0  0
   17.3743   -4.5686  -15.7747 O   0  0  0  0  0  0  0  0  0  0  0  0
  2  1  1  6
  3  2  1  0
  4  5  2  0
  4  2  1  0
  6  4  1  0
  7  6  1  0
  8  7  1  0
  9  8  2  0
 10  8  1  0
 11 12  1  1
 11 10  1  0
 12 13  1  0
 13 14  1  0
 14 15  1  0
 15 16  1  0
 17 11  1  0
 18 17  2  0
 19 17  1  0
M  END
$$$$
