AGK.pdb
     RDKit          3D

 19 18  0  0  1  0  0  0  0  0999 V2000
   29.3010  -20.0117  -11.6072 C   0  0  0  0  0  0  0  0  0  0  0  0
   28.3306  -21.1001  -12.0155 C   0  0  2  0  0  0  0  0  0  0  0  0
   28.7860  -21.8206  -13.1804 N   0  0  0  0  0  0  0  0  0  0  0  0
   27.0176  -20.5041  -12.3117 C   0  0  0  0  0  0  0  0  0  0  0  0
   26.4149  -19.8895  -11.3990 O   0  0  0  0  0  0  0  0  0  0  0  0
   26.4268  -20.6045  -13.5793 N   0  0  0  0  0  0  0  0  0  0  0  0
   25.1942  -19.9152  -13.8425 C   0  0  0  0  0  0  0  0  0  0  0  0
   24.1042  -20.9257  -13.8657 C   0  0  0  0  0  0  0  0  0  0  0  0
   24.3131  -22.1268  -14.1851 O   0  0  0  0  0  0  0  0  0  0  0  0
   22.7557  -20.6093  -13.5306 N   0  0  0  0  0  0  0  0  0  0  0  0
   21.7093  -21.6155  -13.4855 C   0  0  1  0  0  0  0  0  0  0  0  0
   20.9082  -21.5747  -12.2350 C   0  0  0  0  0  0  0  0  0  0  0  0
   20.3782  -22.8559  -11.7177 C   0  0  0  0  0  0  0  0  0  0  0  0
   19.5353  -22.7866  -10.4887 C   0  0  0  0  0  0  0  0  0  0  0  0
   18.9547  -24.1859  -10.2093 C   0  0  0  0  0  0  0  0  0  0  0  0
   18.1398  -24.0883   -9.0124 N   0  0  0  0  0  0  0  0  0  0  0  0
   20.9297  -21.4947  -14.7373 C   0  0  0  0  0  0  0  0  0  0  0  0
   20.8249  -20.3819  -15.3075 O   0  0  0  0  0  0  0  0  0  0  0  0
   20.2923  -22.5777  -15.3237 O   0  0  0  0  0  0  0  0  0  0  0  0
  2  1  1  6
  3  2  1  0
  4  5  2  0
  4  2  1  0
  6  4  1  0
  7  6  1  0
  8  7  1  0
  9  8  2  0
 10  8  1  0
 11 12  1  1
 11 10  1  0
 12 13  1  0
 13 14  1  0
 14 15  1  0
 15 16  1  0
 17 11  1  0
 18 17  2  0
 19 17  1  0
M  END
$$$$
