AGK.pdb
     RDKit          3D

 19 18  0  0  1  0  0  0  0  0999 V2000
   10.8041   -9.4501   -7.8018 C   0  0  0  0  0  0  0  0  0  0  0  0
   11.8314   -9.1557   -8.8746 C   0  0  2  0  0  0  0  0  0  0  0  0
   12.5090  -10.3513   -9.3163 N   0  0  0  0  0  0  0  0  0  0  0  0
   12.8321   -8.2107   -8.3527 C   0  0  0  0  0  0  0  0  0  0  0  0
   12.4521   -7.0734   -7.9834 O   0  0  0  0  0  0  0  0  0  0  0  0
   14.1902   -8.5461   -8.2581 N   0  0  0  0  0  0  0  0  0  0  0  0
   15.1300   -7.5673   -7.7865 C   0  0  0  0  0  0  0  0  0  0  0  0
   16.2516   -7.5078   -8.7604 C   0  0  0  0  0  0  0  0  0  0  0  0
   17.0601   -8.4632   -8.9078 O   0  0  0  0  0  0  0  0  0  0  0  0
   16.4894   -6.3739   -9.5901 N   0  0  0  0  0  0  0  0  0  0  0  0
   17.4251   -6.4057  -10.7006 C   0  0  1  0  0  0  0  0  0  0  0  0
   17.1803   -7.5276  -11.6433 C   0  0  0  0  0  0  0  0  0  0  0  0
   16.8854   -7.1872  -13.0529 C   0  0  0  0  0  0  0  0  0  0  0  0
   16.7007   -8.3292  -13.9950 C   0  0  0  0  0  0  0  0  0  0  0  0
   16.2963   -7.7716  -15.3728 C   0  0  0  0  0  0  0  0  0  0  0  0
   16.2500   -8.8884  -16.2984 N   0  0  0  0  0  0  0  0  0  0  0  0
   17.4272   -5.0583  -11.3119 C   0  0  0  0  0  0  0  0  0  0  0  0
   16.4090   -4.3295  -11.2301 O   0  0  0  0  0  0  0  0  0  0  0  0
   18.5259   -4.5506  -11.9887 O   0  0  0  0  0  0  0  0  0  0  0  0
  2  1  1  1
  3  2  1  0
  4  5  2  0
  4  2  1  0
  6  4  1  0
  7  6  1  0
  8  7  1  0
  9  8  2  0
 10  8  1  0
 11 12  1  6
 11 10  1  0
 12 13  1  0
 13 14  1  0
 14 15  1  0
 15 16  1  0
 17 11  1  0
 18 17  2  0
 19 17  1  0
M  END
$$$$
