QEY.pdb
     RDKit          3D

 31 31  0  0  1  0  0  0  0  0999 V2000
   23.0862  -12.6291  -22.1388 N   0  0  0  0  0  0  0  0  0  0  0  0
   24.4079  -12.5707  -21.6728 C   0  0  0  0  0  0  0  0  0  0  0  0
   25.2769  -13.2746  -22.2321 O   0  0  0  0  0  0  0  0  0  0  0  0
   24.7477  -11.7001  -20.5588 C   0  0  0  0  0  0  0  0  0  0  0  0
   23.6538  -10.8578  -19.9941 C   0  0  0  0  0  0  0  0  0  0  0  0
   22.7114  -11.5446  -19.0730 C   0  0  2  0  0  0  0  0  0  0  0  0
   22.0374  -12.6907  -19.5698 N   0  0  0  0  0  0  0  0  0  0  0  0
   21.7815  -10.5301  -18.4929 C   0  0  0  0  0  0  0  0  0  0  0  0
   20.8400  -10.1496  -19.2363 O   0  0  0  0  0  0  0  0  0  0  0  0
   21.8851   -9.9861  -17.2025 N   0  0  0  0  0  0  0  0  0  0  0  0
   20.8866   -9.0462  -16.6446 C   0  0  1  0  0  0  0  0  0  0  0  0
   19.9010   -9.7785  -15.8072 C   0  0  0  0  0  0  0  0  0  0  0  0
   18.8248   -8.8635  -15.2988 C   0  0  0  0  0  0  0  0  0  0  0  0
   17.8886   -9.6677  -14.4637 C   0  0  0  0  0  0  0  0  0  0  0  0
   18.0578  -10.8711  -14.1654 O   0  0  0  0  0  0  0  0  0  0  0  0
   21.6543   -8.0396  -15.8664 C   0  0  0  0  0  0  0  0  0  0  0  0
   22.5784   -8.3555  -15.0815 O   0  0  0  0  0  0  0  0  0  0  0  0
   16.7350   -9.0364  -13.9741 O   0  0  0  0  0  0  0  0  0  0  0  0
   26.3832   -6.6904  -19.9369 O   0  0  0  0  0  0  0  0  0  0  0  0
   25.5564   -6.2139  -18.9332 C   0  0  0  0  0  0  0  0  0  0  0  0
   25.8593   -6.2423  -17.6062 C   0  0  0  0  0  0  0  0  0  0  0  0
   25.0415   -5.7702  -16.6055 C   0  0  0  0  0  0  0  0  0  0  0  0
   23.8094   -5.2188  -16.9490 C   0  0  0  0  0  0  0  0  0  0  0  0
   22.8422   -4.6812  -15.9823 C   0  0  0  0  0  0  0  0  0  0  0  0
   22.1261   -5.6865  -15.1495 C   0  0  2  0  0  0  0  0  0  0  0  0
   21.3931   -6.6443  -15.9604 N   0  0  0  0  0  0  0  0  0  0  0  0
   21.2426   -5.0030  -14.1814 C   0  0  0  0  0  0  0  0  0  0  0  0
   21.7379   -4.1147  -13.2246 O   0  0  0  0  0  0  0  0  0  0  0  0
   23.4808   -5.1817  -18.3131 C   0  0  0  0  0  0  0  0  0  0  0  0
   24.3246   -5.6639  -19.2888 C   0  0  0  0  0  0  0  0  0  0  0  0
   20.0066   -5.1814  -14.1645 O   0  0  0  0  0  0  0  0  0  0  0  0
  2  1  1  0
  3  2  2  0
  4  2  1  0
  5  4  1  0
  6  7  1  6
  6  5  1  0
  8  6  1  0
  9  8  2  0
 10  8  1  0
 11 10  1  0
 11 12  1  1
 13 12  1  0
 14 13  1  0
 14 15  2  0
 16 26  1  0
 16 11  1  0
 17 16  2  0
 18 14  1  0
 20 21  2  0
 20 19  1  0
 22 21  1  0
 23 22  2  0
 24 23  1  0
 25 24  1  6
 25 26  1  0
 27 28  1  0
 27 25  1  0
 29 23  1  0
 29 30  2  0
 30 20  1  0
 31 27  2  0
M  END
$$$$
