QEY.pdb
     RDKit          3D

 31 31  0  0  1  0  0  0  0  0999 V2000
   14.7101   -8.6404  -17.0721 N   0  0  0  0  0  0  0  0  0  0  0  0
   13.8615   -9.5153  -16.3780 C   0  0  0  0  0  0  0  0  0  0  0  0
   12.6889   -9.6683  -16.7844 O   0  0  0  0  0  0  0  0  0  0  0  0
   14.3513  -10.2275  -15.2087 C   0  0  0  0  0  0  0  0  0  0  0  0
   15.7700   -9.9922  -14.8124 C   0  0  0  0  0  0  0  0  0  0  0  0
   16.7689  -10.9397  -15.3715 C   0  0  2  0  0  0  0  0  0  0  0  0
   16.6723  -12.2973  -14.9686 N   0  0  0  0  0  0  0  0  0  0  0  0
   18.1351  -10.3707  -15.1721 C   0  0  0  0  0  0  0  0  0  0  0  0
   18.7568  -10.7624  -14.1503 O   0  0  0  0  0  0  0  0  0  0  0  0
   18.7580   -9.4497  -16.0297 N   0  0  0  0  0  0  0  0  0  0  0  0
   20.1510   -8.9872  -15.8362 C   0  0  1  0  0  0  0  0  0  0  0  0
   21.0118   -9.4641  -16.9500 C   0  0  0  0  0  0  0  0  0  0  0  0
   22.4202   -8.9636  -16.8087 C   0  0  0  0  0  0  0  0  0  0  0  0
   23.2117   -9.4738  -17.9637 C   0  0  0  0  0  0  0  0  0  0  0  0
   23.6961  -10.6251  -18.0397 O   0  0  0  0  0  0  0  0  0  0  0  0
   20.0890   -7.5042  -15.7630 C   0  0  0  0  0  0  0  0  0  0  0  0
   19.3309   -6.8241  -16.4927 O   0  0  0  0  0  0  0  0  0  0  0  0
   23.4321   -8.6072  -19.0450 O   0  0  0  0  0  0  0  0  0  0  0  0
   21.7865    0.9645  -13.5468 O   0  0  0  0  0  0  0  0  0  0  0  0
   21.6289   -0.4114  -13.5561 C   0  0  0  0  0  0  0  0  0  0  0  0
   20.4547   -1.0547  -13.3097 C   0  0  0  0  0  0  0  0  0  0  0  0
   20.2930   -2.4210  -13.3178 C   0  0  0  0  0  0  0  0  0  0  0  0
   21.3952   -3.2262  -13.5955 C   0  0  0  0  0  0  0  0  0  0  0  0
   21.3616   -4.6947  -13.6345 C   0  0  0  0  0  0  0  0  0  0  0  0
   20.9422   -5.3026  -14.9274 C   0  0  2  0  0  0  0  0  0  0  0  0
   20.8871   -6.7531  -14.8559 N   0  0  0  0  0  0  0  0  0  0  0  0
   21.8334   -4.8439  -16.0137 C   0  0  0  0  0  0  0  0  0  0  0  0
   21.4731   -3.8115  -16.8822 O   0  0  0  0  0  0  0  0  0  0  0  0
   22.6141   -2.5793  -13.8520 C   0  0  0  0  0  0  0  0  0  0  0  0
   22.7396   -1.2080  -13.8354 C   0  0  0  0  0  0  0  0  0  0  0  0
   22.9560   -5.3527  -16.2156 O   0  0  0  0  0  0  0  0  0  0  0  0
  2  1  1  0
  3  2  2  0
  4  2  1  0
  5  4  1  0
  6  7  1  1
  6  5  1  0
  8  6  1  0
  9  8  2  0
 10  8  1  0
 11 10  1  0
 11 12  1  6
 13 12  1  0
 14 13  1  0
 14 15  2  0
 16 26  1  0
 16 11  1  0
 17 16  2  0
 18 14  1  0
 20 21  2  0
 20 19  1  0
 22 21  1  0
 23 22  2  0
 24 23  1  0
 25 24  1  1
 25 26  1  0
 27 28  1  0
 27 25  1  0
 29 23  1  0
 29 30  2  0
 30 20  1  0
 31 27  2  0
M  END
$$$$
