QEY.pdb
     RDKit          3D

 31 31  0  0  1  0  0  0  0  0999 V2000
   19.3836  -15.9893  -16.3338 N   0  0  0  0  0  0  0  0  0  0  0  0
   19.4851  -15.4748  -17.6347 C   0  0  0  0  0  0  0  0  0  0  0  0
   19.2783  -16.2378  -18.6035 O   0  0  0  0  0  0  0  0  0  0  0  0
   19.8234  -14.0753  -17.8382 C   0  0  0  0  0  0  0  0  0  0  0  0
   20.0715  -13.2504  -16.6204 C   0  0  0  0  0  0  0  0  0  0  0  0
   19.1185  -12.1351  -16.3830 C   0  0  2  0  0  0  0  0  0  0  0  0
   17.8087  -12.2771  -16.9112 N   0  0  0  0  0  0  0  0  0  0  0  0
   19.7704  -10.8527  -16.7838 C   0  0  0  0  0  0  0  0  0  0  0  0
   21.0243  -10.8755  -16.8890 O   0  0  0  0  0  0  0  0  0  0  0  0
   19.0925   -9.6512  -17.0461 N   0  0  0  0  0  0  0  0  0  0  0  0
   19.7938   -8.3838  -17.3518 C   0  0  1  0  0  0  0  0  0  0  0  0
   18.8889   -7.4571  -18.0808 C   0  0  0  0  0  0  0  0  0  0  0  0
   17.7074   -7.0684  -17.2400 C   0  0  0  0  0  0  0  0  0  0  0  0
   16.9619   -5.9948  -17.9559 C   0  0  0  0  0  0  0  0  0  0  0  0
   17.4310   -4.8687  -18.2343 O   0  0  0  0  0  0  0  0  0  0  0  0
   20.2388   -7.8308  -16.0462 C   0  0  0  0  0  0  0  0  0  0  0  0
   19.7463   -8.1993  -14.9547 O   0  0  0  0  0  0  0  0  0  0  0  0
   15.6410   -6.2597  -18.3482 O   0  0  0  0  0  0  0  0  0  0  0  0
   26.5579  -10.4319  -16.1328 O   0  0  0  0  0  0  0  0  0  0  0  0
   25.5425   -9.6516  -15.6054 C   0  0  0  0  0  0  0  0  0  0  0  0
   25.2656   -8.3778  -15.9984 C   0  0  0  0  0  0  0  0  0  0  0  0
   24.2583   -7.5987  -15.4778 C   0  0  0  0  0  0  0  0  0  0  0  0
   23.4493   -8.1284  -14.4751 C   0  0  0  0  0  0  0  0  0  0  0  0
   22.3426   -7.4058  -13.8332 C   0  0  0  0  0  0  0  0  0  0  0  0
   21.6955   -6.3444  -14.6527 C   0  0  2  0  0  0  0  0  0  0  0  0
   21.2582   -6.8437  -15.9456 N   0  0  0  0  0  0  0  0  0  0  0  0
   22.6072   -5.1896  -14.7944 C   0  0  0  0  0  0  0  0  0  0  0  0
   22.9696   -4.6800  -16.0430 O   0  0  0  0  0  0  0  0  0  0  0  0
   23.7208   -9.4406  -14.0578 C   0  0  0  0  0  0  0  0  0  0  0  0
   24.7386  -10.1923  -14.6017 C   0  0  0  0  0  0  0  0  0  0  0  0
   23.1038   -4.6063  -13.8080 O   0  0  0  0  0  0  0  0  0  0  0  0
  2  1  1  0
  3  2  2  0
  4  2  1  0
  5  4  1  0
  6  7  1  6
  6  5  1  0
  8  6  1  0
  9  8  2  0
 10  8  1  0
 11 10  1  0
 11 12  1  1
 13 12  1  0
 14 13  1  0
 14 15  2  0
 16 26  1  0
 16 11  1  0
 17 16  2  0
 18 14  1  0
 20 21  2  0
 20 19  1  0
 22 21  1  0
 23 22  2  0
 24 23  1  0
 25 24  1  6
 25 26  1  0
 27 28  1  0
 27 25  1  0
 29 23  1  0
 29 30  2  0
 30 20  1  0
 31 27  2  0
M  END
$$$$
