QEY.pdb
     RDKit          3D

 31 31  0  0  1  0  0  0  0  0999 V2000
   28.6621  -17.8423  -17.5254 N   0  0  0  0  0  0  0  0  0  0  0  0
   28.4991  -17.0319  -18.6586 C   0  0  0  0  0  0  0  0  0  0  0  0
   29.4883  -16.8127  -19.3913 O   0  0  0  0  0  0  0  0  0  0  0  0
   27.1956  -16.4651  -18.9651 C   0  0  0  0  0  0  0  0  0  0  0  0
   26.0748  -16.7930  -18.0370 C   0  0  0  0  0  0  0  0  0  0  0  0
   25.7038  -18.2290  -17.9444 C   0  0  2  0  0  0  0  0  0  0  0  0
   25.9256  -19.0321  -19.0936 N   0  0  0  0  0  0  0  0  0  0  0  0
   24.3075  -18.3319  -17.4248 C   0  0  0  0  0  0  0  0  0  0  0  0
   23.8789  -17.3384  -16.7820 O   0  0  0  0  0  0  0  0  0  0  0  0
   23.4605  -19.4377  -17.6026 N   0  0  0  0  0  0  0  0  0  0  0  0
   22.1179  -19.5283  -16.9855 C   0  0  1  0  0  0  0  0  0  0  0  0
   21.2278  -20.3852  -17.8115 C   0  0  0  0  0  0  0  0  0  0  0  0
   20.8950  -19.7301  -19.1208 C   0  0  0  0  0  0  0  0  0  0  0  0
   19.9667  -20.6271  -19.8654 C   0  0  0  0  0  0  0  0  0  0  0  0
   18.7221  -20.4992  -19.8896 O   0  0  0  0  0  0  0  0  0  0  0  0
   22.3253  -20.0772  -15.6202 C   0  0  0  0  0  0  0  0  0  0  0  0
   23.4237  -20.5462  -15.2416 O   0  0  0  0  0  0  0  0  0  0  0  0
   20.5213  -21.6913  -20.5927 O   0  0  0  0  0  0  0  0  0  0  0  0
   23.6916  -20.8898   -7.1990 O   0  0  0  0  0  0  0  0  0  0  0  0
   23.4705  -20.6165   -8.5386 C   0  0  0  0  0  0  0  0  0  0  0  0
   24.3099  -20.9772   -9.5479 C   0  0  0  0  0  0  0  0  0  0  0  0
   24.0947  -20.7082  -10.8799 C   0  0  0  0  0  0  0  0  0  0  0  0
   22.9421  -20.0182  -11.2482 C   0  0  0  0  0  0  0  0  0  0  0  0
   22.5920  -19.6656  -12.6310 C   0  0  0  0  0  0  0  0  0  0  0  0
   21.5553  -20.5164  -13.2776 C   0  0  2  0  0  0  0  0  0  0  0  0
   21.2887  -20.1065  -14.6462 N   0  0  0  0  0  0  0  0  0  0  0  0
   20.3237  -20.5206  -12.4603 C   0  0  0  0  0  0  0  0  0  0  0  0
   19.1643  -19.8547  -12.8631 O   0  0  0  0  0  0  0  0  0  0  0  0
   22.0654  -19.6385  -10.2200 C   0  0  0  0  0  0  0  0  0  0  0  0
   22.3129  -19.9248   -8.8958 C   0  0  0  0  0  0  0  0  0  0  0  0
   20.2509  -21.1182  -11.3660 O   0  0  0  0  0  0  0  0  0  0  0  0
  2  1  1  0
  3  2  2  0
  4  2  1  0
  5  4  1  0
  6  7  1  6
  6  5  1  0
  8  6  1  0
  9  8  2  0
 10  8  1  0
 11 10  1  0
 11 12  1  6
 13 12  1  0
 14 13  1  0
 14 15  2  0
 16 26  1  0
 16 11  1  0
 17 16  2  0
 18 14  1  0
 20 21  2  0
 20 19  1  0
 22 21  1  0
 23 22  2  0
 24 23  1  0
 25 24  1  1
 25 26  1  0
 27 28  1  0
 27 25  1  0
 29 23  1  0
 29 30  2  0
 30 20  1  0
 31 27  2  0
M  END
$$$$
