QEY.pdb
     RDKit          3D

 31 31  0  0  1  0  0  0  0  0999 V2000
   24.1850  -17.6690  -14.8541 N   0  0  0  0  0  0  0  0  0  0  0  0
   25.4366  -17.5551  -15.4769 C   0  0  0  0  0  0  0  0  0  0  0  0
   26.2595  -18.4884  -15.3536 O   0  0  0  0  0  0  0  0  0  0  0  0
   25.7572  -16.3671  -16.2516 C   0  0  0  0  0  0  0  0  0  0  0  0
   24.7194  -15.2978  -16.3201 C   0  0  0  0  0  0  0  0  0  0  0  0
   24.1606  -15.0168  -17.6681 C   0  0  2  0  0  0  0  0  0  0  0  0
   25.0339  -15.1667  -18.7769 N   0  0  0  0  0  0  0  0  0  0  0  0
   23.4819  -13.6869  -17.6392 C   0  0  0  0  0  0  0  0  0  0  0  0
   24.2269  -12.6798  -17.7592 O   0  0  0  0  0  0  0  0  0  0  0  0
   22.0994  -13.4903  -17.4914 N   0  0  0  0  0  0  0  0  0  0  0  0
   21.4725  -12.1493  -17.5088 C   0  0  1  0  0  0  0  0  0  0  0  0
   20.0107  -12.2668  -17.7499 C   0  0  0  0  0  0  0  0  0  0  0  0
   19.3329  -10.9290  -17.6782 C   0  0  0  0  0  0  0  0  0  0  0  0
   17.8758  -11.1342  -17.9137 C   0  0  0  0  0  0  0  0  0  0  0  0
   17.0357  -10.2122  -18.0137 O   0  0  0  0  0  0  0  0  0  0  0  0
   21.7818  -11.5300  -16.1938 C   0  0  0  0  0  0  0  0  0  0  0  0
   21.7474  -12.1746  -15.1200 O   0  0  0  0  0  0  0  0  0  0  0  0
   17.4071  -12.4514  -18.0331 O   0  0  0  0  0  0  0  0  0  0  0  0
   28.0954   -8.7796  -17.6741 O   0  0  0  0  0  0  0  0  0  0  0  0
   26.9999   -8.9748  -16.8496 C   0  0  0  0  0  0  0  0  0  0  0  0
   25.9527   -8.1115  -16.7414 C   0  0  0  0  0  0  0  0  0  0  0  0
   24.8623   -8.3009  -15.9240 C   0  0  0  0  0  0  0  0  0  0  0  0
   24.8018   -9.4510  -15.1405 C   0  0  0  0  0  0  0  0  0  0  0  0
   23.6987   -9.7748  -14.2255 C   0  0  0  0  0  0  0  0  0  0  0  0
   22.3255   -9.5523  -14.7562 C   0  0  2  0  0  0  0  0  0  0  0  0
   22.1407  -10.1595  -16.0636 N   0  0  0  0  0  0  0  0  0  0  0  0
   22.0213   -8.1060  -14.7792 C   0  0  0  0  0  0  0  0  0  0  0  0
   21.7477   -7.4247  -15.9670 O   0  0  0  0  0  0  0  0  0  0  0  0
   25.8733  -10.3521  -15.2396 C   0  0  0  0  0  0  0  0  0  0  0  0
   26.9499  -10.1301  -16.0693 C   0  0  0  0  0  0  0  0  0  0  0  0
   21.9922   -7.4135  -13.7402 O   0  0  0  0  0  0  0  0  0  0  0  0
  2  1  1  0
  3  2  2  0
  4  2  1  0
  5  4  1  0
  6  7  1  6
  6  5  1  0
  8  6  1  0
  9  8  2  0
 10  8  1  0
 11 10  1  0
 11 12  1  1
 13 12  1  0
 14 13  1  0
 14 15  2  0
 16 26  1  0
 16 11  1  0
 17 16  2  0
 18 14  1  0
 20 21  2  0
 20 19  1  0
 22 21  1  0
 23 22  2  0
 24 23  1  0
 25 24  1  6
 25 26  1  0
 27 28  1  0
 27 25  1  0
 29 23  1  0
 29 30  2  0
 30 20  1  0
 31 27  2  0
M  END
$$$$
