QEY.pdb
     RDKit          3D

 31 31  0  0  1  0  0  0  0  0999 V2000
   14.5638  -12.4262  -15.2373 N   0  0  0  0  0  0  0  0  0  0  0  0
   14.7192  -12.0574  -16.5816 C   0  0  0  0  0  0  0  0  0  0  0  0
   14.0451  -12.6502  -17.4521 O   0  0  0  0  0  0  0  0  0  0  0  0
   15.6503  -11.0003  -16.9421 C   0  0  0  0  0  0  0  0  0  0  0  0
   16.2743  -10.2323  -15.8259 C   0  0  0  0  0  0  0  0  0  0  0  0
   17.7564  -10.2965  -15.7389 C   0  0  2  0  0  0  0  0  0  0  0  0
   18.3646  -11.5618  -15.9480 N   0  0  0  0  0  0  0  0  0  0  0  0
   18.1916   -9.6461  -14.4671 C   0  0  0  0  0  0  0  0  0  0  0  0
   18.1092  -10.3492  -13.4265 O   0  0  0  0  0  0  0  0  0  0  0  0
   18.6765   -8.3328  -14.3579 N   0  0  0  0  0  0  0  0  0  0  0  0
   19.1677   -7.7614  -13.0836 C   0  0  1  0  0  0  0  0  0  0  0  0
   20.1884   -6.7140  -13.3480 C   0  0  0  0  0  0  0  0  0  0  0  0
   20.7496   -6.1591  -12.0708 C   0  0  0  0  0  0  0  0  0  0  0  0
   21.7234   -5.0864  -12.4196 C   0  0  0  0  0  0  0  0  0  0  0  0
   22.8286   -5.2827  -12.9727 O   0  0  0  0  0  0  0  0  0  0  0  0
   17.9728   -7.2238  -12.3825 C   0  0  0  0  0  0  0  0  0  0  0  0
   17.1052   -6.5308  -12.9629 O   0  0  0  0  0  0  0  0  0  0  0  0
   21.3825   -3.7611  -12.1089 O   0  0  0  0  0  0  0  0  0  0  0  0
   11.1279   -6.4257   -6.8047 O   0  0  0  0  0  0  0  0  0  0  0  0
   12.2393   -6.8040   -7.5393 C   0  0  0  0  0  0  0  0  0  0  0  0
   12.2861   -6.8485   -8.8992 C   0  0  0  0  0  0  0  0  0  0  0  0
   13.3876   -7.2234   -9.6335 C   0  0  0  0  0  0  0  0  0  0  0  0
   14.5512   -7.5883   -8.9603 C   0  0  0  0  0  0  0  0  0  0  0  0
   15.7945   -8.0096   -9.6204 C   0  0  0  0  0  0  0  0  0  0  0  0
   16.5390   -6.9449  -10.3478 C   0  0  2  0  0  0  0  0  0  0  0  0
   17.7304   -7.4610  -11.0009 N   0  0  0  0  0  0  0  0  0  0  0  0
   16.8601   -5.8342   -9.4269 C   0  0  0  0  0  0  0  0  0  0  0  0
   18.1751   -5.5093   -9.0873 O   0  0  0  0  0  0  0  0  0  0  0  0
   14.5205   -7.5481   -7.5577 C   0  0  0  0  0  0  0  0  0  0  0  0
   13.3992   -7.1674   -6.8546 C   0  0  0  0  0  0  0  0  0  0  0  0
   15.9757   -5.1257   -8.9019 O   0  0  0  0  0  0  0  0  0  0  0  0
  2  1  1  0
  3  2  2  0
  4  2  1  0
  5  4  1  0
  6  7  1  1
  6  5  1  0
  8  6  1  0
  9  8  2  0
 10  8  1  0
 11 10  1  0
 11 12  1  6
 13 12  1  0
 14 13  1  0
 14 15  2  0
 16 26  1  0
 16 11  1  0
 17 16  2  0
 18 14  1  0
 20 21  2  0
 20 19  1  0
 22 21  1  0
 23 22  2  0
 24 23  1  0
 25 24  1  1
 25 26  1  0
 27 28  1  0
 27 25  1  0
 29 23  1  0
 29 30  2  0
 30 20  1  0
 31 27  2  0
M  END
$$$$
