QEY.pdb
     RDKit          3D

 31 31  0  0  1  0  0  0  0  0999 V2000
   22.4205  -32.8919  -10.0358 N   0  0  0  0  0  0  0  0  0  0  0  0
   23.5391  -32.4578  -10.7622 C   0  0  0  0  0  0  0  0  0  0  0  0
   23.3733  -32.0189  -11.9212 O   0  0  0  0  0  0  0  0  0  0  0  0
   24.8630  -32.5206  -10.1639 C   0  0  0  0  0  0  0  0  0  0  0  0
   24.9641  -33.0989   -8.7926 C   0  0  0  0  0  0  0  0  0  0  0  0
   25.7803  -34.3340   -8.6644 C   0  0  2  0  0  0  0  0  0  0  0  0
   25.4792  -35.4054   -9.5454 N   0  0  0  0  0  0  0  0  0  0  0  0
   25.8006  -34.7498   -7.2302 C   0  0  0  0  0  0  0  0  0  0  0  0
   24.8208  -35.4342   -6.8359 O   0  0  0  0  0  0  0  0  0  0  0  0
   26.8174  -34.4359   -6.3140 N   0  0  0  0  0  0  0  0  0  0  0  0
   26.8729  -35.0067   -4.9492 C   0  0  1  0  0  0  0  0  0  0  0  0
   28.2005  -34.7448   -4.3346 C   0  0  0  0  0  0  0  0  0  0  0  0
   28.3021  -35.3541   -2.9662 C   0  0  0  0  0  0  0  0  0  0  0  0
   29.6544  -35.0465   -2.4209 C   0  0  0  0  0  0  0  0  0  0  0  0
   30.5154  -34.3522   -3.0062 O   0  0  0  0  0  0  0  0  0  0  0  0
   25.7626  -34.3746   -4.1901 C   0  0  0  0  0  0  0  0  0  0  0  0
   25.4654  -33.1637   -4.3128 O   0  0  0  0  0  0  0  0  0  0  0  0
   29.9916  -35.5690   -1.1630 O   0  0  0  0  0  0  0  0  0  0  0  0
   18.3357  -32.0369   -0.2897 O   0  0  0  0  0  0  0  0  0  0  0  0
   19.3714  -32.6758   -0.9509 C   0  0  0  0  0  0  0  0  0  0  0  0
   19.8102  -33.9323   -0.6644 C   0  0  0  0  0  0  0  0  0  0  0  0
   20.8384  -34.5713   -1.3183 C   0  0  0  0  0  0  0  0  0  0  0  0
   21.4937  -33.9057   -2.3517 C   0  0  0  0  0  0  0  0  0  0  0  0
   22.6056  -34.4702   -3.1290 C   0  0  0  0  0  0  0  0  0  0  0  0
   23.9413  -34.4394   -2.4719 C   0  0  2  0  0  0  0  0  0  0  0  0
   24.9579  -35.1034   -3.2707 N   0  0  0  0  0  0  0  0  0  0  0  0
   23.8501  -35.0188   -1.1151 C   0  0  0  0  0  0  0  0  0  0  0  0
   23.5053  -34.2492   -0.0020 O   0  0  0  0  0  0  0  0  0  0  0  0
   21.0540  -32.6091   -2.6604 C   0  0  0  0  0  0  0  0  0  0  0  0
   20.0205  -31.9997   -1.9842 C   0  0  0  0  0  0  0  0  0  0  0  0
   24.0758  -36.2260   -0.8883 O   0  0  0  0  0  0  0  0  0  0  0  0
  2  1  1  0
  3  2  2  0
  4  2  1  0
  5  4  1  0
  6  7  1  6
  6  5  1  0
  8  6  1  0
  9  8  2  0
 10  8  1  0
 11 10  1  0
 11 12  1  1
 13 12  1  0
 14 13  1  0
 14 15  2  0
 16 26  1  0
 16 11  1  0
 17 16  2  0
 18 14  1  0
 20 21  2  0
 20 19  1  0
 22 21  1  0
 23 22  2  0
 24 23  1  0
 25 24  1  6
 25 26  1  0
 27 28  1  0
 27 25  1  0
 29 23  1  0
 29 30  2  0
 30 20  1  0
 31 27  2  0
M  END
$$$$
