LKE.pdb
     RDKit          3D

 27 26  0  0  1  0  0  0  0  0999 V2000
    6.9658  -12.2273   19.0609 C   0  0  0  0  0  0  0  0  0  0  0  0
    7.7299  -13.5131   19.3294 C   0  0  1  0  0  0  0  0  0  0  0  0
    9.1504  -13.2692   18.8114 C   0  0  0  0  0  0  0  0  0  0  0  0
    7.7208  -13.7883   20.7880 C   0  0  0  0  0  0  0  0  0  0  0  0
    8.4590  -15.0575   21.1128 C   0  0  2  0  0  0  0  0  0  0  0  0
    7.8800  -16.1088   20.2518 N   0  0  0  0  0  0  0  0  0  0  0  0
    8.3283  -15.4522   22.5308 C   0  0  0  0  0  0  0  0  0  0  0  0
    8.7408  -14.7025   23.4420 O   0  0  0  0  0  0  0  0  0  0  0  0
    7.7301  -16.6905   22.8561 N   0  0  0  0  0  0  0  0  0  0  0  0
    7.6813  -17.1616   24.2220 C   0  0  1  0  0  0  0  0  0  0  0  0
    6.4189  -17.9659   24.3546 C   0  0  0  0  0  0  0  0  0  0  0  0
    5.6680  -18.1881   23.0873 C   0  0  0  0  0  0  0  0  0  0  0  0
    5.3869  -19.6890   22.9885 C   0  0  0  0  0  0  0  0  0  0  0  0
    4.6237  -20.0062   21.7215 C   0  0  0  0  0  0  0  0  0  0  0  0
    4.4406  -21.4429   21.6468 N   0  0  0  0  0  0  0  0  0  0  0  0
    8.9117  -17.9278   24.5072 C   0  0  0  0  0  0  0  0  0  0  0  0
    9.2456  -18.8581   23.7655 O   0  0  0  0  0  0  0  0  0  0  0  0
    9.7135  -17.6091   25.6204 N   0  0  0  0  0  0  0  0  0  0  0  0
   10.9702  -18.2778   25.9422 C   0  0  1  0  0  0  0  0  0  0  0  0
   12.1463  -17.4318   25.6535 C   0  0  0  0  0  0  0  0  0  0  0  0
   12.3281  -17.0769   24.2282 C   0  0  0  0  0  0  0  0  0  0  0  0
   13.4759  -16.2234   23.9070 C   0  0  0  0  0  0  0  0  0  0  0  0
   14.2191  -15.7949   24.8147 O   0  0  0  0  0  0  0  0  0  0  0  0
   10.9075  -18.7240   27.3559 C   0  0  0  0  0  0  0  0  0  0  0  0
    9.9426  -18.4108   28.0787 O   0  0  0  0  0  0  0  0  0  0  0  0
   13.7758  -15.8650   22.6047 O   0  0  0  0  0  0  0  0  0  0  0  0
   11.9049  -19.4908   27.9014 O   0  0  0  0  0  0  0  0  0  0  0  0
  2  1  1  1
  3  2  1  0
  4  2  1  0
  4  5  1  0
  5  6  1  6
  7  8  2  0
  7  5  1  0
  9  7  1  0
 10  9  1  0
 10 11  1  6
 12 11  1  0
 13 12  1  0
 14 13  1  0
 15 14  1  0
 16 10  1  0
 17 16  2  0
 18 16  1  0
 19 18  1  0
 19 20  1  1
 20 21  1  0
 21 22  1  0
 22 26  1  0
 23 22  2  0
 24 27  1  0
 24 19  1  0
 25 24  2  0
M  END
$$$$
