LKE.pdb
     RDKit          3D

 27 26  0  0  1  0  0  0  0  0999 V2000
    7.1187  -11.4150   27.6154 C   0  0  0  0  0  0  0  0  0  0  0  0
    6.2398  -12.4374   26.9144 C   0  0  1  0  0  0  0  0  0  0  0  0
    5.4029  -11.6452   25.9056 C   0  0  0  0  0  0  0  0  0  0  0  0
    7.1028  -13.4393   26.2400 C   0  0  0  0  0  0  0  0  0  0  0  0
    6.2862  -14.4338   25.4621 C   0  0  2  0  0  0  0  0  0  0  0  0
    5.6356  -15.3094   26.4580 N   0  0  0  0  0  0  0  0  0  0  0  0
    7.1016  -15.2530   24.5414 C   0  0  0  0  0  0  0  0  0  0  0  0
    7.6793  -16.2844   24.9474 O   0  0  0  0  0  0  0  0  0  0  0  0
    7.2273  -14.8631   23.1890 N   0  0  0  0  0  0  0  0  0  0  0  0
    8.0189  -15.6358   22.2583 C   0  0  1  0  0  0  0  0  0  0  0  0
    7.8554  -14.9872   20.9126 C   0  0  0  0  0  0  0  0  0  0  0  0
    8.7009  -15.5534   19.8246 C   0  0  0  0  0  0  0  0  0  0  0  0
    8.0085  -16.8267   19.3336 C   0  0  0  0  0  0  0  0  0  0  0  0
    8.7991  -17.4652   18.2131 C   0  0  0  0  0  0  0  0  0  0  0  0
    8.5694  -16.7030   17.0009 N   0  0  0  0  0  0  0  0  0  0  0  0
    9.4156  -15.6758   22.7375 C   0  0  0  0  0  0  0  0  0  0  0  0
    9.9877  -14.6291   23.0608 O   0  0  0  0  0  0  0  0  0  0  0  0
   10.1073  -16.8990   22.8313 N   0  0  0  0  0  0  0  0  0  0  0  0
   11.4768  -17.0297   23.3186 C   0  0  1  0  0  0  0  0  0  0  0  0
   11.6294  -18.1485   24.2712 C   0  0  0  0  0  0  0  0  0  0  0  0
   13.0001  -18.3434   24.7943 C   0  0  0  0  0  0  0  0  0  0  0  0
   13.1910  -19.4528   25.7334 C   0  0  0  0  0  0  0  0  0  0  0  0
   12.2367  -20.2019   26.0298 O   0  0  0  0  0  0  0  0  0  0  0  0
   12.3768  -17.1388   22.1440 C   0  0  0  0  0  0  0  0  0  0  0  0
   11.9708  -17.6360   21.0766 O   0  0  0  0  0  0  0  0  0  0  0  0
   14.4182  -19.7088   26.3190 O   0  0  0  0  0  0  0  0  0  0  0  0
   13.6733  -16.6959   22.2018 O   0  0  0  0  0  0  0  0  0  0  0  0
  2  1  1  6
  3  2  1  0
  4  2  1  0
  4  5  1  0
  5  6  1  1
  7  8  2  0
  7  5  1  0
  9  7  1  0
 10  9  1  0
 10 11  1  6
 12 11  1  0
 13 12  1  0
 14 13  1  0
 15 14  1  0
 16 10  1  0
 17 16  2  0
 18 16  1  0
 19 18  1  0
 19 20  1  1
 20 21  1  0
 21 22  1  0
 22 26  1  0
 23 22  2  0
 24 27  1  0
 24 19  1  0
 25 24  2  0
M  END
$$$$
