LKE.pdb
     RDKit          3D

 27 26  0  0  1  0  0  0  0  0999 V2000
    7.3471  -12.2409   18.5865 C   0  0  0  0  0  0  0  0  0  0  0  0
    7.6656  -13.7089   18.8159 C   0  0  1  0  0  0  0  0  0  0  0  0
    7.7435  -14.3407   17.4229 C   0  0  0  0  0  0  0  0  0  0  0  0
    8.9580  -13.8187   19.5379 C   0  0  0  0  0  0  0  0  0  0  0  0
    9.0434  -15.0997   20.3208 C   0  0  2  0  0  0  0  0  0  0  0  0
    7.7192  -15.7448   20.2110 N   0  0  0  0  0  0  0  0  0  0  0  0
    9.3709  -14.8824   21.7453 C   0  0  0  0  0  0  0  0  0  0  0  0
   10.4602  -14.3674   22.0777 O   0  0  0  0  0  0  0  0  0  0  0  0
    8.4406  -15.2620   22.7389 N   0  0  0  0  0  0  0  0  0  0  0  0
    8.7125  -15.0415   24.1416 C   0  0  1  0  0  0  0  0  0  0  0  0
    7.5645  -14.2354   24.6806 C   0  0  0  0  0  0  0  0  0  0  0  0
    7.7220  -13.7602   26.0837 C   0  0  0  0  0  0  0  0  0  0  0  0
    6.4556  -12.9780   26.4384 C   0  0  0  0  0  0  0  0  0  0  0  0
    6.5074  -12.5018   27.8733 C   0  0  0  0  0  0  0  0  0  0  0  0
    5.2459  -11.8586   28.1862 N   0  0  0  0  0  0  0  0  0  0  0  0
    8.8891  -16.3493   24.8052 C   0  0  0  0  0  0  0  0  0  0  0  0
    8.3114  -17.3487   24.3640 O   0  0  0  0  0  0  0  0  0  0  0  0
    9.7127  -16.4720   25.9411 N   0  0  0  0  0  0  0  0  0  0  0  0
   10.5918  -17.6088   26.1959 C   0  0  1  0  0  0  0  0  0  0  0  0
   11.6804  -17.7104   25.2026 C   0  0  0  0  0  0  0  0  0  0  0  0
   12.5706  -18.8814   25.3661 C   0  0  0  0  0  0  0  0  0  0  0  0
   13.6356  -19.0385   24.3710 C   0  0  0  0  0  0  0  0  0  0  0  0
   13.6142  -18.3770   23.3118 O   0  0  0  0  0  0  0  0  0  0  0  0
   11.0852  -17.5079   27.5916 C   0  0  0  0  0  0  0  0  0  0  0  0
   10.9698  -16.4450   28.2308 O   0  0  0  0  0  0  0  0  0  0  0  0
   14.6903  -19.9130   24.5641 O   0  0  0  0  0  0  0  0  0  0  0  0
   11.6775  -18.5775   28.2125 O   0  0  0  0  0  0  0  0  0  0  0  0
  2  1  1  6
  3  2  1  0
  4  2  1  0
  4  5  1  0
  5  6  1  1
  7  8  2  0
  7  5  1  0
  9  7  1  0
 10  9  1  0
 10 11  1  1
 12 11  1  0
 13 12  1  0
 14 13  1  0
 15 14  1  0
 16 10  1  0
 17 16  2  0
 18 16  1  0
 19 18  1  0
 19 20  1  6
 20 21  1  0
 21 22  1  0
 22 26  1  0
 23 22  2  0
 24 27  1  0
 24 19  1  0
 25 24  2  0
M  END
$$$$
