LKE.pdb
     RDKit          3D

 27 26  0  0  1  0  0  0  0  0999 V2000
    7.1539  -12.2897   18.0533 C   0  0  0  0  0  0  0  0  0  0  0  0
    7.4065  -13.6930   18.5784 C   0  0  1  0  0  0  0  0  0  0  0  0
    7.7532  -14.5408   17.3509 C   0  0  0  0  0  0  0  0  0  0  0  0
    8.5287  -13.6540   19.5492 C   0  0  0  0  0  0  0  0  0  0  0  0
    8.6721  -14.9621   20.2769 C   0  0  2  0  0  0  0  0  0  0  0  0
    7.3337  -15.5871   20.2792 N   0  0  0  0  0  0  0  0  0  0  0  0
    9.1435  -14.7980   21.6677 C   0  0  0  0  0  0  0  0  0  0  0  0
   10.3445  -14.5489   21.9087 O   0  0  0  0  0  0  0  0  0  0  0  0
    8.2243  -14.9247   22.7335 N   0  0  0  0  0  0  0  0  0  0  0  0
    8.6158  -14.6429   24.0964 C   0  0  1  0  0  0  0  0  0  0  0  0
    7.4181  -14.0357   24.7710 C   0  0  0  0  0  0  0  0  0  0  0  0
    7.6264  -13.6182   26.1858 C   0  0  0  0  0  0  0  0  0  0  0  0
    6.3490  -12.9070   26.6374 C   0  0  0  0  0  0  0  0  0  0  0  0
    6.4878  -12.4144   28.0609 C   0  0  0  0  0  0  0  0  0  0  0  0
    5.3278  -11.6042   28.3784 N   0  0  0  0  0  0  0  0  0  0  0  0
    9.0874  -15.8932   24.7260 C   0  0  0  0  0  0  0  0  0  0  0  0
    8.4436  -16.9382   24.5820 O   0  0  0  0  0  0  0  0  0  0  0  0
   10.2686  -15.9090   25.4929 N   0  0  0  0  0  0  0  0  0  0  0  0
   11.0248  -17.1173   25.8065 C   0  0  1  0  0  0  0  0  0  0  0  0
   12.4483  -17.0026   25.4285 C   0  0  0  0  0  0  0  0  0  0  0  0
   13.3075  -18.1214   25.8762 C   0  0  0  0  0  0  0  0  0  0  0  0
   14.7226  -18.0517   25.4995 C   0  0  0  0  0  0  0  0  0  0  0  0
   15.5162  -18.9489   25.8532 O   0  0  0  0  0  0  0  0  0  0  0  0
   10.8277  -17.4259   27.2443 C   0  0  0  0  0  0  0  0  0  0  0  0
   10.4912  -16.5332   28.0453 O   0  0  0  0  0  0  0  0  0  0  0  0
   15.2261  -17.0043   24.7485 O   0  0  0  0  0  0  0  0  0  0  0  0
   11.0086  -18.6965   27.7273 O   0  0  0  0  0  0  0  0  0  0  0  0
  2  1  1  6
  3  2  1  0
  4  2  1  0
  4  5  1  0
  5  6  1  1
  7  8  2  0
  7  5  1  0
  9  7  1  0
 10  9  1  0
 10 11  1  1
 12 11  1  0
 13 12  1  0
 14 13  1  0
 15 14  1  0
 16 10  1  0
 17 16  2  0
 18 16  1  0
 19 18  1  0
 19 20  1  1
 20 21  1  0
 21 22  1  0
 22 26  1  0
 23 22  2  0
 24 27  1  0
 24 19  1  0
 25 24  2  0
M  END
$$$$
