LKE.pdb
     RDKit          3D

 27 26  0  0  1  0  0  0  0  0999 V2000
    6.0407  -12.4863   26.4155 C   0  0  0  0  0  0  0  0  0  0  0  0
    7.2694  -13.3802   26.3973 C   0  0  1  0  0  0  0  0  0  0  0  0
    8.2796  -12.7186   27.3393 C   0  0  0  0  0  0  0  0  0  0  0  0
    6.8910  -14.7361   26.8684 C   0  0  0  0  0  0  0  0  0  0  0  0
    6.3126  -15.5639   25.7542 C   0  0  2  0  0  0  0  0  0  0  0  0
    5.9712  -16.8751   26.3425 N   0  0  0  0  0  0  0  0  0  0  0  0
    7.2543  -15.7558   24.6317 C   0  0  0  0  0  0  0  0  0  0  0  0
    8.1348  -16.6416   24.6824 O   0  0  0  0  0  0  0  0  0  0  0  0
    7.1552  -14.9277   23.4909 N   0  0  0  0  0  0  0  0  0  0  0  0
    7.9855  -15.1526   22.3290 C   0  0  1  0  0  0  0  0  0  0  0  0
    7.5984  -14.1124   21.3160 C   0  0  0  0  0  0  0  0  0  0  0  0
    8.3223  -14.1873   20.0161 C   0  0  0  0  0  0  0  0  0  0  0  0
    7.7479  -13.0899   19.1176 C   0  0  0  0  0  0  0  0  0  0  0  0
    8.5146  -13.0110   17.8159 C   0  0  0  0  0  0  0  0  0  0  0  0
    8.4906  -14.3200   17.1923 N   0  0  0  0  0  0  0  0  0  0  0  0
    9.4040  -15.0923   22.7366 C   0  0  0  0  0  0  0  0  0  0  0  0
    9.8564  -14.0620   23.2475 O   0  0  0  0  0  0  0  0  0  0  0  0
   10.2521  -16.2010   22.5492 N   0  0  0  0  0  0  0  0  0  0  0  0
   11.6574  -16.2323   22.9421 C   0  0  1  0  0  0  0  0  0  0  0  0
   12.0526  -17.5375   23.5100 C   0  0  0  0  0  0  0  0  0  0  0  0
   11.8183  -17.6850   24.9639 C   0  0  0  0  0  0  0  0  0  0  0  0
   12.1660  -18.9806   25.5551 C   0  0  0  0  0  0  0  0  0  0  0  0
   13.3373  -19.4099   25.4941 O   0  0  0  0  0  0  0  0  0  0  0  0
   12.4744  -15.8370   21.7684 C   0  0  0  0  0  0  0  0  0  0  0  0
   12.1669  -16.2181   20.6230 O   0  0  0  0  0  0  0  0  0  0  0  0
   11.2234  -19.7665   26.1943 O   0  0  0  0  0  0  0  0  0  0  0  0
   13.5840  -15.0443   21.9125 O   0  0  0  0  0  0  0  0  0  0  0  0
  2  1  1  1
  3  2  1  0
  4  2  1  0
  4  5  1  0
  5  6  1  1
  7  8  2  0
  7  5  1  0
  9  7  1  0
 10  9  1  0
 10 11  1  6
 12 11  1  0
 13 12  1  0
 14 13  1  0
 15 14  1  0
 16 10  1  0
 17 16  2  0
 18 16  1  0
 19 18  1  0
 19 20  1  6
 20 21  1  0
 21 22  1  0
 22 26  1  0
 23 22  2  0
 24 27  1  0
 24 19  1  0
 25 24  2  0
M  END
$$$$
