LKE.pdb
     RDKit          3D

 27 26  0  0  1  0  0  0  0  0999 V2000
    6.8094  -11.9091   19.3246 C   0  0  0  0  0  0  0  0  0  0  0  0
    7.2526  -13.3590   19.4264 C   0  0  1  0  0  0  0  0  0  0  0  0
    8.3034  -13.5513   18.3289 C   0  0  0  0  0  0  0  0  0  0  0  0
    7.8226  -13.5994   20.7758 C   0  0  0  0  0  0  0  0  0  0  0  0
    8.2432  -15.0328   20.9477 C   0  0  2  0  0  0  0  0  0  0  0  0
    7.0604  -15.8563   20.6239 N   0  0  0  0  0  0  0  0  0  0  0  0
    8.6974  -15.3383   22.3203 C   0  0  0  0  0  0  0  0  0  0  0  0
    9.6934  -14.7598   22.8059 O   0  0  0  0  0  0  0  0  0  0  0  0
    7.9961  -16.2947   23.0886 N   0  0  0  0  0  0  0  0  0  0  0  0
    8.3920  -16.6005   24.4451 C   0  0  1  0  0  0  0  0  0  0  0  0
    7.2403  -17.3321   25.0746 C   0  0  0  0  0  0  0  0  0  0  0  0
    7.4223  -17.6956   26.5078 C   0  0  0  0  0  0  0  0  0  0  0  0
    7.6194  -19.2120   26.5656 C   0  0  0  0  0  0  0  0  0  0  0  0
    7.7601  -19.6771   27.9982 C   0  0  0  0  0  0  0  0  0  0  0  0
    7.9091  -21.1196   27.9969 N   0  0  0  0  0  0  0  0  0  0  0  0
    9.6482  -17.3769   24.4124 C   0  0  0  0  0  0  0  0  0  0  0  0
    9.7111  -18.4224   23.7564 O   0  0  0  0  0  0  0  0  0  0  0  0
   10.7817  -16.9379   25.1238 N   0  0  0  0  0  0  0  0  0  0  0  0
   12.0789  -17.6060   25.0899 C   0  0  1  0  0  0  0  0  0  0  0  0
   13.1358  -16.7509   24.5120 C   0  0  0  0  0  0  0  0  0  0  0  0
   14.4943  -17.3381   24.5263 C   0  0  0  0  0  0  0  0  0  0  0  0
   15.5643  -16.5274   23.9372 C   0  0  0  0  0  0  0  0  0  0  0  0
   16.7473  -16.6740   24.3100 O   0  0  0  0  0  0  0  0  0  0  0  0
   12.3942  -18.0733   26.4624 C   0  0  0  0  0  0  0  0  0  0  0  0
   13.3285  -18.8725   26.6624 O   0  0  0  0  0  0  0  0  0  0  0  0
   15.3085  -15.5822   22.9595 O   0  0  0  0  0  0  0  0  0  0  0  0
   11.6695  -17.6388   27.5424 O   0  0  0  0  0  0  0  0  0  0  0  0
  2  1  1  1
  3  2  1  0
  4  2  1  0
  4  5  1  0
  5  6  1  1
  7  8  2  0
  7  5  1  0
  9  7  1  0
 10  9  1  0
 10 11  1  6
 12 11  1  0
 13 12  1  0
 14 13  1  0
 15 14  1  0
 16 10  1  0
 17 16  2  0
 18 16  1  0
 19 18  1  0
 19 20  1  1
 20 21  1  0
 21 22  1  0
 22 26  1  0
 23 22  2  0
 24 27  1  0
 24 19  1  0
 25 24  2  0
M  END
$$$$
