LKE.pdb
     RDKit          3D

 27 26  0  0  1  0  0  0  0  0999 V2000
    7.7355  -12.0597   20.8196 C   0  0  0  0  0  0  0  0  0  0  0  0
    7.4657  -13.4975   20.4085 C   0  0  1  0  0  0  0  0  0  0  0  0
    7.5463  -13.5155   18.8792 C   0  0  0  0  0  0  0  0  0  0  0  0
    8.4924  -14.3785   21.0194 C   0  0  0  0  0  0  0  0  0  0  0  0
    8.2524  -15.8228   20.6762 C   0  0  2  0  0  0  0  0  0  0  0  0
    6.9042  -16.1531   21.1813 N   0  0  0  0  0  0  0  0  0  0  0  0
    9.2452  -16.7316   21.2860 C   0  0  0  0  0  0  0  0  0  0  0  0
    9.0345  -17.2478   22.4048 O   0  0  0  0  0  0  0  0  0  0  0  0
   10.4438  -17.0178   20.5944 N   0  0  0  0  0  0  0  0  0  0  0  0
   11.4345  -17.9105   21.1525 C   0  0  1  0  0  0  0  0  0  0  0  0
   12.0204  -18.6770   20.0003 C   0  0  0  0  0  0  0  0  0  0  0  0
   11.7684  -18.0944   18.6526 C   0  0  0  0  0  0  0  0  0  0  0  0
   12.4891  -18.9832   17.6366 C   0  0  0  0  0  0  0  0  0  0  0  0
   12.2580  -18.4794   16.2291 C   0  0  0  0  0  0  0  0  0  0  0  0
   10.8728  -18.7263   15.8779 N   0  0  0  0  0  0  0  0  0  0  0  0
   12.4242  -17.1142   21.9064 C   0  0  0  0  0  0  0  0  0  0  0  0
   12.7681  -16.0024   21.4905 O   0  0  0  0  0  0  0  0  0  0  0  0
   12.9840  -17.6092   23.1002 N   0  0  0  0  0  0  0  0  0  0  0  0
   13.9314  -16.8698   23.9283 C   0  0  1  0  0  0  0  0  0  0  0  0
   14.1326  -17.4992   25.2495 C   0  0  0  0  0  0  0  0  0  0  0  0
   12.9050  -17.6598   26.0605 C   0  0  0  0  0  0  0  0  0  0  0  0
   13.0725  -18.2490   27.3924 C   0  0  0  0  0  0  0  0  0  0  0  0
   12.2098  -19.0255   27.8535 O   0  0  0  0  0  0  0  0  0  0  0  0
   15.1915  -16.7125   23.1608 C   0  0  0  0  0  0  0  0  0  0  0  0
   15.4066  -17.4005   22.1449 O   0  0  0  0  0  0  0  0  0  0  0  0
   14.1767  -17.9713   28.1785 O   0  0  0  0  0  0  0  0  0  0  0  0
   16.1478  -15.8089   23.5469 O   0  0  0  0  0  0  0  0  0  0  0  0
  2  1  1  1
  3  2  1  0
  4  2  1  0
  4  5  1  0
  5  6  1  1
  7  8  2  0
  7  5  1  0
  9  7  1  0
 10  9  1  0
 10 11  1  6
 12 11  1  0
 13 12  1  0
 14 13  1  0
 15 14  1  0
 16 10  1  0
 17 16  2  0
 18 16  1  0
 19 18  1  0
 19 20  1  1
 20 21  1  0
 21 22  1  0
 22 26  1  0
 23 22  2  0
 24 27  1  0
 24 19  1  0
 25 24  2  0
M  END
$$$$
