LKE.pdb
     RDKit          3D

 27 26  0  0  1  0  0  0  0  0999 V2000
    7.1940  -12.0457   27.7468 C   0  0  0  0  0  0  0  0  0  0  0  0
    6.3465  -13.1364   27.1135 C   0  0  1  0  0  0  0  0  0  0  0  0
    5.5634  -12.4545   25.9877 C   0  0  0  0  0  0  0  0  0  0  0  0
    7.2375  -14.2022   26.5904 C   0  0  0  0  0  0  0  0  0  0  0  0
    6.4971  -15.1380   25.6752 C   0  0  2  0  0  0  0  0  0  0  0  0
    6.0678  -16.2812   26.5061 N   0  0  0  0  0  0  0  0  0  0  0  0
    7.3291  -15.6254   24.5555 C   0  0  0  0  0  0  0  0  0  0  0  0
    8.0123  -16.6654   24.6744 O   0  0  0  0  0  0  0  0  0  0  0  0
    7.3498  -14.9060   23.3394 N   0  0  0  0  0  0  0  0  0  0  0  0
    8.1969  -15.3162   22.2420 C   0  0  1  0  0  0  0  0  0  0  0  0
    7.8611  -14.4219   21.0820 C   0  0  0  0  0  0  0  0  0  0  0  0
    8.7126  -14.5992   19.8725 C   0  0  0  0  0  0  0  0  0  0  0  0
    8.1458  -15.7882   19.0939 C   0  0  0  0  0  0  0  0  0  0  0  0
    8.8655  -15.9529   17.7736 C   0  0  0  0  0  0  0  0  0  0  0  0
    8.3420  -17.1328   17.1127 N   0  0  0  0  0  0  0  0  0  0  0  0
    9.6079  -15.2348   22.6715 C   0  0  0  0  0  0  0  0  0  0  0  0
   10.0153  -14.2313   23.2667 O   0  0  0  0  0  0  0  0  0  0  0  0
   10.4997  -16.2930   22.4097 N   0  0  0  0  0  0  0  0  0  0  0  0
   11.8647  -16.3589   22.9222 C   0  0  1  0  0  0  0  0  0  0  0  0
   12.0807  -17.5313   23.7946 C   0  0  0  0  0  0  0  0  0  0  0  0
   13.4677  -17.7027   24.2817 C   0  0  0  0  0  0  0  0  0  0  0  0
   13.7176  -18.8532   25.1551 C   0  0  0  0  0  0  0  0  0  0  0  0
   13.4499  -20.0104   24.7690 O   0  0  0  0  0  0  0  0  0  0  0  0
   12.7948  -16.3140   21.7670 C   0  0  0  0  0  0  0  0  0  0  0  0
   13.8877  -15.7227   21.8541 O   0  0  0  0  0  0  0  0  0  0  0  0
   14.2520  -18.7035   26.4227 O   0  0  0  0  0  0  0  0  0  0  0  0
   12.4781  -16.9206   20.5787 O   0  0  0  0  0  0  0  0  0  0  0  0
  2  1  1  6
  3  2  1  0
  4  2  1  0
  4  5  1  0
  5  6  1  1
  7  8  2  0
  7  5  1  0
  9  7  1  0
 10  9  1  0
 10 11  1  6
 12 11  1  0
 13 12  1  0
 14 13  1  0
 15 14  1  0
 16 10  1  0
 17 16  2  0
 18 16  1  0
 19 18  1  0
 19 20  1  6
 20 21  1  0
 21 22  1  0
 22 26  1  0
 23 22  2  0
 24 27  1  0
 24 19  1  0
 25 24  2  0
M  END
$$$$
