QRA.pdb
     RDKit          3D

 26 25  0  0  1  0  0  0  0  0999 V2000
    6.5309  -13.8847   17.5671 N   0  0  0  0  0  0  0  0  0  0  0  0
    7.8570  -14.2265   17.2316 C   0  0  0  0  0  0  0  0  0  0  0  0
    8.2351  -14.1101   16.0447 O   0  0  0  0  0  0  0  0  0  0  0  0
    8.7349  -14.7076   18.3046 C   0  0  0  0  0  0  0  0  0  0  0  0
    9.3547  -16.0525   18.0577 C   0  0  0  0  0  0  0  0  0  0  0  0
    9.3709  -16.9527   19.2433 C   0  0  2  0  0  0  0  0  0  0  0  0
    8.0943  -17.6587   19.3857 N   0  0  0  0  0  0  0  0  0  0  0  0
    9.6807  -16.2392   20.5333 C   0  0  0  0  0  0  0  0  0  0  0  0
   10.8014  -15.6518   20.6899 O   0  0  0  0  0  0  0  0  0  0  0  0
    4.8474  -11.4967   26.9327 N   0  0  0  0  0  0  0  0  0  0  0  0
    6.2605  -11.7312   26.7182 C   0  0  0  0  0  0  0  0  0  0  0  0
    7.0731  -10.7355   26.7705 N   0  0  0  0  0  0  0  0  0  0  0  0
    6.6942  -13.0519   26.4584 N   0  0  0  0  0  0  0  0  0  0  0  0
    6.4405  -13.5995   25.0917 C   0  0  0  0  0  0  0  0  0  0  0  0
    7.6927  -14.2280   24.6152 C   0  0  0  0  0  0  0  0  0  0  0  0
    7.8158  -14.9002   23.3395 C   0  0  0  0  0  0  0  0  0  0  0  0
    9.0536  -15.5411   22.8934 C   0  0  2  0  0  0  0  0  0  0  0  0
    8.7366  -16.2148   21.5732 N   0  0  0  0  0  0  0  0  0  0  0  0
    9.5333  -16.6547   23.7230 C   0  0  0  0  0  0  0  0  0  0  0  0
    8.9288  -17.7301   23.7761 O   0  0  0  0  0  0  0  0  0  0  0  0
    8.0779  -10.8712   26.5972 C   0  0  0  0  0  0  0  0  0  0  0  0
   12.6408  -17.7139   25.4731 C   0  0  1  0  0  0  0  0  0  0  0  0
   11.1251  -17.7057   25.2870 N   0  0  0  0  0  0  0  0  0  0  0  0
   10.7161  -16.5608   24.5102 C   0  0  0  0  0  0  0  0  0  0  0  0
   10.4450  -17.6825   26.6117 O   0  0  0  0  0  0  0  0  0  0  0  0
   10.5641  -18.7535   27.4560 O   0  0  0  0  0  0  0  0  0  0  0  0
  1  2  1  0
  2  3  2  0
  4  2  1  0
  4  5  1  0
  6  5  1  0
  6  7  1  1
  8  6  1  0
  9  8  2  0
 10 11  1  0
 11 13  1  0
 12 11  2  0
 13 14  1  0
 14 15  1  0
 17 16  1  1
 16 15  1  0
 17 18  1  0
 18  8  1  0
 19 23  1  0
 19 17  1  0
 20 19  2  0
 22 21  1  6
 22 24  1  0
 22 23  1  0
 24 25  1  0
 26 24  2  0
M  END
$$$$
