QRA.pdb
     RDKit          3D

 26 25  0  0  1  0  0  0  0  0999 V2000
    7.6831  -15.6542   14.6357 N   0  0  0  0  0  0  0  0  0  0  0  0
    8.4826  -14.5620   15.0305 C   0  0  0  0  0  0  0  0  0  0  0  0
    9.2590  -14.0423   14.1985 O   0  0  0  0  0  0  0  0  0  0  0  0
    8.3616  -14.0866   16.4137 C   0  0  0  0  0  0  0  0  0  0  0  0
    7.3371  -14.8072   17.2414 C   0  0  0  0  0  0  0  0  0  0  0  0
    7.2707  -14.3681   18.6623 C   0  0  2  0  0  0  0  0  0  0  0  0
    7.5214  -12.9288   18.7809 N   0  0  0  0  0  0  0  0  0  0  0  0
    8.2264  -15.1060   19.5629 C   0  0  0  0  0  0  0  0  0  0  0  0
    8.2892  -16.3789   19.5285 O   0  0  0  0  0  0  0  0  0  0  0  0
   15.4978  -15.6148   19.0683 N   0  0  0  0  0  0  0  0  0  0  0  0
   15.4689  -14.8790   20.3155 C   0  0  0  0  0  0  0  0  0  0  0  0
   16.4487  -15.0080   21.1389 N   0  0  0  0  0  0  0  0  0  0  0  0
   14.3595  -14.0431   20.5811 N   0  0  0  0  0  0  0  0  0  0  0  0
   13.3063  -13.9475   19.5258 C   0  0  0  0  0  0  0  0  0  0  0  0
   12.1630  -14.7868   19.9486 C   0  0  0  0  0  0  0  0  0  0  0  0
   11.3470  -14.5020   21.1093 C   0  0  0  0  0  0  0  0  0  0  0  0
   10.0428  -15.1253   21.3381 C   0  0  2  0  0  0  0  0  0  0  0  0
    9.0566  -14.3969   20.4469 N   0  0  0  0  0  0  0  0  0  0  0  0
    9.4712  -14.9411   22.6790 C   0  0  0  0  0  0  0  0  0  0  0  0
    9.2086  -13.8191   23.1227 O   0  0  0  0  0  0  0  0  0  0  0  0
   16.4515  -14.4979   22.0321 C   0  0  0  0  0  0  0  0  0  0  0  0
    7.2524  -16.0742   25.0290 C   0  0  2  0  0  0  0  0  0  0  0  0
    8.7413  -15.7666   24.8858 N   0  0  0  0  0  0  0  0  0  0  0  0
    9.1879  -16.0384   23.5411 C   0  0  0  0  0  0  0  0  0  0  0  0
    9.5295  -16.5822   25.8510 O   0  0  0  0  0  0  0  0  0  0  0  0
    9.3487  -16.4061   27.1965 O   0  0  0  0  0  0  0  0  0  0  0  0
  1  2  1  0
  2  3  2  0
  4  2  1  0
  4  5  1  0
  6  5  1  0
  6  7  1  6
  8  6  1  0
  9  8  2  0
 10 11  1  0
 11 13  1  0
 12 11  2  0
 13 14  1  0
 14 15  1  0
 17 16  1  1
 16 15  1  0
 17 18  1  0
 18  8  1  0
 19 23  1  0
 19 17  1  0
 20 19  2  0
 22 21  1  6
 22 24  1  0
 22 23  1  0
 24 25  1  0
 26 24  2  0
M  END
$$$$
