QRA.pdb
     RDKit          3D

 26 25  0  0  1  0  0  0  0  0999 V2000
    6.2067  -22.9823   21.7701 N   0  0  0  0  0  0  0  0  0  0  0  0
    6.1865  -22.8013   23.1682 C   0  0  0  0  0  0  0  0  0  0  0  0
    6.0098  -23.7937   23.9091 O   0  0  0  0  0  0  0  0  0  0  0  0
    6.3752  -21.4418   23.6877 C   0  0  0  0  0  0  0  0  0  0  0  0
    7.8027  -21.0600   23.9531 C   0  0  0  0  0  0  0  0  0  0  0  0
    7.9921  -20.1419   25.1096 C   0  0  2  0  0  0  0  0  0  0  0  0
    6.7580  -20.0174   25.8906 N   0  0  0  0  0  0  0  0  0  0  0  0
    8.4593  -18.7660   24.7123 C   0  0  0  0  0  0  0  0  0  0  0  0
    9.6951  -18.5465   24.4888 O   0  0  0  0  0  0  0  0  0  0  0  0
    8.2034  -11.9905   20.0200 N   0  0  0  0  0  0  0  0  0  0  0  0
    8.5126  -13.3643   19.6808 C   0  0  0  0  0  0  0  0  0  0  0  0
    8.7682  -13.6621   18.4559 N   0  0  0  0  0  0  0  0  0  0  0  0
    8.5216  -14.3295   20.7144 N   0  0  0  0  0  0  0  0  0  0  0  0
    8.2758  -13.8447   22.1059 C   0  0  0  0  0  0  0  0  0  0  0  0
    7.0650  -14.5256   22.6164 C   0  0  0  0  0  0  0  0  0  0  0  0
    7.0655  -15.8757   23.1376 C   0  0  0  0  0  0  0  0  0  0  0  0
    7.9921  -16.3277   24.1763 C   0  0  2  0  0  0  0  0  0  0  0  0
    7.5365  -17.7147   24.5840 N   0  0  0  0  0  0  0  0  0  0  0  0
    7.9483  -15.5829   25.4420 C   0  0  0  0  0  0  0  0  0  0  0  0
    6.9323  -15.5563   26.1431 O   0  0  0  0  0  0  0  0  0  0  0  0
    9.0361  -14.6207   18.1960 C   0  0  0  0  0  0  0  0  0  0  0  0
   10.2980  -13.6654   27.6756 C   0  0  1  0  0  0  0  0  0  0  0  0
    8.9317  -14.1219   27.1691 N   0  0  0  0  0  0  0  0  0  0  0  0
    9.0677  -14.8520   25.9321 C   0  0  0  0  0  0  0  0  0  0  0  0
    8.0411  -12.9462   26.9628 O   0  0  0  0  0  0  0  0  0  0  0  0
    7.4842  -12.3171   28.0437 O   0  0  0  0  0  0  0  0  0  0  0  0
  1  2  1  0
  2  3  2  0
  4  2  1  0
  4  5  1  0
  6  5  1  0
  6  7  1  6
  8  6  1  0
  9  8  2  0
 10 11  1  0
 11 13  1  0
 12 11  2  0
 13 14  1  0
 14 15  1  0
 17 16  1  6
 16 15  1  0
 17 18  1  0
 18  8  1  0
 19 23  1  0
 19 17  1  0
 20 19  2  0
 22 21  1  1
 22 24  1  0
 22 23  1  0
 24 25  1  0
 26 24  2  0
M  END
$$$$
