QRA.pdb
     RDKit          3D

 26 25  0  0  1  0  0  0  0  0999 V2000
    7.5042  -11.8040   18.6718 N   0  0  0  0  0  0  0  0  0  0  0  0
    7.7328  -13.1017   18.1703 C   0  0  0  0  0  0  0  0  0  0  0  0
    7.4230  -13.3613   16.9863 O   0  0  0  0  0  0  0  0  0  0  0  0
    8.3287  -14.0925   19.0742 C   0  0  0  0  0  0  0  0  0  0  0  0
    8.5417  -13.6152   20.4815 C   0  0  0  0  0  0  0  0  0  0  0  0
    9.2447  -14.5866   21.3638 C   0  0  2  0  0  0  0  0  0  0  0  0
    9.3629  -15.8962   20.7162 N   0  0  0  0  0  0  0  0  0  0  0  0
    8.5846  -14.7637   22.7062 C   0  0  0  0  0  0  0  0  0  0  0  0
    8.1633  -13.7496   23.3541 O   0  0  0  0  0  0  0  0  0  0  0  0
    3.5169  -20.1147   22.8692 N   0  0  0  0  0  0  0  0  0  0  0  0
    4.0376  -19.3988   21.7228 C   0  0  0  0  0  0  0  0  0  0  0  0
    3.3291  -19.3376   20.6509 N   0  0  0  0  0  0  0  0  0  0  0  0
    5.3106  -18.7917   21.8267 N   0  0  0  0  0  0  0  0  0  0  0  0
    5.4300  -17.6002   22.7199 C   0  0  0  0  0  0  0  0  0  0  0  0
    5.9564  -18.0615   24.0239 C   0  0  0  0  0  0  0  0  0  0  0  0
    7.2308  -17.6419   24.5664 C   0  0  0  0  0  0  0  0  0  0  0  0
    7.6802  -16.2491   24.5572 C   0  0  2  0  0  0  0  0  0  0  0  0
    8.4272  -16.0477   23.2538 N   0  0  0  0  0  0  0  0  0  0  0  0
    8.6843  -15.8934   25.5691 C   0  0  0  0  0  0  0  0  0  0  0  0
    9.8656  -16.2351   25.4575 O   0  0  0  0  0  0  0  0  0  0  0  0
    3.6839  -18.8513   19.8168 C   0  0  0  0  0  0  0  0  0  0  0  0
    9.0689  -13.4528   28.3477 C   0  0  2  0  0  0  0  0  0  0  0  0
    9.4179  -14.7552   27.6308 N   0  0  0  0  0  0  0  0  0  0  0  0
    8.3570  -15.1384   26.7311 C   0  0  0  0  0  0  0  0  0  0  0  0
    9.6516  -15.8411   28.6229 O   0  0  0  0  0  0  0  0  0  0  0  0
   10.7562  -15.7980   29.4304 O   0  0  0  0  0  0  0  0  0  0  0  0
  1  2  1  0
  2  3  2  0
  4  2  1  0
  4  5  1  0
  6  5  1  0
  6  7  1  6
  8  6  1  0
  9  8  2  0
 10 11  1  0
 11 13  1  0
 12 11  2  0
 13 14  1  0
 14 15  1  0
 17 16  1  1
 16 15  1  0
 17 18  1  0
 18  8  1  0
 19 23  1  0
 19 17  1  0
 20 19  2  0
 22 21  1  6
 22 24  1  0
 22 23  1  0
 24 25  1  0
 26 24  2  0
M  END
$$$$
