QRA.pdb
     RDKit          3D

 26 25  0  0  1  0  0  0  0  0999 V2000
    8.3521  -14.0014   16.9571 N   0  0  0  0  0  0  0  0  0  0  0  0
    7.7376  -13.2022   17.9427 C   0  0  0  0  0  0  0  0  0  0  0  0
    6.6788  -12.5968   17.6641 O   0  0  0  0  0  0  0  0  0  0  0  0
    8.3802  -13.1202   19.2596 C   0  0  0  0  0  0  0  0  0  0  0  0
    9.6026  -13.9770   19.4198 C   0  0  0  0  0  0  0  0  0  0  0  0
   10.2211  -13.9245   20.7729 C   0  0  2  0  0  0  0  0  0  0  0  0
   11.4695  -14.6917   20.8113 N   0  0  0  0  0  0  0  0  0  0  0  0
    9.3112  -14.4177   21.8674 C   0  0  0  0  0  0  0  0  0  0  0  0
    8.1993  -13.8350   22.0903 O   0  0  0  0  0  0  0  0  0  0  0  0
   10.2785  -19.7015   20.3182 N   0  0  0  0  0  0  0  0  0  0  0  0
    8.9006  -20.0794   20.0808 C   0  0  0  0  0  0  0  0  0  0  0  0
    8.5278  -20.3579   18.8816 N   0  0  0  0  0  0  0  0  0  0  0  0
    8.0143  -20.1280   21.1817 N   0  0  0  0  0  0  0  0  0  0  0  0
    8.5490  -19.7032   22.5104 C   0  0  0  0  0  0  0  0  0  0  0  0
    8.4787  -18.2264   22.5766 C   0  0  0  0  0  0  0  0  0  0  0  0
    8.8271  -17.4604   23.7540 C   0  0  0  0  0  0  0  0  0  0  0  0
    8.7997  -15.9976   23.7891 C   0  0  2  0  0  0  0  0  0  0  0  0
    9.6805  -15.5242   22.6501 N   0  0  0  0  0  0  0  0  0  0  0  0
    9.4207  -15.3734   24.9652 C   0  0  0  0  0  0  0  0  0  0  0  0
   10.6472  -15.3066   25.0913 O   0  0  0  0  0  0  0  0  0  0  0  0
    7.5325  -20.4975   18.6628 C   0  0  0  0  0  0  0  0  0  0  0  0
    8.4940  -13.0394   27.6946 C   0  0  2  0  0  0  0  0  0  0  0  0
    9.3379  -14.1746   27.1194 N   0  0  0  0  0  0  0  0  0  0  0  0
    8.6502  -14.8120   26.0229 C   0  0  0  0  0  0  0  0  0  0  0  0
    9.6363  -15.1798   28.1771 O   0  0  0  0  0  0  0  0  0  0  0  0
   10.4044  -14.8263   29.2537 O   0  0  0  0  0  0  0  0  0  0  0  0
  1  2  1  0
  2  3  2  0
  4  2  1  0
  4  5  1  0
  6  5  1  0
  6  7  1  6
  8  6  1  0
  9  8  2  0
 10 11  1  0
 11 13  1  0
 12 11  2  0
 13 14  1  0
 14 15  1  0
 17 16  1  1
 16 15  1  0
 17 18  1  0
 18  8  1  0
 19 23  1  0
 19 17  1  0
 20 19  2  0
 22 21  1  6
 22 24  1  0
 22 23  1  0
 24 25  1  0
 26 24  2  0
M  END
$$$$
