INR.pdb
     RDKit          3D

 28 27  0  0  1  0  0  0  0  0999 V2000
   21.7549  -31.8186  -17.6971 C   0  0  0  0  0  0  0  0  0  0  0  0
   22.0884  -30.9716  -16.5033 C   0  0  0  0  0  0  0  0  0  0  0  0
   21.0283  -31.1519  -15.4394 C   0  0  2  0  0  0  0  0  0  0  0  0
   19.7072  -30.7205  -15.9920 C   0  0  0  0  0  0  0  0  0  0  0  0
   21.4046  -30.4354  -14.1601 C   0  0  2  0  0  0  0  0  0  0  0  0
   22.6870  -30.9071  -13.7126 N   0  0  0  0  0  0  0  0  0  0  0  0
   20.3539  -30.5894  -13.1214 C   0  0  0  0  0  0  0  0  0  0  0  0
   19.1737  -30.2320  -13.3655 O   0  0  0  0  0  0  0  0  0  0  0  0
   18.7240  -33.8428  -11.8015 N   0  0  0  0  0  0  0  0  0  0  0  0
   19.3101  -33.6673  -10.5331 C   0  0  0  0  0  0  0  0  0  0  0  0
   19.4874  -34.7436   -9.8620 O   0  0  0  0  0  0  0  0  0  0  0  0
   19.7204  -32.3950   -9.9382 C   0  0  0  0  0  0  0  0  0  0  0  0
   19.6025  -31.2401  -10.8684 C   0  0  2  0  0  0  0  0  0  0  0  0
   20.6372  -31.1356  -11.8383 N   0  0  0  0  0  0  0  0  0  0  0  0
   19.4274  -29.9828  -10.0737 C   0  0  0  0  0  0  0  0  0  0  0  0
   20.4190  -29.3475   -9.5900 O   0  0  0  0  0  0  0  0  0  0  0  0
   19.9041  -23.1930  -12.8238 N   0  0  0  0  0  0  0  0  0  0  0  0
   18.5972  -23.2196  -12.2704 C   0  0  0  0  0  0  0  0  0  0  0  0
   17.8304  -22.1969  -12.4407 N   0  0  0  0  0  0  0  0  0  0  0  0
   18.1379  -24.3496  -11.5414 N   0  0  0  0  0  0  0  0  0  0  0  0
   18.4379  -25.7012  -12.0234 C   0  0  0  0  0  0  0  0  0  0  0  0
   17.7262  -26.7112  -11.1596 C   0  0  0  0  0  0  0  0  0  0  0  0
   18.5923  -27.0580   -9.9599 C   0  0  0  0  0  0  0  0  0  0  0  0
   17.9633  -28.1579   -9.1319 C   0  0  2  0  0  0  0  0  0  0  0  0
   18.1501  -29.4236   -9.8119 N   0  0  0  0  0  0  0  0  0  0  0  0
   16.5234  -27.8315   -8.9705 C   0  0  0  0  0  0  0  0  0  0  0  0
   15.6436  -28.4758   -9.5941 O   0  0  0  0  0  0  0  0  0  0  0  0
   16.1620  -26.8009   -8.1179 O   0  0  0  0  0  0  0  0  0  0  0  0
  2  1  1  0
  3  2  1  0
  3  4  1  6
  5  3  1  0
  5  6  1  1
  7  8  2  0
  7  5  1  0
  9 10  1  0
 10 11  2  0
 10 12  1  0
 13 12  1  1
 13 14  1  0
 14  7  1  0
 15 16  2  0
 15 13  1  0
 17 18  1  0
 18 19  2  0
 20 18  1  0
 20 21  1  0
 22 21  1  0
 23 22  1  0
 24 23  1  6
 24 25  1  0
 25 15  1  0
 26 24  1  0
 27 26  2  0
 28 26  1  0
M  END
$$$$
