INR.pdb
     RDKit          3D

 28 27  0  0  1  0  0  0  0  0999 V2000
   29.4488  -15.0327  -16.7442 C   0  0  0  0  0  0  0  0  0  0  0  0
   28.1735  -14.6021  -17.4090 C   0  0  0  0  0  0  0  0  0  0  0  0
   27.7237  -13.2763  -16.8364 C   0  0  2  0  0  0  0  0  0  0  0  0
   27.5529  -13.4189  -15.3574 C   0  0  0  0  0  0  0  0  0  0  0  0
   26.4815  -12.7673  -17.5359 C   0  0  2  0  0  0  0  0  0  0  0  0
   26.6590  -12.8802  -18.9583 N   0  0  0  0  0  0  0  0  0  0  0  0
   26.1515  -11.3807  -17.1176 C   0  0  0  0  0  0  0  0  0  0  0  0
   25.7614  -11.1558  -15.9440 O   0  0  0  0  0  0  0  0  0  0  0  0
   25.2950   -6.2576  -16.7622 N   0  0  0  0  0  0  0  0  0  0  0  0
   26.2977   -6.5388  -17.7102 C   0  0  0  0  0  0  0  0  0  0  0  0
   26.9243   -5.5161  -18.1591 O   0  0  0  0  0  0  0  0  0  0  0  0
   26.6705   -7.8632  -18.2083 C   0  0  0  0  0  0  0  0  0  0  0  0
   25.9114   -8.9720  -17.5701 C   0  0  2  0  0  0  0  0  0  0  0  0
   26.2620  -10.2781  -18.0103 N   0  0  0  0  0  0  0  0  0  0  0  0
   24.4439   -8.6975  -17.6892 C   0  0  0  0  0  0  0  0  0  0  0  0
   23.8652   -8.6046  -18.8194 O   0  0  0  0  0  0  0  0  0  0  0  0
   17.3583  -12.7880  -15.7650 N   0  0  0  0  0  0  0  0  0  0  0  0
   16.9070  -11.5891  -16.3765 C   0  0  0  0  0  0  0  0  0  0  0  0
   15.6615  -11.4855  -16.6944 N   0  0  0  0  0  0  0  0  0  0  0  0
   17.8069  -10.5203  -16.6357 N   0  0  0  0  0  0  0  0  0  0  0  0
   19.2286  -10.6670  -16.3097 C   0  0  0  0  0  0  0  0  0  0  0  0
   19.9420   -9.3667  -16.5807 C   0  0  0  0  0  0  0  0  0  0  0  0
   21.4365   -9.5518  -16.3761 C   0  0  0  0  0  0  0  0  0  0  0  0
   22.1881   -8.2662  -16.6471 C   0  0  2  0  0  0  0  0  0  0  0  0
   23.6107   -8.5248  -16.5541 N   0  0  0  0  0  0  0  0  0  0  0  0
   21.7472   -7.2671  -15.6404 C   0  0  0  0  0  0  0  0  0  0  0  0
   22.4138   -7.0708  -14.5938 O   0  0  0  0  0  0  0  0  0  0  0  0
   20.5844   -6.5506  -15.8729 O   0  0  0  0  0  0  0  0  0  0  0  0
  2  1  1  0
  3  2  1  0
  3  4  1  1
  5  3  1  0
  5  6  1  6
  7  8  2  0
  7  5  1  0
  9 10  1  0
 10 11  2  0
 10 12  1  0
 13 12  1  6
 13 14  1  0
 14  7  1  0
 15 16  2  0
 15 13  1  0
 17 18  1  0
 18 19  2  0
 20 18  1  0
 20 21  1  0
 22 21  1  0
 23 22  1  0
 24 23  1  1
 24 25  1  0
 25 15  1  0
 26 24  1  0
 27 26  2  0
 28 26  1  0
M  END
$$$$
