INR.pdb
     RDKit          3D

 28 27  0  0  1  0  0  0  0  0999 V2000
   30.2063  -21.4324   -9.6663 C   0  0  0  0  0  0  0  0  0  0  0  0
   28.7701  -21.0921   -9.3921 C   0  0  0  0  0  0  0  0  0  0  0  0
   28.0505  -20.8331  -10.6972 C   0  0  2  0  0  0  0  0  0  0  0  0
   28.8417  -19.8515  -11.5016 C   0  0  0  0  0  0  0  0  0  0  0  0
   26.6201  -20.3979  -10.4603 C   0  0  2  0  0  0  0  0  0  0  0  0
   25.9450  -21.3960   -9.6760 N   0  0  0  0  0  0  0  0  0  0  0  0
   25.9186  -20.1166  -11.7391 C   0  0  0  0  0  0  0  0  0  0  0  0
   26.2054  -19.0853  -12.3980 O   0  0  0  0  0  0  0  0  0  0  0  0
   27.3244  -21.6307  -15.1258 N   0  0  0  0  0  0  0  0  0  0  0  0
   26.1689  -20.8324  -15.0215 C   0  0  0  0  0  0  0  0  0  0  0  0
   26.3484  -19.5839  -15.2432 O   0  0  0  0  0  0  0  0  0  0  0  0
   24.8220  -21.2988  -14.6909 C   0  0  0  0  0  0  0  0  0  0  0  0
   24.2559  -20.6604  -13.4723 C   0  0  2  0  0  0  0  0  0  0  0  0
   24.9168  -20.9853  -12.2557 N   0  0  0  0  0  0  0  0  0  0  0  0
   22.7826  -20.9239  -13.4168 C   0  0  0  0  0  0  0  0  0  0  0  0
   22.3111  -22.0317  -13.0029 O   0  0  0  0  0  0  0  0  0  0  0  0
   20.9029  -19.8689  -19.3371 N   0  0  0  0  0  0  0  0  0  0  0  0
   19.9074  -18.8874  -19.0911 C   0  0  0  0  0  0  0  0  0  0  0  0
   19.2888  -18.3659  -20.0952 N   0  0  0  0  0  0  0  0  0  0  0  0
   19.5947  -18.4838  -17.7650 N   0  0  0  0  0  0  0  0  0  0  0  0
   20.2543  -19.1340  -16.6287 C   0  0  0  0  0  0  0  0  0  0  0  0
   19.7897  -20.5649  -16.5308 C   0  0  0  0  0  0  0  0  0  0  0  0
   20.4274  -21.2274  -15.3207 C   0  0  0  0  0  0  0  0  0  0  0  0
   20.4491  -20.2897  -14.1328 C   0  0  2  0  0  0  0  0  0  0  0  0
   21.8245  -19.9586  -13.8203 N   0  0  0  0  0  0  0  0  0  0  0  0
   19.7829  -20.9830  -13.0007 C   0  0  0  0  0  0  0  0  0  0  0  0
   19.7788  -22.2371  -12.9269 O   0  0  0  0  0  0  0  0  0  0  0  0
   19.1629  -20.2234  -12.0219 O   0  0  0  0  0  0  0  0  0  0  0  0
  2  1  1  0
  3  2  1  0
  3  4  1  1
  5  3  1  0
  5  6  1  6
  7  8  2  0
  7  5  1  0
  9 10  1  0
 10 11  2  0
 10 12  1  0
 13 12  1  6
 13 14  1  0
 14  7  1  0
 15 16  2  0
 15 13  1  0
 17 18  1  0
 18 19  2  0
 20 18  1  0
 20 21  1  0
 22 21  1  0
 23 22  1  0
 24 23  1  6
 24 25  1  0
 25 15  1  0
 26 24  1  0
 27 26  2  0
 28 26  1  0
M  END
$$$$
