INR.pdb
     RDKit          3D

 28 27  0  0  1  0  0  0  0  0999 V2000
   28.9596  -21.5559  -17.3771 C   0  0  0  0  0  0  0  0  0  0  0  0
   27.5211  -21.1329  -17.3013 C   0  0  0  0  0  0  0  0  0  0  0  0
   26.8435  -21.8382  -16.1475 C   0  0  2  0  0  0  0  0  0  0  0  0
   27.0472  -23.3128  -16.2925 C   0  0  0  0  0  0  0  0  0  0  0  0
   25.3861  -21.4432  -16.0400 C   0  0  2  0  0  0  0  0  0  0  0  0
   25.2698  -20.0176  -16.1862 N   0  0  0  0  0  0  0  0  0  0  0  0
   24.7826  -21.9308  -14.7733 C   0  0  0  0  0  0  0  0  0  0  0  0
   24.8157  -23.1558  -14.4938 O   0  0  0  0  0  0  0  0  0  0  0  0
   26.1994  -21.8260  -10.5691 N   0  0  0  0  0  0  0  0  0  0  0  0
   25.4435  -20.7957  -11.1611 C   0  0  0  0  0  0  0  0  0  0  0  0
   26.1122  -19.7592  -11.5054 O   0  0  0  0  0  0  0  0  0  0  0  0
   24.0012  -20.8127  -11.4072 C   0  0  0  0  0  0  0  0  0  0  0  0
   23.6181  -21.5595  -12.6355 C   0  0  2  0  0  0  0  0  0  0  0  0
   24.1577  -21.0486  -13.8480 N   0  0  0  0  0  0  0  0  0  0  0  0
   22.1279  -21.7012  -12.6816 C   0  0  0  0  0  0  0  0  0  0  0  0
   21.3957  -20.9064  -13.3547 O   0  0  0  0  0  0  0  0  0  0  0  0
   17.8446  -25.4749   -6.4234 N   0  0  0  0  0  0  0  0  0  0  0  0
   16.9409  -24.5817   -7.0562 C   0  0  0  0  0  0  0  0  0  0  0  0
   15.7608  -24.4361   -6.5572 N   0  0  0  0  0  0  0  0  0  0  0  0
   17.3247  -23.8594   -8.2183 N   0  0  0  0  0  0  0  0  0  0  0  0
   17.7691  -24.5818   -9.4140 C   0  0  0  0  0  0  0  0  0  0  0  0
   18.0880  -23.5938  -10.5072 C   0  0  0  0  0  0  0  0  0  0  0  0
   19.5911  -23.3822  -10.5819 C   0  0  0  0  0  0  0  0  0  0  0  0
   19.9974  -22.8205  -11.9274 C   0  0  2  0  0  0  0  0  0  0  0  0
   21.4422  -22.7266  -11.9808 N   0  0  0  0  0  0  0  0  0  0  0  0
   19.3574  -21.4877  -12.0698 C   0  0  0  0  0  0  0  0  0  0  0  0
   19.6968  -20.5289  -11.3324 O   0  0  0  0  0  0  0  0  0  0  0  0
   18.3758  -21.3156  -13.0323 O   0  0  0  0  0  0  0  0  0  0  0  0
  2  1  1  0
  3  2  1  0
  3  4  1  6
  5  3  1  0
  5  6  1  1
  7  8  2  0
  7  5  1  0
  9 10  1  0
 10 11  2  0
 10 12  1  0
 13 12  1  1
 13 14  1  0
 14  7  1  0
 15 16  2  0
 15 13  1  0
 17 18  1  0
 18 19  2  0
 20 18  1  0
 20 21  1  0
 22 21  1  0
 23 22  1  0
 24 23  1  1
 24 25  1  0
 25 15  1  0
 26 24  1  0
 27 26  2  0
 28 26  1  0
M  END
$$$$
