INR.pdb
     RDKit          3D

 28 27  0  0  1  0  0  0  0  0999 V2000
   12.2321  -14.0797  -10.6537 C   0  0  0  0  0  0  0  0  0  0  0  0
   12.6214  -13.0041  -11.6260 C   0  0  0  0  0  0  0  0  0  0  0  0
   13.4010  -11.9259  -10.9066 C   0  0  2  0  0  0  0  0  0  0  0  0
   12.5903  -11.4284   -9.7524 C   0  0  0  0  0  0  0  0  0  0  0  0
   13.8265  -10.8270  -11.8568 C   0  0  2  0  0  0  0  0  0  0  0  0
   14.4887  -11.4118  -12.9912 N   0  0  0  0  0  0  0  0  0  0  0  0
   14.6699   -9.8132  -11.1730 C   0  0  0  0  0  0  0  0  0  0  0  0
   14.2138   -9.1793  -10.1880 O   0  0  0  0  0  0  0  0  0  0  0  0
   18.4218   -6.4957   -9.7096 N   0  0  0  0  0  0  0  0  0  0  0  0
   18.8094   -7.1519  -10.8938 C   0  0  0  0  0  0  0  0  0  0  0  0
   19.9744   -6.8460  -11.3289 O   0  0  0  0  0  0  0  0  0  0  0  0
   18.0143   -8.1244  -11.6441 C   0  0  0  0  0  0  0  0  0  0  0  0
   16.7240   -8.4676  -10.9881 C   0  0  2  0  0  0  0  0  0  0  0  0
   15.9975   -9.5273  -11.5978 N   0  0  0  0  0  0  0  0  0  0  0  0
   15.9054   -7.2236  -10.8291 C   0  0  0  0  0  0  0  0  0  0  0  0
   15.1556   -6.7865  -11.7605 O   0  0  0  0  0  0  0  0  0  0  0  0
   13.0605   -3.0164   -3.4882 N   0  0  0  0  0  0  0  0  0  0  0  0
   12.3479   -2.4493   -4.5769 C   0  0  0  0  0  0  0  0  0  0  0  0
   11.4702   -1.5359   -4.3356 N   0  0  0  0  0  0  0  0  0  0  0  0
   12.5936   -2.8766   -5.9098 N   0  0  0  0  0  0  0  0  0  0  0  0
   13.6704   -3.8330   -6.1836 C   0  0  0  0  0  0  0  0  0  0  0  0
   13.6905   -4.1576   -7.6557 C   0  0  0  0  0  0  0  0  0  0  0  0
   14.7417   -5.2203   -7.9301 C   0  0  0  0  0  0  0  0  0  0  0  0
   15.0358   -5.3280   -9.4110 C   0  0  2  0  0  0  0  0  0  0  0  0
   15.9146   -6.4580   -9.6348 N   0  0  0  0  0  0  0  0  0  0  0  0
   15.6657   -4.0526   -9.8381 C   0  0  0  0  0  0  0  0  0  0  0  0
   16.9137   -3.9112   -9.8130 O   0  0  0  0  0  0  0  0  0  0  0  0
   14.8534   -3.0153  -10.2669 O   0  0  0  0  0  0  0  0  0  0  0  0
  2  1  1  0
  3  2  1  0
  3  4  1  1
  5  3  1  0
  5  6  1  6
  7  8  2  0
  7  5  1  0
  9 10  1  0
 10 11  2  0
 10 12  1  0
 13 12  1  6
 13 14  1  0
 14  7  1  0
 15 16  2  0
 15 13  1  0
 17 18  1  0
 18 19  2  0
 20 18  1  0
 20 21  1  0
 22 21  1  0
 23 22  1  0
 24 23  1  1
 24 25  1  0
 25 15  1  0
 26 24  1  0
 27 26  2  0
 28 26  1  0
M  END
$$$$
