INR.pdb
     RDKit          3D

 28 27  0  0  1  0  0  0  0  0999 V2000
   30.3937  -21.3494   -9.5243 C   0  0  0  0  0  0  0  0  0  0  0  0
   30.1662  -21.2106  -11.0017 C   0  0  0  0  0  0  0  0  0  0  0  0
   28.7388  -20.7809  -11.2586 C   0  0  2  0  0  0  0  0  0  0  0  0
   27.8133  -21.8320  -10.7337 C   0  0  0  0  0  0  0  0  0  0  0  0
   28.5144  -20.4622  -12.7213 C   0  0  2  0  0  0  0  0  0  0  0  0
   29.5815  -19.6213  -13.1920 N   0  0  0  0  0  0  0  0  0  0  0  0
   27.1775  -19.8552  -12.9466 C   0  0  0  0  0  0  0  0  0  0  0  0
   26.8633  -18.7923  -12.3536 O   0  0  0  0  0  0  0  0  0  0  0  0
   26.7266  -17.8969  -15.3310 N   0  0  0  0  0  0  0  0  0  0  0  0
   25.6346  -18.4756  -16.0064 C   0  0  0  0  0  0  0  0  0  0  0  0
   25.4935  -18.1102  -17.2257 O   0  0  0  0  0  0  0  0  0  0  0  0
   24.6782  -19.4306  -15.4460 C   0  0  0  0  0  0  0  0  0  0  0  0
   24.9693  -19.8026  -14.0353 C   0  0  2  0  0  0  0  0  0  0  0  0
   26.2222  -20.4412  -13.8235 N   0  0  0  0  0  0  0  0  0  0  0  0
   23.8200  -20.5903  -13.4859 C   0  0  0  0  0  0  0  0  0  0  0  0
   23.8949  -21.2055  -12.3738 O   0  0  0  0  0  0  0  0  0  0  0  0
   19.9353  -23.6096   -8.1730 N   0  0  0  0  0  0  0  0  0  0  0  0
   18.8684  -23.6377   -9.1088 C   0  0  0  0  0  0  0  0  0  0  0  0
   17.9365  -24.5167   -8.9611 N   0  0  0  0  0  0  0  0  0  0  0  0
   18.8236  -22.7165  -10.1900 N   0  0  0  0  0  0  0  0  0  0  0  0
   20.0501  -22.0428  -10.6270 C   0  0  0  0  0  0  0  0  0  0  0  0
   19.7251  -21.0857  -11.7456 C   0  0  0  0  0  0  0  0  0  0  0  0
   21.0125  -20.5428  -12.3436 C   0  0  0  0  0  0  0  0  0  0  0  0
   21.4062  -21.3145  -13.5847 C   0  0  2  0  0  0  0  0  0  0  0  0
   22.5809  -20.6990  -14.1682 N   0  0  0  0  0  0  0  0  0  0  0  0
   20.2517  -21.2831  -14.5186 C   0  0  0  0  0  0  0  0  0  0  0  0
   20.0316  -20.2756  -15.2360 O   0  0  0  0  0  0  0  0  0  0  0  0
   19.4164  -22.3863  -14.5880 O   0  0  0  0  0  0  0  0  0  0  0  0
  2  1  1  0
  3  2  1  0
  3  4  1  6
  5  3  1  0
  5  6  1  1
  7  8  2  0
  7  5  1  0
  9 10  1  0
 10 11  2  0
 10 12  1  0
 13 12  1  6
 13 14  1  0
 14  7  1  0
 15 16  2  0
 15 13  1  0
 17 18  1  0
 18 19  2  0
 20 18  1  0
 20 21  1  0
 22 21  1  0
 23 22  1  0
 24 23  1  1
 24 25  1  0
 25 15  1  0
 26 24  1  0
 27 26  2  0
 28 26  1  0
M  END
$$$$
