INR.pdb
     RDKit          3D

 28 27  0  0  1  0  0  0  0  0999 V2000
   22.3879  -21.8440  -17.6549 C   0  0  0  0  0  0  0  0  0  0  0  0
   21.0566  -22.3531  -17.1831 C   0  0  0  0  0  0  0  0  0  0  0  0
   21.2078  -22.9814  -15.8155 C   0  0  2  0  0  0  0  0  0  0  0  0
   22.2334  -24.0674  -15.8905 C   0  0  0  0  0  0  0  0  0  0  0  0
   19.8746  -23.4535  -15.2760 C   0  0  2  0  0  0  0  0  0  0  0  0
   18.9033  -22.4045  -15.4291 N   0  0  0  0  0  0  0  0  0  0  0  0
   19.9898  -23.9136  -13.8683 C   0  0  0  0  0  0  0  0  0  0  0  0
   20.8757  -24.7472  -13.5515 O   0  0  0  0  0  0  0  0  0  0  0  0
   19.9064  -24.0058   -8.4268 N   0  0  0  0  0  0  0  0  0  0  0  0
   18.7217  -23.7055   -9.1264 C   0  0  0  0  0  0  0  0  0  0  0  0
   17.6373  -23.9908   -8.5077 O   0  0  0  0  0  0  0  0  0  0  0  0
   18.6317  -23.1124  -10.4610 C   0  0  0  0  0  0  0  0  0  0  0  0
   19.2219  -23.9632  -11.5290 C   0  0  2  0  0  0  0  0  0  0  0  0
   19.1204  -23.4385  -12.8469 N   0  0  0  0  0  0  0  0  0  0  0  0
   18.6691  -25.3506  -11.4162 C   0  0  0  0  0  0  0  0  0  0  0  0
   17.4383  -25.6043  -11.6202 O   0  0  0  0  0  0  0  0  0  0  0  0
   21.8590  -32.6976   -7.4242 N   0  0  0  0  0  0  0  0  0  0  0  0
   20.8456  -33.1544   -8.3070 C   0  0  0  0  0  0  0  0  0  0  0  0
   20.6126  -34.4204   -8.3821 N   0  0  0  0  0  0  0  0  0  0  0  0
   20.0991  -32.2375   -9.0954 N   0  0  0  0  0  0  0  0  0  0  0  0
   20.4407  -30.8120   -9.0778 C   0  0  0  0  0  0  0  0  0  0  0  0
   19.4693  -30.0528   -9.9455 C   0  0  0  0  0  0  0  0  0  0  0  0
   19.8800  -28.5912  -10.0141 C   0  0  0  0  0  0  0  0  0  0  0  0
   18.9581  -27.8069  -10.9229 C   0  0  2  0  0  0  0  0  0  0  0  0
   19.4799  -26.4640  -11.0763 N   0  0  0  0  0  0  0  0  0  0  0  0
   17.6101  -27.8016  -10.2993 C   0  0  0  0  0  0  0  0  0  0  0  0
   16.6736  -28.4835  -10.7853 O   0  0  0  0  0  0  0  0  0  0  0  0
   17.3986  -27.0301   -9.1681 O   0  0  0  0  0  0  0  0  0  0  0  0
  2  1  1  0
  3  2  1  0
  3  4  1  6
  5  3  1  0
  5  6  1  1
  7  8  2  0
  7  5  1  0
  9 10  1  0
 10 11  2  0
 10 12  1  0
 13 12  1  1
 13 14  1  0
 14  7  1  0
 15 16  2  0
 15 13  1  0
 17 18  1  0
 18 19  2  0
 20 18  1  0
 20 21  1  0
 22 21  1  0
 23 22  1  0
 24 23  1  1
 24 25  1  0
 25 15  1  0
 26 24  1  0
 27 26  2  0
 28 26  1  0
M  END
$$$$
