INR.pdb
     RDKit          3D

 28 27  0  0  1  0  0  0  0  0999 V2000
   18.0693  -25.0425  -10.6511 C   0  0  0  0  0  0  0  0  0  0  0  0
   18.5426  -24.5673   -9.3079 C   0  0  0  0  0  0  0  0  0  0  0  0
   17.4712  -24.8231   -8.2712 C   0  0  2  0  0  0  0  0  0  0  0  0
   16.1904  -24.2046   -8.7336 C   0  0  0  0  0  0  0  0  0  0  0  0
   17.9055  -24.3469   -6.9015 C   0  0  2  0  0  0  0  0  0  0  0  0
   19.1717  -24.9431   -6.5722 N   0  0  0  0  0  0  0  0  0  0  0  0
   16.8681  -24.6243   -5.8752 C   0  0  0  0  0  0  0  0  0  0  0  0
   15.7230  -24.1183   -5.9883 O   0  0  0  0  0  0  0  0  0  0  0  0
   15.8200  -28.2262   -5.0459 N   0  0  0  0  0  0  0  0  0  0  0  0
   16.1284  -28.1106   -3.6766 C   0  0  0  0  0  0  0  0  0  0  0  0
   16.2910  -29.2211   -3.0600 O   0  0  0  0  0  0  0  0  0  0  0  0
   16.2737  -26.8637   -2.9248 C   0  0  0  0  0  0  0  0  0  0  0  0
   16.1188  -25.6445   -3.7628 C   0  0  2  0  0  0  0  0  0  0  0  0
   17.1256  -25.4555   -4.7493 N   0  0  0  0  0  0  0  0  0  0  0  0
   15.9525  -24.4519   -2.8723 C   0  0  0  0  0  0  0  0  0  0  0  0
   16.9428  -23.7401   -2.5070 O   0  0  0  0  0  0  0  0  0  0  0  0
    9.0679  -19.3878   -3.1603 N   0  0  0  0  0  0  0  0  0  0  0  0
   10.2364  -18.9937   -3.8632 C   0  0  0  0  0  0  0  0  0  0  0  0
   10.1375  -18.0815   -4.7692 N   0  0  0  0  0  0  0  0  0  0  0  0
   11.4941  -19.5903   -3.5775 N   0  0  0  0  0  0  0  0  0  0  0  0
   11.5679  -20.7420   -2.6734 C   0  0  0  0  0  0  0  0  0  0  0  0
   13.0024  -21.1872   -2.5443 C   0  0  0  0  0  0  0  0  0  0  0  0
   13.0798  -22.4051   -1.6385 C   0  0  0  0  0  0  0  0  0  0  0  0
   14.5043  -22.9004   -1.5099 C   0  0  2  0  0  0  0  0  0  0  0  0
   14.6854  -24.0427   -2.3826 N   0  0  0  0  0  0  0  0  0  0  0  0
   14.7285  -23.2593   -0.0861 C   0  0  0  0  0  0  0  0  0  0  0  0
   14.9489  -24.4494    0.2505 O   0  0  0  0  0  0  0  0  0  0  0  0
   14.6910  -22.2580    0.8707 O   0  0  0  0  0  0  0  0  0  0  0  0
  2  1  1  0
  3  2  1  0
  3  4  1  6
  5  3  1  0
  5  6  1  1
  7  8  2  0
  7  5  1  0
  9 10  1  0
 10 11  2  0
 10 12  1  0
 13 12  1  1
 13 14  1  0
 14  7  1  0
 15 16  2  0
 15 13  1  0
 17 18  1  0
 18 19  2  0
 20 18  1  0
 20 21  1  0
 22 21  1  0
 23 22  1  0
 24 23  1  1
 24 25  1  0
 25 15  1  0
 26 24  1  0
 27 26  2  0
 28 26  1  0
M  END
$$$$
