INR.pdb
     RDKit          3D

 28 27  0  0  1  0  0  0  0  0999 V2000
   23.9225  -20.3415  -16.2296 C   0  0  0  0  0  0  0  0  0  0  0  0
   22.7887  -19.3575  -16.2306 C   0  0  0  0  0  0  0  0  0  0  0  0
   21.9025  -19.6013  -15.0292 C   0  0  2  0  0  0  0  0  0  0  0  0
   22.7438  -19.5799  -13.7928 C   0  0  0  0  0  0  0  0  0  0  0  0
   21.1010  -20.8759  -15.1857 C   0  0  2  0  0  0  0  0  0  0  0  0
   20.4336  -20.8624  -16.4591 N   0  0  0  0  0  0  0  0  0  0  0  0
   20.1554  -21.0657  -14.0559 C   0  0  0  0  0  0  0  0  0  0  0  0
   20.1607  -20.2596  -13.0915 O   0  0  0  0  0  0  0  0  0  0  0  0
   17.0442  -20.1438  -14.3524 N   0  0  0  0  0  0  0  0  0  0  0  0
   16.3519  -21.3102  -13.9735 C   0  0  0  0  0  0  0  0  0  0  0  0
   15.1147  -21.3396  -14.3027 O   0  0  0  0  0  0  0  0  0  0  0  0
   16.9138  -22.4555  -13.2569 C   0  0  0  0  0  0  0  0  0  0  0  0
   18.3518  -22.2921  -12.9126 C   0  0  2  0  0  0  0  0  0  0  0  0
   19.2275  -22.1441  -14.0233 N   0  0  0  0  0  0  0  0  0  0  0  0
   18.7676  -23.3990  -11.9934 C   0  0  0  0  0  0  0  0  0  0  0  0
   19.7450  -24.1686  -12.2640 O   0  0  0  0  0  0  0  0  0  0  0  0
   15.7786  -23.9728   -4.3801 N   0  0  0  0  0  0  0  0  0  0  0  0
   16.5214  -25.1594   -4.6150 C   0  0  0  0  0  0  0  0  0  0  0  0
   16.6086  -26.0339   -3.6713 N   0  0  0  0  0  0  0  0  0  0  0  0
   17.1588  -25.3841   -5.8651 N   0  0  0  0  0  0  0  0  0  0  0  0
   18.5260  -24.9030   -6.0849 C   0  0  0  0  0  0  0  0  0  0  0  0
   18.9690  -25.2706   -7.4784 C   0  0  0  0  0  0  0  0  0  0  0  0
   18.5218  -24.1968   -8.4564 C   0  0  0  0  0  0  0  0  0  0  0  0
   18.4776  -24.7314   -9.8718 C   0  0  2  0  0  0  0  0  0  0  0  0
   18.1004  -23.6576  -10.7684 N   0  0  0  0  0  0  0  0  0  0  0  0
   17.4910  -25.8411   -9.9025 C   0  0  0  0  0  0  0  0  0  0  0  0
   16.2672  -25.6098  -10.0675 O   0  0  0  0  0  0  0  0  0  0  0  0
   17.9413  -27.1420   -9.7458 O   0  0  0  0  0  0  0  0  0  0  0  0
  2  1  1  0
  3  2  1  0
  3  4  1  1
  5  3  1  0
  5  6  1  6
  7  8  2  0
  7  5  1  0
  9 10  1  0
 10 11  2  0
 10 12  1  0
 13 12  1  6
 13 14  1  0
 14  7  1  0
 15 16  2  0
 15 13  1  0
 17 18  1  0
 18 19  2  0
 20 18  1  0
 20 21  1  0
 22 21  1  0
 23 22  1  0
 24 23  1  1
 24 25  1  0
 25 15  1  0
 26 24  1  0
 27 26  2  0
 28 26  1  0
M  END
$$$$
