INR.pdb
     RDKit          3D

 28 27  0  0  1  0  0  0  0  0999 V2000
   28.9828  -17.1992  -18.0858 C   0  0  0  0  0  0  0  0  0  0  0  0
   27.5332  -17.5542  -17.9230 C   0  0  0  0  0  0  0  0  0  0  0  0
   27.3862  -18.6167  -16.8565 C   0  0  2  0  0  0  0  0  0  0  0  0
   28.2881  -19.7635  -17.1858 C   0  0  0  0  0  0  0  0  0  0  0  0
   25.9391  -19.0247  -16.6813 C   0  0  2  0  0  0  0  0  0  0  0  0
   25.1199  -17.8453  -16.6083 N   0  0  0  0  0  0  0  0  0  0  0  0
   25.7622  -19.9075  -15.4998 C   0  0  0  0  0  0  0  0  0  0  0  0
   26.3582  -21.0130  -15.4483 O   0  0  0  0  0  0  0  0  0  0  0  0
   24.9101  -22.3745  -11.1619 N   0  0  0  0  0  0  0  0  0  0  0  0
   25.4213  -21.0697  -11.0220 C   0  0  0  0  0  0  0  0  0  0  0  0
   25.9365  -20.8069   -9.8794 O   0  0  0  0  0  0  0  0  0  0  0  0
   25.4121  -20.0227  -12.0440 C   0  0  0  0  0  0  0  0  0  0  0  0
   24.7599  -20.4398  -13.3143 C   0  0  2  0  0  0  0  0  0  0  0  0
   24.9293  -19.5431  -14.4051 N   0  0  0  0  0  0  0  0  0  0  0  0
   23.3211  -20.7594  -13.0482 C   0  0  0  0  0  0  0  0  0  0  0  0
   22.4965  -19.8745  -12.6508 O   0  0  0  0  0  0  0  0  0  0  0  0
   18.9573  -24.0390   -7.3052 N   0  0  0  0  0  0  0  0  0  0  0  0
   18.9677  -24.8848   -8.4452 C   0  0  0  0  0  0  0  0  0  0  0  0
   18.8737  -26.1593   -8.2731 N   0  0  0  0  0  0  0  0  0  0  0  0
   19.0794  -24.3419   -9.7537 N   0  0  0  0  0  0  0  0  0  0  0  0
   19.2973  -22.9032   -9.9316 C   0  0  0  0  0  0  0  0  0  0  0  0
   19.5454  -22.6101  -11.3896 C   0  0  0  0  0  0  0  0  0  0  0  0
   21.0172  -22.2984  -11.6047 C   0  0  0  0  0  0  0  0  0  0  0  0
   21.3823  -22.3721  -13.0717 C   0  0  2  0  0  0  0  0  0  0  0  0
   22.7899  -22.0633  -13.2220 N   0  0  0  0  0  0  0  0  0  0  0  0
   20.5283  -21.3969  -13.7970 C   0  0  0  0  0  0  0  0  0  0  0  0
   20.2489  -21.5640  -15.0103 O   0  0  0  0  0  0  0  0  0  0  0  0
   20.0416  -20.2947  -13.1131 O   0  0  0  0  0  0  0  0  0  0  0  0
  2  1  1  0
  3  2  1  0
  3  4  1  6
  5  3  1  0
  5  6  1  1
  7  8  2  0
  7  5  1  0
  9 10  1  0
 10 11  2  0
 10 12  1  0
 13 12  1  1
 13 14  1  0
 14  7  1  0
 15 16  2  0
 15 13  1  0
 17 18  1  0
 18 19  2  0
 20 18  1  0
 20 21  1  0
 22 21  1  0
 23 22  1  0
 24 23  1  1
 24 25  1  0
 25 15  1  0
 26 24  1  0
 27 26  2  0
 28 26  1  0
M  END
$$$$
