INR.pdb
     RDKit          3D

 28 27  0  0  1  0  0  0  0  0999 V2000
   29.8213  -19.5540  -16.3788 C   0  0  0  0  0  0  0  0  0  0  0  0
   28.6483  -19.9939  -17.2061 C   0  0  0  0  0  0  0  0  0  0  0  0
   27.4128  -20.0705  -16.3367 C   0  0  2  0  0  0  0  0  0  0  0  0
   27.1889  -18.7394  -15.6925 C   0  0  0  0  0  0  0  0  0  0  0  0
   27.5086  -21.2080  -15.3426 C   0  0  2  0  0  0  0  0  0  0  0  0
   27.7449  -22.4370  -16.0503 N   0  0  0  0  0  0  0  0  0  0  0  0
   26.3022  -21.2782  -14.4787 C   0  0  0  0  0  0  0  0  0  0  0  0
   25.2342  -21.7624  -14.9313 O   0  0  0  0  0  0  0  0  0  0  0  0
   22.8035  -21.1310  -10.6334 N   0  0  0  0  0  0  0  0  0  0  0  0
   24.0780  -20.8227  -10.1196 C   0  0  0  0  0  0  0  0  0  0  0  0
   24.1212  -20.6231   -8.8553 O   0  0  0  0  0  0  0  0  0  0  0  0
   25.3181  -20.7153  -10.8887 C   0  0  0  0  0  0  0  0  0  0  0  0
   25.1227  -20.8774  -12.3545 C   0  0  2  0  0  0  0  0  0  0  0  0
   26.3096  -20.8101  -13.1349 N   0  0  0  0  0  0  0  0  0  0  0  0
   24.0705  -19.9188  -12.8206 C   0  0  0  0  0  0  0  0  0  0  0  0
   24.3045  -18.6747  -12.9559 O   0  0  0  0  0  0  0  0  0  0  0  0
   24.6780  -19.6180  -17.8291 N   0  0  0  0  0  0  0  0  0  0  0  0
   23.8577  -20.5040  -18.5755 C   0  0  0  0  0  0  0  0  0  0  0  0
   24.4157  -21.4706  -19.2213 N   0  0  0  0  0  0  0  0  0  0  0  0
   22.4475  -20.3330  -18.6136 N   0  0  0  0  0  0  0  0  0  0  0  0
   21.7852  -19.4991  -17.6060 C   0  0  0  0  0  0  0  0  0  0  0  0
   21.8702  -20.1750  -16.2611 C   0  0  0  0  0  0  0  0  0  0  0  0
   22.3678  -19.1839  -15.2219 C   0  0  0  0  0  0  0  0  0  0  0  0
   21.8074  -19.5013  -13.8522 C   0  0  2  0  0  0  0  0  0  0  0  0
   22.7527  -20.3364  -13.1394 N   0  0  0  0  0  0  0  0  0  0  0  0
   20.5070  -20.1919  -14.0476 C   0  0  0  0  0  0  0  0  0  0  0  0
   20.3584  -21.3923  -13.7080 O   0  0  0  0  0  0  0  0  0  0  0  0
   19.4544  -19.4902  -14.6126 O   0  0  0  0  0  0  0  0  0  0  0  0
  2  1  1  0
  3  2  1  0
  3  4  1  1
  5  3  1  0
  5  6  1  6
  7  8  2  0
  7  5  1  0
  9 10  1  0
 10 11  2  0
 10 12  1  0
 13 12  1  1
 13 14  1  0
 14  7  1  0
 15 16  2  0
 15 13  1  0
 17 18  1  0
 18 19  2  0
 20 18  1  0
 20 21  1  0
 22 21  1  0
 23 22  1  0
 24 23  1  6
 24 25  1  0
 25 15  1  0
 26 24  1  0
 27 26  2  0
 28 26  1  0
M  END
$$$$
