WLC.pdb
     RDKit          3D

 29 30  0  0  1  0  0  0  0  0999 V2000
    6.2556  -18.2685   23.9749 N   0  0  0  0  0  0  0  0  0  0  0  0
    6.8291  -16.9245   24.0025 C   0  0  1  0  0  0  0  0  0  0  0  0
    7.4145  -16.6035   25.3304 C   0  0  0  0  0  0  0  0  0  0  0  0
    6.8226  -15.4335   25.9976 C   0  0  0  0  0  0  0  0  0  0  0  0
    5.5687  -15.4540   26.6155 C   0  0  0  0  0  0  0  0  0  0  0  0
    5.3399  -14.2576   27.1631 N   0  0  0  0  0  0  0  0  0  0  0  0
    6.3800  -13.4255   26.9444 C   0  0  0  0  0  0  0  0  0  0  0  0
    6.6052  -12.1136   27.2950 C   0  0  0  0  0  0  0  0  0  0  0  0
    7.7650  -11.4865   26.9282 C   0  0  0  0  0  0  0  0  0  0  0  0
    8.6723  -12.2273   26.2041 C   0  0  0  0  0  0  0  0  0  0  0  0
    8.4755  -13.5396   25.8393 C   0  0  0  0  0  0  0  0  0  0  0  0
    7.3009  -14.1737   26.2131 C   0  0  0  0  0  0  0  0  0  0  0  0
    7.7081  -16.7835   22.8336 C   0  0  0  0  0  0  0  0  0  0  0  0
    8.1796  -17.8062   22.2502 O   0  0  0  0  0  0  0  0  0  0  0  0
    6.8967  -14.2561   19.1163 C   0  0  0  0  0  0  0  0  0  0  0  0
    7.5290  -13.5001   20.2800 C   0  0  2  0  0  0  0  0  0  0  0  0
    7.5255  -12.0297   19.8721 C   0  0  0  0  0  0  0  0  0  0  0  0
    8.8985  -13.9985   20.5818 C   0  0  0  0  0  0  0  0  0  0  0  0
    8.9742  -15.3863   21.1292 C   0  0  2  0  0  0  0  0  0  0  0  0
    8.0870  -15.5419   22.2814 N   0  0  0  0  0  0  0  0  0  0  0  0
   10.3343  -15.6584   21.6166 C   0  0  0  0  0  0  0  0  0  0  0  0
   11.3079  -15.5580   20.8442 O   0  0  0  0  0  0  0  0  0  0  0  0
   10.5943  -16.0386   22.9551 N   0  0  0  0  0  0  0  0  0  0  0  0
   11.9688  -16.3165   23.4039 C   0  0  1  0  0  0  0  0  0  0  0  0
   12.1690  -15.5318   24.6846 C   0  0  0  0  0  0  0  0  0  0  0  0
   13.6926  -15.9406   25.5342 S   0  0  0  0  0  0  0  0  0  0  0  0
   12.1365  -17.7449   23.6647 C   0  0  0  0  0  0  0  0  0  0  0  0
   11.1663  -18.4374   24.0324 O   0  0  0  0  0  0  0  0  0  0  0  0
   13.3732  -18.3449   23.5067 O   0  0  0  0  0  0  0  0  0  0  0  0
  2  1  1  1
  3  4  1  0
  3  2  1  0
  4 12  1  0
  4  5  2  0
  5  6  1  0
  7  6  1  0
  7  8  2  0
  9  8  1  0
 10  9  2  0
 11 12  2  0
 11 10  1  0
 12  7  1  0
 13  2  1  0
 13 20  1  0
 14 13  2  0
 16 15  1  6
 16 17  1  0
 19 18  1  1
 18 16  1  0
 19 20  1  0
 21 19  1  0
 22 21  2  0
 23 21  1  0
 24 27  1  0
 24 23  1  0
 24 25  1  1
 26 25  1  0
 27 29  1  0
 28 27  2  0
M  END
$$$$
