WLC.pdb
     RDKit          3D

 29 30  0  0  1  0  0  0  0  0999 V2000
    6.5455  -18.7696   24.5053 N   0  0  0  0  0  0  0  0  0  0  0  0
    6.8588  -17.3434   24.4452 C   0  0  1  0  0  0  0  0  0  0  0  0
    7.2659  -16.8134   25.7728 C   0  0  0  0  0  0  0  0  0  0  0  0
    6.8808  -15.4156   26.0221 C   0  0  0  0  0  0  0  0  0  0  0  0
    5.5744  -14.9404   25.8743 C   0  0  0  0  0  0  0  0  0  0  0  0
    5.5453  -13.6498   26.2165 N   0  0  0  0  0  0  0  0  0  0  0  0
    6.7719  -13.2266   26.5887 C   0  0  0  0  0  0  0  0  0  0  0  0
    7.2408  -12.0020   27.0073 C   0  0  0  0  0  0  0  0  0  0  0  0
    8.5631  -11.8345   27.3179 C   0  0  0  0  0  0  0  0  0  0  0  0
    9.3782  -12.9370   27.1896 C   0  0  0  0  0  0  0  0  0  0  0  0
    8.9387  -14.1731   26.7743 C   0  0  0  0  0  0  0  0  0  0  0  0
    7.5988  -14.3415   26.4616 C   0  0  0  0  0  0  0  0  0  0  0  0
    7.7890  -17.1312   23.3278 C   0  0  0  0  0  0  0  0  0  0  0  0
    8.2998  -18.1163   22.7137 O   0  0  0  0  0  0  0  0  0  0  0  0
    6.8241  -14.4245   19.9660 C   0  0  0  0  0  0  0  0  0  0  0  0
    7.5783  -13.6870   21.0672 C   0  0  2  0  0  0  0  0  0  0  0  0
    7.5701  -12.2154   20.6638 C   0  0  0  0  0  0  0  0  0  0  0  0
    8.9583  -14.2168   21.2401 C   0  0  0  0  0  0  0  0  0  0  0  0
    9.0524  -15.6313   21.7108 C   0  0  2  0  0  0  0  0  0  0  0  0
    8.1771  -15.8580   22.8604 N   0  0  0  0  0  0  0  0  0  0  0  0
   10.4194  -15.9156   22.1713 C   0  0  0  0  0  0  0  0  0  0  0  0
   11.3852  -15.7612   21.3980 O   0  0  0  0  0  0  0  0  0  0  0  0
   10.6947  -16.3674   23.4842 N   0  0  0  0  0  0  0  0  0  0  0  0
   12.0785  -16.6285   23.9143 C   0  0  1  0  0  0  0  0  0  0  0  0
   12.2572  -15.9170   25.2401 C   0  0  0  0  0  0  0  0  0  0  0  0
   11.4793  -16.7690   26.6110 S   0  0  0  0  0  0  0  0  0  0  0  0
   12.2920  -18.0640   24.0877 C   0  0  0  0  0  0  0  0  0  0  0  0
   11.3334  -18.8584   24.0104 O   0  0  0  0  0  0  0  0  0  0  0  0
   13.5597  -18.5579   24.3395 O   0  0  0  0  0  0  0  0  0  0  0  0
  2  1  1  1
  3  4  1  0
  3  2  1  0
  4 12  1  0
  4  5  2  0
  5  6  1  0
  7  6  1  0
  7  8  2  0
  9  8  1  0
 10  9  2  0
 11 12  2  0
 11 10  1  0
 12  7  1  0
 13  2  1  0
 13 20  1  0
 14 13  2  0
 16 15  1  6
 16 17  1  0
 19 18  1  1
 18 16  1  0
 19 20  1  0
 21 19  1  0
 22 21  2  0
 23 21  1  0
 24 27  1  0
 24 23  1  0
 24 25  1  1
 26 25  1  0
 27 29  1  0
 28 27  2  0
M  END
$$$$
