WLC.pdb
     RDKit          3D

 29 30  0  0  1  0  0  0  0  0999 V2000
    8.6789  -16.1496   25.2616 N   0  0  0  0  0  0  0  0  0  0  0  0
    7.6636  -16.8726   24.4985 C   0  0  1  0  0  0  0  0  0  0  0  0
    6.2937  -16.5920   25.0022 C   0  0  0  0  0  0  0  0  0  0  0  0
    6.1483  -15.3100   25.7091 C   0  0  0  0  0  0  0  0  0  0  0  0
    4.9428  -14.8710   26.2644 C   0  0  0  0  0  0  0  0  0  0  0  0
    5.1505  -13.6994   26.8709 N   0  0  0  0  0  0  0  0  0  0  0  0
    6.4411  -13.3222   26.7520 C   0  0  0  0  0  0  0  0  0  0  0  0
    7.1246  -12.2109   27.1907 C   0  0  0  0  0  0  0  0  0  0  0  0
    8.4575  -12.0633   26.9175 C   0  0  0  0  0  0  0  0  0  0  0  0
    9.0607  -13.0681   26.1944 C   0  0  0  0  0  0  0  0  0  0  0  0
    8.4042  -14.1901   25.7430 C   0  0  0  0  0  0  0  0  0  0  0  0
    7.0546  -14.3388   26.0219 C   0  0  0  0  0  0  0  0  0  0  0  0
    7.9127  -16.6304   23.0709 C   0  0  0  0  0  0  0  0  0  0  0  0
    7.2922  -17.2907   22.1836 O   0  0  0  0  0  0  0  0  0  0  0  0
    6.7117  -14.0956   20.2228 C   0  0  0  0  0  0  0  0  0  0  0  0
    7.8721  -13.4730   20.9918 C   0  0  2  0  0  0  0  0  0  0  0  0
    7.9015  -12.0032   20.5828 C   0  0  0  0  0  0  0  0  0  0  0  0
    9.1581  -14.1645   20.7039 C   0  0  0  0  0  0  0  0  0  0  0  0
    9.2560  -15.5738   21.1896 C   0  0  2  0  0  0  0  0  0  0  0  0
    8.8305  -15.6755   22.5851 N   0  0  0  0  0  0  0  0  0  0  0  0
   10.6564  -16.0198   21.1521 C   0  0  0  0  0  0  0  0  0  0  0  0
   11.3064  -15.9531   20.0902 O   0  0  0  0  0  0  0  0  0  0  0  0
   11.3154  -16.5338   22.2945 N   0  0  0  0  0  0  0  0  0  0  0  0
   12.7095  -17.0002   22.2115 C   0  0  1  0  0  0  0  0  0  0  0  0
   13.2875  -16.8756   23.6066 C   0  0  0  0  0  0  0  0  0  0  0  0
   12.2725  -17.6484   24.8647 S   0  0  0  0  0  0  0  0  0  0  0  0
   12.7512  -18.3958   21.7789 C   0  0  0  0  0  0  0  0  0  0  0  0
   11.6940  -19.0371   21.6141 O   0  0  0  0  0  0  0  0  0  0  0  0
   13.9635  -19.0211   21.5474 O   0  0  0  0  0  0  0  0  0  0  0  0
  2  1  1  1
  3  4  1  0
  3  2  1  0
  4 12  1  0
  4  5  2  0
  5  6  1  0
  7  6  1  0
  7  8  2  0
  9  8  1  0
 10  9  2  0
 11 12  2  0
 11 10  1  0
 12  7  1  0
 13  2  1  0
 13 20  1  0
 14 13  2  0
 16 15  1  6
 16 17  1  0
 19 18  1  1
 18 16  1  0
 19 20  1  0
 21 19  1  0
 22 21  2  0
 23 21  1  0
 24 27  1  0
 24 23  1  0
 24 25  1  1
 26 25  1  0
 27 29  1  0
 28 27  2  0
M  END
$$$$
