WLC.pdb
     RDKit          3D

 29 30  0  0  1  0  0  0  0  0999 V2000
    7.0404  -18.0872   24.8023 N   0  0  0  0  0  0  0  0  0  0  0  0
    7.1935  -16.6801   24.4381 C   0  0  1  0  0  0  0  0  0  0  0  0
    8.0946  -15.9636   25.3783 C   0  0  0  0  0  0  0  0  0  0  0  0
    7.4195  -15.0082   26.2704 C   0  0  0  0  0  0  0  0  0  0  0  0
    6.7278  -15.3904   27.4235 C   0  0  0  0  0  0  0  0  0  0  0  0
    6.2706  -14.2939   28.0337 N   0  0  0  0  0  0  0  0  0  0  0  0
    6.6190  -13.1851   27.3473 C   0  0  0  0  0  0  0  0  0  0  0  0
    6.3770  -11.8476   27.5652 C   0  0  0  0  0  0  0  0  0  0  0  0
    6.8422  -10.9062   26.6874 C   0  0  0  0  0  0  0  0  0  0  0  0
    7.5497  -11.3647   25.5985 C   0  0  0  0  0  0  0  0  0  0  0  0
    7.8076  -12.6942   25.3545 C   0  0  0  0  0  0  0  0  0  0  0  0
    7.3371  -13.6462   26.2453 C   0  0  0  0  0  0  0  0  0  0  0  0
    7.5322  -16.6167   23.0098 C   0  0  0  0  0  0  0  0  0  0  0  0
    6.6804  -16.9381   22.1269 O   0  0  0  0  0  0  0  0  0  0  0  0
    6.7175  -14.5488   20.0110 C   0  0  0  0  0  0  0  0  0  0  0  0
    7.8404  -13.9443   20.8472 C   0  0  2  0  0  0  0  0  0  0  0  0
    7.9369  -12.4826   20.4200 C   0  0  0  0  0  0  0  0  0  0  0  0
    9.1236  -14.6736   20.6563 C   0  0  0  0  0  0  0  0  0  0  0  0
    9.1274  -16.1001   21.0996 C   0  0  2  0  0  0  0  0  0  0  0  0
    8.7894  -16.2064   22.5185 N   0  0  0  0  0  0  0  0  0  0  0  0
   10.4766  -16.6658   20.9538 C   0  0  0  0  0  0  0  0  0  0  0  0
   11.3843  -16.3306   21.7401 O   0  0  0  0  0  0  0  0  0  0  0  0
   10.7990  -17.5958   19.9365 N   0  0  0  0  0  0  0  0  0  0  0  0
   12.1397  -18.2005   19.8686 C   0  0  1  0  0  0  0  0  0  0  0  0
   11.9447  -19.6237   19.3865 C   0  0  0  0  0  0  0  0  0  0  0  0
   10.8079  -20.5654   20.4020 S   0  0  0  0  0  0  0  0  0  0  0  0
   12.9786  -17.4660   18.9234 C   0  0  0  0  0  0  0  0  0  0  0  0
   12.5141  -16.4991   18.2868 O   0  0  0  0  0  0  0  0  0  0  0  0
   14.2971  -17.8348   18.7244 O   0  0  0  0  0  0  0  0  0  0  0  0
  2  1  1  1
  3  4  1  0
  3  2  1  0
  4 12  1  0
  4  5  2  0
  5  6  1  0
  7  6  1  0
  7  8  2  0
  9  8  1  0
 10  9  2  0
 11 12  2  0
 11 10  1  0
 12  7  1  0
 13  2  1  0
 13 20  1  0
 14 13  2  0
 16 15  1  6
 16 17  1  0
 19 18  1  1
 18 16  1  0
 19 20  1  0
 21 19  1  0
 22 21  2  0
 23 21  1  0
 24 27  1  0
 24 23  1  0
 24 25  1  6
 26 25  1  0
 27 29  1  0
 28 27  2  0
M  END
$$$$
