WLC.pdb
     RDKit          3D

 29 30  0  0  1  0  0  0  0  0999 V2000
    6.3357  -18.1081   23.7449 N   0  0  0  0  0  0  0  0  0  0  0  0
    6.9756  -16.7980   23.8454 C   0  0  1  0  0  0  0  0  0  0  0  0
    7.5062  -16.5485   25.2112 C   0  0  0  0  0  0  0  0  0  0  0  0
    6.8922  -15.4098   25.9117 C   0  0  0  0  0  0  0  0  0  0  0  0
    5.8223  -15.5415   26.8018 C   0  0  0  0  0  0  0  0  0  0  0  0
    5.5277  -14.3381   27.3005 N   0  0  0  0  0  0  0  0  0  0  0  0
    6.3474  -13.3954   26.7892 C   0  0  0  0  0  0  0  0  0  0  0  0
    6.4286  -12.0352   26.9840 C   0  0  0  0  0  0  0  0  0  0  0  0
    7.3646  -11.2931   26.3159 C   0  0  0  0  0  0  0  0  0  0  0  0
    8.2006  -11.9710   25.4569 C   0  0  0  0  0  0  0  0  0  0  0  0
    8.1437  -13.3291   25.2419 C   0  0  0  0  0  0  0  0  0  0  0  0
    7.1962  -14.0794   25.9206 C   0  0  0  0  0  0  0  0  0  0  0  0
    7.9210  -16.6693   22.7280 C   0  0  0  0  0  0  0  0  0  0  0  0
    8.4026  -17.6985   22.1648 O   0  0  0  0  0  0  0  0  0  0  0  0
    6.9679  -13.9545   19.3840 C   0  0  0  0  0  0  0  0  0  0  0  0
    7.8386  -13.2894   20.4447 C   0  0  2  0  0  0  0  0  0  0  0  0
    7.8890  -11.8100   20.0741 C   0  0  0  0  0  0  0  0  0  0  0  0
    9.1937  -13.9014   20.5085 C   0  0  0  0  0  0  0  0  0  0  0  0
    9.2497  -15.2896   21.0574 C   0  0  2  0  0  0  0  0  0  0  0  0
    8.3559  -15.4330   22.2061 N   0  0  0  0  0  0  0  0  0  0  0  0
   10.6043  -15.5783   21.5506 C   0  0  0  0  0  0  0  0  0  0  0  0
   11.5730  -15.5621   20.7658 O   0  0  0  0  0  0  0  0  0  0  0  0
   10.8642  -15.8812   22.9087 N   0  0  0  0  0  0  0  0  0  0  0  0
   12.2006  -16.3273   23.3366 C   0  0  1  0  0  0  0  0  0  0  0  0
   12.1518  -16.4409   24.8468 C   0  0  0  0  0  0  0  0  0  0  0  0
   13.6467  -17.1313   25.5532 S   0  0  0  0  0  0  0  0  0  0  0  0
   12.5111  -17.6295   22.7499 C   0  0  0  0  0  0  0  0  0  0  0  0
   11.5953  -18.3750   22.3479 O   0  0  0  0  0  0  0  0  0  0  0  0
   13.8241  -18.0499   22.6336 O   0  0  0  0  0  0  0  0  0  0  0  0
  2  1  1  1
  3  4  1  0
  3  2  1  0
  4 12  1  0
  4  5  2  0
  5  6  1  0
  7  6  1  0
  7  8  2  0
  9  8  1  0
 10  9  2  0
 11 12  2  0
 11 10  1  0
 12  7  1  0
 13  2  1  0
 13 20  1  0
 14 13  2  0
 16 15  1  6
 16 17  1  0
 19 18  1  1
 18 16  1  0
 19 20  1  0
 21 19  1  0
 22 21  2  0
 23 21  1  0
 24 27  1  0
 24 23  1  0
 24 25  1  1
 26 25  1  0
 27 29  1  0
 28 27  2  0
M  END
$$$$
