WLC.pdb
     RDKit          3D

 29 30  0  0  1  0  0  0  0  0999 V2000
    7.5117  -18.2606   22.9315 N   0  0  0  0  0  0  0  0  0  0  0  0
    7.3582  -16.8363   22.6426 C   0  0  1  0  0  0  0  0  0  0  0  0
    6.5135  -16.6067   21.4413 C   0  0  0  0  0  0  0  0  0  0  0  0
    7.1620  -15.8323   20.3717 C   0  0  0  0  0  0  0  0  0  0  0  0
    7.4647  -16.3629   19.1142 C   0  0  0  0  0  0  0  0  0  0  0  0
    8.0036  -15.4011   18.3605 N   0  0  0  0  0  0  0  0  0  0  0  0
    8.0819  -14.2425   19.0486 C   0  0  0  0  0  0  0  0  0  0  0  0
    8.5619  -12.9970   18.7122 C   0  0  0  0  0  0  0  0  0  0  0  0
    8.5360  -11.9745   19.6216 C   0  0  0  0  0  0  0  0  0  0  0  0
    8.0143  -12.2581   20.8640 C   0  0  0  0  0  0  0  0  0  0  0  0
    7.5270  -13.4922   21.2290 C   0  0  0  0  0  0  0  0  0  0  0  0
    7.5524  -14.5263   20.3063 C   0  0  0  0  0  0  0  0  0  0  0  0
    6.9504  -16.1642   23.8839 C   0  0  0  0  0  0  0  0  0  0  0  0
    5.8190  -15.5981   23.9728 O   0  0  0  0  0  0  0  0  0  0  0  0
    7.8580  -11.7831   25.5530 C   0  0  0  0  0  0  0  0  0  0  0  0
    6.9726  -12.9765   25.8955 C   0  0  2  0  0  0  0  0  0  0  0  0
    5.9373  -12.4555   26.8880 C   0  0  0  0  0  0  0  0  0  0  0  0
    7.7640  -14.1092   26.4484 C   0  0  0  0  0  0  0  0  0  0  0  0
    8.5209  -14.9177   25.4460 C   0  0  2  0  0  0  0  0  0  0  0  0
    7.7552  -16.0959   25.0406 N   0  0  0  0  0  0  0  0  0  0  0  0
    9.7651  -15.4212   26.0459 C   0  0  0  0  0  0  0  0  0  0  0  0
   10.6830  -14.6303   26.3402 O   0  0  0  0  0  0  0  0  0  0  0  0
    9.9728  -16.7961   26.3106 N   0  0  0  0  0  0  0  0  0  0  0  0
   11.2798  -17.2812   26.7842 C   0  0  1  0  0  0  0  0  0  0  0  0
   11.0327  -17.9383   28.1271 C   0  0  0  0  0  0  0  0  0  0  0  0
    9.9141  -17.0096   29.1743 S   0  0  0  0  0  0  0  0  0  0  0  0
   11.8269  -18.2589   25.8455 C   0  0  0  0  0  0  0  0  0  0  0  0
   11.1832  -18.5857   24.8282 O   0  0  0  0  0  0  0  0  0  0  0  0
   13.0649  -18.8327   26.0746 O   0  0  0  0  0  0  0  0  0  0  0  0
  2  1  1  1
  3  4  1  0
  3  2  1  0
  4 12  1  0
  4  5  2  0
  5  6  1  0
  7  6  1  0
  7  8  2  0
  9  8  1  0
 10  9  2  0
 11 12  2  0
 11 10  1  0
 12  7  1  0
 13  2  1  0
 13 20  1  0
 14 13  2  0
 16 15  1  1
 16 17  1  0
 19 18  1  1
 18 16  1  0
 19 20  1  0
 21 19  1  0
 22 21  2  0
 23 21  1  0
 24 27  1  0
 24 23  1  0
 24 25  1  1
 26 25  1  0
 27 29  1  0
 28 27  2  0
M  END
$$$$
