WLC.pdb
     RDKit          3D

 29 30  0  0  1  0  0  0  0  0999 V2000
    6.6502  -17.0167   25.0557 N   0  0  0  0  0  0  0  0  0  0  0  0
    7.1366  -15.9062   24.2396 C   0  0  1  0  0  0  0  0  0  0  0  0
    8.2132  -15.1477   24.9286 C   0  0  0  0  0  0  0  0  0  0  0  0
    7.7880  -14.4483   26.1511 C   0  0  0  0  0  0  0  0  0  0  0  0
    7.9590  -14.9732   27.4355 C   0  0  0  0  0  0  0  0  0  0  0  0
    7.5134  -14.0833   28.3261 N   0  0  0  0  0  0  0  0  0  0  0  0
    7.0467  -12.9791   27.7056 C   0  0  0  0  0  0  0  0  0  0  0  0
    6.4874  -11.8157   28.1833 C   0  0  0  0  0  0  0  0  0  0  0  0
    6.0765  -10.8372   27.3191 C   0  0  0  0  0  0  0  0  0  0  0  0
    6.2507  -11.0795   25.9747 C   0  0  0  0  0  0  0  0  0  0  0  0
    6.8065  -12.2317   25.4675 C   0  0  0  0  0  0  0  0  0  0  0  0
    7.2237  -13.2209   26.3443 C   0  0  0  0  0  0  0  0  0  0  0  0
    7.4398  -16.4280   22.9000 C   0  0  0  0  0  0  0  0  0  0  0  0
    6.5081  -16.7883   22.1186 O   0  0  0  0  0  0  0  0  0  0  0  0
    7.3302  -14.2992   19.5648 C   0  0  0  0  0  0  0  0  0  0  0  0
    7.6946  -13.8775   20.9843 C   0  0  2  0  0  0  0  0  0  0  0  0
    7.6087  -12.3541   21.0010 C   0  0  0  0  0  0  0  0  0  0  0  0
    9.0427  -14.3708   21.3768 C   0  0  0  0  0  0  0  0  0  0  0  0
    9.2609  -15.8410   21.2269 C   0  0  2  0  0  0  0  0  0  0  0  0
    8.7474  -16.5659   22.3886 N   0  0  0  0  0  0  0  0  0  0  0  0
   10.7013  -16.1293   21.1648 C   0  0  0  0  0  0  0  0  0  0  0  0
   11.4060  -15.6100   20.2770 O   0  0  0  0  0  0  0  0  0  0  0  0
   11.3390  -16.9905   22.0897 N   0  0  0  0  0  0  0  0  0  0  0  0
   12.7812  -17.2683   21.9866 C   0  0  1  0  0  0  0  0  0  0  0  0
   13.3244  -17.2473   23.4010 C   0  0  0  0  0  0  0  0  0  0  0  0
   12.5801  -15.9803   24.4262 S   0  0  0  0  0  0  0  0  0  0  0  0
   13.0014  -18.5839   21.3889 C   0  0  0  0  0  0  0  0  0  0  0  0
   12.0353  -19.3302   21.1324 O   0  0  0  0  0  0  0  0  0  0  0  0
   14.2838  -19.0163   21.1010 O   0  0  0  0  0  0  0  0  0  0  0  0
  2  1  1  1
  3  4  1  0
  3  2  1  0
  4 12  1  0
  4  5  2  0
  5  6  1  0
  7  6  1  0
  7  8  2  0
  9  8  1  0
 10  9  2  0
 11 12  2  0
 11 10  1  0
 12  7  1  0
 13  2  1  0
 13 20  1  0
 14 13  2  0
 16 15  1  6
 16 17  1  0
 19 18  1  1
 18 16  1  0
 19 20  1  0
 21 19  1  0
 22 21  2  0
 23 21  1  0
 24 27  1  0
 24 23  1  0
 24 25  1  1
 26 25  1  0
 27 29  1  0
 28 27  2  0
M  END
$$$$
