WLC.pdb
     RDKit          3D

 29 30  0  0  1  0  0  0  0  0999 V2000
    6.5960  -18.9689   24.9065 N   0  0  0  0  0  0  0  0  0  0  0  0
    6.8009  -17.5219   24.9028 C   0  0  1  0  0  0  0  0  0  0  0  0
    7.3712  -17.0439   26.1895 C   0  0  0  0  0  0  0  0  0  0  0  0
    7.1331  -15.6210   26.4776 C   0  0  0  0  0  0  0  0  0  0  0  0
    5.9148  -14.9808   26.2324 C   0  0  0  0  0  0  0  0  0  0  0  0
    6.0059  -13.7126   26.6410 N   0  0  0  0  0  0  0  0  0  0  0  0
    7.2303  -13.4620   27.1511 C   0  0  0  0  0  0  0  0  0  0  0  0
    7.7977  -12.3246   27.6794 C   0  0  0  0  0  0  0  0  0  0  0  0
    9.0922  -12.3367   28.1234 C   0  0  0  0  0  0  0  0  0  0  0  0
    9.7781  -13.5257   28.0128 C   0  0  0  0  0  0  0  0  0  0  0  0
    9.2380  -14.6783   27.4899 C   0  0  0  0  0  0  0  0  0  0  0  0
    7.9263  -14.6647   27.0421 C   0  0  0  0  0  0  0  0  0  0  0  0
    7.5319  -17.1715   23.6774 C   0  0  0  0  0  0  0  0  0  0  0  0
    8.1478  -18.0596   23.0139 O   0  0  0  0  0  0  0  0  0  0  0  0
    8.3576  -12.1498   20.0350 C   0  0  0  0  0  0  0  0  0  0  0  0
    8.3445  -13.6707   20.1460 C   0  0  2  0  0  0  0  0  0  0  0  0
    7.4830  -14.1652   18.9877 C   0  0  0  0  0  0  0  0  0  0  0  0
    7.8275  -14.1225   21.4664 C   0  0  0  0  0  0  0  0  0  0  0  0
    8.1647  -15.5275   21.8452 C   0  0  2  0  0  0  0  0  0  0  0  0
    7.6062  -15.8634   23.1544 N   0  0  0  0  0  0  0  0  0  0  0  0
    9.6222  -15.6765   21.9683 C   0  0  0  0  0  0  0  0  0  0  0  0
   10.3486  -15.5822   20.9593 O   0  0  0  0  0  0  0  0  0  0  0  0
   10.2527  -15.9283   23.2104 N   0  0  0  0  0  0  0  0  0  0  0  0
   11.7020  -16.1785   23.2803 C   0  0  1  0  0  0  0  0  0  0  0  0
   12.0964  -16.0124   24.7339 C   0  0  0  0  0  0  0  0  0  0  0  0
   11.0691  -14.8393   25.6164 S   0  0  0  0  0  0  0  0  0  0  0  0
   12.0026  -17.5381   22.8358 C   0  0  0  0  0  0  0  0  0  0  0  0
   11.0833  -18.3057   22.4870 O   0  0  0  0  0  0  0  0  0  0  0  0
   13.3101  -17.9889   22.7970 O   0  0  0  0  0  0  0  0  0  0  0  0
  2  1  1  1
  3  4  1  0
  3  2  1  0
  4 12  1  0
  4  5  2  0
  5  6  1  0
  7  6  1  0
  7  8  2  0
  9  8  1  0
 10  9  2  0
 11 12  2  0
 11 10  1  0
 12  7  1  0
 13  2  1  0
 13 20  1  0
 14 13  2  0
 16 15  1  1
 16 17  1  0
 19 18  1  1
 18 16  1  0
 19 20  1  0
 21 19  1  0
 22 21  2  0
 23 21  1  0
 24 27  1  0
 24 23  1  0
 24 25  1  1
 26 25  1  0
 27 29  1  0
 28 27  2  0
M  END
$$$$
