WLC.pdb
     RDKit          3D

 29 30  0  0  1  0  0  0  0  0999 V2000
    6.1440  -17.6144   24.0933 N   0  0  0  0  0  0  0  0  0  0  0  0
    7.0442  -16.4647   24.0317 C   0  0  1  0  0  0  0  0  0  0  0  0
    7.7693  -16.2647   25.3137 C   0  0  0  0  0  0  0  0  0  0  0  0
    7.2106  -15.2147   26.1796 C   0  0  0  0  0  0  0  0  0  0  0  0
    6.4336  -15.4838   27.3101 C   0  0  0  0  0  0  0  0  0  0  0  0
    6.1201  -14.3279   27.9011 N   0  0  0  0  0  0  0  0  0  0  0  0
    6.6475  -13.2865   27.2233 C   0  0  0  0  0  0  0  0  0  0  0  0
    6.5944  -11.9265   27.4287 C   0  0  0  0  0  0  0  0  0  0  0  0
    7.2193  -11.0691   26.5641 C   0  0  0  0  0  0  0  0  0  0  0  0
    7.8883  -11.6337   25.5009 C   0  0  0  0  0  0  0  0  0  0  0  0
    7.9591  -12.9884   25.2699 C   0  0  0  0  0  0  0  0  0  0  0  0
    7.3270  -13.8554   26.1475 C   0  0  0  0  0  0  0  0  0  0  0  0
    7.8598  -16.5932   22.8164 C   0  0  0  0  0  0  0  0  0  0  0  0
    8.1062  -17.7335   22.3189 O   0  0  0  0  0  0  0  0  0  0  0  0
    6.8760  -14.2263   19.4498 C   0  0  0  0  0  0  0  0  0  0  0  0
    8.0031  -13.5355   20.2098 C   0  0  2  0  0  0  0  0  0  0  0  0
    8.1591  -12.1614   19.5647 C   0  0  0  0  0  0  0  0  0  0  0  0
    9.2633  -14.3258   20.1651 C   0  0  0  0  0  0  0  0  0  0  0  0
    9.2464  -15.6112   20.9261 C   0  0  2  0  0  0  0  0  0  0  0  0
    8.4166  -15.4968   22.1250 N   0  0  0  0  0  0  0  0  0  0  0  0
   10.6027  -15.9342   21.3929 C   0  0  0  0  0  0  0  0  0  0  0  0
   11.5396  -16.0299   20.5759 O   0  0  0  0  0  0  0  0  0  0  0  0
   10.8993  -16.1466   22.7605 N   0  0  0  0  0  0  0  0  0  0  0  0
   12.2709  -16.4648   23.1912 C   0  0  1  0  0  0  0  0  0  0  0  0
   12.2684  -16.4115   24.7056 C   0  0  0  0  0  0  0  0  0  0  0  0
   11.0664  -15.2615   25.3712 S   0  0  0  0  0  0  0  0  0  0  0  0
   12.6442  -17.8046   22.7416 C   0  0  0  0  0  0  0  0  0  0  0  0
   13.8136  -18.2149   22.8837 O   0  0  0  0  0  0  0  0  0  0  0  0
   11.7048  -18.6328   22.1534 O   0  0  0  0  0  0  0  0  0  0  0  0
  2  1  1  1
  3  4  1  0
  3  2  1  0
  4 12  1  0
  4  5  2  0
  5  6  1  0
  7  6  1  0
  7  8  2  0
  9  8  1  0
 10  9  2  0
 11 12  2  0
 11 10  1  0
 12  7  1  0
 13  2  1  0
 13 20  1  0
 14 13  2  0
 16 15  1  6
 16 17  1  0
 19 18  1  1
 18 16  1  0
 19 20  1  0
 21 19  1  0
 22 21  2  0
 23 21  1  0
 24 27  1  0
 24 23  1  0
 24 25  1  1
 26 25  1  0
 27 29  1  0
 28 27  2  0
M  END
$$$$
