WLC.pdb
     RDKit          3D

 29 30  0  0  1  0  0  0  0  0999 V2000
    6.7001  -18.4022   24.1745 N   0  0  0  0  0  0  0  0  0  0  0  0
    7.1451  -17.0205   24.0054 C   0  0  1  0  0  0  0  0  0  0  0  0
    7.7123  -16.4676   25.2631 C   0  0  0  0  0  0  0  0  0  0  0  0
    6.9756  -15.3219   25.8192 C   0  0  0  0  0  0  0  0  0  0  0  0
    5.6827  -15.4202   26.3417 C   0  0  0  0  0  0  0  0  0  0  0  0
    5.3141  -14.2228   26.8044 N   0  0  0  0  0  0  0  0  0  0  0  0
    6.2966  -13.3160   26.6190 C   0  0  0  0  0  0  0  0  0  0  0  0
    6.3852  -11.9742   26.9132 C   0  0  0  0  0  0  0  0  0  0  0  0
    7.5152  -11.2683   26.6004 C   0  0  0  0  0  0  0  0  0  0  0  0
    8.5345  -11.9626   25.9878 C   0  0  0  0  0  0  0  0  0  0  0  0
    8.4753  -13.3029   25.6816 C   0  0  0  0  0  0  0  0  0  0  0  0
    7.3307  -14.0168   26.0006 C   0  0  0  0  0  0  0  0  0  0  0  0
    7.9943  -16.9620   22.8078 C   0  0  0  0  0  0  0  0  0  0  0  0
    8.3847  -18.0254   22.2376 O   0  0  0  0  0  0  0  0  0  0  0  0
    6.8055  -14.2798   19.6063 C   0  0  0  0  0  0  0  0  0  0  0  0
    7.8545  -13.6171   20.4928 C   0  0  2  0  0  0  0  0  0  0  0  0
    7.9319  -12.1646   20.0314 C   0  0  0  0  0  0  0  0  0  0  0  0
    9.1692  -14.3086   20.4020 C   0  0  0  0  0  0  0  0  0  0  0  0
    9.2160  -15.6847   20.9812 C   0  0  2  0  0  0  0  0  0  0  0  0
    8.4302  -15.7596   22.2124 N   0  0  0  0  0  0  0  0  0  0  0  0
   10.5974  -16.0245   21.3526 C   0  0  0  0  0  0  0  0  0  0  0  0
   11.4938  -16.0362   20.4861 O   0  0  0  0  0  0  0  0  0  0  0  0
   10.9640  -16.3468   22.6813 N   0  0  0  0  0  0  0  0  0  0  0  0
   12.3557  -16.6941   23.0136 C   0  0  1  0  0  0  0  0  0  0  0  0
   12.5991  -16.1907   24.4219 C   0  0  0  0  0  0  0  0  0  0  0  0
   14.1793  -16.7030   25.0934 S   0  0  0  0  0  0  0  0  0  0  0  0
   12.5409  -18.1432   22.9646 C   0  0  0  0  0  0  0  0  0  0  0  0
   11.5849  -18.9097   23.1981 O   0  0  0  0  0  0  0  0  0  0  0  0
   13.7785  -18.6809   22.6588 O   0  0  0  0  0  0  0  0  0  0  0  0
  2  1  1  1
  3  4  1  0
  3  2  1  0
  4 12  1  0
  4  5  2  0
  5  6  1  0
  7  6  1  0
  7  8  2  0
  9  8  1  0
 10  9  2  0
 11 12  2  0
 11 10  1  0
 12  7  1  0
 13  2  1  0
 13 20  1  0
 14 13  2  0
 16 15  1  6
 16 17  1  0
 19 18  1  1
 18 16  1  0
 19 20  1  0
 21 19  1  0
 22 21  2  0
 23 21  1  0
 24 27  1  0
 24 23  1  0
 24 25  1  1
 26 25  1  0
 27 29  1  0
 28 27  2  0
M  END
$$$$
