HGE.pdb
     RDKit          3D

 24 24  0  0  1  0  0  0  0  0999 V2000
   24.7940  -13.7652  -17.0462 N   0  0  0  0  0  0  0  0  0  0  0  0
   24.6301  -13.2818  -15.6879 C   0  0  1  0  0  0  0  0  0  0  0  0
   25.8562  -13.7453  -14.9276 C   0  0  0  0  0  0  0  0  0  0  0  0
   26.0091  -15.2244  -15.0411 C   0  0  0  0  0  0  0  0  0  0  0  0
   25.2278  -16.1269  -15.7378 C   0  0  0  0  0  0  0  0  0  0  0  0
   25.7014  -17.3798  -15.5885 N   0  0  0  0  0  0  0  0  0  0  0  0
   26.7823  -17.2737  -14.7976 C   0  0  0  0  0  0  0  0  0  0  0  0
   26.9752  -15.9879  -14.4642 N   0  0  0  0  0  0  0  0  0  0  0  0
   24.4676  -11.8164  -15.6340 C   0  0  0  0  0  0  0  0  0  0  0  0
   25.1876  -11.0570  -16.3469 O   0  0  0  0  0  0  0  0  0  0  0  0
   23.5095  -11.1462  -14.7965 N   0  0  0  0  0  0  0  0  0  0  0  0
   23.3532   -9.7243  -14.7857 C   0  0  0  0  0  0  0  0  0  0  0  0
   22.4306   -9.1709  -15.7713 C   0  0  0  0  0  0  0  0  0  0  0  0
   21.8707   -9.9484  -16.5819 O   0  0  0  0  0  0  0  0  0  0  0  0
   22.1406   -7.7933  -15.8472 N   0  0  0  0  0  0  0  0  0  0  0  0
   21.1041   -7.2569  -16.7580 C   0  0  1  0  0  0  0  0  0  0  0  0
   20.1355   -6.4244  -15.9933 C   0  0  0  0  0  0  0  0  0  0  0  0
   18.9519   -7.1928  -15.5275 C   0  0  0  0  0  0  0  0  0  0  0  0
   17.8587   -6.3907  -14.9452 C   0  0  0  0  0  0  0  0  0  0  0  0
   17.9336   -5.9849  -13.7428 O   0  0  0  0  0  0  0  0  0  0  0  0
   21.7591   -6.4804  -17.8111 C   0  0  0  0  0  0  0  0  0  0  0  0
   22.6728   -5.6787  -17.5801 O   0  0  0  0  0  0  0  0  0  0  0  0
   16.7342   -6.0459  -15.6377 O   0  0  0  0  0  0  0  0  0  0  0  0
   21.3448   -6.6400  -19.1500 O   0  0  0  0  0  0  0  0  0  0  0  0
  2  1  1  6
  3  4  1  0
  3  2  1  0
  4  5  2  0
  6  5  1  0
  7  6  1  0
  8  7  2  0
  8  4  1  0
  9  2  1  0
  9 10  2  0
 11  9  1  0
 12 11  1  0
 12 13  1  0
 13 15  1  0
 14 13  2  0
 15 16  1  0
 16 17  1  1
 16 21  1  0
 18 17  1  0
 19 18  1  0
 20 19  2  0
 21 24  1  0
 22 21  2  0
 23 19  1  0
M  END
$$$$
