HGE.pdb
     RDKit          3D

 24 24  0  0  1  0  0  0  0  0999 V2000
   21.1367  -12.4195  -18.5399 N   0  0  0  0  0  0  0  0  0  0  0  0
   19.9755  -11.8091  -17.9198 C   0  0  1  0  0  0  0  0  0  0  0  0
   19.0240  -12.9452  -17.6034 C   0  0  0  0  0  0  0  0  0  0  0  0
   18.4982  -13.5479  -18.8621 C   0  0  0  0  0  0  0  0  0  0  0  0
   18.1943  -12.9289  -20.0600 C   0  0  0  0  0  0  0  0  0  0  0  0
   17.7433  -13.8271  -20.9579 N   0  0  0  0  0  0  0  0  0  0  0  0
   17.7602  -15.0154  -20.3313 C   0  0  0  0  0  0  0  0  0  0  0  0
   18.2102  -14.8595  -19.0764 N   0  0  0  0  0  0  0  0  0  0  0  0
   20.3302  -11.0337  -16.7158 C   0  0  0  0  0  0  0  0  0  0  0  0
   19.4323  -10.5030  -15.9978 O   0  0  0  0  0  0  0  0  0  0  0  0
   21.6803  -10.8213  -16.2678 N   0  0  0  0  0  0  0  0  0  0  0  0
   22.0006  -10.0010  -15.1406 C   0  0  0  0  0  0  0  0  0  0  0  0
   22.3792   -8.6229  -15.4345 C   0  0  0  0  0  0  0  0  0  0  0  0
   23.0787   -8.3894  -16.4500 O   0  0  0  0  0  0  0  0  0  0  0  0
   21.9868   -7.5400  -14.6215 N   0  0  0  0  0  0  0  0  0  0  0  0
   22.2947   -6.1366  -14.9786 C   0  0  1  0  0  0  0  0  0  0  0  0
   21.2681   -5.6140  -15.9214 C   0  0  0  0  0  0  0  0  0  0  0  0
   19.8893   -5.6780  -15.3707 C   0  0  0  0  0  0  0  0  0  0  0  0
   18.8361   -5.0823  -16.2154 C   0  0  0  0  0  0  0  0  0  0  0  0
   18.3073   -5.7604  -17.1515 O   0  0  0  0  0  0  0  0  0  0  0  0
   22.3471   -5.3397  -13.7525 C   0  0  0  0  0  0  0  0  0  0  0  0
   22.7481   -4.1694  -13.7328 O   0  0  0  0  0  0  0  0  0  0  0  0
   18.3788   -3.8068  -16.0511 O   0  0  0  0  0  0  0  0  0  0  0  0
   21.9270   -5.9133  -12.5342 O   0  0  0  0  0  0  0  0  0  0  0  0
  2  1  1  1
  3  4  1  0
  3  2  1  0
  4  5  2  0
  6  5  1  0
  7  6  1  0
  8  7  2  0
  8  4  1  0
  9  2  1  0
  9 10  2  0
 11  9  1  0
 12 11  1  0
 12 13  1  0
 13 15  1  0
 14 13  2  0
 15 16  1  0
 16 17  1  6
 16 21  1  0
 18 17  1  0
 19 18  1  0
 20 19  2  0
 21 24  1  0
 22 21  2  0
 23 19  1  0
M  END
$$$$
