HGE.pdb
     RDKit          3D

 24 24  0  0  1  0  0  0  0  0999 V2000
   27.6240  -23.0555  -16.2253 N   0  0  0  0  0  0  0  0  0  0  0  0
   28.0320  -21.7000  -16.5441 C   0  0  1  0  0  0  0  0  0  0  0  0
   28.4528  -21.7206  -17.9997 C   0  0  0  0  0  0  0  0  0  0  0  0
   29.6272  -22.6202  -18.1879 C   0  0  0  0  0  0  0  0  0  0  0  0
   30.6415  -22.9210  -17.2985 C   0  0  0  0  0  0  0  0  0  0  0  0
   31.5190  -23.7814  -17.8519 N   0  0  0  0  0  0  0  0  0  0  0  0
   31.0629  -24.0269  -19.0916 C   0  0  0  0  0  0  0  0  0  0  0  0
   29.9313  -23.3367  -19.3030 N   0  0  0  0  0  0  0  0  0  0  0  0
   26.9567  -20.7213  -16.2934 C   0  0  0  0  0  0  0  0  0  0  0  0
   26.9597  -19.5927  -16.8674 O   0  0  0  0  0  0  0  0  0  0  0  0
   25.8492  -20.9566  -15.4065 N   0  0  0  0  0  0  0  0  0  0  0  0
   24.5204  -20.5123  -15.6947 C   0  0  0  0  0  0  0  0  0  0  0  0
   23.5091  -20.8110  -14.6861 C   0  0  0  0  0  0  0  0  0  0  0  0
   23.5778  -21.8974  -14.0614 O   0  0  0  0  0  0  0  0  0  0  0  0
   22.4564  -19.9234  -14.3833 N   0  0  0  0  0  0  0  0  0  0  0  0
   21.4145  -20.2512  -13.3839 C   0  0  1  0  0  0  0  0  0  0  0  0
   20.4452  -19.1270  -13.2714 C   0  0  0  0  0  0  0  0  0  0  0  0
   19.4104  -19.1450  -14.3379 C   0  0  0  0  0  0  0  0  0  0  0  0
   18.4107  -18.0614  -14.2758 C   0  0  0  0  0  0  0  0  0  0  0  0
   17.9480  -17.6816  -13.1544 O   0  0  0  0  0  0  0  0  0  0  0  0
   20.7490  -21.4903  -13.7870 C   0  0  0  0  0  0  0  0  0  0  0  0
   20.7375  -21.8926  -14.9570 O   0  0  0  0  0  0  0  0  0  0  0  0
   17.9341  -17.4200  -15.3824 O   0  0  0  0  0  0  0  0  0  0  0  0
   20.0887  -22.2707  -12.8150 O   0  0  0  0  0  0  0  0  0  0  0  0
  2  1  1  6
  3  4  1  0
  3  2  1  0
  4  5  2  0
  6  5  1  0
  7  6  1  0
  8  7  2  0
  8  4  1  0
  9  2  1  0
  9 10  2  0
 11  9  1  0
 12 11  1  0
 12 13  1  0
 13 15  1  0
 14 13  2  0
 15 16  1  0
 16 17  1  6
 16 21  1  0
 18 17  1  0
 19 18  1  0
 20 19  2  0
 21 24  1  0
 22 21  2  0
 23 19  1  0
M  END
$$$$
