HGE.pdb
     RDKit          3D

 24 24  0  0  1  0  0  0  0  0999 V2000
   32.2068  -27.3023  -19.5122 N   0  0  0  0  0  0  0  0  0  0  0  0
   31.3355  -28.4307  -19.7823 C   0  0  1  0  0  0  0  0  0  0  0  0
   31.6253  -29.4518  -18.7008 C   0  0  0  0  0  0  0  0  0  0  0  0
   33.0333  -29.9320  -18.8041 C   0  0  0  0  0  0  0  0  0  0  0  0
   33.8532  -30.4368  -17.8124 C   0  0  0  0  0  0  0  0  0  0  0  0
   35.0612  -30.7616  -18.3142 N   0  0  0  0  0  0  0  0  0  0  0  0
   35.0091  -30.4632  -19.6232 C   0  0  0  0  0  0  0  0  0  0  0  0
   33.7999  -29.9659  -19.9268 N   0  0  0  0  0  0  0  0  0  0  0  0
   29.9124  -28.0419  -19.8082 C   0  0  0  0  0  0  0  0  0  0  0  0
   29.0054  -28.9100  -19.9723 O   0  0  0  0  0  0  0  0  0  0  0  0
   29.4479  -26.6895  -19.6537 N   0  0  0  0  0  0  0  0  0  0  0  0
   28.0592  -26.3467  -19.6351 C   0  0  0  0  0  0  0  0  0  0  0  0
   27.5822  -25.6592  -18.4398 C   0  0  0  0  0  0  0  0  0  0  0  0
   28.3618  -25.5246  -17.4656 O   0  0  0  0  0  0  0  0  0  0  0  0
   26.2768  -25.1365  -18.3372 N   0  0  0  0  0  0  0  0  0  0  0  0
   25.8430  -24.3270  -17.1760 C   0  0  1  0  0  0  0  0  0  0  0  0
   24.5694  -23.6242  -17.4925 C   0  0  0  0  0  0  0  0  0  0  0  0
   24.7734  -22.2087  -17.8963 C   0  0  0  0  0  0  0  0  0  0  0  0
   23.5460  -21.4487  -18.2020 C   0  0  0  0  0  0  0  0  0  0  0  0
   23.3227  -20.3366  -17.6283 O   0  0  0  0  0  0  0  0  0  0  0  0
   25.6916  -25.2086  -16.0181 C   0  0  0  0  0  0  0  0  0  0  0  0
   25.5078  -26.4274  -16.1256 O   0  0  0  0  0  0  0  0  0  0  0  0
   22.6029  -21.8783  -19.0903 O   0  0  0  0  0  0  0  0  0  0  0  0
   25.7553  -24.6635  -14.7186 O   0  0  0  0  0  0  0  0  0  0  0  0
  2  1  1  1
  3  4  1  0
  3  2  1  0
  4  5  2  0
  6  5  1  0
  7  6  1  0
  8  7  2  0
  8  4  1  0
  9  2  1  0
  9 10  2  0
 11  9  1  0
 12 11  1  0
 12 13  1  0
 13 15  1  0
 14 13  2  0
 15 16  1  0
 16 17  1  6
 16 21  1  0
 18 17  1  0
 19 18  1  0
 20 19  2  0
 21 24  1  0
 22 21  2  0
 23 19  1  0
M  END
$$$$
