HGE.pdb
     RDKit          3D

 24 24  0  0  1  0  0  0  0  0999 V2000
   19.0841  -10.8777  -15.5220 N   0  0  0  0  0  0  0  0  0  0  0  0
   17.9341  -10.1250  -15.0568 C   0  0  1  0  0  0  0  0  0  0  0  0
   16.7185  -10.8091  -15.6489 C   0  0  0  0  0  0  0  0  0  0  0  0
   16.6694  -10.5953  -17.1239 C   0  0  0  0  0  0  0  0  0  0  0  0
   17.4489  -11.1692  -18.1106 C   0  0  0  0  0  0  0  0  0  0  0  0
   17.0888  -10.7123  -19.3264 N   0  0  0  0  0  0  0  0  0  0  0  0
   16.0820   -9.8488  -19.1125 C   0  0  0  0  0  0  0  0  0  0  0  0
   15.8232   -9.7713  -17.7978 N   0  0  0  0  0  0  0  0  0  0  0  0
   17.8694  -10.0604  -13.5842 C   0  0  0  0  0  0  0  0  0  0  0  0
   18.2759  -11.0265  -12.8737 O   0  0  0  0  0  0  0  0  0  0  0  0
   17.3574   -8.9328  -12.8529 N   0  0  0  0  0  0  0  0  0  0  0  0
   17.2720   -8.9116  -11.4251 C   0  0  0  0  0  0  0  0  0  0  0  0
   16.6647   -7.7237  -10.8343 C   0  0  0  0  0  0  0  0  0  0  0  0
   16.6494   -6.6574  -11.4960 O   0  0  0  0  0  0  0  0  0  0  0  0
   16.0906   -7.7276   -9.5466 N   0  0  0  0  0  0  0  0  0  0  0  0
   15.3942   -6.5445   -8.9926 C   0  0  1  0  0  0  0  0  0  0  0  0
   14.3755   -6.9738   -7.9956 C   0  0  0  0  0  0  0  0  0  0  0  0
   13.2834   -7.7841   -8.5949 C   0  0  0  0  0  0  0  0  0  0  0  0
   12.2467   -8.2528   -7.6551 C   0  0  0  0  0  0  0  0  0  0  0  0
   12.3553   -8.0130   -6.4115 O   0  0  0  0  0  0  0  0  0  0  0  0
   16.3864   -5.6533   -8.3908 C   0  0  0  0  0  0  0  0  0  0  0  0
   17.3950   -6.0720   -7.8092 O   0  0  0  0  0  0  0  0  0  0  0  0
   11.1423   -8.9517   -8.0486 O   0  0  0  0  0  0  0  0  0  0  0  0
   16.2016   -4.2570   -8.4677 O   0  0  0  0  0  0  0  0  0  0  0  0
  2  1  1  1
  3  4  1  0
  3  2  1  0
  4  5  2  0
  6  5  1  0
  7  6  1  0
  8  7  2  0
  8  4  1  0
  9  2  1  0
  9 10  2  0
 11  9  1  0
 12 11  1  0
 12 13  1  0
 13 15  1  0
 14 13  2  0
 15 16  1  0
 16 17  1  1
 16 21  1  0
 18 17  1  0
 19 18  1  0
 20 19  2  0
 21 24  1  0
 22 21  2  0
 23 19  1  0
M  END
$$$$
