HGE.pdb
     RDKit          3D

 24 24  0  0  1  0  0  0  0  0999 V2000
   13.5353  -10.0810  -10.7158 N   0  0  0  0  0  0  0  0  0  0  0  0
   12.6525  -11.2292  -10.6275 C   0  0  1  0  0  0  0  0  0  0  0  0
   11.2430  -10.6830  -10.7343 C   0  0  0  0  0  0  0  0  0  0  0  0
   10.9783   -9.7108   -9.6349 C   0  0  0  0  0  0  0  0  0  0  0  0
   10.7418   -8.3515   -9.7165 C   0  0  0  0  0  0  0  0  0  0  0  0
   10.5458   -7.8288   -8.4898 N   0  0  0  0  0  0  0  0  0  0  0  0
   10.6580   -8.8548   -7.6296 C   0  0  0  0  0  0  0  0  0  0  0  0
   10.9169   -9.9857   -8.3045 N   0  0  0  0  0  0  0  0  0  0  0  0
   12.9371  -12.2321  -11.6715 C   0  0  0  0  0  0  0  0  0  0  0  0
   13.6296  -11.9320  -12.6882 O   0  0  0  0  0  0  0  0  0  0  0  0
   12.4695  -13.5915  -11.6262 N   0  0  0  0  0  0  0  0  0  0  0  0
   12.7152  -14.5289  -12.6784 C   0  0  0  0  0  0  0  0  0  0  0  0
   13.5090  -15.7007  -12.3238 C   0  0  0  0  0  0  0  0  0  0  0  0
   14.0921  -15.7249  -11.2128 O   0  0  0  0  0  0  0  0  0  0  0  0
   13.6447  -16.8112  -13.1819 N   0  0  0  0  0  0  0  0  0  0  0  0
   14.4156  -18.0144  -12.7948 C   0  0  1  0  0  0  0  0  0  0  0  0
   13.4867  -19.1185  -12.4291 C   0  0  0  0  0  0  0  0  0  0  0  0
   12.7440  -19.6617  -13.5961 C   0  0  0  0  0  0  0  0  0  0  0  0
   11.8590  -20.8079  -13.3124 C   0  0  0  0  0  0  0  0  0  0  0  0
   11.8311  -21.3222  -12.1503 O   0  0  0  0  0  0  0  0  0  0  0  0
   15.2839  -18.3955  -13.9092 C   0  0  0  0  0  0  0  0  0  0  0  0
   15.1160  -17.9760  -15.0609 O   0  0  0  0  0  0  0  0  0  0  0  0
   11.0417  -21.3708  -14.2496 O   0  0  0  0  0  0  0  0  0  0  0  0
   16.3615  -19.2763  -13.6788 O   0  0  0  0  0  0  0  0  0  0  0  0
  2  1  1  6
  3  4  1  0
  3  2  1  0
  4  5  2  0
  6  5  1  0
  7  6  1  0
  8  7  2  0
  8  4  1  0
  9  2  1  0
  9 10  2  0
 11  9  1  0
 12 11  1  0
 12 13  1  0
 13 15  1  0
 14 13  2  0
 15 16  1  0
 16 17  1  6
 16 21  1  0
 18 17  1  0
 19 18  1  0
 20 19  2  0
 21 24  1  0
 22 21  2  0
 23 19  1  0
M  END
$$$$
