HGE.pdb
     RDKit          3D

 24 24  0  0  1  0  0  0  0  0999 V2000
   33.4978  -34.8246   -5.6680 N   0  0  0  0  0  0  0  0  0  0  0  0
   32.2866  -34.5524   -6.4192 C   0  0  1  0  0  0  0  0  0  0  0  0
   32.4488  -35.2635   -7.7474 C   0  0  0  0  0  0  0  0  0  0  0  0
   33.5641  -34.6559   -8.5288 C   0  0  0  0  0  0  0  0  0  0  0  0
   34.6878  -35.2650   -9.0551 C   0  0  0  0  0  0  0  0  0  0  0  0
   35.4582  -34.3657   -9.6987 N   0  0  0  0  0  0  0  0  0  0  0  0
   34.8251  -33.1865   -9.5812 C   0  0  0  0  0  0  0  0  0  0  0  0
   33.6906  -33.3490   -8.8827 N   0  0  0  0  0  0  0  0  0  0  0  0
   31.0752  -34.9924   -5.7010 C   0  0  0  0  0  0  0  0  0  0  0  0
   29.9223  -34.7599   -6.1701 O   0  0  0  0  0  0  0  0  0  0  0  0
   31.0979  -35.7001   -4.4492 N   0  0  0  0  0  0  0  0  0  0  0  0
   29.9066  -36.1016   -3.7666 C   0  0  0  0  0  0  0  0  0  0  0  0
   29.8320  -35.7630   -2.3493 C   0  0  0  0  0  0  0  0  0  0  0  0
   30.6409  -34.9246   -1.8825 O   0  0  0  0  0  0  0  0  0  0  0  0
   28.8825  -36.3406   -1.4818 N   0  0  0  0  0  0  0  0  0  0  0  0
   28.7930  -35.9659   -0.0523 C   0  0  1  0  0  0  0  0  0  0  0  0
   27.5881  -36.5873    0.5625 C   0  0  0  0  0  0  0  0  0  0  0  0
   27.4543  -36.2832    2.0110 C   0  0  0  0  0  0  0  0  0  0  0  0
   26.0815  -36.0202    2.4840 C   0  0  0  0  0  0  0  0  0  0  0  0
   25.1307  -36.7953    2.1507 O   0  0  0  0  0  0  0  0  0  0  0  0
   30.0176  -36.3947    0.6241 C   0  0  0  0  0  0  0  0  0  0  0  0
   30.3215  -36.0133    1.7612 O   0  0  0  0  0  0  0  0  0  0  0  0
   25.7560  -34.9620    3.2823 O   0  0  0  0  0  0  0  0  0  0  0  0
   30.8991  -37.2789   -0.0322 O   0  0  0  0  0  0  0  0  0  0  0  0
  2  1  1  1
  3  4  1  0
  3  2  1  0
  4  5  2  0
  6  5  1  0
  7  6  1  0
  8  7  2  0
  8  4  1  0
  9  2  1  0
  9 10  2  0
 11  9  1  0
 12 11  1  0
 12 13  1  0
 13 15  1  0
 14 13  2  0
 15 16  1  0
 16 17  1  1
 16 21  1  0
 18 17  1  0
 19 18  1  0
 20 19  2  0
 21 24  1  0
 22 21  2  0
 23 19  1  0
M  END
$$$$
