HGE.pdb
     RDKit          3D

 24 24  0  0  1  0  0  0  0  0999 V2000
   22.8087  -20.2021  -16.4842 N   0  0  0  0  0  0  0  0  0  0  0  0
   22.4283  -19.3973  -15.3383 C   0  0  1  0  0  0  0  0  0  0  0  0
   21.1696  -18.6582  -15.7449 C   0  0  0  0  0  0  0  0  0  0  0  0
   21.4714  -17.6730  -16.8230 C   0  0  0  0  0  0  0  0  0  0  0  0
   20.9432  -17.5923  -18.0977 C   0  0  0  0  0  0  0  0  0  0  0  0
   21.4778  -16.5526  -18.7685 N   0  0  0  0  0  0  0  0  0  0  0  0
   22.3448  -15.9736  -17.9212 C   0  0  0  0  0  0  0  0  0  0  0  0
   22.3489  -16.6364  -16.7540 N   0  0  0  0  0  0  0  0  0  0  0  0
   22.2225  -20.2147  -14.1273 C   0  0  0  0  0  0  0  0  0  0  0  0
   22.1699  -21.4778  -14.1982 O   0  0  0  0  0  0  0  0  0  0  0  0
   22.0699  -19.6666  -12.8064 N   0  0  0  0  0  0  0  0  0  0  0  0
   22.0319  -20.4812  -11.6312 C   0  0  0  0  0  0  0  0  0  0  0  0
   20.7586  -21.1312  -11.3396 C   0  0  0  0  0  0  0  0  0  0  0  0
   19.8099  -20.9980  -12.1504 O   0  0  0  0  0  0  0  0  0  0  0  0
   20.5524  -21.9072  -10.1808 N   0  0  0  0  0  0  0  0  0  0  0  0
   19.2812  -22.6235   -9.9299 C   0  0  1  0  0  0  0  0  0  0  0  0
   19.3630  -23.3713   -8.6454 C   0  0  0  0  0  0  0  0  0  0  0  0
   18.1419  -24.1688   -8.3602 C   0  0  0  0  0  0  0  0  0  0  0  0
   18.1942  -25.0040   -7.1448 C   0  0  0  0  0  0  0  0  0  0  0  0
   17.7585  -26.1979   -7.1700 O   0  0  0  0  0  0  0  0  0  0  0  0
   18.1886  -21.6504   -9.9114 C   0  0  0  0  0  0  0  0  0  0  0  0
   17.0298  -21.9406  -10.2337 O   0  0  0  0  0  0  0  0  0  0  0  0
   18.6964  -24.5617   -5.9552 O   0  0  0  0  0  0  0  0  0  0  0  0
   18.4491  -20.3228   -9.5123 O   0  0  0  0  0  0  0  0  0  0  0  0
  2  1  1  6
  3  4  1  0
  3  2  1  0
  4  5  2  0
  6  5  1  0
  7  6  1  0
  8  7  2  0
  8  4  1  0
  9  2  1  0
  9 10  2  0
 11  9  1  0
 12 11  1  0
 12 13  1  0
 13 15  1  0
 14 13  2  0
 15 16  1  0
 16 17  1  1
 16 21  1  0
 18 17  1  0
 19 18  1  0
 20 19  2  0
 21 24  1  0
 22 21  2  0
 23 19  1  0
M  END
$$$$
