HGE.pdb
     RDKit          3D

 24 24  0  0  1  0  0  0  0  0999 V2000
   19.4594  -12.4637  -16.4473 N   0  0  0  0  0  0  0  0  0  0  0  0
   18.0615  -12.0884  -16.3452 C   0  0  1  0  0  0  0  0  0  0  0  0
   17.4712  -12.9636  -15.2581 C   0  0  0  0  0  0  0  0  0  0  0  0
   17.5055  -14.3966  -15.6695 C   0  0  0  0  0  0  0  0  0  0  0  0
   18.5747  -15.2725  -15.6756 C   0  0  0  0  0  0  0  0  0  0  0  0
   18.1920  -16.4863  -16.1193 N   0  0  0  0  0  0  0  0  0  0  0  0
   16.8812  -16.3817  -16.3951 C   0  0  0  0  0  0  0  0  0  0  0  0
   16.4604  -15.1350  -16.1296 N   0  0  0  0  0  0  0  0  0  0  0  0
   17.8904  -10.6524  -16.0524 C   0  0  0  0  0  0  0  0  0  0  0  0
   16.7378  -10.1290  -16.0228 O   0  0  0  0  0  0  0  0  0  0  0  0
   18.9804   -9.7536  -15.7835 N   0  0  0  0  0  0  0  0  0  0  0  0
   18.7852   -8.3656  -15.4975 C   0  0  0  0  0  0  0  0  0  0  0  0
   19.9903   -7.5884  -15.2283 C   0  0  0  0  0  0  0  0  0  0  0  0
   21.0667   -8.1949  -15.0077 O   0  0  0  0  0  0  0  0  0  0  0  0
   19.9935   -6.1786  -15.2089 N   0  0  0  0  0  0  0  0  0  0  0  0
   21.2386   -5.3974  -15.0326 C   0  0  1  0  0  0  0  0  0  0  0  0
   21.0086   -3.9785  -15.4192 C   0  0  0  0  0  0  0  0  0  0  0  0
   22.2176   -3.1299  -15.2559 C   0  0  0  0  0  0  0  0  0  0  0  0
   22.0440   -1.7014  -15.5828 C   0  0  0  0  0  0  0  0  0  0  0  0
   20.9352   -1.2802  -16.0401 O   0  0  0  0  0  0  0  0  0  0  0  0
   21.6693   -5.5068  -13.6385 C   0  0  0  0  0  0  0  0  0  0  0  0
   20.8777   -5.7014  -12.7078 O   0  0  0  0  0  0  0  0  0  0  0  0
   23.0308   -0.7725  -15.4212 O   0  0  0  0  0  0  0  0  0  0  0  0
   23.0395   -5.3881  -13.3247 O   0  0  0  0  0  0  0  0  0  0  0  0
  2  1  1  1
  3  4  1  0
  3  2  1  0
  4  5  2  0
  6  5  1  0
  7  6  1  0
  8  7  2  0
  8  4  1  0
  9  2  1  0
  9 10  2  0
 11  9  1  0
 12 11  1  0
 12 13  1  0
 13 15  1  0
 14 13  2  0
 15 16  1  0
 16 17  1  1
 16 21  1  0
 18 17  1  0
 19 18  1  0
 20 19  2  0
 21 24  1  0
 22 21  2  0
 23 19  1  0
M  END
$$$$
