LCI.pdb
     RDKit          3D

 23 22  0  0  1  0  0  0  0  0999 V2000
   11.1695  -14.9842   19.6647 C   0  0  0  0  0  0  0  0  0  0  0  0
   10.6814  -13.7495   18.8950 C   0  0  2  0  0  0  0  0  0  0  0  0
   11.3874  -12.5654   19.5209 C   0  0  0  0  0  0  0  0  0  0  0  0
    9.1986  -13.6630   19.1329 C   0  0  0  0  0  0  0  0  0  0  0  0
    8.5211  -15.0079   19.0254 C   0  0  2  0  0  0  0  0  0  0  0  0
    7.6894  -15.1443   17.8714 N   0  0  0  0  0  0  0  0  0  0  0  0
    7.8134  -15.3104   20.2963 C   0  0  0  0  0  0  0  0  0  0  0  0
    6.8003  -14.6185   20.5760 O   0  0  0  0  0  0  0  0  0  0  0  0
    8.2054  -16.3146   21.1962 N   0  0  0  0  0  0  0  0  0  0  0  0
    7.5902  -16.5844   22.4609 C   0  0  1  0  0  0  0  0  0  0  0  0
    7.6601  -18.0797   22.8060 C   0  0  0  0  0  0  0  0  0  0  0  0
    7.0436  -18.3664   24.4860 S   0  0  0  0  0  0  0  0  0  0  0  0
    8.1888  -15.7822   23.5634 C   0  0  0  0  0  0  0  0  0  0  0  0
    9.4418  -15.6047   23.5881 O   0  0  0  0  0  0  0  0  0  0  0  0
    6.8416  -11.1325   27.3045 C   0  0  0  0  0  0  0  0  0  0  0  0
    7.7636  -12.2830   26.9514 C   0  0  0  0  0  0  0  0  0  0  0  0
    7.1116  -13.2265   25.9757 C   0  0  2  0  0  0  0  0  0  0  0  0
    5.8647  -13.7643   26.6939 C   0  0  0  0  0  0  0  0  0  0  0  0
    8.0529  -14.3322   25.6237 C   0  0  2  0  0  0  0  0  0  0  0  0
    7.4353  -15.1999   24.5963 N   0  0  0  0  0  0  0  0  0  0  0  0
    8.3511  -15.2166   26.7653 C   0  0  0  0  0  0  0  0  0  0  0  0
    9.3139  -14.9219   27.7158 O   0  0  0  0  0  0  0  0  0  0  0  0
    7.7350  -16.3023   26.9332 O   0  0  0  0  0  0  0  0  0  0  0  0
  2  1  1  1
  3  2  1  0
  4  2  1  0
  5  4  1  0
  5  6  1  6
  7  8  2  0
  7  5  1  0
  9  7  1  0
 10  9  1  0
 10 11  1  1
 12 11  1  0
 13 10  1  0
 13 20  1  0
 14 13  2  0
 15 16  1  0
 17 16  1  0
 17 19  1  0
 17 18  1  1
 19 20  1  6
 19 21  1  0
 21 23  2  0
 21 22  1  0
M  END
$$$$
