LCI.pdb
     RDKit          3D

 23 22  0  0  1  0  0  0  0  0999 V2000
    9.2750  -13.4561   18.9895 C   0  0  0  0  0  0  0  0  0  0  0  0
    7.8404  -13.8215   18.5851 C   0  0  2  0  0  0  0  0  0  0  0  0
    7.1817  -12.5215   18.1748 C   0  0  0  0  0  0  0  0  0  0  0  0
    7.1829  -14.3773   19.8186 C   0  0  0  0  0  0  0  0  0  0  0  0
    8.0232  -15.4381   20.4879 C   0  0  2  0  0  0  0  0  0  0  0  0
    8.0699  -16.6739   19.7719 N   0  0  0  0  0  0  0  0  0  0  0  0
    7.5910  -15.5959   21.9006 C   0  0  0  0  0  0  0  0  0  0  0  0
    7.3234  -14.5499   22.5466 O   0  0  0  0  0  0  0  0  0  0  0  0
    7.4647  -16.8337   22.5518 N   0  0  0  0  0  0  0  0  0  0  0  0
    7.1147  -17.0174   23.9283 C   0  0  1  0  0  0  0  0  0  0  0  0
    7.0311  -18.5088   24.2869 C   0  0  0  0  0  0  0  0  0  0  0  0
    6.2977  -19.4440   22.9186 S   0  0  0  0  0  0  0  0  0  0  0  0
    8.0603  -16.3278   24.8489 C   0  0  0  0  0  0  0  0  0  0  0  0
    9.3051  -16.4231   24.6406 O   0  0  0  0  0  0  0  0  0  0  0  0
    6.0215  -11.9399   27.2167 C   0  0  0  0  0  0  0  0  0  0  0  0
    7.0358  -12.7992   26.4877 C   0  0  0  0  0  0  0  0  0  0  0  0
    7.8172  -13.6561   27.4481 C   0  0  2  0  0  0  0  0  0  0  0  0
    8.7575  -12.6926   28.1880 C   0  0  0  0  0  0  0  0  0  0  0  0
    8.5866  -14.6954   26.6994 C   0  0  2  0  0  0  0  0  0  0  0  0
    7.6488  -15.5645   25.9542 N   0  0  0  0  0  0  0  0  0  0  0  0
    9.3458  -15.5964   27.5860 C   0  0  0  0  0  0  0  0  0  0  0  0
    8.8418  -16.8008   28.0473 O   0  0  0  0  0  0  0  0  0  0  0  0
   10.5088  -15.3086   27.9746 O   0  0  0  0  0  0  0  0  0  0  0  0
  2  1  1  1
  3  2  1  0
  4  2  1  0
  5  4  1  0
  5  6  1  6
  7  8  2  0
  7  5  1  0
  9  7  1  0
 10  9  1  0
 10 11  1  1
 12 11  1  0
 13 10  1  0
 13 20  1  0
 14 13  2  0
 15 16  1  0
 17 16  1  0
 17 19  1  0
 17 18  1  6
 19 20  1  1
 19 21  1  0
 21 23  2  0
 21 22  1  0
M  END
$$$$
