LCI.pdb
     RDKit          3D

 23 22  0  0  1  0  0  0  0  0999 V2000
    9.1825  -13.0432   19.0105 C   0  0  0  0  0  0  0  0  0  0  0  0
    7.9494  -13.8038   18.5046 C   0  0  2  0  0  0  0  0  0  0  0  0
    7.0940  -12.7784   17.7911 C   0  0  0  0  0  0  0  0  0  0  0  0
    7.2410  -14.3198   19.7273 C   0  0  0  0  0  0  0  0  0  0  0  0
    8.0933  -15.2801   20.5214 C   0  0  2  0  0  0  0  0  0  0  0  0
    8.3224  -16.5279   19.8634 N   0  0  0  0  0  0  0  0  0  0  0  0
    7.5280  -15.4334   21.8868 C   0  0  0  0  0  0  0  0  0  0  0  0
    7.2093  -14.3847   22.5047 O   0  0  0  0  0  0  0  0  0  0  0  0
    7.3303  -16.6696   22.5230 N   0  0  0  0  0  0  0  0  0  0  0  0
    6.8976  -16.8486   23.8764 C   0  0  1  0  0  0  0  0  0  0  0  0
    6.5953  -18.3253   24.1732 C   0  0  0  0  0  0  0  0  0  0  0  0
    8.0735  -19.1521   24.8180 S   0  0  0  0  0  0  0  0  0  0  0  0
    7.8865  -16.3270   24.8598 C   0  0  0  0  0  0  0  0  0  0  0  0
    9.1221  -16.4167   24.6000 O   0  0  0  0  0  0  0  0  0  0  0  0
    6.5086  -11.8353   27.1172 C   0  0  0  0  0  0  0  0  0  0  0  0
    7.3896  -12.9149   26.5199 C   0  0  0  0  0  0  0  0  0  0  0  0
    7.8956  -13.8564   27.5805 C   0  0  2  0  0  0  0  0  0  0  0  0
    8.9279  -13.0527   28.3857 C   0  0  0  0  0  0  0  0  0  0  0  0
    8.5193  -15.0569   26.9460 C   0  0  2  0  0  0  0  0  0  0  0  0
    7.5265  -15.7309   26.0800 N   0  0  0  0  0  0  0  0  0  0  0  0
    8.9432  -16.0702   27.9297 C   0  0  0  0  0  0  0  0  0  0  0  0
   10.2223  -16.1194   28.4577 O   0  0  0  0  0  0  0  0  0  0  0  0
    8.1493  -16.9563   28.3433 O   0  0  0  0  0  0  0  0  0  0  0  0
  2  1  1  1
  3  2  1  0
  4  2  1  0
  5  4  1  0
  5  6  1  6
  7  8  2  0
  7  5  1  0
  9  7  1  0
 10  9  1  0
 10 11  1  1
 12 11  1  0
 13 10  1  0
 13 20  1  0
 14 13  2  0
 15 16  1  0
 17 16  1  0
 17 19  1  0
 17 18  1  6
 19 20  1  6
 19 21  1  0
 21 23  2  0
 21 22  1  0
M  END
$$$$
