LCI.pdb
     RDKit          3D

 23 22  0  0  1  0  0  0  0  0999 V2000
    9.6621  -13.8677   19.5757 C   0  0  0  0  0  0  0  0  0  0  0  0
    8.2822  -13.7349   18.9176 C   0  0  2  0  0  0  0  0  0  0  0  0
    8.0087  -12.2486   18.8251 C   0  0  0  0  0  0  0  0  0  0  0  0
    7.3038  -14.3919   19.8525 C   0  0  0  0  0  0  0  0  0  0  0  0
    7.6291  -15.8464   20.0934 C   0  0  2  0  0  0  0  0  0  0  0  0
    7.1034  -16.7275   19.0987 N   0  0  0  0  0  0  0  0  0  0  0  0
    7.2337  -16.2213   21.4756 C   0  0  0  0  0  0  0  0  0  0  0  0
    6.0192  -16.1066   21.7838 O   0  0  0  0  0  0  0  0  0  0  0  0
    8.1284  -16.6922   22.4502 N   0  0  0  0  0  0  0  0  0  0  0  0
    7.7993  -16.9716   23.8157 C   0  0  1  0  0  0  0  0  0  0  0  0
    8.0316  -18.4524   24.1522 C   0  0  0  0  0  0  0  0  0  0  0  0
    7.7204  -18.7532   25.9121 S   0  0  0  0  0  0  0  0  0  0  0  0
    8.5561  -16.1118   24.7671 C   0  0  0  0  0  0  0  0  0  0  0  0
    9.7854  -15.8936   24.5586 O   0  0  0  0  0  0  0  0  0  0  0  0
    6.0111  -11.9810   26.9317 C   0  0  0  0  0  0  0  0  0  0  0  0
    7.1144  -12.8387   26.3440 C   0  0  0  0  0  0  0  0  0  0  0  0
    7.8266  -13.6223   27.4145 C   0  0  2  0  0  0  0  0  0  0  0  0
    8.6032  -12.5832   28.2373 C   0  0  0  0  0  0  0  0  0  0  0  0
    8.7489  -14.6199   26.7926 C   0  0  2  0  0  0  0  0  0  0  0  0
    7.9798  -15.5171   25.9019 N   0  0  0  0  0  0  0  0  0  0  0  0
    9.3943  -15.5001   27.7841 C   0  0  0  0  0  0  0  0  0  0  0  0
   10.6435  -15.2408   28.3222 O   0  0  0  0  0  0  0  0  0  0  0  0
    8.8316  -16.5492   28.1955 O   0  0  0  0  0  0  0  0  0  0  0  0
  2  1  1  1
  3  2  1  0
  4  2  1  0
  5  4  1  0
  5  6  1  6
  7  8  2  0
  7  5  1  0
  9  7  1  0
 10  9  1  0
 10 11  1  1
 12 11  1  0
 13 10  1  0
 13 20  1  0
 14 13  2  0
 15 16  1  0
 17 16  1  0
 17 19  1  0
 17 18  1  1
 19 20  1  6
 19 21  1  0
 21 23  2  0
 21 22  1  0
M  END
$$$$
