LCI.pdb
     RDKit          3D

 23 22  0  0  1  0  0  0  0  0999 V2000
    9.2033  -13.6288   20.1705 C   0  0  0  0  0  0  0  0  0  0  0  0
    8.0850  -13.6791   19.1207 C   0  0  2  0  0  0  0  0  0  0  0  0
    7.5792  -12.2585   18.9859 C   0  0  0  0  0  0  0  0  0  0  0  0
    7.0122  -14.5671   19.6894 C   0  0  0  0  0  0  0  0  0  0  0  0
    7.5197  -15.9557   19.9954 C   0  0  2  0  0  0  0  0  0  0  0  0
    7.2244  -16.9150   18.9782 N   0  0  0  0  0  0  0  0  0  0  0  0
    7.0523  -16.3693   21.3437 C   0  0  0  0  0  0  0  0  0  0  0  0
    5.8115  -16.3740   21.5523 O   0  0  0  0  0  0  0  0  0  0  0  0
    7.9069  -16.7520   22.3903 N   0  0  0  0  0  0  0  0  0  0  0  0
    7.5019  -17.0286   23.7357 C   0  0  1  0  0  0  0  0  0  0  0  0
    7.5153  -18.5379   24.0218 C   0  0  0  0  0  0  0  0  0  0  0  0
    7.1110  -18.8517   25.7604 S   0  0  0  0  0  0  0  0  0  0  0  0
    8.3428  -16.3164   24.7371 C   0  0  0  0  0  0  0  0  0  0  0  0
    9.5967  -16.4888   24.7251 O   0  0  0  0  0  0  0  0  0  0  0  0
    6.5649  -11.5571   26.5369 C   0  0  0  0  0  0  0  0  0  0  0  0
    7.5155  -12.6339   26.0519 C   0  0  0  0  0  0  0  0  0  0  0  0
    7.9591  -13.5220   27.1841 C   0  0  2  0  0  0  0  0  0  0  0  0
    8.8721  -12.6491   28.0584 C   0  0  0  0  0  0  0  0  0  0  0  0
    8.6940  -14.7077   26.6488 C   0  0  2  0  0  0  0  0  0  0  0  0
    7.8213  -15.4494   25.7118 N   0  0  0  0  0  0  0  0  0  0  0  0
    9.0644  -15.6746   27.6986 C   0  0  0  0  0  0  0  0  0  0  0  0
   10.3114  -15.6933   28.3002 O   0  0  0  0  0  0  0  0  0  0  0  0
    8.2511  -16.5463   28.1048 O   0  0  0  0  0  0  0  0  0  0  0  0
  2  1  1  1
  3  2  1  0
  4  2  1  0
  5  4  1  0
  5  6  1  6
  7  8  2  0
  7  5  1  0
  9  7  1  0
 10  9  1  0
 10 11  1  1
 12 11  1  0
 13 10  1  0
 13 20  1  0
 14 13  2  0
 15 16  1  0
 17 16  1  0
 17 19  1  0
 17 18  1  1
 19 20  1  6
 19 21  1  0
 21 23  2  0
 21 22  1  0
M  END
$$$$
