LCI.pdb
     RDKit          3D

 23 22  0  0  1  0  0  0  0  0999 V2000
    7.1277  -12.5024   18.3470 C   0  0  0  0  0  0  0  0  0  0  0  0
    7.9531  -13.2326   19.4149 C   0  0  2  0  0  0  0  0  0  0  0  0
    9.2756  -12.4994   19.4894 C   0  0  0  0  0  0  0  0  0  0  0  0
    8.1569  -14.6334   18.9058 C   0  0  0  0  0  0  0  0  0  0  0  0
    8.9099  -15.4970   19.8890 C   0  0  2  0  0  0  0  0  0  0  0  0
    9.1738  -16.8181   19.4123 N   0  0  0  0  0  0  0  0  0  0  0  0
    8.2149  -15.4762   21.2020 C   0  0  0  0  0  0  0  0  0  0  0  0
    7.9453  -14.3522   21.6990 O   0  0  0  0  0  0  0  0  0  0  0  0
    7.8443  -16.6279   21.9151 N   0  0  0  0  0  0  0  0  0  0  0  0
    7.1683  -16.6428   23.1775 C   0  0  1  0  0  0  0  0  0  0  0  0
    6.8201  -18.0766   23.6053 C   0  0  0  0  0  0  0  0  0  0  0  0
    8.3304  -19.0019   23.9897 S   0  0  0  0  0  0  0  0  0  0  0  0
    7.9558  -15.9723   24.2486 C   0  0  0  0  0  0  0  0  0  0  0  0
    9.2193  -15.9652   24.1737 O   0  0  0  0  0  0  0  0  0  0  0  0
    5.8546  -11.6209   26.4813 C   0  0  0  0  0  0  0  0  0  0  0  0
    6.8407  -12.6220   25.9123 C   0  0  0  0  0  0  0  0  0  0  0  0
    7.3757  -13.5328   26.9853 C   0  0  2  0  0  0  0  0  0  0  0  0
    8.2403  -12.6408   27.8889 C   0  0  0  0  0  0  0  0  0  0  0  0
    8.1852  -14.6287   26.3718 C   0  0  2  0  0  0  0  0  0  0  0  0
    7.3728  -15.3356   25.3569 N   0  0  0  0  0  0  0  0  0  0  0  0
    8.5888  -15.6584   27.3470 C   0  0  0  0  0  0  0  0  0  0  0  0
    9.8173  -15.6512   27.9859 O   0  0  0  0  0  0  0  0  0  0  0  0
    7.8233  -16.6115   27.6503 O   0  0  0  0  0  0  0  0  0  0  0  0
  2  1  1  6
  3  2  1  0
  4  2  1  0
  5  4  1  0
  5  6  1  6
  7  8  2  0
  7  5  1  0
  9  7  1  0
 10  9  1  0
 10 11  1  1
 12 11  1  0
 13 10  1  0
 13 20  1  0
 14 13  2  0
 15 16  1  0
 17 16  1  0
 17 19  1  0
 17 18  1  1
 19 20  1  6
 19 21  1  0
 21 23  2  0
 21 22  1  0
M  END
$$$$
