LCI.pdb
     RDKit          3D

 23 22  0  0  1  0  0  0  0  0999 V2000
    8.8909  -14.4269   18.0184 C   0  0  0  0  0  0  0  0  0  0  0  0
    7.6752  -13.8077   18.7210 C   0  0  2  0  0  0  0  0  0  0  0  0
    7.4204  -12.4888   18.0226 C   0  0  0  0  0  0  0  0  0  0  0  0
    8.0865  -13.5751   20.1492 C   0  0  0  0  0  0  0  0  0  0  0  0
    8.2679  -14.8657   20.9112 C   0  0  2  0  0  0  0  0  0  0  0  0
    7.2429  -15.8304   20.6642 N   0  0  0  0  0  0  0  0  0  0  0  0
    8.4560  -14.5679   22.3546 C   0  0  0  0  0  0  0  0  0  0  0  0
    9.4661  -13.8926   22.6816 O   0  0  0  0  0  0  0  0  0  0  0  0
    7.5801  -14.9924   23.3669 N   0  0  0  0  0  0  0  0  0  0  0  0
    7.6943  -14.6654   24.7565 C   0  0  1  0  0  0  0  0  0  0  0  0
    6.3344  -14.7624   25.4644 C   0  0  0  0  0  0  0  0  0  0  0  0
    6.1799  -16.3563   26.3131 S   0  0  0  0  0  0  0  0  0  0  0  0
    8.6920  -15.5194   25.4582 C   0  0  0  0  0  0  0  0  0  0  0  0
    9.0931  -16.5838   24.9029 O   0  0  0  0  0  0  0  0  0  0  0  0
   10.8389  -13.2217   29.7694 C   0  0  0  0  0  0  0  0  0  0  0  0
   11.0961  -14.0277   28.5114 C   0  0  0  0  0  0  0  0  0  0  0  0
   10.6470  -15.4555   28.6756 C   0  0  2  0  0  0  0  0  0  0  0  0
   11.8422  -16.1941   29.2967 C   0  0  0  0  0  0  0  0  0  0  0  0
   10.2831  -16.0350   27.3472 C   0  0  2  0  0  0  0  0  0  0  0  0
    9.2252  -15.2113   26.7209 N   0  0  0  0  0  0  0  0  0  0  0  0
    9.7214  -17.3946   27.4493 C   0  0  0  0  0  0  0  0  0  0  0  0
    8.4021  -17.6415   27.7896 O   0  0  0  0  0  0  0  0  0  0  0  0
   10.4269  -18.4146   27.2296 O   0  0  0  0  0  0  0  0  0  0  0  0
  2  1  1  6
  3  2  1  0
  4  2  1  0
  5  4  1  0
  5  6  1  1
  7  8  2  0
  7  5  1  0
  9  7  1  0
 10  9  1  0
 10 11  1  1
 12 11  1  0
 13 10  1  0
 13 20  1  0
 14 13  2  0
 15 16  1  0
 17 16  1  0
 17 19  1  0
 17 18  1  6
 19 20  1  1
 19 21  1  0
 21 23  2  0
 21 22  1  0
M  END
$$$$
