EDR.pdb
     RDKit          3D

 29 28  0  0  1  0  0  0  0  0999 V2000
   11.6845  -21.3664   16.3329 N   0  0  0  0  0  0  0  0  0  0  0  0
   13.0370  -20.8347   16.0297 C   0  0  1  0  0  0  0  0  0  0  0  0
   12.9221  -19.8921   14.8626 C   0  0  0  0  0  0  0  0  0  0  0  0
   12.4572  -18.5449   15.3102 C   0  0  0  0  0  0  0  0  0  0  0  0
   12.2472  -17.6291   14.1262 C   0  0  0  0  0  0  0  0  0  0  0  0
   11.8972  -18.0354   12.9978 O   0  0  0  0  0  0  0  0  0  0  0  0
   13.4343  -20.0988   17.2450 C   0  0  0  0  0  0  0  0  0  0  0  0
   14.5706  -19.5571   17.2717 O   0  0  0  0  0  0  0  0  0  0  0  0
   12.4559  -16.2769   14.3141 O   0  0  0  0  0  0  0  0  0  0  0  0
   12.5779  -19.9755   18.3993 N   0  0  0  0  0  0  0  0  0  0  0  0
   13.0853  -19.2630   19.5379 C   0  0  1  0  0  0  0  0  0  0  0  0
   14.3842  -19.8426   20.0152 C   0  0  0  0  0  0  0  0  0  0  0  0
   14.7946  -19.1852   21.2579 C   0  0  0  0  0  0  0  0  0  0  0  0
   13.9646  -18.5977   22.0264 O   0  0  0  0  0  0  0  0  0  0  0  0
   13.3591  -17.8316   19.1896 C   0  0  0  0  0  0  0  0  0  0  0  0
   14.3486  -17.4424   18.5568 O   0  0  0  0  0  0  0  0  0  0  0  0
   16.1178  -19.1815   21.6402 O   0  0  0  0  0  0  0  0  0  0  0  0
    6.8454  -13.2069   20.9896 N   0  0  0  0  0  0  0  0  0  0  0  0
    7.6460  -12.8777   19.8653 C   0  0  0  0  0  0  0  0  0  0  0  0
    7.1423  -12.1781   18.9056 N   0  0  0  0  0  0  0  0  0  0  0  0
    8.9911  -13.3431   19.8479 N   0  0  0  0  0  0  0  0  0  0  0  0
    9.8874  -12.7819   18.8403 C   0  0  0  0  0  0  0  0  0  0  0  0
   11.2829  -13.3523   19.0469 C   0  0  0  0  0  0  0  0  0  0  0  0
   11.1781  -14.8124   19.4100 C   0  0  0  0  0  0  0  0  0  0  0  0
   12.5246  -15.4619   19.2730 C   0  0  2  0  0  0  0  0  0  0  0  0
   12.4088  -16.8638   19.6209 N   0  0  0  0  0  0  0  0  0  0  0  0
   13.5233  -14.8267   20.1692 C   0  0  0  0  0  0  0  0  0  0  0  0
   13.7721  -15.2523   21.3302 O   0  0  0  0  0  0  0  0  0  0  0  0
   14.2442  -13.7065   19.7527 O   0  0  0  0  0  0  0  0  0  0  0  0
  2  1  1  1
  2  7  1  0
  3  2  1  0
  3  4  1  0
  4  5  1  0
  5  6  2  0
  7  8  2  0
  9  5  1  0
 10  7  1  0
 10 11  1  0
 11 15  1  0
 12 13  1  0
 11 12  1  6
 13 17  1  0
 14 13  2  0
 15 26  1  0
 15 16  2  0
 19 18  1  0
 19 21  1  0
 20 19  2  0
 22 21  1  0
 23 22  1  0
 23 24  1  0
 25 24  1  1
 25 27  1  0
 26 25  1  0
 27 29  1  0
 28 27  2  0
M  END
$$$$
