EDR.pdb
     RDKit          3D

 29 28  0  0  1  0  0  0  0  0999 V2000
   13.4568  -16.5080   17.5811 N   0  0  0  0  0  0  0  0  0  0  0  0
   12.1520  -15.8922   17.9304 C   0  0  1  0  0  0  0  0  0  0  0  0
   11.2271  -16.0487   16.7541 C   0  0  0  0  0  0  0  0  0  0  0  0
   11.2139  -17.4624   16.2717 C   0  0  0  0  0  0  0  0  0  0  0  0
   10.1724  -17.6515   15.1927 C   0  0  0  0  0  0  0  0  0  0  0  0
   10.3607  -17.3461   13.9960 O   0  0  0  0  0  0  0  0  0  0  0  0
   11.6590  -16.6778   19.0776 C   0  0  0  0  0  0  0  0  0  0  0  0
   10.4682  -16.5094   19.4504 O   0  0  0  0  0  0  0  0  0  0  0  0
    8.9551  -18.1900   15.5610 O   0  0  0  0  0  0  0  0  0  0  0  0
   12.4821  -17.6267   19.7869 N   0  0  0  0  0  0  0  0  0  0  0  0
   11.9283  -18.2555   20.9527 C   0  0  1  0  0  0  0  0  0  0  0  0
   12.8187  -19.3504   21.4622 C   0  0  0  0  0  0  0  0  0  0  0  0
   12.8686  -20.4434   20.4886 C   0  0  0  0  0  0  0  0  0  0  0  0
   12.2002  -20.4230   19.4036 O   0  0  0  0  0  0  0  0  0  0  0  0
   11.7838  -17.2681   22.0704 C   0  0  0  0  0  0  0  0  0  0  0  0
   12.6940  -16.5369   22.4803 O   0  0  0  0  0  0  0  0  0  0  0  0
   13.6553  -21.5495   20.7227 O   0  0  0  0  0  0  0  0  0  0  0  0
    7.0564  -12.0530   19.4595 N   0  0  0  0  0  0  0  0  0  0  0  0
    8.0955  -13.0003   19.2693 C   0  0  0  0  0  0  0  0  0  0  0  0
    8.2364  -13.5717   18.1213 N   0  0  0  0  0  0  0  0  0  0  0  0
    8.9489  -13.2817   20.3733 N   0  0  0  0  0  0  0  0  0  0  0  0
    8.5322  -14.3317   21.2992 C   0  0  0  0  0  0  0  0  0  0  0  0
    9.4566  -14.3208   22.5079 C   0  0  0  0  0  0  0  0  0  0  0  0
    9.0531  -15.4218   23.4564 C   0  0  0  0  0  0  0  0  0  0  0  0
   10.2520  -16.2613   23.7906 C   0  0  2  0  0  0  0  0  0  0  0  0
   10.5081  -17.1739   22.6945 N   0  0  0  0  0  0  0  0  0  0  0  0
   10.0300  -17.0499   25.0287 C   0  0  0  0  0  0  0  0  0  0  0  0
    9.8122  -18.2922   25.0211 O   0  0  0  0  0  0  0  0  0  0  0  0
   10.0541  -16.4332   26.2805 O   0  0  0  0  0  0  0  0  0  0  0  0
  2  1  1  6
  2  7  1  0
  3  2  1  0
  3  4  1  0
  4  5  1  0
  5  6  2  0
  7  8  2  0
  9  5  1  0
 10  7  1  0
 10 11  1  0
 11 15  1  0
 12 13  1  0
 11 12  1  1
 13 17  1  0
 14 13  2  0
 15 26  1  0
 15 16  2  0
 19 18  1  0
 19 21  1  0
 20 19  2  0
 22 21  1  0
 23 22  1  0
 23 24  1  0
 25 24  1  6
 25 27  1  0
 26 25  1  0
 27 29  1  0
 28 27  2  0
M  END
$$$$
