EDR.pdb
     RDKit          3D

 29 28  0  0  1  0  0  0  0  0999 V2000
   13.3460  -17.7225   17.8810 N   0  0  0  0  0  0  0  0  0  0  0  0
   11.9887  -17.1222   17.8456 C   0  0  1  0  0  0  0  0  0  0  0  0
   11.3497  -17.4788   16.5310 C   0  0  0  0  0  0  0  0  0  0  0  0
   11.6273  -18.9022   16.1730 C   0  0  0  0  0  0  0  0  0  0  0  0
   12.5044  -18.9853   14.9447 C   0  0  0  0  0  0  0  0  0  0  0  0
   12.5095  -19.9655   14.1701 O   0  0  0  0  0  0  0  0  0  0  0  0
   11.2632  -17.7638   18.9584 C   0  0  0  0  0  0  0  0  0  0  0  0
   10.0541  -17.4615   19.1374 O   0  0  0  0  0  0  0  0  0  0  0  0
   13.3379  -17.9173   14.6762 O   0  0  0  0  0  0  0  0  0  0  0  0
   11.8799  -18.7191   19.8461 N   0  0  0  0  0  0  0  0  0  0  0  0
   11.1278  -19.1561   20.9884 C   0  0  1  0  0  0  0  0  0  0  0  0
   11.3274  -20.6199   21.2508 C   0  0  0  0  0  0  0  0  0  0  0  0
   10.2283  -21.1314   22.0727 C   0  0  0  0  0  0  0  0  0  0  0  0
    9.2595  -20.3955   22.4528 O   0  0  0  0  0  0  0  0  0  0  0  0
   11.5737  -18.4363   22.2246 C   0  0  0  0  0  0  0  0  0  0  0  0
   12.7533  -18.1841   22.5004 O   0  0  0  0  0  0  0  0  0  0  0  0
   10.2097  -22.4506   22.4683 O   0  0  0  0  0  0  0  0  0  0  0  0
    9.1296  -12.5247   26.9080 N   0  0  0  0  0  0  0  0  0  0  0  0
    9.5704  -13.3868   27.9452 C   0  0  0  0  0  0  0  0  0  0  0  0
   10.4653  -12.9769   28.7791 N   0  0  0  0  0  0  0  0  0  0  0  0
    8.9951  -14.6867   28.0187 N   0  0  0  0  0  0  0  0  0  0  0  0
    8.6817  -15.3592   26.7605 C   0  0  0  0  0  0  0  0  0  0  0  0
    9.9453  -16.0131   26.2210 C   0  0  0  0  0  0  0  0  0  0  0  0
    9.6344  -16.7016   24.9156 C   0  0  0  0  0  0  0  0  0  0  0  0
   10.8765  -17.3570   24.3851 C   0  0  2  0  0  0  0  0  0  0  0  0
   10.5624  -18.0191   23.1350 N   0  0  0  0  0  0  0  0  0  0  0  0
   11.4054  -18.3628   25.3403 C   0  0  0  0  0  0  0  0  0  0  0  0
   10.8408  -19.4704   25.5531 O   0  0  0  0  0  0  0  0  0  0  0  0
   12.5769  -18.1171   26.0581 O   0  0  0  0  0  0  0  0  0  0  0  0
  2  1  1  6
  2  7  1  0
  3  2  1  0
  3  4  1  0
  4  5  1  0
  5  6  2  0
  7  8  2  0
  9  5  1  0
 10  7  1  0
 10 11  1  0
 11 15  1  0
 12 13  1  0
 11 12  1  1
 13 17  1  0
 14 13  2  0
 15 26  1  0
 15 16  2  0
 19 18  1  0
 19 21  1  0
 20 19  2  0
 22 21  1  0
 23 22  1  0
 23 24  1  0
 25 24  1  1
 25 27  1  0
 26 25  1  0
 27 29  1  0
 28 27  2  0
M  END
$$$$
