EDR.pdb
     RDKit          3D

 29 28  0  0  1  0  0  0  0  0999 V2000
    9.2267  -13.2954   18.4343 N   0  0  0  0  0  0  0  0  0  0  0  0
    8.3104  -14.4473   18.6276 C   0  0  1  0  0  0  0  0  0  0  0  0
    7.9386  -14.9863   17.2730 C   0  0  0  0  0  0  0  0  0  0  0  0
    7.8045  -13.8799   16.2784 C   0  0  0  0  0  0  0  0  0  0  0  0
    7.2975  -14.4064   14.9553 C   0  0  0  0  0  0  0  0  0  0  0  0
    6.1821  -14.9514   14.8155 O   0  0  0  0  0  0  0  0  0  0  0  0
    9.1056  -15.4410   19.3736 C   0  0  0  0  0  0  0  0  0  0  0  0
    8.5291  -16.4825   19.7836 O   0  0  0  0  0  0  0  0  0  0  0  0
    8.1183  -14.2722   13.8527 O   0  0  0  0  0  0  0  0  0  0  0  0
   10.5106  -15.2687   19.6515 N   0  0  0  0  0  0  0  0  0  0  0  0
   11.1524  -16.2403   20.4915 C   0  0  1  0  0  0  0  0  0  0  0  0
   12.5904  -16.4331   20.1095 C   0  0  0  0  0  0  0  0  0  0  0  0
   12.7000  -17.4964   19.1082 C   0  0  0  0  0  0  0  0  0  0  0  0
   12.3567  -17.3280   17.8923 O   0  0  0  0  0  0  0  0  0  0  0  0
   11.1471  -15.7922   21.9213 C   0  0  0  0  0  0  0  0  0  0  0  0
   11.8472  -14.8758   22.3700 O   0  0  0  0  0  0  0  0  0  0  0  0
   13.1866  -18.7363   19.4590 O   0  0  0  0  0  0  0  0  0  0  0  0
    6.6957  -12.0336   25.1535 N   0  0  0  0  0  0  0  0  0  0  0  0
    6.6192  -12.4249   26.5153 C   0  0  0  0  0  0  0  0  0  0  0  0
    6.6212  -11.5248   27.4395 N   0  0  0  0  0  0  0  0  0  0  0  0
    6.5429  -13.8168   26.8037 N   0  0  0  0  0  0  0  0  0  0  0  0
    6.7446  -14.7483   25.6968 C   0  0  0  0  0  0  0  0  0  0  0  0
    8.2213  -15.1061   25.6143 C   0  0  0  0  0  0  0  0  0  0  0  0
    8.5211  -15.6830   24.2533 C   0  0  0  0  0  0  0  0  0  0  0  0
    9.9893  -15.9770   24.1449 C   0  0  2  0  0  0  0  0  0  0  0  0
   10.2729  -16.4742   22.8136 N   0  0  0  0  0  0  0  0  0  0  0  0
   10.4095  -16.9980   25.1373 C   0  0  0  0  0  0  0  0  0  0  0  0
   10.3577  -16.8064   26.3828 O   0  0  0  0  0  0  0  0  0  0  0  0
   10.8901  -18.2407   24.7215 O   0  0  0  0  0  0  0  0  0  0  0  0
  2  1  1  6
  2  7  1  0
  3  2  1  0
  3  4  1  0
  4  5  1  0
  5  6  2  0
  7  8  2  0
  9  5  1  0
 10  7  1  0
 10 11  1  0
 11 15  1  0
 12 13  1  0
 11 12  1  6
 13 17  1  0
 14 13  2  0
 15 26  1  0
 15 16  2  0
 19 18  1  0
 19 21  1  0
 20 19  2  0
 22 21  1  0
 23 22  1  0
 23 24  1  0
 25 24  1  6
 25 27  1  0
 26 25  1  0
 27 29  1  0
 28 27  2  0
M  END
$$$$
