EDR.pdb
     RDKit          3D

 29 28  0  0  1  0  0  0  0  0999 V2000
   10.8557  -19.1553   18.4294 N   0  0  0  0  0  0  0  0  0  0  0  0
   11.8644  -19.3330   19.5040 C   0  0  1  0  0  0  0  0  0  0  0  0
   12.8528  -18.2022   19.4142 C   0  0  0  0  0  0  0  0  0  0  0  0
   13.7975  -18.2279   20.5710 C   0  0  0  0  0  0  0  0  0  0  0  0
   14.7696  -17.0728   20.4957 C   0  0  0  0  0  0  0  0  0  0  0  0
   14.7934  -16.2563   19.5504 O   0  0  0  0  0  0  0  0  0  0  0  0
   11.0968  -19.2436   20.7606 C   0  0  0  0  0  0  0  0  0  0  0  0
   10.1461  -18.4205   20.8235 O   0  0  0  0  0  0  0  0  0  0  0  0
   15.6722  -16.9234   21.5302 O   0  0  0  0  0  0  0  0  0  0  0  0
   11.3899  -20.0570   21.9153 N   0  0  0  0  0  0  0  0  0  0  0  0
   10.5639  -19.8934   23.0783 C   0  0  1  0  0  0  0  0  0  0  0  0
   10.7821  -21.0000   24.0677 C   0  0  0  0  0  0  0  0  0  0  0  0
    9.5994  -21.1451   24.9193 C   0  0  0  0  0  0  0  0  0  0  0  0
    8.5113  -20.5222   24.6894 O   0  0  0  0  0  0  0  0  0  0  0  0
   10.8934  -18.6154   23.7878 C   0  0  0  0  0  0  0  0  0  0  0  0
   11.9901  -18.3635   24.3026 O   0  0  0  0  0  0  0  0  0  0  0  0
    9.6293  -21.9757   26.0176 O   0  0  0  0  0  0  0  0  0  0  0  0
    5.2136  -12.1813   25.8087 N   0  0  0  0  0  0  0  0  0  0  0  0
    6.4712  -11.6612   26.2100 C   0  0  0  0  0  0  0  0  0  0  0  0
    6.5700  -10.4208   26.5506 N   0  0  0  0  0  0  0  0  0  0  0  0
    7.5852  -12.5473   26.2179 N   0  0  0  0  0  0  0  0  0  0  0  0
    7.3553  -13.9258   25.7932 C   0  0  0  0  0  0  0  0  0  0  0  0
    8.6793  -14.6755   25.8087 C   0  0  0  0  0  0  0  0  0  0  0  0
    8.6219  -15.8131   24.8200 C   0  0  0  0  0  0  0  0  0  0  0  0
    9.9584  -16.4941   24.7599 C   0  0  2  0  0  0  0  0  0  0  0  0
    9.8671  -17.6325   23.8679 N   0  0  0  0  0  0  0  0  0  0  0  0
   10.3824  -16.9691   26.1010 C   0  0  0  0  0  0  0  0  0  0  0  0
    9.7933  -17.8982   26.7177 O   0  0  0  0  0  0  0  0  0  0  0  0
   11.4764  -16.3927   26.7483 O   0  0  0  0  0  0  0  0  0  0  0  0
  2  1  1  6
  2  7  1  0
  3  2  1  0
  3  4  1  0
  4  5  1  0
  5  6  2  0
  7  8  2  0
  9  5  1  0
 10  7  1  0
 10 11  1  0
 11 15  1  0
 12 13  1  0
 11 12  1  1
 13 17  1  0
 14 13  2  0
 15 26  1  0
 15 16  2  0
 19 18  1  0
 19 21  1  0
 20 19  2  0
 22 21  1  0
 23 22  1  0
 23 24  1  0
 25 24  1  1
 25 27  1  0
 26 25  1  0
 27 29  1  0
 28 27  2  0
M  END
$$$$
