EDR.pdb
     RDKit          3D

 29 28  0  0  1  0  0  0  0  0999 V2000
   13.5867  -18.9765   14.3473 N   0  0  0  0  0  0  0  0  0  0  0  0
   14.5846  -19.4447   15.3416 C   0  0  1  0  0  0  0  0  0  0  0  0
   15.7000  -18.4368   15.4005 C   0  0  0  0  0  0  0  0  0  0  0  0
   15.2218  -17.0880   14.9722 C   0  0  0  0  0  0  0  0  0  0  0  0
   16.3350  -16.0696   15.0651 C   0  0  0  0  0  0  0  0  0  0  0  0
   16.7730  -15.6284   16.1487 O   0  0  0  0  0  0  0  0  0  0  0  0
   13.8544  -19.4758   16.6231 C   0  0  0  0  0  0  0  0  0  0  0  0
   12.5958  -19.4982   16.5940 O   0  0  0  0  0  0  0  0  0  0  0  0
   16.8875  -15.6115   13.8852 O   0  0  0  0  0  0  0  0  0  0  0  0
   14.5205  -19.4812   17.9026 N   0  0  0  0  0  0  0  0  0  0  0  0
   13.7158  -19.6667   19.0771 C   0  0  1  0  0  0  0  0  0  0  0  0
   14.3509  -20.6347   20.0315 C   0  0  0  0  0  0  0  0  0  0  0  0
   13.4507  -20.8825   21.1599 C   0  0  0  0  0  0  0  0  0  0  0  0
   12.3226  -21.4591   21.0202 O   0  0  0  0  0  0  0  0  0  0  0  0
   13.5572  -18.3758   19.8212 C   0  0  0  0  0  0  0  0  0  0  0  0
   14.4457  -17.5227   19.9397 O   0  0  0  0  0  0  0  0  0  0  0  0
   13.8039  -20.4902   22.4321 O   0  0  0  0  0  0  0  0  0  0  0  0
    8.4141  -12.9603   17.8406 N   0  0  0  0  0  0  0  0  0  0  0  0
    8.3665  -12.8162   19.2514 C   0  0  0  0  0  0  0  0  0  0  0  0
    7.4465  -12.0885   19.7883 N   0  0  0  0  0  0  0  0  0  0  0  0
    9.3535  -13.4927   20.0224 N   0  0  0  0  0  0  0  0  0  0  0  0
    8.9415  -14.6942   20.7435 C   0  0  0  0  0  0  0  0  0  0  0  0
   10.1434  -15.2642   21.4825 C   0  0  0  0  0  0  0  0  0  0  0  0
   10.4900  -16.6148   20.9076 C   0  0  0  0  0  0  0  0  0  0  0  0
   11.9681  -16.8481   21.0293 C   0  0  2  0  0  0  0  0  0  0  0  0
   12.2942  -18.1254   20.4278 N   0  0  0  0  0  0  0  0  0  0  0  0
   12.3961  -16.8646   22.4508 C   0  0  0  0  0  0  0  0  0  0  0  0
   12.4484  -17.9201   23.1393 O   0  0  0  0  0  0  0  0  0  0  0  0
   12.7666  -15.6845   23.0973 O   0  0  0  0  0  0  0  0  0  0  0  0
  2  1  1  6
  2  7  1  0
  3  2  1  0
  3  4  1  0
  4  5  1  0
  5  6  2  0
  7  8  2  0
  9  5  1  0
 10  7  1  0
 10 11  1  0
 11 15  1  0
 12 13  1  0
 11 12  1  1
 13 17  1  0
 14 13  2  0
 15 26  1  0
 15 16  2  0
 19 18  1  0
 19 21  1  0
 20 19  2  0
 22 21  1  0
 23 22  1  0
 23 24  1  0
 25 24  1  1
 25 27  1  0
 26 25  1  0
 27 29  1  0
 28 27  2  0
M  END
$$$$
