EDR.pdb
     RDKit          3D

 29 28  0  0  1  0  0  0  0  0999 V2000
   11.0794  -16.5393   14.7097 N   0  0  0  0  0  0  0  0  0  0  0  0
   10.2368  -16.0503   15.8298 C   0  0  1  0  0  0  0  0  0  0  0  0
    9.1154  -17.0312   16.0391 C   0  0  0  0  0  0  0  0  0  0  0  0
    8.1033  -16.9240   14.9458 C   0  0  0  0  0  0  0  0  0  0  0  0
    6.8674  -17.7285   15.2778 C   0  0  0  0  0  0  0  0  0  0  0  0
    6.6373  -18.1960   16.4133 O   0  0  0  0  0  0  0  0  0  0  0  0
   11.1341  -16.0407   17.0007 C   0  0  0  0  0  0  0  0  0  0  0  0
   11.9858  -16.9616   17.1092 O   0  0  0  0  0  0  0  0  0  0  0  0
    5.9539  -17.9510   14.2663 O   0  0  0  0  0  0  0  0  0  0  0  0
   11.0755  -15.0239   18.0222 N   0  0  0  0  0  0  0  0  0  0  0  0
   11.9814  -15.1336   19.1307 C   0  0  1  0  0  0  0  0  0  0  0  0
   12.6355  -13.8189   19.4385 C   0  0  0  0  0  0  0  0  0  0  0  0
   14.0779  -14.0092   19.6070 C   0  0  0  0  0  0  0  0  0  0  0  0
   14.8945  -13.9432   18.6305 O   0  0  0  0  0  0  0  0  0  0  0  0
   11.2529  -15.5488   20.3726 C   0  0  0  0  0  0  0  0  0  0  0  0
   10.2575  -14.9705   20.8263 O   0  0  0  0  0  0  0  0  0  0  0  0
   14.6053  -14.2719   20.8520 O   0  0  0  0  0  0  0  0  0  0  0  0
    8.1827  -23.0258   21.2545 N   0  0  0  0  0  0  0  0  0  0  0  0
    9.5949  -22.9257   21.3510 C   0  0  0  0  0  0  0  0  0  0  0  0
   10.2628  -23.8610   21.9371 N   0  0  0  0  0  0  0  0  0  0  0  0
   10.2200  -21.7778   20.7874 N   0  0  0  0  0  0  0  0  0  0  0  0
   11.0491  -20.9589   21.6679 C   0  0  0  0  0  0  0  0  0  0  0  0
   10.6775  -19.4956   21.4776 C   0  0  0  0  0  0  0  0  0  0  0  0
   11.4818  -18.6469   22.4303 C   0  0  0  0  0  0  0  0  0  0  0  0
   11.1045  -17.2041   22.2585 C   0  0  2  0  0  0  0  0  0  0  0  0
   11.7488  -16.6873   21.0679 N   0  0  0  0  0  0  0  0  0  0  0  0
   11.5324  -16.3922   23.4255 C   0  0  0  0  0  0  0  0  0  0  0  0
   10.7837  -16.1646   24.4146 O   0  0  0  0  0  0  0  0  0  0  0  0
   12.8112  -15.8353   23.4759 O   0  0  0  0  0  0  0  0  0  0  0  0
  2  1  1  6
  2  7  1  0
  3  2  1  0
  3  4  1  0
  4  5  1  0
  5  6  2  0
  7  8  2  0
  9  5  1  0
 10  7  1  0
 10 11  1  0
 11 15  1  0
 12 13  1  0
 11 12  1  1
 13 17  1  0
 14 13  2  0
 15 26  1  0
 15 16  2  0
 19 18  1  0
 19 21  1  0
 20 19  2  0
 22 21  1  0
 23 22  1  0
 23 24  1  0
 25 24  1  1
 25 27  1  0
 26 25  1  0
 27 29  1  0
 28 27  2  0
M  END
$$$$
