EDR.pdb
     RDKit          3D

 29 28  0  0  1  0  0  0  0  0999 V2000
   13.9685  -18.1732   18.8212 N   0  0  0  0  0  0  0  0  0  0  0  0
   14.1571  -19.5935   19.2097 C   0  0  1  0  0  0  0  0  0  0  0  0
   15.6309  -19.8439   19.3797 C   0  0  0  0  0  0  0  0  0  0  0  0
   16.4122  -18.5889   19.1654 C   0  0  0  0  0  0  0  0  0  0  0  0
   17.8312  -18.7491   19.6611 C   0  0  0  0  0  0  0  0  0  0  0  0
   18.2709  -18.1761   20.6805 O   0  0  0  0  0  0  0  0  0  0  0  0
   13.4624  -19.7260   20.5043 C   0  0  0  0  0  0  0  0  0  0  0  0
   12.7344  -18.7749   20.8926 O   0  0  0  0  0  0  0  0  0  0  0  0
   18.6744  -19.5731   18.9419 O   0  0  0  0  0  0  0  0  0  0  0  0
   13.5830  -20.8954   21.3402 N   0  0  0  0  0  0  0  0  0  0  0  0
   12.7776  -20.9576   22.5272 C   0  0  1  0  0  0  0  0  0  0  0  0
   12.1353  -22.3042   22.6859 C   0  0  0  0  0  0  0  0  0  0  0  0
   11.1868  -22.2736   23.8014 C   0  0  0  0  0  0  0  0  0  0  0  0
   10.5181  -21.2308   24.1014 O   0  0  0  0  0  0  0  0  0  0  0  0
   13.6159  -20.7379   23.7496 C   0  0  0  0  0  0  0  0  0  0  0  0
   14.8532  -20.7407   23.7594 O   0  0  0  0  0  0  0  0  0  0  0  0
   10.9861  -23.3946   24.5763 O   0  0  0  0  0  0  0  0  0  0  0  0
   14.0531  -20.8579   32.8308 N   0  0  0  0  0  0  0  0  0  0  0  0
   13.1413  -20.8106   31.7446 C   0  0  0  0  0  0  0  0  0  0  0  0
   12.4411  -21.8540   31.4527 N   0  0  0  0  0  0  0  0  0  0  0  0
   13.0401  -19.5929   31.0143 N   0  0  0  0  0  0  0  0  0  0  0  0
   12.3391  -19.6295   29.7333 C   0  0  0  0  0  0  0  0  0  0  0  0
   13.3569  -19.8167   28.6177 C   0  0  0  0  0  0  0  0  0  0  0  0
   12.6343  -20.0750   27.3192 C   0  0  0  0  0  0  0  0  0  0  0  0
   13.6329  -20.2014   26.2054 C   0  0  2  0  0  0  0  0  0  0  0  0
   12.9306  -20.5112   24.9763 N   0  0  0  0  0  0  0  0  0  0  0  0
   14.6147  -21.2803   26.4811 C   0  0  0  0  0  0  0  0  0  0  0  0
   15.8087  -21.0521   26.8170 O   0  0  0  0  0  0  0  0  0  0  0  0
   14.2464  -22.6226   26.3774 O   0  0  0  0  0  0  0  0  0  0  0  0
  2  1  1  1
  2  7  1  0
  3  2  1  0
  3  4  1  0
  4  5  1  0
  5  6  2  0
  7  8  2  0
  9  5  1  0
 10  7  1  0
 10 11  1  0
 11 15  1  0
 12 13  1  0
 11 12  1  1
 13 17  1  0
 14 13  2  0
 15 26  1  0
 15 16  2  0
 19 18  1  0
 19 21  1  0
 20 19  2  0
 22 21  1  0
 23 22  1  0
 23 24  1  0
 25 24  1  1
 25 27  1  0
 26 25  1  0
 27 29  1  0
 28 27  2  0
M  END
$$$$
