EDR.pdb
     RDKit          3D

 29 28  0  0  1  0  0  0  0  0999 V2000
    7.1239  -21.8186   18.4178 N   0  0  0  0  0  0  0  0  0  0  0  0
    8.4495  -21.1506   18.4329 C   0  0  1  0  0  0  0  0  0  0  0  0
    8.3426  -19.8731   17.6455 C   0  0  0  0  0  0  0  0  0  0  0  0
    9.6147  -19.0937   17.7201 C   0  0  0  0  0  0  0  0  0  0  0  0
    9.5267  -17.8411   16.8785 C   0  0  0  0  0  0  0  0  0  0  0  0
    8.5000  -17.5075   16.2496 O   0  0  0  0  0  0  0  0  0  0  0  0
    8.7071  -20.8554   19.8552 C   0  0  0  0  0  0  0  0  0  0  0  0
    7.8314  -20.2242   20.5032 O   0  0  0  0  0  0  0  0  0  0  0  0
   10.6444  -17.0329   16.8095 O   0  0  0  0  0  0  0  0  0  0  0  0
    9.9163  -21.2585   20.5308 N   0  0  0  0  0  0  0  0  0  0  0  0
   10.1296  -20.7793   21.8673 C   0  0  1  0  0  0  0  0  0  0  0  0
   11.1678  -21.5918   22.5836 C   0  0  0  0  0  0  0  0  0  0  0  0
   11.1373  -21.2856   24.0155 C   0  0  0  0  0  0  0  0  0  0  0  0
   10.3266  -20.4390   24.5160 O   0  0  0  0  0  0  0  0  0  0  0  0
   10.6294  -19.3668   21.8514 C   0  0  0  0  0  0  0  0  0  0  0  0
   11.6094  -18.9785   21.2033 O   0  0  0  0  0  0  0  0  0  0  0  0
   12.0031  -21.9161   24.8814 O   0  0  0  0  0  0  0  0  0  0  0  0
    7.9701  -13.6326   17.8440 N   0  0  0  0  0  0  0  0  0  0  0  0
    8.1323  -13.2497   19.2007 C   0  0  0  0  0  0  0  0  0  0  0  0
    8.1773  -11.9980   19.5099 N   0  0  0  0  0  0  0  0  0  0  0  0
    8.2402  -14.2822   20.1745 N   0  0  0  0  0  0  0  0  0  0  0  0
    8.4923  -13.8837   21.5570 C   0  0  0  0  0  0  0  0  0  0  0  0
    9.6228  -14.7334   22.1184 C   0  0  0  0  0  0  0  0  0  0  0  0
    9.2102  -16.1841   22.1102 C   0  0  0  0  0  0  0  0  0  0  0  0
   10.3083  -17.0219   22.6984 C   0  0  2  0  0  0  0  0  0  0  0  0
    9.9199  -18.4167   22.6386 N   0  0  0  0  0  0  0  0  0  0  0  0
   10.5659  -16.6566   24.1141 C   0  0  0  0  0  0  0  0  0  0  0  0
   10.1596  -17.3496   25.0864 O   0  0  0  0  0  0  0  0  0  0  0  0
   11.2856  -15.5041   24.4331 O   0  0  0  0  0  0  0  0  0  0  0  0
  2  1  1  1
  2  7  1  0
  3  2  1  0
  3  4  1  0
  4  5  1  0
  5  6  2  0
  7  8  2  0
  9  5  1  0
 10  7  1  0
 10 11  1  0
 11 15  1  0
 12 13  1  0
 11 12  1  6
 13 17  1  0
 14 13  2  0
 15 26  1  0
 15 16  2  0
 19 18  1  0
 19 21  1  0
 20 19  2  0
 22 21  1  0
 23 22  1  0
 23 24  1  0
 25 24  1  1
 25 27  1  0
 26 25  1  0
 27 29  1  0
 28 27  2  0
M  END
$$$$
