WYD.pdb
     RDKit          3D

 35 37  0  0  1  0  0  0  0  0999 V2000
   28.1863  -20.9548   -9.0684 N   0  0  0  0  0  0  0  0  0  0  0  0
   26.7668  -21.2037   -8.9901 C   0  0  1  0  0  0  0  0  0  0  0  0
   26.1004  -20.5618   -7.7977 C   0  0  0  0  0  0  0  0  0  0  0  0
   27.0379  -19.8462   -6.9304 C   0  0  0  0  0  0  0  0  0  0  0  0
   27.4856  -18.5571   -7.1490 C   0  0  0  0  0  0  0  0  0  0  0  0
   28.3070  -18.2323   -6.1383 N   0  0  0  0  0  0  0  0  0  0  0  0
   28.4173  -19.2557   -5.2652 C   0  0  0  0  0  0  0  0  0  0  0  0
   29.1103  -19.4442   -4.1034 C   0  0  0  0  0  0  0  0  0  0  0  0
   29.0301  -20.6250   -3.4204 C   0  0  0  0  0  0  0  0  0  0  0  0
   28.2426  -21.6391   -3.9062 C   0  0  0  0  0  0  0  0  0  0  0  0
   27.5344  -21.4616   -5.0827 C   0  0  0  0  0  0  0  0  0  0  0  0
   27.6212  -20.2694   -5.7620 C   0  0  0  0  0  0  0  0  0  0  0  0
   26.0735  -20.6845  -10.1911 C   0  0  0  0  0  0  0  0  0  0  0  0
   26.1337  -19.4518  -10.4218 O   0  0  0  0  0  0  0  0  0  0  0  0
   29.3309  -19.5938  -16.7402 O   0  0  0  0  0  0  0  0  0  0  0  0
   28.3226  -20.1395  -15.9451 C   0  0  0  0  0  0  0  0  0  0  0  0
   27.0186  -19.7464  -16.1557 C   0  0  0  0  0  0  0  0  0  0  0  0
   26.0004  -20.2783  -15.3743 C   0  0  0  0  0  0  0  0  0  0  0  0
   26.2321  -21.2004  -14.3759 C   0  0  0  0  0  0  0  0  0  0  0  0
   25.1897  -21.7849  -13.5331 C   0  0  0  0  0  0  0  0  0  0  0  0
   24.8227  -20.9541  -12.3337 C   0  0  2  0  0  0  0  0  0  0  0  0
   25.3423  -21.4899  -11.1030 N   0  0  0  0  0  0  0  0  0  0  0  0
   23.3372  -20.8868  -12.2567 C   0  0  0  0  0  0  0  0  0  0  0  0
   22.7059  -21.7494  -11.5946 O   0  0  0  0  0  0  0  0  0  0  0  0
   27.5499  -21.5813  -14.1814 C   0  0  0  0  0  0  0  0  0  0  0  0
   28.5730  -21.0616  -14.9500 C   0  0  0  0  0  0  0  0  0  0  0  0
   22.6097  -19.8414  -12.9336 N   0  0  0  0  0  0  0  0  0  0  0  0
   21.1847  -19.7469  -12.9055 C   0  0  1  0  0  0  0  0  0  0  0  0
   20.7041  -18.5402  -13.6503 C   0  0  0  0  0  0  0  0  0  0  0  0
   19.3717  -18.0601  -13.2249 C   0  0  0  0  0  0  0  0  0  0  0  0
   18.7482  -18.6560  -12.3169 O   0  0  0  0  0  0  0  0  0  0  0  0
   20.5166  -20.9814  -13.3453 C   0  0  0  0  0  0  0  0  0  0  0  0
   20.8389  -21.5899  -14.5338 O   0  0  0  0  0  0  0  0  0  0  0  0
   18.7923  -16.9510  -13.8178 O   0  0  0  0  0  0  0  0  0  0  0  0
   19.6337  -21.4888  -12.6189 O   0  0  0  0  0  0  0  0  0  0  0  0
  2  3  1  0
  2  1  1  6
  3  4  1  0
  4  5  2  0
  6  5  1  0
  7  6  1  0
  8  7  2  0
  9  8  1  0
 10 11  1  0
 10  9  2  0
 11 12  2  0
 12  7  1  0
 12  4  1  0
 13  2  1  0
 13 22  1  0
 14 13  2  0
 16 15  1  0
 16 17  2  0
 18 17  1  0
 19 18  2  0
 20 19  1  0
 21 20  1  6
 21 23  1  0
 21 22  1  0
 23 27  1  0
 24 23  2  0
 25 26  2  0
 25 19  1  0
 26 16  1  0
 27 28  1  0
 28 29  1  6
 29 30  1  0
 30 31  2  0
 32 33  1  0
 32 28  1  0
 34 30  1  0
 35 32  2  0
M  END
$$$$
