WYD.pdb
     RDKit          3D

 35 37  0  0  1  0  0  0  0  0999 V2000
   28.4259  -20.3026   -9.2541 N   0  0  0  0  0  0  0  0  0  0  0  0
   27.0622  -20.7589   -9.1319 C   0  0  1  0  0  0  0  0  0  0  0  0
   26.3205  -20.1567   -7.9634 C   0  0  0  0  0  0  0  0  0  0  0  0
   27.2101  -19.6137   -6.9352 C   0  0  0  0  0  0  0  0  0  0  0  0
   27.9402  -18.4472   -7.0620 C   0  0  0  0  0  0  0  0  0  0  0  0
   28.6133  -18.2592   -5.9160 N   0  0  0  0  0  0  0  0  0  0  0  0
   28.3552  -19.2549   -5.0420 C   0  0  0  0  0  0  0  0  0  0  0  0
   28.7739  -19.5392   -3.7734 C   0  0  0  0  0  0  0  0  0  0  0  0
   28.3352  -20.6574   -3.1221 C   0  0  0  0  0  0  0  0  0  0  0  0
   27.4608  -21.5101   -3.7489 C   0  0  0  0  0  0  0  0  0  0  0  0
   27.0280  -21.2341   -5.0348 C   0  0  0  0  0  0  0  0  0  0  0  0
   27.4747  -20.1059   -5.6813 C   0  0  0  0  0  0  0  0  0  0  0  0
   26.2829  -20.4220  -10.3451 C   0  0  0  0  0  0  0  0  0  0  0  0
   26.1747  -19.2117  -10.6611 O   0  0  0  0  0  0  0  0  0  0  0  0
   29.4578  -18.8999  -16.4525 O   0  0  0  0  0  0  0  0  0  0  0  0
   28.4587  -19.5811  -15.7564 C   0  0  0  0  0  0  0  0  0  0  0  0
   28.8028  -20.6766  -14.9943 C   0  0  0  0  0  0  0  0  0  0  0  0
   27.8224  -21.3682  -14.2939 C   0  0  0  0  0  0  0  0  0  0  0  0
   26.4921  -21.0072  -14.3223 C   0  0  0  0  0  0  0  0  0  0  0  0
   25.4307  -21.7068  -13.5993 C   0  0  0  0  0  0  0  0  0  0  0  0
   24.9403  -20.9907  -12.3705 C   0  0  2  0  0  0  0  0  0  0  0  0
   25.6471  -21.3793  -11.1783 N   0  0  0  0  0  0  0  0  0  0  0  0
   23.4914  -21.2928  -12.2083 C   0  0  0  0  0  0  0  0  0  0  0  0
   23.0522  -21.6676  -11.0912 O   0  0  0  0  0  0  0  0  0  0  0  0
   26.1686  -19.9034  -15.0945 C   0  0  0  0  0  0  0  0  0  0  0  0
   27.1318  -19.2055  -15.7964 C   0  0  0  0  0  0  0  0  0  0  0  0
   22.5811  -21.1609  -13.3193 N   0  0  0  0  0  0  0  0  0  0  0  0
   21.2118  -20.7875  -13.1580 C   0  0  1  0  0  0  0  0  0  0  0  0
   21.0841  -19.4930  -12.4165 C   0  0  0  0  0  0  0  0  0  0  0  0
   19.6873  -19.0754  -12.1686 C   0  0  0  0  0  0  0  0  0  0  0  0
   18.8728  -19.8758  -11.6546 O   0  0  0  0  0  0  0  0  0  0  0  0
   20.4620  -20.7865  -14.4234 C   0  0  0  0  0  0  0  0  0  0  0  0
   21.0784  -20.5356  -15.6249 O   0  0  0  0  0  0  0  0  0  0  0  0
   19.2565  -17.8013  -12.4977 O   0  0  0  0  0  0  0  0  0  0  0  0
   19.2332  -21.0197  -14.4042 O   0  0  0  0  0  0  0  0  0  0  0  0
  2  3  1  0
  2  1  1  6
  3  4  1  0
  4  5  2  0
  6  5  1  0
  7  6  1  0
  8  7  2  0
  9  8  1  0
 10 11  1  0
 10  9  2  0
 11 12  2  0
 12  7  1  0
 12  4  1  0
 13  2  1  0
 13 22  1  0
 14 13  2  0
 16 15  1  0
 16 17  2  0
 18 17  1  0
 19 18  2  0
 20 19  1  0
 21 20  1  6
 21 23  1  0
 21 22  1  0
 23 27  1  0
 24 23  2  0
 25 26  2  0
 25 19  1  0
 26 16  1  0
 27 28  1  0
 28 29  1  6
 29 30  1  0
 30 31  2  0
 32 33  1  0
 32 28  1  0
 34 30  1  0
 35 32  2  0
M  END
$$$$
