WYD.pdb
     RDKit          3D

 35 37  0  0  1  0  0  0  0  0999 V2000
   28.7929  -20.5887  -13.9869 N   0  0  0  0  0  0  0  0  0  0  0  0
   27.5663  -19.8713  -13.7350 C   0  0  1  0  0  0  0  0  0  0  0  0
   26.7417  -19.6202  -14.9740 C   0  0  0  0  0  0  0  0  0  0  0  0
   27.3529  -18.6512  -15.8856 C   0  0  0  0  0  0  0  0  0  0  0  0
   28.2215  -18.9742  -16.9108 C   0  0  0  0  0  0  0  0  0  0  0  0
   28.5508  -17.8361  -17.5418 N   0  0  0  0  0  0  0  0  0  0  0  0
   27.9341  -16.7791  -16.9724 C   0  0  0  0  0  0  0  0  0  0  0  0
   27.9302  -15.4352  -17.2169 C   0  0  0  0  0  0  0  0  0  0  0  0
   27.1920  -14.5824  -16.4457 C   0  0  0  0  0  0  0  0  0  0  0  0
   26.4422  -15.0798  -15.4089 C   0  0  0  0  0  0  0  0  0  0  0  0
   26.4366  -16.4399  -15.1500 C   0  0  0  0  0  0  0  0  0  0  0  0
   27.1822  -17.2899  -15.9323 C   0  0  0  0  0  0  0  0  0  0  0  0
   26.7002  -20.6209  -12.7967 C   0  0  0  0  0  0  0  0  0  0  0  0
   26.5794  -21.8593  -12.9646 O   0  0  0  0  0  0  0  0  0  0  0  0
   29.3509  -20.9471   -6.2305 O   0  0  0  0  0  0  0  0  0  0  0  0
   28.2382  -20.7840   -7.0563 C   0  0  0  0  0  0  0  0  0  0  0  0
   27.5659  -19.5810   -7.0426 C   0  0  0  0  0  0  0  0  0  0  0  0
   26.4556  -19.3991   -7.8577 C   0  0  0  0  0  0  0  0  0  0  0  0
   25.9804  -20.3824   -8.6992 C   0  0  0  0  0  0  0  0  0  0  0  0
   24.8175  -20.2308   -9.5729 C   0  0  0  0  0  0  0  0  0  0  0  0
   25.0122  -20.7684  -10.9644 C   0  0  2  0  0  0  0  0  0  0  0  0
   25.9942  -20.0312  -11.7155 N   0  0  0  0  0  0  0  0  0  0  0  0
   23.7020  -20.7086  -11.6693 C   0  0  0  0  0  0  0  0  0  0  0  0
   23.2734  -19.6077  -12.0998 O   0  0  0  0  0  0  0  0  0  0  0  0
   26.6711  -21.5833   -8.6970 C   0  0  0  0  0  0  0  0  0  0  0  0
   27.7764  -21.7795   -7.8925 C   0  0  0  0  0  0  0  0  0  0  0  0
   22.9146  -21.9010  -11.8658 N   0  0  0  0  0  0  0  0  0  0  0  0
   21.6540  -21.8941  -12.5376 C   0  0  1  0  0  0  0  0  0  0  0  0
   21.4689  -23.1310  -13.3608 C   0  0  0  0  0  0  0  0  0  0  0  0
   20.1651  -23.2038  -14.0549 C   0  0  0  0  0  0  0  0  0  0  0  0
   19.2800  -23.9922  -13.6508 O   0  0  0  0  0  0  0  0  0  0  0  0
   20.5206  -21.6464  -11.6333 C   0  0  0  0  0  0  0  0  0  0  0  0
   20.6870  -21.5836  -10.2713 O   0  0  0  0  0  0  0  0  0  0  0  0
   19.9000  -22.4080  -15.1565 O   0  0  0  0  0  0  0  0  0  0  0  0
   19.3778  -21.4891  -12.1170 O   0  0  0  0  0  0  0  0  0  0  0  0
  2  3  1  0
  2  1  1  6
  3  4  1  0
  4  5  2  0
  6  5  1  0
  7  6  1  0
  8  7  2  0
  9  8  1  0
 10 11  1  0
 10  9  2  0
 11 12  2  0
 12  7  1  0
 12  4  1  0
 13  2  1  0
 13 22  1  0
 14 13  2  0
 16 15  1  0
 16 17  2  0
 18 17  1  0
 19 18  2  0
 20 19  1  0
 21 20  1  1
 21 23  1  0
 21 22  1  0
 23 27  1  0
 24 23  2  0
 25 26  2  0
 25 19  1  0
 26 16  1  0
 27 28  1  0
 28 29  1  1
 29 30  1  0
 30 31  2  0
 32 33  1  0
 32 28  1  0
 34 30  1  0
 35 32  2  0
M  END
$$$$
