WYD.pdb
     RDKit          3D

 35 37  0  0  1  0  0  0  0  0999 V2000
    9.9822  -21.0734    3.7978 N   0  0  0  0  0  0  0  0  0  0  0  0
   10.9345  -20.2139    3.1366 C   0  0  1  0  0  0  0  0  0  0  0  0
   12.3621  -20.4370    3.5727 C   0  0  0  0  0  0  0  0  0  0  0  0
   12.6174  -20.0071    4.9487 C   0  0  0  0  0  0  0  0  0  0  0  0
   11.8245  -19.1248    5.6577 C   0  0  0  0  0  0  0  0  0  0  0  0
   12.3548  -18.9925    6.8837 N   0  0  0  0  0  0  0  0  0  0  0  0
   13.4639  -19.7516    7.0084 C   0  0  0  0  0  0  0  0  0  0  0  0
   14.3581  -19.9706    8.0174 C   0  0  0  0  0  0  0  0  0  0  0  0
   15.4202  -20.8129    7.8453 C   0  0  0  0  0  0  0  0  0  0  0  0
   15.5945  -21.4499    6.6418 C   0  0  0  0  0  0  0  0  0  0  0  0
   14.6957  -21.2373    5.6104 C   0  0  0  0  0  0  0  0  0  0  0  0
   13.6297  -20.3885    5.7939 C   0  0  0  0  0  0  0  0  0  0  0  0
   10.9037  -20.4222    1.6709 C   0  0  0  0  0  0  0  0  0  0  0  0
   10.7623  -21.5942    1.2431 O   0  0  0  0  0  0  0  0  0  0  0  0
    9.6679  -19.3627   -6.9908 O   0  0  0  0  0  0  0  0  0  0  0  0
    9.9391  -19.1334   -5.6416 C   0  0  0  0  0  0  0  0  0  0  0  0
   10.4775  -17.9222   -5.2642 C   0  0  0  0  0  0  0  0  0  0  0  0
   10.7547  -17.6748   -3.9255 C   0  0  0  0  0  0  0  0  0  0  0  0
   10.5135  -18.5996   -2.9318 C   0  0  0  0  0  0  0  0  0  0  0  0
   10.7894  -18.3782   -1.5128 C   0  0  0  0  0  0  0  0  0  0  0  0
   10.9018  -19.6381   -0.6983 C   0  0  2  0  0  0  0  0  0  0  0  0
   11.0240  -19.3818    0.7128 N   0  0  0  0  0  0  0  0  0  0  0  0
   12.0985  -20.3875   -1.1712 C   0  0  0  0  0  0  0  0  0  0  0  0
   13.2250  -20.1494   -0.6660 O   0  0  0  0  0  0  0  0  0  0  0  0
    9.9723  -19.8100   -3.3334 C   0  0  0  0  0  0  0  0  0  0  0  0
    9.6912  -20.0709   -4.6602 C   0  0  0  0  0  0  0  0  0  0  0  0
   11.9826  -21.3868   -2.2048 N   0  0  0  0  0  0  0  0  0  0  0  0
   13.0938  -22.1578   -2.6641 C   0  0  1  0  0  0  0  0  0  0  0  0
   13.4163  -23.2684   -1.7131 C   0  0  0  0  0  0  0  0  0  0  0  0
   14.6467  -24.0151   -2.0530 C   0  0  0  0  0  0  0  0  0  0  0  0
   15.3526  -23.6569   -3.0233 O   0  0  0  0  0  0  0  0  0  0  0  0
   12.9340  -22.6315   -4.0475 C   0  0  0  0  0  0  0  0  0  0  0  0
   13.5679  -22.0134   -5.0975 O   0  0  0  0  0  0  0  0  0  0  0  0
   15.0386  -25.1163   -1.3107 O   0  0  0  0  0  0  0  0  0  0  0  0
   12.2028  -23.6212   -4.2724 O   0  0  0  0  0  0  0  0  0  0  0  0
  2  3  1  0
  2  1  1  1
  3  4  1  0
  4  5  2  0
  6  5  1  0
  7  6  1  0
  8  7  2  0
  9  8  1  0
 10 11  1  0
 10  9  2  0
 11 12  2  0
 12  7  1  0
 12  4  1  0
 13  2  1  0
 13 22  1  0
 14 13  2  0
 16 15  1  0
 16 17  2  0
 18 17  1  0
 19 18  2  0
 20 19  1  0
 21 20  1  6
 21 23  1  0
 21 22  1  0
 23 27  1  0
 24 23  2  0
 25 26  2  0
 25 19  1  0
 26 16  1  0
 27 28  1  0
 28 29  1  1
 29 30  1  0
 30 31  2  0
 32 33  1  0
 32 28  1  0
 34 30  1  0
 35 32  2  0
M  END
$$$$
