WYD.pdb
     RDKit          3D

 35 37  0  0  1  0  0  0  0  0999 V2000
   22.7574  -18.7999  -18.5362 N   0  0  0  0  0  0  0  0  0  0  0  0
   21.8274  -18.0193  -17.7560 C   0  0  1  0  0  0  0  0  0  0  0  0
   20.6216  -17.5516  -18.5340 C   0  0  0  0  0  0  0  0  0  0  0  0
   20.9621  -16.6514  -19.6372 C   0  0  0  0  0  0  0  0  0  0  0  0
   21.6004  -15.4343  -19.4918 C   0  0  0  0  0  0  0  0  0  0  0  0
   21.7652  -14.9098  -20.7163 N   0  0  0  0  0  0  0  0  0  0  0  0
   21.2607  -15.7327  -21.6598 C   0  0  0  0  0  0  0  0  0  0  0  0
   21.1676  -15.6746  -23.0213 C   0  0  0  0  0  0  0  0  0  0  0  0
   20.5798  -16.6845  -23.7296 C   0  0  0  0  0  0  0  0  0  0  0  0
   20.0741  -17.7750  -23.0666 C   0  0  0  0  0  0  0  0  0  0  0  0
   20.1619  -17.8471  -21.6867 C   0  0  0  0  0  0  0  0  0  0  0  0
   20.7560  -16.8261  -20.9831 C   0  0  0  0  0  0  0  0  0  0  0  0
   21.3121  -18.8034  -16.6105 C   0  0  0  0  0  0  0  0  0  0  0  0
   21.0201  -20.0093  -16.8030 O   0  0  0  0  0  0  0  0  0  0  0  0
   18.5491  -21.4356   -8.5835 O   0  0  0  0  0  0  0  0  0  0  0  0
   19.0791  -20.6934   -9.6394 C   0  0  0  0  0  0  0  0  0  0  0  0
   20.2152  -21.1487  -10.2727 C   0  0  0  0  0  0  0  0  0  0  0  0
   20.7583  -20.4238  -11.3262 C   0  0  0  0  0  0  0  0  0  0  0  0
   20.2067  -19.2452  -11.7816 C   0  0  0  0  0  0  0  0  0  0  0  0
   20.7459  -18.4537  -12.8868 C   0  0  0  0  0  0  0  0  0  0  0  0
   20.5767  -19.0840  -14.2422 C   0  0  2  0  0  0  0  0  0  0  0  0
   21.1252  -18.2814  -15.3038 N   0  0  0  0  0  0  0  0  0  0  0  0
   19.1207  -19.2883  -14.4772 C   0  0  0  0  0  0  0  0  0  0  0  0
   18.4113  -18.3297  -14.8758 O   0  0  0  0  0  0  0  0  0  0  0  0
   19.0653  -18.8060  -11.1308 C   0  0  0  0  0  0  0  0  0  0  0  0
   18.5136  -19.5154  -10.0820 C   0  0  0  0  0  0  0  0  0  0  0  0
   18.5104  -20.5759  -14.2532 N   0  0  0  0  0  0  0  0  0  0  0  0
   17.1071  -20.8024  -14.3940 C   0  0  1  0  0  0  0  0  0  0  0  0
   16.8179  -21.7429  -15.5225 C   0  0  0  0  0  0  0  0  0  0  0  0
   15.3771  -21.9855  -15.7510 C   0  0  0  0  0  0  0  0  0  0  0  0
   14.5230  -21.4504  -15.0078 O   0  0  0  0  0  0  0  0  0  0  0  0
   16.4615  -21.2158  -13.1387 C   0  0  0  0  0  0  0  0  0  0  0  0
   17.1949  -21.5124  -12.0159 O   0  0  0  0  0  0  0  0  0  0  0  0
   14.9481  -22.8029  -16.7830 O   0  0  0  0  0  0  0  0  0  0  0  0
   15.2142  -21.2992  -13.0932 O   0  0  0  0  0  0  0  0  0  0  0  0
  2  3  1  0
  2  1  1  6
  3  4  1  0
  4  5  2  0
  6  5  1  0
  7  6  1  0
  8  7  2  0
  9  8  1  0
 10 11  1  0
 10  9  2  0
 11 12  2  0
 12  7  1  0
 12  4  1  0
 13  2  1  0
 13 22  1  0
 14 13  2  0
 16 15  1  0
 16 17  2  0
 18 17  1  0
 19 18  2  0
 20 19  1  0
 21 20  1  1
 21 23  1  0
 21 22  1  0
 23 27  1  0
 24 23  2  0
 25 26  2  0
 25 19  1  0
 26 16  1  0
 27 28  1  0
 28 29  1  6
 29 30  1  0
 30 31  2  0
 32 33  1  0
 32 28  1  0
 34 30  1  0
 35 32  2  0
M  END
$$$$
