WYD.pdb
     RDKit          3D

 35 37  0  0  1  0  0  0  0  0999 V2000
   20.7942  -25.1196  -14.6008 N   0  0  0  0  0  0  0  0  0  0  0  0
   20.4536  -25.9184  -13.4481 C   0  0  1  0  0  0  0  0  0  0  0  0
   21.5302  -26.8963  -13.0446 C   0  0  0  0  0  0  0  0  0  0  0  0
   21.7798  -27.9265  -14.0544 C   0  0  0  0  0  0  0  0  0  0  0  0
   22.7646  -27.8585  -15.0216 C   0  0  0  0  0  0  0  0  0  0  0  0
   22.7069  -28.9881  -15.7443 N   0  0  0  0  0  0  0  0  0  0  0  0
   21.7240  -29.7948  -15.2915 C   0  0  0  0  0  0  0  0  0  0  0  0
   21.2526  -31.0214  -15.6644 C   0  0  0  0  0  0  0  0  0  0  0  0
   20.2083  -31.6041  -15.0035 C   0  0  0  0  0  0  0  0  0  0  0  0
   19.6215  -30.9501  -13.9487 C   0  0  0  0  0  0  0  0  0  0  0  0
   20.0893  -29.7064  -13.5598 C   0  0  0  0  0  0  0  0  0  0  0  0
   21.1412  -29.1288  -14.2308 C   0  0  0  0  0  0  0  0  0  0  0  0
   20.1996  -25.0602  -12.2684 C   0  0  0  0  0  0  0  0  0  0  0  0
   21.1363  -24.3353  -11.8519 O   0  0  0  0  0  0  0  0  0  0  0  0
   20.6421  -18.7671  -13.2388 O   0  0  0  0  0  0  0  0  0  0  0  0
   19.9918  -19.8023  -12.5664 C   0  0  0  0  0  0  0  0  0  0  0  0
   19.3026  -20.7455  -13.2977 C   0  0  0  0  0  0  0  0  0  0  0  0
   18.6485  -21.7840  -12.6465 C   0  0  0  0  0  0  0  0  0  0  0  0
   18.6531  -21.9231  -11.2749 C   0  0  0  0  0  0  0  0  0  0  0  0
   17.9793  -23.0009  -10.5517 C   0  0  0  0  0  0  0  0  0  0  0  0
   18.8139  -24.2382  -10.3626 C   0  0  2  0  0  0  0  0  0  0  0  0
   18.9631  -25.0017  -11.5737 N   0  0  0  0  0  0  0  0  0  0  0  0
   18.1604  -25.0806   -9.3232 C   0  0  0  0  0  0  0  0  0  0  0  0
   17.2414  -25.8746   -9.6490 O   0  0  0  0  0  0  0  0  0  0  0  0
   19.3517  -20.9641  -10.5597 C   0  0  0  0  0  0  0  0  0  0  0  0
   20.0070  -19.9260  -11.1925 C   0  0  0  0  0  0  0  0  0  0  0  0
   18.5688  -24.9981   -7.9423 N   0  0  0  0  0  0  0  0  0  0  0  0
   17.9764  -25.7896   -6.9113 C   0  0  1  0  0  0  0  0  0  0  0  0
   18.7087  -25.6318   -5.6149 C   0  0  0  0  0  0  0  0  0  0  0  0
   18.1881  -26.4801   -4.5211 C   0  0  0  0  0  0  0  0  0  0  0  0
   17.1535  -26.1432   -3.9012 O   0  0  0  0  0  0  0  0  0  0  0  0
   16.5298  -25.5633   -6.7705 C   0  0  0  0  0  0  0  0  0  0  0  0
   15.6585  -26.5995   -6.5389 O   0  0  0  0  0  0  0  0  0  0  0  0
   18.8297  -27.6540   -4.1641 O   0  0  0  0  0  0  0  0  0  0  0  0
   16.0830  -24.3987   -6.8641 O   0  0  0  0  0  0  0  0  0  0  0  0
  2  3  1  0
  2  1  1  6
  3  4  1  0
  4  5  2  0
  6  5  1  0
  7  6  1  0
  8  7  2  0
  9  8  1  0
 10 11  1  0
 10  9  2  0
 11 12  2  0
 12  7  1  0
 12  4  1  0
 13  2  1  0
 13 22  1  0
 14 13  2  0
 16 15  1  0
 16 17  2  0
 18 17  1  0
 19 18  2  0
 20 19  1  0
 21 20  1  6
 21 23  1  0
 21 22  1  0
 23 27  1  0
 24 23  2  0
 25 26  2  0
 25 19  1  0
 26 16  1  0
 27 28  1  0
 28 29  1  1
 29 30  1  0
 30 31  2  0
 32 33  1  0
 32 28  1  0
 34 30  1  0
 35 32  2  0
M  END
$$$$
