WYD.pdb
     RDKit          3D

 35 37  0  0  1  0  0  0  0  0999 V2000
   26.0544  -21.7055  -13.8239 N   0  0  0  0  0  0  0  0  0  0  0  0
   25.8306  -20.5028  -13.0583 C   0  0  1  0  0  0  0  0  0  0  0  0
   24.5020  -19.8424  -13.3354 C   0  0  0  0  0  0  0  0  0  0  0  0
   24.4322  -19.2230  -14.6601 C   0  0  0  0  0  0  0  0  0  0  0  0
   23.5131  -19.5556  -15.6371 C   0  0  0  0  0  0  0  0  0  0  0  0
   23.7394  -18.7649  -16.6979 N   0  0  0  0  0  0  0  0  0  0  0  0
   24.7700  -17.9271  -16.4575 C   0  0  0  0  0  0  0  0  0  0  0  0
   25.3935  -16.9532  -17.1843 C   0  0  0  0  0  0  0  0  0  0  0  0
   26.4472  -16.2546  -16.6659 C   0  0  0  0  0  0  0  0  0  0  0  0
   26.8886  -16.5331  -15.3962 C   0  0  0  0  0  0  0  0  0  0  0  0
   26.2657  -17.5177  -14.6481 C   0  0  0  0  0  0  0  0  0  0  0  0
   25.2057  -18.2144  -15.1785 C   0  0  0  0  0  0  0  0  0  0  0  0
   25.8651  -20.7883  -11.6058 C   0  0  0  0  0  0  0  0  0  0  0  0
   25.3679  -21.8689  -11.2038 O   0  0  0  0  0  0  0  0  0  0  0  0
   28.0131  -20.8409   -2.9944 O   0  0  0  0  0  0  0  0  0  0  0  0
   27.8325  -20.4583   -4.3239 C   0  0  0  0  0  0  0  0  0  0  0  0
   28.3555  -21.2489   -5.3242 C   0  0  0  0  0  0  0  0  0  0  0  0
   28.1863  -20.8848   -6.6542 C   0  0  0  0  0  0  0  0  0  0  0  0
   27.5065  -19.7472   -7.0342 C   0  0  0  0  0  0  0  0  0  0  0  0
   27.3053  -19.3296   -8.4213 C   0  0  0  0  0  0  0  0  0  0  0  0
   26.4690  -20.2755   -9.2393 C   0  0  2  0  0  0  0  0  0  0  0  0
   26.4246  -19.9189  -10.6331 N   0  0  0  0  0  0  0  0  0  0  0  0
   25.0882  -20.2698   -8.6822 C   0  0  0  0  0  0  0  0  0  0  0  0
   24.2969  -19.3399   -8.9822 O   0  0  0  0  0  0  0  0  0  0  0  0
   26.9892  -18.9672   -6.0128 C   0  0  0  0  0  0  0  0  0  0  0  0
   27.1491  -19.3158   -4.6860 C   0  0  0  0  0  0  0  0  0  0  0  0
   24.6442  -21.3207   -7.7996 N   0  0  0  0  0  0  0  0  0  0  0  0
   23.3546  -21.3224   -7.1853 C   0  0  1  0  0  0  0  0  0  0  0  0
   22.5079  -22.4451   -7.6994 C   0  0  0  0  0  0  0  0  0  0  0  0
   22.3592  -23.5709   -6.7521 C   0  0  0  0  0  0  0  0  0  0  0  0
   21.4657  -23.5418   -5.8752 O   0  0  0  0  0  0  0  0  0  0  0  0
   23.4162  -21.2926   -5.7160 C   0  0  0  0  0  0  0  0  0  0  0  0
   22.2847  -21.1480   -4.9510 O   0  0  0  0  0  0  0  0  0  0  0  0
   23.1987  -24.6701   -6.8158 O   0  0  0  0  0  0  0  0  0  0  0  0
   24.5264  -21.4015   -5.1500 O   0  0  0  0  0  0  0  0  0  0  0  0
  2  3  1  0
  2  1  1  6
  3  4  1  0
  4  5  2  0
  6  5  1  0
  7  6  1  0
  8  7  2  0
  9  8  1  0
 10 11  1  0
 10  9  2  0
 11 12  2  0
 12  7  1  0
 12  4  1  0
 13  2  1  0
 13 22  1  0
 14 13  2  0
 16 15  1  0
 16 17  2  0
 18 17  1  0
 19 18  2  0
 20 19  1  0
 21 20  1  1
 21 23  1  0
 21 22  1  0
 23 27  1  0
 24 23  2  0
 25 26  2  0
 25 19  1  0
 26 16  1  0
 27 28  1  0
 28 29  1  1
 29 30  1  0
 30 31  2  0
 32 33  1  0
 32 28  1  0
 34 30  1  0
 35 32  2  0
M  END
$$$$
