WYD.pdb
     RDKit          3D

 35 37  0  0  1  0  0  0  0  0999 V2000
   25.1122  -10.7395  -18.6695 N   0  0  0  0  0  0  0  0  0  0  0  0
   25.0433  -10.3643  -17.2776 C   0  0  1  0  0  0  0  0  0  0  0  0
   26.2851   -9.6721  -16.7709 C   0  0  0  0  0  0  0  0  0  0  0  0
   27.4860  -10.5045  -16.8622 C   0  0  0  0  0  0  0  0  0  0  0  0
   28.6757  -10.1088  -17.4436 C   0  0  0  0  0  0  0  0  0  0  0  0
   29.5491  -11.1201  -17.3170 N   0  0  0  0  0  0  0  0  0  0  0  0
   28.9813  -12.1639  -16.6767 C   0  0  0  0  0  0  0  0  0  0  0  0
   29.4174  -13.4044  -16.3073 C   0  0  0  0  0  0  0  0  0  0  0  0
   28.5898  -14.2760  -15.6573 C   0  0  0  0  0  0  0  0  0  0  0  0
   27.3003  -13.9029  -15.3698 C   0  0  0  0  0  0  0  0  0  0  0  0
   26.8451  -12.6483  -15.7383 C   0  0  0  0  0  0  0  0  0  0  0  0
   27.6859  -11.7783  -16.3912 C   0  0  0  0  0  0  0  0  0  0  0  0
   23.9149   -9.4361  -17.0370 C   0  0  0  0  0  0  0  0  0  0  0  0
   23.3754   -8.8912  -18.0311 O   0  0  0  0  0  0  0  0  0  0  0  0
   18.5653  -13.6595  -16.3093 O   0  0  0  0  0  0  0  0  0  0  0  0
   19.2206  -12.5024  -15.8872 C   0  0  0  0  0  0  0  0  0  0  0  0
   20.1896  -12.6006  -14.9121 C   0  0  0  0  0  0  0  0  0  0  0  0
   20.8534  -11.4598  -14.4784 C   0  0  0  0  0  0  0  0  0  0  0  0
   20.5870  -10.2054  -14.9845 C   0  0  0  0  0  0  0  0  0  0  0  0
   21.2632   -8.9813  -14.5568 C   0  0  0  0  0  0  0  0  0  0  0  0
   22.1748   -8.3813  -15.5922 C   0  0  2  0  0  0  0  0  0  0  0  0
   23.4000   -9.1195  -15.7526 N   0  0  0  0  0  0  0  0  0  0  0  0
   22.4879   -6.9859  -15.1778 C   0  0  0  0  0  0  0  0  0  0  0  0
   23.3425   -6.7773  -14.2794 O   0  0  0  0  0  0  0  0  0  0  0  0
   19.6096  -10.1297  -15.9635 C   0  0  0  0  0  0  0  0  0  0  0  0
   18.9409  -11.2546  -16.4051 C   0  0  0  0  0  0  0  0  0  0  0  0
   21.8215   -5.8655  -15.7953 N   0  0  0  0  0  0  0  0  0  0  0  0
   22.0521   -4.5129  -15.3981 C   0  0  1  0  0  0  0  0  0  0  0  0
   21.6857   -3.5550  -16.4890 C   0  0  0  0  0  0  0  0  0  0  0  0
   21.8736   -2.1326  -16.1308 C   0  0  0  0  0  0  0  0  0  0  0  0
   22.3447   -1.8219  -15.0129 O   0  0  0  0  0  0  0  0  0  0  0  0
   21.4175   -4.1729  -14.1155 C   0  0  0  0  0  0  0  0  0  0  0  0
   20.4848   -4.9962  -13.5335 O   0  0  0  0  0  0  0  0  0  0  0  0
   21.5346   -1.1247  -17.0176 O   0  0  0  0  0  0  0  0  0  0  0  0
   21.7353   -3.1079  -13.5413 O   0  0  0  0  0  0  0  0  0  0  0  0
  2  3  1  0
  2  1  1  6
  3  4  1  0
  4  5  2  0
  6  5  1  0
  7  6  1  0
  8  7  2  0
  9  8  1  0
 10 11  1  0
 10  9  2  0
 11 12  2  0
 12  7  1  0
 12  4  1  0
 13  2  1  0
 13 22  1  0
 14 13  2  0
 16 15  1  0
 16 17  2  0
 18 17  1  0
 19 18  2  0
 20 19  1  0
 21 20  1  1
 21 23  1  0
 21 22  1  0
 23 27  1  0
 24 23  2  0
 25 26  2  0
 25 19  1  0
 26 16  1  0
 27 28  1  0
 28 29  1  6
 29 30  1  0
 30 31  2  0
 32 33  1  0
 32 28  1  0
 34 30  1  0
 35 32  2  0
M  END
$$$$
