EFL.pdb
     RDKit          3D

 29 29  0  0  1  0  0  0  0  0999 V2000
   28.6916  -20.8350  -14.5388 N   0  0  0  0  0  0  0  0  0  0  0  0
   28.0649  -19.8369  -13.7068 C   0  0  1  0  0  0  0  0  0  0  0  0
   27.5008  -18.6797  -14.4803 C   0  0  0  0  0  0  0  0  0  0  0  0
   28.5555  -17.8615  -15.2023 C   0  0  0  0  0  0  0  0  0  0  0  0
   28.2113  -17.8213  -16.6385 C   0  0  0  0  0  0  0  0  0  0  0  0
   27.2872  -17.0730  -17.0323 O   0  0  0  0  0  0  0  0  0  0  0  0
   26.8872  -20.5052  -13.0481 C   0  0  0  0  0  0  0  0  0  0  0  0
   26.3914  -21.4913  -13.6421 O   0  0  0  0  0  0  0  0  0  0  0  0
   28.8889  -18.5917  -17.5605 O   0  0  0  0  0  0  0  0  0  0  0  0
   26.3669  -20.0430  -11.8181 N   0  0  0  0  0  0  0  0  0  0  0  0
   25.3417  -20.7718  -11.1342 C   0  0  1  0  0  0  0  0  0  0  0  0
   25.2728  -20.3726   -9.6772 C   0  0  0  0  0  0  0  0  0  0  0  0
   26.5558  -20.4042   -8.9694 C   0  0  0  0  0  0  0  0  0  0  0  0
   27.5000  -21.3465   -9.3381 C   0  0  0  0  0  0  0  0  0  0  0  0
   28.7032  -21.3443   -8.6758 C   0  0  0  0  0  0  0  0  0  0  0  0
   28.9544  -20.4268   -7.6747 C   0  0  0  0  0  0  0  0  0  0  0  0
   28.0005  -19.4863   -7.3132 C   0  0  0  0  0  0  0  0  0  0  0  0
   26.7884  -19.4829   -7.9754 C   0  0  0  0  0  0  0  0  0  0  0  0
   24.0392  -20.4871  -11.7806 C   0  0  0  0  0  0  0  0  0  0  0  0
   23.7416  -19.3090  -12.1534 O   0  0  0  0  0  0  0  0  0  0  0  0
   19.4749  -22.2720  -14.4096 C   0  0  0  0  0  0  0  0  0  0  0  0
   20.8596  -22.1825  -14.9509 C   0  0  2  0  0  0  0  0  0  0  0  0
   21.0749  -23.2262  -16.0598 C   0  0  0  0  0  0  0  0  0  0  0  0
   21.9123  -22.2322  -13.9380 C   0  0  0  0  0  0  0  0  0  0  0  0
   21.9029  -21.2117  -12.8621 C   0  0  2  0  0  0  0  0  0  0  0  0
   23.1058  -21.5118  -11.9957 N   0  0  0  0  0  0  0  0  0  0  0  0
   20.8067  -21.1454  -11.9121 C   0  0  0  0  0  0  0  0  0  0  0  0
   20.6252  -22.0145  -10.9961 O   0  0  0  0  0  0  0  0  0  0  0  0
   19.8883  -20.1182  -11.9358 O   0  0  0  0  0  0  0  0  0  0  0  0
  2  3  1  0
  2  1  1  6
  4  5  1  0
  4  3  1  0
  5  9  1  0
  6  5  2  0
  7  2  1  0
  8  7  2  0
 10  7  1  0
 11 10  1  0
 12 13  1  0
 11 12  1  1
 13 14  2  0
 14 15  1  0
 16 15  2  0
 17 16  1  0
 18 17  2  0
 18 13  1  0
 19 11  1  0
 19 20  2  0
 22 21  1  1
 22 23  1  0
 25 24  1  6
 24 22  1  0
 25 26  1  0
 26 19  1  0
 27 25  1  0
 28 27  2  0
 29 27  1  0
M  END
$$$$
