EFL.pdb
     RDKit          3D

 29 29  0  0  1  0  0  0  0  0999 V2000
   27.5153  -23.1807  -17.6150 N   0  0  0  0  0  0  0  0  0  0  0  0
   27.3503  -21.8324  -17.1289 C   0  0  1  0  0  0  0  0  0  0  0  0
   26.4842  -20.9790  -18.0105 C   0  0  0  0  0  0  0  0  0  0  0  0
   27.1619  -20.5584  -19.3016 C   0  0  0  0  0  0  0  0  0  0  0  0
   28.3084  -19.6899  -18.9643 C   0  0  0  0  0  0  0  0  0  0  0  0
   28.1104  -18.6125  -18.3568 O   0  0  0  0  0  0  0  0  0  0  0  0
   26.6237  -21.9362  -15.8140 C   0  0  0  0  0  0  0  0  0  0  0  0
   25.7295  -22.8106  -15.7294 O   0  0  0  0  0  0  0  0  0  0  0  0
   29.5985  -20.0409  -19.3033 O   0  0  0  0  0  0  0  0  0  0  0  0
   26.9363  -21.0888  -14.7270 N   0  0  0  0  0  0  0  0  0  0  0  0
   26.2386  -21.2036  -13.4821 C   0  0  1  0  0  0  0  0  0  0  0  0
   26.9734  -20.4747  -12.3796 C   0  0  0  0  0  0  0  0  0  0  0  0
   26.2990  -20.4869  -11.0784 C   0  0  0  0  0  0  0  0  0  0  0  0
   26.4850  -21.5713  -10.2388 C   0  0  0  0  0  0  0  0  0  0  0  0
   25.8605  -21.5520   -9.0157 C   0  0  0  0  0  0  0  0  0  0  0  0
   25.0736  -20.4799   -8.6436 C   0  0  0  0  0  0  0  0  0  0  0  0
   24.8941  -19.3978   -9.4933 C   0  0  0  0  0  0  0  0  0  0  0  0
   25.5195  -19.4108  -10.7247 C   0  0  0  0  0  0  0  0  0  0  0  0
   24.8854  -20.6200  -13.6359 C   0  0  0  0  0  0  0  0  0  0  0  0
   24.7194  -19.5109  -14.2340 O   0  0  0  0  0  0  0  0  0  0  0  0
   20.2349  -21.8724  -16.4180 C   0  0  0  0  0  0  0  0  0  0  0  0
   20.6228  -21.0860  -15.2140 C   0  0  2  0  0  0  0  0  0  0  0  0
   20.4625  -19.5793  -15.4779 C   0  0  0  0  0  0  0  0  0  0  0  0
   21.9417  -21.4117  -14.6745 C   0  0  0  0  0  0  0  0  0  0  0  0
   22.3926  -20.7125  -13.4469 C   0  0  2  0  0  0  0  0  0  0  0  0
   23.7575  -21.2790  -13.1249 N   0  0  0  0  0  0  0  0  0  0  0  0
   21.6614  -20.8560  -12.2006 C   0  0  0  0  0  0  0  0  0  0  0  0
   20.7857  -20.0165  -11.8061 O   0  0  0  0  0  0  0  0  0  0  0  0
   21.8643  -21.9297  -11.3608 O   0  0  0  0  0  0  0  0  0  0  0  0
  2  3  1  0
  2  1  1  6
  4  5  1  0
  4  3  1  0
  5  9  1  0
  6  5  2  0
  7  2  1  0
  8  7  2  0
 10  7  1  0
 11 10  1  0
 12 13  1  0
 11 12  1  1
 13 14  2  0
 14 15  1  0
 16 15  2  0
 17 16  1  0
 18 17  2  0
 18 13  1  0
 19 11  1  0
 19 20  2  0
 22 21  1  6
 22 23  1  0
 25 24  1  6
 24 22  1  0
 25 26  1  0
 26 19  1  0
 27 25  1  0
 28 27  2  0
 29 27  1  0
M  END
$$$$
