EFL.pdb
     RDKit          3D

 29 29  0  0  1  0  0  0  0  0999 V2000
   56.6559   49.7149   47.8962 N   0  0  0  0  0  0  0  0  0  0  0  0
   55.7027   50.2010   48.8639 C   0  0  1  0  0  0  0  0  0  0  0  0
   55.0527   49.1100   49.6657 C   0  0  0  0  0  0  0  0  0  0  0  0
   53.5384   49.1044   49.5658 C   0  0  0  0  0  0  0  0  0  0  0  0
   53.1558   49.6774   48.2590 C   0  0  0  0  0  0  0  0  0  0  0  0
   53.2147   48.9650   47.2303 O   0  0  0  0  0  0  0  0  0  0  0  0
   56.4792   51.0313   49.8514 C   0  0  0  0  0  0  0  0  0  0  0  0
   56.1696   52.2427   49.9388 O   0  0  0  0  0  0  0  0  0  0  0  0
   52.7314   50.9849   48.1454 O   0  0  0  0  0  0  0  0  0  0  0  0
   57.5072   50.4705   50.6427 N   0  0  0  0  0  0  0  0  0  0  0  0
   58.5037   51.3013   51.2482 C   0  0  1  0  0  0  0  0  0  0  0  0
   59.1304   52.2265   50.2293 C   0  0  0  0  0  0  0  0  0  0  0  0
   58.3675   52.3809   48.9874 C   0  0  0  0  0  0  0  0  0  0  0  0
   58.7018   53.4064   48.1203 C   0  0  0  0  0  0  0  0  0  0  0  0
   57.9876   53.5195   46.9526 C   0  0  0  0  0  0  0  0  0  0  0  0
   56.9695   52.6332   46.6610 C   0  0  0  0  0  0  0  0  0  0  0  0
   56.6428   51.6086   47.5377 C   0  0  0  0  0  0  0  0  0  0  0  0
   57.3573   51.4890   48.7137 C   0  0  0  0  0  0  0  0  0  0  0  0
   57.8696   52.1090   52.3163 C   0  0  0  0  0  0  0  0  0  0  0  0
   56.6958   51.8418   52.7239 O   0  0  0  0  0  0  0  0  0  0  0  0
   54.7302   52.1720   55.1215 C   0  0  0  0  0  0  0  0  0  0  0  0
   56.2119   52.2966   55.2086 C   0  0  2  0  0  0  0  0  0  0  0  0
   56.6708   52.2721   56.6763 C   0  0  0  0  0  0  0  0  0  0  0  0
   56.7701   53.4325   54.4774 C   0  0  0  0  0  0  0  0  0  0  0  0
   58.2439   53.5274   54.3427 C   0  0  2  0  0  0  0  0  0  0  0  0
   58.5512   53.1862   52.9016 N   0  0  0  0  0  0  0  0  0  0  0  0
   59.1161   52.6436   55.0955 C   0  0  0  0  0  0  0  0  0  0  0  0
   59.4856   51.4998   54.6684 O   0  0  0  0  0  0  0  0  0  0  0  0
   59.6141   52.9967   56.3311 O   0  0  0  0  0  0  0  0  0  0  0  0
  2  3  1  0
  2  1  1  6
  4  5  1  0
  4  3  1  0
  5  9  1  0
  6  5  2  0
  7  2  1  0
  8  7  2  0
 10  7  1  0
 11 10  1  0
 12 13  1  0
 11 12  1  6
 13 14  2  0
 14 15  1  0
 16 15  2  0
 17 16  1  0
 18 17  2  0
 18 13  1  0
 19 11  1  0
 19 20  2  0
 22 21  1  1
 22 23  1  0
 25 24  1  1
 24 22  1  0
 25 26  1  0
 26 19  1  0
 27 25  1  0
 28 27  2  0
 29 27  1  0
M  END
$$$$
