EFL.pdb
     RDKit          3D

 29 29  0  0  1  0  0  0  0  0999 V2000
   30.6223  -22.7188  -10.7642 N   0  0  0  0  0  0  0  0  0  0  0  0
   30.2945  -21.3632  -10.3951 C   0  0  1  0  0  0  0  0  0  0  0  0
   30.3995  -20.3896  -11.5338 C   0  0  0  0  0  0  0  0  0  0  0  0
   30.1104  -21.0086  -12.8890 C   0  0  0  0  0  0  0  0  0  0  0  0
   29.1159  -20.1653  -13.5836 C   0  0  0  0  0  0  0  0  0  0  0  0
   28.8996  -19.0009  -13.1757 O   0  0  0  0  0  0  0  0  0  0  0  0
   28.8444  -21.3676   -9.9893 C   0  0  0  0  0  0  0  0  0  0  0  0
   28.1674  -22.3691  -10.3207 O   0  0  0  0  0  0  0  0  0  0  0  0
   28.4178  -20.6328  -14.6775 O   0  0  0  0  0  0  0  0  0  0  0  0
   28.2746  -20.2939   -9.2682 N   0  0  0  0  0  0  0  0  0  0  0  0
   26.9291  -20.3664   -8.7842 C   0  0  1  0  0  0  0  0  0  0  0  0
   26.7019  -19.3764   -7.6639 C   0  0  0  0  0  0  0  0  0  0  0  0
   27.4973  -19.6199   -6.4572 C   0  0  0  0  0  0  0  0  0  0  0  0
   27.3386  -20.8174   -5.7819 C   0  0  0  0  0  0  0  0  0  0  0  0
   28.1093  -21.0331   -4.6657 C   0  0  0  0  0  0  0  0  0  0  0  0
   29.0119  -20.0794   -4.2379 C   0  0  0  0  0  0  0  0  0  0  0  0
   29.1628  -18.8822   -4.9227 C   0  0  0  0  0  0  0  0  0  0  0  0
   28.3909  -18.6589   -6.0461 C   0  0  0  0  0  0  0  0  0  0  0  0
   26.0020  -20.0630   -9.8995 C   0  0  0  0  0  0  0  0  0  0  0  0
   26.3916  -19.3897  -10.9045 O   0  0  0  0  0  0  0  0  0  0  0  0
   22.4898  -22.2543  -13.2646 C   0  0  0  0  0  0  0  0  0  0  0  0
   23.9130  -21.8194  -13.3253 C   0  0  2  0  0  0  0  0  0  0  0  0
   24.7478  -22.8154  -14.1479 C   0  0  0  0  0  0  0  0  0  0  0  0
   24.5183  -21.5379  -12.0250 C   0  0  0  0  0  0  0  0  0  0  0  0
   23.8897  -20.5070  -11.1641 C   0  0  2  0  0  0  0  0  0  0  0  0
   24.6736  -20.5128   -9.8707 N   0  0  0  0  0  0  0  0  0  0  0  0
   22.5115  -20.6447  -10.7278 C   0  0  0  0  0  0  0  0  0  0  0  0
   21.5216  -20.1937  -11.3940 O   0  0  0  0  0  0  0  0  0  0  0  0
   22.1836  -21.2903   -9.5553 O   0  0  0  0  0  0  0  0  0  0  0  0
  2  3  1  0
  2  1  1  6
  4  5  1  0
  4  3  1  0
  5  9  1  0
  6  5  2  0
  7  2  1  0
  8  7  2  0
 10  7  1  0
 11 10  1  0
 12 13  1  0
 11 12  1  1
 13 14  2  0
 14 15  1  0
 16 15  2  0
 17 16  1  0
 18 17  2  0
 18 13  1  0
 19 11  1  0
 19 20  2  0
 22 21  1  1
 22 23  1  0
 25 24  1  6
 24 22  1  0
 25 26  1  0
 26 19  1  0
 27 25  1  0
 28 27  2  0
 29 27  1  0
M  END
$$$$
