EFL.pdb
     RDKit          3D

 29 29  0  0  1  0  0  0  0  0999 V2000
   25.5124  -14.1898  -19.4385 N   0  0  0  0  0  0  0  0  0  0  0  0
   24.7812  -12.9630  -19.6427 C   0  0  1  0  0  0  0  0  0  0  0  0
   23.3292  -13.1764  -19.9620 C   0  0  0  0  0  0  0  0  0  0  0  0
   22.6704  -14.2417  -19.1052 C   0  0  0  0  0  0  0  0  0  0  0  0
   21.2619  -14.3759  -19.5301 C   0  0  0  0  0  0  0  0  0  0  0  0
   20.3812  -13.6733  -18.9826 O   0  0  0  0  0  0  0  0  0  0  0  0
   24.8101  -12.2230  -18.3315 C   0  0  0  0  0  0  0  0  0  0  0  0
   24.9856  -12.9101  -17.2980 O   0  0  0  0  0  0  0  0  0  0  0  0
   20.8929  -15.2604  -20.5221 O   0  0  0  0  0  0  0  0  0  0  0  0
   24.6481  -10.8204  -18.2698 N   0  0  0  0  0  0  0  0  0  0  0  0
   24.8305  -10.1136  -17.0381 C   0  0  1  0  0  0  0  0  0  0  0  0
   25.8490   -9.0066  -17.1941 C   0  0  0  0  0  0  0  0  0  0  0  0
   27.2071   -9.4598  -17.5072 C   0  0  0  0  0  0  0  0  0  0  0  0
   28.0280   -9.8764  -16.4738 C   0  0  0  0  0  0  0  0  0  0  0  0
   29.2893  -10.3169  -16.7923 C   0  0  0  0  0  0  0  0  0  0  0  0
   29.7165  -10.3402  -18.1053 C   0  0  0  0  0  0  0  0  0  0  0  0
   28.8850   -9.9202  -19.1336 C   0  0  0  0  0  0  0  0  0  0  0  0
   27.6153   -9.4761  -18.8202 C   0  0  0  0  0  0  0  0  0  0  0  0
   23.5333   -9.5290  -16.6247 C   0  0  0  0  0  0  0  0  0  0  0  0
   22.6901   -9.1383  -17.4916 O   0  0  0  0  0  0  0  0  0  0  0  0
   20.3081   -8.9861  -11.4127 C   0  0  0  0  0  0  0  0  0  0  0  0
   20.3536   -8.7626  -12.8846 C   0  0  2  0  0  0  0  0  0  0  0  0
   19.0728   -9.2921  -13.5514 C   0  0  0  0  0  0  0  0  0  0  0  0
   21.5608   -9.2645  -13.5384 C   0  0  0  0  0  0  0  0  0  0  0  0
   21.8656   -8.7936  -14.9111 C   0  0  2  0  0  0  0  0  0  0  0  0
   23.2073   -9.3943  -15.2670 N   0  0  0  0  0  0  0  0  0  0  0  0
   22.0414   -7.3791  -15.1883 C   0  0  0  0  0  0  0  0  0  0  0  0
   21.1409   -6.6589  -15.7338 O   0  0  0  0  0  0  0  0  0  0  0  0
   23.2052   -6.7162  -14.8638 O   0  0  0  0  0  0  0  0  0  0  0  0
  2  3  1  0
  2  1  1  1
  4  5  1  0
  4  3  1  0
  5  9  1  0
  6  5  2  0
  7  2  1  0
  8  7  2  0
 10  7  1  0
 11 10  1  0
 12 13  1  0
 11 12  1  6
 13 14  2  0
 14 15  1  0
 16 15  2  0
 17 16  1  0
 18 17  2  0
 18 13  1  0
 19 11  1  0
 19 20  2  0
 22 21  1  1
 22 23  1  0
 25 24  1  1
 24 22  1  0
 25 26  1  0
 26 19  1  0
 27 25  1  0
 28 27  2  0
 29 27  1  0
M  END
$$$$
