EFL.pdb
     RDKit          3D

 29 29  0  0  1  0  0  0  0  0999 V2000
   16.1709  -19.9978    1.9342 N   0  0  0  0  0  0  0  0  0  0  0  0
   15.7174  -19.3880    3.1605 C   0  0  1  0  0  0  0  0  0  0  0  0
   15.5428  -20.3655    4.2873 C   0  0  0  0  0  0  0  0  0  0  0  0
   14.3540  -21.2916    4.1074 C   0  0  0  0  0  0  0  0  0  0  0  0
   14.2237  -22.1232    5.3215 C   0  0  0  0  0  0  0  0  0  0  0  0
   14.1306  -23.3676    5.2118 O   0  0  0  0  0  0  0  0  0  0  0  0
   16.8061  -18.4446    3.5988 C   0  0  0  0  0  0  0  0  0  0  0  0
   17.9663  -18.6926    3.1943 O   0  0  0  0  0  0  0  0  0  0  0  0
   14.2037  -21.5580    6.5796 O   0  0  0  0  0  0  0  0  0  0  0  0
   16.5322  -17.3318    4.4259 N   0  0  0  0  0  0  0  0  0  0  0  0
   17.5752  -16.4311    4.8143 C   0  0  1  0  0  0  0  0  0  0  0  0
   17.0423  -15.0263    4.9859 C   0  0  0  0  0  0  0  0  0  0  0  0
   18.0449  -14.0317    5.3779 C   0  0  0  0  0  0  0  0  0  0  0  0
   18.2174  -13.7498    6.7218 C   0  0  0  0  0  0  0  0  0  0  0  0
   19.1769  -12.8300    7.0677 C   0  0  0  0  0  0  0  0  0  0  0  0
   19.9411  -12.2109    6.0983 C   0  0  0  0  0  0  0  0  0  0  0  0
   19.7596  -12.5012    4.7537 C   0  0  0  0  0  0  0  0  0  0  0  0
   18.7965  -13.4254    4.3989 C   0  0  0  0  0  0  0  0  0  0  0  0
   18.1544  -16.8937    6.0973 C   0  0  0  0  0  0  0  0  0  0  0  0
   17.4237  -17.4420    6.9808 O   0  0  0  0  0  0  0  0  0  0  0  0
   22.4421  -18.9188    9.2686 C   0  0  0  0  0  0  0  0  0  0  0  0
   21.3994  -19.3339    8.2893 C   0  0  2  0  0  0  0  0  0  0  0  0
   21.7762  -20.6733    7.6340 C   0  0  0  0  0  0  0  0  0  0  0  0
   21.0562  -18.3153    7.2987 C   0  0  0  0  0  0  0  0  0  0  0  0
   20.0617  -17.2796    7.6695 C   0  0  2  0  0  0  0  0  0  0  0  0
   19.5225  -16.7370    6.3647 N   0  0  0  0  0  0  0  0  0  0  0  0
   20.4666  -16.0875    8.3929 C   0  0  0  0  0  0  0  0  0  0  0  0
   20.7017  -14.9718    7.8211 O   0  0  0  0  0  0  0  0  0  0  0  0
   20.6132  -16.0861    9.7633 O   0  0  0  0  0  0  0  0  0  0  0  0
  2  3  1  0
  2  1  1  6
  4  5  1  0
  4  3  1  0
  5  9  1  0
  6  5  2  0
  7  2  1  0
  8  7  2  0
 10  7  1  0
 11 10  1  0
 12 13  1  0
 11 12  1  1
 13 14  2  0
 14 15  1  0
 16 15  2  0
 17 16  1  0
 18 17  2  0
 18 13  1  0
 19 11  1  0
 19 20  2  0
 22 21  1  6
 22 23  1  0
 25 24  1  6
 24 22  1  0
 25 26  1  0
 26 19  1  0
 27 25  1  0
 28 27  2  0
 29 27  1  0
M  END
$$$$
