EFL.pdb
     RDKit          3D

 29 29  0  0  1  0  0  0  0  0999 V2000
   27.6081  -22.2377  -17.5297 N   0  0  0  0  0  0  0  0  0  0  0  0
   27.4993  -20.9835  -16.8253 C   0  0  1  0  0  0  0  0  0  0  0  0
   26.7007  -19.9481  -17.5641 C   0  0  0  0  0  0  0  0  0  0  0  0
   27.5317  -19.1069  -18.5154 C   0  0  0  0  0  0  0  0  0  0  0  0
   28.3606  -20.0135  -19.3361 C   0  0  0  0  0  0  0  0  0  0  0  0
   29.5641  -20.1911  -19.0376 O   0  0  0  0  0  0  0  0  0  0  0  0
   26.7348  -21.2672  -15.5593 C   0  0  0  0  0  0  0  0  0  0  0  0
   25.7696  -22.0620  -15.6476 O   0  0  0  0  0  0  0  0  0  0  0  0
   27.8364  -20.6736  -20.4279 O   0  0  0  0  0  0  0  0  0  0  0  0
   27.0897  -20.6665  -14.3303 N   0  0  0  0  0  0  0  0  0  0  0  0
   26.3483  -20.9425  -13.1369 C   0  0  1  0  0  0  0  0  0  0  0  0
   27.0612  -20.4006  -11.9183 C   0  0  0  0  0  0  0  0  0  0  0  0
   26.3056  -20.5043  -10.6668 C   0  0  0  0  0  0  0  0  0  0  0  0
   25.9981  -21.7602  -10.1733 C   0  0  0  0  0  0  0  0  0  0  0  0
   25.3077  -21.8340   -8.9883 C   0  0  0  0  0  0  0  0  0  0  0  0
   24.9362  -20.6859   -8.3169 C   0  0  0  0  0  0  0  0  0  0  0  0
   25.2499  -19.4317   -8.8208 C   0  0  0  0  0  0  0  0  0  0  0  0
   25.9442  -19.3504  -10.0121 C   0  0  0  0  0  0  0  0  0  0  0  0
   25.0139  -20.3075  -13.2445 C   0  0  0  0  0  0  0  0  0  0  0  0
   24.8885  -19.1319  -13.7108 O   0  0  0  0  0  0  0  0  0  0  0  0
   19.8414  -20.3922  -14.4762 C   0  0  0  0  0  0  0  0  0  0  0  0
   21.0560  -19.7160  -15.0110 C   0  0  2  0  0  0  0  0  0  0  0  0
   21.0183  -19.6738  -16.5480 C   0  0  0  0  0  0  0  0  0  0  0  0
   22.3201  -20.2496  -14.5071 C   0  0  0  0  0  0  0  0  0  0  0  0
   22.5206  -20.3169  -13.0394 C   0  0  2  0  0  0  0  0  0  0  0  0
   23.8593  -20.9904  -12.8344 N   0  0  0  0  0  0  0  0  0  0  0  0
   21.6193  -21.0883  -12.2020 C   0  0  0  0  0  0  0  0  0  0  0  0
   21.7370  -22.3462  -12.0262 O   0  0  0  0  0  0  0  0  0  0  0  0
   20.5727  -20.4975  -11.5275 O   0  0  0  0  0  0  0  0  0  0  0  0
  2  3  1  0
  2  1  1  6
  4  5  1  0
  4  3  1  0
  5  9  1  0
  6  5  2  0
  7  2  1  0
  8  7  2  0
 10  7  1  0
 11 10  1  0
 12 13  1  0
 11 12  1  1
 13 14  2  0
 14 15  1  0
 16 15  2  0
 17 16  1  0
 18 17  2  0
 18 13  1  0
 19 11  1  0
 19 20  2  0
 22 21  1  6
 22 23  1  0
 25 24  1  6
 24 22  1  0
 25 26  1  0
 26 19  1  0
 27 25  1  0
 28 27  2  0
 29 27  1  0
M  END
$$$$
