EFL.pdb
     RDKit          3D

 29 29  0  0  1  0  0  0  0  0999 V2000
   28.5250  -22.3206  -17.7895 N   0  0  0  0  0  0  0  0  0  0  0  0
   27.2526  -22.4202  -17.1169 C   0  0  1  0  0  0  0  0  0  0  0  0
   27.0028  -23.7679  -16.5028 C   0  0  0  0  0  0  0  0  0  0  0  0
   27.2234  -24.9219  -17.4635 C   0  0  0  0  0  0  0  0  0  0  0  0
   26.7994  -26.1702  -16.7969 C   0  0  0  0  0  0  0  0  0  0  0  0
   26.4080  -26.1342  -15.6076 O   0  0  0  0  0  0  0  0  0  0  0  0
   27.2967  -21.4464  -15.9691 C   0  0  0  0  0  0  0  0  0  0  0  0
   28.4310  -21.0825  -15.5793 O   0  0  0  0  0  0  0  0  0  0  0  0
   26.8232  -27.3805  -17.4583 O   0  0  0  0  0  0  0  0  0  0  0  0
   26.1150  -20.9652  -15.3613 N   0  0  0  0  0  0  0  0  0  0  0  0
   26.1721  -19.9872  -14.3172 C   0  0  1  0  0  0  0  0  0  0  0  0
   25.3319  -18.7776  -14.6610 C   0  0  0  0  0  0  0  0  0  0  0  0
   25.9707  -17.8237  -15.5720 C   0  0  0  0  0  0  0  0  0  0  0  0
   25.6525  -17.8688  -16.9182 C   0  0  0  0  0  0  0  0  0  0  0  0
   26.2468  -16.9520  -17.7503 C   0  0  0  0  0  0  0  0  0  0  0  0
   27.1329  -16.0179  -17.2508 C   0  0  0  0  0  0  0  0  0  0  0  0
   27.4447  -15.9818  -15.8993 C   0  0  0  0  0  0  0  0  0  0  0  0
   26.8503  -16.9009  -15.0568 C   0  0  0  0  0  0  0  0  0  0  0  0
   25.6648  -20.5939  -13.0643 C   0  0  0  0  0  0  0  0  0  0  0  0
   24.7554  -21.4813  -13.0928 O   0  0  0  0  0  0  0  0  0  0  0  0
   24.6459  -20.3737   -7.7549 C   0  0  0  0  0  0  0  0  0  0  0  0
   26.0511  -20.7367   -8.0902 C   0  0  2  0  0  0  0  0  0  0  0  0
   27.0208  -20.1708   -7.0391 C   0  0  0  0  0  0  0  0  0  0  0  0
   26.4579  -20.3966   -9.4523 C   0  0  0  0  0  0  0  0  0  0  0  0
   25.5960  -20.8379  -10.5754 C   0  0  2  0  0  0  0  0  0  0  0  0
   26.1776  -20.2025  -11.8187 N   0  0  0  0  0  0  0  0  0  0  0  0
   24.1938  -20.4639  -10.6258 C   0  0  0  0  0  0  0  0  0  0  0  0
   23.7889  -19.3358  -11.0625 O   0  0  0  0  0  0  0  0  0  0  0  0
   23.1994  -21.3221  -10.2087 O   0  0  0  0  0  0  0  0  0  0  0  0
  2  3  1  0
  2  1  1  1
  4  5  1  0
  4  3  1  0
  5  9  1  0
  6  5  2  0
  7  2  1  0
  8  7  2  0
 10  7  1  0
 11 10  1  0
 12 13  1  0
 11 12  1  6
 13 14  2  0
 14 15  1  0
 16 15  2  0
 17 16  1  0
 18 17  2  0
 18 13  1  0
 19 11  1  0
 19 20  2  0
 22 21  1  1
 22 23  1  0
 25 24  1  1
 24 22  1  0
 25 26  1  0
 26 19  1  0
 27 25  1  0
 28 27  2  0
 29 27  1  0
M  END
$$$$
