EFL.pdb
     RDKit          3D

 29 29  0  0  1  0  0  0  0  0999 V2000
   18.8097  -13.1211  -18.1335 N   0  0  0  0  0  0  0  0  0  0  0  0
   19.4777  -11.9034  -18.5239 C   0  0  1  0  0  0  0  0  0  0  0  0
   18.7714  -11.1567  -19.6190 C   0  0  0  0  0  0  0  0  0  0  0  0
   18.9503  -11.7804  -20.9909 C   0  0  0  0  0  0  0  0  0  0  0  0
   20.3524  -11.5839  -21.4127 C   0  0  0  0  0  0  0  0  0  0  0  0
   21.1233  -12.5692  -21.4754 O   0  0  0  0  0  0  0  0  0  0  0  0
   19.4513  -10.9954  -17.3229 C   0  0  0  0  0  0  0  0  0  0  0  0
   18.4661  -11.1013  -16.5554 O   0  0  0  0  0  0  0  0  0  0  0  0
   20.8340  -10.3341  -21.7422 O   0  0  0  0  0  0  0  0  0  0  0  0
   20.4889  -10.0690  -17.0729 N   0  0  0  0  0  0  0  0  0  0  0  0
   20.3908   -9.1293  -15.9972 C   0  0  1  0  0  0  0  0  0  0  0  0
   21.7552   -8.8154  -15.4254 C   0  0  0  0  0  0  0  0  0  0  0  0
   21.7605   -7.8000  -14.3685 C   0  0  0  0  0  0  0  0  0  0  0  0
   22.0150   -6.4827  -14.7080 C   0  0  0  0  0  0  0  0  0  0  0  0
   21.9942   -5.5448  -13.7049 C   0  0  0  0  0  0  0  0  0  0  0  0
   21.7266   -5.9136  -12.4012 C   0  0  0  0  0  0  0  0  0  0  0  0
   21.4727   -7.2374  -12.0722 C   0  0  0  0  0  0  0  0  0  0  0  0
   21.4919   -8.1856  -13.0763 C   0  0  0  0  0  0  0  0  0  0  0  0
   19.7757   -7.8811  -16.5062 C   0  0  0  0  0  0  0  0  0  0  0  0
   20.0740   -7.4310  -17.6567 O   0  0  0  0  0  0  0  0  0  0  0  0
   16.0881   -3.8314  -16.7635 C   0  0  0  0  0  0  0  0  0  0  0  0
   16.3232   -5.0620  -17.5691 C   0  0  2  0  0  0  0  0  0  0  0  0
   15.0129   -5.5441  -18.2141 C   0  0  0  0  0  0  0  0  0  0  0  0
   17.0101   -6.1351  -16.8527 C   0  0  0  0  0  0  0  0  0  0  0  0
   18.3389   -5.8480  -16.2602 C   0  0  2  0  0  0  0  0  0  0  0  0
   18.8501   -7.1688  -15.7293 N   0  0  0  0  0  0  0  0  0  0  0  0
   18.4669   -4.9519  -15.1248 C   0  0  0  0  0  0  0  0  0  0  0  0
   18.0874   -5.2613  -13.9469 O   0  0  0  0  0  0  0  0  0  0  0  0
   19.0246   -3.6979  -15.2505 O   0  0  0  0  0  0  0  0  0  0  0  0
  2  3  1  0
  2  1  1  1
  4  5  1  0
  4  3  1  0
  5  9  1  0
  6  5  2  0
  7  2  1  0
  8  7  2  0
 10  7  1  0
 11 10  1  0
 12 13  1  0
 11 12  1  6
 13 14  2  0
 14 15  1  0
 16 15  2  0
 17 16  1  0
 18 17  2  0
 18 13  1  0
 19 11  1  0
 19 20  2  0
 22 21  1  1
 22 23  1  0
 25 24  1  1
 24 22  1  0
 25 26  1  0
 26 19  1  0
 27 25  1  0
 28 27  2  0
 29 27  1  0
M  END
$$$$
