DCS.pdb
     RDKit          3D

 21 20  0  0  1  0  0  0  0  0999 V2000
   11.8589  -16.6877   19.9643 N   0  0  0  0  0  0  0  0  0  0  0  0
   11.7196  -17.3789   21.2278 C   0  0  1  0  0  0  0  0  0  0  0  0
   13.0328  -18.0431   21.6054 C   0  0  0  0  0  0  0  0  0  0  0  0
   13.2122  -19.2500   20.7788 C   0  0  0  0  0  0  0  0  0  0  0  0
   14.0605  -19.2663   19.8238 O   0  0  0  0  0  0  0  0  0  0  0  0
   11.2972  -16.3927   22.2472 C   0  0  0  0  0  0  0  0  0  0  0  0
   11.9169  -15.3066   22.3451 O   0  0  0  0  0  0  0  0  0  0  0  0
   12.5007  -20.4197   20.9655 O   0  0  0  0  0  0  0  0  0  0  0  0
   10.2223  -16.5953   23.1352 N   0  0  0  0  0  0  0  0  0  0  0  0
    9.7236  -15.5907   24.0711 C   0  0  1  0  0  0  0  0  0  0  0  0
    8.2126  -15.6454   23.9362 C   0  0  0  0  0  0  0  0  0  0  0  0
    7.3451  -14.6230   25.1218 S   0  0  0  0  0  0  0  0  0  0  0  0
   10.2158  -15.8336   25.4279 C   0  0  0  0  0  0  0  0  0  0  0  0
   10.3629  -17.0509   25.7930 O   0  0  0  0  0  0  0  0  0  0  0  0
   11.2351  -14.1562   29.8828 O   0  0  0  0  0  0  0  0  0  0  0  0
   10.8011  -13.9354   28.5836 C   0  0  0  0  0  0  0  0  0  0  0  0
   10.9969  -15.1933   27.7270 C   0  0  2  0  0  0  0  0  0  0  0  0
   10.5494  -14.8719   26.3857 N   0  0  0  0  0  0  0  0  0  0  0  0
   10.1125  -16.2436   28.3383 C   0  0  0  0  0  0  0  0  0  0  0  0
    8.8470  -16.4677   27.8170 O   0  0  0  0  0  0  0  0  0  0  0  0
   10.4704  -16.9377   29.3127 O   0  0  0  0  0  0  0  0  0  0  0  0
  2  1  1  6
  3  2  1  0
  3  4  1  0
  4  5  2  0
  4  8  1  0
  6  2  1  0
  7  6  2  0
  9  6  1  0
 10 13  1  0
 10  9  1  0
 10 11  1  1
 12 11  1  0
 13 18  1  0
 14 13  2  0
 16 15  1  0
 17 16  1  1
 17 19  1  0
 18 17  1  0
 19 21  2  0
 19 20  1  0
M  END
$$$$
