DCS.pdb
     RDKit          3D

 21 20  0  0  1  0  0  0  0  0999 V2000
   14.1618  -18.2910   16.9771 N   0  0  0  0  0  0  0  0  0  0  0  0
   15.3726  -18.4922   17.7434 C   0  0  1  0  0  0  0  0  0  0  0  0
   16.5836  -18.0898   16.9190 C   0  0  0  0  0  0  0  0  0  0  0  0
   16.6842  -18.9833   15.7512 C   0  0  0  0  0  0  0  0  0  0  0  0
   16.6352  -20.2517   15.8942 O   0  0  0  0  0  0  0  0  0  0  0  0
   15.2700  -17.6915   18.9839 C   0  0  0  0  0  0  0  0  0  0  0  0
   15.0379  -16.4615   18.9036 O   0  0  0  0  0  0  0  0  0  0  0  0
   16.8345  -18.5340   14.4532 O   0  0  0  0  0  0  0  0  0  0  0  0
   15.4186  -18.2289   20.2777 N   0  0  0  0  0  0  0  0  0  0  0  0
   15.3656  -17.4444   21.5089 C   0  0  1  0  0  0  0  0  0  0  0  0
   13.9804  -17.6978   22.0757 C   0  0  0  0  0  0  0  0  0  0  0  0
   13.6780  -16.8756   23.6364 S   0  0  0  0  0  0  0  0  0  0  0  0
   16.4600  -17.7969   22.4145 C   0  0  0  0  0  0  0  0  0  0  0  0
   16.6022  -19.0323   22.7152 O   0  0  0  0  0  0  0  0  0  0  0  0
   20.0374  -16.0037   22.7381 O   0  0  0  0  0  0  0  0  0  0  0  0
   19.4564  -16.2133   23.9805 C   0  0  0  0  0  0  0  0  0  0  0  0
   18.4260  -17.3481   23.9110 C   0  0  2  0  0  0  0  0  0  0  0  0
   17.3829  -16.9239   22.9974 N   0  0  0  0  0  0  0  0  0  0  0  0
   17.8795  -17.4875   25.3041 C   0  0  0  0  0  0  0  0  0  0  0  0
   18.6687  -18.0391   26.3022 O   0  0  0  0  0  0  0  0  0  0  0  0
   16.7253  -17.1226   25.6114 O   0  0  0  0  0  0  0  0  0  0  0  0
  2  1  1  6
  3  2  1  0
  3  4  1  0
  4  5  2  0
  4  8  1  0
  6  2  1  0
  7  6  2  0
  9  6  1  0
 10 13  1  0
 10  9  1  0
 10 11  1  1
 12 11  1  0
 13 18  1  0
 14 13  2  0
 16 15  1  0
 17 16  1  1
 17 19  1  0
 18 17  1  0
 19 21  2  0
 19 20  1  0
M  END
$$$$
