DCS.pdb
     RDKit          3D

 21 20  0  0  1  0  0  0  0  0999 V2000
    8.3398  -16.7505   17.3517 N   0  0  0  0  0  0  0  0  0  0  0  0
    9.2375  -17.5473   18.1596 C   0  0  1  0  0  0  0  0  0  0  0  0
   10.3839  -18.0653   17.3076 C   0  0  0  0  0  0  0  0  0  0  0  0
    9.8351  -18.9090   16.2311 C   0  0  0  0  0  0  0  0  0  0  0  0
    9.1811  -19.9717   16.5044 O   0  0  0  0  0  0  0  0  0  0  0  0
    9.7266  -16.7028   19.2723 C   0  0  0  0  0  0  0  0  0  0  0  0
   10.8570  -16.1663   19.1853 O   0  0  0  0  0  0  0  0  0  0  0  0
    9.9800  -18.6262   14.8863 O   0  0  0  0  0  0  0  0  0  0  0  0
    8.9924  -16.4550   20.4489 N   0  0  0  0  0  0  0  0  0  0  0  0
    9.4690  -15.6398   21.5634 C   0  0  1  0  0  0  0  0  0  0  0  0
    8.2144  -15.2271   22.3117 C   0  0  0  0  0  0  0  0  0  0  0  0
    8.5196  -14.6933   23.9925 S   0  0  0  0  0  0  0  0  0  0  0  0
   10.4439  -16.3664   22.3782 C   0  0  0  0  0  0  0  0  0  0  0  0
   10.2171  -17.6049   22.6049 O   0  0  0  0  0  0  0  0  0  0  0  0
   14.8442  -16.5486   24.4602 O   0  0  0  0  0  0  0  0  0  0  0  0
   13.8743  -15.8470   23.7587 C   0  0  0  0  0  0  0  0  0  0  0  0
   12.5749  -16.6587   23.6742 C   0  0  2  0  0  0  0  0  0  0  0  0
   11.6137  -15.8535   22.9457 N   0  0  0  0  0  0  0  0  0  0  0  0
   12.1253  -16.8562   25.0946 C   0  0  0  0  0  0  0  0  0  0  0  0
   12.7334  -17.8225   25.8821 O   0  0  0  0  0  0  0  0  0  0  0  0
   11.2120  -16.1779   25.6095 O   0  0  0  0  0  0  0  0  0  0  0  0
  2  1  1  6
  3  2  1  0
  3  4  1  0
  4  5  2  0
  4  8  1  0
  6  2  1  0
  7  6  2  0
  9  6  1  0
 10 13  1  0
 10  9  1  0
 10 11  1  1
 12 11  1  0
 13 18  1  0
 14 13  2  0
 16 15  1  0
 17 16  1  1
 17 19  1  0
 18 17  1  0
 19 21  2  0
 19 20  1  0
M  END
$$$$
