DCS.pdb
     RDKit          3D

 21 20  0  0  1  0  0  0  0  0999 V2000
   -4.4947  -25.6522   26.4364 N   0  0  0  0  0  0  0  0  0  0  0  0
   -3.6293  -25.6087   27.5952 C   0  0  1  0  0  0  0  0  0  0  0  0
   -2.3147  -24.9359   27.2384 C   0  0  0  0  0  0  0  0  0  0  0  0
   -1.6166  -25.7558   26.2322 C   0  0  0  0  0  0  0  0  0  0  0  0
   -0.8698  -25.2107   25.3507 O   0  0  0  0  0  0  0  0  0  0  0  0
   -4.3377  -24.8797   28.6709 C   0  0  0  0  0  0  0  0  0  0  0  0
   -3.7523  -24.6710   29.7603 O   0  0  0  0  0  0  0  0  0  0  0  0
   -1.7117  -27.1327   26.1656 O   0  0  0  0  0  0  0  0  0  0  0  0
   -5.6546  -24.3934   28.5518 N   0  0  0  0  0  0  0  0  0  0  0  0
   -6.4088  -23.7767   29.6403 C   0  0  1  0  0  0  0  0  0  0  0  0
   -6.7429  -22.3815   29.1442 C   0  0  0  0  0  0  0  0  0  0  0  0
   -7.8730  -21.4892   30.2073 S   0  0  0  0  0  0  0  0  0  0  0  0
   -7.5760  -24.5813   30.0044 C   0  0  0  0  0  0  0  0  0  0  0  0
   -8.4048  -24.8730   29.0745 O   0  0  0  0  0  0  0  0  0  0  0  0
   -8.1246  -25.9658   33.7672 O   0  0  0  0  0  0  0  0  0  0  0  0
   -8.6778  -26.7717   32.7825 C   0  0  0  0  0  0  0  0  0  0  0  0
   -9.0244  -25.9438   31.5380 C   0  0  2  0  0  0  0  0  0  0  0  0
   -7.8934  -25.0758   31.2725 N   0  0  0  0  0  0  0  0  0  0  0  0
  -10.2327  -25.1323   31.9126 C   0  0  0  0  0  0  0  0  0  0  0  0
  -11.4250  -25.7718   32.2174 O   0  0  0  0  0  0  0  0  0  0  0  0
  -10.2134  -23.8847   31.9632 O   0  0  0  0  0  0  0  0  0  0  0  0
  2  1  1  6
  3  2  1  0
  3  4  1  0
  4  5  2  0
  4  8  1  0
  6  2  1  0
  7  6  2  0
  9  6  1  0
 10 13  1  0
 10  9  1  0
 10 11  1  6
 12 11  1  0
 13 18  1  0
 14 13  2  0
 16 15  1  0
 17 16  1  1
 17 19  1  0
 18 17  1  0
 19 21  2  0
 19 20  1  0
M  END
$$$$
