DCS.pdb
     RDKit          3D

 21 20  0  0  1  0  0  0  0  0999 V2000
   10.5988  -15.6831   21.2699 N   0  0  0  0  0  0  0  0  0  0  0  0
    9.6649  -16.1768   22.2587 C   0  0  1  0  0  0  0  0  0  0  0  0
    9.3506  -17.6394   21.9936 C   0  0  0  0  0  0  0  0  0  0  0  0
    8.5811  -17.7428   20.7410 C   0  0  0  0  0  0  0  0  0  0  0  0
    7.3263  -17.9812   20.7640 O   0  0  0  0  0  0  0  0  0  0  0  0
   10.2678  -15.9849   23.5966 C   0  0  0  0  0  0  0  0  0  0  0  0
   11.5114  -16.0793   23.7292 O   0  0  0  0  0  0  0  0  0  0  0  0
    9.1379  -17.5951   19.4850 O   0  0  0  0  0  0  0  0  0  0  0  0
    9.5231  -15.6971   24.7575 N   0  0  0  0  0  0  0  0  0  0  0  0
   10.1031  -15.5072   26.0847 C   0  0  1  0  0  0  0  0  0  0  0  0
    9.3520  -14.3278   26.6754 C   0  0  0  0  0  0  0  0  0  0  0  0
    9.8698  -13.9006   28.3346 S   0  0  0  0  0  0  0  0  0  0  0  0
   10.0237  -16.7317   26.8825 C   0  0  0  0  0  0  0  0  0  0  0  0
    8.8708  -17.2668   27.0288 O   0  0  0  0  0  0  0  0  0  0  0  0
   13.2723  -18.8187   27.9622 O   0  0  0  0  0  0  0  0  0  0  0  0
   12.0762  -19.5185   28.0306 C   0  0  0  0  0  0  0  0  0  0  0  0
   10.9120  -18.5697   28.3450 C   0  0  2  0  0  0  0  0  0  0  0  0
   11.0808  -17.3943   27.5126 N   0  0  0  0  0  0  0  0  0  0  0  0
   11.0603  -18.2108   29.7969 C   0  0  0  0  0  0  0  0  0  0  0  0
   10.8755  -19.1822   30.7694 O   0  0  0  0  0  0  0  0  0  0  0  0
   11.3476  -17.0564   30.1765 O   0  0  0  0  0  0  0  0  0  0  0  0
  2  1  1  6
  3  2  1  0
  3  4  1  0
  4  5  2  0
  4  8  1  0
  6  2  1  0
  7  6  2  0
  9  6  1  0
 10 13  1  0
 10  9  1  0
 10 11  1  1
 12 11  1  0
 13 18  1  0
 14 13  2  0
 16 15  1  0
 17 16  1  6
 17 19  1  0
 18 17  1  0
 19 21  2  0
 19 20  1  0
M  END
$$$$
