DCS.pdb
     RDKit          3D

 21 20  0  0  1  0  0  0  0  0999 V2000
    8.0160  -16.1719   21.4644 N   0  0  0  0  0  0  0  0  0  0  0  0
    9.4455  -16.3406   21.6124 C   0  0  1  0  0  0  0  0  0  0  0  0
   10.1688  -15.7111   20.4339 C   0  0  0  0  0  0  0  0  0  0  0  0
    9.8000  -16.4362   19.2050 C   0  0  0  0  0  0  0  0  0  0  0  0
   10.1207  -17.6630   19.0502 O   0  0  0  0  0  0  0  0  0  0  0  0
    9.8514  -15.7196   22.8931 C   0  0  0  0  0  0  0  0  0  0  0  0
   11.0661  -15.4928   23.1079 O   0  0  0  0  0  0  0  0  0  0  0  0
    9.1014  -15.8650   18.1585 O   0  0  0  0  0  0  0  0  0  0  0  0
    8.9459  -15.3578   23.9100 N   0  0  0  0  0  0  0  0  0  0  0  0
    9.3383  -14.8779   25.2327 C   0  0  1  0  0  0  0  0  0  0  0  0
    8.3213  -13.8051   25.5779 C   0  0  0  0  0  0  0  0  0  0  0  0
    8.5042  -13.1426   27.2304 S   0  0  0  0  0  0  0  0  0  0  0  0
    9.4080  -15.9742   26.1998 C   0  0  0  0  0  0  0  0  0  0  0  0
    8.3497  -16.6701   26.3801 O   0  0  0  0  0  0  0  0  0  0  0  0
   12.7466  -17.8028   27.1240 O   0  0  0  0  0  0  0  0  0  0  0  0
   11.5693  -18.4554   27.4602 C   0  0  0  0  0  0  0  0  0  0  0  0
   10.5032  -17.4487   27.9123 C   0  0  2  0  0  0  0  0  0  0  0  0
   10.5169  -16.3543   26.9609 N   0  0  0  0  0  0  0  0  0  0  0  0
   10.9430  -16.9717   29.2680 C   0  0  0  0  0  0  0  0  0  0  0  0
   11.0060  -17.8658   30.3263 O   0  0  0  0  0  0  0  0  0  0  0  0
   11.2606  -15.7847   29.4909 O   0  0  0  0  0  0  0  0  0  0  0  0
  2  1  1  6
  3  2  1  0
  3  4  1  0
  4  5  2  0
  4  8  1  0
  6  2  1  0
  7  6  2  0
  9  6  1  0
 10 13  1  0
 10  9  1  0
 10 11  1  1
 12 11  1  0
 13 18  1  0
 14 13  2  0
 16 15  1  0
 17 16  1  6
 17 19  1  0
 18 17  1  0
 19 21  2  0
 19 20  1  0
M  END
$$$$
