DCS.pdb
     RDKit          3D

 21 20  0  0  1  0  0  0  0  0999 V2000
    9.7297  -15.7143   20.6622 N   0  0  0  0  0  0  0  0  0  0  0  0
    8.8554  -16.1336   21.7362 C   0  0  1  0  0  0  0  0  0  0  0  0
    8.6847  -17.6431   21.7093 C   0  0  0  0  0  0  0  0  0  0  0  0
    8.0459  -18.0286   20.4384 C   0  0  0  0  0  0  0  0  0  0  0  0
    6.8687  -17.6244   20.1510 O   0  0  0  0  0  0  0  0  0  0  0  0
    9.4454  -15.6767   23.0142 C   0  0  0  0  0  0  0  0  0  0  0  0
   10.6830  -15.7789   23.1908 O   0  0  0  0  0  0  0  0  0  0  0  0
    8.6501  -18.8309   19.4893 O   0  0  0  0  0  0  0  0  0  0  0  0
    8.6947  -15.1223   24.0697 N   0  0  0  0  0  0  0  0  0  0  0  0
    9.2339  -14.8081   25.3905 C   0  0  1  0  0  0  0  0  0  0  0  0
    8.2595  -13.8065   25.9834 C   0  0  0  0  0  0  0  0  0  0  0  0
    8.6234  -13.3627   27.6787 S   0  0  0  0  0  0  0  0  0  0  0  0
    9.4172  -16.0175   26.1942 C   0  0  0  0  0  0  0  0  0  0  0  0
    8.4793  -16.8874   26.1735 O   0  0  0  0  0  0  0  0  0  0  0  0
   12.0023  -19.5346   27.8773 O   0  0  0  0  0  0  0  0  0  0  0  0
   11.8276  -18.3402   27.1932 C   0  0  0  0  0  0  0  0  0  0  0  0
   10.6300  -17.5643   27.7571 C   0  0  2  0  0  0  0  0  0  0  0  0
   10.5180  -16.3361   26.9943 N   0  0  0  0  0  0  0  0  0  0  0  0
   10.9771  -17.2641   29.1883 C   0  0  0  0  0  0  0  0  0  0  0  0
   11.0687  -18.2989   30.1070 O   0  0  0  0  0  0  0  0  0  0  0  0
   11.1911  -16.1037   29.5973 O   0  0  0  0  0  0  0  0  0  0  0  0
  2  1  1  6
  3  2  1  0
  3  4  1  0
  4  5  2  0
  4  8  1  0
  6  2  1  0
  7  6  2  0
  9  6  1  0
 10 13  1  0
 10  9  1  0
 10 11  1  1
 12 11  1  0
 13 18  1  0
 14 13  2  0
 16 15  1  0
 17 16  1  6
 17 19  1  0
 18 17  1  0
 19 21  2  0
 19 20  1  0
M  END
$$$$
