CAD.pdb
     RDKit          3D

 20 19  0  0  1  0  0  0  0  0999 V2000
   18.5213  -13.0310  -17.3293 N   0  0  0  0  0  0  0  0  0  0  0  0
   19.1829  -11.8156  -17.6287 C   0  0  1  0  0  0  0  0  0  0  0  0
   18.1529  -10.8651  -18.2315 C   0  0  0  0  0  0  0  0  0  0  0  0
   17.8115  -11.3702  -19.9388 S   0  0  0  0  0  0  0  0  0  0  0  0
   19.9638  -11.1880  -16.5718 C   0  0  0  0  0  0  0  0  0  0  0  0
   19.3402  -10.7957  -15.5264 O   0  0  0  0  0  0  0  0  0  0  0  0
   23.4372  -10.6775  -15.3456 C   0  0  0  0  0  0  0  0  0  0  0  0
   21.9893  -10.2225  -15.4759 C   0  0  2  0  0  0  0  0  0  0  0  0
   21.3599  -10.9491  -16.5503 N   0  0  0  0  0  0  0  0  0  0  0  0
   21.9033   -8.7530  -15.6694 C   0  0  0  0  0  0  0  0  0  0  0  0
   21.7428   -8.3224  -16.8377 O   0  0  0  0  0  0  0  0  0  0  0  0
   21.9920   -7.8143  -14.6158 N   0  0  0  0  0  0  0  0  0  0  0  0
   21.8843   -6.3999  -14.7462 C   0  0  1  0  0  0  0  0  0  0  0  0
   20.6357   -5.9128  -15.4227 C   0  0  0  0  0  0  0  0  0  0  0  0
   20.6226   -4.4475  -15.6373 C   0  0  0  0  0  0  0  0  0  0  0  0
   21.7099   -3.8245  -15.5250 O   0  0  0  0  0  0  0  0  0  0  0  0
   22.0512   -5.6759  -13.4648 C   0  0  0  0  0  0  0  0  0  0  0  0
   22.0297   -6.2434  -12.3558 O   0  0  0  0  0  0  0  0  0  0  0  0
   19.4755   -3.7390  -15.9536 O   0  0  0  0  0  0  0  0  0  0  0  0
   22.2416   -4.2821  -13.5302 O   0  0  0  0  0  0  0  0  0  0  0  0
  2  5  1  0
  2  1  1  1
  3  2  1  0
  4  3  1  0
  5  6  2  0
  8  7  1  6
  8 10  1  0
  9  8  1  0
  9  5  1  0
 10 11  2  0
 12 13  1  0
 12 10  1  0
 13 17  1  0
 13 14  1  1
 15 14  1  0
 16 15  2  0
 17 18  2  0
 17 20  1  0
 19 15  1  0
M  END
$$$$
