CAD.pdb
     RDKit          3D

 20 19  0  0  1  0  0  0  0  0999 V2000
   17.8090  -12.0011  -16.6855 N   0  0  0  0  0  0  0  0  0  0  0  0
   18.6795  -10.9924  -17.1643 C   0  0  1  0  0  0  0  0  0  0  0  0
   17.8416  -10.0014  -17.9665 C   0  0  0  0  0  0  0  0  0  0  0  0
   17.4523  -10.7285  -19.5809 S   0  0  0  0  0  0  0  0  0  0  0  0
   19.5485  -10.3306  -16.2012 C   0  0  0  0  0  0  0  0  0  0  0  0
   18.9946   -9.7249  -15.2204 O   0  0  0  0  0  0  0  0  0  0  0  0
   23.1604   -9.9056  -15.2697 C   0  0  0  0  0  0  0  0  0  0  0  0
   21.6951   -9.4898  -15.2415 C   0  0  2  0  0  0  0  0  0  0  0  0
   20.9637  -10.2685  -16.2095 N   0  0  0  0  0  0  0  0  0  0  0  0
   21.5462   -8.0305  -15.4705 C   0  0  0  0  0  0  0  0  0  0  0  0
   21.3427   -7.6377  -16.6454 O   0  0  0  0  0  0  0  0  0  0  0  0
   21.6208   -7.0614  -14.4437 N   0  0  0  0  0  0  0  0  0  0  0  0
   21.5200   -5.6512  -14.6174 C   0  0  1  0  0  0  0  0  0  0  0  0
   20.1575   -5.1492  -14.9989 C   0  0  0  0  0  0  0  0  0  0  0  0
   20.1024   -3.6781  -15.1605 C   0  0  0  0  0  0  0  0  0  0  0  0
   21.1637   -3.0779  -15.4710 O   0  0  0  0  0  0  0  0  0  0  0  0
   22.0091   -4.8778  -13.4525 C   0  0  0  0  0  0  0  0  0  0  0  0
   22.1559   -3.6407  -13.4714 O   0  0  0  0  0  0  0  0  0  0  0  0
   18.9435   -2.9403  -14.9861 O   0  0  0  0  0  0  0  0  0  0  0  0
   22.3153   -5.5977  -12.2815 O   0  0  0  0  0  0  0  0  0  0  0  0
  2  5  1  0
  2  1  1  1
  3  2  1  0
  4  3  1  0
  5  6  2  0
  8  7  1  6
  8 10  1  0
  9  8  1  0
  9  5  1  0
 10 11  2  0
 12 13  1  0
 12 10  1  0
 13 17  1  0
 13 14  1  1
 15 14  1  0
 16 15  2  0
 17 18  2  0
 17 20  1  0
 19 15  1  0
M  END
$$$$
