CAD.pdb
     RDKit          3D

 20 19  0  0  1  0  0  0  0  0999 V2000
   13.6330  -11.6730  -10.7683 N   0  0  0  0  0  0  0  0  0  0  0  0
   14.8609  -11.1731  -10.2712 C   0  0  1  0  0  0  0  0  0  0  0  0
   15.9653  -12.1205  -10.7300 C   0  0  0  0  0  0  0  0  0  0  0  0
   15.8347  -13.6727   -9.8026 S   0  0  0  0  0  0  0  0  0  0  0  0
   15.1835   -9.7777  -10.5342 C   0  0  0  0  0  0  0  0  0  0  0  0
   15.0685   -9.3586  -11.7371 O   0  0  0  0  0  0  0  0  0  0  0  0
   15.8977   -6.5249   -8.8382 C   0  0  0  0  0  0  0  0  0  0  0  0
   15.9986   -7.4725  -10.0267 C   0  0  2  0  0  0  0  0  0  0  0  0
   15.6196   -8.7988   -9.6077 N   0  0  0  0  0  0  0  0  0  0  0  0
   17.3573   -7.4419  -10.6244 C   0  0  0  0  0  0  0  0  0  0  0  0
   18.2118   -8.2488  -10.1829 O   0  0  0  0  0  0  0  0  0  0  0  0
   17.7420   -6.5582  -11.6589 N   0  0  0  0  0  0  0  0  0  0  0  0
   18.9799   -6.5853  -12.3629 C   0  0  1  0  0  0  0  0  0  0  0  0
   19.3158   -7.8943  -13.0169 C   0  0  0  0  0  0  0  0  0  0  0  0
   20.5187   -7.8242  -13.8779 C   0  0  0  0  0  0  0  0  0  0  0  0
   21.4908   -7.1319  -13.4792 O   0  0  0  0  0  0  0  0  0  0  0  0
   19.1130   -5.4999  -13.3622 C   0  0  0  0  0  0  0  0  0  0  0  0
   20.1987   -4.9488  -13.6263 O   0  0  0  0  0  0  0  0  0  0  0  0
   20.6197   -8.4817  -15.0925 O   0  0  0  0  0  0  0  0  0  0  0  0
   17.9433   -5.0905  -14.0310 O   0  0  0  0  0  0  0  0  0  0  0  0
  2  5  1  0
  2  1  1  6
  3  2  1  0
  4  3  1  0
  5  6  2  0
  8  7  1  1
  8 10  1  0
  9  8  1  0
  9  5  1  0
 10 11  2  0
 12 13  1  0
 12 10  1  0
 13 17  1  0
 13 14  1  6
 15 14  1  0
 16 15  2  0
 17 18  2  0
 17 20  1  0
 19 15  1  0
M  END
$$$$
