CAD.pdb
     RDKit          3D

 20 19  0  0  1  0  0  0  0  0999 V2000
   17.1723  -12.0102  -15.1682 N   0  0  0  0  0  0  0  0  0  0  0  0
   17.9920  -11.1181  -15.9007 C   0  0  1  0  0  0  0  0  0  0  0  0
   17.0825  -10.2907  -16.8041 C   0  0  0  0  0  0  0  0  0  0  0  0
   16.4819  -11.3385  -18.1562 S   0  0  0  0  0  0  0  0  0  0  0  0
   18.9331  -10.2925  -15.1569 C   0  0  0  0  0  0  0  0  0  0  0  0
   18.4743   -9.5972  -14.1864 O   0  0  0  0  0  0  0  0  0  0  0  0
   22.5970   -9.6775  -14.6986 C   0  0  0  0  0  0  0  0  0  0  0  0
   21.1349   -9.2674  -14.5765 C   0  0  2  0  0  0  0  0  0  0  0  0
   20.3263  -10.1555  -15.3737 N   0  0  0  0  0  0  0  0  0  0  0  0
   20.9426   -7.8448  -14.9554 C   0  0  0  0  0  0  0  0  0  0  0  0
   20.7868   -7.5765  -16.1718 O   0  0  0  0  0  0  0  0  0  0  0  0
   20.9254   -6.7787  -14.0268 N   0  0  0  0  0  0  0  0  0  0  0  0
   20.8370   -5.3936  -14.3471 C   0  0  1  0  0  0  0  0  0  0  0  0
   19.5903   -4.7051  -13.8720 C   0  0  0  0  0  0  0  0  0  0  0  0
   19.5341   -3.2744  -14.2503 C   0  0  0  0  0  0  0  0  0  0  0  0
   19.8671   -2.9599  -15.4222 O   0  0  0  0  0  0  0  0  0  0  0  0
   22.0158   -4.6112  -13.9084 C   0  0  0  0  0  0  0  0  0  0  0  0
   22.7692   -4.9770  -12.9859 O   0  0  0  0  0  0  0  0  0  0  0  0
   19.1346   -2.2759  -13.3779 O   0  0  0  0  0  0  0  0  0  0  0  0
   22.2753   -3.4017  -14.5813 O   0  0  0  0  0  0  0  0  0  0  0  0
  2  5  1  0
  2  1  1  1
  3  2  1  0
  4  3  1  0
  5  6  2  0
  8  7  1  6
  8 10  1  0
  9  8  1  0
  9  5  1  0
 10 11  2  0
 12 13  1  0
 12 10  1  0
 13 17  1  0
 13 14  1  1
 15 14  1  0
 16 15  2  0
 17 18  2  0
 17 20  1  0
 19 15  1  0
M  END
$$$$
