CAD.pdb
     RDKit          3D

 20 19  0  0  1  0  0  0  0  0999 V2000
   16.5788  -11.8247  -14.7947 N   0  0  0  0  0  0  0  0  0  0  0  0
   17.2788  -11.0458  -15.7476 C   0  0  1  0  0  0  0  0  0  0  0  0
   16.2859  -10.0622  -16.3596 C   0  0  0  0  0  0  0  0  0  0  0  0
   15.3229  -10.9138  -17.6379 S   0  0  0  0  0  0  0  0  0  0  0  0
   18.5109  -10.3965  -15.3223 C   0  0  0  0  0  0  0  0  0  0  0  0
   18.5102   -9.8080  -14.1868 O   0  0  0  0  0  0  0  0  0  0  0  0
   22.1375  -10.0751  -16.2093 C   0  0  0  0  0  0  0  0  0  0  0  0
   20.8751   -9.6111  -15.4940 C   0  0  2  0  0  0  0  0  0  0  0  0
   19.7417  -10.3299  -16.0204 N   0  0  0  0  0  0  0  0  0  0  0  0
   20.7046   -8.1404  -15.6047 C   0  0  0  0  0  0  0  0  0  0  0  0
   19.9823   -7.7006  -16.5325 O   0  0  0  0  0  0  0  0  0  0  0  0
   21.3081   -7.2102  -14.7273 N   0  0  0  0  0  0  0  0  0  0  0  0
   21.1917   -5.7926  -14.8044 C   0  0  1  0  0  0  0  0  0  0  0  0
   19.7896   -5.2607  -14.7324 C   0  0  0  0  0  0  0  0  0  0  0  0
   19.7219   -3.7834  -14.8095 C   0  0  0  0  0  0  0  0  0  0  0  0
   20.0610   -3.2321  -15.8885 O   0  0  0  0  0  0  0  0  0  0  0  0
   22.0290   -5.0782  -13.8131 C   0  0  0  0  0  0  0  0  0  0  0  0
   22.2430   -3.8518  -13.8623 O   0  0  0  0  0  0  0  0  0  0  0  0
   19.3051   -2.9886  -13.7547 O   0  0  0  0  0  0  0  0  0  0  0  0
   22.5979   -5.8434  -12.7767 O   0  0  0  0  0  0  0  0  0  0  0  0
  2  5  1  0
  2  1  1  1
  3  2  1  0
  4  3  1  0
  5  6  2  0
  8  7  1  6
  8 10  1  0
  9  8  1  0
  9  5  1  0
 10 11  2  0
 12 13  1  0
 12 10  1  0
 13 17  1  0
 13 14  1  1
 15 14  1  0
 16 15  2  0
 17 18  2  0
 17 20  1  0
 19 15  1  0
M  END
$$$$
