CAD.pdb
     RDKit          3D

 20 19  0  0  1  0  0  0  0  0999 V2000
   27.2160  -21.6437  -15.2400 N   0  0  0  0  0  0  0  0  0  0  0  0
   26.0667  -20.8195  -15.3074 C   0  0  1  0  0  0  0  0  0  0  0  0
   25.7048  -20.6508  -16.7800 C   0  0  0  0  0  0  0  0  0  0  0  0
   26.5360  -19.1752  -17.4268 S   0  0  0  0  0  0  0  0  0  0  0  0
   24.9169  -21.1878  -14.4933 C   0  0  0  0  0  0  0  0  0  0  0  0
   24.5774  -22.4206  -14.4690 O   0  0  0  0  0  0  0  0  0  0  0  0
   22.7109  -19.8683  -11.7864 C   0  0  0  0  0  0  0  0  0  0  0  0
   23.0134  -20.8480  -12.9130 C   0  0  2  0  0  0  0  0  0  0  0  0
   24.1044  -20.3366  -13.7045 N   0  0  0  0  0  0  0  0  0  0  0  0
   21.8046  -21.1138  -13.7330 C   0  0  0  0  0  0  0  0  0  0  0  0
   21.7000  -20.5214  -14.8349 O   0  0  0  0  0  0  0  0  0  0  0  0
   20.7678  -21.9930  -13.3441 N   0  0  0  0  0  0  0  0  0  0  0  0
   19.5531  -22.2173  -14.0534 C   0  0  1  0  0  0  0  0  0  0  0  0
   18.7358  -23.3807  -13.5712 C   0  0  0  0  0  0  0  0  0  0  0  0
   19.3510  -24.6924  -13.8782 C   0  0  0  0  0  0  0  0  0  0  0  0
   20.4018  -24.7045  -14.5701 O   0  0  0  0  0  0  0  0  0  0  0  0
   18.6859  -21.0188  -14.1301 C   0  0  0  0  0  0  0  0  0  0  0  0
   17.9981  -20.7406  -15.1310 O   0  0  0  0  0  0  0  0  0  0  0  0
   18.8246  -25.8962  -13.4407 O   0  0  0  0  0  0  0  0  0  0  0  0
   18.6550  -20.1707  -13.0063 O   0  0  0  0  0  0  0  0  0  0  0  0
  2  5  1  0
  2  1  1  6
  3  2  1  0
  4  3  1  0
  5  6  2  0
  8  7  1  1
  8 10  1  0
  9  8  1  0
  9  5  1  0
 10 11  2  0
 12 13  1  0
 12 10  1  0
 13 17  1  0
 13 14  1  1
 15 14  1  0
 16 15  2  0
 17 18  2  0
 17 20  1  0
 19 15  1  0
M  END
$$$$
