CAD.pdb
     RDKit          3D

 20 19  0  0  1  0  0  0  0  0999 V2000
   14.1203  -13.6484  -12.1788 N   0  0  0  0  0  0  0  0  0  0  0  0
   15.1271  -13.0081  -11.4165 C   0  0  1  0  0  0  0  0  0  0  0  0
   16.4767  -13.5209  -11.9100 C   0  0  0  0  0  0  0  0  0  0  0  0
   16.7217  -15.2129  -11.3071 S   0  0  0  0  0  0  0  0  0  0  0  0
   15.0877  -11.5556  -11.3212 C   0  0  0  0  0  0  0  0  0  0  0  0
   14.9121  -10.8946  -12.4020 O   0  0  0  0  0  0  0  0  0  0  0  0
   14.9318   -8.7786   -8.8031 C   0  0  0  0  0  0  0  0  0  0  0  0
   15.1491   -9.3199  -10.2104 C   0  0  2  0  0  0  0  0  0  0  0  0
   15.2220  -10.7588  -10.1577 N   0  0  0  0  0  0  0  0  0  0  0  0
   16.3554   -8.7217  -10.8359 C   0  0  0  0  0  0  0  0  0  0  0  0
   17.4498   -9.3198  -10.6923 O   0  0  0  0  0  0  0  0  0  0  0  0
   16.3413   -7.5202  -11.5811 N   0  0  0  0  0  0  0  0  0  0  0  0
   17.4694   -6.9067  -12.1976 C   0  0  1  0  0  0  0  0  0  0  0  0
   18.2999   -7.8133  -13.0591 C   0  0  0  0  0  0  0  0  0  0  0  0
   19.4460   -7.1243  -13.6954 C   0  0  0  0  0  0  0  0  0  0  0  0
   20.2223   -6.4645  -12.9571 O   0  0  0  0  0  0  0  0  0  0  0  0
   17.1292   -5.6886  -12.9687 C   0  0  0  0  0  0  0  0  0  0  0  0
   15.9618   -5.3871  -13.2828 O   0  0  0  0  0  0  0  0  0  0  0  0
   19.6986   -7.1741  -15.0561 O   0  0  0  0  0  0  0  0  0  0  0  0
   18.1926   -4.8488  -13.3525 O   0  0  0  0  0  0  0  0  0  0  0  0
  2  5  1  0
  2  1  1  6
  3  2  1  0
  4  3  1  0
  5  6  2  0
  8  7  1  1
  8 10  1  0
  9  8  1  0
  9  5  1  0
 10 11  2  0
 12 13  1  0
 12 10  1  0
 13 17  1  0
 13 14  1  6
 15 14  1  0
 16 15  2  0
 17 18  2  0
 17 20  1  0
 19 15  1  0
M  END
$$$$
