CAD.pdb
     RDKit          3D

 20 19  0  0  1  0  0  0  0  0999 V2000
   18.7813  -12.9507  -16.8085 N   0  0  0  0  0  0  0  0  0  0  0  0
   19.4387  -11.7743  -17.2427 C   0  0  1  0  0  0  0  0  0  0  0  0
   18.4291  -10.9445  -18.0302 C   0  0  0  0  0  0  0  0  0  0  0  0
   17.9229  -11.8727  -19.5030 S   0  0  0  0  0  0  0  0  0  0  0  0
   20.1476  -10.9840  -16.2460 C   0  0  0  0  0  0  0  0  0  0  0  0
   19.4551  -10.4367  -15.3204 O   0  0  0  0  0  0  0  0  0  0  0  0
   23.5913  -10.1820  -15.0148 C   0  0  0  0  0  0  0  0  0  0  0  0
   22.1025   -9.8872  -15.1454 C   0  0  2  0  0  0  0  0  0  0  0  0
   21.5400  -10.7358  -16.1661 N   0  0  0  0  0  0  0  0  0  0  0  0
   21.8618   -8.4481  -15.4198 C   0  0  0  0  0  0  0  0  0  0  0  0
   21.4673   -8.1266  -16.5675 O   0  0  0  0  0  0  0  0  0  0  0  0
   22.0513   -7.4227  -14.4650 N   0  0  0  0  0  0  0  0  0  0  0  0
   21.7607   -6.0412  -14.6543 C   0  0  1  0  0  0  0  0  0  0  0  0
   20.3418   -5.7320  -15.0354 C   0  0  0  0  0  0  0  0  0  0  0  0
   20.0965   -4.2869  -15.2464 C   0  0  0  0  0  0  0  0  0  0  0  0
   19.5164   -3.6466  -14.3317 O   0  0  0  0  0  0  0  0  0  0  0  0
   22.1444   -5.1951  -13.5006 C   0  0  0  0  0  0  0  0  0  0  0  0
   22.2444   -3.9551  -13.5707 O   0  0  0  0  0  0  0  0  0  0  0  0
   20.4744   -3.6150  -16.3968 O   0  0  0  0  0  0  0  0  0  0  0  0
   22.4028   -5.8466  -12.2792 O   0  0  0  0  0  0  0  0  0  0  0  0
  2  5  1  0
  2  1  1  1
  3  2  1  0
  4  3  1  0
  5  6  2  0
  8  7  1  6
  8 10  1  0
  9  8  1  0
  9  5  1  0
 10 11  2  0
 12 13  1  0
 12 10  1  0
 13 17  1  0
 13 14  1  1
 15 14  1  0
 16 15  2  0
 17 18  2  0
 17 20  1  0
 19 15  1  0
M  END
$$$$
