CAD.pdb
     RDKit          3D

 20 19  0  0  1  0  0  0  0  0999 V2000
   26.7712  -10.6351  -18.0641 N   0  0  0  0  0  0  0  0  0  0  0  0
   25.7542  -10.4540  -17.0958 C   0  0  1  0  0  0  0  0  0  0  0  0
   26.4333  -10.2550  -15.7441 C   0  0  0  0  0  0  0  0  0  0  0  0
   27.2274  -11.8074  -15.2481 S   0  0  0  0  0  0  0  0  0  0  0  0
   24.7369   -9.4456  -17.3583 C   0  0  0  0  0  0  0  0  0  0  0  0
   25.1324   -8.2573  -17.6178 O   0  0  0  0  0  0  0  0  0  0  0  0
   21.4776   -9.0399  -18.8053 C   0  0  0  0  0  0  0  0  0  0  0  0
   22.4393   -8.5424  -17.7337 C   0  0  2  0  0  0  0  0  0  0  0  0
   23.3304   -9.6136  -17.3636 N   0  0  0  0  0  0  0  0  0  0  0  0
   21.7052   -7.9968  -16.5644 C   0  0  0  0  0  0  0  0  0  0  0  0
   21.4476   -8.7775  -15.6156 O   0  0  0  0  0  0  0  0  0  0  0  0
   21.2808   -6.6522  -16.4594 N   0  0  0  0  0  0  0  0  0  0  0  0
   20.5666   -6.0849  -15.3652 C   0  0  1  0  0  0  0  0  0  0  0  0
   21.0955   -4.7706  -14.8682 C   0  0  0  0  0  0  0  0  0  0  0  0
   22.5042   -4.8421  -14.4170 C   0  0  0  0  0  0  0  0  0  0  0  0
   22.7305   -5.2577  -13.2511 O   0  0  0  0  0  0  0  0  0  0  0  0
   19.1124   -5.9550  -15.6151 C   0  0  0  0  0  0  0  0  0  0  0  0
   18.5944   -6.1512  -16.7311 O   0  0  0  0  0  0  0  0  0  0  0  0
   23.5744   -4.4748  -15.2154 O   0  0  0  0  0  0  0  0  0  0  0  0
   18.2993   -5.5920  -14.5240 O   0  0  0  0  0  0  0  0  0  0  0  0
  2  5  1  0
  2  1  1  6
  3  2  1  0
  4  3  1  0
  5  6  2  0
  8  7  1  6
  8 10  1  0
  9  8  1  0
  9  5  1  0
 10 11  2  0
 12 13  1  0
 12 10  1  0
 13 17  1  0
 13 14  1  6
 15 14  1  0
 16 15  2  0
 17 18  2  0
 17 20  1  0
 19 15  1  0
M  END
$$$$
