CAD.pdb
     RDKit          3D

 20 19  0  0  1  0  0  0  0  0999 V2000
   18.3479  -12.4314  -16.7515 N   0  0  0  0  0  0  0  0  0  0  0  0
   19.0206  -11.2586  -17.1718 C   0  0  1  0  0  0  0  0  0  0  0  0
   18.0504  -10.4516  -18.0295 C   0  0  0  0  0  0  0  0  0  0  0  0
   17.7898  -11.3184  -19.6003 S   0  0  0  0  0  0  0  0  0  0  0  0
   19.6685  -10.4441  -16.1533 C   0  0  0  0  0  0  0  0  0  0  0  0
   18.9366   -9.9725  -15.2164 O   0  0  0  0  0  0  0  0  0  0  0  0
   23.0249   -9.5888  -14.7829 C   0  0  0  0  0  0  0  0  0  0  0  0
   21.5463   -9.2833  -14.9862 C   0  0  2  0  0  0  0  0  0  0  0  0
   21.0389  -10.0970  -16.0626 N   0  0  0  0  0  0  0  0  0  0  0  0
   21.3252   -7.8353  -15.2279 C   0  0  0  0  0  0  0  0  0  0  0  0
   21.3669   -7.4243  -16.4134 O   0  0  0  0  0  0  0  0  0  0  0  0
   21.0715   -6.8962  -14.2019 N   0  0  0  0  0  0  0  0  0  0  0  0
   20.9370   -5.4884  -14.3729 C   0  0  1  0  0  0  0  0  0  0  0  0
   19.5564   -4.9449  -14.1439 C   0  0  0  0  0  0  0  0  0  0  0  0
   19.4642   -3.4815  -14.3514 C   0  0  0  0  0  0  0  0  0  0  0  0
   20.3246   -2.9341  -15.0884 O   0  0  0  0  0  0  0  0  0  0  0  0
   21.9029   -4.7027  -13.5704 C   0  0  0  0  0  0  0  0  0  0  0  0
   22.1067   -3.4870  -13.7516 O   0  0  0  0  0  0  0  0  0  0  0  0
   18.4805   -2.6957  -13.7746 O   0  0  0  0  0  0  0  0  0  0  0  0
   22.6108   -5.3848  -12.5620 O   0  0  0  0  0  0  0  0  0  0  0  0
  2  5  1  0
  2  1  1  1
  3  2  1  0
  4  3  1  0
  5  6  2  0
  8  7  1  6
  8 10  1  0
  9  8  1  0
  9  5  1  0
 10 11  2  0
 12 13  1  0
 12 10  1  0
 13 17  1  0
 13 14  1  1
 15 14  1  0
 16 15  2  0
 17 18  2  0
 17 20  1  0
 19 15  1  0
M  END
$$$$
