CAD.pdb
     RDKit          3D

 20 19  0  0  1  0  0  0  0  0999 V2000
   16.3696  -13.3137  -14.9925 N   0  0  0  0  0  0  0  0  0  0  0  0
   16.6855  -12.1522  -15.7379 C   0  0  1  0  0  0  0  0  0  0  0  0
   15.5732  -11.1348  -15.5017 C   0  0  0  0  0  0  0  0  0  0  0  0
   14.0688  -11.6994  -16.3412 S   0  0  0  0  0  0  0  0  0  0  0  0
   18.0108  -11.5735  -15.5665 C   0  0  0  0  0  0  0  0  0  0  0  0
   18.4283  -11.3902  -14.3716 O   0  0  0  0  0  0  0  0  0  0  0  0
   21.1765  -10.9681  -17.4195 C   0  0  0  0  0  0  0  0  0  0  0  0
   20.2339  -10.6720  -16.2600 C   0  0  2  0  0  0  0  0  0  0  0  0
   18.9212  -11.1769  -16.5767 N   0  0  0  0  0  0  0  0  0  0  0  0
   20.2132   -9.2221  -15.9413 C   0  0  0  0  0  0  0  0  0  0  0  0
   19.3017   -8.5222  -16.4469 O   0  0  0  0  0  0  0  0  0  0  0  0
   21.1589   -8.5870  -15.1039 N   0  0  0  0  0  0  0  0  0  0  0  0
   21.2154   -7.1935  -14.8146 C   0  0  1  0  0  0  0  0  0  0  0  0
   22.0188   -6.8237  -13.6014 C   0  0  0  0  0  0  0  0  0  0  0  0
   21.9724   -5.3766  -13.2902 C   0  0  0  0  0  0  0  0  0  0  0  0
   23.0514   -4.8016  -12.9927 O   0  0  0  0  0  0  0  0  0  0  0  0
   21.6688   -6.3719  -15.9608 C   0  0  0  0  0  0  0  0  0  0  0  0
   21.5284   -5.1348  -16.0078 O   0  0  0  0  0  0  0  0  0  0  0  0
   20.8033   -4.6347  -13.3122 O   0  0  0  0  0  0  0  0  0  0  0  0
   22.2841   -7.0442  -17.0343 O   0  0  0  0  0  0  0  0  0  0  0  0
  2  5  1  0
  2  1  1  1
  3  2  1  0
  4  3  1  0
  5  6  2  0
  8  7  1  6
  8 10  1  0
  9  8  1  0
  9  5  1  0
 10 11  2  0
 12 13  1  0
 12 10  1  0
 13 17  1  0
 13 14  1  1
 15 14  1  0
 16 15  2  0
 17 18  2  0
 17 20  1  0
 19 15  1  0
M  END
$$$$
