YRG.pdb
     RDKit          3D

 28 28  0  0  1  0  0  0  0  0999 V2000
    5.4387  -10.3330   28.0735 O   0  0  0  0  0  0  0  0  0  0  0  0
    6.1081  -11.3529   27.4079 C   0  0  0  0  0  0  0  0  0  0  0  0
    7.0864  -12.0428   28.0966 C   0  0  0  0  0  0  0  0  0  0  0  0
    7.7933  -13.0756   27.4856 C   0  0  0  0  0  0  0  0  0  0  0  0
    7.5189  -13.4143   26.1880 C   0  0  0  0  0  0  0  0  0  0  0  0
    8.2473  -14.5208   25.4709 C   0  0  0  0  0  0  0  0  0  0  0  0
    7.2350  -15.4967   24.9081 C   0  0  2  0  0  0  0  0  0  0  0  0
    6.9364  -16.5035   25.8891 N   0  0  0  0  0  0  0  0  0  0  0  0
    7.6930  -16.1351   23.6726 C   0  0  0  0  0  0  0  0  0  0  0  0
    8.0226  -17.3494   23.5851 O   0  0  0  0  0  0  0  0  0  0  0  0
    6.5306  -12.7027   25.5225 C   0  0  0  0  0  0  0  0  0  0  0  0
    5.8174  -11.6836   26.0915 C   0  0  0  0  0  0  0  0  0  0  0  0
    8.6263  -15.4031   13.9543 N   0  0  0  0  0  0  0  0  0  0  0  0
    8.4233  -14.7213   15.1901 C   0  0  0  0  0  0  0  0  0  0  0  0
    8.1077  -13.4736   15.1596 N   0  0  0  0  0  0  0  0  0  0  0  0
    8.5564  -15.3685   16.4549 N   0  0  0  0  0  0  0  0  0  0  0  0
    8.3251  -14.6783   17.6954 C   0  0  0  0  0  0  0  0  0  0  0  0
    8.7053  -15.6018   18.8478 C   0  0  0  0  0  0  0  0  0  0  0  0
    8.1763  -15.0213   20.1143 C   0  0  0  0  0  0  0  0  0  0  0  0
    8.4768  -15.9183   21.2834 C   0  0  2  0  0  0  0  0  0  0  0  0
    7.7873  -15.3848   22.4812 N   0  0  0  0  0  0  0  0  0  0  0  0
    9.9305  -15.8962   21.5740 C   0  0  0  0  0  0  0  0  0  0  0  0
   10.6310  -14.8633   21.5370 O   0  0  0  0  0  0  0  0  0  0  0  0
    7.9135  -12.9474   16.0266 N   0  0  0  0  0  0  0  0  0  0  0  0
   10.6457  -17.0948   21.9261 C   0  0  0  0  0  0  0  0  0  0  0  0
   11.4833  -17.7817   20.9387 C   0  0  0  0  0  0  0  0  0  0  0  0
   12.8034  -17.1592   20.8256 O   0  0  0  0  0  0  0  0  0  0  0  0
   12.8858  -15.9910   20.3850 O   0  0  0  0  0  0  0  0  0  0  0  0
  2  1  1  0
  3  2  2  0
  4  3  1  0
  5  4  2  0
  5 11  1  0
  6  5  1  0
  7  9  1  0
  7  6  1  0
  7  8  1  1
  9 10  2  0
 11 12  2  0
 12  2  1  0
 14 15  2  0
 14 13  1  0
 16 14  1  0
 17 18  1  0
 17 16  1  0
 18 19  1  0
 20 19  1  6
 21 20  1  0
 21  9  1  0
 22 24  1  0
 22 20  1  0
 23 22  2  0
 25 24  1  0
 26 25  1  0
 26 28  1  0
 27 26  2  0
M  END
$$$$
