YRG.pdb
     RDKit          3D

 28 28  0  0  1  0  0  0  0  0999 V2000
   10.4915  -14.4863   31.4221 O   0  0  0  0  0  0  0  0  0  0  0  0
   10.4127  -14.8128   30.0736 C   0  0  0  0  0  0  0  0  0  0  0  0
    9.7407  -13.9450   29.2353 C   0  0  0  0  0  0  0  0  0  0  0  0
    9.6266  -14.2154   27.8738 C   0  0  0  0  0  0  0  0  0  0  0  0
   10.1852  -15.3528   27.3561 C   0  0  0  0  0  0  0  0  0  0  0  0
   10.0971  -15.7022   25.8936 C   0  0  0  0  0  0  0  0  0  0  0  0
    8.8082  -16.4564   25.6411 C   0  0  2  0  0  0  0  0  0  0  0  0
    8.7874  -17.6567   26.4311 N   0  0  0  0  0  0  0  0  0  0  0  0
    8.6191  -16.7942   24.2291 C   0  0  0  0  0  0  0  0  0  0  0  0
    8.5192  -17.9731   23.7921 O   0  0  0  0  0  0  0  0  0  0  0  0
   10.8539  -16.2050   28.2236 C   0  0  0  0  0  0  0  0  0  0  0  0
   10.9850  -15.9706   29.5649 C   0  0  0  0  0  0  0  0  0  0  0  0
    9.4330  -13.2409   17.8057 N   0  0  0  0  0  0  0  0  0  0  0  0
    8.9244  -12.4229   18.8571 C   0  0  0  0  0  0  0  0  0  0  0  0
    9.6155  -11.4038   19.2326 N   0  0  0  0  0  0  0  0  0  0  0  0
    7.6821  -12.6910   19.5061 N   0  0  0  0  0  0  0  0  0  0  0  0
    6.8501  -13.8041   19.1354 C   0  0  0  0  0  0  0  0  0  0  0  0
    7.4386  -15.0765   19.7356 C   0  0  0  0  0  0  0  0  0  0  0  0
    7.7323  -14.8291   21.1756 C   0  0  0  0  0  0  0  0  0  0  0  0
    8.2601  -16.0720   21.8376 C   0  0  2  0  0  0  0  0  0  0  0  0
    8.5379  -15.7705   23.2613 N   0  0  0  0  0  0  0  0  0  0  0  0
    9.5488  -16.4637   21.2179 C   0  0  0  0  0  0  0  0  0  0  0  0
    9.6469  -16.9780   20.0844 O   0  0  0  0  0  0  0  0  0  0  0  0
    9.2795  -10.7717   19.9769 N   0  0  0  0  0  0  0  0  0  0  0  0
   10.8013  -16.2717   21.9010 C   0  0  0  0  0  0  0  0  0  0  0  0
   12.0683  -16.6092   21.2460 C   0  0  0  0  0  0  0  0  0  0  0  0
   12.3804  -15.6755   20.1627 O   0  0  0  0  0  0  0  0  0  0  0  0
   12.0326  -15.9643   18.9960 O   0  0  0  0  0  0  0  0  0  0  0  0
  2  1  1  0
  3  2  2  0
  4  3  1  0
  5  4  2  0
  5 11  1  0
  6  5  1  0
  7  9  1  0
  7  6  1  0
  7  8  1  1
  9 10  2  0
 11 12  2  0
 12  2  1  0
 14 15  2  0
 14 13  1  0
 16 14  1  0
 17 18  1  0
 17 16  1  0
 18 19  1  0
 20 19  1  6
 21 20  1  0
 21  9  1  0
 22 24  1  0
 22 20  1  0
 23 22  2  0
 25 24  1  0
 26 25  1  0
 26 28  1  0
 27 26  2  0
M  END
$$$$
