YRG.pdb
     RDKit          3D

 28 28  0  0  1  0  0  0  0  0999 V2000
    6.4945  -10.5715   27.3143 O   0  0  0  0  0  0  0  0  0  0  0  0
    6.5396  -11.8561   26.7861 C   0  0  0  0  0  0  0  0  0  0  0  0
    6.6701  -11.9896   25.4177 C   0  0  0  0  0  0  0  0  0  0  0  0
    6.7213  -13.2497   24.8268 C   0  0  0  0  0  0  0  0  0  0  0  0
    6.6418  -14.3716   25.6071 C   0  0  0  0  0  0  0  0  0  0  0  0
    6.6914  -15.7620   25.0298 C   0  0  0  0  0  0  0  0  0  0  0  0
    8.0607  -16.3562   25.2858 C   0  0  2  0  0  0  0  0  0  0  0  0
    8.9501  -15.3336   25.7638 N   0  0  0  0  0  0  0  0  0  0  0  0
    8.6332  -16.9884   24.0958 C   0  0  0  0  0  0  0  0  0  0  0  0
    8.2965  -18.1266   23.6693 O   0  0  0  0  0  0  0  0  0  0  0  0
    6.5112  -14.2051   26.9787 C   0  0  0  0  0  0  0  0  0  0  0  0
    6.4577  -12.9835   27.5919 C   0  0  0  0  0  0  0  0  0  0  0  0
    7.3231  -12.8376   18.4075 N   0  0  0  0  0  0  0  0  0  0  0  0
    8.6306  -13.2477   18.8018 C   0  0  0  0  0  0  0  0  0  0  0  0
    9.5696  -12.3674   18.8278 N   0  0  0  0  0  0  0  0  0  0  0  0
    8.9358  -14.5929   19.1674 N   0  0  0  0  0  0  0  0  0  0  0  0
    7.9243  -15.5119   19.6156 C   0  0  0  0  0  0  0  0  0  0  0  0
    8.3532  -16.0958   20.9575 C   0  0  0  0  0  0  0  0  0  0  0  0
    9.8274  -16.3126   20.9303 C   0  0  0  0  0  0  0  0  0  0  0  0
   10.2973  -16.9706   22.1983 C   0  0  2  0  0  0  0  0  0  0  0  0
    9.6260  -16.3204   23.3479 N   0  0  0  0  0  0  0  0  0  0  0  0
   11.7542  -16.7540   22.3677 C   0  0  0  0  0  0  0  0  0  0  0  0
   12.2551  -15.6856   22.7756 O   0  0  0  0  0  0  0  0  0  0  0  0
   10.5338  -12.6185   19.0992 N   0  0  0  0  0  0  0  0  0  0  0  0
   12.7088  -17.7879   22.0644 C   0  0  0  0  0  0  0  0  0  0  0  0
   14.1444  -17.5554   22.2469 C   0  0  0  0  0  0  0  0  0  0  0  0
   14.7751  -17.0845   21.0127 O   0  0  0  0  0  0  0  0  0  0  0  0
   14.0655  -16.9186   19.9956 O   0  0  0  0  0  0  0  0  0  0  0  0
  2  1  1  0
  3  2  2  0
  4  3  1  0
  5  4  2  0
  5 11  1  0
  6  5  1  0
  7  9  1  0
  7  6  1  0
  7  8  1  6
  9 10  2  0
 11 12  2  0
 12  2  1  0
 14 15  2  0
 14 13  1  0
 16 14  1  0
 17 18  1  0
 17 16  1  0
 18 19  1  0
 20 19  1  6
 21 20  1  0
 21  9  1  0
 22 24  1  0
 22 20  1  0
 23 22  2  0
 25 24  1  0
 26 25  1  0
 26 28  1  0
 27 26  2  0
M  END
$$$$
