YRG.pdb
     RDKit          3D

 28 28  0  0  1  0  0  0  0  0999 V2000
   10.4740  -14.1734   31.5880 O   0  0  0  0  0  0  0  0  0  0  0  0
   10.4370  -14.5699   30.2566 C   0  0  0  0  0  0  0  0  0  0  0  0
    9.8569  -13.7134   29.3416 C   0  0  0  0  0  0  0  0  0  0  0  0
    9.7887  -14.0527   27.9925 C   0  0  0  0  0  0  0  0  0  0  0  0
   10.3011  -15.2476   27.5640 C   0  0  0  0  0  0  0  0  0  0  0  0
   10.2587  -15.6728   26.1195 C   0  0  0  0  0  0  0  0  0  0  0  0
    8.8949  -16.2567   25.8149 C   0  0  2  0  0  0  0  0  0  0  0  0
    8.6156  -17.3337   26.7245 N   0  0  0  0  0  0  0  0  0  0  0  0
    8.7814  -16.7363   24.4362 C   0  0  0  0  0  0  0  0  0  0  0  0
    8.5302  -17.9318   24.1225 O   0  0  0  0  0  0  0  0  0  0  0  0
   10.8775  -16.0867   28.5071 C   0  0  0  0  0  0  0  0  0  0  0  0
   10.9613  -15.7854   29.8388 C   0  0  0  0  0  0  0  0  0  0  0  0
    8.8222  -11.5908   18.7619 N   0  0  0  0  0  0  0  0  0  0  0  0
    8.3529  -12.7366   18.0547 C   0  0  0  0  0  0  0  0  0  0  0  0
    8.7924  -12.9466   16.8631 N   0  0  0  0  0  0  0  0  0  0  0  0
    7.4173  -13.6559   18.6169 N   0  0  0  0  0  0  0  0  0  0  0  0
    6.9971  -13.5758   19.9901 C   0  0  0  0  0  0  0  0  0  0  0  0
    8.0898  -14.1708   20.8718 C   0  0  0  0  0  0  0  0  0  0  0  0
    7.6365  -15.5072   21.3509 C   0  0  0  0  0  0  0  0  0  0  0  0
    8.7785  -16.2776   21.9543 C   0  0  2  0  0  0  0  0  0  0  0  0
    8.9560  -15.8415   23.3590 N   0  0  0  0  0  0  0  0  0  0  0  0
   10.0363  -15.9563   21.2382 C   0  0  0  0  0  0  0  0  0  0  0  0
   10.2311  -16.2046   20.0302 O   0  0  0  0  0  0  0  0  0  0  0  0
    8.4846  -13.7649   16.3135 N   0  0  0  0  0  0  0  0  0  0  0  0
   11.1418  -15.3217   21.9071 C   0  0  0  0  0  0  0  0  0  0  0  0
   12.3537  -14.9591   21.1668 C   0  0  0  0  0  0  0  0  0  0  0  0
   13.3822  -15.9950   21.2763 O   0  0  0  0  0  0  0  0  0  0  0  0
   13.0901  -17.0825   21.8219 O   0  0  0  0  0  0  0  0  0  0  0  0
  2  1  1  0
  3  2  2  0
  4  3  1  0
  5  4  2  0
  5 11  1  0
  6  5  1  0
  7  9  1  0
  7  6  1  0
  7  8  1  1
  9 10  2  0
 11 12  2  0
 12  2  1  0
 14 15  2  0
 14 13  1  0
 16 14  1  0
 17 18  1  0
 17 16  1  0
 18 19  1  0
 20 19  1  6
 21 20  1  0
 21  9  1  0
 22 24  1  0
 22 20  1  0
 23 22  2  0
 25 24  1  0
 26 25  1  0
 26 28  1  0
 27 26  2  0
M  END
$$$$
