YRG.pdb
     RDKit          3D

 28 28  0  0  1  0  0  0  0  0999 V2000
   -6.6227  -28.0642   20.5599 O   0  0  0  0  0  0  0  0  0  0  0  0
   -5.2781  -28.4095   20.6245 C   0  0  0  0  0  0  0  0  0  0  0  0
   -4.7125  -29.0201   19.5225 C   0  0  0  0  0  0  0  0  0  0  0  0
   -3.3700  -29.3906   19.5246 C   0  0  0  0  0  0  0  0  0  0  0  0
   -2.5984  -29.1490   20.6291 C   0  0  0  0  0  0  0  0  0  0  0  0
   -1.1412  -29.5251   20.6943 C   0  0  0  0  0  0  0  0  0  0  0  0
   -0.3058  -28.3545   20.2196 C   0  0  2  0  0  0  0  0  0  0  0  0
   -0.5436  -28.1261   18.8209 N   0  0  0  0  0  0  0  0  0  0  0  0
    1.1266  -28.5538   20.4482 C   0  0  0  0  0  0  0  0  0  0  0  0
    1.9841  -28.6369   19.5271 O   0  0  0  0  0  0  0  0  0  0  0  0
   -3.1953  -28.5341   21.7207 C   0  0  0  0  0  0  0  0  0  0  0  0
   -4.5099  -28.1572   21.7528 C   0  0  0  0  0  0  0  0  0  0  0  0
    6.9126  -26.1123   18.7910 N   0  0  0  0  0  0  0  0  0  0  0  0
    6.7486  -27.3443   18.0922 C   0  0  0  0  0  0  0  0  0  0  0  0
    7.4865  -27.5699   17.0618 N   0  0  0  0  0  0  0  0  0  0  0  0
    5.8001  -28.3330   18.4912 N   0  0  0  0  0  0  0  0  0  0  0  0
    4.6359  -28.0058   19.2698 C   0  0  0  0  0  0  0  0  0  0  0  0
    5.0098  -28.0403   20.7478 C   0  0  0  0  0  0  0  0  0  0  0  0
    3.8156  -27.6466   21.5478 C   0  0  0  0  0  0  0  0  0  0  0  0
    3.0688  -28.8593   22.0308 C   0  0  2  0  0  0  0  0  0  0  0  0
    1.6245  -28.6653   21.7639 N   0  0  0  0  0  0  0  0  0  0  0  0
    3.2241  -28.9943   23.4991 C   0  0  0  0  0  0  0  0  0  0  0  0
    2.6244  -28.2806   24.3298 O   0  0  0  0  0  0  0  0  0  0  0  0
    7.3973  -28.4433   16.5180 N   0  0  0  0  0  0  0  0  0  0  0  0
    4.0988  -29.9816   24.0755 C   0  0  0  0  0  0  0  0  0  0  0  0
    4.2175  -30.1156   25.5302 C   0  0  0  0  0  0  0  0  0  0  0  0
    5.1667  -29.1490   26.0848 O   0  0  0  0  0  0  0  0  0  0  0  0
    5.6979  -28.3146   25.3185 O   0  0  0  0  0  0  0  0  0  0  0  0
  2  1  1  0
  3  2  2  0
  4  3  1  0
  5  4  2  0
  5 11  1  0
  6  5  1  0
  7  9  1  0
  7  6  1  0
  7  8  1  6
  9 10  2  0
 11 12  2  0
 12  2  1  0
 14 15  2  0
 14 13  1  0
 16 14  1  0
 17 18  1  0
 17 16  1  0
 18 19  1  0
 20 19  1  1
 21 20  1  0
 21  9  1  0
 22 24  1  0
 22 20  1  0
 23 22  2  0
 25 24  1  0
 26 25  1  0
 26 28  1  0
 27 26  2  0
M  END
$$$$
