YRG.pdb
     RDKit          3D

 28 28  0  0  1  0  0  0  0  0999 V2000
   10.5424  -14.9187   30.7962 O   0  0  0  0  0  0  0  0  0  0  0  0
   10.1760  -14.8814   29.4561 C   0  0  0  0  0  0  0  0  0  0  0  0
    9.2969  -13.8959   29.0522 C   0  0  0  0  0  0  0  0  0  0  0  0
    8.8909  -13.8050   27.7230 C   0  0  0  0  0  0  0  0  0  0  0  0
    9.3661  -14.7003   26.8030 C   0  0  0  0  0  0  0  0  0  0  0  0
    8.9661  -14.6556   25.3515 C   0  0  0  0  0  0  0  0  0  0  0  0
    7.6827  -15.4384   25.1670 C   0  0  2  0  0  0  0  0  0  0  0  0
    7.4243  -16.2272   26.3401 N   0  0  0  0  0  0  0  0  0  0  0  0
    7.7156  -16.3066   23.9885 C   0  0  0  0  0  0  0  0  0  0  0  0
    7.5461  -17.5559   24.0266 O   0  0  0  0  0  0  0  0  0  0  0  0
   10.2480  -15.6790   27.2394 C   0  0  0  0  0  0  0  0  0  0  0  0
   10.6674  -15.7973   28.5360 C   0  0  0  0  0  0  0  0  0  0  0  0
    8.2175  -14.8640   17.0449 N   0  0  0  0  0  0  0  0  0  0  0  0
    8.1959  -13.4505   17.2308 C   0  0  0  0  0  0  0  0  0  0  0  0
    8.7204  -12.7027   16.3237 N   0  0  0  0  0  0  0  0  0  0  0  0
    7.6165  -12.8362   18.3812 N   0  0  0  0  0  0  0  0  0  0  0  0
    6.9290  -13.5968   19.3898 C   0  0  0  0  0  0  0  0  0  0  0  0
    7.7362  -14.8555   19.6890 C   0  0  0  0  0  0  0  0  0  0  0  0
    6.9013  -15.7670   20.5215 C   0  0  0  0  0  0  0  0  0  0  0  0
    7.7547  -16.5545   21.4772 C   0  0  2  0  0  0  0  0  0  0  0  0
    7.9479  -15.7562   22.7102 N   0  0  0  0  0  0  0  0  0  0  0  0
    9.0975  -16.7749   20.8885 C   0  0  0  0  0  0  0  0  0  0  0  0
    9.2872  -17.2259   19.7397 O   0  0  0  0  0  0  0  0  0  0  0  0
    8.7969  -11.6804   16.4484 N   0  0  0  0  0  0  0  0  0  0  0  0
   10.2991  -16.4758   21.6225 C   0  0  0  0  0  0  0  0  0  0  0  0
   11.6166  -16.7479   21.0407 C   0  0  0  0  0  0  0  0  0  0  0  0
   12.6969  -16.3819   21.9583 O   0  0  0  0  0  0  0  0  0  0  0  0
   13.8821  -16.4949   21.5733 O   0  0  0  0  0  0  0  0  0  0  0  0
  2  1  1  0
  3  2  2  0
  4  3  1  0
  5  4  2  0
  5 11  1  0
  6  5  1  0
  7  9  1  0
  7  6  1  0
  7  8  1  1
  9 10  2  0
 11 12  2  0
 12  2  1  0
 14 15  2  0
 14 13  1  0
 16 14  1  0
 17 18  1  0
 17 16  1  0
 18 19  1  0
 20 19  1  6
 21 20  1  0
 21  9  1  0
 22 24  1  0
 22 20  1  0
 23 22  2  0
 25 24  1  0
 26 25  1  0
 26 28  1  0
 27 26  2  0
M  END
$$$$
