YRG.pdb
     RDKit          3D

 28 28  0  0  1  0  0  0  0  0999 V2000
    6.8092  -10.7785   28.0573 O   0  0  0  0  0  0  0  0  0  0  0  0
    6.7667  -11.9212   27.2676 C   0  0  0  0  0  0  0  0  0  0  0  0
    6.4287  -13.1152   27.8738 C   0  0  0  0  0  0  0  0  0  0  0  0
    6.3685  -14.2957   27.1372 C   0  0  0  0  0  0  0  0  0  0  0  0
    6.6467  -14.2773   25.7971 C   0  0  0  0  0  0  0  0  0  0  0  0
    6.5991  -15.5188   24.9453 C   0  0  0  0  0  0  0  0  0  0  0  0
    7.9323  -16.2318   25.0340 C   0  0  2  0  0  0  0  0  0  0  0  0
    8.9481  -15.3073   25.4566 N   0  0  0  0  0  0  0  0  0  0  0  0
    8.3271  -16.8501   23.7669 C   0  0  0  0  0  0  0  0  0  0  0  0
    7.7196  -17.8183   23.2338 O   0  0  0  0  0  0  0  0  0  0  0  0
    6.9831  -13.0624   25.2167 C   0  0  0  0  0  0  0  0  0  0  0  0
    7.0517  -11.8850   25.9096 C   0  0  0  0  0  0  0  0  0  0  0  0
    9.1230  -12.7525   18.3049 N   0  0  0  0  0  0  0  0  0  0  0  0
    8.3984  -13.5488   17.3701 C   0  0  0  0  0  0  0  0  0  0  0  0
    8.5312  -13.2970   16.1146 N   0  0  0  0  0  0  0  0  0  0  0  0
    7.5347  -14.6109   17.7731 N   0  0  0  0  0  0  0  0  0  0  0  0
    7.8653  -15.4958   18.8576 C   0  0  0  0  0  0  0  0  0  0  0  0
    9.0258  -14.8949   19.6435 C   0  0  0  0  0  0  0  0  0  0  0  0
    8.7780  -15.1146   21.0965 C   0  0  0  0  0  0  0  0  0  0  0  0
    9.4869  -16.3488   21.5820 C   0  0  2  0  0  0  0  0  0  0  0  0
    9.4503  -16.3662   23.0630 N   0  0  0  0  0  0  0  0  0  0  0  0
   10.9142  -16.2988   21.1841 C   0  0  0  0  0  0  0  0  0  0  0  0
   11.3061  -16.3155   19.9987 O   0  0  0  0  0  0  0  0  0  0  0  0
    8.0283  -13.8477   15.4002 N   0  0  0  0  0  0  0  0  0  0  0  0
   11.9663  -16.2263   22.1638 C   0  0  0  0  0  0  0  0  0  0  0  0
   13.3723  -16.2149   21.7500 C   0  0  0  0  0  0  0  0  0  0  0  0
   14.2649  -15.9558   22.8810 O   0  0  0  0  0  0  0  0  0  0  0  0
   15.4872  -15.8001   22.6638 O   0  0  0  0  0  0  0  0  0  0  0  0
  2  1  1  0
  3  2  2  0
  4  3  1  0
  5  4  2  0
  5 11  1  0
  6  5  1  0
  7  9  1  0
  7  6  1  0
  7  8  1  6
  9 10  2  0
 11 12  2  0
 12  2  1  0
 14 15  2  0
 14 13  1  0
 16 14  1  0
 17 18  1  0
 17 16  1  0
 18 19  1  0
 20 19  1  1
 21 20  1  0
 21  9  1  0
 22 24  1  0
 22 20  1  0
 23 22  2  0
 25 24  1  0
 26 25  1  0
 26 28  1  0
 27 26  2  0
M  END
$$$$
