QGV.pdb
     RDKit          3D

 21 20  0  0  1  0  0  0  0  0999 V2000
   29.7916  -21.0761  -10.0810 N   0  0  0  0  0  0  0  0  0  0  0  0
   29.2660  -20.8392   -8.7826 C   0  0  0  0  0  0  0  0  0  0  0  0
   29.9728  -20.3052   -7.8973 O   0  0  0  0  0  0  0  0  0  0  0  0
   27.8816  -21.2242   -8.4757 C   0  0  0  0  0  0  0  0  0  0  0  0
   27.1550  -21.7767   -9.6804 C   0  0  0  0  0  0  0  0  0  0  0  0
   26.3570  -20.6402  -10.2793 C   0  0  2  0  0  0  0  0  0  0  0  0
   25.2545  -20.3646   -9.3734 N   0  0  0  0  0  0  0  0  0  0  0  0
   25.8027  -20.9810  -11.6139 C   0  0  0  0  0  0  0  0  0  0  0  0
   26.5449  -21.2122  -12.6183 O   0  0  0  0  0  0  0  0  0  0  0  0
   24.4053  -21.0611  -11.8149 N   0  0  0  0  0  0  0  0  0  0  0  0
   23.8231  -21.3581  -13.1095 C   0  0  0  0  0  0  0  0  0  0  0  0
   22.6133  -20.5194  -13.3473 C   0  0  0  0  0  0  0  0  0  0  0  0
   22.2257  -19.6862  -12.4879 O   0  0  0  0  0  0  0  0  0  0  0  0
   21.7124  -18.5840  -16.5766 C   0  0  0  0  0  0  0  0  0  0  0  0
   20.5163  -19.3732  -16.1563 C   0  0  1  0  0  0  0  0  0  0  0  0
   20.3114  -20.5059  -17.1164 C   0  0  0  0  0  0  0  0  0  0  0  0
   20.6496  -19.8364  -14.7206 C   0  0  2  0  0  0  0  0  0  0  0  0
   21.8505  -20.6182  -14.5377 N   0  0  0  0  0  0  0  0  0  0  0  0
   19.4378  -20.5424  -14.2541 C   0  0  0  0  0  0  0  0  0  0  0  0
   19.3746  -21.9161  -14.0705 O   0  0  0  0  0  0  0  0  0  0  0  0
   18.3899  -19.8975  -14.0002 O   0  0  0  0  0  0  0  0  0  0  0  0
  1  2  1  0
  2  3  2  0
  4  5  1  0
  4  2  1  0
  6  7  1  1
  6  8  1  0
  6  5  1  0
  8 10  1  0
  8  9  2  0
 10 11  1  0
 11 12  1  0
 12 18  1  0
 12 13  2  0
 15 14  1  6
 15 17  1  0
 16 15  1  0
 17 19  1  0
 17 18  1  6
 19 20  1  0
 21 19  2  0
M  END
$$$$
