QGV.pdb
     RDKit          3D

 21 20  0  0  1  0  0  0  0  0999 V2000
   16.8418  -23.5477    3.8473 N   0  0  0  0  0  0  0  0  0  0  0  0
   15.9274  -24.1471    2.9402 C   0  0  0  0  0  0  0  0  0  0  0  0
   15.5731  -25.3392    3.0878 O   0  0  0  0  0  0  0  0  0  0  0  0
   15.3927  -23.3617    1.8193 C   0  0  0  0  0  0  0  0  0  0  0  0
   15.9371  -21.9520    1.7900 C   0  0  0  0  0  0  0  0  0  0  0  0
   15.0240  -21.1039    2.6470 C   0  0  2  0  0  0  0  0  0  0  0  0
   13.9155  -20.6819    1.8073 N   0  0  0  0  0  0  0  0  0  0  0  0
   15.7068  -19.8963    3.1763 C   0  0  0  0  0  0  0  0  0  0  0  0
   15.6085  -18.7606    2.6163 O   0  0  0  0  0  0  0  0  0  0  0  0
   16.5034  -19.9717    4.3422 N   0  0  0  0  0  0  0  0  0  0  0  0
   17.2259  -18.8276    4.8639 C   0  0  0  0  0  0  0  0  0  0  0  0
   17.9380  -19.1849    6.1243 C   0  0  0  0  0  0  0  0  0  0  0  0
   17.7867  -20.3166    6.6532 O   0  0  0  0  0  0  0  0  0  0  0  0
   21.1555  -19.9331    6.8710 C   0  0  0  0  0  0  0  0  0  0  0  0
   20.9015  -18.8681    7.8866 C   0  0  1  0  0  0  0  0  0  0  0  0
   21.6647  -17.6348    7.5083 C   0  0  0  0  0  0  0  0  0  0  0  0
   19.4170  -18.6148    8.0468 C   0  0  2  0  0  0  0  0  0  0  0  0
   18.8090  -18.2794    6.7800 N   0  0  0  0  0  0  0  0  0  0  0  0
   19.1390  -17.6080    9.0925 C   0  0  0  0  0  0  0  0  0  0  0  0
   19.1460  -17.8921   10.4504 O   0  0  0  0  0  0  0  0  0  0  0  0
   18.8783  -16.4213    8.7728 O   0  0  0  0  0  0  0  0  0  0  0  0
  1  2  1  0
  2  3  2  0
  4  5  1  0
  4  2  1  0
  6  7  1  6
  6  8  1  0
  6  5  1  0
  8 10  1  0
  8  9  2  0
 10 11  1  0
 11 12  1  0
 12 18  1  0
 12 13  2  0
 15 14  1  6
 15 17  1  0
 16 15  1  0
 17 19  1  0
 17 18  1  6
 19 20  1  0
 21 19  2  0
M  END
$$$$
