QGV.pdb
     RDKit          3D

 21 20  0  0  1  0  0  0  0  0999 V2000
   15.4632  -18.1589  -16.0474 N   0  0  0  0  0  0  0  0  0  0  0  0
   16.7965  -18.2603  -15.5671 C   0  0  0  0  0  0  0  0  0  0  0  0
   17.1270  -19.1914  -14.7978 O   0  0  0  0  0  0  0  0  0  0  0  0
   17.7959  -17.2641  -15.9767 C   0  0  0  0  0  0  0  0  0  0  0  0
   17.2058  -16.1765  -16.8446 C   0  0  0  0  0  0  0  0  0  0  0  0
   18.3311  -15.2311  -17.2011 C   0  0  2  0  0  0  0  0  0  0  0  0
   19.4393  -15.5254  -16.3080 N   0  0  0  0  0  0  0  0  0  0  0  0
   17.9477  -13.8068  -17.0308 C   0  0  0  0  0  0  0  0  0  0  0  0
   17.0224  -13.2667  -17.7128 O   0  0  0  0  0  0  0  0  0  0  0  0
   18.6117  -12.9897  -16.0869 N   0  0  0  0  0  0  0  0  0  0  0  0
   18.1912  -11.6307  -15.8048 C   0  0  0  0  0  0  0  0  0  0  0  0
   18.9466  -10.6604  -16.6482 C   0  0  0  0  0  0  0  0  0  0  0  0
   20.0642  -10.9647  -17.1395 O   0  0  0  0  0  0  0  0  0  0  0  0
   17.7437   -9.2048  -19.7113 C   0  0  0  0  0  0  0  0  0  0  0  0
   18.2835   -8.0276  -18.9677 C   0  0  1  0  0  0  0  0  0  0  0  0
   17.1445   -7.1577  -18.5289 C   0  0  0  0  0  0  0  0  0  0  0  0
   19.1624   -8.4702  -17.8166 C   0  0  2  0  0  0  0  0  0  0  0  0
   18.4492   -9.3644  -16.9341 N   0  0  0  0  0  0  0  0  0  0  0  0
   19.7539   -7.3205  -17.1005 C   0  0  0  0  0  0  0  0  0  0  0  0
   20.8272   -6.5866  -17.5844 O   0  0  0  0  0  0  0  0  0  0  0  0
   19.2864   -6.9591  -15.9917 O   0  0  0  0  0  0  0  0  0  0  0  0
  1  2  1  0
  2  3  2  0
  4  5  1  0
  4  2  1  0
  6  7  1  1
  6  8  1  0
  6  5  1  0
  8 10  1  0
  8  9  2  0
 10 11  1  0
 11 12  1  0
 12 18  1  0
 12 13  2  0
 15 14  1  1
 15 17  1  0
 16 15  1  0
 17 19  1  0
 17 18  1  1
 19 20  1  0
 21 19  2  0
M  END
$$$$
