QGV.pdb
     RDKit          3D

 21 20  0  0  1  0  0  0  0  0999 V2000
   21.4893  -14.3942  -16.9132 N   0  0  0  0  0  0  0  0  0  0  0  0
   20.8720  -14.5898  -18.1777 C   0  0  0  0  0  0  0  0  0  0  0  0
   21.0277  -15.6637  -18.8029 O   0  0  0  0  0  0  0  0  0  0  0  0
   20.0439  -13.5231  -18.7569 C   0  0  0  0  0  0  0  0  0  0  0  0
   20.0513  -12.2660  -17.9180 C   0  0  0  0  0  0  0  0  0  0  0  0
   18.9796  -12.4279  -16.8632 C   0  0  2  0  0  0  0  0  0  0  0  0
   17.7341  -12.7129  -17.5557 N   0  0  0  0  0  0  0  0  0  0  0  0
   18.8003  -11.2006  -16.0469 C   0  0  0  0  0  0  0  0  0  0  0  0
   17.7564  -10.9927  -15.3541 O   0  0  0  0  0  0  0  0  0  0  0  0
   19.8036  -10.2047  -16.0130 N   0  0  0  0  0  0  0  0  0  0  0  0
   19.6390   -8.9617  -15.2844 C   0  0  0  0  0  0  0  0  0  0  0  0
   20.8058   -8.0611  -15.5099 C   0  0  0  0  0  0  0  0  0  0  0  0
   21.8780   -8.5028  -15.9984 O   0  0  0  0  0  0  0  0  0  0  0  0
   20.2746   -4.0812  -16.3040 C   0  0  0  0  0  0  0  0  0  0  0  0
   21.5004   -4.8645  -16.6417 C   0  0  1  0  0  0  0  0  0  0  0  0
   22.6082   -3.9182  -16.9937 C   0  0  0  0  0  0  0  0  0  0  0  0
   21.8685   -5.8074  -15.5151 C   0  0  2  0  0  0  0  0  0  0  0  0
   20.7652   -6.6811  -15.1894 N   0  0  0  0  0  0  0  0  0  0  0  0
   22.3839   -5.0821  -14.3350 C   0  0  0  0  0  0  0  0  0  0  0  0
   23.7071   -4.6891  -14.1951 O   0  0  0  0  0  0  0  0  0  0  0  0
   21.6123   -4.7883  -13.3880 O   0  0  0  0  0  0  0  0  0  0  0  0
  1  2  1  0
  2  3  2  0
  4  5  1  0
  4  2  1  0
  6  7  1  6
  6  8  1  0
  6  5  1  0
  8 10  1  0
  8  9  2  0
 10 11  1  0
 11 12  1  0
 12 18  1  0
 12 13  2  0
 15 14  1  1
 15 17  1  0
 16 15  1  0
 17 19  1  0
 17 18  1  1
 19 20  1  0
 21 19  2  0
M  END
$$$$
