QGV.pdb
     RDKit          3D

 21 20  0  0  1  0  0  0  0  0999 V2000
   14.4107  -13.5560  -14.8364 N   0  0  0  0  0  0  0  0  0  0  0  0
   15.1806  -13.8839  -15.9845 C   0  0  0  0  0  0  0  0  0  0  0  0
   14.8982  -14.8903  -16.6743 O   0  0  0  0  0  0  0  0  0  0  0  0
   16.3178  -13.0351  -16.3658 C   0  0  0  0  0  0  0  0  0  0  0  0
   16.4876  -11.8488  -15.4448 C   0  0  0  0  0  0  0  0  0  0  0  0
   17.7245  -11.1060  -15.8984 C   0  0  2  0  0  0  0  0  0  0  0  0
   18.8644  -11.9683  -15.6358 N   0  0  0  0  0  0  0  0  0  0  0  0
   17.9159   -9.8280  -15.1673 C   0  0  0  0  0  0  0  0  0  0  0  0
   17.1624   -8.8220  -15.3501 O   0  0  0  0  0  0  0  0  0  0  0  0
   18.9618   -9.6856  -14.2264 N   0  0  0  0  0  0  0  0  0  0  0  0
   19.1930   -8.4495  -13.5040 C   0  0  0  0  0  0  0  0  0  0  0  0
   20.4235   -7.7709  -14.0026 C   0  0  0  0  0  0  0  0  0  0  0  0
   21.4262   -8.4377  -14.3678 O   0  0  0  0  0  0  0  0  0  0  0  0
   20.8185   -5.8209  -16.9436 C   0  0  0  0  0  0  0  0  0  0  0  0
   21.3712   -4.9339  -15.8769 C   0  0  1  0  0  0  0  0  0  0  0  0
   20.4059   -3.8174  -15.6156 C   0  0  0  0  0  0  0  0  0  0  0  0
   21.7035   -5.7273  -14.6305 C   0  0  2  0  0  0  0  0  0  0  0  0
   20.5230   -6.3597  -14.0887 N   0  0  0  0  0  0  0  0  0  0  0  0
   22.4170   -4.9076  -13.6288 C   0  0  0  0  0  0  0  0  0  0  0  0
   23.7682   -4.6035  -13.7099 O   0  0  0  0  0  0  0  0  0  0  0  0
   21.8002   -4.4442  -12.6372 O   0  0  0  0  0  0  0  0  0  0  0  0
  1  2  1  0
  2  3  2  0
  4  5  1  0
  4  2  1  0
  6  7  1  1
  6  8  1  0
  6  5  1  0
  8 10  1  0
  8  9  2  0
 10 11  1  0
 11 12  1  0
 12 18  1  0
 12 13  2  0
 15 14  1  6
 15 17  1  0
 16 15  1  0
 17 19  1  0
 17 18  1  1
 19 20  1  0
 21 19  2  0
M  END
$$$$
