IIN.pdb
     RDKit          3D

 25 24  0  0  1  0  0  0  0  0999 V2000
    6.8687  -13.4562   17.9104 C   0  0  0  0  0  0  0  0  0  0  0  0
    7.3918  -14.4334   18.8866 C   0  0  0  0  0  0  0  0  0  0  0  0
    7.8242  -13.9720   20.2139 C   0  0  2  0  0  0  0  0  0  0  0  0
    8.8760  -12.8682   20.1354 C   0  0  0  0  0  0  0  0  0  0  0  0
    8.2667  -14.9476   21.2081 C   0  0  2  0  0  0  0  0  0  0  0  0
    7.2246  -15.9708   21.4384 N   0  0  0  0  0  0  0  0  0  0  0  0
    8.7879  -14.4958   22.5124 C   0  0  0  0  0  0  0  0  0  0  0  0
   10.0246  -14.2495   22.6263 O   0  0  0  0  0  0  0  0  0  0  0  0
    6.6477  -11.4680   27.4839 C   0  0  0  0  0  0  0  0  0  0  0  0
    7.6619  -12.3643   26.8385 C   0  0  0  0  0  0  0  0  0  0  0  0
    7.1200  -13.1673   25.6869 C   0  0  2  0  0  0  0  0  0  0  0  0
    6.2010  -14.2686   26.1670 C   0  0  0  0  0  0  0  0  0  0  0  0
    8.2829  -13.7546   24.9287 C   0  0  2  0  0  0  0  0  0  0  0  0
    7.9600  -14.3262   23.6475 N   0  0  0  0  0  0  0  0  0  0  0  0
    9.1653  -14.5905   25.7321 C   0  0  0  0  0  0  0  0  0  0  0  0
    9.6027  -14.2334   26.8496 O   0  0  0  0  0  0  0  0  0  0  0  0
    9.9239  -17.2280   29.8213 N   0  0  0  0  0  0  0  0  0  0  0  0
   10.0444  -16.5348   28.5954 C   0  0  0  0  0  0  0  0  0  0  0  0
   10.4663  -15.3412   28.5162 O   0  0  0  0  0  0  0  0  0  0  0  0
    9.6554  -17.2520   27.3574 C   0  0  0  0  0  0  0  0  0  0  0  0
   10.4034  -16.7540   26.1482 C   0  0  2  0  0  0  0  0  0  0  0  0
    9.6099  -15.8970   25.3114 N   0  0  0  0  0  0  0  0  0  0  0  0
   10.7355  -17.9688   25.3260 C   0  0  0  0  0  0  0  0  0  0  0  0
   10.2784  -18.0685   24.1545 O   0  0  0  0  0  0  0  0  0  0  0  0
   11.5250  -18.9932   25.7939 O   0  0  0  0  0  0  0  0  0  0  0  0
  2  1  1  0
  2  3  1  0
  3  5  1  0
  3  4  1  6
  5  6  1  1
  7  5  1  0
  7  8  2  0
  9 10  1  0
 10 11  1  0
 11 12  1  1
 13 11  1  0
 13 14  1  6
 14  7  1  0
 15 13  1  0
 16 15  2  0
 17 18  1  0
 18 20  1  0
 18 19  2  0
 21 20  1  1
 21 22  1  0
 22 15  1  0
 23 21  1  0
 23 25  1  0
 24 23  2  0
M  END
$$$$
