IIN.pdb
     RDKit          3D

 25 24  0  0  1  0  0  0  0  0999 V2000
    7.2147  -11.3847   27.2539 C   0  0  0  0  0  0  0  0  0  0  0  0
    7.7577  -12.7260   26.9582 C   0  0  0  0  0  0  0  0  0  0  0  0
    7.2778  -13.4584   25.7772 C   0  0  2  0  0  0  0  0  0  0  0  0
    5.7577  -13.5994   25.7542 C   0  0  0  0  0  0  0  0  0  0  0  0
    7.8571  -14.7599   25.4506 C   0  0  2  0  0  0  0  0  0  0  0  0
    9.2889  -14.8031   25.8169 N   0  0  0  0  0  0  0  0  0  0  0  0
    7.6931  -15.3286   24.0991 C   0  0  0  0  0  0  0  0  0  0  0  0
    6.9754  -16.3611   23.9514 O   0  0  0  0  0  0  0  0  0  0  0  0
    8.5589  -11.7789   19.8411 C   0  0  0  0  0  0  0  0  0  0  0  0
    8.8595  -12.9829   20.6829 C   0  0  0  0  0  0  0  0  0  0  0  0
    7.7969  -14.0470   20.6252 C   0  0  2  0  0  0  0  0  0  0  0  0
    6.4394  -13.4911   20.9941 C   0  0  0  0  0  0  0  0  0  0  0  0
    8.1808  -15.1533   21.5744 C   0  0  2  0  0  0  0  0  0  0  0  0
    8.3081  -14.7666   22.9551 N   0  0  0  0  0  0  0  0  0  0  0  0
    9.2707  -15.9986   21.1048 C   0  0  0  0  0  0  0  0  0  0  0  0
    9.2489  -16.5753   19.9937 O   0  0  0  0  0  0  0  0  0  0  0  0
   13.6762  -15.8850   18.8676 N   0  0  0  0  0  0  0  0  0  0  0  0
   13.5507  -15.1073   20.0410 C   0  0  0  0  0  0  0  0  0  0  0  0
   14.5277  -14.4971   20.5721 O   0  0  0  0  0  0  0  0  0  0  0  0
   12.2089  -15.0126   20.6646 C   0  0  0  0  0  0  0  0  0  0  0  0
   11.7718  -16.3148   21.2831 C   0  0  2  0  0  0  0  0  0  0  0  0
   10.4651  -16.2434   21.8763 N   0  0  0  0  0  0  0  0  0  0  0  0
   12.7362  -16.5967   22.4022 C   0  0  0  0  0  0  0  0  0  0  0  0
   13.8429  -17.1444   22.1439 O   0  0  0  0  0  0  0  0  0  0  0  0
   12.4688  -16.2826   23.7143 O   0  0  0  0  0  0  0  0  0  0  0  0
  2  1  1  0
  2  3  1  0
  3  5  1  0
  3  4  1  1
  5  6  1  6
  7  5  1  0
  7  8  2  0
  9 10  1  0
 10 11  1  0
 11 12  1  1
 13 11  1  0
 13 14  1  1
 14  7  1  0
 15 13  1  0
 16 15  2  0
 17 18  1  0
 18 20  1  0
 18 19  2  0
 21 20  1  1
 21 22  1  0
 22 15  1  0
 23 21  1  0
 23 25  1  0
 24 23  2  0
M  END
$$$$
