IIN.pdb
     RDKit          3D

 25 24  0  0  1  0  0  0  0  0999 V2000
   10.5557  -13.4738   29.7250 C   0  0  0  0  0  0  0  0  0  0  0  0
   10.4527  -14.5231   28.6907 C   0  0  0  0  0  0  0  0  0  0  0  0
   10.0454  -15.8826   29.0748 C   0  0  2  0  0  0  0  0  0  0  0  0
   11.0413  -16.5454   30.0235 C   0  0  0  0  0  0  0  0  0  0  0  0
    9.6963  -16.8514   28.0376 C   0  0  2  0  0  0  0  0  0  0  0  0
   10.8795  -17.1924   27.2193 N   0  0  0  0  0  0  0  0  0  0  0  0
    8.5522  -16.6001   27.1405 C   0  0  0  0  0  0  0  0  0  0  0  0
    7.5488  -17.3703   27.1962 O   0  0  0  0  0  0  0  0  0  0  0  0
    7.4657  -11.4429   25.0694 C   0  0  0  0  0  0  0  0  0  0  0  0
    7.9827  -12.8495   25.0172 C   0  0  0  0  0  0  0  0  0  0  0  0
    6.9235  -13.8961   25.2348 C   0  0  2  0  0  0  0  0  0  0  0  0
    6.2321  -13.7119   26.5674 C   0  0  0  0  0  0  0  0  0  0  0  0
    7.5768  -15.2531   25.1715 C   0  0  2  0  0  0  0  0  0  0  0  0
    8.5291  -15.5298   26.2150 N   0  0  0  0  0  0  0  0  0  0  0  0
    8.0408  -15.6369   23.8447 C   0  0  0  0  0  0  0  0  0  0  0  0
    7.3247  -15.5363   22.8225 O   0  0  0  0  0  0  0  0  0  0  0  0
   10.5820  -15.6495   19.3571 N   0  0  0  0  0  0  0  0  0  0  0  0
   11.3991  -16.0722   20.4301 C   0  0  0  0  0  0  0  0  0  0  0  0
   12.4643  -16.7406   20.2647 O   0  0  0  0  0  0  0  0  0  0  0  0
   10.9754  -15.7080   21.8036 C   0  0  0  0  0  0  0  0  0  0  0  0
    9.8118  -16.5365   22.2823 C   0  0  2  0  0  0  0  0  0  0  0  0
    9.3603  -16.1641   23.5945 N   0  0  0  0  0  0  0  0  0  0  0  0
   10.3135  -17.9506   22.3865 C   0  0  0  0  0  0  0  0  0  0  0  0
    9.8624  -18.8281   21.6004 O   0  0  0  0  0  0  0  0  0  0  0  0
   11.2544  -18.3421   23.3102 O   0  0  0  0  0  0  0  0  0  0  0  0
  2  1  1  0
  2  3  1  0
  3  5  1  0
  3  4  1  6
  5  6  1  6
  7  5  1  0
  7  8  2  0
  9 10  1  0
 10 11  1  0
 11 12  1  1
 13 11  1  0
 13 14  1  1
 14  7  1  0
 15 13  1  0
 16 15  2  0
 17 18  1  0
 18 20  1  0
 18 19  2  0
 21 20  1  1
 21 22  1  0
 22 15  1  0
 23 21  1  0
 23 25  1  0
 24 23  2  0
M  END
$$$$
