IIN.pdb
     RDKit          3D

 25 24  0  0  1  0  0  0  0  0999 V2000
    6.9519  -10.7414   27.1806 C   0  0  0  0  0  0  0  0  0  0  0  0
    7.5073  -12.0972   26.9938 C   0  0  0  0  0  0  0  0  0  0  0  0
    6.8966  -13.0016   26.0087 C   0  0  2  0  0  0  0  0  0  0  0  0
    5.4120  -13.2390   26.2743 C   0  0  0  0  0  0  0  0  0  0  0  0
    7.5187  -14.2953   25.7338 C   0  0  2  0  0  0  0  0  0  0  0  0
    8.9810  -14.2283   25.9417 N   0  0  0  0  0  0  0  0  0  0  0  0
    7.2491  -14.9949   24.4632 C   0  0  0  0  0  0  0  0  0  0  0  0
    6.2068  -15.7069   24.3645 O   0  0  0  0  0  0  0  0  0  0  0  0
    8.1623  -12.0581   20.3827 C   0  0  0  0  0  0  0  0  0  0  0  0
    7.5567  -13.2224   21.1081 C   0  0  0  0  0  0  0  0  0  0  0  0
    8.2837  -14.5216   20.8885 C   0  0  2  0  0  0  0  0  0  0  0  0
    7.9020  -15.1503   19.5668 C   0  0  0  0  0  0  0  0  0  0  0  0
    7.9448  -15.4532   22.0241 C   0  0  2  0  0  0  0  0  0  0  0  0
    8.1111  -14.9041   23.3445 N   0  0  0  0  0  0  0  0  0  0  0  0
    8.4863  -16.7983   21.8818 C   0  0  0  0  0  0  0  0  0  0  0  0
    8.0095  -17.6385   21.0853 O   0  0  0  0  0  0  0  0  0  0  0  0
   12.1403  -19.3312   19.6307 N   0  0  0  0  0  0  0  0  0  0  0  0
   12.5174  -18.2405   20.4468 C   0  0  0  0  0  0  0  0  0  0  0  0
   13.7260  -17.9658   20.7162 O   0  0  0  0  0  0  0  0  0  0  0  0
   11.4372  -17.3910   21.0036 C   0  0  0  0  0  0  0  0  0  0  0  0
   10.6448  -18.0991   22.0713 C   0  0  2  0  0  0  0  0  0  0  0  0
    9.6144  -17.2771   22.6432 N   0  0  0  0  0  0  0  0  0  0  0  0
   11.6118  -18.4088   23.1808 C   0  0  0  0  0  0  0  0  0  0  0  0
   12.6215  -19.1261   22.9411 O   0  0  0  0  0  0  0  0  0  0  0  0
   11.4488  -17.9423   24.4643 O   0  0  0  0  0  0  0  0  0  0  0  0
  2  1  1  0
  2  3  1  0
  3  5  1  0
  3  4  1  1
  5  6  1  6
  7  5  1  0
  7  8  2  0
  9 10  1  0
 10 11  1  0
 11 12  1  6
 13 11  1  0
 13 14  1  1
 14  7  1  0
 15 13  1  0
 16 15  2  0
 17 18  1  0
 18 20  1  0
 18 19  2  0
 21 20  1  6
 21 22  1  0
 22 15  1  0
 23 21  1  0
 23 25  1  0
 24 23  2  0
M  END
$$$$
