IIN.pdb
     RDKit          3D

 25 24  0  0  1  0  0  0  0  0999 V2000
    9.3753  -13.5878   29.5446 C   0  0  0  0  0  0  0  0  0  0  0  0
    8.3552  -14.1558   28.6401 C   0  0  0  0  0  0  0  0  0  0  0  0
    8.7607  -14.6797   27.3276 C   0  0  2  0  0  0  0  0  0  0  0  0
    9.4912  -13.6388   26.4827 C   0  0  0  0  0  0  0  0  0  0  0  0
    7.7718  -15.3387   26.4768 C   0  0  2  0  0  0  0  0  0  0  0  0
    7.0249  -16.3629   27.2379 N   0  0  0  0  0  0  0  0  0  0  0  0
    8.1719  -15.9085   25.1761 C   0  0  0  0  0  0  0  0  0  0  0  0
    8.4328  -17.1453   25.1027 O   0  0  0  0  0  0  0  0  0  0  0  0
    6.3250  -13.2084   21.1846 C   0  0  0  0  0  0  0  0  0  0  0  0
    6.8611  -14.5428   21.6094 C   0  0  0  0  0  0  0  0  0  0  0  0
    8.3620  -14.6402   21.5589 C   0  0  2  0  0  0  0  0  0  0  0  0
    8.8316  -15.2431   20.2536 C   0  0  0  0  0  0  0  0  0  0  0  0
    8.8221  -15.4872   22.7179 C   0  0  2  0  0  0  0  0  0  0  0  0
    8.2780  -15.1270   24.0010 N   0  0  0  0  0  0  0  0  0  0  0  0
   10.2564  -15.7419   22.7457 C   0  0  0  0  0  0  0  0  0  0  0  0
   11.0334  -15.1495   23.5286 O   0  0  0  0  0  0  0  0  0  0  0  0
   13.0148  -19.9292   24.9388 N   0  0  0  0  0  0  0  0  0  0  0  0
   13.0962  -19.0446   23.8395 C   0  0  0  0  0  0  0  0  0  0  0  0
   14.1664  -18.8522   23.1864 O   0  0  0  0  0  0  0  0  0  0  0  0
   11.8646  -18.3182   23.4471 C   0  0  0  0  0  0  0  0  0  0  0  0
   12.0848  -17.4176   22.2597 C   0  0  2  0  0  0  0  0  0  0  0  0
   10.9033  -16.6951   21.8770 N   0  0  0  0  0  0  0  0  0  0  0  0
   12.4308  -18.3169   21.1049 C   0  0  0  0  0  0  0  0  0  0  0  0
   11.5684  -19.1292   20.6714 O   0  0  0  0  0  0  0  0  0  0  0  0
   13.6595  -18.2984   20.4872 O   0  0  0  0  0  0  0  0  0  0  0  0
  2  1  1  0
  2  3  1  0
  3  5  1  0
  3  4  1  6
  5  6  1  1
  7  5  1  0
  7  8  2  0
  9 10  1  0
 10 11  1  0
 11 12  1  6
 13 11  1  0
 13 14  1  1
 14  7  1  0
 15 13  1  0
 16 15  2  0
 17 18  1  0
 18 20  1  0
 18 19  2  0
 21 20  1  1
 21 22  1  0
 22 15  1  0
 23 21  1  0
 23 25  1  0
 24 23  2  0
M  END
$$$$
