IIN.pdb
     RDKit          3D

 25 24  0  0  1  0  0  0  0  0999 V2000
    6.1287  -22.7286   25.7708 C   0  0  0  0  0  0  0  0  0  0  0  0
    5.4425  -21.4867   25.3602 C   0  0  0  0  0  0  0  0  0  0  0  0
    6.2360  -20.3391   24.8967 C   0  0  2  0  0  0  0  0  0  0  0  0
    7.3973  -20.0145   25.8331 C   0  0  0  0  0  0  0  0  0  0  0  0
    5.5635  -19.0859   24.5598 C   0  0  2  0  0  0  0  0  0  0  0  0
    4.4980  -19.3149   23.5607 N   0  0  0  0  0  0  0  0  0  0  0  0
    6.3506  -17.9052   24.1558 C   0  0  0  0  0  0  0  0  0  0  0  0
    6.7239  -17.8005   22.9505 O   0  0  0  0  0  0  0  0  0  0  0  0
    5.5284  -13.1245   26.5741 C   0  0  0  0  0  0  0  0  0  0  0  0
    6.0237  -14.0666   25.5179 C   0  0  0  0  0  0  0  0  0  0  0  0
    7.4081  -14.5972   25.7757 C   0  0  2  0  0  0  0  0  0  0  0  0
    8.4604  -13.5433   25.5117 C   0  0  0  0  0  0  0  0  0  0  0  0
    7.6328  -15.7911   24.8832 C   0  0  2  0  0  0  0  0  0  0  0  0
    6.7086  -16.8800   25.0633 N   0  0  0  0  0  0  0  0  0  0  0  0
    9.0225  -16.2182   24.7874 C   0  0  0  0  0  0  0  0  0  0  0  0
    9.5892  -16.8828   25.6845 O   0  0  0  0  0  0  0  0  0  0  0  0
   13.1736  -18.1332   22.4946 N   0  0  0  0  0  0  0  0  0  0  0  0
   12.4153  -17.5753   21.4404 C   0  0  0  0  0  0  0  0  0  0  0  0
   12.7117  -17.7352   20.2174 O   0  0  0  0  0  0  0  0  0  0  0  0
   11.2234  -16.7701   21.8002 C   0  0  0  0  0  0  0  0  0  0  0  0
   10.9943  -16.7200   23.2883 C   0  0  2  0  0  0  0  0  0  0  0  0
    9.8629  -15.9138   23.6548 N   0  0  0  0  0  0  0  0  0  0  0  0
   12.2057  -16.0542   23.8809 C   0  0  0  0  0  0  0  0  0  0  0  0
   13.3511  -16.5271   23.6445 O   0  0  0  0  0  0  0  0  0  0  0  0
   12.1271  -14.9379   24.6806 O   0  0  0  0  0  0  0  0  0  0  0  0
  2  1  1  0
  2  3  1  0
  3  5  1  0
  3  4  1  1
  5  6  1  6
  7  5  1  0
  7  8  2  0
  9 10  1  0
 10 11  1  0
 11 12  1  6
 13 11  1  0
 13 14  1  1
 14  7  1  0
 15 13  1  0
 16 15  2  0
 17 18  1  0
 18 20  1  0
 18 19  2  0
 21 20  1  6
 21 22  1  0
 22 15  1  0
 23 21  1  0
 23 25  1  0
 24 23  2  0
M  END
$$$$
