IIN.pdb
     RDKit          3D

 25 24  0  0  1  0  0  0  0  0999 V2000
   11.0386  -14.4998   30.8236 C   0  0  0  0  0  0  0  0  0  0  0  0
   10.6098  -15.6488   30.0006 C   0  0  0  0  0  0  0  0  0  0  0  0
    9.6089  -15.4494   28.9424 C   0  0  2  0  0  0  0  0  0  0  0  0
    8.4014  -14.6481   29.4229 C   0  0  0  0  0  0  0  0  0  0  0  0
    9.1160  -16.6009   28.1891 C   0  0  2  0  0  0  0  0  0  0  0  0
   10.2137  -17.5493   27.9039 N   0  0  0  0  0  0  0  0  0  0  0  0
    8.3260  -16.4017   26.9591 C   0  0  0  0  0  0  0  0  0  0  0  0
    7.4603  -17.2685   26.6393 O   0  0  0  0  0  0  0  0  0  0  0  0
    6.6024  -11.4616   26.1652 C   0  0  0  0  0  0  0  0  0  0  0  0
    6.5567  -12.9362   25.8966 C   0  0  0  0  0  0  0  0  0  0  0  0
    7.5099  -13.3897   24.8240 C   0  0  2  0  0  0  0  0  0  0  0  0
    6.9771  -13.0743   23.4439 C   0  0  0  0  0  0  0  0  0  0  0  0
    7.7205  -14.8749   24.9729 C   0  0  2  0  0  0  0  0  0  0  0  0
    8.4964  -15.2774   26.1166 N   0  0  0  0  0  0  0  0  0  0  0  0
    8.1029  -15.5552   23.7426 C   0  0  0  0  0  0  0  0  0  0  0  0
    7.6049  -15.2708   22.6296 O   0  0  0  0  0  0  0  0  0  0  0  0
   13.4855  -15.3790   22.3452 N   0  0  0  0  0  0  0  0  0  0  0  0
   12.1456  -15.3686   21.8955 C   0  0  0  0  0  0  0  0  0  0  0  0
   11.8301  -15.3299   20.6676 O   0  0  0  0  0  0  0  0  0  0  0  0
   11.0748  -15.4050   22.9204 C   0  0  0  0  0  0  0  0  0  0  0  0
   10.1853  -16.6122   22.7764 C   0  0  2  0  0  0  0  0  0  0  0  0
    9.0847  -16.6115   23.7001 N   0  0  0  0  0  0  0  0  0  0  0  0
   11.0331  -17.8061   23.1200 C   0  0  0  0  0  0  0  0  0  0  0  0
   11.9702  -17.6814   23.9553 O   0  0  0  0  0  0  0  0  0  0  0  0
   10.8356  -19.0470   22.5608 O   0  0  0  0  0  0  0  0  0  0  0  0
  2  1  1  0
  2  3  1  0
  3  5  1  0
  3  4  1  1
  5  6  1  6
  7  5  1  0
  7  8  2  0
  9 10  1  0
 10 11  1  0
 11 12  1  6
 13 11  1  0
 13 14  1  1
 14  7  1  0
 15 13  1  0
 16 15  2  0
 17 18  1  0
 18 20  1  0
 18 19  2  0
 21 20  1  1
 21 22  1  0
 22 15  1  0
 23 21  1  0
 23 25  1  0
 24 23  2  0
M  END
$$$$
