IIN.pdb
     RDKit          3D

 25 24  0  0  1  0  0  0  0  0999 V2000
    3.7721  -21.4727   23.4946 C   0  0  0  0  0  0  0  0  0  0  0  0
    3.8511  -20.3381   22.5523 C   0  0  0  0  0  0  0  0  0  0  0  0
    5.1544  -19.7187   22.2709 C   0  0  2  0  0  0  0  0  0  0  0  0
    5.8831  -19.2866   23.5410 C   0  0  0  0  0  0  0  0  0  0  0  0
    5.2396  -18.6235   21.3066 C   0  0  2  0  0  0  0  0  0  0  0  0
    4.5141  -18.9620   20.0636 N   0  0  0  0  0  0  0  0  0  0  0  0
    6.5500  -18.0457   20.9519 C   0  0  0  0  0  0  0  0  0  0  0  0
    7.3718  -18.7484   20.2933 O   0  0  0  0  0  0  0  0  0  0  0  0
    7.6744  -12.4508   22.2456 C   0  0  0  0  0  0  0  0  0  0  0  0
    7.7138  -13.9497   22.2433 C   0  0  0  0  0  0  0  0  0  0  0  0
    8.0531  -14.5480   20.9048 C   0  0  2  0  0  0  0  0  0  0  0  0
    7.0016  -14.2152   19.8698 C   0  0  0  0  0  0  0  0  0  0  0  0
    8.1673  -16.0423   21.0678 C   0  0  2  0  0  0  0  0  0  0  0  0
    6.9295  -16.7328   21.3195 N   0  0  0  0  0  0  0  0  0  0  0  0
    9.2586  -16.4722   21.9321 C   0  0  0  0  0  0  0  0  0  0  0  0
    9.0897  -16.7736   23.1355 O   0  0  0  0  0  0  0  0  0  0  0  0
   13.0045  -19.9271   23.2346 N   0  0  0  0  0  0  0  0  0  0  0  0
   13.3835  -19.0454   22.1970 C   0  0  0  0  0  0  0  0  0  0  0  0
   14.5937  -18.8092   21.8998 O   0  0  0  0  0  0  0  0  0  0  0  0
   12.3034  -18.3760   21.4329 C   0  0  0  0  0  0  0  0  0  0  0  0
   11.6341  -17.2834   22.2252 C   0  0  2  0  0  0  0  0  0  0  0  0
   10.6233  -16.5874   21.4781 N   0  0  0  0  0  0  0  0  0  0  0  0
   12.7037  -16.2748   22.5427 C   0  0  0  0  0  0  0  0  0  0  0  0
   13.5743  -16.5477   23.4139 O   0  0  0  0  0  0  0  0  0  0  0  0
   12.7824  -15.0503   21.9215 O   0  0  0  0  0  0  0  0  0  0  0  0
  2  1  1  0
  2  3  1  0
  3  5  1  0
  3  4  1  1
  5  6  1  6
  7  5  1  0
  7  8  2  0
  9 10  1  0
 10 11  1  0
 11 12  1  6
 13 11  1  0
 13 14  1  1
 14  7  1  0
 15 13  1  0
 16 15  2  0
 17 18  1  0
 18 20  1  0
 18 19  2  0
 21 20  1  6
 21 22  1  0
 22 15  1  0
 23 21  1  0
 23 25  1  0
 24 23  2  0
M  END
$$$$
