NAQ.pdb
     RDKit          3D

 23 22  0  0  1  0  0  0  0  0999 V2000
    8.2609  -20.6256   16.3503 N   0  0  0  0  0  0  0  0  0  0  0  0
    7.5346  -19.5669   16.9601 C   0  0  0  0  0  0  0  0  0  0  0  0
    6.4221  -19.2525   16.4654 O   0  0  0  0  0  0  0  0  0  0  0  0
    8.0450  -18.8312   18.1489 C   0  0  0  0  0  0  0  0  0  0  0  0
    7.8439  -17.3500   17.9620 C   0  0  2  0  0  0  0  0  0  0  0  0
    8.4923  -16.9129   16.7445 N   0  0  0  0  0  0  0  0  0  0  0  0
    8.3094  -16.5445   19.0841 C   0  0  0  0  0  0  0  0  0  0  0  0
    9.5141  -16.6372   19.4313 O   0  0  0  0  0  0  0  0  0  0  0  0
    6.9262  -13.8797   21.4344 C   0  0  0  0  0  0  0  0  0  0  0  0
    7.9476  -14.8750   20.9501 C   0  0  2  0  0  0  0  0  0  0  0  0
    7.5031  -15.6475   19.8322 N   0  0  0  0  0  0  0  0  0  0  0  0
    8.3784  -15.8033   22.0250 C   0  0  0  0  0  0  0  0  0  0  0  0
    8.0941  -17.0169   21.9299 O   0  0  0  0  0  0  0  0  0  0  0  0
   12.6588  -19.2063   23.2389 N   0  0  0  0  0  0  0  0  0  0  0  0
   13.0351  -17.8412   23.2151 C   0  0  0  0  0  0  0  0  0  0  0  0
   14.2729  -17.5738   23.1156 O   0  0  0  0  0  0  0  0  0  0  0  0
   12.0648  -16.7414   23.2927 C   0  0  0  0  0  0  0  0  0  0  0  0
   10.6360  -17.1077   23.1970 C   0  0  0  0  0  0  0  0  0  0  0  0
    9.6606  -16.3812   24.0592 C   0  0  2  0  0  0  0  0  0  0  0  0
    9.0958  -15.3479   23.1417 N   0  0  0  0  0  0  0  0  0  0  0  0
   10.1658  -15.7303   25.2625 C   0  0  0  0  0  0  0  0  0  0  0  0
   10.4081  -14.4971   25.2786 O   0  0  0  0  0  0  0  0  0  0  0  0
   10.4131  -16.4069   26.4573 O   0  0  0  0  0  0  0  0  0  0  0  0
  2  1  1  0
  3  2  2  0
  4  2  1  0
  5  4  1  0
  5  6  1  6
  7 11  1  0
  7  5  1  0
  8  7  2  0
 10  9  1  1
 10 11  1  0
 10 12  1  0
 12 20  1  0
 13 12  2  0
 15 17  1  0
 15 14  1  0
 16 15  2  0
 18 17  1  0
 19 18  1  6
 19 21  1  0
 20 19  1  0
 21 23  1  0
 22 21  2  0
M  END
$$$$
