NAQ.pdb
     RDKit          3D

 23 22  0  0  1  0  0  0  0  0999 V2000
   10.0878  -19.9534   16.9194 N   0  0  0  0  0  0  0  0  0  0  0  0
    9.0604  -19.6791   17.8626 C   0  0  0  0  0  0  0  0  0  0  0  0
    7.9765  -20.3076   17.7546 O   0  0  0  0  0  0  0  0  0  0  0  0
    9.2279  -18.6849   18.9574 C   0  0  0  0  0  0  0  0  0  0  0  0
    8.5298  -17.3998   18.5958 C   0  0  2  0  0  0  0  0  0  0  0  0
    9.0058  -16.9219   17.3158 N   0  0  0  0  0  0  0  0  0  0  0  0
    8.6704  -16.3495   19.5967 C   0  0  0  0  0  0  0  0  0  0  0  0
    9.5228  -16.4988   20.5086 O   0  0  0  0  0  0  0  0  0  0  0  0
    7.1177  -12.9534   20.3840 C   0  0  0  0  0  0  0  0  0  0  0  0
    8.0156  -14.1367   20.6333 C   0  0  2  0  0  0  0  0  0  0  0  0
    7.9126  -15.1500   19.6299 N   0  0  0  0  0  0  0  0  0  0  0  0
    7.7692  -14.7571   21.9589 C   0  0  0  0  0  0  0  0  0  0  0  0
    6.9077  -15.6575   22.0576 O   0  0  0  0  0  0  0  0  0  0  0  0
   11.4837  -18.0095   24.6600 N   0  0  0  0  0  0  0  0  0  0  0  0
   10.5925  -17.8085   25.7422 C   0  0  0  0  0  0  0  0  0  0  0  0
   10.8027  -18.4676   26.8075 O   0  0  0  0  0  0  0  0  0  0  0  0
    9.4580  -16.8777   25.6832 C   0  0  0  0  0  0  0  0  0  0  0  0
    9.3465  -16.0417   24.4694 C   0  0  0  0  0  0  0  0  0  0  0  0
    8.2057  -15.0872   24.3706 C   0  0  2  0  0  0  0  0  0  0  0  0
    8.4811  -14.3548   23.0993 N   0  0  0  0  0  0  0  0  0  0  0  0
    8.0264  -14.1236   25.4506 C   0  0  0  0  0  0  0  0  0  0  0  0
    7.6434  -14.4914   26.5897 O   0  0  0  0  0  0  0  0  0  0  0  0
    8.2598  -12.7555   25.3077 O   0  0  0  0  0  0  0  0  0  0  0  0
  2  1  1  0
  3  2  2  0
  4  2  1  0
  5  4  1  0
  5  6  1  6
  7 11  1  0
  7  5  1  0
  8  7  2  0
 10  9  1  6
 10 11  1  0
 10 12  1  0
 12 20  1  0
 13 12  2  0
 15 17  1  0
 15 14  1  0
 16 15  2  0
 18 17  1  0
 19 18  1  1
 19 21  1  0
 20 19  1  0
 21 23  1  0
 22 21  2  0
M  END
$$$$
