NAQ.pdb
     RDKit          3D

 23 22  0  0  1  0  0  0  0  0999 V2000
    7.2931  -13.0706   18.0443 N   0  0  0  0  0  0  0  0  0  0  0  0
    8.1279  -13.7180   18.9952 C   0  0  0  0  0  0  0  0  0  0  0  0
    8.7496  -14.7485   18.6305 O   0  0  0  0  0  0  0  0  0  0  0  0
    8.2850  -13.2191   20.3886 C   0  0  0  0  0  0  0  0  0  0  0  0
    8.1619  -14.3631   21.3610 C   0  0  2  0  0  0  0  0  0  0  0  0
    6.9159  -15.0655   21.1427 N   0  0  0  0  0  0  0  0  0  0  0  0
    8.2632  -13.9633   22.7591 C   0  0  0  0  0  0  0  0  0  0  0  0
    9.3550  -13.4973   23.1730 O   0  0  0  0  0  0  0  0  0  0  0  0
    6.0383  -13.0860   25.6339 C   0  0  0  0  0  0  0  0  0  0  0  0
    7.3111  -13.6753   25.0851 C   0  0  2  0  0  0  0  0  0  0  0  0
    7.2145  -14.0571   23.7107 N   0  0  0  0  0  0  0  0  0  0  0  0
    7.7694  -14.8481   25.8706 C   0  0  0  0  0  0  0  0  0  0  0  0
    7.8044  -14.7681   27.1177 O   0  0  0  0  0  0  0  0  0  0  0  0
    5.7137  -19.5300   23.0714 N   0  0  0  0  0  0  0  0  0  0  0  0
    6.0432  -19.5564   24.4485 C   0  0  0  0  0  0  0  0  0  0  0  0
    5.8831  -20.6521   25.0709 O   0  0  0  0  0  0  0  0  0  0  0  0
    6.5609  -18.3870   25.1708 C   0  0  0  0  0  0  0  0  0  0  0  0
    8.0126  -18.3660   25.4476 C   0  0  0  0  0  0  0  0  0  0  0  0
    8.5859  -17.1685   26.1257 C   0  0  2  0  0  0  0  0  0  0  0  0
    8.1628  -16.0405   25.2442 N   0  0  0  0  0  0  0  0  0  0  0  0
   10.0314  -17.1161   26.3119 C   0  0  0  0  0  0  0  0  0  0  0  0
   10.5748  -17.6452   27.3141 O   0  0  0  0  0  0  0  0  0  0  0  0
   10.9004  -16.4918   25.4167 O   0  0  0  0  0  0  0  0  0  0  0  0
  2  1  1  0
  3  2  2  0
  4  2  1  0
  5  4  1  0
  5  6  1  1
  7 11  1  0
  7  5  1  0
  8  7  2  0
 10  9  1  1
 10 11  1  0
 10 12  1  0
 12 20  1  0
 13 12  2  0
 15 17  1  0
 15 14  1  0
 16 15  2  0
 18 17  1  0
 19 18  1  6
 19 21  1  0
 20 19  1  0
 21 23  1  0
 22 21  2  0
M  END
$$$$
