NAQ.pdb
     RDKit          3D

 23 22  0  0  1  0  0  0  0  0999 V2000
    7.1651  -12.4258   17.8313 N   0  0  0  0  0  0  0  0  0  0  0  0
    7.5991  -13.7726   17.6966 C   0  0  0  0  0  0  0  0  0  0  0  0
    7.4439  -14.3343   16.5823 O   0  0  0  0  0  0  0  0  0  0  0  0
    8.2223  -14.5254   18.8191 C   0  0  0  0  0  0  0  0  0  0  0  0
    8.3268  -15.9856   18.4633 C   0  0  2  0  0  0  0  0  0  0  0  0
    7.0048  -16.5499   18.2980 N   0  0  0  0  0  0  0  0  0  0  0  0
    9.0825  -16.7758   19.4272 C   0  0  0  0  0  0  0  0  0  0  0  0
    8.6102  -16.9263   20.5825 O   0  0  0  0  0  0  0  0  0  0  0  0
   12.1349  -19.0357   19.4763 C   0  0  0  0  0  0  0  0  0  0  0  0
   11.0798  -18.1691   20.1121 C   0  0  2  0  0  0  0  0  0  0  0  0
   10.3296  -17.4015   19.1676 N   0  0  0  0  0  0  0  0  0  0  0  0
   11.6491  -17.2463   21.1255 C   0  0  0  0  0  0  0  0  0  0  0  0
   12.1772  -16.1786   20.7465 O   0  0  0  0  0  0  0  0  0  0  0  0
    8.9275  -16.1531   26.4125 N   0  0  0  0  0  0  0  0  0  0  0  0
    8.8499  -15.4795   25.1692 C   0  0  0  0  0  0  0  0  0  0  0  0
    7.8483  -14.7238   24.9710 O   0  0  0  0  0  0  0  0  0  0  0  0
    9.8696  -15.6133   24.1206 C   0  0  0  0  0  0  0  0  0  0  0  0
   11.0751  -16.3976   24.4621 C   0  0  0  0  0  0  0  0  0  0  0  0
   12.1501  -16.5241   23.4371 C   0  0  2  0  0  0  0  0  0  0  0  0
   11.6067  -17.5471   22.4955 N   0  0  0  0  0  0  0  0  0  0  0  0
   13.4746  -16.9391   23.8847 C   0  0  0  0  0  0  0  0  0  0  0  0
   13.8328  -18.1420   23.8199 O   0  0  0  0  0  0  0  0  0  0  0  0
   14.4220  -16.0573   24.4057 O   0  0  0  0  0  0  0  0  0  0  0  0
  2  1  1  0
  3  2  2  0
  4  2  1  0
  5  4  1  0
  5  6  1  1
  7 11  1  0
  7  5  1  0
  8  7  2  0
 10  9  1  6
 10 11  1  0
 10 12  1  0
 12 20  1  0
 13 12  2  0
 15 17  1  0
 15 14  1  0
 16 15  2  0
 18 17  1  0
 19 18  1  1
 19 21  1  0
 20 19  1  0
 21 23  1  0
 22 21  2  0
M  END
$$$$
