NFD.pdb
     RDKit          3D

 28 28  0  0  1  0  0  0  0  0999 V2000
   22.4872   -8.4719  -22.7270 N   0  0  0  0  0  0  0  0  0  0  0  0
   21.2513   -9.1375  -22.6154 C   0  0  0  0  0  0  0  0  0  0  0  0
   20.8378   -9.8223  -23.5693 O   0  0  0  0  0  0  0  0  0  0  0  0
   20.4483   -9.0319  -21.3887 C   0  0  0  0  0  0  0  0  0  0  0  0
   21.1192   -9.9289  -20.3629 C   0  0  2  0  0  0  0  0  0  0  0  0
   20.6856  -11.2766  -20.6541 N   0  0  0  0  0  0  0  0  0  0  0  0
   20.7607   -9.6033  -18.9724 C   0  0  0  0  0  0  0  0  0  0  0  0
   19.6664  -10.0579  -18.4938 O   0  0  0  0  0  0  0  0  0  0  0  0
   21.6076   -8.8033  -18.1774 N   0  0  0  0  0  0  0  0  0  0  0  0
   21.2456   -8.3739  -16.8498 C   0  0  1  0  0  0  0  0  0  0  0  0
   22.5745   -8.2175  -16.0879 C   0  0  0  0  0  0  0  0  0  0  0  0
   22.3478   -7.7309  -14.7111 C   0  0  0  0  0  0  0  0  0  0  0  0
   22.0729   -8.6524  -13.7020 C   0  0  0  0  0  0  0  0  0  0  0  0
   21.8489   -8.2751  -12.3954 C   0  0  0  0  0  0  0  0  0  0  0  0
   21.9067   -6.9258  -12.1105 C   0  0  0  0  0  0  0  0  0  0  0  0
   22.1804   -6.0114  -13.1162 C   0  0  0  0  0  0  0  0  0  0  0  0
   22.4026   -6.3940  -14.4152 C   0  0  0  0  0  0  0  0  0  0  0  0
   20.6980   -6.9763  -16.9751 C   0  0  0  0  0  0  0  0  0  0  0  0
   21.3269   -6.0964  -17.6594 O   0  0  0  0  0  0  0  0  0  0  0  0
   19.4853   -6.6004  -16.3439 N   0  0  0  0  0  0  0  0  0  0  0  0
   19.0315   -5.1957  -16.4755 C   0  0  1  0  0  0  0  0  0  0  0  0
   17.7485   -5.1316  -17.2269 C   0  0  0  0  0  0  0  0  0  0  0  0
   17.2339   -3.7601  -17.2754 C   0  0  0  0  0  0  0  0  0  0  0  0
   16.0538   -3.5135  -16.9526 O   0  0  0  0  0  0  0  0  0  0  0  0
   18.8497   -4.7121  -15.0554 C   0  0  0  0  0  0  0  0  0  0  0  0
   18.9939   -5.5069  -13.9478 O   0  0  0  0  0  0  0  0  0  0  0  0
   18.0496   -2.7196  -17.6807 O   0  0  0  0  0  0  0  0  0  0  0  0
   18.5426   -3.4970  -14.8283 O   0  0  0  0  0  0  0  0  0  0  0  0
  1  2  1  0
  2  3  2  0
  4  5  1  0
  4  2  1  0
  5  7  1  0
  5  6  1  6
  7  8  2  0
  9 10  1  0
  9  7  1  0
 10 11  1  1
 11 12  1  0
 12 17  2  0
 13 14  2  0
 13 12  1  0
 14 15  1  0
 15 16  2  0
 17 16  1  0
 18 19  2  0
 18 10  1  0
 20 18  1  0
 21 20  1  0
 21 22  1  6
 22 23  1  0
 23 27  1  0
 23 24  2  0
 25 21  1  0
 26 25  1  0
 28 25  2  0
M  END
$$$$
