NFD.pdb
     RDKit          3D

 28 28  0  0  1  0  0  0  0  0999 V2000
   28.8736  -19.5464  -15.9204 N   0  0  0  0  0  0  0  0  0  0  0  0
   27.9128  -20.3942  -15.3365 C   0  0  0  0  0  0  0  0  0  0  0  0
   26.8525  -20.6273  -15.9460 O   0  0  0  0  0  0  0  0  0  0  0  0
   28.1487  -21.0042  -14.0201 C   0  0  0  0  0  0  0  0  0  0  0  0
   27.1025  -20.4198  -13.0870 C   0  0  2  0  0  0  0  0  0  0  0  0
   27.3246  -18.9917  -13.0686 N   0  0  0  0  0  0  0  0  0  0  0  0
   27.1898  -20.9330  -11.7097 C   0  0  0  0  0  0  0  0  0  0  0  0
   26.9815  -22.1762  -11.4993 O   0  0  0  0  0  0  0  0  0  0  0  0
   27.4978  -20.0711  -10.6366 N   0  0  0  0  0  0  0  0  0  0  0  0
   27.3115  -20.4522   -9.2590 C   0  0  1  0  0  0  0  0  0  0  0  0
   28.0955  -19.4162   -8.4325 C   0  0  0  0  0  0  0  0  0  0  0  0
   28.0158  -19.7137   -6.9872 C   0  0  0  0  0  0  0  0  0  0  0  0
   27.3440  -18.8268   -6.1476 C   0  0  0  0  0  0  0  0  0  0  0  0
   27.2290  -19.0350   -4.7900 C   0  0  0  0  0  0  0  0  0  0  0  0
   27.8129  -20.1751   -4.2758 C   0  0  0  0  0  0  0  0  0  0  0  0
   28.4805  -21.0557   -5.1133 C   0  0  0  0  0  0  0  0  0  0  0  0
   28.5911  -20.8422   -6.4644 C   0  0  0  0  0  0  0  0  0  0  0  0
   25.8633  -20.2044   -8.9275 C   0  0  0  0  0  0  0  0  0  0  0  0
   25.3407  -19.0555   -9.1398 O   0  0  0  0  0  0  0  0  0  0  0  0
   25.0482  -21.2248   -8.3753 N   0  0  0  0  0  0  0  0  0  0  0  0
   23.6016  -20.9523   -8.2043 C   0  0  1  0  0  0  0  0  0  0  0  0
   22.8365  -21.4453   -9.3817 C   0  0  0  0  0  0  0  0  0  0  0  0
   21.4694  -20.9167   -9.3813 C   0  0  0  0  0  0  0  0  0  0  0  0
   20.6186  -21.3587   -8.5824 O   0  0  0  0  0  0  0  0  0  0  0  0
   23.2104  -21.7043   -6.9534 C   0  0  0  0  0  0  0  0  0  0  0  0
   23.7216  -22.9258   -6.5986 O   0  0  0  0  0  0  0  0  0  0  0  0
   21.1033  -19.9203  -10.2675 O   0  0  0  0  0  0  0  0  0  0  0  0
   22.3547  -21.2084   -6.1506 O   0  0  0  0  0  0  0  0  0  0  0  0
  1  2  1  0
  2  3  2  0
  4  5  1  0
  4  2  1  0
  5  7  1  0
  5  6  1  1
  7  8  2  0
  9 10  1  0
  9  7  1  0
 10 11  1  1
 11 12  1  0
 12 17  2  0
 13 14  2  0
 13 12  1  0
 14 15  1  0
 15 16  2  0
 17 16  1  0
 18 19  2  0
 18 10  1  0
 20 18  1  0
 21 20  1  0
 21 22  1  6
 22 23  1  0
 23 27  1  0
 23 24  2  0
 25 21  1  0
 26 25  1  0
 28 25  2  0
M  END
$$$$
