NFD.pdb
     RDKit          3D

 28 28  0  0  1  0  0  0  0  0999 V2000
   28.7746  -18.6766  -19.6308 N   0  0  0  0  0  0  0  0  0  0  0  0
   27.9499  -19.7116  -20.1122 C   0  0  0  0  0  0  0  0  0  0  0  0
   27.8934  -19.9282  -21.3368 O   0  0  0  0  0  0  0  0  0  0  0  0
   27.1587  -20.5350  -19.1866 C   0  0  0  0  0  0  0  0  0  0  0  0
   28.1219  -21.0142  -18.1144 C   0  0  2  0  0  0  0  0  0  0  0  0
   28.8711  -22.1043  -18.6970 N   0  0  0  0  0  0  0  0  0  0  0  0
   27.4525  -21.4949  -16.8942 C   0  0  0  0  0  0  0  0  0  0  0  0
   26.8769  -22.6358  -16.9139 O   0  0  0  0  0  0  0  0  0  0  0  0
   27.4436  -20.7131  -15.7203 N   0  0  0  0  0  0  0  0  0  0  0  0
   26.6939  -21.0861  -14.5470 C   0  0  1  0  0  0  0  0  0  0  0  0
   27.1471  -20.1165  -13.4400 C   0  0  0  0  0  0  0  0  0  0  0  0
   26.4198  -20.3675  -12.1783 C   0  0  0  0  0  0  0  0  0  0  0  0
   25.2950  -19.6005  -11.8791 C   0  0  0  0  0  0  0  0  0  0  0  0
   24.5662  -19.7746  -10.7222 C   0  0  0  0  0  0  0  0  0  0  0  0
   24.9944  -20.7543   -9.8493 C   0  0  0  0  0  0  0  0  0  0  0  0
   26.1136  -21.5158  -10.1495 C   0  0  0  0  0  0  0  0  0  0  0  0
   26.8345  -21.3372  -11.3034 C   0  0  0  0  0  0  0  0  0  0  0  0
   25.2549  -20.7311  -14.8150 C   0  0  0  0  0  0  0  0  0  0  0  0
   24.9604  -19.6343  -15.4051 O   0  0  0  0  0  0  0  0  0  0  0  0
   24.1981  -21.5916  -14.4236 N   0  0  0  0  0  0  0  0  0  0  0  0
   22.8050  -21.1458  -14.6616 C   0  0  1  0  0  0  0  0  0  0  0  0
   22.1173  -22.0684  -15.6054 C   0  0  0  0  0  0  0  0  0  0  0  0
   20.7045  -21.7094  -15.7584 C   0  0  0  0  0  0  0  0  0  0  0  0
   19.8205  -22.3330  -15.1361 O   0  0  0  0  0  0  0  0  0  0  0  0
   22.1492  -21.1791  -13.3006 C   0  0  0  0  0  0  0  0  0  0  0  0
   22.4246  -22.1142  -12.3367 O   0  0  0  0  0  0  0  0  0  0  0  0
   20.3315  -20.6742  -16.5959 O   0  0  0  0  0  0  0  0  0  0  0  0
   21.2798  -20.3020  -12.9882 O   0  0  0  0  0  0  0  0  0  0  0  0
  1  2  1  0
  2  3  2  0
  4  5  1  0
  4  2  1  0
  5  7  1  0
  5  6  1  6
  7  8  2  0
  9 10  1  0
  9  7  1  0
 10 11  1  1
 11 12  1  0
 12 17  2  0
 13 14  2  0
 13 12  1  0
 14 15  1  0
 15 16  2  0
 17 16  1  0
 18 19  2  0
 18 10  1  0
 20 18  1  0
 21 20  1  0
 21 22  1  6
 22 23  1  0
 23 27  1  0
 23 24  2  0
 25 21  1  0
 26 25  1  0
 28 25  2  0
M  END
$$$$
