NFD.pdb
     RDKit          3D

 28 28  0  0  1  0  0  0  0  0999 V2000
   24.1675  -12.4924  -21.3641 N   0  0  0  0  0  0  0  0  0  0  0  0
   22.8390  -12.5087  -20.8975 C   0  0  0  0  0  0  0  0  0  0  0  0
   21.9076  -12.6548  -21.7105 O   0  0  0  0  0  0  0  0  0  0  0  0
   22.5428  -12.3558  -19.4658 C   0  0  0  0  0  0  0  0  0  0  0  0
   23.8788  -12.1428  -18.7755 C   0  0  2  0  0  0  0  0  0  0  0  0
   24.4609  -13.4541  -18.6001 N   0  0  0  0  0  0  0  0  0  0  0  0
   23.7642  -11.4927  -17.4594 C   0  0  0  0  0  0  0  0  0  0  0  0
   23.1551  -12.1062  -16.5182 O   0  0  0  0  0  0  0  0  0  0  0  0
   24.3156  -10.2139  -17.2358 N   0  0  0  0  0  0  0  0  0  0  0  0
   24.2477   -9.5542  -15.9559 C   0  0  1  0  0  0  0  0  0  0  0  0
   25.6905   -9.1223  -15.6351 C   0  0  0  0  0  0  0  0  0  0  0  0
   26.5971  -10.2878  -15.5754 C   0  0  0  0  0  0  0  0  0  0  0  0
   27.5603  -10.4502  -16.5699 C   0  0  0  0  0  0  0  0  0  0  0  0
   28.4396  -11.5115  -16.5830 C   0  0  0  0  0  0  0  0  0  0  0  0
   28.3347  -12.4293  -15.5574 C   0  0  0  0  0  0  0  0  0  0  0  0
   27.3757  -12.2652  -14.5695 C   0  0  0  0  0  0  0  0  0  0  0  0
   26.5033  -11.2060  -14.5625 C   0  0  0  0  0  0  0  0  0  0  0  0
   23.4904   -8.2691  -16.1646 C   0  0  0  0  0  0  0  0  0  0  0  0
   23.6082   -7.6223  -17.2626 O   0  0  0  0  0  0  0  0  0  0  0  0
   22.6369   -7.7450  -15.1610 N   0  0  0  0  0  0  0  0  0  0  0  0
   21.8488   -6.5296  -15.4740 C   0  0  1  0  0  0  0  0  0  0  0  0
   20.4836   -6.6298  -14.8900 C   0  0  0  0  0  0  0  0  0  0  0  0
   19.6861   -5.4415  -15.2065 C   0  0  0  0  0  0  0  0  0  0  0  0
   19.8330   -4.3870  -14.5553 O   0  0  0  0  0  0  0  0  0  0  0  0
   22.6221   -5.3934  -14.8458 C   0  0  0  0  0  0  0  0  0  0  0  0
   23.7363   -5.5605  -14.0648 O   0  0  0  0  0  0  0  0  0  0  0  0
   18.7586   -5.4730  -16.2316 O   0  0  0  0  0  0  0  0  0  0  0  0
   22.2494   -4.1890  -15.0276 O   0  0  0  0  0  0  0  0  0  0  0  0
  1  2  1  0
  2  3  2  0
  4  5  1  0
  4  2  1  0
  5  7  1  0
  5  6  1  1
  7  8  2  0
  9 10  1  0
  9  7  1  0
 10 11  1  6
 11 12  1  0
 12 17  2  0
 13 14  2  0
 13 12  1  0
 14 15  1  0
 15 16  2  0
 17 16  1  0
 18 19  2  0
 18 10  1  0
 20 18  1  0
 21 20  1  0
 21 22  1  1
 22 23  1  0
 23 27  1  0
 23 24  2  0
 25 21  1  0
 26 25  1  0
 28 25  2  0
M  END
$$$$
