NFD.pdb
     RDKit          3D

 28 28  0  0  1  0  0  0  0  0999 V2000
   16.5793  -16.0584  -13.9132 N   0  0  0  0  0  0  0  0  0  0  0  0
   16.4340  -15.3029  -15.0927 C   0  0  0  0  0  0  0  0  0  0  0  0
   17.0611  -15.6385  -16.1144 O   0  0  0  0  0  0  0  0  0  0  0  0
   15.5526  -14.1270  -15.1289 C   0  0  0  0  0  0  0  0  0  0  0  0
   15.0576  -13.9227  -13.7076 C   0  0  2  0  0  0  0  0  0  0  0  0
   13.9980  -14.8841  -13.5027 N   0  0  0  0  0  0  0  0  0  0  0  0
   14.5296  -12.5713  -13.4569 C   0  0  0  0  0  0  0  0  0  0  0  0
   13.3702  -12.2688  -13.9013 O   0  0  0  0  0  0  0  0  0  0  0  0
   15.2867  -11.6225  -12.7387 N   0  0  0  0  0  0  0  0  0  0  0  0
   14.7886  -10.3048  -12.4334 C   0  0  1  0  0  0  0  0  0  0  0  0
   14.7090  -10.2373  -10.8971 C   0  0  0  0  0  0  0  0  0  0  0  0
   13.3963  -10.7083  -10.4083 C   0  0  0  0  0  0  0  0  0  0  0  0
   12.3398   -9.8032  -10.3214 C   0  0  0  0  0  0  0  0  0  0  0  0
   11.0879  -10.1669   -9.8738 C   0  0  0  0  0  0  0  0  0  0  0  0
   10.9087  -11.4851   -9.5061 C   0  0  0  0  0  0  0  0  0  0  0  0
   11.9614  -12.3833   -9.5936 C   0  0  0  0  0  0  0  0  0  0  0  0
   13.2054  -12.0144  -10.0403 C   0  0  0  0  0  0  0  0  0  0  0  0
   15.8703   -9.3281  -12.8138 C   0  0  0  0  0  0  0  0  0  0  0  0
   17.0939   -9.5812  -12.5370 O   0  0  0  0  0  0  0  0  0  0  0  0
   15.5663   -8.1139  -13.4799 N   0  0  0  0  0  0  0  0  0  0  0  0
   16.6894   -7.2412  -13.8960 C   0  0  1  0  0  0  0  0  0  0  0  0
   16.7988   -7.2056  -15.3798 C   0  0  0  0  0  0  0  0  0  0  0  0
   17.8326   -6.2598  -15.8098 C   0  0  0  0  0  0  0  0  0  0  0  0
   18.5811   -5.7144  -14.9732 O   0  0  0  0  0  0  0  0  0  0  0  0
   16.3437   -5.8761  -13.3477 C   0  0  0  0  0  0  0  0  0  0  0  0
   17.2535   -4.8666  -13.1675 O   0  0  0  0  0  0  0  0  0  0  0  0
   17.9924   -5.9581  -17.1498 O   0  0  0  0  0  0  0  0  0  0  0  0
   15.1434   -5.6043  -13.0194 O   0  0  0  0  0  0  0  0  0  0  0  0
  1  2  1  0
  2  3  2  0
  4  5  1  0
  4  2  1  0
  5  7  1  0
  5  6  1  6
  7  8  2  0
  9 10  1  0
  9  7  1  0
 10 11  1  1
 11 12  1  0
 12 17  2  0
 13 14  2  0
 13 12  1  0
 14 15  1  0
 15 16  2  0
 17 16  1  0
 18 19  2  0
 18 10  1  0
 20 18  1  0
 21 20  1  0
 21 22  1  6
 22 23  1  0
 23 27  1  0
 23 24  2  0
 25 21  1  0
 26 25  1  0
 28 25  2  0
M  END
$$$$
