NFD.pdb
     RDKit          3D

 28 28  0  0  1  0  0  0  0  0999 V2000
   15.7118  -11.3344  -18.7809 N   0  0  0  0  0  0  0  0  0  0  0  0
   15.3544  -10.8291  -17.5160 C   0  0  0  0  0  0  0  0  0  0  0  0
   14.1733  -10.4993  -17.3012 O   0  0  0  0  0  0  0  0  0  0  0  0
   16.3582  -10.6882  -16.4514 C   0  0  0  0  0  0  0  0  0  0  0  0
   17.6654  -11.2031  -17.0286 C   0  0  2  0  0  0  0  0  0  0  0  0
   17.5730  -12.6455  -17.0243 N   0  0  0  0  0  0  0  0  0  0  0  0
   18.8504  -10.7994  -16.2535 C   0  0  0  0  0  0  0  0  0  0  0  0
   18.8292  -10.9251  -14.9820 O   0  0  0  0  0  0  0  0  0  0  0  0
   19.9927  -10.2819  -16.8989 N   0  0  0  0  0  0  0  0  0  0  0  0
   21.1742   -9.8796  -16.1777 C   0  0  1  0  0  0  0  0  0  0  0  0
   22.3636  -10.3534  -17.0332 C   0  0  0  0  0  0  0  0  0  0  0  0
   23.6509   -9.9522  -16.4286 C   0  0  0  0  0  0  0  0  0  0  0  0
   24.2703   -8.7822  -16.8647 C   0  0  0  0  0  0  0  0  0  0  0  0
   25.4716   -8.3440  -16.3503 C   0  0  0  0  0  0  0  0  0  0  0  0
   26.0555   -9.1173  -15.3673 C   0  0  0  0  0  0  0  0  0  0  0  0
   25.4371  -10.2807  -14.9353 C   0  0  0  0  0  0  0  0  0  0  0  0
   24.2408  -10.7111  -15.4519 C   0  0  0  0  0  0  0  0  0  0  0  0
   21.2283   -8.3752  -16.2290 C   0  0  0  0  0  0  0  0  0  0  0  0
   20.9534   -7.7569  -17.3154 O   0  0  0  0  0  0  0  0  0  0  0  0
   21.5830   -7.6109  -15.0887 N   0  0  0  0  0  0  0  0  0  0  0  0
   21.5836   -6.1336  -15.2061 C   0  0  1  0  0  0  0  0  0  0  0  0
   20.1924   -5.6072  -15.1578 C   0  0  0  0  0  0  0  0  0  0  0  0
   20.1834   -4.1416  -15.1425 C   0  0  0  0  0  0  0  0  0  0  0  0
   21.1119   -3.4959  -15.6702 O   0  0  0  0  0  0  0  0  0  0  0  0
   22.3847   -5.6504  -14.0195 C   0  0  0  0  0  0  0  0  0  0  0  0
   22.9896   -4.4223  -13.9484 O   0  0  0  0  0  0  0  0  0  0  0  0
   19.1451   -3.4536  -14.5418 O   0  0  0  0  0  0  0  0  0  0  0  0
   22.5325   -6.3998  -13.0001 O   0  0  0  0  0  0  0  0  0  0  0  0
  1  2  1  0
  2  3  2  0
  4  5  1  0
  4  2  1  0
  5  7  1  0
  5  6  1  1
  7  8  2  0
  9 10  1  0
  9  7  1  0
 10 11  1  6
 11 12  1  0
 12 17  2  0
 13 14  2  0
 13 12  1  0
 14 15  1  0
 15 16  2  0
 17 16  1  0
 18 19  2  0
 18 10  1  0
 20 18  1  0
 21 20  1  0
 21 22  1  1
 22 23  1  0
 23 27  1  0
 23 24  2  0
 25 21  1  0
 26 25  1  0
 28 25  2  0
M  END
$$$$
