NFD.pdb
     RDKit          3D

 28 28  0  0  1  0  0  0  0  0999 V2000
   20.6110  -15.3734  -21.7708 N   0  0  0  0  0  0  0  0  0  0  0  0
   19.6878  -15.1442  -20.7325 C   0  0  0  0  0  0  0  0  0  0  0  0
   18.4734  -15.0776  -20.9984 O   0  0  0  0  0  0  0  0  0  0  0  0
   20.1423  -14.9837  -19.3438 C   0  0  0  0  0  0  0  0  0  0  0  0
   21.6576  -15.0819  -19.3783 C   0  0  2  0  0  0  0  0  0  0  0  0
   21.9784  -16.4850  -19.2466 N   0  0  0  0  0  0  0  0  0  0  0  0
   22.3204  -14.3380  -18.2942 C   0  0  0  0  0  0  0  0  0  0  0  0
   21.9507  -14.5433  -17.0882 O   0  0  0  0  0  0  0  0  0  0  0  0
   23.3468  -13.4128  -18.5766 N   0  0  0  0  0  0  0  0  0  0  0  0
   24.0638  -12.7115  -17.5412 C   0  0  1  0  0  0  0  0  0  0  0  0
   25.5443  -12.7508  -17.9626 C   0  0  0  0  0  0  0  0  0  0  0  0
   26.3990  -12.0533  -16.9794 C   0  0  0  0  0  0  0  0  0  0  0  0
   27.0151  -10.8570  -17.3434 C   0  0  0  0  0  0  0  0  0  0  0  0
   27.8271  -10.1503  -16.4827 C   0  0  0  0  0  0  0  0  0  0  0  0
   28.0154  -10.6755  -15.2202 C   0  0  0  0  0  0  0  0  0  0  0  0
   27.4013  -11.8656  -14.8608 C   0  0  0  0  0  0  0  0  0  0  0  0
   26.5939  -12.5641  -15.7229 C   0  0  0  0  0  0  0  0  0  0  0  0
   23.6665  -11.2618  -17.6376 C   0  0  0  0  0  0  0  0  0  0  0  0
   23.6160  -10.6815  -18.7772 O   0  0  0  0  0  0  0  0  0  0  0  0
   23.3428  -10.5077  -16.4814 N   0  0  0  0  0  0  0  0  0  0  0  0
   22.9492   -9.0896  -16.6556 C   0  0  1  0  0  0  0  0  0  0  0  0
   21.9442   -8.6986  -15.6299 C   0  0  0  0  0  0  0  0  0  0  0  0
   21.5636   -7.2906  -15.7744 C   0  0  0  0  0  0  0  0  0  0  0  0
   21.4280   -6.7830  -16.9064 O   0  0  0  0  0  0  0  0  0  0  0  0
   24.2302   -8.3072  -16.4814 C   0  0  0  0  0  0  0  0  0  0  0  0
   25.3831   -8.8270  -15.9525 O   0  0  0  0  0  0  0  0  0  0  0  0
   21.3503   -6.5044  -14.6570 O   0  0  0  0  0  0  0  0  0  0  0  0
   24.2856   -7.0846  -16.8346 O   0  0  0  0  0  0  0  0  0  0  0  0
  1  2  1  0
  2  3  2  0
  4  5  1  0
  4  2  1  0
  5  7  1  0
  5  6  1  1
  7  8  2  0
  9 10  1  0
  9  7  1  0
 10 11  1  6
 11 12  1  0
 12 17  2  0
 13 14  2  0
 13 12  1  0
 14 15  1  0
 15 16  2  0
 17 16  1  0
 18 19  2  0
 18 10  1  0
 20 18  1  0
 21 20  1  0
 21 22  1  1
 22 23  1  0
 23 27  1  0
 23 24  2  0
 25 21  1  0
 26 25  1  0
 28 25  2  0
M  END
$$$$
