NFD.pdb
     RDKit          3D

 28 28  0  0  1  0  0  0  0  0999 V2000
   27.0414  -19.8852  -16.3623 N   0  0  0  0  0  0  0  0  0  0  0  0
   27.4052  -19.3834  -15.0979 C   0  0  0  0  0  0  0  0  0  0  0  0
   28.1728  -18.4058  -15.0263 O   0  0  0  0  0  0  0  0  0  0  0  0
   26.8895  -19.9999  -13.8671 C   0  0  0  0  0  0  0  0  0  0  0  0
   28.1058  -20.4140  -13.0571 C   0  0  2  0  0  0  0  0  0  0  0  0
   28.7269  -21.5003  -13.7805 N   0  0  0  0  0  0  0  0  0  0  0  0
   27.7785  -20.8733  -11.6970 C   0  0  0  0  0  0  0  0  0  0  0  0
   27.1473  -21.9750  -11.5521 O   0  0  0  0  0  0  0  0  0  0  0  0
   28.1530  -20.1136  -10.5692 N   0  0  0  0  0  0  0  0  0  0  0  0
   27.8138  -20.5052   -9.2241 C   0  0  1  0  0  0  0  0  0  0  0  0
   28.5502  -19.5131   -8.3053 C   0  0  0  0  0  0  0  0  0  0  0  0
   28.2130  -19.7472   -6.8857 C   0  0  0  0  0  0  0  0  0  0  0  0
   28.7710  -20.8416   -6.2270 C   0  0  0  0  0  0  0  0  0  0  0  0
   28.5031  -21.1260   -4.9052 C   0  0  0  0  0  0  0  0  0  0  0  0
   27.6457  -20.2740   -4.2387 C   0  0  0  0  0  0  0  0  0  0  0  0
   27.0922  -19.1861   -4.8964 C   0  0  0  0  0  0  0  0  0  0  0  0
   27.3634  -18.9087   -6.2127 C   0  0  0  0  0  0  0  0  0  0  0  0
   26.3503  -20.2031   -9.0353 C   0  0  0  0  0  0  0  0  0  0  0  0
   25.8910  -19.0408   -9.3113 O   0  0  0  0  0  0  0  0  0  0  0  0
   25.4511  -21.1863   -8.5504 N   0  0  0  0  0  0  0  0  0  0  0  0
   24.0122  -20.8416   -8.4668 C   0  0  1  0  0  0  0  0  0  0  0  0
   23.2601  -21.4725   -9.5854 C   0  0  0  0  0  0  0  0  0  0  0  0
   22.6277  -20.4583  -10.4337 C   0  0  0  0  0  0  0  0  0  0  0  0
   22.7197  -19.2465  -10.1498 O   0  0  0  0  0  0  0  0  0  0  0  0
   23.5584  -21.3909   -7.1342 C   0  0  0  0  0  0  0  0  0  0  0  0
   24.3407  -22.1610   -6.3131 O   0  0  0  0  0  0  0  0  0  0  0  0
   21.9189  -20.8309  -11.5611 O   0  0  0  0  0  0  0  0  0  0  0  0
   22.3825  -21.1473   -6.7094 O   0  0  0  0  0  0  0  0  0  0  0  0
  1  2  1  0
  2  3  2  0
  4  5  1  0
  4  2  1  0
  5  7  1  0
  5  6  1  6
  7  8  2  0
  9 10  1  0
  9  7  1  0
 10 11  1  1
 11 12  1  0
 12 17  2  0
 13 14  2  0
 13 12  1  0
 14 15  1  0
 15 16  2  0
 17 16  1  0
 18 19  2  0
 18 10  1  0
 20 18  1  0
 21 20  1  0
 21 22  1  6
 22 23  1  0
 23 27  1  0
 23 24  2  0
 25 21  1  0
 26 25  1  0
 28 25  2  0
M  END
$$$$
