NFD.pdb
     RDKit          3D

 28 28  0  0  1  0  0  0  0  0999 V2000
   28.7704  -18.3150  -17.3307 N   0  0  0  0  0  0  0  0  0  0  0  0
   28.1882  -18.2701  -16.0493 C   0  0  0  0  0  0  0  0  0  0  0  0
   28.4226  -17.2998  -15.3054 O   0  0  0  0  0  0  0  0  0  0  0  0
   27.3100  -19.3530  -15.5838 C   0  0  0  0  0  0  0  0  0  0  0  0
   27.9223  -19.8725  -14.2945 C   0  0  2  0  0  0  0  0  0  0  0  0
   29.0490  -20.6919  -14.6795 N   0  0  0  0  0  0  0  0  0  0  0  0
   26.9958  -20.6850  -13.4886 C   0  0  0  0  0  0  0  0  0  0  0  0
   26.6929  -21.8592  -13.8918 O   0  0  0  0  0  0  0  0  0  0  0  0
   26.4487  -20.1804  -12.2905 N   0  0  0  0  0  0  0  0  0  0  0  0
   25.5631  -20.9543  -11.4571 C   0  0  1  0  0  0  0  0  0  0  0  0
   25.5169  -20.2181  -10.1055 C   0  0  0  0  0  0  0  0  0  0  0  0
   26.7375  -20.4764   -9.3136 C   0  0  0  0  0  0  0  0  0  0  0  0
   27.6819  -21.3804   -9.7973 C   0  0  0  0  0  0  0  0  0  0  0  0
   28.8431  -21.6742   -9.1154 C   0  0  0  0  0  0  0  0  0  0  0  0
   29.0467  -21.0307   -7.9115 C   0  0  0  0  0  0  0  0  0  0  0  0
   28.1057  -20.1318   -7.4328 C   0  0  0  0  0  0  0  0  0  0  0  0
   26.9516  -19.8439   -8.1170 C   0  0  0  0  0  0  0  0  0  0  0  0
   24.1789  -20.8065  -12.0323 C   0  0  0  0  0  0  0  0  0  0  0  0
   23.6776  -19.6433  -12.2154 O   0  0  0  0  0  0  0  0  0  0  0  0
   23.4007  -21.9392  -12.3813 N   0  0  0  0  0  0  0  0  0  0  0  0
   22.0763  -21.7152  -13.0074 C   0  0  1  0  0  0  0  0  0  0  0  0
   21.5182  -22.9972  -13.5172 C   0  0  0  0  0  0  0  0  0  0  0  0
   20.2332  -22.7828  -14.1889 C   0  0  0  0  0  0  0  0  0  0  0  0
   19.7356  -21.6403  -14.2566 O   0  0  0  0  0  0  0  0  0  0  0  0
   21.2140  -21.1537  -11.9008 C   0  0  0  0  0  0  0  0  0  0  0  0
   21.2247  -21.6127  -10.6091 O   0  0  0  0  0  0  0  0  0  0  0  0
   19.5537  -23.8449  -14.7567 O   0  0  0  0  0  0  0  0  0  0  0  0
   20.4122  -20.1932  -12.1400 O   0  0  0  0  0  0  0  0  0  0  0  0
  1  2  1  0
  2  3  2  0
  4  5  1  0
  4  2  1  0
  5  7  1  0
  5  6  1  6
  7  8  2  0
  9 10  1  0
  9  7  1  0
 10 11  1  1
 11 12  1  0
 12 17  2  0
 13 14  2  0
 13 12  1  0
 14 15  1  0
 15 16  2  0
 17 16  1  0
 18 19  2  0
 18 10  1  0
 20 18  1  0
 21 20  1  0
 21 22  1  1
 22 23  1  0
 23 27  1  0
 23 24  2  0
 25 21  1  0
 26 25  1  0
 28 25  2  0
M  END
$$$$
