NFD.pdb
     RDKit          3D

 28 28  0  0  1  0  0  0  0  0999 V2000
   28.1103  -21.9981  -20.8698 N   0  0  0  0  0  0  0  0  0  0  0  0
   27.7143  -21.4344  -19.6416 C   0  0  0  0  0  0  0  0  0  0  0  0
   27.8882  -20.2178  -19.4434 O   0  0  0  0  0  0  0  0  0  0  0  0
   27.1000  -22.2653  -18.5961 C   0  0  0  0  0  0  0  0  0  0  0  0
   27.7084  -21.8116  -17.2804 C   0  0  2  0  0  0  0  0  0  0  0  0
   28.9495  -22.5376  -17.1332 N   0  0  0  0  0  0  0  0  0  0  0  0
   26.8551  -22.0853  -16.1121 C   0  0  0  0  0  0  0  0  0  0  0  0
   26.2916  -23.2280  -16.0127 O   0  0  0  0  0  0  0  0  0  0  0  0
   26.6596  -21.1059  -15.1161 N   0  0  0  0  0  0  0  0  0  0  0  0
   25.8927  -21.3581  -13.9219 C   0  0  1  0  0  0  0  0  0  0  0  0
   26.3123  -20.2656  -12.9213 C   0  0  0  0  0  0  0  0  0  0  0  0
   25.6285  -20.4382  -11.6227 C   0  0  0  0  0  0  0  0  0  0  0  0
   24.3632  -19.8818  -11.4426 C   0  0  0  0  0  0  0  0  0  0  0  0
   23.6640  -19.9989  -10.2606 C   0  0  0  0  0  0  0  0  0  0  0  0
   24.2692  -20.7004   -9.2375 C   0  0  0  0  0  0  0  0  0  0  0  0
   25.5279  -21.2528   -9.4194 C   0  0  0  0  0  0  0  0  0  0  0  0
   26.2185  -21.1325  -10.5992 C   0  0  0  0  0  0  0  0  0  0  0  0
   24.4545  -21.0563  -14.2525 C   0  0  0  0  0  0  0  0  0  0  0  0
   24.1482  -19.9821  -14.8773 O   0  0  0  0  0  0  0  0  0  0  0  0
   23.4114  -21.9429  -13.8832 N   0  0  0  0  0  0  0  0  0  0  0  0
   22.0214  -21.5830  -14.2499 C   0  0  1  0  0  0  0  0  0  0  0  0
   21.3281  -22.7465  -14.8668 C   0  0  0  0  0  0  0  0  0  0  0  0
   19.9633  -22.3946  -15.2688 C   0  0  0  0  0  0  0  0  0  0  0  0
   19.0614  -23.2571  -15.2751 O   0  0  0  0  0  0  0  0  0  0  0  0
   21.3647  -21.1931  -12.9460 C   0  0  0  0  0  0  0  0  0  0  0  0
   21.2865  -22.0118  -11.8492 O   0  0  0  0  0  0  0  0  0  0  0  0
   19.6562  -21.1006  -15.6478 O   0  0  0  0  0  0  0  0  0  0  0  0
   20.8379  -20.0408  -12.8150 O   0  0  0  0  0  0  0  0  0  0  0  0
  1  2  1  0
  2  3  2  0
  4  5  1  0
  4  2  1  0
  5  7  1  0
  5  6  1  1
  7  8  2  0
  9 10  1  0
  9  7  1  0
 10 11  1  1
 11 12  1  0
 12 17  2  0
 13 14  2  0
 13 12  1  0
 14 15  1  0
 15 16  2  0
 17 16  1  0
 18 19  2  0
 18 10  1  0
 20 18  1  0
 21 20  1  0
 21 22  1  1
 22 23  1  0
 23 27  1  0
 23 24  2  0
 25 21  1  0
 26 25  1  0
 28 25  2  0
M  END
$$$$
