NFD.pdb
     RDKit          3D

 28 28  0  0  1  0  0  0  0  0999 V2000
   21.4495  -33.7499   -8.2487 N   0  0  0  0  0  0  0  0  0  0  0  0
   22.4780  -33.4742   -7.3272 C   0  0  0  0  0  0  0  0  0  0  0  0
   22.5399  -32.3483   -6.7995 O   0  0  0  0  0  0  0  0  0  0  0  0
   23.4748  -34.4986   -6.9839 C   0  0  0  0  0  0  0  0  0  0  0  0
   24.7540  -34.1046   -7.7017 C   0  0  2  0  0  0  0  0  0  0  0  0
   24.6518  -34.6398   -9.0404 N   0  0  0  0  0  0  0  0  0  0  0  0
   25.9721  -34.6363   -7.0679 C   0  0  0  0  0  0  0  0  0  0  0  0
   26.0488  -35.8898   -6.8315 O   0  0  0  0  0  0  0  0  0  0  0  0
   27.0396  -33.7805   -6.7253 N   0  0  0  0  0  0  0  0  0  0  0  0
   28.2166  -34.2478   -6.0368 C   0  0  1  0  0  0  0  0  0  0  0  0
   29.2690  -33.1379   -6.2145 C   0  0  0  0  0  0  0  0  0  0  0  0
   30.5342  -33.4865   -5.5351 C   0  0  0  0  0  0  0  0  0  0  0  0
   31.5353  -34.1355   -6.2559 C   0  0  0  0  0  0  0  0  0  0  0  0
   32.7405  -34.4939   -5.6915 C   0  0  0  0  0  0  0  0  0  0  0  0
   32.9299  -34.1831   -4.3601 C   0  0  0  0  0  0  0  0  0  0  0  0
   31.9324  -33.5374   -3.6455 C   0  0  0  0  0  0  0  0  0  0  0  0
   30.7347  -33.1833   -4.2138 C   0  0  0  0  0  0  0  0  0  0  0  0
   27.8925  -34.2498   -4.5659 C   0  0  0  0  0  0  0  0  0  0  0  0
   27.3428  -33.2281   -4.0254 O   0  0  0  0  0  0  0  0  0  0  0  0
   28.1857  -35.3701   -3.7478 N   0  0  0  0  0  0  0  0  0  0  0  0
   27.8679  -35.2866   -2.3027 C   0  0  1  0  0  0  0  0  0  0  0  0
   26.6212  -36.0407   -1.9996 C   0  0  0  0  0  0  0  0  0  0  0  0
   26.7504  -37.4493   -2.3836 C   0  0  0  0  0  0  0  0  0  0  0  0
   27.8267  -37.8864   -2.8395 O   0  0  0  0  0  0  0  0  0  0  0  0
   29.0568  -35.9082   -1.6075 C   0  0  0  0  0  0  0  0  0  0  0  0
   30.0499  -36.5994   -2.2519 O   0  0  0  0  0  0  0  0  0  0  0  0
   25.6798  -38.3138   -2.2466 O   0  0  0  0  0  0  0  0  0  0  0  0
   29.1830  -35.8077   -0.3439 O   0  0  0  0  0  0  0  0  0  0  0  0
  1  2  1  0
  2  3  2  0
  4  5  1  0
  4  2  1  0
  5  7  1  0
  5  6  1  6
  7  8  2  0
  9 10  1  0
  9  7  1  0
 10 11  1  1
 11 12  1  0
 12 17  2  0
 13 14  2  0
 13 12  1  0
 14 15  1  0
 15 16  2  0
 17 16  1  0
 18 19  2  0
 18 10  1  0
 20 18  1  0
 21 20  1  0
 21 22  1  6
 22 23  1  0
 23 27  1  0
 23 24  2  0
 25 21  1  0
 26 25  1  0
 28 25  2  0
M  END
$$$$
