NFD.pdb
     RDKit          3D

 28 28  0  0  1  0  0  0  0  0999 V2000
   14.6188  -23.5721    1.1922 N   0  0  0  0  0  0  0  0  0  0  0  0
   15.0242  -22.2712    0.8368 C   0  0  0  0  0  0  0  0  0  0  0  0
   14.3794  -21.6441   -0.0240 O   0  0  0  0  0  0  0  0  0  0  0  0
   16.1960  -21.6493    1.4699 C   0  0  0  0  0  0  0  0  0  0  0  0
   15.6615  -20.7895    2.6021 C   0  0  2  0  0  0  0  0  0  0  0  0
   14.8545  -19.7604    1.9867 N   0  0  0  0  0  0  0  0  0  0  0  0
   16.7175  -20.1504    3.4048 C   0  0  0  0  0  0  0  0  0  0  0  0
   17.8958  -20.6445    3.3814 O   0  0  0  0  0  0  0  0  0  0  0  0
   16.4385  -19.0113    4.1884 N   0  0  0  0  0  0  0  0  0  0  0  0
   17.4501  -18.3377    4.9635 C   0  0  1  0  0  0  0  0  0  0  0  0
   17.1607  -16.8337    4.8051 C   0  0  0  0  0  0  0  0  0  0  0  0
   17.9598  -16.2476    3.7088 C   0  0  0  0  0  0  0  0  0  0  0  0
   17.7725  -14.9076    3.3736 C   0  0  0  0  0  0  0  0  0  0  0  0
   18.4786  -14.2913    2.3630 C   0  0  0  0  0  0  0  0  0  0  0  0
   19.3979  -15.0596    1.6776 C   0  0  0  0  0  0  0  0  0  0  0  0
   19.5822  -16.3922    2.0132 C   0  0  0  0  0  0  0  0  0  0  0  0
   18.8758  -16.9996    3.0208 C   0  0  0  0  0  0  0  0  0  0  0  0
   17.1678  -18.6416    6.4115 C   0  0  0  0  0  0  0  0  0  0  0  0
   15.9610  -18.7330    6.8277 O   0  0  0  0  0  0  0  0  0  0  0  0
   18.2193  -18.8307    7.3436 N   0  0  0  0  0  0  0  0  0  0  0  0
   17.8644  -19.1225    8.7526 C   0  0  1  0  0  0  0  0  0  0  0  0
   18.9189  -19.9545    9.3934 C   0  0  0  0  0  0  0  0  0  0  0  0
   18.5543  -20.2994   10.7704 C   0  0  0  0  0  0  0  0  0  0  0  0
   17.3601  -20.4823   11.0836 O   0  0  0  0  0  0  0  0  0  0  0  0
   17.7679  -17.7685    9.4167 C   0  0  0  0  0  0  0  0  0  0  0  0
   16.9750  -17.4989   10.5020 O   0  0  0  0  0  0  0  0  0  0  0  0
   19.5295  -20.4262   11.7425 O   0  0  0  0  0  0  0  0  0  0  0  0
   18.4489  -16.7883    8.9718 O   0  0  0  0  0  0  0  0  0  0  0  0
  1  2  1  0
  2  3  2  0
  4  5  1  0
  4  2  1  0
  5  7  1  0
  5  6  1  6
  7  8  2  0
  9 10  1  0
  9  7  1  0
 10 11  1  1
 11 12  1  0
 12 17  2  0
 13 14  2  0
 13 12  1  0
 14 15  1  0
 15 16  2  0
 17 16  1  0
 18 19  2  0
 18 10  1  0
 20 18  1  0
 21 20  1  0
 21 22  1  1
 22 23  1  0
 23 27  1  0
 23 24  2  0
 25 21  1  0
 26 25  1  0
 28 25  2  0
M  END
$$$$
