LRM.pdb
     RDKit          3D

 28 27  0  0  1  0  0  0  0  0999 V2000
   25.3489  -15.7950  -19.8413 C   0  0  0  0  0  0  0  0  0  0  0  0
   24.4214  -16.6192  -20.7319 C   0  0  2  0  0  0  0  0  0  0  0  0
   23.4506  -15.6893  -21.4258 C   0  0  0  0  0  0  0  0  0  0  0  0
   23.7425  -17.6182  -19.8394 C   0  0  0  0  0  0  0  0  0  0  0  0
   24.7506  -18.4590  -19.0828 C   0  0  2  0  0  0  0  0  0  0  0  0
   25.2979  -19.5008  -19.9319 N   0  0  0  0  0  0  0  0  0  0  0  0
   24.1089  -19.1099  -17.9042 C   0  0  0  0  0  0  0  0  0  0  0  0
   23.3787  -20.1378  -18.0786 O   0  0  0  0  0  0  0  0  0  0  0  0
   25.4622  -21.0598   -9.3031 N   0  0  0  0  0  0  0  0  0  0  0  0
   25.9896  -21.5801  -10.5355 C   0  0  0  0  0  0  0  0  0  0  0  0
   26.7669  -22.6012  -10.4647 N   0  0  0  0  0  0  0  0  0  0  0  0
   25.6428  -20.9623  -11.7535 N   0  0  0  0  0  0  0  0  0  0  0  0
   24.6849  -19.8889  -11.8013 C   0  0  0  0  0  0  0  0  0  0  0  0
   23.8183  -20.0164  -13.0597 C   0  0  0  0  0  0  0  0  0  0  0  0
   24.4631  -19.3260  -14.2333 C   0  0  0  0  0  0  0  0  0  0  0  0
   23.6337  -19.3658  -15.4975 C   0  0  2  0  0  0  0  0  0  0  0  0
   24.2596  -18.6532  -16.5726 N   0  0  0  0  0  0  0  0  0  0  0  0
   22.2311  -18.8655  -15.2691 C   0  0  0  0  0  0  0  0  0  0  0  0
   22.0191  -17.6749  -14.9308 O   0  0  0  0  0  0  0  0  0  0  0  0
   27.2076  -23.0177  -11.3021 C   0  0  0  0  0  0  0  0  0  0  0  0
   17.5083  -18.4667  -20.1190 S   0  0  0  0  0  0  0  0  0  0  0  0
   17.5470  -19.5812  -18.6755 C   0  0  0  0  0  0  0  0  0  0  0  0
   18.7156  -19.0053  -17.4967 C   0  0  0  0  0  0  0  0  0  0  0  0
   18.9430  -19.7269  -16.2655 C   0  0  2  0  0  0  0  0  0  0  0  0
   19.7374  -19.1727  -15.1280 N   0  0  0  0  0  0  0  0  0  0  0  0
   21.1284  -19.7065  -15.4264 C   0  0  0  0  0  0  0  0  0  0  0  0
   19.4870  -19.8824  -13.8260 O   0  0  0  0  0  0  0  0  0  0  0  0
   20.1906  -20.9148  -13.3491 O   0  0  0  0  0  0  0  0  0  0  0  0
  2  1  1  1
  2  3  1  0
  4  2  1  0
  5  4  1  0
  5  6  1  6
  7  5  1  0
  7  8  2  0
  9 10  1  0
 10 11  2  0
 12 10  1  0
 12 13  1  0
 13 14  1  0
 15 14  1  0
 16 15  1  1
 16 17  1  0
 17  7  1  0
 18 25  1  0
 18 16  1  0
 19 18  2  0
 20 21  1  0
 21 22  1  0
 22 23  1  0
 24 23  1  6
 24 25  1  0
 24 26  1  0
 26 27  1  0
 28 26  2  0
M  END
$$$$
