LRM.pdb
     RDKit          3D

 28 27  0  0  1  0  0  0  0  0999 V2000
   27.8515  -14.5194  -17.2500 C   0  0  0  0  0  0  0  0  0  0  0  0
   27.2489  -15.4239  -18.3232 C   0  0  2  0  0  0  0  0  0  0  0  0
   26.3439  -14.5986  -19.2112 C   0  0  0  0  0  0  0  0  0  0  0  0
   26.5221  -16.5228  -17.6023 C   0  0  0  0  0  0  0  0  0  0  0  0
   27.4015  -17.7435  -17.4241 C   0  0  2  0  0  0  0  0  0  0  0  0
   27.6638  -18.3840  -18.6996 N   0  0  0  0  0  0  0  0  0  0  0  0
   26.7397  -18.7390  -16.5321 C   0  0  0  0  0  0  0  0  0  0  0  0
   25.8304  -19.4941  -17.0045 O   0  0  0  0  0  0  0  0  0  0  0  0
   26.2405  -20.3648   -8.0606 N   0  0  0  0  0  0  0  0  0  0  0  0
   25.4510  -21.3456   -8.7552 C   0  0  0  0  0  0  0  0  0  0  0  0
   24.2874  -21.6155   -8.2806 N   0  0  0  0  0  0  0  0  0  0  0  0
   25.9723  -21.9647   -9.9085 N   0  0  0  0  0  0  0  0  0  0  0  0
   26.8366  -21.2533  -10.8133 C   0  0  0  0  0  0  0  0  0  0  0  0
   26.0412  -20.7844  -12.0373 C   0  0  0  0  0  0  0  0  0  0  0  0
   26.9394  -20.1080  -13.0400 C   0  0  0  0  0  0  0  0  0  0  0  0
   26.2481  -19.7508  -14.3371 C   0  0  2  0  0  0  0  0  0  0  0  0
   27.0607  -18.9068  -15.1634 N   0  0  0  0  0  0  0  0  0  0  0  0
   24.8956  -19.1293  -14.1041 C   0  0  0  0  0  0  0  0  0  0  0  0
   24.7876  -18.0201  -13.5252 O   0  0  0  0  0  0  0  0  0  0  0  0
   23.6683  -22.3242   -8.7089 C   0  0  0  0  0  0  0  0  0  0  0  0
   21.5178  -18.2582  -18.8274 S   0  0  0  0  0  0  0  0  0  0  0  0
   20.0650  -18.2842  -17.7246 C   0  0  0  0  0  0  0  0  0  0  0  0
   20.5774  -18.4376  -16.0512 C   0  0  0  0  0  0  0  0  0  0  0  0
   21.8930  -18.9369  -15.7221 C   0  0  1  0  0  0  0  0  0  0  0  0
   22.3890  -19.0712  -14.3192 N   0  0  0  0  0  0  0  0  0  0  0  0
   23.7256  -19.7645  -14.5233 C   0  0  0  0  0  0  0  0  0  0  0  0
   21.6831  -20.1458  -13.5389 O   0  0  0  0  0  0  0  0  0  0  0  0
   20.6099  -19.9712  -12.7604 O   0  0  0  0  0  0  0  0  0  0  0  0
  2  1  1  1
  2  3  1  0
  4  2  1  0
  5  4  1  0
  5  6  1  6
  7  5  1  0
  7  8  2  0
  9 10  1  0
 10 11  2  0
 12 10  1  0
 12 13  1  0
 13 14  1  0
 15 14  1  0
 16 15  1  1
 16 17  1  0
 17  7  1  0
 18 25  1  0
 18 16  1  0
 19 18  2  0
 20 21  1  0
 21 22  1  0
 22 23  1  0
 24 23  1  6
 24 25  1  0
 24 26  1  0
 26 27  1  0
 28 26  2  0
M  END
$$$$
