LRM.pdb
     RDKit          3D

 28 27  0  0  1  0  0  0  0  0999 V2000
   18.3975  -16.3479  -17.8944 C   0  0  0  0  0  0  0  0  0  0  0  0
   17.1425  -15.7597  -17.2527 C   0  0  2  0  0  0  0  0  0  0  0  0
   15.9239  -16.3060  -17.9634 C   0  0  0  0  0  0  0  0  0  0  0  0
   17.2641  -14.2665  -17.3580 C   0  0  0  0  0  0  0  0  0  0  0  0
   18.4156  -13.7450  -16.5227 C   0  0  2  0  0  0  0  0  0  0  0  0
   18.2641  -14.1321  -15.1323 N   0  0  0  0  0  0  0  0  0  0  0  0
   18.4753  -12.2560  -16.5863 C   0  0  0  0  0  0  0  0  0  0  0  0
   18.6634  -11.6855  -17.7085 O   0  0  0  0  0  0  0  0  0  0  0  0
   12.4995   -7.5875  -13.5516 N   0  0  0  0  0  0  0  0  0  0  0  0
   12.4248   -8.2852  -14.8067 C   0  0  0  0  0  0  0  0  0  0  0  0
   11.2630   -8.4306  -15.3370 N   0  0  0  0  0  0  0  0  0  0  0  0
   13.6056   -8.7762  -15.3982 N   0  0  0  0  0  0  0  0  0  0  0  0
   14.8838   -8.6244  -14.7537 C   0  0  0  0  0  0  0  0  0  0  0  0
   15.9760   -9.2990  -15.5920 C   0  0  0  0  0  0  0  0  0  0  0  0
   17.3002   -9.2777  -14.8737 C   0  0  0  0  0  0  0  0  0  0  0  0
   18.4097   -9.9897  -15.6153 C   0  0  2  0  0  0  0  0  0  0  0  0
   18.3332  -11.4127  -15.4581 N   0  0  0  0  0  0  0  0  0  0  0  0
   19.7713   -9.4802  -15.2199 C   0  0  0  0  0  0  0  0  0  0  0  0
   20.3543   -9.9251  -14.2005 O   0  0  0  0  0  0  0  0  0  0  0  0
   11.1284   -8.8956  -16.2506 C   0  0  0  0  0  0  0  0  0  0  0  0
   25.3929   -8.4649  -19.1605 S   0  0  0  0  0  0  0  0  0  0  0  0
   24.4556   -6.9783  -18.6719 C   0  0  0  0  0  0  0  0  0  0  0  0
   23.7563   -7.2005  -17.0756 C   0  0  0  0  0  0  0  0  0  0  0  0
   22.4250   -7.7399  -16.9186 C   0  0  1  0  0  0  0  0  0  0  0  0
   21.8366   -8.0911  -15.5909 N   0  0  0  0  0  0  0  0  0  0  0  0
   20.4242   -8.5023  -15.9717 C   0  0  0  0  0  0  0  0  0  0  0  0
   21.5125   -6.8891  -14.7471 O   0  0  0  0  0  0  0  0  0  0  0  0
   22.2629   -6.4064  -13.7511 O   0  0  0  0  0  0  0  0  0  0  0  0
  2  1  1  6
  2  3  1  0
  4  2  1  0
  5  4  1  0
  5  6  1  1
  7  5  1  0
  7  8  2  0
  9 10  1  0
 10 11  2  0
 12 10  1  0
 12 13  1  0
 13 14  1  0
 15 14  1  0
 16 15  1  1
 16 17  1  0
 17  7  1  0
 18 25  1  0
 18 16  1  0
 19 18  2  0
 20 21  1  0
 21 22  1  0
 22 23  1  0
 24 23  1  6
 24 25  1  0
 24 26  1  0
 26 27  1  0
 28 26  2  0
M  END
$$$$
