LRM.pdb
     RDKit          3D

 28 27  0  0  1  0  0  0  0  0999 V2000
   17.2699  -10.9036  -19.1074 C   0  0  0  0  0  0  0  0  0  0  0  0
   17.7039  -11.9749  -18.1089 C   0  0  2  0  0  0  0  0  0  0  0  0
   16.4808  -12.5073  -17.3953 C   0  0  0  0  0  0  0  0  0  0  0  0
   18.6895  -11.3248  -17.1807 C   0  0  0  0  0  0  0  0  0  0  0  0
   19.8570  -10.7304  -17.9416 C   0  0  2  0  0  0  0  0  0  0  0  0
   20.6822  -11.7734  -18.5221 N   0  0  0  0  0  0  0  0  0  0  0  0
   20.7121   -9.9136  -17.0326 C   0  0  0  0  0  0  0  0  0  0  0  0
   20.1992   -9.3985  -15.9876 O   0  0  0  0  0  0  0  0  0  0  0  0
   28.5754  -11.6915  -15.8127 N   0  0  0  0  0  0  0  0  0  0  0  0
   27.5743  -11.7816  -16.8410 C   0  0  0  0  0  0  0  0  0  0  0  0
   27.9176  -12.3148  -17.9589 N   0  0  0  0  0  0  0  0  0  0  0  0
   26.2777  -11.2899  -16.5910 N   0  0  0  0  0  0  0  0  0  0  0  0
   25.8643  -10.9111  -15.2653 C   0  0  0  0  0  0  0  0  0  0  0  0
   24.4085  -10.4307  -15.2882 C   0  0  0  0  0  0  0  0  0  0  0  0
   24.2460   -9.2385  -16.1949 C   0  0  0  0  0  0  0  0  0  0  0  0
   22.8103   -8.7973  -16.3736 C   0  0  2  0  0  0  0  0  0  0  0  0
   22.0879   -9.6660  -17.2561 N   0  0  0  0  0  0  0  0  0  0  0  0
   22.7122   -7.3658  -16.8333 C   0  0  0  0  0  0  0  0  0  0  0  0
   23.2444   -6.9970  -17.9093 O   0  0  0  0  0  0  0  0  0  0  0  0
   27.2440  -12.4620  -18.7294 C   0  0  0  0  0  0  0  0  0  0  0  0
   17.3758   -4.5149  -17.1739 S   0  0  0  0  0  0  0  0  0  0  0  0
   18.4391   -3.7899  -18.4666 C   0  0  0  0  0  0  0  0  0  0  0  0
   20.1255   -3.8729  -17.9807 C   0  0  0  0  0  0  0  0  0  0  0  0
   20.5633   -4.8233  -16.9841 C   0  0  2  0  0  0  0  0  0  0  0  0
   21.9900   -4.9700  -16.5657 N   0  0  0  0  0  0  0  0  0  0  0  0
   22.0289   -6.4095  -16.0805 C   0  0  0  0  0  0  0  0  0  0  0  0
   22.3041   -4.2760  -15.2690 O   0  0  0  0  0  0  0  0  0  0  0  0
   22.5758   -2.9747  -15.1233 O   0  0  0  0  0  0  0  0  0  0  0  0
  2  1  1  6
  2  3  1  0
  4  2  1  0
  5  4  1  0
  5  6  1  1
  7  5  1  0
  7  8  2  0
  9 10  1  0
 10 11  2  0
 12 10  1  0
 12 13  1  0
 13 14  1  0
 15 14  1  0
 16 15  1  6
 16 17  1  0
 17  7  1  0
 18 25  1  0
 18 16  1  0
 19 18  2  0
 20 21  1  0
 21 22  1  0
 22 23  1  0
 24 23  1  6
 24 25  1  0
 24 26  1  0
 26 27  1  0
 28 26  2  0
M  END
$$$$
