LRM.pdb
     RDKit          3D

 28 27  0  0  1  0  0  0  0  0999 V2000
   22.6035  -13.2401  -18.8380 C   0  0  0  0  0  0  0  0  0  0  0  0
   23.3891  -14.2126  -19.7155 C   0  0  2  0  0  0  0  0  0  0  0  0
   22.9345  -14.0586  -21.1502 C   0  0  0  0  0  0  0  0  0  0  0  0
   23.1404  -15.5874  -19.1645 C   0  0  0  0  0  0  0  0  0  0  0  0
   23.5195  -15.6733  -17.7001 C   0  0  2  0  0  0  0  0  0  0  0  0
   24.9033  -15.2851  -17.4993 N   0  0  0  0  0  0  0  0  0  0  0  0
   23.3508  -17.0674  -17.1974 C   0  0  0  0  0  0  0  0  0  0  0  0
   22.2092  -17.6254  -17.2738 O   0  0  0  0  0  0  0  0  0  0  0  0
   25.4632  -24.7069  -15.5600 N   0  0  0  0  0  0  0  0  0  0  0  0
   26.2278  -24.1103  -16.6218 C   0  0  0  0  0  0  0  0  0  0  0  0
   26.3489  -24.7775  -17.7137 N   0  0  0  0  0  0  0  0  0  0  0  0
   26.8069  -22.8402  -16.4298 N   0  0  0  0  0  0  0  0  0  0  0  0
   26.5435  -22.0699  -15.2428 C   0  0  0  0  0  0  0  0  0  0  0  0
   25.2126  -21.3226  -15.3883 C   0  0  0  0  0  0  0  0  0  0  0  0
   25.4261  -19.9414  -15.9510 C   0  0  0  0  0  0  0  0  0  0  0  0
   24.1451  -19.1728  -16.1876 C   0  0  2  0  0  0  0  0  0  0  0  0
   24.3974  -17.8319  -16.6279 N   0  0  0  0  0  0  0  0  0  0  0  0
   23.2506  -19.1784  -14.9752 C   0  0  0  0  0  0  0  0  0  0  0  0
   23.5831  -18.5726  -13.9267 O   0  0  0  0  0  0  0  0  0  0  0  0
   26.8588  -24.4061  -18.5329 C   0  0  0  0  0  0  0  0  0  0  0  0
   19.8855  -15.1581  -13.8257 S   0  0  0  0  0  0  0  0  0  0  0  0
   18.7951  -16.4237  -13.0931 C   0  0  0  0  0  0  0  0  0  0  0  0
   19.6906  -17.9104  -12.8205 C   0  0  0  0  0  0  0  0  0  0  0  0
   20.4251  -18.5402  -13.8938 C   0  0  2  0  0  0  0  0  0  0  0  0
   21.1611  -19.8305  -13.7336 N   0  0  0  0  0  0  0  0  0  0  0  0
   22.0294  -19.8541  -14.9804 C   0  0  0  0  0  0  0  0  0  0  0  0
   20.3115  -21.0390  -14.0153 O   0  0  0  0  0  0  0  0  0  0  0  0
   19.5032  -21.6487  -13.1416 O   0  0  0  0  0  0  0  0  0  0  0  0
  2  1  1  1
  2  3  1  0
  4  2  1  0
  5  4  1  0
  5  6  1  6
  7  5  1  0
  7  8  2  0
  9 10  1  0
 10 11  2  0
 12 10  1  0
 12 13  1  0
 13 14  1  0
 15 14  1  0
 16 15  1  1
 16 17  1  0
 17  7  1  0
 18 25  1  0
 18 16  1  0
 19 18  2  0
 20 21  1  0
 21 22  1  0
 22 23  1  0
 24 23  1  1
 24 25  1  0
 24 26  1  0
 26 27  1  0
 28 26  2  0
M  END
$$$$
