LRM.pdb
     RDKit          3D

 28 27  0  0  1  0  0  0  0  0999 V2000
   27.5030  -15.3048  -15.5302 C   0  0  0  0  0  0  0  0  0  0  0  0
   26.1985  -14.6424  -15.9688 C   0  0  2  0  0  0  0  0  0  0  0  0
   25.9465  -13.4289  -15.1012 C   0  0  0  0  0  0  0  0  0  0  0  0
   25.1240  -15.6847  -15.8479 C   0  0  0  0  0  0  0  0  0  0  0  0
   25.3756  -16.8497  -16.7833 C   0  0  2  0  0  0  0  0  0  0  0  0
   25.3510  -16.4169  -18.1682 N   0  0  0  0  0  0  0  0  0  0  0  0
   24.3298  -17.8981  -16.6058 C   0  0  0  0  0  0  0  0  0  0  0  0
   23.1758  -17.7219  -17.1134 O   0  0  0  0  0  0  0  0  0  0  0  0
   26.5780  -24.1158  -18.1596 N   0  0  0  0  0  0  0  0  0  0  0  0
   27.0701  -23.9522  -16.8184 C   0  0  0  0  0  0  0  0  0  0  0  0
   28.3424  -24.0012  -16.6426 N   0  0  0  0  0  0  0  0  0  0  0  0
   26.1567  -23.7493  -15.7649 N   0  0  0  0  0  0  0  0  0  0  0  0
   24.7385  -23.6943  -16.0049 C   0  0  0  0  0  0  0  0  0  0  0  0
   24.3437  -22.2948  -16.4908 C   0  0  0  0  0  0  0  0  0  0  0  0
   23.9547  -21.4103  -15.3348 C   0  0  0  0  0  0  0  0  0  0  0  0
   23.4611  -20.0423  -15.7507 C   0  0  2  0  0  0  0  0  0  0  0  0
   24.5364  -19.1051  -15.8953 N   0  0  0  0  0  0  0  0  0  0  0  0
   22.4108  -19.5106  -14.8104 C   0  0  0  0  0  0  0  0  0  0  0  0
   22.7343  -18.9456  -13.7366 O   0  0  0  0  0  0  0  0  0  0  0  0
   28.7803  -23.8050  -15.7267 C   0  0  0  0  0  0  0  0  0  0  0  0
   20.3271  -14.7427  -15.8051 S   0  0  0  0  0  0  0  0  0  0  0  0
   19.1265  -14.9716  -14.4511 C   0  0  0  0  0  0  0  0  0  0  0  0
   19.1104  -16.6503  -13.9331 C   0  0  0  0  0  0  0  0  0  0  0  0
   20.0251  -17.6112  -14.5060 C   0  0  1  0  0  0  0  0  0  0  0  0
   20.0295  -19.0581  -14.1340 N   0  0  0  0  0  0  0  0  0  0  0  0
   21.0513  -19.6288  -15.1032 C   0  0  0  0  0  0  0  0  0  0  0  0
   18.8115  -19.7992  -14.6125 O   0  0  0  0  0  0  0  0  0  0  0  0
   17.6493  -19.8998  -13.9588 O   0  0  0  0  0  0  0  0  0  0  0  0
  2  1  1  1
  2  3  1  0
  4  2  1  0
  5  4  1  0
  5  6  1  6
  7  5  1  0
  7  8  2  0
  9 10  1  0
 10 11  2  0
 12 10  1  0
 12 13  1  0
 13 14  1  0
 15 14  1  0
 16 15  1  1
 16 17  1  0
 17  7  1  0
 18 25  1  0
 18 16  1  0
 19 18  2  0
 20 21  1  0
 21 22  1  0
 22 23  1  0
 24 23  1  1
 24 25  1  0
 24 26  1  0
 26 27  1  0
 28 26  2  0
M  END
$$$$
