LRM.pdb
     RDKit          3D

 28 27  0  0  1  0  0  0  0  0999 V2000
   29.8598  -23.4262  -16.9208 C   0  0  0  0  0  0  0  0  0  0  0  0
   28.6833  -22.7053  -17.5756 C   0  0  2  0  0  0  0  0  0  0  0  0
   29.0896  -22.2591  -18.9629 C   0  0  0  0  0  0  0  0  0  0  0  0
   28.3223  -21.5610  -16.6724 C   0  0  0  0  0  0  0  0  0  0  0  0
   27.9646  -22.0453  -15.2820 C   0  0  2  0  0  0  0  0  0  0  0  0
   27.2129  -23.2851  -15.3425 N   0  0  0  0  0  0  0  0  0  0  0  0
   27.1315  -21.0313  -14.5734 C   0  0  0  0  0  0  0  0  0  0  0  0
   27.5664  -19.8414  -14.4496 O   0  0  0  0  0  0  0  0  0  0  0  0
   20.6799  -18.6806  -16.5489 N   0  0  0  0  0  0  0  0  0  0  0  0
   20.1864  -19.3284  -15.3638 C   0  0  0  0  0  0  0  0  0  0  0  0
   19.0488  -19.9216  -15.4413 N   0  0  0  0  0  0  0  0  0  0  0  0
   20.9527  -19.2890  -14.1820 N   0  0  0  0  0  0  0  0  0  0  0  0
   22.0151  -18.3329  -14.0113 C   0  0  0  0  0  0  0  0  0  0  0  0
   23.3008  -18.8573  -14.6615 C   0  0  0  0  0  0  0  0  0  0  0  0
   23.6827  -20.2016  -14.0985 C   0  0  0  0  0  0  0  0  0  0  0  0
   25.0651  -20.2375  -13.4856 C   0  0  2  0  0  0  0  0  0  0  0  0
   25.8595  -21.3066  -14.0160 N   0  0  0  0  0  0  0  0  0  0  0  0
   25.0147  -20.3039  -11.9813 C   0  0  0  0  0  0  0  0  0  0  0  0
   24.3152  -19.4942  -11.3240 O   0  0  0  0  0  0  0  0  0  0  0  0
   18.6226  -20.4043  -14.6324 C   0  0  0  0  0  0  0  0  0  0  0  0
   29.1807  -19.9164   -7.0752 S   0  0  0  0  0  0  0  0  0  0  0  0
   27.7514  -18.8041   -7.2923 C   0  0  0  0  0  0  0  0  0  0  0  0
   26.3852  -19.6940   -7.9467 C   0  0  0  0  0  0  0  0  0  0  0  0
   26.4030  -20.1843   -9.3059 C   0  0  1  0  0  0  0  0  0  0  0  0
   25.5885  -21.3494   -9.7654 N   0  0  0  0  0  0  0  0  0  0  0  0
   25.7408  -21.2639  -11.2748 C   0  0  0  0  0  0  0  0  0  0  0  0
   24.1062  -21.1158   -9.6647 O   0  0  0  0  0  0  0  0  0  0  0  0
   23.3098  -21.5519   -8.6829 O   0  0  0  0  0  0  0  0  0  0  0  0
  2  1  1  1
  2  3  1  0
  4  2  1  0
  5  4  1  0
  5  6  1  6
  7  5  1  0
  7  8  2  0
  9 10  1  0
 10 11  2  0
 12 10  1  0
 12 13  1  0
 13 14  1  0
 15 14  1  0
 16 15  1  6
 16 17  1  0
 17  7  1  0
 18 25  1  0
 18 16  1  0
 19 18  2  0
 20 21  1  0
 21 22  1  0
 22 23  1  0
 24 23  1  1
 24 25  1  0
 24 26  1  0
 26 27  1  0
 28 26  2  0
M  END
$$$$
