LRM.pdb
     RDKit          3D

 28 27  0  0  1  0  0  0  0  0999 V2000
   24.8856  -14.1906  -15.3384 C   0  0  0  0  0  0  0  0  0  0  0  0
   25.7797  -14.7423  -16.4470 C   0  0  2  0  0  0  0  0  0  0  0  0
   25.4083  -14.0789  -17.7549 C   0  0  0  0  0  0  0  0  0  0  0  0
   25.5764  -16.2302  -16.4641 C   0  0  0  0  0  0  0  0  0  0  0  0
   25.8922  -16.8472  -15.1169 C   0  0  2  0  0  0  0  0  0  0  0  0
   27.1814  -16.3940  -14.6286 N   0  0  0  0  0  0  0  0  0  0  0  0
   25.9312  -18.3347  -15.2193 C   0  0  0  0  0  0  0  0  0  0  0  0
   24.8864  -18.9636  -15.5843 O   0  0  0  0  0  0  0  0  0  0  0  0
   32.2713  -24.5411  -16.4042 N   0  0  0  0  0  0  0  0  0  0  0  0
   31.0046  -25.2170  -16.4833 C   0  0  0  0  0  0  0  0  0  0  0  0
   31.0142  -26.4603  -16.8090 N   0  0  0  0  0  0  0  0  0  0  0  0
   29.8205  -24.5047  -16.2074 N   0  0  0  0  0  0  0  0  0  0  0  0
   29.8476  -23.0980  -15.9038 C   0  0  0  0  0  0  0  0  0  0  0  0
   28.4189  -22.5772  -15.7077 C   0  0  0  0  0  0  0  0  0  0  0  0
   28.4169  -21.0991  -15.4160 C   0  0  0  0  0  0  0  0  0  0  0  0
   27.0433  -20.5343  -15.1293 C   0  0  2  0  0  0  0  0  0  0  0  0
   27.0773  -19.1146  -14.9324 N   0  0  0  0  0  0  0  0  0  0  0  0
   26.3824  -21.2206  -13.9623 C   0  0  0  0  0  0  0  0  0  0  0  0
   25.8543  -22.3521  -14.0954 O   0  0  0  0  0  0  0  0  0  0  0  0
   30.1546  -27.0348  -16.8165 C   0  0  0  0  0  0  0  0  0  0  0  0
   28.3817  -19.9315   -7.9942 S   0  0  0  0  0  0  0  0  0  0  0  0
   26.5992  -20.1138   -7.6522 C   0  0  0  0  0  0  0  0  0  0  0  0
   25.7963  -20.8797   -9.0144 C   0  0  0  0  0  0  0  0  0  0  0  0
   26.2798  -20.6881  -10.3626 C   0  0  1  0  0  0  0  0  0  0  0  0
   25.6752  -21.3614  -11.5513 N   0  0  0  0  0  0  0  0  0  0  0  0
   26.3376  -20.6225  -12.7020 C   0  0  0  0  0  0  0  0  0  0  0  0
   24.2484  -20.9574  -11.8022 O   0  0  0  0  0  0  0  0  0  0  0  0
   23.8431  -19.9890  -12.6305 O   0  0  0  0  0  0  0  0  0  0  0  0
  2  1  1  1
  2  3  1  0
  4  2  1  0
  5  4  1  0
  5  6  1  6
  7  5  1  0
  7  8  2  0
  9 10  1  0
 10 11  2  0
 12 10  1  0
 12 13  1  0
 13 14  1  0
 15 14  1  0
 16 15  1  1
 16 17  1  0
 17  7  1  0
 18 25  1  0
 18 16  1  0
 19 18  2  0
 20 21  1  0
 21 22  1  0
 22 23  1  0
 24 23  1  6
 24 25  1  0
 24 26  1  0
 26 27  1  0
 28 26  2  0
M  END
$$$$
