LSC.pdb
     RDKit          3D

 21 20  0  0  1  0  0  0  0  0999 V2000
  -25.3326   17.3050  -10.3362 C   0  0  0  0  0  0  0  0  0  0  0  0
  -25.2960   17.7175   -8.8691 C   0  0  2  0  0  0  0  0  0  0  0  0
  -23.9163   17.3615   -8.3301 C   0  0  0  0  0  0  0  0  0  0  0  0
  -26.3143   16.8799   -8.1464 C   0  0  0  0  0  0  0  0  0  0  0  0
  -26.2642   16.9916   -6.6872 C   0  0  2  0  0  0  0  0  0  0  0  0
  -27.2604   16.1648   -6.0468 N   0  0  0  0  0  0  0  0  0  0  0  0
  -26.3164   18.3624   -6.1429 C   0  0  0  0  0  0  0  0  0  0  0  0
  -26.2400   18.4645   -4.8771 O   0  0  0  0  0  0  0  0  0  0  0  0
  -28.9012   20.7061   -5.1615 O   0  0  0  0  0  0  0  0  0  0  0  0
  -28.6669   19.7351   -6.1002 C   0  0  0  0  0  0  0  0  0  0  0  0
  -27.6969   20.1868   -7.2017 C   0  0  2  0  0  0  0  0  0  0  0  0
  -26.4407   19.5420   -6.8802 N   0  0  0  0  0  0  0  0  0  0  0  0
  -27.6158   21.6538   -7.1284 C   0  0  0  0  0  0  0  0  0  0  0  0
  -26.5724   22.2122   -6.7405 O   0  0  0  0  0  0  0  0  0  0  0  0
  -28.7286   22.4336   -7.5008 N   0  0  0  0  0  0  0  0  0  0  0  0
  -28.5357   23.5245   -8.4274 C   0  0  1  0  0  0  0  0  0  0  0  0
  -29.2733   23.2683   -9.7357 C   0  0  0  0  0  0  0  0  0  0  0  0
  -29.9781   24.8118  -10.3835 S   0  0  0  0  0  0  0  0  0  0  0  0
  -29.1149   24.7506   -7.8349 C   0  0  0  0  0  0  0  0  0  0  0  0
  -29.5605   24.8137   -6.5219 O   0  0  0  0  0  0  0  0  0  0  0  0
  -29.2185   25.7907   -8.5283 O   0  0  0  0  0  0  0  0  0  0  0  0
  2  4  1  0
  2  3  1  1
  2  1  1  0
  5  7  1  0
  5  4  1  0
  5  6  1  1
  7  8  2  0
  9 10  1  0
 11 10  1  1
 12 11  1  0
 12  7  1  0
 13 14  2  0
 13 11  1  0
 15 13  1  0
 16 15  1  0
 16 19  1  0
 17 18  1  0
 16 17  1  6
 19 20  1  0
 21 19  2  0
M  END
$$$$
