LSC.pdb
     RDKit          3D

 21 20  0  0  1  0  0  0  0  0999 V2000
   32.2432   -8.3635  -16.2212 C   0  0  0  0  0  0  0  0  0  0  0  0
   33.4344   -8.0498  -17.1192 C   0  0  2  0  0  0  0  0  0  0  0  0
   33.3586   -8.9847  -18.3196 C   0  0  0  0  0  0  0  0  0  0  0  0
   34.6773   -8.3824  -16.3410 C   0  0  0  0  0  0  0  0  0  0  0  0
   34.9238   -7.5088  -15.1920 C   0  0  2  0  0  0  0  0  0  0  0  0
   34.2596   -6.2336  -15.3296 N   0  0  0  0  0  0  0  0  0  0  0  0
   36.3394   -7.3068  -14.8270 C   0  0  0  0  0  0  0  0  0  0  0  0
   37.0241   -8.3623  -14.6382 O   0  0  0  0  0  0  0  0  0  0  0  0
   40.0311   -4.1549  -14.3787 O   0  0  0  0  0  0  0  0  0  0  0  0
   38.7220   -4.4694  -14.6362 C   0  0  0  0  0  0  0  0  0  0  0  0
   38.3715   -5.9205  -14.2759 C   0  0  2  0  0  0  0  0  0  0  0  0
   36.9876   -6.0795  -14.6718 N   0  0  0  0  0  0  0  0  0  0  0  0
   38.5655   -6.0622  -12.8245 C   0  0  0  0  0  0  0  0  0  0  0  0
   37.6304   -5.8321  -12.0348 O   0  0  0  0  0  0  0  0  0  0  0  0
   39.8203   -6.4622  -12.3240 N   0  0  0  0  0  0  0  0  0  0  0  0
   40.0260   -6.4810  -10.8946 C   0  0  1  0  0  0  0  0  0  0  0  0
   41.2025   -7.3747  -10.5226 C   0  0  0  0  0  0  0  0  0  0  0  0
   41.5347   -7.2827   -8.7394 S   0  0  0  0  0  0  0  0  0  0  0  0
   40.3646   -5.1101  -10.4519 C   0  0  0  0  0  0  0  0  0  0  0  0
   41.4252   -4.3887  -10.9822 O   0  0  0  0  0  0  0  0  0  0  0  0
   39.6791   -4.5542   -9.5607 O   0  0  0  0  0  0  0  0  0  0  0  0
  2  4  1  0
  2  3  1  6
  2  1  1  0
  5  7  1  0
  5  4  1  0
  5  6  1  6
  7  8  2  0
  9 10  1  0
 11 10  1  1
 12 11  1  0
 12  7  1  0
 13 14  2  0
 13 11  1  0
 15 13  1  0
 16 15  1  0
 16 19  1  0
 17 18  1  0
 16 17  1  6
 19 20  1  0
 21 19  2  0
M  END
$$$$
