LSC.pdb
     RDKit          3D

 21 20  0  0  1  0  0  0  0  0999 V2000
   18.7928  -11.2251  -17.3546 C   0  0  0  0  0  0  0  0  0  0  0  0
   19.7549  -11.5973  -16.2322 C   0  0  2  0  0  0  0  0  0  0  0  0
   19.1315  -12.7554  -15.4634 C   0  0  0  0  0  0  0  0  0  0  0  0
   19.8417  -10.4126  -15.3103 C   0  0  0  0  0  0  0  0  0  0  0  0
   20.3727   -9.1985  -15.9334 C   0  0  2  0  0  0  0  0  0  0  0  0
   21.7607   -9.3441  -16.3057 N   0  0  0  0  0  0  0  0  0  0  0  0
   20.1791   -7.9469  -15.1760 C   0  0  0  0  0  0  0  0  0  0  0  0
   18.9888   -7.6985  -14.8016 O   0  0  0  0  0  0  0  0  0  0  0  0
   22.2646   -4.0349  -13.1247 O   0  0  0  0  0  0  0  0  0  0  0  0
   22.3071   -5.2515  -13.7547 C   0  0  0  0  0  0  0  0  0  0  0  0
   20.9236   -5.7430  -14.2045 C   0  0  2  0  0  0  0  0  0  0  0  0
   21.1695   -7.0223  -14.8371 N   0  0  0  0  0  0  0  0  0  0  0  0
   20.3945   -4.7400  -15.1416 C   0  0  0  0  0  0  0  0  0  0  0  0
   20.8335   -4.6656  -16.3046 O   0  0  0  0  0  0  0  0  0  0  0  0
   19.3818   -3.8561  -14.7192 N   0  0  0  0  0  0  0  0  0  0  0  0
   18.8239   -2.9285  -15.6753 C   0  0  1  0  0  0  0  0  0  0  0  0
   17.3136   -2.8146  -15.5103 C   0  0  0  0  0  0  0  0  0  0  0  0
   16.5142   -4.4130  -15.8343 S   0  0  0  0  0  0  0  0  0  0  0  0
   19.3920   -1.5873  -15.4133 C   0  0  0  0  0  0  0  0  0  0  0  0
   19.1218   -0.4863  -16.2140 O   0  0  0  0  0  0  0  0  0  0  0  0
   20.1532   -1.4122  -14.4319 O   0  0  0  0  0  0  0  0  0  0  0  0
  2  4  1  0
  2  3  1  1
  2  1  1  0
  5  7  1  0
  5  4  1  0
  5  6  1  1
  7  8  2  0
  9 10  1  0
 11 10  1  6
 12 11  1  0
 12  7  1  0
 13 14  2  0
 13 11  1  0
 15 13  1  0
 16 15  1  0
 16 19  1  0
 17 18  1  0
 16 17  1  1
 19 20  1  0
 21 19  2  0
M  END
$$$$
