LSC.pdb
     RDKit          3D

 21 20  0  0  1  0  0  0  0  0999 V2000
   24.4984  -13.4209  -15.9862 C   0  0  0  0  0  0  0  0  0  0  0  0
   23.4910  -13.3017  -17.1242 C   0  0  2  0  0  0  0  0  0  0  0  0
   24.2139  -13.6722  -18.4130 C   0  0  0  0  0  0  0  0  0  0  0  0
   23.0866  -11.8560  -17.2100 C   0  0  0  0  0  0  0  0  0  0  0  0
   22.2790  -11.3856  -16.0828 C   0  0  2  0  0  0  0  0  0  0  0  0
   21.1592  -12.2586  -15.8180 N   0  0  0  0  0  0  0  0  0  0  0  0
   21.8233   -9.9839  -16.1560 C   0  0  0  0  0  0  0  0  0  0  0  0
   22.7189   -9.1177  -16.4137 O   0  0  0  0  0  0  0  0  0  0  0  0
   18.0926   -8.8379  -14.9004 O   0  0  0  0  0  0  0  0  0  0  0  0
   18.5715   -8.1791  -16.0029 C   0  0  0  0  0  0  0  0  0  0  0  0
   20.1056   -8.1413  -16.0601 C   0  0  2  0  0  0  0  0  0  0  0  0
   20.5166   -9.5270  -15.9707 N   0  0  0  0  0  0  0  0  0  0  0  0
   20.5592   -7.3406  -14.9123 C   0  0  0  0  0  0  0  0  0  0  0  0
   20.8341   -7.8871  -13.8276 O   0  0  0  0  0  0  0  0  0  0  0  0
   20.6840   -5.9432  -15.0421 N   0  0  0  0  0  0  0  0  0  0  0  0
   21.2581   -5.1911  -13.9510 C   0  0  1  0  0  0  0  0  0  0  0  0
   22.7804   -5.2367  -13.9962 C   0  0  0  0  0  0  0  0  0  0  0  0
   23.3887   -4.6511  -15.6043 S   0  0  0  0  0  0  0  0  0  0  0  0
   20.8612   -3.7732  -14.0993 C   0  0  0  0  0  0  0  0  0  0  0  0
   21.2036   -2.7955  -13.1756 O   0  0  0  0  0  0  0  0  0  0  0  0
   20.1862   -3.4142  -15.0937 O   0  0  0  0  0  0  0  0  0  0  0  0
  2  4  1  0
  2  3  1  6
  2  1  1  0
  5  7  1  0
  5  4  1  0
  5  6  1  6
  7  8  2  0
  9 10  1  0
 11 10  1  1
 12 11  1  0
 12  7  1  0
 13 14  2  0
 13 11  1  0
 15 13  1  0
 16 15  1  0
 16 19  1  0
 17 18  1  0
 16 17  1  6
 19 20  1  0
 21 19  2  0
M  END
$$$$
