LSC.pdb
     RDKit          3D

 21 20  0  0  1  0  0  0  0  0999 V2000
   27.0026  -20.7941   -5.9710 C   0  0  0  0  0  0  0  0  0  0  0  0
   27.8124  -19.9611   -6.9581 C   0  0  2  0  0  0  0  0  0  0  0  0
   28.1922  -18.6640   -6.2552 C   0  0  0  0  0  0  0  0  0  0  0  0
   26.9026  -19.6251   -8.1071 C   0  0  0  0  0  0  0  0  0  0  0  0
   26.5142  -20.7742   -8.9275 C   0  0  2  0  0  0  0  0  0  0  0  0
   27.6432  -21.6159   -9.2486 N   0  0  0  0  0  0  0  0  0  0  0  0
   25.7483  -20.4644  -10.1503 C   0  0  0  0  0  0  0  0  0  0  0  0
   24.8278  -19.5948  -10.0281 O   0  0  0  0  0  0  0  0  0  0  0  0
   27.2070  -20.7106  -13.9171 O   0  0  0  0  0  0  0  0  0  0  0  0
   25.9711  -21.2839  -13.7656 C   0  0  0  0  0  0  0  0  0  0  0  0
   25.1741  -20.6910  -12.5945 C   0  0  2  0  0  0  0  0  0  0  0  0
   25.9386  -21.0311  -11.4126 N   0  0  0  0  0  0  0  0  0  0  0  0
   23.8468  -21.3252  -12.6127 C   0  0  0  0  0  0  0  0  0  0  0  0
   23.6644  -22.4289  -12.0654 O   0  0  0  0  0  0  0  0  0  0  0  0
   22.7727  -20.6777  -13.2547 N   0  0  0  0  0  0  0  0  0  0  0  0
   21.4690  -21.2984  -13.2276 C   0  0  1  0  0  0  0  0  0  0  0  0
   20.4084  -20.3226  -12.7334 C   0  0  0  0  0  0  0  0  0  0  0  0
   18.8042  -21.1570  -12.5620 S   0  0  0  0  0  0  0  0  0  0  0  0
   21.1012  -21.6763  -14.6104 C   0  0  0  0  0  0  0  0  0  0  0  0
   20.1825  -22.6761  -14.8980 O   0  0  0  0  0  0  0  0  0  0  0  0
   21.6283  -21.0826  -15.5814 O   0  0  0  0  0  0  0  0  0  0  0  0
  2  4  1  0
  2  3  1  1
  2  1  1  0
  5  7  1  0
  5  4  1  0
  5  6  1  6
  7  8  2  0
  9 10  1  0
 11 10  1  6
 12 11  1  0
 12  7  1  0
 13 14  2  0
 13 11  1  0
 15 13  1  0
 16 15  1  0
 16 19  1  0
 17 18  1  0
 16 17  1  6
 19 20  1  0
 21 19  2  0
M  END
$$$$
