LSC.pdb
     RDKit          3D

 21 20  0  0  1  0  0  0  0  0999 V2000
   29.9694  -11.3807  -17.3232 C   0  0  0  0  0  0  0  0  0  0  0  0
   28.7880  -12.2959  -17.6246 C   0  0  2  0  0  0  0  0  0  0  0  0
   29.1383  -13.0953  -18.8732 C   0  0  0  0  0  0  0  0  0  0  0  0
   27.6130  -11.4139  -17.9444 C   0  0  0  0  0  0  0  0  0  0  0  0
   27.0939  -10.6595  -16.8016 C   0  0  2  0  0  0  0  0  0  0  0  0
   26.7794  -11.5187  -15.6840 N   0  0  0  0  0  0  0  0  0  0  0  0
   25.9594   -9.7592  -17.0846 C   0  0  0  0  0  0  0  0  0  0  0  0
   26.1348   -8.9162  -18.0211 O   0  0  0  0  0  0  0  0  0  0  0  0
   22.5475   -9.8443  -14.8011 O   0  0  0  0  0  0  0  0  0  0  0  0
   22.3993   -9.4625  -16.1093 C   0  0  0  0  0  0  0  0  0  0  0  0
   23.6600   -8.8046  -16.6889 C   0  0  2  0  0  0  0  0  0  0  0  0
   24.7272   -9.7478  -16.4271 N   0  0  0  0  0  0  0  0  0  0  0  0
   23.8445   -7.5291  -15.9794 C   0  0  0  0  0  0  0  0  0  0  0  0
   24.5528   -7.4695  -14.9568 O   0  0  0  0  0  0  0  0  0  0  0  0
   23.2144   -6.3648  -16.4617 N   0  0  0  0  0  0  0  0  0  0  0  0
   23.4750   -5.1074  -15.8008 C   0  0  1  0  0  0  0  0  0  0  0  0
   23.2945   -3.9373  -16.7598 C   0  0  0  0  0  0  0  0  0  0  0  0
   21.6304   -3.9595  -17.4872 S   0  0  0  0  0  0  0  0  0  0  0  0
   22.4852   -4.9353  -14.7142 C   0  0  0  0  0  0  0  0  0  0  0  0
   22.5500   -3.8975  -13.7948 O   0  0  0  0  0  0  0  0  0  0  0  0
   21.5377   -5.7489  -14.5977 O   0  0  0  0  0  0  0  0  0  0  0  0
  2  4  1  0
  2  3  1  6
  2  1  1  0
  5  7  1  0
  5  4  1  0
  5  6  1  1
  7  8  2  0
  9 10  1  0
 11 10  1  1
 12 11  1  0
 12  7  1  0
 13 14  2  0
 13 11  1  0
 15 13  1  0
 16 15  1  0
 16 19  1  0
 17 18  1  0
 16 17  1  6
 19 20  1  0
 21 19  2  0
M  END
$$$$
