LSC.pdb
     RDKit          3D

 21 20  0  0  1  0  0  0  0  0999 V2000
   18.3432  -13.9716  -15.7349 C   0  0  0  0  0  0  0  0  0  0  0  0
   18.7761  -13.1921  -16.9714 C   0  0  2  0  0  0  0  0  0  0  0  0
   20.1130  -13.7642  -17.4255 C   0  0  0  0  0  0  0  0  0  0  0  0
   18.9945  -11.7670  -16.5443 C   0  0  0  0  0  0  0  0  0  0  0  0
   17.7859  -11.0821  -16.0813 C   0  0  2  0  0  0  0  0  0  0  0  0
   16.7647  -11.0375  -17.1018 N   0  0  0  0  0  0  0  0  0  0  0  0
   17.9864   -9.7383  -15.5052 C   0  0  0  0  0  0  0  0  0  0  0  0
   18.1085   -8.7851  -16.3389 O   0  0  0  0  0  0  0  0  0  0  0  0
   18.5683   -9.1406  -11.4643 O   0  0  0  0  0  0  0  0  0  0  0  0
   17.8352   -8.1955  -12.1339 C   0  0  0  0  0  0  0  0  0  0  0  0
   18.2140   -8.0827  -13.6178 C   0  0  2  0  0  0  0  0  0  0  0  0
   18.0539   -9.4213  -14.1467 N   0  0  0  0  0  0  0  0  0  0  0  0
   19.6078   -7.6152  -13.6716 C   0  0  0  0  0  0  0  0  0  0  0  0
   20.5469   -8.4297  -13.7467 O   0  0  0  0  0  0  0  0  0  0  0  0
   19.8822   -6.2336  -13.6382 N   0  0  0  0  0  0  0  0  0  0  0  0
   21.2429   -5.7891  -13.8305 C   0  0  1  0  0  0  0  0  0  0  0  0
   21.7054   -6.0448  -15.2594 C   0  0  0  0  0  0  0  0  0  0  0  0
   23.3042   -5.2395  -15.5662 S   0  0  0  0  0  0  0  0  0  0  0  0
   21.2931   -4.3262  -13.6126 C   0  0  0  0  0  0  0  0  0  0  0  0
   22.4341   -3.6698  -13.1726 O   0  0  0  0  0  0  0  0  0  0  0  0
   20.2740   -3.6273  -13.8277 O   0  0  0  0  0  0  0  0  0  0  0  0
  2  4  1  0
  2  3  1  1
  2  1  1  0
  5  7  1  0
  5  4  1  0
  5  6  1  6
  7  8  2  0
  9 10  1  0
 11 10  1  1
 12 11  1  0
 12  7  1  0
 13 14  2  0
 13 11  1  0
 15 13  1  0
 16 15  1  0
 16 19  1  0
 17 18  1  0
 16 17  1  6
 19 20  1  0
 21 19  2  0
M  END
$$$$
