LPM.pdb
     RDKit          3D

 24 24  0  0  1  0  0  0  0  0999 V2000
   18.2118  -16.0834  -19.7098 C   0  0  0  0  0  0  0  0  0  0  0  0
   19.5130  -15.9267  -19.0040 C   0  0  2  0  0  0  0  0  0  0  0  0
   19.5478  -16.8401  -17.7973 C   0  0  0  0  0  0  0  0  0  0  0  0
   19.9547  -14.5393  -18.7238 C   0  0  0  0  0  0  0  0  0  0  0  0
   20.1686  -13.6676  -19.9391 C   0  0  2  0  0  0  0  0  0  0  0  0
   21.1363  -14.2171  -20.8334 N   0  0  0  0  0  0  0  0  0  0  0  0
   20.4423  -12.2698  -19.6339 C   0  0  0  0  0  0  0  0  0  0  0  0
   21.6785  -11.9294  -19.6443 O   0  0  0  0  0  0  0  0  0  0  0  0
   19.5079  -11.2429  -19.3270 N   0  0  0  0  0  0  0  0  0  0  0  0
   18.0898  -11.3714  -19.4150 C   0  0  0  0  0  0  0  0  0  0  0  0
   17.5952   -9.9407  -19.4961 C   0  0  0  0  0  0  0  0  0  0  0  0
   18.6343   -9.1418  -18.7501 C   0  0  0  0  0  0  0  0  0  0  0  0
   19.8562   -9.9501  -18.8830 C   0  0  1  0  0  0  0  0  0  0  0  0
   20.6990   -9.9524  -17.6546 C   0  0  0  0  0  0  0  0  0  0  0  0
   20.8584  -11.0316  -17.0594 O   0  0  0  0  0  0  0  0  0  0  0  0
   27.0330  -10.8679  -14.7275 C   0  0  0  0  0  0  0  0  0  0  0  0
   25.3370  -11.0173  -15.3341 S   0  0  0  0  0  0  0  0  0  0  0  0
   24.8320   -9.6010  -16.2173 C   0  0  0  0  0  0  0  0  0  0  0  0
   23.5272   -9.3685  -16.7799 C   0  0  0  0  0  0  0  0  0  0  0  0
   22.3517   -8.8193  -16.0869 C   0  0  2  0  0  0  0  0  0  0  0  0
   21.2962   -8.7750  -17.1816 N   0  0  0  0  0  0  0  0  0  0  0  0
   22.5387   -7.3698  -15.7997 C   0  0  0  0  0  0  0  0  0  0  0  0
   22.7534   -6.9725  -14.4667 O   0  0  0  0  0  0  0  0  0  0  0  0
   22.5241   -6.4614  -16.6294 O   0  0  0  0  0  0  0  0  0  0  0  0
  2  1  1  1
  2  3  1  0
  4  2  1  0
  5  6  1  1
  5  7  1  0
  5  4  1  0
  7  9  1  0
  7  8  2  0
  9 10  1  0
 11 10  1  0
 12 13  1  0
 12 11  1  0
 13  9  1  0
 14 15  2  0
 13 14  1  1
 16 17  1  0
 18 19  1  0
 18 17  1  0
 20 19  1  6
 20 21  1  0
 21 14  1  0
 22 20  1  0
 22 23  1  0
 24 22  2  0
M  END
$$$$
