LPM.pdb
     RDKit          3D

 24 24  0  0  1  0  0  0  0  0999 V2000
   25.0461  -19.3614   -9.7584 C   0  0  0  0  0  0  0  0  0  0  0  0
   25.3856  -20.7633  -10.1258 C   0  0  2  0  0  0  0  0  0  0  0  0
   26.4635  -21.2829   -9.1985 C   0  0  0  0  0  0  0  0  0  0  0  0
   25.6438  -21.0308  -11.5612 C   0  0  0  0  0  0  0  0  0  0  0  0
   24.6759  -20.3872  -12.5263 C   0  0  2  0  0  0  0  0  0  0  0  0
   23.3581  -20.9230  -12.4061 N   0  0  0  0  0  0  0  0  0  0  0  0
   25.1313  -20.3693  -13.9099 C   0  0  0  0  0  0  0  0  0  0  0  0
   24.5085  -21.1528  -14.7112 O   0  0  0  0  0  0  0  0  0  0  0  0
   26.1787  -19.5914  -14.4753 N   0  0  0  0  0  0  0  0  0  0  0  0
   26.9033  -18.5706  -13.7910 C   0  0  0  0  0  0  0  0  0  0  0  0
   27.5006  -17.7338  -14.9050 C   0  0  0  0  0  0  0  0  0  0  0  0
   27.6777  -18.7020  -16.0477 C   0  0  0  0  0  0  0  0  0  0  0  0
   26.6538  -19.7279  -15.7964 C   0  0  1  0  0  0  0  0  0  0  0  0
   27.1086  -21.1085  -16.1230 C   0  0  0  0  0  0  0  0  0  0  0  0
   27.9594  -21.6318  -15.3835 O   0  0  0  0  0  0  0  0  0  0  0  0
   23.0336  -25.5824  -16.1418 C   0  0  0  0  0  0  0  0  0  0  0  0
   24.3167  -25.2572  -14.9112 S   0  0  0  0  0  0  0  0  0  0  0  0
   25.7479  -24.5642  -15.6272 C   0  0  0  0  0  0  0  0  0  0  0  0
   25.8531  -24.0047  -16.9496 C   0  0  0  0  0  0  0  0  0  0  0  0
   26.9861  -23.2446  -17.4994 C   0  0  2  0  0  0  0  0  0  0  0  0
   26.5946  -21.7995  -17.2297 N   0  0  0  0  0  0  0  0  0  0  0  0
   26.9718  -23.2803  -18.9884 C   0  0  0  0  0  0  0  0  0  0  0  0
   26.4024  -22.1947  -19.6798 O   0  0  0  0  0  0  0  0  0  0  0  0
   27.4178  -24.1846  -19.6934 O   0  0  0  0  0  0  0  0  0  0  0  0
  2  1  1  6
  2  3  1  0
  4  2  1  0
  5  6  1  6
  5  7  1  0
  5  4  1  0
  7  9  1  0
  7  8  2  0
  9 10  1  0
 11 10  1  0
 12 13  1  0
 12 11  1  0
 13  9  1  0
 14 15  2  0
 13 14  1  1
 16 17  1  0
 18 19  1  0
 18 17  1  0
 20 19  1  1
 20 21  1  0
 21 14  1  0
 22 20  1  0
 22 23  1  0
 24 22  2  0
M  END
$$$$
