LPM.pdb
     RDKit          3D

 24 24  0  0  1  0  0  0  0  0999 V2000
   21.1591  -12.9227  -20.2305 C   0  0  0  0  0  0  0  0  0  0  0  0
   20.2926  -11.7131  -20.1888 C   0  0  2  0  0  0  0  0  0  0  0  0
   20.4450  -10.9364  -21.4792 C   0  0  0  0  0  0  0  0  0  0  0  0
   20.3765  -10.8766  -18.9673 C   0  0  0  0  0  0  0  0  0  0  0  0
   20.1673  -11.6092  -17.6627 C   0  0  2  0  0  0  0  0  0  0  0  0
   18.8318  -12.0944  -17.5248 N   0  0  0  0  0  0  0  0  0  0  0  0
   20.6021  -10.8714  -16.4842 C   0  0  0  0  0  0  0  0  0  0  0  0
   19.7084  -10.1442  -15.9216 O   0  0  0  0  0  0  0  0  0  0  0  0
   21.8921  -10.8607  -15.8864 N   0  0  0  0  0  0  0  0  0  0  0  0
   22.9608  -11.7427  -16.2260 C   0  0  0  0  0  0  0  0  0  0  0  0
   23.8801  -11.6875  -15.0219 C   0  0  0  0  0  0  0  0  0  0  0  0
   23.6630  -10.3102  -14.4472 C   0  0  0  0  0  0  0  0  0  0  0  0
   22.2981   -9.9660  -14.8742 C   0  0  1  0  0  0  0  0  0  0  0  0
   22.1410   -8.5334  -15.2516 C   0  0  0  0  0  0  0  0  0  0  0  0
   22.2097   -8.2375  -16.4567 O   0  0  0  0  0  0  0  0  0  0  0  0
   17.8741   -2.4565  -15.7077 C   0  0  0  0  0  0  0  0  0  0  0  0
   18.3986   -4.1670  -15.9642 S   0  0  0  0  0  0  0  0  0  0  0  0
   19.6416   -4.6448  -14.8383 C   0  0  0  0  0  0  0  0  0  0  0  0
   20.3589   -5.8932  -14.8409 C   0  0  0  0  0  0  0  0  0  0  0  0
   21.8076   -6.0798  -14.6676 C   0  0  2  0  0  0  0  0  0  0  0  0
   21.9220   -7.5464  -14.2799 N   0  0  0  0  0  0  0  0  0  0  0  0
   22.2804   -5.4091  -13.4245 C   0  0  0  0  0  0  0  0  0  0  0  0
   22.1703   -6.1027  -12.2048 O   0  0  0  0  0  0  0  0  0  0  0  0
   22.7693   -4.2824  -13.3530 O   0  0  0  0  0  0  0  0  0  0  0  0
  2  1  1  1
  2  3  1  0
  4  2  1  0
  5  6  1  1
  5  7  1  0
  5  4  1  0
  7  9  1  0
  7  8  2  0
  9 10  1  0
 11 10  1  0
 12 13  1  0
 12 11  1  0
 13  9  1  0
 14 15  2  0
 13 14  1  6
 16 17  1  0
 18 19  1  0
 18 17  1  0
 20 19  1  1
 20 21  1  0
 21 14  1  0
 22 20  1  0
 22 23  1  0
 24 22  2  0
M  END
$$$$
