LPM.pdb
     RDKit          3D

 24 24  0  0  1  0  0  0  0  0999 V2000
   23.3701  -18.1679  -16.0743 C   0  0  0  0  0  0  0  0  0  0  0  0
   22.4399  -18.0403  -14.9191 C   0  0  2  0  0  0  0  0  0  0  0  0
   22.1574  -16.5766  -14.6557 C   0  0  0  0  0  0  0  0  0  0  0  0
   22.7792  -18.8180  -13.7031 C   0  0  0  0  0  0  0  0  0  0  0  0
   23.2941  -20.2169  -13.9491 C   0  0  2  0  0  0  0  0  0  0  0  0
   22.2408  -21.1361  -14.2386 N   0  0  0  0  0  0  0  0  0  0  0  0
   24.1842  -20.7195  -12.9113 C   0  0  0  0  0  0  0  0  0  0  0  0
   23.6172  -21.0876  -11.8218 O   0  0  0  0  0  0  0  0  0  0  0  0
   25.5993  -20.8497  -12.9612 N   0  0  0  0  0  0  0  0  0  0  0  0
   26.4093  -20.5658  -14.1008 C   0  0  0  0  0  0  0  0  0  0  0  0
   27.6964  -21.3211  -13.8345 C   0  0  0  0  0  0  0  0  0  0  0  0
   27.8007  -21.3658  -12.3306 C   0  0  0  0  0  0  0  0  0  0  0  0
   26.4029  -21.2728  -11.8819 C   0  0  1  0  0  0  0  0  0  0  0  0
   26.2305  -20.4458  -10.6548 C   0  0  0  0  0  0  0  0  0  0  0  0
   25.9455  -19.2445  -10.7971 O   0  0  0  0  0  0  0  0  0  0  0  0
   29.0027  -18.6516   -4.7672 C   0  0  0  0  0  0  0  0  0  0  0  0
   27.2265  -18.9647   -4.8840 S   0  0  0  0  0  0  0  0  0  0  0  0
   26.8797  -20.4590   -5.7133 C   0  0  0  0  0  0  0  0  0  0  0  0
   26.4159  -20.5925   -7.0698 C   0  0  0  0  0  0  0  0  0  0  0  0
   27.1642  -20.2711   -8.2947 C   0  0  2  0  0  0  0  0  0  0  0  0
   26.3839  -21.0022   -9.3767 N   0  0  0  0  0  0  0  0  0  0  0  0
   28.4630  -20.9997   -8.3253 C   0  0  0  0  0  0  0  0  0  0  0  0
   29.6392  -20.2867   -8.0270 O   0  0  0  0  0  0  0  0  0  0  0  0
   28.6166  -22.1910   -8.5918 O   0  0  0  0  0  0  0  0  0  0  0  0
  2  1  1  6
  2  3  1  0
  4  2  1  0
  5  6  1  1
  5  7  1  0
  5  4  1  0
  7  9  1  0
  7  8  2  0
  9 10  1  0
 11 10  1  0
 12 13  1  0
 12 11  1  0
 13  9  1  0
 14 15  2  0
 13 14  1  1
 16 17  1  0
 18 19  1  0
 18 17  1  0
 20 19  1  1
 20 21  1  0
 21 14  1  0
 22 20  1  0
 22 23  1  0
 24 22  2  0
M  END
$$$$
