LPM.pdb
     RDKit          3D

 24 24  0  0  1  0  0  0  0  0999 V2000
   25.3029  -15.8021  -18.9365 C   0  0  0  0  0  0  0  0  0  0  0  0
   24.2018  -15.8234  -17.9351 C   0  0  2  0  0  0  0  0  0  0  0  0
   23.9310  -14.4152  -17.4501 C   0  0  0  0  0  0  0  0  0  0  0  0
   24.3110  -16.8257  -16.8478 C   0  0  0  0  0  0  0  0  0  0  0  0
   24.5529  -18.2478  -17.2970 C   0  0  2  0  0  0  0  0  0  0  0  0
   23.4417  -18.7824  -18.0165 N   0  0  0  0  0  0  0  0  0  0  0  0
   24.9967  -19.1440  -16.2378 C   0  0  0  0  0  0  0  0  0  0  0  0
   24.0664  -19.7027  -15.5551 O   0  0  0  0  0  0  0  0  0  0  0  0
   26.3312  -19.4714  -15.8720 N   0  0  0  0  0  0  0  0  0  0  0  0
   27.5021  -19.0149  -16.5471 C   0  0  0  0  0  0  0  0  0  0  0  0
   28.5746  -20.0026  -16.1320 C   0  0  0  0  0  0  0  0  0  0  0  0
   28.1434  -20.4720  -14.7651 C   0  0  0  0  0  0  0  0  0  0  0  0
   26.6836  -20.2915  -14.7797 C   0  0  1  0  0  0  0  0  0  0  0  0
   26.1346  -19.8149  -13.4794 C   0  0  0  0  0  0  0  0  0  0  0  0
   25.6943  -18.6540  -13.4232 O   0  0  0  0  0  0  0  0  0  0  0  0
   20.9369  -20.2013  -12.5343 C   0  0  0  0  0  0  0  0  0  0  0  0
   21.2656  -20.0845  -10.7609 S   0  0  0  0  0  0  0  0  0  0  0  0
   22.9702  -19.9461  -10.4203 C   0  0  0  0  0  0  0  0  0  0  0  0
   24.0464  -20.1968  -11.3434 C   0  0  0  0  0  0  0  0  0  0  0  0
   25.4869  -20.1798  -11.0463 C   0  0  2  0  0  0  0  0  0  0  0  0
   26.1133  -20.6476  -12.3513 N   0  0  0  0  0  0  0  0  0  0  0  0
   25.8491  -21.2962  -10.1292 C   0  0  0  0  0  0  0  0  0  0  0  0
   25.9428  -21.0282   -8.7507 O   0  0  0  0  0  0  0  0  0  0  0  0
   26.0809  -22.4578  -10.4618 O   0  0  0  0  0  0  0  0  0  0  0  0
  2  1  1  1
  2  3  1  0
  4  2  1  0
  5  6  1  1
  5  7  1  0
  5  4  1  0
  7  9  1  0
  7  8  2  0
  9 10  1  0
 11 10  1  0
 12 13  1  0
 12 11  1  0
 13  9  1  0
 14 15  2  0
 13 14  1  1
 16 17  1  0
 18 19  1  0
 18 17  1  0
 20 19  1  6
 20 21  1  0
 21 14  1  0
 22 20  1  0
 22 23  1  0
 24 22  2  0
M  END
$$$$
