LPM.pdb
     RDKit          3D

 24 24  0  0  1  0  0  0  0  0999 V2000
   25.2139  -19.7322   -9.1711 C   0  0  0  0  0  0  0  0  0  0  0  0
   24.2755  -20.6451   -9.8795 C   0  0  2  0  0  0  0  0  0  0  0  0
   24.2611  -21.9920   -9.1885 C   0  0  0  0  0  0  0  0  0  0  0  0
   24.4108  -20.7246  -11.3539 C   0  0  0  0  0  0  0  0  0  0  0  0
   24.4401  -19.3978  -12.0760 C   0  0  2  0  0  0  0  0  0  0  0  0
   23.1455  -18.8025  -12.1631 N   0  0  0  0  0  0  0  0  0  0  0  0
   25.1102  -19.4334  -13.3690 C   0  0  0  0  0  0  0  0  0  0  0  0
   24.3859  -19.1222  -14.3802 O   0  0  0  0  0  0  0  0  0  0  0  0
   26.4641  -19.7707  -13.6428 N   0  0  0  0  0  0  0  0  0  0  0  0
   27.4441  -20.0942  -12.6577 C   0  0  0  0  0  0  0  0  0  0  0  0
   28.7655  -19.8677  -13.3652 C   0  0  0  0  0  0  0  0  0  0  0  0
   28.4632  -20.1336  -14.8186 C   0  0  0  0  0  0  0  0  0  0  0  0
   27.0264  -19.8399  -14.9346 C   0  0  1  0  0  0  0  0  0  0  0  0
   26.3050  -20.7718  -15.8459 C   0  0  0  0  0  0  0  0  0  0  0  0
   25.9407  -21.8685  -15.3885 O   0  0  0  0  0  0  0  0  0  0  0  0
   21.1901  -18.7865  -18.3327 C   0  0  0  0  0  0  0  0  0  0  0  0
   21.5636  -19.9640  -19.6521 S   0  0  0  0  0  0  0  0  0  0  0  0
   22.9767  -20.9207  -19.2930 C   0  0  0  0  0  0  0  0  0  0  0  0
   24.0801  -20.5288  -18.4552 C   0  0  0  0  0  0  0  0  0  0  0  0
   25.2422  -21.3505  -18.0838 C   0  0  2  0  0  0  0  0  0  0  0  0
   26.0429  -20.4258  -17.1794 N   0  0  0  0  0  0  0  0  0  0  0  0
   26.1687  -21.5061  -19.2397 C   0  0  0  0  0  0  0  0  0  0  0  0
   27.3251  -20.7052  -19.2849 O   0  0  0  0  0  0  0  0  0  0  0  0
   26.0226  -22.2824  -20.1830 O   0  0  0  0  0  0  0  0  0  0  0  0
  2  1  1  1
  2  3  1  0
  4  2  1  0
  5  6  1  6
  5  7  1  0
  5  4  1  0
  7  9  1  0
  7  8  2  0
  9 10  1  0
 11 10  1  0
 12 13  1  0
 12 11  1  0
 13  9  1  0
 14 15  2  0
 13 14  1  6
 16 17  1  0
 18 19  1  0
 18 17  1  0
 20 19  1  6
 20 21  1  0
 21 14  1  0
 22 20  1  0
 22 23  1  0
 24 22  2  0
M  END
$$$$
