LPM.pdb
     RDKit          3D

 24 24  0  0  1  0  0  0  0  0999 V2000
   25.1196  -21.8474  -11.3020 C   0  0  0  0  0  0  0  0  0  0  0  0
   26.2955  -21.0426  -10.8718 C   0  0  2  0  0  0  0  0  0  0  0  0
   26.2593  -20.8560   -9.3699 C   0  0  0  0  0  0  0  0  0  0  0  0
   26.5608  -19.7955  -11.6287 C   0  0  0  0  0  0  0  0  0  0  0  0
   26.6339  -19.9497  -13.1299 C   0  0  2  0  0  0  0  0  0  0  0  0
   27.1128  -18.7674  -13.7708 N   0  0  0  0  0  0  0  0  0  0  0  0
   25.4073  -20.4415  -13.7426 C   0  0  0  0  0  0  0  0  0  0  0  0
   24.3450  -19.7755  -13.4742 O   0  0  0  0  0  0  0  0  0  0  0  0
   25.2474  -21.5660  -14.5980 N   0  0  0  0  0  0  0  0  0  0  0  0
   26.2886  -22.4673  -14.9711 C   0  0  0  0  0  0  0  0  0  0  0  0
   25.7673  -23.1303  -16.2307 C   0  0  0  0  0  0  0  0  0  0  0  0
   24.2675  -23.1058  -16.0743 C   0  0  0  0  0  0  0  0  0  0  0  0
   24.0283  -21.9524  -15.1932 C   0  0  1  0  0  0  0  0  0  0  0  0
   22.9335  -22.1787  -14.2084 C   0  0  0  0  0  0  0  0  0  0  0  0
   23.2485  -22.3790  -13.0230 O   0  0  0  0  0  0  0  0  0  0  0  0
   20.8421  -18.0941  -11.5098 C   0  0  0  0  0  0  0  0  0  0  0  0
   19.4262  -19.1298  -11.0749 S   0  0  0  0  0  0  0  0  0  0  0  0
   19.4569  -20.6615  -11.9079 C   0  0  0  0  0  0  0  0  0  0  0  0
   20.4464  -21.0931  -12.8607 C   0  0  0  0  0  0  0  0  0  0  0  0
   20.4739  -22.3716  -13.5875 C   0  0  2  0  0  0  0  0  0  0  0  0
   21.5879  -22.1665  -14.6030 N   0  0  0  0  0  0  0  0  0  0  0  0
   19.2853  -22.4982  -14.4763 C   0  0  0  0  0  0  0  0  0  0  0  0
   18.1255  -23.1078  -13.9625 O   0  0  0  0  0  0  0  0  0  0  0  0
   19.2120  -22.1151  -15.6432 O   0  0  0  0  0  0  0  0  0  0  0  0
  2  1  1  6
  2  3  1  0
  4  2  1  0
  5  6  1  6
  5  7  1  0
  5  4  1  0
  7  9  1  0
  7  8  2  0
  9 10  1  0
 11 10  1  0
 12 13  1  0
 12 11  1  0
 13  9  1  0
 14 15  2  0
 13 14  1  1
 16 17  1  0
 18 19  1  0
 18 17  1  0
 20 19  1  1
 20 21  1  0
 21 14  1  0
 22 20  1  0
 22 23  1  0
 24 22  2  0
M  END
$$$$
