LPM.pdb
     RDKit          3D

 24 24  0  0  1  0  0  0  0  0999 V2000
   23.5923  -18.7880  -15.8655 C   0  0  0  0  0  0  0  0  0  0  0  0
   22.6346  -18.7508  -14.7266 C   0  0  2  0  0  0  0  0  0  0  0  0
   22.0041  -17.3772  -14.6398 C   0  0  0  0  0  0  0  0  0  0  0  0
   23.1245  -19.2731  -13.4282 C   0  0  0  0  0  0  0  0  0  0  0  0
   23.7027  -20.6684  -13.4658 C   0  0  2  0  0  0  0  0  0  0  0  0
   22.7060  -21.6585  -13.7195 N   0  0  0  0  0  0  0  0  0  0  0  0
   24.5251  -21.0081  -12.3124 C   0  0  0  0  0  0  0  0  0  0  0  0
   23.8864  -21.3555  -11.2563 O   0  0  0  0  0  0  0  0  0  0  0  0
   25.9438  -21.0001  -12.2177 N   0  0  0  0  0  0  0  0  0  0  0  0
   26.8346  -20.6572  -13.2779 C   0  0  0  0  0  0  0  0  0  0  0  0
   28.1543  -21.2785  -12.8650 C   0  0  0  0  0  0  0  0  0  0  0  0
   28.1089  -21.2880  -11.3576 C   0  0  0  0  0  0  0  0  0  0  0  0
   26.6703  -21.3248  -11.0529 C   0  0  1  0  0  0  0  0  0  0  0  0
   26.2957  -20.4984   -9.8712 C   0  0  0  0  0  0  0  0  0  0  0  0
   25.8971  -19.3389  -10.0739 O   0  0  0  0  0  0  0  0  0  0  0  0
   28.7274  -18.6975   -3.4966 C   0  0  0  0  0  0  0  0  0  0  0  0
   27.1331  -19.4315   -3.9277 S   0  0  0  0  0  0  0  0  0  0  0  0
   27.3136  -20.8269   -4.9579 C   0  0  0  0  0  0  0  0  0  0  0  0
   26.7005  -21.0193   -6.2464 C   0  0  0  0  0  0  0  0  0  0  0  0
   26.7698  -20.1116   -7.4018 C   0  0  2  0  0  0  0  0  0  0  0  0
   26.3884  -21.0099   -8.5688 N   0  0  0  0  0  0  0  0  0  0  0  0
   28.1852  -19.7855   -7.7318 C   0  0  0  0  0  0  0  0  0  0  0  0
   29.0157  -20.8146   -8.2136 O   0  0  0  0  0  0  0  0  0  0  0  0
   28.7160  -18.6810   -7.6232 O   0  0  0  0  0  0  0  0  0  0  0  0
  2  1  1  6
  2  3  1  0
  4  2  1  0
  5  6  1  1
  5  7  1  0
  5  4  1  0
  7  9  1  0
  7  8  2  0
  9 10  1  0
 11 10  1  0
 12 13  1  0
 12 11  1  0
 13  9  1  0
 14 15  2  0
 13 14  1  1
 16 17  1  0
 18 19  1  0
 18 17  1  0
 20 19  1  1
 20 21  1  0
 21 14  1  0
 22 20  1  0
 22 23  1  0
 24 22  2  0
M  END
$$$$
