LPM.pdb
     RDKit          3D

 24 24  0  0  1  0  0  0  0  0999 V2000
   21.8259  -20.1357  -12.6688 C   0  0  0  0  0  0  0  0  0  0  0  0
   23.1636  -20.7876  -12.6326 C   0  0  2  0  0  0  0  0  0  0  0  0
   23.0778  -22.1554  -13.2756 C   0  0  0  0  0  0  0  0  0  0  0  0
   23.8742  -20.7759  -11.3313 C   0  0  0  0  0  0  0  0  0  0  0  0
   25.3515  -21.0856  -11.3950 C   0  0  2  0  0  0  0  0  0  0  0  0
   25.9618  -21.0708  -10.1044 N   0  0  0  0  0  0  0  0  0  0  0  0
   26.0924  -20.2795  -12.3559 C   0  0  0  0  0  0  0  0  0  0  0  0
   26.1989  -19.0336  -12.0726 O   0  0  0  0  0  0  0  0  0  0  0  0
   26.7081  -20.7065  -13.5644 N   0  0  0  0  0  0  0  0  0  0  0  0
   26.8059  -22.0612  -14.0009 C   0  0  0  0  0  0  0  0  0  0  0  0
   27.9389  -22.0422  -15.0079 C   0  0  0  0  0  0  0  0  0  0  0  0
   27.9077  -20.6477  -15.5813 C   0  0  0  0  0  0  0  0  0  0  0  0
   27.3039  -19.8434  -14.5078 C   0  0  1  0  0  0  0  0  0  0  0  0
   26.3816  -18.7864  -15.0094 C   0  0  0  0  0  0  0  0  0  0  0  0
   25.1594  -18.9692  -14.8778 O   0  0  0  0  0  0  0  0  0  0  0  0
   26.4288  -11.0016  -16.0443 C   0  0  0  0  0  0  0  0  0  0  0  0
   27.0922  -12.5135  -15.3091 S   0  0  0  0  0  0  0  0  0  0  0  0
   26.3122  -13.9415  -15.9364 C   0  0  0  0  0  0  0  0  0  0  0  0
   26.5623  -15.2986  -15.5255 C   0  0  0  0  0  0  0  0  0  0  0  0
   25.9299  -16.5141  -16.0607 C   0  0  2  0  0  0  0  0  0  0  0  0
   26.8737  -17.6195  -15.6117 N   0  0  0  0  0  0  0  0  0  0  0  0
   26.0829  -16.5798  -17.5409 C   0  0  0  0  0  0  0  0  0  0  0  0
   25.0033  -16.1703  -18.3455 O   0  0  0  0  0  0  0  0  0  0  0  0
   27.0815  -16.9654  -18.1473 O   0  0  0  0  0  0  0  0  0  0  0  0
  2  1  1  1
  2  3  1  0
  4  2  1  0
  5  6  1  1
  5  7  1  0
  5  4  1  0
  7  9  1  0
  7  8  2  0
  9 10  1  0
 11 10  1  0
 12 13  1  0
 12 11  1  0
 13  9  1  0
 14 15  2  0
 13 14  1  6
 16 17  1  0
 18 19  1  0
 18 17  1  0
 20 19  1  1
 20 21  1  0
 21 14  1  0
 22 20  1  0
 22 23  1  0
 24 22  2  0
M  END
$$$$
