GAK.pdb
     RDKit          3D

 19 18  0  0  1  0  0  0  0  0999 V2000
    5.5923  -12.5974   26.8259 N   0  0  0  0  0  0  0  0  0  0  0  0
    6.1070  -12.1682   25.5409 C   0  0  0  0  0  0  0  0  0  0  0  0
    6.6631  -13.3364   24.8478 C   0  0  0  0  0  0  0  0  0  0  0  0
    6.8906  -14.3910   25.4725 O   0  0  0  0  0  0  0  0  0  0  0  0
    7.5036  -14.2496   21.2864 C   0  0  0  0  0  0  0  0  0  0  0  0
    7.5874  -14.4840   22.7942 C   0  0  2  0  0  0  0  0  0  0  0  0
    6.9729  -13.3441   23.4486 N   0  0  0  0  0  0  0  0  0  0  0  0
    8.9831  -14.6904   23.2343 C   0  0  0  0  0  0  0  0  0  0  0  0
    9.8001  -13.7417   23.2072 O   0  0  0  0  0  0  0  0  0  0  0  0
    9.3761  -15.9728   23.6842 N   0  0  0  0  0  0  0  0  0  0  0  0
   10.6639  -16.2027   24.3756 C   0  0  1  0  0  0  0  0  0  0  0  0
   10.4359  -16.6079   25.7890 C   0  0  0  0  0  0  0  0  0  0  0  0
   10.8729  -15.5502   26.7698 C   0  0  0  0  0  0  0  0  0  0  0  0
   10.5492  -16.0222   28.1999 C   0  0  0  0  0  0  0  0  0  0  0  0
   10.9306  -14.8805   29.1504 C   0  0  0  0  0  0  0  0  0  0  0  0
   10.6461  -15.3502   30.5095 N   0  0  0  0  0  0  0  0  0  0  0  0
   11.4984  -17.1115   23.5749 C   0  0  0  0  0  0  0  0  0  0  0  0
   12.7118  -17.3431   23.8908 O   0  0  0  0  0  0  0  0  0  0  0  0
   11.0296  -17.7605   22.4526 O   0  0  0  0  0  0  0  0  0  0  0  0
  2  3  1  0
  2  1  1  0
  3  7  1  0
  4  3  2  0
  6  5  1  6
  7  6  1  0
  8 10  1  0
  8  6  1  0
  9  8  2  0
 11 10  1  0
 11 17  1  0
 11 12  1  1
 13 12  1  0
 13 14  1  0
 14 15  1  0
 15 16  1  0
 17 18  2  0
 17 19  1  0
M  END
$$$$
