GAK.pdb
     RDKit          3D

 19 18  0  0  1  0  0  0  0  0999 V2000
    8.3803  -18.2055   18.4510 N   0  0  0  0  0  0  0  0  0  0  0  0
    7.3928  -17.3001   19.0035 C   0  0  0  0  0  0  0  0  0  0  0  0
    8.0901  -16.1400   19.5713 C   0  0  0  0  0  0  0  0  0  0  0  0
    9.2991  -16.2134   19.8664 O   0  0  0  0  0  0  0  0  0  0  0  0
    7.2161  -12.5548   20.3693 C   0  0  0  0  0  0  0  0  0  0  0  0
    8.1254  -13.7786   20.4721 C   0  0  2  0  0  0  0  0  0  0  0  0
    7.4484  -14.8825   19.8176 N   0  0  0  0  0  0  0  0  0  0  0  0
    8.4608  -14.0886   21.8777 C   0  0  0  0  0  0  0  0  0  0  0  0
    9.2172  -13.3313   22.5278 O   0  0  0  0  0  0  0  0  0  0  0  0
    7.9140  -15.2506   22.4713 N   0  0  0  0  0  0  0  0  0  0  0  0
    8.1844  -15.6155   23.8795 C   0  0  1  0  0  0  0  0  0  0  0  0
    7.1761  -16.5928   24.3714 C   0  0  0  0  0  0  0  0  0  0  0  0
    7.4001  -16.9771   25.8115 C   0  0  0  0  0  0  0  0  0  0  0  0
    7.4168  -18.5130   25.9281 C   0  0  0  0  0  0  0  0  0  0  0  0
    7.5686  -18.8521   27.4162 C   0  0  0  0  0  0  0  0  0  0  0  0
    7.6664  -20.3117   27.5085 N   0  0  0  0  0  0  0  0  0  0  0  0
    9.5916  -16.0191   24.0232 C   0  0  0  0  0  0  0  0  0  0  0  0
   10.1821  -16.6880   23.1124 O   0  0  0  0  0  0  0  0  0  0  0  0
   10.3486  -15.7039   25.1314 O   0  0  0  0  0  0  0  0  0  0  0  0
  2  3  1  0
  2  1  1  0
  3  7  1  0
  4  3  2  0
  6  5  1  1
  7  6  1  0
  8 10  1  0
  8  6  1  0
  9  8  2  0
 11 10  1  0
 11 17  1  0
 11 12  1  6
 13 12  1  0
 13 14  1  0
 14 15  1  0
 15 16  1  0
 17 18  2  0
 17 19  1  0
M  END
$$$$
