GAK.pdb
     RDKit          3D

 19 18  0  0  1  0  0  0  0  0999 V2000
    7.8989  -12.9796   17.3868 N   0  0  0  0  0  0  0  0  0  0  0  0
    9.0056  -13.7989   17.8386 C   0  0  0  0  0  0  0  0  0  0  0  0
    8.5765  -14.5483   19.0256 C   0  0  0  0  0  0  0  0  0  0  0  0
    7.6407  -14.1267   19.7331 O   0  0  0  0  0  0  0  0  0  0  0  0
    9.4078  -17.8711   20.5990 C   0  0  0  0  0  0  0  0  0  0  0  0
    8.7862  -16.4759   20.6469 C   0  0  2  0  0  0  0  0  0  0  0  0
    9.1856  -15.7778   19.4393 N   0  0  0  0  0  0  0  0  0  0  0  0
    9.1861  -15.7455   21.8679 C   0  0  0  0  0  0  0  0  0  0  0  0
   10.2522  -15.0888   21.8897 O   0  0  0  0  0  0  0  0  0  0  0  0
    8.3464  -15.8022   23.0050 N   0  0  0  0  0  0  0  0  0  0  0  0
    8.5881  -14.9681   24.2031 C   0  0  1  0  0  0  0  0  0  0  0  0
    7.3649  -14.2022   24.5649 C   0  0  0  0  0  0  0  0  0  0  0  0
    7.5550  -13.3630   25.8024 C   0  0  0  0  0  0  0  0  0  0  0  0
    6.2128  -12.7086   26.1806 C   0  0  0  0  0  0  0  0  0  0  0  0
    6.4550  -11.8789   27.4476 C   0  0  0  0  0  0  0  0  0  0  0  0
    5.1520  -11.3504   27.8614 N   0  0  0  0  0  0  0  0  0  0  0  0
    9.1655  -15.7965   25.2726 C   0  0  0  0  0  0  0  0  0  0  0  0
    8.8837  -17.0360   25.3717 O   0  0  0  0  0  0  0  0  0  0  0  0
   10.0341  -15.2947   26.2183 O   0  0  0  0  0  0  0  0  0  0  0  0
  2  3  1  0
  2  1  1  0
  3  7  1  0
  4  3  2  0
  6  5  1  1
  7  6  1  0
  8 10  1  0
  8  6  1  0
  9  8  2  0
 11 10  1  0
 11 17  1  0
 11 12  1  1
 13 12  1  0
 13 14  1  0
 14 15  1  0
 15 16  1  0
 17 18  2  0
 17 19  1  0
M  END
$$$$
