GAK.pdb
     RDKit          3D

 19 18  0  0  1  0  0  0  0  0999 V2000
    7.6451  -13.5364   16.0230 N   0  0  0  0  0  0  0  0  0  0  0  0
    9.0809  -13.6878   15.8973 C   0  0  0  0  0  0  0  0  0  0  0  0
    9.4791  -14.9305   16.5694 C   0  0  0  0  0  0  0  0  0  0  0  0
    8.7917  -15.3913   17.5017 O   0  0  0  0  0  0  0  0  0  0  0  0
   12.0259  -17.6312   15.9694 C   0  0  0  0  0  0  0  0  0  0  0  0
   11.0076  -16.9223   16.8613 C   0  0  2  0  0  0  0  0  0  0  0  0
   10.6493  -15.6760   16.2105 N   0  0  0  0  0  0  0  0  0  0  0  0
   11.5383  -16.7043   18.2233 C   0  0  0  0  0  0  0  0  0  0  0  0
   12.2531  -15.7060   18.4698 O   0  0  0  0  0  0  0  0  0  0  0  0
   11.2252  -17.6397   19.2375 N   0  0  0  0  0  0  0  0  0  0  0  0
   11.6494  -17.4478   20.6420 C   0  0  1  0  0  0  0  0  0  0  0  0
   10.6925  -18.1037   21.5736 C   0  0  0  0  0  0  0  0  0  0  0  0
    9.2992  -17.5403   21.4601 C   0  0  0  0  0  0  0  0  0  0  0  0
    8.3368  -18.3978   22.3034 C   0  0  0  0  0  0  0  0  0  0  0  0
    6.9361  -17.7931   22.1464 C   0  0  0  0  0  0  0  0  0  0  0  0
    5.9926  -18.7613   22.7129 N   0  0  0  0  0  0  0  0  0  0  0  0
   13.0591  -17.8407   20.7896 C   0  0  0  0  0  0  0  0  0  0  0  0
   13.7432  -17.4751   21.8015 O   0  0  0  0  0  0  0  0  0  0  0  0
   13.7185  -18.6170   19.8605 O   0  0  0  0  0  0  0  0  0  0  0  0
  2  3  1  0
  2  1  1  0
  3  7  1  0
  4  3  2  0
  6  5  1  6
  7  6  1  0
  8 10  1  0
  8  6  1  0
  9  8  2  0
 11 10  1  0
 11 17  1  0
 11 12  1  1
 13 12  1  0
 13 14  1  0
 14 15  1  0
 15 16  1  0
 17 18  2  0
 17 19  1  0
M  END
$$$$
