GAK.pdb
     RDKit          3D

 19 18  0  0  1  0  0  0  0  0999 V2000
    8.4161  -16.3585   15.5822 N   0  0  0  0  0  0  0  0  0  0  0  0
    7.5246  -15.7802   16.5677 C   0  0  0  0  0  0  0  0  0  0  0  0
    8.3342  -15.1088   17.5915 C   0  0  0  0  0  0  0  0  0  0  0  0
    9.5507  -15.3594   17.6978 O   0  0  0  0  0  0  0  0  0  0  0  0
    7.7435  -12.5135   20.2710 C   0  0  0  0  0  0  0  0  0  0  0  0
    8.5601  -13.6373   19.6342 C   0  0  2  0  0  0  0  0  0  0  0  0
    7.7978  -14.1489   18.5106 N   0  0  0  0  0  0  0  0  0  0  0  0
    8.8823  -14.6959   20.6138 C   0  0  0  0  0  0  0  0  0  0  0  0
    8.0147  -15.5371   20.9422 O   0  0  0  0  0  0  0  0  0  0  0  0
   10.1822  -14.7405   21.1703 N   0  0  0  0  0  0  0  0  0  0  0  0
   10.6849  -15.9257   21.8997 C   0  0  1  0  0  0  0  0  0  0  0  0
   10.6827  -17.1243   21.0182 C   0  0  0  0  0  0  0  0  0  0  0  0
    9.9995  -18.3073   21.6551 C   0  0  0  0  0  0  0  0  0  0  0  0
    9.9235  -19.4576   20.6335 C   0  0  0  0  0  0  0  0  0  0  0  0
    9.2785  -20.6532   21.3454 C   0  0  0  0  0  0  0  0  0  0  0  0
    9.1483  -21.7186   20.3472 N   0  0  0  0  0  0  0  0  0  0  0  0
   11.9693  -15.6030   22.5398 C   0  0  0  0  0  0  0  0  0  0  0  0
   12.4888  -16.3818   23.4054 O   0  0  0  0  0  0  0  0  0  0  0  0
   12.6813  -14.4590   22.2486 O   0  0  0  0  0  0  0  0  0  0  0  0
  2  3  1  0
  2  1  1  0
  3  7  1  0
  4  3  2  0
  6  5  1  1
  7  6  1  0
  8 10  1  0
  8  6  1  0
  9  8  2  0
 11 10  1  0
 11 17  1  0
 11 12  1  6
 13 12  1  0
 13 14  1  0
 14 15  1  0
 15 16  1  0
 17 18  2  0
 17 19  1  0
M  END
$$$$
