GAK.pdb
     RDKit          3D

 19 18  0  0  1  0  0  0  0  0999 V2000
    8.0141  -13.3429   19.0101 N   0  0  0  0  0  0  0  0  0  0  0  0
    7.0443  -13.5920   20.0578 C   0  0  0  0  0  0  0  0  0  0  0  0
    7.7534  -13.6683   21.3408 C   0  0  0  0  0  0  0  0  0  0  0  0
    8.9946  -13.7810   21.3694 O   0  0  0  0  0  0  0  0  0  0  0  0
    6.9076  -13.1748   24.9638 C   0  0  0  0  0  0  0  0  0  0  0  0
    7.7988  -13.7550   23.8664 C   0  0  2  0  0  0  0  0  0  0  0  0
    7.0877  -13.6200   22.6089 N   0  0  0  0  0  0  0  0  0  0  0  0
    8.1634  -15.1590   24.1495 C   0  0  0  0  0  0  0  0  0  0  0  0
    7.3276  -16.0753   23.9762 O   0  0  0  0  0  0  0  0  0  0  0  0
    9.4673  -15.4462   24.6174 N   0  0  0  0  0  0  0  0  0  0  0  0
    9.9050  -16.8251   24.9279 C   0  0  1  0  0  0  0  0  0  0  0  0
   11.1982  -17.1287   24.2576 C   0  0  0  0  0  0  0  0  0  0  0  0
   11.3839  -18.6027   24.0033 C   0  0  0  0  0  0  0  0  0  0  0  0
   12.7235  -18.8255   23.2763 C   0  0  0  0  0  0  0  0  0  0  0  0
   12.8537  -20.3319   23.0193 C   0  0  0  0  0  0  0  0  0  0  0  0
   14.1234  -20.5315   22.3146 N   0  0  0  0  0  0  0  0  0  0  0  0
    9.8719  -17.0374   26.3830 C   0  0  0  0  0  0  0  0  0  0  0  0
    9.9079  -16.0541   27.1939 O   0  0  0  0  0  0  0  0  0  0  0  0
    9.7994  -18.2907   26.9525 O   0  0  0  0  0  0  0  0  0  0  0  0
  2  3  1  0
  2  1  1  0
  3  7  1  0
  4  3  2  0
  6  5  1  1
  7  6  1  0
  8 10  1  0
  8  6  1  0
  9  8  2  0
 11 10  1  0
 11 17  1  0
 11 12  1  1
 13 12  1  0
 13 14  1  0
 14 15  1  0
 15 16  1  0
 17 18  2  0
 17 19  1  0
M  END
$$$$
