GAK.pdb
     RDKit          3D

 19 18  0  0  1  0  0  0  0  0999 V2000
    6.4672  -19.4209   19.7149 N   0  0  0  0  0  0  0  0  0  0  0  0
    6.2601  -18.2981   20.6076 C   0  0  0  0  0  0  0  0  0  0  0  0
    5.0284  -18.5310   21.3714 C   0  0  0  0  0  0  0  0  0  0  0  0
    4.8688  -17.9995   22.4876 O   0  0  0  0  0  0  0  0  0  0  0  0
    1.6201  -19.8529   20.6440 C   0  0  0  0  0  0  0  0  0  0  0  0
    2.7290  -19.5430   21.6488 C   0  0  2  0  0  0  0  0  0  0  0  0
    3.9584  -19.3599   20.9003 N   0  0  0  0  0  0  0  0  0  0  0  0
    2.8523  -20.6080   22.6661 C   0  0  0  0  0  0  0  0  0  0  0  0
    1.8852  -20.8824   23.4128 O   0  0  0  0  0  0  0  0  0  0  0  0
    4.0768  -21.3073   22.7795 N   0  0  0  0  0  0  0  0  0  0  0  0
    4.2534  -22.4357   23.7202 C   0  0  1  0  0  0  0  0  0  0  0  0
    4.8326  -23.6152   23.0223 C   0  0  0  0  0  0  0  0  0  0  0  0
    4.9965  -24.8028   23.9358 C   0  0  0  0  0  0  0  0  0  0  0  0
    5.5763  -25.9823   23.1326 C   0  0  0  0  0  0  0  0  0  0  0  0
    5.6521  -27.1834   24.0833 C   0  0  0  0  0  0  0  0  0  0  0  0
    6.0074  -28.3470   23.2658 N   0  0  0  0  0  0  0  0  0  0  0  0
    4.9816  -21.9749   24.9123 C   0  0  0  0  0  0  0  0  0  0  0  0
    5.0891  -22.7136   25.9460 O   0  0  0  0  0  0  0  0  0  0  0  0
    5.5849  -20.7375   24.9860 O   0  0  0  0  0  0  0  0  0  0  0  0
  2  3  1  0
  2  1  1  0
  3  7  1  0
  4  3  2  0
  6  5  1  6
  7  6  1  0
  8 10  1  0
  8  6  1  0
  9  8  2  0
 11 10  1  0
 11 17  1  0
 11 12  1  6
 13 12  1  0
 13 14  1  0
 14 15  1  0
 15 16  1  0
 17 18  2  0
 17 19  1  0
M  END
$$$$
