GAK.pdb
     RDKit          3D

 19 18  0  0  1  0  0  0  0  0999 V2000
    9.0563  -16.8050   16.5684 N   0  0  0  0  0  0  0  0  0  0  0  0
    7.9404  -16.4167   17.4074 C   0  0  0  0  0  0  0  0  0  0  0  0
    8.4395  -15.5315   18.4665 C   0  0  0  0  0  0  0  0  0  0  0  0
    9.5868  -15.6860   18.9288 O   0  0  0  0  0  0  0  0  0  0  0  0
    7.2297  -12.3963   20.1729 C   0  0  0  0  0  0  0  0  0  0  0  0
    8.1810  -13.5869   20.0604 C   0  0  2  0  0  0  0  0  0  0  0  0
    7.6655  -14.4619   19.0242 N   0  0  0  0  0  0  0  0  0  0  0  0
    8.3299  -14.2864   21.3538 C   0  0  0  0  0  0  0  0  0  0  0  0
    8.9216  -13.7306   22.3073 O   0  0  0  0  0  0  0  0  0  0  0  0
    7.7943  -15.5883   21.4931 N   0  0  0  0  0  0  0  0  0  0  0  0
    7.9581  -16.3771   22.7342 C   0  0  1  0  0  0  0  0  0  0  0  0
    7.1606  -17.6314   22.6681 C   0  0  0  0  0  0  0  0  0  0  0  0
    5.7057  -17.3747   22.3699 C   0  0  0  0  0  0  0  0  0  0  0  0
    4.9805  -18.7221   22.1933 C   0  0  0  0  0  0  0  0  0  0  0  0
    3.5265  -18.4078   21.8197 C   0  0  0  0  0  0  0  0  0  0  0  0
    2.8776  -19.6906   21.5336 N   0  0  0  0  0  0  0  0  0  0  0  0
    9.3898  -16.5424   23.0282 C   0  0  0  0  0  0  0  0  0  0  0  0
    9.8046  -16.6896   24.2249 O   0  0  0  0  0  0  0  0  0  0  0  0
   10.3571  -16.5503   22.0460 O   0  0  0  0  0  0  0  0  0  0  0  0
  2  3  1  0
  2  1  1  0
  3  7  1  0
  4  3  2  0
  6  5  1  1
  7  6  1  0
  8 10  1  0
  8  6  1  0
  9  8  2  0
 11 10  1  0
 11 17  1  0
 11 12  1  6
 13 12  1  0
 13 14  1  0
 14 15  1  0
 15 16  1  0
 17 18  2  0
 17 19  1  0
M  END
$$$$
