GAK.pdb
     RDKit          3D

 19 18  0  0  1  0  0  0  0  0999 V2000
    5.6944  -19.6941   21.4496 N   0  0  0  0  0  0  0  0  0  0  0  0
    5.9062  -19.3934   22.8514 C   0  0  0  0  0  0  0  0  0  0  0  0
    6.6771  -18.1482   22.9497 C   0  0  0  0  0  0  0  0  0  0  0  0
    7.1486  -17.6161   21.9257 O   0  0  0  0  0  0  0  0  0  0  0  0
    7.5605  -15.6441   25.6098 C   0  0  0  0  0  0  0  0  0  0  0  0
    7.8650  -16.3739   24.3022 C   0  0  2  0  0  0  0  0  0  0  0  0
    6.9323  -17.4799   24.1915 N   0  0  0  0  0  0  0  0  0  0  0  0
    9.2709  -16.8263   24.2482 C   0  0  0  0  0  0  0  0  0  0  0  0
    9.5923  -17.9443   24.7119 O   0  0  0  0  0  0  0  0  0  0  0  0
   10.2410  -15.9771   23.6658 N   0  0  0  0  0  0  0  0  0  0  0  0
   11.6626  -16.3710   23.5501 C   0  0  1  0  0  0  0  0  0  0  0  0
   12.3872  -15.4562   22.6271 C   0  0  0  0  0  0  0  0  0  0  0  0
   12.3493  -15.9311   21.1971 C   0  0  0  0  0  0  0  0  0  0  0  0
   13.0140  -14.8737   20.2955 C   0  0  0  0  0  0  0  0  0  0  0  0
   13.0189  -15.4348   18.8681 C   0  0  0  0  0  0  0  0  0  0  0  0
   13.4029  -14.3318   17.9825 N   0  0  0  0  0  0  0  0  0  0  0  0
   12.2443  -16.5195   24.8929 C   0  0  0  0  0  0  0  0  0  0  0  0
   11.7955  -15.8537   25.8834 O   0  0  0  0  0  0  0  0  0  0  0  0
   13.2922  -17.3740   25.1616 O   0  0  0  0  0  0  0  0  0  0  0  0
  2  3  1  0
  2  1  1  0
  3  7  1  0
  4  3  2  0
  6  5  1  1
  7  6  1  0
  8 10  1  0
  8  6  1  0
  9  8  2  0
 11 10  1  0
 11 17  1  0
 11 12  1  6
 13 12  1  0
 13 14  1  0
 14 15  1  0
 15 16  1  0
 17 18  2  0
 17 19  1  0
M  END
$$$$
