PGL.pdb
     RDKit          3D

 20 20  0  0  1  0  0  0  0  0999 V2000
   26.5784  -17.7297  -14.4712 N   0  0  0  0  0  0  0  0  0  0  0  0
   27.7079  -17.5042  -15.3370 C   0  0  0  0  0  0  0  0  0  0  0  0
   27.2256  -17.5350  -16.7505 C   0  0  0  0  0  0  0  0  0  0  0  0
   25.7770  -18.0276  -16.6777 C   0  0  0  0  0  0  0  0  0  0  0  0
   25.5875  -18.4489  -15.2434 C   0  0  1  0  0  0  0  0  0  0  0  0
   25.7596  -19.8790  -15.0143 C   0  0  0  0  0  0  0  0  0  0  0  0
   25.0691  -20.7025  -15.6832 O   0  0  0  0  0  0  0  0  0  0  0  0
   26.7096  -20.3215  -14.0338 N   0  0  0  0  0  0  0  0  0  0  0  0
   26.7742  -21.6969  -13.6131 C   0  0  0  0  0  0  0  0  0  0  0  0
   26.4696  -21.7920  -12.1669 C   0  0  0  0  0  0  0  0  0  0  0  0
   26.1418  -22.9260  -11.6600 O   0  0  0  0  0  0  0  0  0  0  0  0
   27.5791  -21.1507   -6.9072 C   0  0  0  0  0  0  0  0  0  0  0  0
   26.7948  -19.9688   -7.5598 C   0  0  1  0  0  0  0  0  0  0  0  0
   27.4022  -18.7388   -6.8784 C   0  0  0  0  0  0  0  0  0  0  0  0
   27.0137  -20.0146   -9.0222 C   0  0  0  0  0  0  0  0  0  0  0  0
   26.1622  -20.9167   -9.8185 C   0  0  2  0  0  0  0  0  0  0  0  0
   26.5049  -20.7130  -11.2674 N   0  0  0  0  0  0  0  0  0  0  0  0
   24.7237  -20.7674   -9.7562 C   0  0  0  0  0  0  0  0  0  0  0  0
   24.0531  -20.0994  -10.5744 O   0  0  0  0  0  0  0  0  0  0  0  0
   23.9774  -21.3917   -8.7310 O   0  0  0  0  0  0  0  0  0  0  0  0
  2  1  1  0
  3  2  1  0
  3  4  1  0
  5  1  1  0
  5  4  1  0
  5  6  1  6
  7  6  2  0
  8  6  1  0
  9 10  1  0
  9  8  1  0
 10 17  1  0
 11 10  2  0
 13 12  1  1
 13 15  1  0
 13 14  1  0
 16 15  1  1
 16 18  1  0
 17 16  1  0
 18 20  1  0
 19 18  2  0
M  END
$$$$
