PGL.pdb
     RDKit          3D

 20 20  0  0  1  0  0  0  0  0999 V2000
   25.6926  -23.4917  -14.3430 N   0  0  0  0  0  0  0  0  0  0  0  0
   24.4526  -24.2228  -14.2801 C   0  0  0  0  0  0  0  0  0  0  0  0
   23.4791  -23.5708  -15.2066 C   0  0  0  0  0  0  0  0  0  0  0  0
   24.1462  -22.2643  -15.6474 C   0  0  0  0  0  0  0  0  0  0  0  0
   25.3731  -22.1492  -14.7801 C   0  0  1  0  0  0  0  0  0  0  0  0
   25.1963  -21.3018  -13.6063 C   0  0  0  0  0  0  0  0  0  0  0  0
   24.0261  -21.0245  -13.2113 O   0  0  0  0  0  0  0  0  0  0  0  0
   26.3551  -20.8002  -12.9241 N   0  0  0  0  0  0  0  0  0  0  0  0
   26.2527  -19.7793  -11.9141 C   0  0  0  0  0  0  0  0  0  0  0  0
   26.3168  -20.3978  -10.5699 C   0  0  0  0  0  0  0  0  0  0  0  0
   26.3728  -21.6766  -10.4612 O   0  0  0  0  0  0  0  0  0  0  0  0
   29.0333  -20.2233   -7.5247 C   0  0  0  0  0  0  0  0  0  0  0  0
   28.0409  -19.8319   -6.3847 C   0  0  1  0  0  0  0  0  0  0  0  0
   28.7307  -18.6316   -5.7292 C   0  0  0  0  0  0  0  0  0  0  0  0
   26.7316  -19.5124   -6.9951 C   0  0  0  0  0  0  0  0  0  0  0  0
   26.2238  -20.4119   -8.0467 C   0  0  2  0  0  0  0  0  0  0  0  0
   26.3184  -19.6854   -9.3587 N   0  0  0  0  0  0  0  0  0  0  0  0
   24.8535  -20.8735   -7.9797 C   0  0  0  0  0  0  0  0  0  0  0  0
   23.9138  -20.3748   -8.6383 O   0  0  0  0  0  0  0  0  0  0  0  0
   24.4953  -21.9500   -7.1367 O   0  0  0  0  0  0  0  0  0  0  0  0
  2  1  1  0
  3  2  1  0
  3  4  1  0
  5  1  1  0
  5  4  1  0
  5  6  1  1
  7  6  2  0
  8  6  1  0
  9 10  1  0
  9  8  1  0
 10 17  1  0
 11 10  2  0
 13 12  1  6
 13 15  1  0
 13 14  1  0
 16 15  1  1
 16 18  1  0
 17 16  1  0
 18 20  1  0
 19 18  2  0
M  END
$$$$
