PGL.pdb
     RDKit          3D

 20 20  0  0  1  0  0  0  0  0999 V2000
   26.7135  -17.4467  -13.9785 N   0  0  0  0  0  0  0  0  0  0  0  0
   27.6553  -17.0936  -15.0102 C   0  0  0  0  0  0  0  0  0  0  0  0
   27.1171  -17.5752  -16.3177 C   0  0  0  0  0  0  0  0  0  0  0  0
   25.9064  -18.4450  -15.9662 C   0  0  0  0  0  0  0  0  0  0  0  0
   25.9529  -18.5777  -14.4658 C   0  0  1  0  0  0  0  0  0  0  0  0
   26.5825  -19.8062  -13.9951 C   0  0  0  0  0  0  0  0  0  0  0  0
   26.1491  -20.9225  -14.4052 O   0  0  0  0  0  0  0  0  0  0  0  0
   27.6813  -19.7217  -13.0757 N   0  0  0  0  0  0  0  0  0  0  0  0
   28.2554  -20.8983  -12.4764 C   0  0  0  0  0  0  0  0  0  0  0  0
   27.5282  -21.2296  -11.2295 C   0  0  0  0  0  0  0  0  0  0  0  0
   27.7612  -22.3445  -10.6354 O   0  0  0  0  0  0  0  0  0  0  0  0
   27.9067  -18.7258   -6.7653 C   0  0  0  0  0  0  0  0  0  0  0  0
   27.6903  -19.9240   -7.7427 C   0  0  1  0  0  0  0  0  0  0  0  0
   27.9212  -21.1430   -6.8444 C   0  0  0  0  0  0  0  0  0  0  0  0
   26.3202  -19.8351   -8.2937 C   0  0  0  0  0  0  0  0  0  0  0  0
   25.9263  -20.8146   -9.3224 C   0  0  2  0  0  0  0  0  0  0  0  0
   26.5687  -20.4051  -10.6177 N   0  0  0  0  0  0  0  0  0  0  0  0
   24.5239  -20.9768   -9.6424 C   0  0  0  0  0  0  0  0  0  0  0  0
   23.6552  -21.3399   -8.8185 O   0  0  0  0  0  0  0  0  0  0  0  0
   24.0482  -20.7234  -10.9491 O   0  0  0  0  0  0  0  0  0  0  0  0
  2  1  1  0
  3  2  1  0
  3  4  1  0
  5  1  1  0
  5  4  1  0
  5  6  1  6
  7  6  2  0
  8  6  1  0
  9 10  1  0
  9  8  1  0
 10 17  1  0
 11 10  2  0
 13 12  1  1
 13 15  1  0
 13 14  1  0
 16 15  1  1
 16 18  1  0
 17 16  1  0
 18 20  1  0
 19 18  2  0
M  END
$$$$
