PGL.pdb
     RDKit          3D

 20 20  0  0  1  0  0  0  0  0999 V2000
   25.0752  -21.6508  -13.3596 N   0  0  0  0  0  0  0  0  0  0  0  0
   23.9245  -21.2788  -12.5761 C   0  0  0  0  0  0  0  0  0  0  0  0
   23.5806  -19.8610  -12.8967 C   0  0  0  0  0  0  0  0  0  0  0  0
   24.7439  -19.3400  -13.7461 C   0  0  0  0  0  0  0  0  0  0  0  0
   25.7825  -20.4300  -13.6828 C   0  0  1  0  0  0  0  0  0  0  0  0
   26.8196  -20.2079  -12.6817 C   0  0  0  0  0  0  0  0  0  0  0  0
   27.4403  -19.1048  -12.6648 O   0  0  0  0  0  0  0  0  0  0  0  0
   27.1139  -21.2469  -11.7364 N   0  0  0  0  0  0  0  0  0  0  0  0
   28.3716  -21.2964  -11.0372 C   0  0  0  0  0  0  0  0  0  0  0  0
   28.1345  -21.2296   -9.5768 C   0  0  0  0  0  0  0  0  0  0  0  0
   28.8025  -21.9936   -8.7892 O   0  0  0  0  0  0  0  0  0  0  0  0
   28.8671  -18.2958   -5.4131 C   0  0  0  0  0  0  0  0  0  0  0  0
   28.5475  -19.6456   -6.1297 C   0  0  1  0  0  0  0  0  0  0  0  0
   28.6993  -20.6735   -5.0043 C   0  0  0  0  0  0  0  0  0  0  0  0
   27.1801  -19.5648   -6.6887 C   0  0  0  0  0  0  0  0  0  0  0  0
   26.7255  -20.6640   -7.5593 C   0  0  2  0  0  0  0  0  0  0  0  0
   27.2082  -20.3766   -8.9531 N   0  0  0  0  0  0  0  0  0  0  0  0
   25.3062  -20.9086   -7.7046 C   0  0  0  0  0  0  0  0  0  0  0  0
   24.5939  -21.4408   -6.8245 O   0  0  0  0  0  0  0  0  0  0  0  0
   24.6292  -20.5449   -8.8908 O   0  0  0  0  0  0  0  0  0  0  0  0
  2  1  1  0
  3  2  1  0
  3  4  1  0
  5  1  1  0
  5  4  1  0
  5  6  1  1
  7  6  2  0
  8  6  1  0
  9 10  1  0
  9  8  1  0
 10 17  1  0
 11 10  2  0
 13 12  1  1
 13 15  1  0
 13 14  1  0
 16 15  1  1
 16 18  1  0
 17 16  1  0
 18 20  1  0
 19 18  2  0
M  END
$$$$
