PGL.pdb
     RDKit          3D

 20 20  0  0  1  0  0  0  0  0999 V2000
   25.5032  -21.7710  -14.4214 N   0  0  0  0  0  0  0  0  0  0  0  0
   24.4290  -22.4130  -13.7073 C   0  0  0  0  0  0  0  0  0  0  0  0
   23.3412  -21.4102  -13.5010 C   0  0  0  0  0  0  0  0  0  0  0  0
   23.9368  -20.0664  -13.9320 C   0  0  0  0  0  0  0  0  0  0  0  0
   25.3988  -20.3511  -14.1604 C   0  0  1  0  0  0  0  0  0  0  0  0
   26.2554  -20.0165  -13.0283 C   0  0  0  0  0  0  0  0  0  0  0  0
   26.0932  -18.9117  -12.4322 O   0  0  0  0  0  0  0  0  0  0  0  0
   27.2649  -20.9491  -12.6148 N   0  0  0  0  0  0  0  0  0  0  0  0
   28.1510  -20.6636  -11.5165 C   0  0  0  0  0  0  0  0  0  0  0  0
   27.4947  -21.0232  -10.2384 C   0  0  0  0  0  0  0  0  0  0  0  0
   27.1733  -22.2461  -10.0116 O   0  0  0  0  0  0  0  0  0  0  0  0
   28.4725  -18.4069   -5.5098 C   0  0  0  0  0  0  0  0  0  0  0  0
   28.2717  -19.6244   -6.4664 C   0  0  1  0  0  0  0  0  0  0  0  0
   28.7069  -20.8122   -5.6027 C   0  0  0  0  0  0  0  0  0  0  0  0
   26.8504  -19.6677   -6.8746 C   0  0  0  0  0  0  0  0  0  0  0  0
   26.4758  -20.5785   -7.9714 C   0  0  2  0  0  0  0  0  0  0  0  0
   27.1777  -20.1130   -9.2160 N   0  0  0  0  0  0  0  0  0  0  0  0
   25.0839  -20.6887   -8.3533 C   0  0  0  0  0  0  0  0  0  0  0  0
   24.2143  -21.2722   -7.6689 O   0  0  0  0  0  0  0  0  0  0  0  0
   24.6206  -20.1215   -9.5623 O   0  0  0  0  0  0  0  0  0  0  0  0
  2  1  1  0
  3  2  1  0
  3  4  1  0
  5  1  1  0
  5  4  1  0
  5  6  1  1
  7  6  2  0
  8  6  1  0
  9 10  1  0
  9  8  1  0
 10 17  1  0
 11 10  2  0
 13 12  1  1
 13 15  1  0
 13 14  1  0
 16 15  1  1
 16 18  1  0
 17 16  1  0
 18 20  1  0
 19 18  2  0
M  END
$$$$
