PGL.pdb
     RDKit          3D

 20 20  0  0  1  0  0  0  0  0999 V2000
   27.8697  -20.4743  -15.0884 N   0  0  0  0  0  0  0  0  0  0  0  0
   27.2263  -19.4333  -15.8491 C   0  0  0  0  0  0  0  0  0  0  0  0
   27.2163  -18.1895  -15.0220 C   0  0  0  0  0  0  0  0  0  0  0  0
   27.6848  -18.6209  -13.6290 C   0  0  0  0  0  0  0  0  0  0  0  0
   27.7329  -20.1258  -13.6902 C   0  0  1  0  0  0  0  0  0  0  0  0
   26.5455  -20.7826  -13.1555 C   0  0  0  0  0  0  0  0  0  0  0  0
   25.8281  -21.4889  -13.9228 O   0  0  0  0  0  0  0  0  0  0  0  0
   26.2164  -20.6131  -11.7689 N   0  0  0  0  0  0  0  0  0  0  0  0
   25.1225  -21.3250  -11.1609 C   0  0  0  0  0  0  0  0  0  0  0  0
   23.8364  -20.7778  -11.6506 C   0  0  0  0  0  0  0  0  0  0  0  0
   23.2919  -19.7893  -11.0370 O   0  0  0  0  0  0  0  0  0  0  0  0
   21.0962  -17.9603  -14.9483 C   0  0  0  0  0  0  0  0  0  0  0  0
   20.9422  -19.4749  -15.2948 C   0  0  1  0  0  0  0  0  0  0  0  0
   21.0154  -19.4840  -16.8247 C   0  0  0  0  0  0  0  0  0  0  0  0
   22.0391  -20.2180  -14.6366 C   0  0  0  0  0  0  0  0  0  0  0  0
   21.8676  -20.5886  -13.2202 C   0  0  2  0  0  0  0  0  0  0  0  0
   23.1310  -21.2630  -12.7649 N   0  0  0  0  0  0  0  0  0  0  0  0
   20.8087  -21.5048  -12.8535 C   0  0  0  0  0  0  0  0  0  0  0  0
   20.9164  -22.7507  -12.8918 O   0  0  0  0  0  0  0  0  0  0  0  0
   19.5546  -21.0204  -12.4173 O   0  0  0  0  0  0  0  0  0  0  0  0
  2  1  1  0
  3  2  1  0
  3  4  1  0
  5  1  1  0
  5  4  1  0
  5  6  1  6
  7  6  2  0
  8  6  1  0
  9 10  1  0
  9  8  1  0
 10 17  1  0
 11 10  2  0
 13 12  1  1
 13 15  1  0
 13 14  1  0
 16 15  1  6
 16 18  1  0
 17 16  1  0
 18 20  1  0
 19 18  2  0
M  END
$$$$
