PGL.pdb
     RDKit          3D

 20 20  0  0  1  0  0  0  0  0999 V2000
   25.4822  -11.9001  -16.6527 N   0  0  0  0  0  0  0  0  0  0  0  0
   24.8765  -12.0754  -15.3572 C   0  0  0  0  0  0  0  0  0  0  0  0
   23.9164  -13.2167  -15.4417 C   0  0  0  0  0  0  0  0  0  0  0  0
   23.8169  -13.5578  -16.9317 C   0  0  0  0  0  0  0  0  0  0  0  0
   24.5666  -12.4519  -17.6286 C   0  0  1  0  0  0  0  0  0  0  0  0
   23.7154  -11.3806  -18.1337 C   0  0  0  0  0  0  0  0  0  0  0  0
   22.7919  -11.6560  -18.9544 O   0  0  0  0  0  0  0  0  0  0  0  0
   23.9444  -10.0357  -17.6881 N   0  0  0  0  0  0  0  0  0  0  0  0
   23.3031   -8.9122  -18.3202 C   0  0  0  0  0  0  0  0  0  0  0  0
   22.2520   -8.3701  -17.4287 C   0  0  0  0  0  0  0  0  0  0  0  0
   21.7015   -7.2435  -17.7077 O   0  0  0  0  0  0  0  0  0  0  0  0
   18.1987   -8.4886  -16.8683 C   0  0  0  0  0  0  0  0  0  0  0  0
   18.2726   -9.4336  -15.6276 C   0  0  1  0  0  0  0  0  0  0  0  0
   17.6402  -10.7284  -16.1469 C   0  0  0  0  0  0  0  0  0  0  0  0
   19.6913   -9.5747  -15.2324 C   0  0  0  0  0  0  0  0  0  0  0  0
   20.6016   -8.4513  -15.5196 C   0  0  2  0  0  0  0  0  0  0  0  0
   21.7886   -8.9989  -16.2607 N   0  0  0  0  0  0  0  0  0  0  0  0
   21.1688   -7.7030  -14.4180 C   0  0  0  0  0  0  0  0  0  0  0  0
   20.4983   -6.9964  -13.6329 O   0  0  0  0  0  0  0  0  0  0  0  0
   22.5589   -7.7345  -14.1645 O   0  0  0  0  0  0  0  0  0  0  0  0
  2  1  1  0
  3  2  1  0
  3  4  1  0
  5  1  1  0
  5  4  1  0
  5  6  1  1
  7  6  2  0
  8  6  1  0
  9 10  1  0
  9  8  1  0
 10 17  1  0
 11 10  2  0
 13 12  1  6
 13 15  1  0
 13 14  1  0
 16 15  1  1
 16 18  1  0
 17 16  1  0
 18 20  1  0
 19 18  2  0
M  END
$$$$
