PGL.pdb
     RDKit          3D

 20 20  0  0  1  0  0  0  0  0999 V2000
   24.3274  -21.7964  -14.7476 N   0  0  0  0  0  0  0  0  0  0  0  0
   23.4942  -22.6095  -13.8986 C   0  0  0  0  0  0  0  0  0  0  0  0
   22.4083  -21.7456  -13.3454 C   0  0  0  0  0  0  0  0  0  0  0  0
   22.7873  -20.3133  -13.7339 C   0  0  0  0  0  0  0  0  0  0  0  0
   24.1772  -20.4264  -14.3050 C   0  0  1  0  0  0  0  0  0  0  0  0
   25.2395  -20.1202  -13.3537 C   0  0  0  0  0  0  0  0  0  0  0  0
   25.0854  -19.1654  -12.5371 O   0  0  0  0  0  0  0  0  0  0  0  0
   26.4380  -20.9096  -13.3647 N   0  0  0  0  0  0  0  0  0  0  0  0
   27.5433  -20.6150  -12.4903 C   0  0  0  0  0  0  0  0  0  0  0  0
   27.1918  -20.9826  -11.0994 C   0  0  0  0  0  0  0  0  0  0  0  0
   27.0732  -22.2213  -10.7803 O   0  0  0  0  0  0  0  0  0  0  0  0
   28.3869  -20.8624   -5.9282 C   0  0  0  0  0  0  0  0  0  0  0  0
   27.3051  -19.7967   -6.2912 C   0  0  1  0  0  0  0  0  0  0  0  0
   27.7081  -18.5949   -5.4313 C   0  0  0  0  0  0  0  0  0  0  0  0
   27.3707  -19.5424   -7.7471 C   0  0  0  0  0  0  0  0  0  0  0  0
   26.7708  -20.5423   -8.6490 C   0  0  2  0  0  0  0  0  0  0  0  0
   26.9650  -20.0641  -10.0603 N   0  0  0  0  0  0  0  0  0  0  0  0
   25.3547  -20.8247   -8.5478 C   0  0  0  0  0  0  0  0  0  0  0  0
   24.4734  -20.2303   -9.2076 O   0  0  0  0  0  0  0  0  0  0  0  0
   24.8793  -21.8227   -7.6670 O   0  0  0  0  0  0  0  0  0  0  0  0
  2  1  1  0
  3  2  1  0
  3  4  1  0
  5  1  1  0
  5  4  1  0
  5  6  1  1
  7  6  2  0
  8  6  1  0
  9 10  1  0
  9  8  1  0
 10 17  1  0
 11 10  2  0
 13 12  1  6
 13 15  1  0
 13 14  1  0
 16 15  1  1
 16 18  1  0
 17 16  1  0
 18 20  1  0
 19 18  2  0
M  END
$$$$
