PGL.pdb
     RDKit          3D

 20 20  0  0  1  0  0  0  0  0999 V2000
   20.6290  -10.4430  -19.0545 N   0  0  0  0  0  0  0  0  0  0  0  0
   20.9640  -11.8441  -19.0280 C   0  0  0  0  0  0  0  0  0  0  0  0
   20.0196  -12.5319  -18.0972 C   0  0  0  0  0  0  0  0  0  0  0  0
   19.2514  -11.4103  -17.3915 C   0  0  0  0  0  0  0  0  0  0  0  0
   19.9522  -10.1438  -17.8105 C   0  0  1  0  0  0  0  0  0  0  0  0
   20.9328   -9.6580  -16.8463 C   0  0  0  0  0  0  0  0  0  0  0  0
   22.1092  -10.1247  -16.8685 O   0  0  0  0  0  0  0  0  0  0  0  0
   20.5413   -8.6600  -15.8922 N   0  0  0  0  0  0  0  0  0  0  0  0
   21.4780   -8.1135  -14.9450 C   0  0  0  0  0  0  0  0  0  0  0  0
   21.7439   -6.6928  -15.2679 C   0  0  0  0  0  0  0  0  0  0  0  0
   22.5951   -6.3981  -16.1837 O   0  0  0  0  0  0  0  0  0  0  0  0
   17.8212   -3.7256  -16.3395 C   0  0  0  0  0  0  0  0  0  0  0  0
   19.3291   -4.0633  -16.5631 C   0  0  1  0  0  0  0  0  0  0  0  0
   19.6492   -3.3418  -17.8758 C   0  0  0  0  0  0  0  0  0  0  0  0
   20.0964   -3.5640  -15.4009 C   0  0  0  0  0  0  0  0  0  0  0  0
   21.3954   -4.1970  -15.1094 C   0  0  2  0  0  0  0  0  0  0  0  0
   21.1285   -5.5984  -14.6369 N   0  0  0  0  0  0  0  0  0  0  0  0
   22.2484   -3.6216  -14.0912 C   0  0  0  0  0  0  0  0  0  0  0  0
   22.4795   -4.1596  -12.9855 O   0  0  0  0  0  0  0  0  0  0  0  0
   22.8864   -2.3783  -14.3028 O   0  0  0  0  0  0  0  0  0  0  0  0
  2  1  1  0
  3  2  1  0
  3  4  1  0
  5  1  1  0
  5  4  1  0
  5  6  1  1
  7  6  2  0
  8  6  1  0
  9 10  1  0
  9  8  1  0
 10 17  1  0
 11 10  2  0
 13 12  1  1
 13 15  1  0
 13 14  1  0
 16 15  1  1
 16 18  1  0
 17 16  1  0
 18 20  1  0
 19 18  2  0
M  END
$$$$
