PGL.pdb
     RDKit          3D

 20 20  0  0  1  0  0  0  0  0999 V2000
   25.8120  -23.4607  -14.5345 N   0  0  0  0  0  0  0  0  0  0  0  0
   24.9287  -23.2182  -15.6467 C   0  0  0  0  0  0  0  0  0  0  0  0
   25.5543  -22.1819  -16.5220 C   0  0  0  0  0  0  0  0  0  0  0  0
   26.7569  -21.6532  -15.7342 C   0  0  0  0  0  0  0  0  0  0  0  0
   26.6213  -22.2723  -14.3671 C   0  0  1  0  0  0  0  0  0  0  0  0
   25.9865  -21.4058  -13.3805 C   0  0  0  0  0  0  0  0  0  0  0  0
   26.1040  -20.1502  -13.4898 O   0  0  0  0  0  0  0  0  0  0  0  0
   25.2414  -21.9972  -12.3058 N   0  0  0  0  0  0  0  0  0  0  0  0
   24.5333  -21.1908  -11.3459 C   0  0  0  0  0  0  0  0  0  0  0  0
   23.1904  -20.8526  -11.8710 C   0  0  0  0  0  0  0  0  0  0  0  0
   22.4037  -20.1134  -11.1747 O   0  0  0  0  0  0  0  0  0  0  0  0
   22.2800  -19.4124  -17.0508 C   0  0  0  0  0  0  0  0  0  0  0  0
   22.2495  -19.4108  -15.4897 C   0  0  1  0  0  0  0  0  0  0  0  0
   21.6286  -18.0494  -15.1621 C   0  0  0  0  0  0  0  0  0  0  0  0
   21.4408  -20.5641  -15.0376 C   0  0  0  0  0  0  0  0  0  0  0  0
   21.3391  -20.8082  -13.5874 C   0  0  2  0  0  0  0  0  0  0  0  0
   22.6799  -21.2866  -13.1062 N   0  0  0  0  0  0  0  0  0  0  0  0
   20.3998  -21.7970  -13.1022 C   0  0  0  0  0  0  0  0  0  0  0  0
   20.6939  -22.9930  -12.8817 O   0  0  0  0  0  0  0  0  0  0  0  0
   19.0548  -21.4484  -12.8433 O   0  0  0  0  0  0  0  0  0  0  0  0
  2  1  1  0
  3  2  1  0
  3  4  1  0
  5  1  1  0
  5  4  1  0
  5  6  1  1
  7  6  2  0
  8  6  1  0
  9 10  1  0
  9  8  1  0
 10 17  1  0
 11 10  2  0
 13 12  1  6
 13 15  1  0
 13 14  1  0
 16 15  1  6
 16 18  1  0
 17 16  1  0
 18 20  1  0
 19 18  2  0
M  END
$$$$
