DNT.pdb
     RDKit          3D

 24 23  0  0  1  0  0  0  0  0999 V2000
   15.5824  -16.8634   19.0710 N   0  0  0  0  0  0  0  0  0  0  0  0
   14.8948  -18.1194   19.4091 C   0  0  1  0  0  0  0  0  0  0  0  0
   15.6091  -19.1882   18.6583 C   0  0  0  0  0  0  0  0  0  0  0  0
   15.5666  -18.9751   17.2221 C   0  0  0  0  0  0  0  0  0  0  0  0
   15.9998  -18.0085   16.5739 O   0  0  0  0  0  0  0  0  0  0  0  0
   14.8877  -18.2829   20.8865 C   0  0  0  0  0  0  0  0  0  0  0  0
   14.4366  -19.2785   21.4841 O   0  0  0  0  0  0  0  0  0  0  0  0
   14.9595  -19.9837   16.4401 O   0  0  0  0  0  0  0  0  0  0  0  0
   18.9392  -16.7280   22.8441 N   0  0  0  0  0  0  0  0  0  0  0  0
   17.8601  -17.4579   23.3873 C   0  0  0  0  0  0  0  0  0  0  0  0
   17.9652  -18.7014   23.4810 O   0  0  0  0  0  0  0  0  0  0  0  0
   16.6163  -16.8036   23.8464 C   0  0  0  0  0  0  0  0  0  0  0  0
   15.4083  -17.4020   23.1750 C   0  0  2  0  0  0  0  0  0  0  0  0
   15.4279  -17.2483   21.7411 N   0  0  0  0  0  0  0  0  0  0  0  0
   14.2137  -16.6915   23.7361 C   0  0  0  0  0  0  0  0  0  0  0  0
   14.3090  -15.4612   23.9413 O   0  0  0  0  0  0  0  0  0  0  0  0
   11.1357  -15.9687   22.2680 C   0  0  0  0  0  0  0  0  0  0  0  0
   10.8267  -16.8113   23.4615 C   0  0  1  0  0  0  0  0  0  0  0  0
   10.7190  -18.1510   23.0355 O   0  0  0  0  0  0  0  0  0  0  0  0
   11.8571  -16.7945   24.5412 C   0  0  2  0  0  0  0  0  0  0  0  0
   13.0435  -17.4428   24.0048 N   0  0  0  0  0  0  0  0  0  0  0  0
   11.4748  -17.4587   25.7893 C   0  0  0  0  0  0  0  0  0  0  0  0
   10.4678  -16.9864   26.6339 O   0  0  0  0  0  0  0  0  0  0  0  0
   12.0550  -18.4996   26.1475 O   0  0  0  0  0  0  0  0  0  0  0  0
  2  1  1  1
  2  3  1  0
  3  4  1  0
  4  5  2  0
  4  8  1  0
  6  2  1  0
  6 14  1  0
  7  6  2  0
  9 10  1  0
 10 12  1  0
 10 11  2  0
 13 12  1  1
 13 14  1  0
 13 15  1  0
 15 16  2  0
 18 17  1  6
 18 19  1  0
 20 18  1  0
 21 15  1  0
 20 21  1  6
 22 23  1  0
 22 20  1  0
 24 22  2  0
M  END
$$$$
