DNT.pdb
     RDKit          3D

 24 23  0  0  1  0  0  0  0  0999 V2000
   12.9217  -18.5663   17.9546 N   0  0  0  0  0  0  0  0  0  0  0  0
   11.5529  -18.2487   17.5184 C   0  0  1  0  0  0  0  0  0  0  0  0
   11.2215  -19.2453   16.4633 C   0  0  0  0  0  0  0  0  0  0  0  0
   11.9953  -19.0419   15.2509 C   0  0  0  0  0  0  0  0  0  0  0  0
   12.9154  -18.2321   15.0514 O   0  0  0  0  0  0  0  0  0  0  0  0
   10.6542  -18.2608   18.7024 C   0  0  0  0  0  0  0  0  0  0  0  0
    9.4339  -18.0138   18.6645 O   0  0  0  0  0  0  0  0  0  0  0  0
   11.6795  -19.8591   14.1419 O   0  0  0  0  0  0  0  0  0  0  0  0
    9.8432  -21.4635   21.0943 N   0  0  0  0  0  0  0  0  0  0  0  0
   10.8762  -20.8344   21.8221 C   0  0  0  0  0  0  0  0  0  0  0  0
   11.9096  -21.4902   22.0834 O   0  0  0  0  0  0  0  0  0  0  0  0
   10.7766  -19.4332   22.2831 C   0  0  0  0  0  0  0  0  0  0  0  0
   10.3152  -18.5276   21.1719 C   0  0  2  0  0  0  0  0  0  0  0  0
   11.1754  -18.5733   20.0152 N   0  0  0  0  0  0  0  0  0  0  0  0
   10.3065  -17.1371   21.7316 C   0  0  0  0  0  0  0  0  0  0  0  0
   11.3920  -16.5167   21.7715 O   0  0  0  0  0  0  0  0  0  0  0  0
    8.3489  -14.1410   20.6273 C   0  0  0  0  0  0  0  0  0  0  0  0
    7.9929  -14.4981   22.0328 C   0  0  1  0  0  0  0  0  0  0  0  0
    6.8396  -15.3083   22.0001 O   0  0  0  0  0  0  0  0  0  0  0  0
    9.0291  -15.2707   22.7792 C   0  0  2  0  0  0  0  0  0  0  0  0
    9.0780  -16.5975   22.1851 N   0  0  0  0  0  0  0  0  0  0  0  0
    8.8026  -15.4024   24.2202 C   0  0  0  0  0  0  0  0  0  0  0  0
    8.8053  -14.3183   25.1006 O   0  0  0  0  0  0  0  0  0  0  0  0
    8.5936  -16.5221   24.7211 O   0  0  0  0  0  0  0  0  0  0  0  0
  2  1  1  1
  2  3  1  0
  3  4  1  0
  4  5  2  0
  4  8  1  0
  6  2  1  0
  6 14  1  0
  7  6  2  0
  9 10  1  0
 10 12  1  0
 10 11  2  0
 13 12  1  1
 13 14  1  0
 13 15  1  0
 15 16  2  0
 18 17  1  6
 18 19  1  0
 20 18  1  0
 21 15  1  0
 20 21  1  6
 22 23  1  0
 22 20  1  0
 24 22  2  0
M  END
$$$$
