DNT.pdb
     RDKit          3D

 24 23  0  0  1  0  0  0  0  0999 V2000
    9.6120  -15.3026   18.3639 N   0  0  0  0  0  0  0  0  0  0  0  0
    8.7574  -14.2779   18.9839 C   0  0  1  0  0  0  0  0  0  0  0  0
    7.6608  -14.0206   18.0105 C   0  0  0  0  0  0  0  0  0  0  0  0
    8.1540  -13.8659   16.6531 C   0  0  0  0  0  0  0  0  0  0  0  0
    9.2257  -14.2694   16.1726 O   0  0  0  0  0  0  0  0  0  0  0  0
    8.3161  -14.7609   20.3187 C   0  0  0  0  0  0  0  0  0  0  0  0
    7.4373  -14.2141   21.0117 O   0  0  0  0  0  0  0  0  0  0  0  0
    7.3255  -13.1709   15.7432 O   0  0  0  0  0  0  0  0  0  0  0  0
    7.2682  -19.4812   21.6407 N   0  0  0  0  0  0  0  0  0  0  0  0
    8.4956  -18.7982   21.5017 C   0  0  0  0  0  0  0  0  0  0  0  0
    9.2046  -19.0391   20.4990 O   0  0  0  0  0  0  0  0  0  0  0  0
    8.9678  -17.8128   22.4977 C   0  0  0  0  0  0  0  0  0  0  0  0
    8.4548  -16.4327   22.1815 C   0  0  2  0  0  0  0  0  0  0  0  0
    8.9119  -15.9416   20.9048 N   0  0  0  0  0  0  0  0  0  0  0  0
    8.9558  -15.5324   23.2701 C   0  0  0  0  0  0  0  0  0  0  0  0
   10.1189  -15.0834   23.1676 O   0  0  0  0  0  0  0  0  0  0  0  0
    7.2148  -12.4046   24.5648 C   0  0  0  0  0  0  0  0  0  0  0  0
    7.4480  -13.3782   25.6728 C   0  0  1  0  0  0  0  0  0  0  0  0
    6.2654  -14.1234   25.8569 O   0  0  0  0  0  0  0  0  0  0  0  0
    8.5378  -14.3700   25.4349 C   0  0  2  0  0  0  0  0  0  0  0  0
    8.0938  -15.2363   24.3542 N   0  0  0  0  0  0  0  0  0  0  0  0
    8.9026  -15.1960   26.5880 C   0  0  0  0  0  0  0  0  0  0  0  0
    9.4732  -14.6796   27.7534 O   0  0  0  0  0  0  0  0  0  0  0  0
    8.7086  -16.4250   26.5639 O   0  0  0  0  0  0  0  0  0  0  0  0
  2  1  1  6
  2  3  1  0
  3  4  1  0
  4  5  2  0
  4  8  1  0
  6  2  1  0
  6 14  1  0
  7  6  2  0
  9 10  1  0
 10 12  1  0
 10 11  2  0
 13 12  1  1
 13 14  1  0
 13 15  1  0
 15 16  2  0
 18 17  1  6
 18 19  1  0
 20 18  1  0
 21 15  1  0
 20 21  1  6
 22 23  1  0
 22 20  1  0
 24 22  2  0
M  END
$$$$
