DNT.pdb
     RDKit          3D

 24 23  0  0  1  0  0  0  0  0999 V2000
   11.6353  -17.8790   21.3955 N   0  0  0  0  0  0  0  0  0  0  0  0
   10.8449  -16.6559   21.1851 C   0  0  1  0  0  0  0  0  0  0  0  0
   10.1944  -16.8164   19.8558 C   0  0  0  0  0  0  0  0  0  0  0  0
   11.1386  -17.2091   18.8242 C   0  0  0  0  0  0  0  0  0  0  0  0
   12.2497  -17.7463   18.9615 O   0  0  0  0  0  0  0  0  0  0  0  0
    9.9106  -16.4828   22.3283 C   0  0  0  0  0  0  0  0  0  0  0  0
    9.0402  -15.5945   22.3999 O   0  0  0  0  0  0  0  0  0  0  0  0
   10.7674  -16.9585   17.4838 O   0  0  0  0  0  0  0  0  0  0  0  0
    6.9479  -16.9500   26.3506 N   0  0  0  0  0  0  0  0  0  0  0  0
    7.5819  -18.2051   26.2268 C   0  0  0  0  0  0  0  0  0  0  0  0
    7.2049  -19.1418   26.9660 O   0  0  0  0  0  0  0  0  0  0  0  0
    8.6712  -18.4468   25.2568 C   0  0  0  0  0  0  0  0  0  0  0  0
    9.1129  -17.1629   24.6054 C   0  0  2  0  0  0  0  0  0  0  0  0
    9.9686  -17.3765   23.4642 N   0  0  0  0  0  0  0  0  0  0  0  0
    9.8598  -16.3903   25.6504 C   0  0  0  0  0  0  0  0  0  0  0  0
   11.0966  -16.5601   25.7299 O   0  0  0  0  0  0  0  0  0  0  0  0
    8.7925  -12.5695   26.5355 C   0  0  0  0  0  0  0  0  0  0  0  0
    8.9624  -13.4845   27.7032 C   0  0  1  0  0  0  0  0  0  0  0  0
    7.6913  -13.9791   28.0604 O   0  0  0  0  0  0  0  0  0  0  0  0
    9.8256  -14.6779   27.4613 C   0  0  2  0  0  0  0  0  0  0  0  0
    9.1335  -15.5118   26.4912 N   0  0  0  0  0  0  0  0  0  0  0  0
   10.1368  -15.4826   28.6448 C   0  0  0  0  0  0  0  0  0  0  0  0
   10.8719  -15.0007   29.7301 O   0  0  0  0  0  0  0  0  0  0  0  0
    9.7421  -16.6602   28.7224 O   0  0  0  0  0  0  0  0  0  0  0  0
  2  1  1  1
  2  3  1  0
  3  4  1  0
  4  5  2  0
  4  8  1  0
  6  2  1  0
  6 14  1  0
  7  6  2  0
  9 10  1  0
 10 12  1  0
 10 11  2  0
 13 12  1  1
 13 14  1  0
 13 15  1  0
 15 16  2  0
 18 17  1  6
 18 19  1  0
 20 18  1  0
 21 15  1  0
 20 21  1  6
 22 23  1  0
 22 20  1  0
 24 22  2  0
M  END
$$$$
