DNT.pdb
     RDKit          3D

 24 23  0  0  1  0  0  0  0  0999 V2000
   10.0123  -17.4899   15.5545 N   0  0  0  0  0  0  0  0  0  0  0  0
    8.5735  -17.3332   15.8191 C   0  0  1  0  0  0  0  0  0  0  0  0
    7.8842  -18.2544   14.8744 C   0  0  0  0  0  0  0  0  0  0  0  0
    7.9871  -17.8081   13.4959 C   0  0  0  0  0  0  0  0  0  0  0  0
    8.8839  -17.1274   12.9719 O   0  0  0  0  0  0  0  0  0  0  0  0
    8.3162  -17.5976   17.2591 C   0  0  0  0  0  0  0  0  0  0  0  0
    7.1830  -17.6917   17.7677 O   0  0  0  0  0  0  0  0  0  0  0  0
    6.9449  -18.1846   12.6187 O   0  0  0  0  0  0  0  0  0  0  0  0
   11.3479  -19.1380   18.0408 N   0  0  0  0  0  0  0  0  0  0  0  0
   11.2713  -19.2353   19.4469 C   0  0  0  0  0  0  0  0  0  0  0  0
   12.3200  -19.4680   20.0890 O   0  0  0  0  0  0  0  0  0  0  0  0
    9.9985  -19.0721   20.1812 C   0  0  0  0  0  0  0  0  0  0  0  0
    9.1677  -17.9650   19.5881 C   0  0  2  0  0  0  0  0  0  0  0  0
    9.4176  -17.7658   18.1817 N   0  0  0  0  0  0  0  0  0  0  0  0
    9.5228  -16.7172   20.3389 C   0  0  0  0  0  0  0  0  0  0  0  0
   10.5079  -16.0567   19.9413 O   0  0  0  0  0  0  0  0  0  0  0  0
    7.4237  -13.7291   20.7516 C   0  0  0  0  0  0  0  0  0  0  0  0
    7.7426  -14.2955   22.0959 C   0  0  1  0  0  0  0  0  0  0  0  0
    6.6877  -15.1522   22.4715 O   0  0  0  0  0  0  0  0  0  0  0  0
    8.9918  -15.1093   22.1679 C   0  0  2  0  0  0  0  0  0  0  0  0
    8.7311  -16.3496   21.4543 N   0  0  0  0  0  0  0  0  0  0  0  0
    9.4617  -15.4266   23.5182 C   0  0  0  0  0  0  0  0  0  0  0  0
    9.9241  -14.4630   24.4172 O   0  0  0  0  0  0  0  0  0  0  0  0
    9.4633  -16.6045   23.9197 O   0  0  0  0  0  0  0  0  0  0  0  0
  2  1  1  1
  2  3  1  0
  3  4  1  0
  4  5  2  0
  4  8  1  0
  6  2  1  0
  6 14  1  0
  7  6  2  0
  9 10  1  0
 10 12  1  0
 10 11  2  0
 13 12  1  1
 13 14  1  0
 13 15  1  0
 15 16  2  0
 18 17  1  6
 18 19  1  0
 20 18  1  0
 21 15  1  0
 20 21  1  6
 22 23  1  0
 22 20  1  0
 24 22  2  0
M  END
$$$$
