DNT.pdb
     RDKit          3D

 24 23  0  0  1  0  0  0  0  0999 V2000
    9.7878  -16.9234   19.7449 N   0  0  0  0  0  0  0  0  0  0  0  0
    9.9500  -17.6850   20.9933 C   0  0  1  0  0  0  0  0  0  0  0  0
   11.3545  -17.4550   21.4297 C   0  0  0  0  0  0  0  0  0  0  0  0
   12.3117  -17.7255   20.3711 C   0  0  0  0  0  0  0  0  0  0  0  0
   12.5389  -18.8020   19.7952 O   0  0  0  0  0  0  0  0  0  0  0  0
    8.9091  -17.2512   21.9618 C   0  0  0  0  0  0  0  0  0  0  0  0
    7.7196  -17.0282   21.6665 O   0  0  0  0  0  0  0  0  0  0  0  0
   13.0968  -16.6400   19.9213 O   0  0  0  0  0  0  0  0  0  0  0  0
    6.1857  -19.1437   24.0584 N   0  0  0  0  0  0  0  0  0  0  0  0
    7.4747  -19.0438   24.6249 C   0  0  0  0  0  0  0  0  0  0  0  0
    8.2407  -20.0304   24.5477 O   0  0  0  0  0  0  0  0  0  0  0  0
    7.9460  -17.8174   25.3029 C   0  0  0  0  0  0  0  0  0  0  0  0
    8.2137  -16.7170   24.3103 C   0  0  2  0  0  0  0  0  0  0  0  0
    9.2406  -17.0575   23.3565 N   0  0  0  0  0  0  0  0  0  0  0  0
    8.6483  -15.5229   25.1053 C   0  0  0  0  0  0  0  0  0  0  0  0
    9.8692  -15.3942   25.3458 O   0  0  0  0  0  0  0  0  0  0  0  0
    6.7342  -11.8439   24.9935 C   0  0  0  0  0  0  0  0  0  0  0  0
    6.9088  -12.5002   26.3234 C   0  0  1  0  0  0  0  0  0  0  0  0
    5.7248  -13.2046   26.6229 O   0  0  0  0  0  0  0  0  0  0  0  0
    8.0213  -13.4919   26.4069 C   0  0  2  0  0  0  0  0  0  0  0  0
    7.6621  -14.6051   25.5424 N   0  0  0  0  0  0  0  0  0  0  0  0
    8.3109  -14.0045   27.7479 C   0  0  0  0  0  0  0  0  0  0  0  0
    8.7892  -13.2059   28.7890 O   0  0  0  0  0  0  0  0  0  0  0  0
    8.1335  -15.2080   28.0096 O   0  0  0  0  0  0  0  0  0  0  0  0
  2  1  1  6
  2  3  1  0
  3  4  1  0
  4  5  2  0
  4  8  1  0
  6  2  1  0
  6 14  1  0
  7  6  2  0
  9 10  1  0
 10 12  1  0
 10 11  2  0
 13 12  1  1
 13 14  1  0
 13 15  1  0
 15 16  2  0
 18 17  1  6
 18 19  1  0
 20 18  1  0
 21 15  1  0
 20 21  1  6
 22 23  1  0
 22 20  1  0
 24 22  2  0
M  END
$$$$
