DNT.pdb
     RDKit          3D

 24 23  0  0  1  0  0  0  0  0999 V2000
   11.2155  -16.0152   17.1938 N   0  0  0  0  0  0  0  0  0  0  0  0
   12.3594  -15.5940   18.0178 C   0  0  1  0  0  0  0  0  0  0  0  0
   13.3451  -15.0023   17.0721 C   0  0  0  0  0  0  0  0  0  0  0  0
   14.0337  -16.0141   16.2896 C   0  0  0  0  0  0  0  0  0  0  0  0
   13.9651  -17.2493   16.3971 O   0  0  0  0  0  0  0  0  0  0  0  0
   11.8753  -14.6753   19.0815 C   0  0  0  0  0  0  0  0  0  0  0  0
   12.5929  -14.1952   19.9794 O   0  0  0  0  0  0  0  0  0  0  0  0
   14.8980  -15.5590   15.2683 O   0  0  0  0  0  0  0  0  0  0  0  0
    6.5260  -13.6577   19.6435 N   0  0  0  0  0  0  0  0  0  0  0  0
    7.8043  -13.4534   19.0807 C   0  0  0  0  0  0  0  0  0  0  0  0
    8.0893  -14.0410   18.0132 O   0  0  0  0  0  0  0  0  0  0  0  0
    8.8116  -12.5723   19.7090 C   0  0  0  0  0  0  0  0  0  0  0  0
   10.0250  -13.3544   20.1378 C   0  0  2  0  0  0  0  0  0  0  0  0
   10.4857  -14.2760   19.1287 N   0  0  0  0  0  0  0  0  0  0  0  0
    9.6279  -14.1173   21.3654 C   0  0  0  0  0  0  0  0  0  0  0  0
    8.4431  -14.0212   21.7551 O   0  0  0  0  0  0  0  0  0  0  0  0
    8.8558  -17.7771   23.6559 C   0  0  0  0  0  0  0  0  0  0  0  0
    9.2065  -16.6915   22.6923 C   0  0  1  0  0  0  0  0  0  0  0  0
    8.0447  -15.9312   22.4477 O   0  0  0  0  0  0  0  0  0  0  0  0
   10.2476  -15.7304   23.1617 C   0  0  2  0  0  0  0  0  0  0  0  0
   10.6070  -14.9042   22.0198 N   0  0  0  0  0  0  0  0  0  0  0  0
   11.4622  -16.3349   23.7132 C   0  0  0  0  0  0  0  0  0  0  0  0
   11.6091  -16.6723   25.0604 O   0  0  0  0  0  0  0  0  0  0  0  0
   12.4335  -16.5746   22.9732 O   0  0  0  0  0  0  0  0  0  0  0  0
  2  1  1  6
  2  3  1  0
  3  4  1  0
  4  5  2  0
  4  8  1  0
  6  2  1  0
  6 14  1  0
  7  6  2  0
  9 10  1  0
 10 12  1  0
 10 11  2  0
 13 12  1  6
 13 14  1  0
 13 15  1  0
 15 16  2  0
 18 17  1  1
 18 19  1  0
 20 18  1  0
 21 15  1  0
 20 21  1  6
 22 23  1  0
 22 20  1  0
 24 22  2  0
M  END
$$$$
