DNT.pdb
     RDKit          3D

 24 23  0  0  1  0  0  0  0  0999 V2000
    9.3137  -16.5472   19.5314 N   0  0  0  0  0  0  0  0  0  0  0  0
    7.9574  -16.3429   20.0637 C   0  0  1  0  0  0  0  0  0  0  0  0
    7.1029  -17.3663   19.4015 C   0  0  0  0  0  0  0  0  0  0  0  0
    7.3120  -17.4127   17.9648 C   0  0  0  0  0  0  0  0  0  0  0  0
    6.7384  -18.1264   17.1260 O   0  0  0  0  0  0  0  0  0  0  0  0
    8.0041  -16.4238   21.5473 C   0  0  0  0  0  0  0  0  0  0  0  0
    7.0093  -16.3286   22.2908 O   0  0  0  0  0  0  0  0  0  0  0  0
    8.2882  -16.5427   17.4288 O   0  0  0  0  0  0  0  0  0  0  0  0
    9.9817  -19.8243   24.3017 N   0  0  0  0  0  0  0  0  0  0  0  0
   10.6739  -18.7542   23.6949 C   0  0  0  0  0  0  0  0  0  0  0  0
   11.4067  -18.9970   22.7099 O   0  0  0  0  0  0  0  0  0  0  0  0
   10.5614  -17.3633   24.1834 C   0  0  0  0  0  0  0  0  0  0  0  0
    9.3066  -16.7075   23.6703 C   0  0  2  0  0  0  0  0  0  0  0  0
    9.2628  -16.6257   22.2311 N   0  0  0  0  0  0  0  0  0  0  0  0
    9.2816  -15.3250   24.2490 C   0  0  0  0  0  0  0  0  0  0  0  0
   10.1111  -14.4952   23.8152 O   0  0  0  0  0  0  0  0  0  0  0  0
    6.6220  -11.8301   26.1999 C   0  0  0  0  0  0  0  0  0  0  0  0
    6.9255  -13.1432   25.5568 C   0  0  1  0  0  0  0  0  0  0  0  0
    6.8660  -12.9701   24.1588 O   0  0  0  0  0  0  0  0  0  0  0  0
    8.2760  -13.7050   25.8543 C   0  0  2  0  0  0  0  0  0  0  0  0
    8.3265  -15.0279   25.2518 N   0  0  0  0  0  0  0  0  0  0  0  0
    8.6150  -13.8154   27.2748 C   0  0  0  0  0  0  0  0  0  0  0  0
    8.8889  -12.7131   28.0873 O   0  0  0  0  0  0  0  0  0  0  0  0
    8.6711  -14.9327   27.8198 O   0  0  0  0  0  0  0  0  0  0  0  0
  2  1  1  6
  2  3  1  0
  3  4  1  0
  4  5  2  0
  4  8  1  0
  6  2  1  0
  6 14  1  0
  7  6  2  0
  9 10  1  0
 10 12  1  0
 10 11  2  0
 13 12  1  6
 13 14  1  0
 13 15  1  0
 15 16  2  0
 18 17  1  1
 18 19  1  0
 20 18  1  0
 21 15  1  0
 20 21  1  1
 22 23  1  0
 22 20  1  0
 24 22  2  0
M  END
$$$$
