DNT.pdb
     RDKit          3D

 24 23  0  0  1  0  0  0  0  0999 V2000
   12.7005  -20.4915   24.3530 N   0  0  0  0  0  0  0  0  0  0  0  0
   11.3537  -19.9945   24.0309 C   0  0  1  0  0  0  0  0  0  0  0  0
   10.5867  -21.1786   23.5559 C   0  0  0  0  0  0  0  0  0  0  0  0
   11.0925  -21.6932   22.2952 C   0  0  0  0  0  0  0  0  0  0  0  0
   12.2120  -22.1730   22.0531 O   0  0  0  0  0  0  0  0  0  0  0  0
   10.7906  -19.3165   25.2280 C   0  0  0  0  0  0  0  0  0  0  0  0
    9.7008  -18.7136   25.2501 O   0  0  0  0  0  0  0  0  0  0  0  0
   10.2165  -21.6540   21.1869 O   0  0  0  0  0  0  0  0  0  0  0  0
   11.4603  -21.5707   29.6707 N   0  0  0  0  0  0  0  0  0  0  0  0
   10.8441  -20.3159   29.4754 C   0  0  0  0  0  0  0  0  0  0  0  0
    9.6353  -20.1896   29.7734 O   0  0  0  0  0  0  0  0  0  0  0  0
   11.5775  -19.1524   28.9328 C   0  0  0  0  0  0  0  0  0  0  0  0
   10.9604  -18.6740   27.6451 C   0  0  2  0  0  0  0  0  0  0  0  0
   11.5124  -19.3234   26.4816 N   0  0  0  0  0  0  0  0  0  0  0  0
   11.2266  -17.2010   27.5669 C   0  0  0  0  0  0  0  0  0  0  0  0
   12.3824  -16.8316   27.2627 O   0  0  0  0  0  0  0  0  0  0  0  0
    9.7658  -14.7272   25.3575 C   0  0  0  0  0  0  0  0  0  0  0  0
    9.4636  -14.3167   26.7611 C   0  0  1  0  0  0  0  0  0  0  0  0
    8.1720  -14.7805   27.0845 O   0  0  0  0  0  0  0  0  0  0  0  0
   10.3814  -14.8679   27.8011 C   0  0  2  0  0  0  0  0  0  0  0  0
   10.1636  -16.3055   27.8394 N   0  0  0  0  0  0  0  0  0  0  0  0
   10.2070  -14.3238   29.1496 C   0  0  0  0  0  0  0  0  0  0  0  0
    9.7818  -15.0889   30.2379 O   0  0  0  0  0  0  0  0  0  0  0  0
   10.4403  -13.1224   29.3748 O   0  0  0  0  0  0  0  0  0  0  0  0
  2  1  1  1
  2  3  1  0
  3  4  1  0
  4  5  2  0
  4  8  1  0
  6  2  1  0
  6 14  1  0
  7  6  2  0
  9 10  1  0
 10 12  1  0
 10 11  2  0
 13 12  1  1
 13 14  1  0
 13 15  1  0
 15 16  2  0
 18 17  1  6
 18 19  1  0
 20 18  1  0
 21 15  1  0
 20 21  1  1
 22 23  1  0
 22 20  1  0
 24 22  2  0
M  END
$$$$
