DNT.pdb
     RDKit          3D

 24 23  0  0  1  0  0  0  0  0999 V2000
   11.0753  -18.1450   13.8421 N   0  0  0  0  0  0  0  0  0  0  0  0
   11.9844  -16.9950   13.9686 C   0  0  1  0  0  0  0  0  0  0  0  0
   11.2852  -15.8515   13.3207 C   0  0  0  0  0  0  0  0  0  0  0  0
   11.0922  -16.0594   11.8961 C   0  0  0  0  0  0  0  0  0  0  0  0
   11.5037  -16.9958   11.1919 O   0  0  0  0  0  0  0  0  0  0  0  0
   12.3181  -16.7995   15.4039 C   0  0  0  0  0  0  0  0  0  0  0  0
   13.0392  -15.8833   15.8421 O   0  0  0  0  0  0  0  0  0  0  0  0
   10.3427  -15.0843   11.1999 O   0  0  0  0  0  0  0  0  0  0  0  0
   10.1996  -20.2568   18.5257 N   0  0  0  0  0  0  0  0  0  0  0  0
   10.0756  -18.9253   18.0738 C   0  0  0  0  0  0  0  0  0  0  0  0
    9.2839  -18.6828   17.1354 O   0  0  0  0  0  0  0  0  0  0  0  0
   10.8473  -17.8142   18.6704 C   0  0  0  0  0  0  0  0  0  0  0  0
   12.0259  -17.4472   17.8079 C   0  0  2  0  0  0  0  0  0  0  0  0
   11.7992  -17.7036   16.4069 N   0  0  0  0  0  0  0  0  0  0  0  0
   13.1785  -18.2777   18.2862 C   0  0  0  0  0  0  0  0  0  0  0  0
   12.9283  -19.4126   18.7490 O   0  0  0  0  0  0  0  0  0  0  0  0
   15.8098  -19.5920   16.3060 C   0  0  0  0  0  0  0  0  0  0  0  0
   16.4567  -18.7568   17.3613 C   0  0  1  0  0  0  0  0  0  0  0  0
   16.7135  -17.4827   16.8151 O   0  0  0  0  0  0  0  0  0  0  0  0
   15.6394  -18.5312   18.5898 C   0  0  2  0  0  0  0  0  0  0  0  0
   14.4855  -17.7403   18.1916 N   0  0  0  0  0  0  0  0  0  0  0  0
   16.3268  -17.8505   19.6893 C   0  0  0  0  0  0  0  0  0  0  0  0
   17.3245  -18.4506   20.4606 O   0  0  0  0  0  0  0  0  0  0  0  0
   16.0331  -16.6766   19.9798 O   0  0  0  0  0  0  0  0  0  0  0  0
  2  1  1  1
  2  3  1  0
  3  4  1  0
  4  5  2  0
  4  8  1  0
  6  2  1  0
  6 14  1  0
  7  6  2  0
  9 10  1  0
 10 12  1  0
 10 11  2  0
 13 12  1  1
 13 14  1  0
 13 15  1  0
 15 16  2  0
 18 17  1  6
 18 19  1  0
 20 18  1  0
 21 15  1  0
 20 21  1  6
 22 23  1  0
 22 20  1  0
 24 22  2  0
M  END
$$$$
