AWI.pdb
     RDKit          3D

 28 29  0  0  1  0  0  0  0  0999 V2000
   11.4228  -20.1211   21.1709 C   0  0  0  0  0  0  0  0  0  0  0  0
   10.7073  -19.0321   20.4100 C   0  0  2  0  0  0  0  0  0  0  0  0
   11.4670  -18.7184   19.2364 N   0  0  0  0  0  0  0  0  0  0  0  0
   10.5605  -17.8159   21.2571 C   0  0  0  0  0  0  0  0  0  0  0  0
   11.4439  -16.9180   21.2209 O   0  0  0  0  0  0  0  0  0  0  0  0
    9.4541  -17.6158   22.1186 N   0  0  0  0  0  0  0  0  0  0  0  0
    9.2402  -16.4461   22.9267 C   0  0  1  0  0  0  0  0  0  0  0  0
    7.8793  -15.8822   22.7691 C   0  0  0  0  0  0  0  0  0  0  0  0
    7.7101  -14.4865   23.2265 C   0  0  0  0  0  0  0  0  0  0  0  0
    8.1453  -13.3665   22.5385 C   0  0  0  0  0  0  0  0  0  0  0  0
    7.7822  -12.2962   23.2588 N   0  0  0  0  0  0  0  0  0  0  0  0
    7.1385  -12.6898   24.3694 C   0  0  0  0  0  0  0  0  0  0  0  0
    6.6033  -11.9450   25.3814 C   0  0  0  0  0  0  0  0  0  0  0  0
    5.9913  -12.5821   26.4316 C   0  0  0  0  0  0  0  0  0  0  0  0
    5.9107  -13.9538   26.4779 C   0  0  0  0  0  0  0  0  0  0  0  0
    6.4593  -14.7005   25.4415 C   0  0  0  0  0  0  0  0  0  0  0  0
    7.0746  -14.0668   24.3831 C   0  0  0  0  0  0  0  0  0  0  0  0
    9.6887  -16.6886   24.2905 C   0  0  0  0  0  0  0  0  0  0  0  0
    9.8603  -17.8850   24.6452 O   0  0  0  0  0  0  0  0  0  0  0  0
   11.0789  -13.8235   29.7161 C   0  0  0  0  0  0  0  0  0  0  0  0
   11.1804  -14.9802   28.7603 C   0  0  0  0  0  0  0  0  0  0  0  0
   10.5859  -14.7585   27.4200 C   0  0  2  0  0  0  0  0  0  0  0  0
    9.2743  -14.0218   27.6079 C   0  0  0  0  0  0  0  0  0  0  0  0
   10.4517  -15.9403   26.5258 C   0  0  2  0  0  0  0  0  0  0  0  0
    9.9392  -15.6490   25.2299 N   0  0  0  0  0  0  0  0  0  0  0  0
    9.6970  -17.0514   27.1291 C   0  0  0  0  0  0  0  0  0  0  0  0
   10.2819  -18.0047   27.9538 O   0  0  0  0  0  0  0  0  0  0  0  0
    8.4640  -17.1869   26.9200 O   0  0  0  0  0  0  0  0  0  0  0  0
  2  4  1  0
  2  1  1  1
  2  3  1  0
  4  5  2  0
  6  7  1  0
  6  4  1  0
  7  8  1  1
  8  9  1  0
  9 17  1  0
 10  9  2  0
 10 11  1  0
 11 12  1  0
 12 17  2  0
 12 13  1  0
 13 14  2  0
 14 15  1  0
 16 15  2  0
 17 16  1  0
 18 19  2  0
 18  7  1  0
 21 22  1  0
 21 20  1  0
 22 23  1  1
 24 25  1  6
 24 22  1  0
 25 18  1  0
 26 24  1  0
 27 26  1  0
 28 26  2  0
M  END
$$$$
