AWI.pdb
     RDKit          3D

 28 29  0  0  1  0  0  0  0  0999 V2000
   12.1357  -18.3482   20.6931 C   0  0  0  0  0  0  0  0  0  0  0  0
   11.2387  -17.2220   20.2414 C   0  0  2  0  0  0  0  0  0  0  0  0
   11.9860  -16.3616   19.3729 N   0  0  0  0  0  0  0  0  0  0  0  0
   10.7432  -16.4493   21.4142 C   0  0  0  0  0  0  0  0  0  0  0  0
   11.3944  -15.4526   21.8272 O   0  0  0  0  0  0  0  0  0  0  0  0
    9.5517  -16.7872   22.1017 N   0  0  0  0  0  0  0  0  0  0  0  0
    9.0441  -16.0994   23.2577 C   0  0  1  0  0  0  0  0  0  0  0  0
    7.5638  -16.0456   23.2878 C   0  0  0  0  0  0  0  0  0  0  0  0
    6.9746  -15.3374   24.4442 C   0  0  0  0  0  0  0  0  0  0  0  0
    6.3509  -15.9503   25.5177 C   0  0  0  0  0  0  0  0  0  0  0  0
    5.9804  -14.9796   26.3643 N   0  0  0  0  0  0  0  0  0  0  0  0
    6.3413  -13.7830   25.8739 C   0  0  0  0  0  0  0  0  0  0  0  0
    6.1617  -12.5332   26.3945 C   0  0  0  0  0  0  0  0  0  0  0  0
    6.6175  -11.4438   25.6955 C   0  0  0  0  0  0  0  0  0  0  0  0
    7.2493  -11.5935   24.4836 C   0  0  0  0  0  0  0  0  0  0  0  0
    7.4260  -12.8711   23.9646 C   0  0  0  0  0  0  0  0  0  0  0  0
    6.9714  -13.9698   24.6621 C   0  0  0  0  0  0  0  0  0  0  0  0
    9.7009  -16.5879   24.4617 C   0  0  0  0  0  0  0  0  0  0  0  0
   10.2385  -17.7260   24.4134 O   0  0  0  0  0  0  0  0  0  0  0  0
    9.7360  -13.8792   29.7013 C   0  0  0  0  0  0  0  0  0  0  0  0
    9.5012  -14.8279   28.5582 C   0  0  0  0  0  0  0  0  0  0  0  0
   10.7202  -15.3152   27.8686 C   0  0  2  0  0  0  0  0  0  0  0  0
   11.5192  -14.1059   27.4241 C   0  0  0  0  0  0  0  0  0  0  0  0
   10.5387  -16.3098   26.7768 C   0  0  2  0  0  0  0  0  0  0  0  0
    9.7629  -15.8479   25.6761 N   0  0  0  0  0  0  0  0  0  0  0  0
   10.0282  -17.6094   27.2442 C   0  0  0  0  0  0  0  0  0  0  0  0
    8.8629  -18.1862   26.7540 O   0  0  0  0  0  0  0  0  0  0  0  0
   10.6392  -18.2674   28.1251 O   0  0  0  0  0  0  0  0  0  0  0  0
  2  4  1  0
  2  1  1  1
  2  3  1  0
  4  5  2  0
  6  7  1  0
  6  4  1  0
  7  8  1  1
  8  9  1  0
  9 17  1  0
 10  9  2  0
 10 11  1  0
 11 12  1  0
 12 17  2  0
 12 13  1  0
 13 14  2  0
 14 15  1  0
 16 15  2  0
 17 16  1  0
 18 19  2  0
 18  7  1  0
 21 22  1  0
 21 20  1  0
 22 23  1  6
 24 25  1  6
 24 22  1  0
 25 18  1  0
 26 24  1  0
 27 26  1  0
 28 26  2  0
M  END
$$$$
