AWI.pdb
     RDKit          3D

 28 29  0  0  1  0  0  0  0  0999 V2000
   12.5105  -18.7780   20.7717 C   0  0  0  0  0  0  0  0  0  0  0  0
   11.3620  -17.8800   20.3824 C   0  0  2  0  0  0  0  0  0  0  0  0
   11.7792  -17.0499   19.2916 N   0  0  0  0  0  0  0  0  0  0  0  0
   10.9515  -17.0311   21.5352 C   0  0  0  0  0  0  0  0  0  0  0  0
   11.5187  -15.9227   21.7293 O   0  0  0  0  0  0  0  0  0  0  0  0
    9.9342  -17.4171   22.4422 N   0  0  0  0  0  0  0  0  0  0  0  0
    9.4029  -16.5848   23.4871 C   0  0  1  0  0  0  0  0  0  0  0  0
    7.9275  -16.4624   23.4273 C   0  0  0  0  0  0  0  0  0  0  0  0
    7.3992  -15.0827   23.4810 C   0  0  0  0  0  0  0  0  0  0  0  0
    7.0645  -14.3164   22.3773 C   0  0  0  0  0  0  0  0  0  0  0  0
    6.6000  -13.1462   22.8368 N   0  0  0  0  0  0  0  0  0  0  0  0
    6.6268  -13.1391   24.1791 C   0  0  0  0  0  0  0  0  0  0  0  0
    6.2552  -12.1611   25.0570 C   0  0  0  0  0  0  0  0  0  0  0  0
    6.3831  -12.3858   26.4047 C   0  0  0  0  0  0  0  0  0  0  0  0
    6.8784  -13.5769   26.8803 C   0  0  0  0  0  0  0  0  0  0  0  0
    7.2531  -14.5644   25.9763 C   0  0  0  0  0  0  0  0  0  0  0  0
    7.1262  -14.3456   24.6211 C   0  0  0  0  0  0  0  0  0  0  0  0
    9.9713  -16.9668   24.7719 C   0  0  0  0  0  0  0  0  0  0  0  0
   10.5587  -18.0788   24.8436 O   0  0  0  0  0  0  0  0  0  0  0  0
    9.7171  -13.9301   29.8958 C   0  0  0  0  0  0  0  0  0  0  0  0
    9.5820  -15.0964   28.9559 C   0  0  0  0  0  0  0  0  0  0  0  0
   10.7568  -15.3620   28.0908 C   0  0  2  0  0  0  0  0  0  0  0  0
   11.1673  -14.0523   27.4471 C   0  0  0  0  0  0  0  0  0  0  0  0
   10.6446  -16.4703   27.1041 C   0  0  2  0  0  0  0  0  0  0  0  0
    9.8949  -16.1518   25.9364 N   0  0  0  0  0  0  0  0  0  0  0  0
   10.1575  -17.7309   27.6886 C   0  0  0  0  0  0  0  0  0  0  0  0
   10.8667  -18.4456   28.6462 O   0  0  0  0  0  0  0  0  0  0  0  0
    9.0545  -18.2242   27.3391 O   0  0  0  0  0  0  0  0  0  0  0  0
  2  4  1  0
  2  1  1  1
  2  3  1  0
  4  5  2  0
  6  7  1  0
  6  4  1  0
  7  8  1  1
  8  9  1  0
  9 17  1  0
 10  9  2  0
 10 11  1  0
 11 12  1  0
 12 17  2  0
 12 13  1  0
 13 14  2  0
 14 15  1  0
 16 15  2  0
 17 16  1  0
 18 19  2  0
 18  7  1  0
 21 22  1  0
 21 20  1  0
 22 23  1  6
 24 25  1  6
 24 22  1  0
 25 18  1  0
 26 24  1  0
 27 26  1  0
 28 26  2  0
M  END
$$$$
