AWI.pdb
     RDKit          3D

 28 29  0  0  1  0  0  0  0  0999 V2000
   12.0839  -18.1003   20.3581 C   0  0  0  0  0  0  0  0  0  0  0  0
   10.7940  -17.3935   20.0210 C   0  0  2  0  0  0  0  0  0  0  0  0
   11.0266  -16.5224   18.9074 N   0  0  0  0  0  0  0  0  0  0  0  0
   10.3129  -16.6039   21.1885 C   0  0  0  0  0  0  0  0  0  0  0  0
   10.6936  -15.4118   21.3372 O   0  0  0  0  0  0  0  0  0  0  0  0
    9.4308  -17.1385   22.1593 N   0  0  0  0  0  0  0  0  0  0  0  0
    8.9330  -16.4235   23.3029 C   0  0  1  0  0  0  0  0  0  0  0  0
    7.5375  -16.7870   23.6426 C   0  0  0  0  0  0  0  0  0  0  0  0
    6.8424  -15.8601   24.5611 C   0  0  0  0  0  0  0  0  0  0  0  0
    5.7478  -16.1883   25.3431 C   0  0  0  0  0  0  0  0  0  0  0  0
    5.4288  -15.0963   26.0518 N   0  0  0  0  0  0  0  0  0  0  0  0
    6.2714  -14.0948   25.7524 C   0  0  0  0  0  0  0  0  0  0  0  0
    6.3140  -12.8151   26.2275 C   0  0  0  0  0  0  0  0  0  0  0  0
    7.2780  -11.9578   25.7593 C   0  0  0  0  0  0  0  0  0  0  0  0
    8.1967  -12.3685   24.8226 C   0  0  0  0  0  0  0  0  0  0  0  0
    8.1426  -13.6738   24.3470 C   0  0  0  0  0  0  0  0  0  0  0  0
    7.1775  -14.5404   24.8138 C   0  0  0  0  0  0  0  0  0  0  0  0
    9.9008  -16.4768   24.3893 C   0  0  0  0  0  0  0  0  0  0  0  0
   10.8369  -17.3147   24.2974 O   0  0  0  0  0  0  0  0  0  0  0  0
    9.9700  -12.6582   28.7361 C   0  0  0  0  0  0  0  0  0  0  0  0
   10.3436  -13.5105   27.5546 C   0  0  0  0  0  0  0  0  0  0  0  0
   10.4343  -14.9671   27.8179 C   0  0  2  0  0  0  0  0  0  0  0  0
   11.4314  -15.1768   28.9404 C   0  0  0  0  0  0  0  0  0  0  0  0
   10.6912  -15.8590   26.6547 C   0  0  2  0  0  0  0  0  0  0  0  0
    9.8390  -15.6363   25.5363 N   0  0  0  0  0  0  0  0  0  0  0  0
   10.7045  -17.2897   27.0025 C   0  0  0  0  0  0  0  0  0  0  0  0
   11.8750  -18.0031   27.2301 O   0  0  0  0  0  0  0  0  0  0  0  0
    9.6336  -17.9405   27.1117 O   0  0  0  0  0  0  0  0  0  0  0  0
  2  4  1  0
  2  1  1  1
  2  3  1  0
  4  5  2  0
  6  7  1  0
  6  4  1  0
  7  8  1  1
  8  9  1  0
  9 17  1  0
 10  9  2  0
 10 11  1  0
 11 12  1  0
 12 17  2  0
 12 13  1  0
 13 14  2  0
 14 15  1  0
 16 15  2  0
 17 16  1  0
 18 19  2  0
 18  7  1  0
 21 22  1  0
 21 20  1  0
 22 23  1  1
 24 25  1  6
 24 22  1  0
 25 18  1  0
 26 24  1  0
 27 26  1  0
 28 26  2  0
M  END
$$$$
