AWI.pdb
     RDKit          3D

 28 29  0  0  1  0  0  0  0  0999 V2000
   11.8256  -19.7339   21.2846 C   0  0  0  0  0  0  0  0  0  0  0  0
   11.0813  -18.6258   20.5808 C   0  0  2  0  0  0  0  0  0  0  0  0
   11.8853  -18.1530   19.4931 N   0  0  0  0  0  0  0  0  0  0  0  0
   10.7989  -17.5082   21.5237 C   0  0  0  0  0  0  0  0  0  0  0  0
   11.6419  -16.5824   21.6670 O   0  0  0  0  0  0  0  0  0  0  0  0
    9.6051  -17.4338   22.2825 N   0  0  0  0  0  0  0  0  0  0  0  0
    9.2910  -16.3943   23.2245 C   0  0  1  0  0  0  0  0  0  0  0  0
    7.8926  -15.9189   23.1076 C   0  0  0  0  0  0  0  0  0  0  0  0
    7.6548  -14.5244   23.5375 C   0  0  0  0  0  0  0  0  0  0  0  0
    8.0696  -13.3982   22.8470 C   0  0  0  0  0  0  0  0  0  0  0  0
    7.6417  -12.3328   23.5384 N   0  0  0  0  0  0  0  0  0  0  0  0
    6.9767  -12.7353   24.6332 C   0  0  0  0  0  0  0  0  0  0  0  0
    6.3797  -11.9976   25.6154 C   0  0  0  0  0  0  0  0  0  0  0  0
    5.7577  -12.6431   26.6544 C   0  0  0  0  0  0  0  0  0  0  0  0
    5.7283  -14.0161   26.7193 C   0  0  0  0  0  0  0  0  0  0  0  0
    6.3396  -14.7555   25.7131 C   0  0  0  0  0  0  0  0  0  0  0  0
    6.9653  -14.1134   24.6659 C   0  0  0  0  0  0  0  0  0  0  0  0
    9.7393  -16.7715   24.5574 C   0  0  0  0  0  0  0  0  0  0  0  0
   10.1152  -17.9610   24.7325 O   0  0  0  0  0  0  0  0  0  0  0  0
   10.5345  -12.7994   28.6460 C   0  0  0  0  0  0  0  0  0  0  0  0
   10.6893  -13.8544   27.5854 C   0  0  0  0  0  0  0  0  0  0  0  0
   10.2571  -15.2195   27.9710 C   0  0  2  0  0  0  0  0  0  0  0  0
   11.0245  -15.6170   29.2166 C   0  0  0  0  0  0  0  0  0  0  0  0
   10.2936  -16.2724   26.9201 C   0  0  2  0  0  0  0  0  0  0  0  0
    9.7722  -15.8696   25.6580 N   0  0  0  0  0  0  0  0  0  0  0  0
    9.6778  -17.5426   27.3387 C   0  0  0  0  0  0  0  0  0  0  0  0
   10.3913  -18.5637   27.9544 O   0  0  0  0  0  0  0  0  0  0  0  0
    8.4530  -17.7615   27.1536 O   0  0  0  0  0  0  0  0  0  0  0  0
  2  4  1  0
  2  1  1  1
  2  3  1  0
  4  5  2  0
  6  7  1  0
  6  4  1  0
  7  8  1  1
  8  9  1  0
  9 17  1  0
 10  9  2  0
 10 11  1  0
 11 12  1  0
 12 17  2  0
 12 13  1  0
 13 14  2  0
 14 15  1  0
 16 15  2  0
 17 16  1  0
 18 19  2  0
 18  7  1  0
 21 22  1  0
 21 20  1  0
 22 23  1  1
 24 25  1  6
 24 22  1  0
 25 18  1  0
 26 24  1  0
 27 26  1  0
 28 26  2  0
M  END
$$$$
