AWI.pdb
     RDKit          3D

 28 29  0  0  1  0  0  0  0  0999 V2000
   11.3324  -15.9349   18.8432 C   0  0  0  0  0  0  0  0  0  0  0  0
   11.4216  -16.8697   20.0244 C   0  0  2  0  0  0  0  0  0  0  0  0
   10.6207  -18.0267   19.7543 N   0  0  0  0  0  0  0  0  0  0  0  0
   10.9347  -16.1950   21.2596 C   0  0  0  0  0  0  0  0  0  0  0  0
   11.5707  -15.2133   21.7284 O   0  0  0  0  0  0  0  0  0  0  0  0
    9.7682  -16.6117   21.9467 N   0  0  0  0  0  0  0  0  0  0  0  0
    9.1653  -15.9101   23.0472 C   0  0  1  0  0  0  0  0  0  0  0  0
    7.6878  -16.0193   23.0554 C   0  0  0  0  0  0  0  0  0  0  0  0
    7.0061  -15.3655   24.1928 C   0  0  0  0  0  0  0  0  0  0  0  0
    6.3399  -16.0300   25.2085 C   0  0  0  0  0  0  0  0  0  0  0  0
    5.8861  -15.0975   26.0576 N   0  0  0  0  0  0  0  0  0  0  0  0
    6.2350  -13.8758   25.6237 C   0  0  0  0  0  0  0  0  0  0  0  0
    5.9818  -12.6486   26.1670 C   0  0  0  0  0  0  0  0  0  0  0  0
    6.4416  -11.5246   25.5279 C   0  0  0  0  0  0  0  0  0  0  0  0
    7.1501  -11.6175   24.3533 C   0  0  0  0  0  0  0  0  0  0  0  0
    7.4012  -12.8726   23.8107 C   0  0  0  0  0  0  0  0  0  0  0  0
    6.9431  -14.0059   24.4481 C   0  0  0  0  0  0  0  0  0  0  0  0
    9.8480  -16.2421   24.2895 C   0  0  0  0  0  0  0  0  0  0  0  0
   10.4858  -17.3274   24.3337 O   0  0  0  0  0  0  0  0  0  0  0  0
   11.0689  -14.0669   30.0719 C   0  0  0  0  0  0  0  0  0  0  0  0
   11.2679  -15.0392   28.9418 C   0  0  0  0  0  0  0  0  0  0  0  0
   10.5062  -14.7474   27.7034 C   0  0  2  0  0  0  0  0  0  0  0  0
    9.0902  -14.3813   28.1023 C   0  0  0  0  0  0  0  0  0  0  0  0
   10.5465  -15.7650   26.6183 C   0  0  2  0  0  0  0  0  0  0  0  0
    9.8283  -15.4073   25.4423 N   0  0  0  0  0  0  0  0  0  0  0  0
   10.1515  -17.1126   27.0609 C   0  0  0  0  0  0  0  0  0  0  0  0
   11.0408  -18.0117   27.6368 O   0  0  0  0  0  0  0  0  0  0  0  0
    8.9665  -17.5152   26.9349 O   0  0  0  0  0  0  0  0  0  0  0  0
  2  4  1  0
  2  1  1  6
  2  3  1  0
  4  5  2  0
  6  7  1  0
  6  4  1  0
  7  8  1  1
  8  9  1  0
  9 17  1  0
 10  9  2  0
 10 11  1  0
 11 12  1  0
 12 17  2  0
 12 13  1  0
 13 14  2  0
 14 15  1  0
 16 15  2  0
 17 16  1  0
 18 19  2  0
 18  7  1  0
 21 22  1  0
 21 20  1  0
 22 23  1  1
 24 25  1  6
 24 22  1  0
 25 18  1  0
 26 24  1  0
 27 26  1  0
 28 26  2  0
M  END
$$$$
