PPM.pdb
     RDKit          3D

 23 24  0  0  1  0  0  0  0  0999 V2000
   26.0966  -22.0906  -14.4255 N   0  0  0  0  0  0  0  0  0  0  0  0
   26.3156  -21.3100  -15.6220 C   0  0  0  0  0  0  0  0  0  0  0  0
   24.9703  -20.5807  -15.7156 C   0  0  0  0  0  0  0  0  0  0  0  0
   24.7606  -20.2082  -14.2518 C   0  0  0  0  0  0  0  0  0  0  0  0
   25.7163  -21.0605  -13.4495 C   0  0  1  0  0  0  0  0  0  0  0  0
   25.1127  -21.6806  -12.2711 C   0  0  0  0  0  0  0  0  0  0  0  0
   24.9261  -22.9095  -12.2462 O   0  0  0  0  0  0  0  0  0  0  0  0
   24.7280  -20.9098  -11.1366 N   0  0  0  0  0  0  0  0  0  0  0  0
   25.1249  -19.5337  -11.0108 C   0  0  0  0  0  0  0  0  0  0  0  0
   24.6826  -19.0879   -9.6540 C   0  0  0  0  0  0  0  0  0  0  0  0
   24.4504  -20.4027   -8.8871 C   0  0  0  0  0  0  0  0  0  0  0  0
   23.9687  -21.2928  -10.0024 C   0  0  1  0  0  0  0  0  0  0  0  0
   22.5115  -21.3455  -10.1393 C   0  0  0  0  0  0  0  0  0  0  0  0
   22.0571  -20.8000  -11.1806 O   0  0  0  0  0  0  0  0  0  0  0  0
   15.9768  -25.2901   -7.7301 C   0  0  0  0  0  0  0  0  0  0  0  0
   17.6073  -24.6597   -7.3290 S   0  0  0  0  0  0  0  0  0  0  0  0
   18.2972  -23.6747   -8.6870 C   0  0  0  0  0  0  0  0  0  0  0  0
   19.6564  -23.1376   -8.3241 C   0  0  0  0  0  0  0  0  0  0  0  0
   20.2781  -22.4070   -9.5135 C   0  0  2  0  0  0  0  0  0  0  0  0
   21.6119  -21.9283   -9.2441 N   0  0  0  0  0  0  0  0  0  0  0  0
   19.3597  -21.3194   -9.8755 C   0  0  0  0  0  0  0  0  0  0  0  0
   19.4040  -20.1971   -9.2969 O   0  0  0  0  0  0  0  0  0  0  0  0
   18.4150  -21.5336  -10.8847 O   0  0  0  0  0  0  0  0  0  0  0  0
  1  2  1  0
  2  3  1  0
  4  3  1  0
  5  4  1  0
  5  1  1  0
  5  6  1  1
  6  7  2  0
  8  6  1  0
  9  8  1  0
 10 11  1  0
 10  9  1  0
 11 12  1  0
 12  8  1  0
 12 13  1  6
 13 20  1  0
 14 13  2  0
 16 17  1  0
 16 15  1  0
 18 17  1  0
 19 18  1  1
 19 21  1  0
 20 19  1  0
 21 22  2  0
 21 23  1  0
M  END
$$$$
