PPM.pdb
     RDKit          3D

 23 24  0  0  1  0  0  0  0  0999 V2000
   26.4599  -17.3580  -15.4108 N   0  0  0  0  0  0  0  0  0  0  0  0
   27.4764  -17.0085  -16.3770 C   0  0  0  0  0  0  0  0  0  0  0  0
   28.7376  -17.2864  -15.5507 C   0  0  0  0  0  0  0  0  0  0  0  0
   28.3414  -18.5987  -14.8829 C   0  0  0  0  0  0  0  0  0  0  0  0
   26.8439  -18.7265  -15.0391 C   0  0  1  0  0  0  0  0  0  0  0  0
   26.1516  -19.1299  -13.8162 C   0  0  0  0  0  0  0  0  0  0  0  0
   25.6181  -18.2692  -13.0949 O   0  0  0  0  0  0  0  0  0  0  0  0
   26.0684  -20.4963  -13.4219 N   0  0  0  0  0  0  0  0  0  0  0  0
   26.5199  -21.5449  -14.2955 C   0  0  0  0  0  0  0  0  0  0  0  0
   26.1511  -22.8345  -13.6350 C   0  0  0  0  0  0  0  0  0  0  0  0
   25.0788  -22.4325  -12.6058 C   0  0  0  0  0  0  0  0  0  0  0  0
   25.5632  -21.0588  -12.2228 C   0  0  1  0  0  0  0  0  0  0  0  0
   26.4254  -21.0367  -11.0390 C   0  0  0  0  0  0  0  0  0  0  0  0
   27.4721  -21.7325  -11.1330 O   0  0  0  0  0  0  0  0  0  0  0  0
   28.4875  -19.1525   -4.6057 C   0  0  0  0  0  0  0  0  0  0  0  0
   29.2492  -19.0837   -6.2280 S   0  0  0  0  0  0  0  0  0  0  0  0
   28.4318  -20.2017   -7.3994 C   0  0  0  0  0  0  0  0  0  0  0  0
   26.9772  -19.8452   -7.5561 C   0  0  0  0  0  0  0  0  0  0  0  0
   26.2845  -20.8262   -8.5009 C   0  0  2  0  0  0  0  0  0  0  0  0
   26.1945  -20.3347   -9.8541 N   0  0  0  0  0  0  0  0  0  0  0  0
   24.9643  -21.1151   -7.9255 C   0  0  0  0  0  0  0  0  0  0  0  0
   24.8377  -21.8113   -6.8789 O   0  0  0  0  0  0  0  0  0  0  0  0
   23.8221  -20.6063   -8.5529 O   0  0  0  0  0  0  0  0  0  0  0  0
  1  2  1  0
  2  3  1  0
  4  3  1  0
  5  4  1  0
  5  1  1  0
  5  6  1  1
  6  7  2  0
  8  6  1  0
  9  8  1  0
 10 11  1  0
 10  9  1  0
 11 12  1  0
 12  8  1  0
 12 13  1  1
 13 20  1  0
 14 13  2  0
 16 17  1  0
 16 15  1  0
 18 17  1  0
 19 18  1  1
 19 21  1  0
 20 19  1  0
 21 22  2  0
 21 23  1  0
M  END
$$$$
