PPM.pdb
     RDKit          3D

 23 24  0  0  1  0  0  0  0  0999 V2000
   26.1238  -19.3158  -15.0998 N   0  0  0  0  0  0  0  0  0  0  0  0
   26.0748  -17.9690  -15.6219 C   0  0  0  0  0  0  0  0  0  0  0  0
   26.0530  -17.1745  -14.3109 C   0  0  0  0  0  0  0  0  0  0  0  0
   27.0969  -17.9444  -13.5090 C   0  0  0  0  0  0  0  0  0  0  0  0
   27.2979  -19.2635  -14.2184 C   0  0  1  0  0  0  0  0  0  0  0  0
   27.3107  -20.4215  -13.3261 C   0  0  0  0  0  0  0  0  0  0  0  0
   26.3899  -21.2550  -13.3814 O   0  0  0  0  0  0  0  0  0  0  0  0
   28.3597  -20.6265  -12.3843 N   0  0  0  0  0  0  0  0  0  0  0  0
   29.4172  -19.6636  -12.2369 C   0  0  0  0  0  0  0  0  0  0  0  0
   30.4049  -20.2616  -11.2872 C   0  0  0  0  0  0  0  0  0  0  0  0
   30.0668  -21.7637  -11.2949 C   0  0  0  0  0  0  0  0  0  0  0  0
   28.5753  -21.7112  -11.4975 C   0  0  1  0  0  0  0  0  0  0  0  0
   27.8008  -21.7448  -10.2549 C   0  0  0  0  0  0  0  0  0  0  0  0
   27.8419  -22.8412   -9.6346 O   0  0  0  0  0  0  0  0  0  0  0  0
   27.8455  -20.0198   -4.3029 C   0  0  0  0  0  0  0  0  0  0  0  0
   28.3041  -19.0712   -5.7543 S   0  0  0  0  0  0  0  0  0  0  0  0
   27.8628  -19.9361   -7.2865 C   0  0  0  0  0  0  0  0  0  0  0  0
   26.3682  -20.0580   -7.4229 C   0  0  0  0  0  0  0  0  0  0  0  0
   26.0063  -20.7819   -8.7190 C   0  0  2  0  0  0  0  0  0  0  0  0
   27.0451  -20.7011   -9.7166 N   0  0  0  0  0  0  0  0  0  0  0  0
   24.7381  -20.2094   -9.1894 C   0  0  0  0  0  0  0  0  0  0  0  0
   24.6805  -19.4991  -10.2326 O   0  0  0  0  0  0  0  0  0  0  0  0
   23.5682  -20.4580   -8.4638 O   0  0  0  0  0  0  0  0  0  0  0  0
  1  2  1  0
  2  3  1  0
  4  3  1  0
  5  4  1  0
  5  1  1  0
  5  6  1  1
  6  7  2  0
  8  6  1  0
  9  8  1  0
 10 11  1  0
 10  9  1  0
 11 12  1  0
 12  8  1  0
 12 13  1  1
 13 20  1  0
 14 13  2  0
 16 17  1  0
 16 15  1  0
 18 17  1  0
 19 18  1  1
 19 21  1  0
 20 19  1  0
 21 22  2  0
 21 23  1  0
M  END
$$$$
