PPM.pdb
     RDKit          3D

 23 24  0  0  1  0  0  0  0  0999 V2000
   24.9256  -18.7792  -15.2279 N   0  0  0  0  0  0  0  0  0  0  0  0
   24.8167  -17.3817  -15.5801 C   0  0  0  0  0  0  0  0  0  0  0  0
   25.0393  -16.7412  -14.2051 C   0  0  0  0  0  0  0  0  0  0  0  0
   26.1890  -17.5995  -13.6884 C   0  0  0  0  0  0  0  0  0  0  0  0
   26.2354  -18.8298  -14.5645 C   0  0  1  0  0  0  0  0  0  0  0  0
   26.3770  -20.0817  -13.8228 C   0  0  0  0  0  0  0  0  0  0  0  0
   25.4328  -20.8898  -13.7876 O   0  0  0  0  0  0  0  0  0  0  0  0
   27.5791  -20.4078  -13.1315 N   0  0  0  0  0  0  0  0  0  0  0  0
   28.7065  -19.5159  -13.1514 C   0  0  0  0  0  0  0  0  0  0  0  0
   29.8241  -20.2307  -12.4620 C   0  0  0  0  0  0  0  0  0  0  0  0
   29.3917  -21.7083  -12.4852 C   0  0  0  0  0  0  0  0  0  0  0  0
   27.8970  -21.5615  -12.3717 C   0  0  1  0  0  0  0  0  0  0  0  0
   27.3903  -21.6396  -10.9997 C   0  0  0  0  0  0  0  0  0  0  0  0
   27.1313  -22.8052  -10.5963 O   0  0  0  0  0  0  0  0  0  0  0  0
   29.1830  -19.7275   -4.5959 C   0  0  0  0  0  0  0  0  0  0  0  0
   27.9051  -18.7034   -5.3274 S   0  0  0  0  0  0  0  0  0  0  0  0
   26.8593  -19.6502   -6.4677 C   0  0  0  0  0  0  0  0  0  0  0  0
   27.3846  -19.5627   -7.8762 C   0  0  0  0  0  0  0  0  0  0  0  0
   26.7202  -20.6159   -8.7616 C   0  0  2  0  0  0  0  0  0  0  0  0
   27.1758  -20.5688  -10.1294 N   0  0  0  0  0  0  0  0  0  0  0  0
   25.2694  -20.4142   -8.6517 C   0  0  0  0  0  0  0  0  0  0  0  0
   24.6223  -19.7784   -9.5311 O   0  0  0  0  0  0  0  0  0  0  0  0
   24.5908  -20.9393   -7.5469 O   0  0  0  0  0  0  0  0  0  0  0  0
  1  2  1  0
  2  3  1  0
  4  3  1  0
  5  4  1  0
  5  1  1  0
  5  6  1  1
  6  7  2  0
  8  6  1  0
  9  8  1  0
 10 11  1  0
 10  9  1  0
 11 12  1  0
 12  8  1  0
 12 13  1  1
 13 20  1  0
 14 13  2  0
 16 17  1  0
 16 15  1  0
 18 17  1  0
 19 18  1  1
 19 21  1  0
 20 19  1  0
 21 22  2  0
 21 23  1  0
M  END
$$$$
