PPM.pdb
     RDKit          3D

 23 24  0  0  1  0  0  0  0  0999 V2000
   26.0939  -19.5413  -14.8584 N   0  0  0  0  0  0  0  0  0  0  0  0
   26.3215  -18.3783  -15.6858 C   0  0  0  0  0  0  0  0  0  0  0  0
   26.9772  -17.4452  -14.6611 C   0  0  0  0  0  0  0  0  0  0  0  0
   27.9121  -18.4251  -13.9603 C   0  0  0  0  0  0  0  0  0  0  0  0
   27.4372  -19.8116  -14.3284 C   0  0  1  0  0  0  0  0  0  0  0  0
   27.3564  -20.7319  -13.1953 C   0  0  0  0  0  0  0  0  0  0  0  0
   26.2634  -21.2367  -12.8852 O   0  0  0  0  0  0  0  0  0  0  0  0
   28.5067  -21.0723  -12.4270 N   0  0  0  0  0  0  0  0  0  0  0  0
   29.8199  -20.6601  -12.8426 C   0  0  0  0  0  0  0  0  0  0  0  0
   30.7845  -21.3069  -11.9011 C   0  0  0  0  0  0  0  0  0  0  0  0
   29.9708  -22.4446  -11.2575 C   0  0  0  0  0  0  0  0  0  0  0  0
   28.5996  -21.8223  -11.2277 C   0  0  1  0  0  0  0  0  0  0  0  0
   28.2766  -21.1456   -9.9695 C   0  0  0  0  0  0  0  0  0  0  0  0
   29.2733  -20.7213   -9.3252 O   0  0  0  0  0  0  0  0  0  0  0  0
   29.2549  -19.8412   -3.9864 C   0  0  0  0  0  0  0  0  0  0  0  0
   27.9549  -18.8682   -4.7481 S   0  0  0  0  0  0  0  0  0  0  0  0
   26.8876  -19.8864   -5.8037 C   0  0  0  0  0  0  0  0  0  0  0  0
   27.4208  -19.9431   -7.2108 C   0  0  0  0  0  0  0  0  0  0  0  0
   26.6092  -20.9278   -8.0514 C   0  0  2  0  0  0  0  0  0  0  0  0
   27.0013  -20.9379   -9.4396 N   0  0  0  0  0  0  0  0  0  0  0  0
   25.1941  -20.5756   -7.8761 C   0  0  0  0  0  0  0  0  0  0  0  0
   24.4895  -20.1699   -8.8432 O   0  0  0  0  0  0  0  0  0  0  0  0
   24.6154  -20.6929   -6.6079 O   0  0  0  0  0  0  0  0  0  0  0  0
  1  2  1  0
  2  3  1  0
  4  3  1  0
  5  4  1  0
  5  1  1  0
  5  6  1  1
  6  7  2  0
  8  6  1  0
  9  8  1  0
 10 11  1  0
 10  9  1  0
 11 12  1  0
 12  8  1  0
 12 13  1  1
 13 20  1  0
 14 13  2  0
 16 17  1  0
 16 15  1  0
 18 17  1  0
 19 18  1  1
 19 21  1  0
 20 19  1  0
 21 22  2  0
 21 23  1  0
M  END
$$$$
