PPM.pdb
     RDKit          3D

 23 24  0  0  1  0  0  0  0  0999 V2000
   21.0561  -12.4278  -17.3721 N   0  0  0  0  0  0  0  0  0  0  0  0
   20.4093  -13.1367  -18.4529 C   0  0  0  0  0  0  0  0  0  0  0  0
   19.0308  -12.4663  -18.4253 C   0  0  0  0  0  0  0  0  0  0  0  0
   19.4404  -11.0103  -18.2313 C   0  0  0  0  0  0  0  0  0  0  0  0
   20.8802  -11.0255  -17.7729 C   0  0  1  0  0  0  0  0  0  0  0  0
   21.1527  -10.1398  -16.6420 C   0  0  0  0  0  0  0  0  0  0  0  0
   21.1126  -10.5870  -15.4827 O   0  0  0  0  0  0  0  0  0  0  0  0
   21.4672   -8.7633  -16.8310 N   0  0  0  0  0  0  0  0  0  0  0  0
   21.7424   -8.2429  -18.1427 C   0  0  0  0  0  0  0  0  0  0  0  0
   22.1727   -6.8237  -17.9534 C   0  0  0  0  0  0  0  0  0  0  0  0
   22.5615   -6.7476  -16.4655 C   0  0  0  0  0  0  0  0  0  0  0  0
   21.5814   -7.7253  -15.8724 C   0  0  1  0  0  0  0  0  0  0  0  0
   20.3475   -7.1104  -15.3779 C   0  0  0  0  0  0  0  0  0  0  0  0
   19.3513   -7.2350  -16.1399 O   0  0  0  0  0  0  0  0  0  0  0  0
   16.9497   -8.7365  -10.1813 C   0  0  0  0  0  0  0  0  0  0  0  0
   17.1555   -6.9679   -9.9653 S   0  0  0  0  0  0  0  0  0  0  0  0
   17.4755   -6.1333  -11.5437 C   0  0  0  0  0  0  0  0  0  0  0  0
   18.7463   -6.6415  -12.1718 C   0  0  0  0  0  0  0  0  0  0  0  0
   18.9533   -6.0094  -13.5475 C   0  0  2  0  0  0  0  0  0  0  0  0
   20.1856   -6.4201  -14.1748 N   0  0  0  0  0  0  0  0  0  0  0  0
   18.8804   -4.5538  -13.3653 C   0  0  0  0  0  0  0  0  0  0  0  0
   19.9153   -3.8627  -13.1472 O   0  0  0  0  0  0  0  0  0  0  0  0
   17.6351   -3.9204  -13.4354 O   0  0  0  0  0  0  0  0  0  0  0  0
  1  2  1  0
  2  3  1  0
  4  3  1  0
  5  4  1  0
  5  1  1  0
  5  6  1  1
  6  7  2  0
  8  6  1  0
  9  8  1  0
 10 11  1  0
 10  9  1  0
 11 12  1  0
 12  8  1  0
 12 13  1  6
 13 20  1  0
 14 13  2  0
 16 17  1  0
 16 15  1  0
 18 17  1  0
 19 18  1  1
 19 21  1  0
 20 19  1  0
 21 22  2  0
 21 23  1  0
M  END
$$$$
