PPM.pdb
     RDKit          3D

 23 24  0  0  1  0  0  0  0  0999 V2000
   35.1441  -25.6746  -20.1213 N   0  0  0  0  0  0  0  0  0  0  0  0
   35.8007  -24.6721  -20.9292 C   0  0  0  0  0  0  0  0  0  0  0  0
   34.6036  -23.7770  -21.2701 C   0  0  0  0  0  0  0  0  0  0  0  0
   33.9046  -23.7305  -19.9156 C   0  0  0  0  0  0  0  0  0  0  0  0
   34.4826  -24.8591  -19.0938 C   0  0  1  0  0  0  0  0  0  0  0  0
   33.4789  -25.6542  -18.3881 C   0  0  0  0  0  0  0  0  0  0  0  0
   33.1602  -26.7746  -18.8224 O   0  0  0  0  0  0  0  0  0  0  0  0
   32.8480  -25.1780  -17.2029 N   0  0  0  0  0  0  0  0  0  0  0  0
   33.2389  -23.9277  -16.6106 C   0  0  0  0  0  0  0  0  0  0  0  0
   32.4888  -23.8169  -15.3220 C   0  0  0  0  0  0  0  0  0  0  0  0
   32.0397  -25.2598  -15.0271 C   0  0  0  0  0  0  0  0  0  0  0  0
   31.8232  -25.7742  -16.4259 C   0  0  1  0  0  0  0  0  0  0  0  0
   30.4434  -25.6518  -16.9018 C   0  0  0  0  0  0  0  0  0  0  0  0
   30.2271  -24.6612  -17.6504 O   0  0  0  0  0  0  0  0  0  0  0  0
   26.1389  -30.8902  -17.7893 C   0  0  0  0  0  0  0  0  0  0  0  0
   25.1511  -29.4542  -17.3659 S   0  0  0  0  0  0  0  0  0  0  0  0
   26.0393  -27.9083  -17.7001 C   0  0  0  0  0  0  0  0  0  0  0  0
   27.3080  -27.8327  -16.8926 C   0  0  0  0  0  0  0  0  0  0  0  0
   28.0823  -26.5594  -17.2304 C   0  0  2  0  0  0  0  0  0  0  0  0
   29.3818  -26.5097  -16.6062 N   0  0  0  0  0  0  0  0  0  0  0  0
   27.2340  -25.4259  -16.8393 C   0  0  0  0  0  0  0  0  0  0  0  0
   26.2975  -25.0148  -17.5809 O   0  0  0  0  0  0  0  0  0  0  0  0
   27.4706  -24.7885  -15.6167 O   0  0  0  0  0  0  0  0  0  0  0  0
  1  2  1  0
  2  3  1  0
  4  3  1  0
  5  4  1  0
  5  1  1  0
  5  6  1  6
  6  7  2  0
  8  6  1  0
  9  8  1  0
 10 11  1  0
 10  9  1  0
 11 12  1  0
 12  8  1  0
 12 13  1  6
 13 20  1  0
 14 13  2  0
 16 17  1  0
 16 15  1  0
 18 17  1  0
 19 18  1  1
 19 21  1  0
 20 19  1  0
 21 22  2  0
 21 23  1  0
M  END
$$$$
