PPM.pdb
     RDKit          3D

 23 24  0  0  1  0  0  0  0  0999 V2000
   24.2381  -21.5364  -15.6542 N   0  0  0  0  0  0  0  0  0  0  0  0
   23.3979  -20.5954  -16.3594 C   0  0  0  0  0  0  0  0  0  0  0  0
   23.0309  -19.6503  -15.2093 C   0  0  0  0  0  0  0  0  0  0  0  0
   24.3844  -19.5250  -14.5181 C   0  0  0  0  0  0  0  0  0  0  0  0
   25.2405  -20.6558  -15.0393 C   0  0  1  0  0  0  0  0  0  0  0  0
   25.9725  -21.3750  -13.9979 C   0  0  0  0  0  0  0  0  0  0  0  0
   25.6210  -22.5231  -13.6755 O   0  0  0  0  0  0  0  0  0  0  0  0
   27.0905  -20.7929  -13.3341 N   0  0  0  0  0  0  0  0  0  0  0  0
   27.7307  -19.6179  -13.8598 C   0  0  0  0  0  0  0  0  0  0  0  0
   28.9360  -19.3759  -13.0090 C   0  0  0  0  0  0  0  0  0  0  0  0
   29.1706  -20.7241  -12.3034 C   0  0  0  0  0  0  0  0  0  0  0  0
   27.7525  -21.2080  -12.1514 C   0  0  1  0  0  0  0  0  0  0  0  0
   27.1381  -20.8669  -10.8664 C   0  0  0  0  0  0  0  0  0  0  0  0
   26.1265  -20.1191  -10.9448 O   0  0  0  0  0  0  0  0  0  0  0  0
   29.6351  -18.9623   -5.4106 C   0  0  0  0  0  0  0  0  0  0  0  0
   28.0366  -19.4359   -4.7492 S   0  0  0  0  0  0  0  0  0  0  0  0
   27.0039  -20.2398   -6.0052 C   0  0  0  0  0  0  0  0  0  0  0  0
   27.7662  -20.4218   -7.2910 C   0  0  0  0  0  0  0  0  0  0  0  0
   26.8917  -21.1085   -8.3391 C   0  0  2  0  0  0  0  0  0  0  0  0
   27.5634  -21.2845   -9.6034 N   0  0  0  0  0  0  0  0  0  0  0  0
   25.6674  -20.3071   -8.4669 C   0  0  0  0  0  0  0  0  0  0  0  0
   25.6747  -19.1741   -9.0258 O   0  0  0  0  0  0  0  0  0  0  0  0
   24.4667  -20.8124   -7.9571 O   0  0  0  0  0  0  0  0  0  0  0  0
  1  2  1  0
  2  3  1  0
  4  3  1  0
  5  4  1  0
  5  1  1  0
  5  6  1  1
  6  7  2  0
  8  6  1  0
  9  8  1  0
 10 11  1  0
 10  9  1  0
 11 12  1  0
 12  8  1  0
 12 13  1  1
 13 20  1  0
 14 13  2  0
 16 17  1  0
 16 15  1  0
 18 17  1  0
 19 18  1  1
 19 21  1  0
 20 19  1  0
 21 22  2  0
 21 23  1  0
M  END
$$$$
