PPM.pdb
     RDKit          3D

 23 24  0  0  1  0  0  0  0  0999 V2000
   23.1447  -13.0459  -18.1219 N   0  0  0  0  0  0  0  0  0  0  0  0
   22.6047  -14.0122  -19.0512 C   0  0  0  0  0  0  0  0  0  0  0  0
   21.4262  -14.5453  -18.2281 C   0  0  0  0  0  0  0  0  0  0  0  0
   20.8872  -13.2416  -17.6491 C   0  0  0  0  0  0  0  0  0  0  0  0
   21.9737  -12.2074  -17.8321 C   0  0  1  0  0  0  0  0  0  0  0  0
   22.2205  -11.3893  -16.6458 C   0  0  0  0  0  0  0  0  0  0  0  0
   21.2970  -11.1694  -15.8431 O   0  0  0  0  0  0  0  0  0  0  0  0
   23.5033  -10.8303  -16.3785 N   0  0  0  0  0  0  0  0  0  0  0  0
   24.6568  -11.2360  -17.1346 C   0  0  0  0  0  0  0  0  0  0  0  0
   25.8354  -10.5721  -16.4979 C   0  0  0  0  0  0  0  0  0  0  0  0
   25.3274  -10.1714  -15.1007 C   0  0  0  0  0  0  0  0  0  0  0  0
   23.8834   -9.8714  -15.4061 C   0  0  1  0  0  0  0  0  0  0  0  0
   23.6127   -8.4608  -15.6924 C   0  0  0  0  0  0  0  0  0  0  0  0
   23.8434   -8.1075  -16.8801 O   0  0  0  0  0  0  0  0  0  0  0  0
   17.8782   -3.6928  -16.5576 C   0  0  0  0  0  0  0  0  0  0  0  0
   18.5911   -5.2017  -15.9006 S   0  0  0  0  0  0  0  0  0  0  0  0
   20.3907   -5.0674  -15.7169 C   0  0  0  0  0  0  0  0  0  0  0  0
   20.9892   -6.3887  -15.3127 C   0  0  0  0  0  0  0  0  0  0  0  0
   22.4945   -6.2487  -15.0902 C   0  0  2  0  0  0  0  0  0  0  0  0
   23.1376   -7.5049  -14.7919 N   0  0  0  0  0  0  0  0  0  0  0  0
   22.6789   -5.2615  -14.0183 C   0  0  0  0  0  0  0  0  0  0  0  0
   22.8883   -5.6149  -12.8236 O   0  0  0  0  0  0  0  0  0  0  0  0
   22.6209   -3.8990  -14.3302 O   0  0  0  0  0  0  0  0  0  0  0  0
  1  2  1  0
  2  3  1  0
  4  3  1  0
  5  4  1  0
  5  1  1  0
  5  6  1  1
  6  7  2  0
  8  6  1  0
  9  8  1  0
 10 11  1  0
 10  9  1  0
 11 12  1  0
 12  8  1  0
 12 13  1  6
 13 20  1  0
 14 13  2  0
 16 17  1  0
 16 15  1  0
 18 17  1  0
 19 18  1  1
 19 21  1  0
 20 19  1  0
 21 22  2  0
 21 23  1  0
M  END
$$$$
