MGG.pdb
     RDKit          3D

 17 16  0  0  1  0  0  0  0  0999 V2000
    7.0632  -11.0977   25.3761 C   0  0  0  0  0  0  0  0  0  0  0  0
    7.1463  -12.1179   26.8769 S   0  0  0  0  0  0  0  0  0  0  0  0
    6.6902  -13.8260   26.4854 C   0  0  0  0  0  0  0  0  0  0  0  0
    7.7565  -14.4514   25.6323 C   0  0  0  0  0  0  0  0  0  0  0  0
    7.3995  -15.8604   25.2120 C   0  0  2  0  0  0  0  0  0  0  0  0
    7.2557  -16.7467   26.3338 N   0  0  0  0  0  0  0  0  0  0  0  0
    8.3859  -16.4116   24.2514 C   0  0  0  0  0  0  0  0  0  0  0  0
    9.2907  -17.1663   24.7190 O   0  0  0  0  0  0  0  0  0  0  0  0
    8.3384  -16.1200   22.8638 N   0  0  0  0  0  0  0  0  0  0  0  0
    9.3316  -16.7106   22.0180 C   0  0  0  0  0  0  0  0  0  0  0  0
   10.6333  -16.0306   22.0127 C   0  0  0  0  0  0  0  0  0  0  0  0
   10.8535  -15.2316   21.0390 O   0  0  0  0  0  0  0  0  0  0  0  0
   11.6539  -16.1679   22.9621 N   0  0  0  0  0  0  0  0  0  0  0  0
   12.9510  -15.5140   22.8384 C   0  0  0  0  0  0  0  0  0  0  0  0
   13.7245  -15.7971   24.0680 C   0  0  0  0  0  0  0  0  0  0  0  0
   13.2353  -16.5513   24.9360 O   0  0  0  0  0  0  0  0  0  0  0  0
   14.9910  -15.2315   24.2663 O   0  0  0  0  0  0  0  0  0  0  0  0
  1  2  1  0
  2  3  1  0
  4  3  1  0
  5  4  1  0
  5  6  1  1
  7  9  1  0
  7  5  1  0
  8  7  2  0
 10 11  1  0
 10  9  1  0
 11 13  1  0
 12 11  2  0
 13 14  1  0
 14 15  1  0
 15 16  2  0
 15 17  1  0
M  END
$$$$
