MGG.pdb
     RDKit          3D

 17 16  0  0  1  0  0  0  0  0999 V2000
    6.5399  -11.0718   26.7826 C   0  0  0  0  0  0  0  0  0  0  0  0
    6.6258  -12.4766   25.6340 S   0  0  0  0  0  0  0  0  0  0  0  0
    6.5914  -14.0319   26.5607 C   0  0  0  0  0  0  0  0  0  0  0  0
    6.7115  -15.1893   25.6111 C   0  0  0  0  0  0  0  0  0  0  0  0
    7.9976  -15.1448   24.8151 C   0  0  2  0  0  0  0  0  0  0  0  0
    8.0673  -13.9992   23.9506 N   0  0  0  0  0  0  0  0  0  0  0  0
    8.1988  -16.3872   24.0304 C   0  0  0  0  0  0  0  0  0  0  0  0
    8.5919  -17.4138   24.6617 O   0  0  0  0  0  0  0  0  0  0  0  0
    7.9674  -16.4473   22.6321 N   0  0  0  0  0  0  0  0  0  0  0  0
    9.0353  -16.0676   21.7568 C   0  0  0  0  0  0  0  0  0  0  0  0
   10.3701  -16.5258   22.1631 C   0  0  0  0  0  0  0  0  0  0  0  0
   10.8761  -15.9614   23.1928 O   0  0  0  0  0  0  0  0  0  0  0  0
   11.1420  -17.5145   21.5397 N   0  0  0  0  0  0  0  0  0  0  0  0
   12.5416  -17.7575   21.8671 C   0  0  0  0  0  0  0  0  0  0  0  0
   13.0470  -18.8113   20.9591 C   0  0  0  0  0  0  0  0  0  0  0  0
   13.0663  -19.9973   21.3522 O   0  0  0  0  0  0  0  0  0  0  0  0
   13.5006  -18.4937   19.6719 O   0  0  0  0  0  0  0  0  0  0  0  0
  1  2  1  0
  2  3  1  0
  4  3  1  0
  5  4  1  0
  5  6  1  6
  7  9  1  0
  7  5  1  0
  8  7  2  0
 10 11  1  0
 10  9  1  0
 11 13  1  0
 12 11  2  0
 13 14  1  0
 14 15  1  0
 15 16  2  0
 15 17  1  0
M  END
$$$$
