MGG.pdb
     RDKit          3D

 17 16  0  0  1  0  0  0  0  0999 V2000
    5.7793  -11.5281   27.7198 C   0  0  0  0  0  0  0  0  0  0  0  0
    7.2005  -12.0402   26.7108 S   0  0  0  0  0  0  0  0  0  0  0  0
    6.7566  -13.4828   25.7104 C   0  0  0  0  0  0  0  0  0  0  0  0
    7.9053  -13.8504   24.8153 C   0  0  0  0  0  0  0  0  0  0  0  0
    7.6072  -15.0732   23.9753 C   0  0  2  0  0  0  0  0  0  0  0  0
    7.4174  -16.2528   24.7735 N   0  0  0  0  0  0  0  0  0  0  0  0
    8.6622  -15.3103   22.9601 C   0  0  0  0  0  0  0  0  0  0  0  0
    8.8699  -14.3891   22.1145 O   0  0  0  0  0  0  0  0  0  0  0  0
    9.4191  -16.5094   22.9183 N   0  0  0  0  0  0  0  0  0  0  0  0
   10.4571  -16.6156   21.9376 C   0  0  0  0  0  0  0  0  0  0  0  0
   11.8029  -16.2669   22.4108 C   0  0  0  0  0  0  0  0  0  0  0  0
   12.7628  -16.4602   21.5884 O   0  0  0  0  0  0  0  0  0  0  0  0
   12.1405  -15.7463   23.6665 N   0  0  0  0  0  0  0  0  0  0  0  0
   13.5056  -15.4041   24.0469 C   0  0  0  0  0  0  0  0  0  0  0  0
   14.0456  -16.5163   24.8604 C   0  0  0  0  0  0  0  0  0  0  0  0
   13.5207  -17.6469   24.7726 O   0  0  0  0  0  0  0  0  0  0  0  0
   15.1322  -16.3147   25.7218 O   0  0  0  0  0  0  0  0  0  0  0  0
  1  2  1  0
  2  3  1  0
  4  3  1  0
  5  4  1  0
  5  6  1  1
  7  9  1  0
  7  5  1  0
  8  7  2  0
 10 11  1  0
 10  9  1  0
 11 13  1  0
 12 11  2  0
 13 14  1  0
 14 15  1  0
 15 16  2  0
 15 17  1  0
M  END
$$$$
