MGG.pdb
     RDKit          3D

 17 16  0  0  1  0  0  0  0  0999 V2000
    9.7562  -13.2857   29.4966 C   0  0  0  0  0  0  0  0  0  0  0  0
    9.4262  -13.3580   27.7117 S   0  0  0  0  0  0  0  0  0  0  0  0
    7.9300  -14.3297   27.4017 C   0  0  0  0  0  0  0  0  0  0  0  0
    7.6276  -14.3375   25.9305 C   0  0  0  0  0  0  0  0  0  0  0  0
    8.3483  -15.4524   25.2045 C   0  0  2  0  0  0  0  0  0  0  0  0
    9.7549  -15.4770   25.4970 N   0  0  0  0  0  0  0  0  0  0  0  0
    8.1348  -15.3786   23.7386 C   0  0  0  0  0  0  0  0  0  0  0  0
    6.9615  -15.5986   23.3123 O   0  0  0  0  0  0  0  0  0  0  0  0
    9.1843  -15.0764   22.8333 N   0  0  0  0  0  0  0  0  0  0  0  0
    9.0402  -15.4968   21.4720 C   0  0  0  0  0  0  0  0  0  0  0  0
   10.0075  -16.5065   21.0234 C   0  0  0  0  0  0  0  0  0  0  0  0
   10.1856  -16.6021   19.7608 O   0  0  0  0  0  0  0  0  0  0  0  0
   10.7519  -17.3721   21.8349 N   0  0  0  0  0  0  0  0  0  0  0  0
   11.8141  -18.2291   21.3225 C   0  0  0  0  0  0  0  0  0  0  0  0
   13.0904  -17.7855   21.9263 C   0  0  0  0  0  0  0  0  0  0  0  0
   13.2338  -16.5829   22.2345 O   0  0  0  0  0  0  0  0  0  0  0  0
   14.1319  -18.6948   22.1540 O   0  0  0  0  0  0  0  0  0  0  0  0
  1  2  1  0
  2  3  1  0
  4  3  1  0
  5  4  1  0
  5  6  1  6
  7  9  1  0
  7  5  1  0
  8  7  2  0
 10 11  1  0
 10  9  1  0
 11 13  1  0
 12 11  2  0
 13 14  1  0
 14 15  1  0
 15 16  2  0
 15 17  1  0
M  END
$$$$
