MGG.pdb
     RDKit          3D

 17 16  0  0  1  0  0  0  0  0999 V2000
    9.3886  -12.9755   28.7523 C   0  0  0  0  0  0  0  0  0  0  0  0
   10.5021  -14.2220   29.4638 S   0  0  0  0  0  0  0  0  0  0  0  0
   10.1256  -15.8512   28.7689 C   0  0  0  0  0  0  0  0  0  0  0  0
    9.6917  -15.7031   27.3387 C   0  0  0  0  0  0  0  0  0  0  0  0
    9.5657  -17.0383   26.6381 C   0  0  2  0  0  0  0  0  0  0  0  0
   10.6361  -17.9361   26.9738 N   0  0  0  0  0  0  0  0  0  0  0  0
    9.4790  -16.8780   25.1661 C   0  0  0  0  0  0  0  0  0  0  0  0
    8.6826  -15.9957   24.7254 O   0  0  0  0  0  0  0  0  0  0  0  0
   10.2453  -17.6674   24.2705 N   0  0  0  0  0  0  0  0  0  0  0  0
   10.2189  -17.3245   22.8804 C   0  0  0  0  0  0  0  0  0  0  0  0
   11.4048  -16.6108   22.3896 C   0  0  0  0  0  0  0  0  0  0  0  0
   11.5685  -16.5846   21.1217 O   0  0  0  0  0  0  0  0  0  0  0  0
   12.3709  -15.9585   23.1661 N   0  0  0  0  0  0  0  0  0  0  0  0
   13.6109  -15.4263   22.6143 C   0  0  0  0  0  0  0  0  0  0  0  0
   14.7397  -16.0750   23.3181 C   0  0  0  0  0  0  0  0  0  0  0  0
   14.5019  -16.8365   24.2799 O   0  0  0  0  0  0  0  0  0  0  0  0
   16.0629  -15.8449   22.9187 O   0  0  0  0  0  0  0  0  0  0  0  0
  1  2  1  0
  2  3  1  0
  4  3  1  0
  5  4  1  0
  5  6  1  6
  7  9  1  0
  7  5  1  0
  8  7  2  0
 10 11  1  0
 10  9  1  0
 11 13  1  0
 12 11  2  0
 13 14  1  0
 14 15  1  0
 15 16  2  0
 15 17  1  0
M  END
$$$$
