MGG.pdb
     RDKit          3D

 17 16  0  0  1  0  0  0  0  0999 V2000
    5.7132  -11.4684   26.3496 C   0  0  0  0  0  0  0  0  0  0  0  0
    6.8514  -12.1538   27.5884 S   0  0  0  0  0  0  0  0  0  0  0  0
    7.4915  -13.7493   27.0193 C   0  0  0  0  0  0  0  0  0  0  0  0
    6.5355  -14.3547   26.0317 C   0  0  0  0  0  0  0  0  0  0  0  0
    7.0406  -15.6696   25.4790 C   0  0  2  0  0  0  0  0  0  0  0  0
    8.0312  -16.2751   26.3256 N   0  0  0  0  0  0  0  0  0  0  0  0
    7.5722  -15.5167   24.1029 C   0  0  0  0  0  0  0  0  0  0  0  0
    6.8164  -14.9649   23.2478 O   0  0  0  0  0  0  0  0  0  0  0  0
    8.8685  -15.9616   23.7365 N   0  0  0  0  0  0  0  0  0  0  0  0
    9.3312  -15.6685   22.4134 C   0  0  0  0  0  0  0  0  0  0  0  0
   10.6302  -16.2557   22.0605 C   0  0  0  0  0  0  0  0  0  0  0  0
   11.0973  -15.9528   20.9094 O   0  0  0  0  0  0  0  0  0  0  0  0
   11.4063  -17.1103   22.8538 N   0  0  0  0  0  0  0  0  0  0  0  0
   12.7927  -17.4414   22.5482 C   0  0  0  0  0  0  0  0  0  0  0  0
   13.6622  -16.5350   23.3310 C   0  0  0  0  0  0  0  0  0  0  0  0
   14.1120  -15.5028   22.7889 O   0  0  0  0  0  0  0  0  0  0  0  0
   13.9832  -16.8214   24.6645 O   0  0  0  0  0  0  0  0  0  0  0  0
  1  2  1  0
  2  3  1  0
  4  3  1  0
  5  4  1  0
  5  6  1  1
  7  9  1  0
  7  5  1  0
  8  7  2  0
 10 11  1  0
 10  9  1  0
 11 13  1  0
 12 11  2  0
 13 14  1  0
 14 15  1  0
 15 16  2  0
 15 17  1  0
M  END
$$$$
