MGG.pdb
     RDKit          3D

 17 16  0  0  1  0  0  0  0  0999 V2000
    5.4261  -11.2879   27.2783 C   0  0  0  0  0  0  0  0  0  0  0  0
    6.9412  -12.1267   26.7296 S   0  0  0  0  0  0  0  0  0  0  0  0
    6.5294  -13.7466   26.0328 C   0  0  0  0  0  0  0  0  0  0  0  0
    7.6650  -14.2333   25.1788 C   0  0  0  0  0  0  0  0  0  0  0  0
    7.3361  -15.5323   24.4759 C   0  0  2  0  0  0  0  0  0  0  0  0
    6.8985  -16.5529   25.3878 N   0  0  0  0  0  0  0  0  0  0  0  0
    8.4813  -16.0250   23.6724 C   0  0  0  0  0  0  0  0  0  0  0  0
    8.9406  -17.1708   23.9605 O   0  0  0  0  0  0  0  0  0  0  0  0
    9.0542  -15.2636   22.6215 N   0  0  0  0  0  0  0  0  0  0  0  0
    9.8816  -15.9444   21.6714 C   0  0  0  0  0  0  0  0  0  0  0  0
   11.1673  -16.4256   22.1930 C   0  0  0  0  0  0  0  0  0  0  0  0
   11.8936  -17.0981   21.3836 O   0  0  0  0  0  0  0  0  0  0  0  0
   11.6767  -16.2236   23.4821 N   0  0  0  0  0  0  0  0  0  0  0  0
   12.8234  -16.9530   24.0095 C   0  0  0  0  0  0  0  0  0  0  0  0
   13.9947  -16.0490   23.9760 C   0  0  0  0  0  0  0  0  0  0  0  0
   13.8859  -14.9300   23.4304 O   0  0  0  0  0  0  0  0  0  0  0  0
   15.2156  -16.4334   24.5461 O   0  0  0  0  0  0  0  0  0  0  0  0
  1  2  1  0
  2  3  1  0
  4  3  1  0
  5  4  1  0
  5  6  1  1
  7  9  1  0
  7  5  1  0
  8  7  2  0
 10 11  1  0
 10  9  1  0
 11 13  1  0
 12 11  2  0
 13 14  1  0
 14 15  1  0
 15 16  2  0
 15 17  1  0
M  END
$$$$
