RQW.pdb
     RDKit          3D

 35 36  0  0  1  0  0  0  0  0999 V2000
    7.7897  -13.0532   18.0766 N   0  0  0  0  0  0  0  0  0  0  0  0
    7.9417  -12.5502   19.3865 C   0  0  0  0  0  0  0  0  0  0  0  0
    8.2636  -11.2941   19.5533 N   0  0  0  0  0  0  0  0  0  0  0  0
    7.7667  -13.3304   20.5521 N   0  0  0  0  0  0  0  0  0  0  0  0
    7.3640  -14.7029   20.5493 C   0  0  0  0  0  0  0  0  0  0  0  0
    7.2234  -15.3243   21.9109 C   0  0  0  0  0  0  0  0  0  0  0  0
    6.7953  -16.7591   21.8804 C   0  0  0  0  0  0  0  0  0  0  0  0
    7.9140  -17.7120   21.4961 C   0  0  2  0  0  0  0  0  0  0  0  0
    7.3029  -19.0576   21.3271 N   0  0  0  0  0  0  0  0  0  0  0  0
    8.9562  -17.8564   22.5132 C   0  0  0  0  0  0  0  0  0  0  0  0
    8.7566  -18.7172   23.4370 O   0  0  0  0  0  0  0  0  0  0  0  0
    8.4301  -10.9203   20.5045 N   0  0  0  0  0  0  0  0  0  0  0  0
   14.7496  -16.8967   21.8334 C   0  0  0  0  0  0  0  0  0  0  0  0
   14.8284  -16.8256   23.2366 O   0  0  0  0  0  0  0  0  0  0  0  0
   15.9346  -16.6556   23.7915 C   0  0  0  0  0  0  0  0  0  0  0  0
   13.5827  -16.9539   24.0739 C   0  0  0  0  0  0  0  0  0  0  0  0
   12.3757  -16.6028   23.2805 C   0  0  2  0  0  0  0  0  0  0  0  0
   11.1673  -17.4873   23.5277 N   0  0  0  0  0  0  0  0  0  0  0  0
   10.1856  -17.1109   22.5538 C   0  0  0  0  0  0  0  0  0  0  0  0
   10.7064  -17.4096   24.9332 O   0  0  0  0  0  0  0  0  0  0  0  0
   10.4870  -18.5085   25.5197 N   0  0  0  0  0  0  0  0  0  0  0  0
   10.4987  -16.2365   25.6521 C   0  0  2  0  0  0  0  0  0  0  0  0
   10.2108  -16.0730   27.0169 C   0  0  0  0  0  0  0  0  0  0  0  0
    8.7944  -16.3738   27.4731 C   0  0  0  0  0  0  0  0  0  0  0  0
    7.8038  -15.6317   26.6630 C   0  0  0  0  0  0  0  0  0  0  0  0
    6.8418  -16.1362   25.8024 N   0  0  0  0  0  0  0  0  0  0  0  0
    6.1640  -15.1107   25.2587 C   0  0  0  0  0  0  0  0  0  0  0  0
    6.6545  -13.9290   25.7393 C   0  0  0  0  0  0  0  0  0  0  0  0
    6.2873  -12.6279   25.4765 C   0  0  0  0  0  0  0  0  0  0  0  0
    6.9471  -11.5883   26.0948 C   0  0  0  0  0  0  0  0  0  0  0  0
    7.9638  -11.8863   26.9657 C   0  0  0  0  0  0  0  0  0  0  0  0
    8.3170  -13.1857   27.2171 C   0  0  0  0  0  0  0  0  0  0  0  0
    7.6751  -14.2685   26.6126 C   0  0  0  0  0  0  0  0  0  0  0  0
   11.1474  -16.7230   27.9250 O   0  0  0  0  0  0  0  0  0  0  0  0
   10.9483  -16.6534   29.3014 O   0  0  0  0  0  0  0  0  0  0  0  0
  2  1  1  0
  3  2  2  0
  4  2  1  0
  5  4  1  0
  6  5  1  0
  7  6  1  0
  8  9  1  1
  8 10  1  0
  8  7  1  0
 10 18  1  0
 10 11  2  0
 13 12  1  0
 13 14  2  0
 15 16  1  0
 15 13  1  0
 17 16  1  6
 17 19  1  0
 18 17  1  0
 19 20  2  0
 19 21  1  0
 21 22  1  0
 22 33  1  0
 22 23  1  6
 24 25  2  0
 24 23  1  0
 26 25  1  0
 27 32  2  0
 27 26  1  0
 28 27  1  0
 29 30  1  0
 29 28  2  0
 30 31  2  0
 31 32  1  0
 32 24  1  0
 33 34  1  0
 35 33  2  0
M  END
$$$$
