RQW.pdb
     RDKit          3D

 35 36  0  0  1  0  0  0  0  0999 V2000
    5.5285  -20.3961   24.3052 N   0  0  0  0  0  0  0  0  0  0  0  0
    4.9834  -21.6210   23.8642 C   0  0  0  0  0  0  0  0  0  0  0  0
    3.7396  -21.9046   24.1500 N   0  0  0  0  0  0  0  0  0  0  0  0
    5.7081  -22.5803   23.1209 N   0  0  0  0  0  0  0  0  0  0  0  0
    7.0614  -22.4103   22.6899 C   0  0  0  0  0  0  0  0  0  0  0  0
    7.2427  -21.4758   21.5263 C   0  0  0  0  0  0  0  0  0  0  0  0
    7.7965  -20.1371   21.9055 C   0  0  0  0  0  0  0  0  0  0  0  0
    7.8223  -19.1487   20.7523 C   0  0  2  0  0  0  0  0  0  0  0  0
    8.5000  -19.8239   19.6134 N   0  0  0  0  0  0  0  0  0  0  0  0
    8.5850  -17.9295   21.0230 C   0  0  0  0  0  0  0  0  0  0  0  0
    9.8274  -18.0644   21.2921 O   0  0  0  0  0  0  0  0  0  0  0  0
    3.3631  -22.8500   23.9589 N   0  0  0  0  0  0  0  0  0  0  0  0
    7.8151  -11.9834   19.2788 C   0  0  0  0  0  0  0  0  0  0  0  0
    7.9716  -13.1621   18.5262 O   0  0  0  0  0  0  0  0  0  0  0  0
    7.6891  -13.1675   17.3094 C   0  0  0  0  0  0  0  0  0  0  0  0
    8.4791  -14.4195   19.1825 C   0  0  0  0  0  0  0  0  0  0  0  0
    8.4478  -14.2910   20.6631 C   0  0  2  0  0  0  0  0  0  0  0  0
    8.9054  -15.5229   21.4226 N   0  0  0  0  0  0  0  0  0  0  0  0
    8.0497  -16.5945   21.0068 C   0  0  0  0  0  0  0  0  0  0  0  0
    8.9372  -15.2878   22.8847 O   0  0  0  0  0  0  0  0  0  0  0  0
    8.0708  -14.4927   23.3502 N   0  0  0  0  0  0  0  0  0  0  0  0
    9.8342  -15.8667   23.7772 C   0  0  1  0  0  0  0  0  0  0  0  0
    9.9343  -15.6972   25.1677 C   0  0  0  0  0  0  0  0  0  0  0  0
    8.8809  -16.3680   26.0310 C   0  0  0  0  0  0  0  0  0  0  0  0
    7.5901  -15.6496   25.9529 C   0  0  0  0  0  0  0  0  0  0  0  0
    6.3518  -16.1403   25.5703 N   0  0  0  0  0  0  0  0  0  0  0  0
    5.4521  -15.1434   25.6287 C   0  0  0  0  0  0  0  0  0  0  0  0
    6.0651  -13.9944   26.0433 C   0  0  0  0  0  0  0  0  0  0  0  0
    5.5620  -12.7293   26.2503 C   0  0  0  0  0  0  0  0  0  0  0  0
    6.3960  -11.7178   26.6745 C   0  0  0  0  0  0  0  0  0  0  0  0
    7.7207  -12.0072   26.8806 C   0  0  0  0  0  0  0  0  0  0  0  0
    8.2059  -13.2708   26.6708 C   0  0  0  0  0  0  0  0  0  0  0  0
    7.3962  -14.3243   26.2414 C   0  0  0  0  0  0  0  0  0  0  0  0
   11.2508  -15.9753   25.7277 O   0  0  0  0  0  0  0  0  0  0  0  0
   12.2946  -16.3712   24.8954 O   0  0  0  0  0  0  0  0  0  0  0  0
  2  1  1  0
  3  2  2  0
  4  2  1  0
  5  4  1  0
  6  5  1  0
  7  6  1  0
  8  9  1  6
  8 10  1  0
  8  7  1  0
 10 18  1  0
 10 11  2  0
 13 12  1  0
 13 14  2  0
 15 16  1  0
 15 13  1  0
 17 16  1  6
 17 19  1  0
 18 17  1  0
 19 20  2  0
 19 21  1  0
 21 22  1  0
 22 33  1  0
 22 23  1  1
 24 25  2  0
 24 23  1  0
 26 25  1  0
 27 32  2  0
 27 26  1  0
 28 27  1  0
 29 30  1  0
 29 28  2  0
 30 31  2  0
 31 32  1  0
 32 24  1  0
 33 34  1  0
 35 33  2  0
M  END
$$$$
