RQW.pdb
     RDKit          3D

 35 36  0  0  1  0  0  0  0  0999 V2000
    8.3304  -13.5512   16.9192 N   0  0  0  0  0  0  0  0  0  0  0  0
    9.2719  -13.2109   17.9141 C   0  0  0  0  0  0  0  0  0  0  0  0
   10.5473  -13.3226   17.6494 N   0  0  0  0  0  0  0  0  0  0  0  0
    8.9198  -12.7495   19.2030 N   0  0  0  0  0  0  0  0  0  0  0  0
    7.5959  -12.7999   19.7423 C   0  0  0  0  0  0  0  0  0  0  0  0
    7.0089  -14.1795   19.8519 C   0  0  0  0  0  0  0  0  0  0  0  0
    7.4408  -14.9258   21.0764 C   0  0  0  0  0  0  0  0  0  0  0  0
    7.8042  -16.3745   20.8004 C   0  0  2  0  0  0  0  0  0  0  0  0
    6.5303  -17.1394   20.7340 N   0  0  0  0  0  0  0  0  0  0  0  0
    8.6088  -17.0024   21.8493 C   0  0  0  0  0  0  0  0  0  0  0  0
    8.0030  -17.3576   22.9175 O   0  0  0  0  0  0  0  0  0  0  0  0
   11.2508  -13.1439   18.3879 N   0  0  0  0  0  0  0  0  0  0  0  0
   12.5352  -20.7585   22.4007 C   0  0  0  0  0  0  0  0  0  0  0  0
   13.1710  -20.0761   23.4544 O   0  0  0  0  0  0  0  0  0  0  0  0
   13.9123  -20.6991   24.2437 C   0  0  0  0  0  0  0  0  0  0  0  0
   12.9613  -18.5953   23.6352 C   0  0  0  0  0  0  0  0  0  0  0  0
   12.1093  -18.0468   22.5476 C   0  0  2  0  0  0  0  0  0  0  0  0
   10.6928  -17.6916   22.9612 N   0  0  0  0  0  0  0  0  0  0  0  0
   10.0229  -17.2539   21.7723 C   0  0  0  0  0  0  0  0  0  0  0  0
   10.6729  -16.7177   24.0770 O   0  0  0  0  0  0  0  0  0  0  0  0
   11.2360  -15.6046   23.8684 N   0  0  0  0  0  0  0  0  0  0  0  0
   10.0895  -16.9275   25.3227 C   0  0  1  0  0  0  0  0  0  0  0  0
   10.4066  -16.3422   26.5594 C   0  0  0  0  0  0  0  0  0  0  0  0
    9.9170  -14.9270   26.8087 C   0  0  0  0  0  0  0  0  0  0  0  0
    8.5418  -14.7398   26.2966 C   0  0  0  0  0  0  0  0  0  0  0  0
    7.6278  -15.7058   25.9066 N   0  0  0  0  0  0  0  0  0  0  0  0
    6.5032  -15.0980   25.4917 C   0  0  0  0  0  0  0  0  0  0  0  0
    6.6472  -13.7429   25.5966 C   0  0  0  0  0  0  0  0  0  0  0  0
    5.7778  -12.7186   25.2943 C   0  0  0  0  0  0  0  0  0  0  0  0
    6.1622  -11.4098   25.4881 C   0  0  0  0  0  0  0  0  0  0  0  0
    7.4173  -11.1646   25.9838 C   0  0  0  0  0  0  0  0  0  0  0  0
    8.2705  -12.1943   26.2801 C   0  0  0  0  0  0  0  0  0  0  0  0
    7.9215  -13.5342   26.0990 C   0  0  0  0  0  0  0  0  0  0  0  0
   10.0968  -17.1611   27.7246 O   0  0  0  0  0  0  0  0  0  0  0  0
    9.5242  -18.4199   27.5614 O   0  0  0  0  0  0  0  0  0  0  0  0
  2  1  1  0
  3  2  2  0
  4  2  1  0
  5  4  1  0
  6  5  1  0
  7  6  1  0
  8  9  1  1
  8 10  1  0
  8  7  1  0
 10 18  1  0
 10 11  2  0
 13 12  1  0
 13 14  2  0
 15 16  1  0
 15 13  1  0
 17 16  1  6
 17 19  1  0
 18 17  1  0
 19 20  2  0
 19 21  1  0
 21 22  1  0
 22 33  1  0
 22 23  1  1
 24 25  2  0
 24 23  1  0
 26 25  1  0
 27 32  2  0
 27 26  1  0
 28 27  1  0
 29 30  1  0
 29 28  2  0
 30 31  2  0
 31 32  1  0
 32 24  1  0
 33 34  1  0
 35 33  2  0
M  END
$$$$
