RQW.pdb
     RDKit          3D

 35 36  0  0  1  0  0  0  0  0999 V2000
   17.1048  -20.7573   18.4610 N   0  0  0  0  0  0  0  0  0  0  0  0
   16.9134  -19.7212   17.5218 C   0  0  0  0  0  0  0  0  0  0  0  0
   17.6523  -19.6940   16.4436 N   0  0  0  0  0  0  0  0  0  0  0  0
   15.9581  -18.6905   17.6739 N   0  0  0  0  0  0  0  0  0  0  0  0
   15.0531  -18.5880   18.7768 C   0  0  0  0  0  0  0  0  0  0  0  0
   14.0854  -19.7307   18.9102 C   0  0  0  0  0  0  0  0  0  0  0  0
   13.0806  -19.5485   20.0056 C   0  0  0  0  0  0  0  0  0  0  0  0
   11.7921  -18.8950   19.5367 C   0  0  2  0  0  0  0  0  0  0  0  0
   12.1236  -18.0928   18.3288 N   0  0  0  0  0  0  0  0  0  0  0  0
   11.2042  -17.9652   20.5018 C   0  0  0  0  0  0  0  0  0  0  0  0
   11.8964  -16.9391   20.8216 O   0  0  0  0  0  0  0  0  0  0  0  0
   17.5453  -18.9261   15.7573 N   0  0  0  0  0  0  0  0  0  0  0  0
    5.2571  -16.7572   21.7395 C   0  0  0  0  0  0  0  0  0  0  0  0
    5.9979  -16.4731   20.5773 O   0  0  0  0  0  0  0  0  0  0  0  0
    5.4073  -16.1574   19.5227 C   0  0  0  0  0  0  0  0  0  0  0  0
    7.5023  -16.5481   20.5992 C   0  0  0  0  0  0  0  0  0  0  0  0
    7.9882  -17.0058   21.9273 C   0  0  2  0  0  0  0  0  0  0  0  0
    9.4968  -17.1133   22.0552 N   0  0  0  0  0  0  0  0  0  0  0  0
    9.9113  -18.1120   21.1147 C   0  0  0  0  0  0  0  0  0  0  0  0
    9.9140  -17.3685   23.4533 O   0  0  0  0  0  0  0  0  0  0  0  0
   10.2406  -18.5562   23.7399 N   0  0  0  0  0  0  0  0  0  0  0  0
    9.9753  -16.4154   24.4653 C   0  0  2  0  0  0  0  0  0  0  0  0
   10.1427  -16.6003   25.8474 C   0  0  0  0  0  0  0  0  0  0  0  0
    9.8005  -15.4325   26.7551 C   0  0  0  0  0  0  0  0  0  0  0  0
    8.4192  -14.9590   26.5179 C   0  0  0  0  0  0  0  0  0  0  0  0
    7.2719  -15.7106   26.3196 N   0  0  0  0  0  0  0  0  0  0  0  0
    6.2347  -14.8780   26.1262 C   0  0  0  0  0  0  0  0  0  0  0  0
    6.6663  -13.5829   26.1911 C   0  0  0  0  0  0  0  0  0  0  0  0
    5.9797  -12.3968   26.0555 C   0  0  0  0  0  0  0  0  0  0  0  0
    6.6499  -11.1976   26.1615 C   0  0  0  0  0  0  0  0  0  0  0  0
    7.9998  -11.2233   26.4027 C   0  0  0  0  0  0  0  0  0  0  0  0
    8.6685  -12.4113   26.5356 C   0  0  0  0  0  0  0  0  0  0  0  0
    8.0285  -13.6483   26.4355 C   0  0  0  0  0  0  0  0  0  0  0  0
    9.5326  -17.8102   26.3842 O   0  0  0  0  0  0  0  0  0  0  0  0
    9.9145  -18.2896   27.6345 O   0  0  0  0  0  0  0  0  0  0  0  0
  2  1  1  0
  3  2  2  0
  4  2  1  0
  5  4  1  0
  6  5  1  0
  7  6  1  0
  8  9  1  6
  8 10  1  0
  8  7  1  0
 10 18  1  0
 10 11  2  0
 13 12  1  0
 13 14  2  0
 15 16  1  0
 15 13  1  0
 17 16  1  6
 17 19  1  0
 18 17  1  0
 19 20  2  0
 19 21  1  0
 21 22  1  0
 22 33  1  0
 22 23  1  6
 24 25  2  0
 24 23  1  0
 26 25  1  0
 27 32  2  0
 27 26  1  0
 28 27  1  0
 29 30  1  0
 29 28  2  0
 30 31  2  0
 31 32  1  0
 32 24  1  0
 33 34  1  0
 35 33  2  0
M  END
$$$$
