RQW.pdb
     RDKit          3D

 35 36  0  0  1  0  0  0  0  0999 V2000
    8.1673  -13.0168   16.6867 N   0  0  0  0  0  0  0  0  0  0  0  0
    8.3277  -13.9488   17.7345 C   0  0  0  0  0  0  0  0  0  0  0  0
    9.2439  -14.8753   17.6284 N   0  0  0  0  0  0  0  0  0  0  0  0
    7.5470  -13.9470   18.9128 N   0  0  0  0  0  0  0  0  0  0  0  0
    7.6518  -14.9270   19.9494 C   0  0  0  0  0  0  0  0  0  0  0  0
    6.8297  -16.1671   19.7340 C   0  0  0  0  0  0  0  0  0  0  0  0
    7.5893  -17.4409   19.9424 C   0  0  0  0  0  0  0  0  0  0  0  0
    6.8905  -18.4109   20.8794 C   0  0  2  0  0  0  0  0  0  0  0  0
    5.4472  -18.4024   20.5200 N   0  0  0  0  0  0  0  0  0  0  0  0
    6.9664  -18.0406   22.2932 C   0  0  0  0  0  0  0  0  0  0  0  0
    6.0872  -17.2226   22.7316 O   0  0  0  0  0  0  0  0  0  0  0  0
    9.3576  -15.5841   18.3746 N   0  0  0  0  0  0  0  0  0  0  0  0
    8.1484  -22.4629   25.6730 C   0  0  0  0  0  0  0  0  0  0  0  0
    7.0673  -21.6153   25.9781 O   0  0  0  0  0  0  0  0  0  0  0  0
    6.2936  -21.9038   26.9155 C   0  0  0  0  0  0  0  0  0  0  0  0
    6.8386  -20.3595   25.1782 C   0  0  0  0  0  0  0  0  0  0  0  0
    7.9157  -19.3676   25.4343 C   0  0  2  0  0  0  0  0  0  0  0  0
    7.8382  -18.1066   24.5931 N   0  0  0  0  0  0  0  0  0  0  0  0
    7.9472  -18.5254   23.2269 C   0  0  0  0  0  0  0  0  0  0  0  0
    8.8414  -17.1015   25.0143 O   0  0  0  0  0  0  0  0  0  0  0  0
    9.9777  -17.1689   24.4631 N   0  0  0  0  0  0  0  0  0  0  0  0
    8.6350  -16.0994   25.9573 C   0  0  1  0  0  0  0  0  0  0  0  0
    9.5408  -15.5506   26.8797 C   0  0  0  0  0  0  0  0  0  0  0  0
    9.0426  -14.4175   27.7587 C   0  0  0  0  0  0  0  0  0  0  0  0
    7.8534  -13.7662   27.1671 C   0  0  0  0  0  0  0  0  0  0  0  0
    6.5725  -13.6730   27.6880 N   0  0  0  0  0  0  0  0  0  0  0  0
    5.7953  -13.0099   26.8146 C   0  0  0  0  0  0  0  0  0  0  0  0
    6.5320  -12.6575   25.7188 C   0  0  0  0  0  0  0  0  0  0  0  0
    6.1767  -11.9768   24.5755 C   0  0  0  0  0  0  0  0  0  0  0  0
    7.1153  -11.7424   23.5944 C   0  0  0  0  0  0  0  0  0  0  0  0
    8.3929  -12.2010   23.7902 C   0  0  0  0  0  0  0  0  0  0  0  0
    8.7309  -12.8761   24.9331 C   0  0  0  0  0  0  0  0  0  0  0  0
    7.8116  -13.1349   25.9518 C   0  0  0  0  0  0  0  0  0  0  0  0
   10.2354  -16.5242   27.7128 O   0  0  0  0  0  0  0  0  0  0  0  0
   11.2678  -16.1146   28.5527 O   0  0  0  0  0  0  0  0  0  0  0  0
  2  1  1  0
  3  2  2  0
  4  2  1  0
  5  4  1  0
  6  5  1  0
  7  6  1  0
  8  9  1  6
  8 10  1  0
  8  7  1  0
 10 18  1  0
 10 11  2  0
 13 12  1  0
 13 14  2  0
 15 16  1  0
 15 13  1  0
 17 16  1  6
 17 19  1  0
 18 17  1  0
 19 20  2  0
 19 21  1  0
 21 22  1  0
 22 33  1  0
 22 23  1  1
 24 25  2  0
 24 23  1  0
 26 25  1  0
 27 32  2  0
 27 26  1  0
 28 27  1  0
 29 30  1  0
 29 28  2  0
 30 31  2  0
 31 32  1  0
 32 24  1  0
 33 34  1  0
 35 33  2  0
M  END
$$$$
