QQD.pdb
     RDKit          3D

 27 26  0  0  1  0  0  0  0  0999 V2000
   15.7813  -14.3447  -11.0555 N   0  0  0  0  0  0  0  0  0  0  0  0
   15.7443  -13.4969  -12.1672 C   0  0  0  0  0  0  0  0  0  0  0  0
   16.8077  -13.2111  -12.7742 O   0  0  0  0  0  0  0  0  0  0  0  0
   14.4892  -12.9019  -12.6821 C   0  0  0  0  0  0  0  0  0  0  0  0
   14.5936  -11.3986  -12.8202 C   0  0  0  0  0  0  0  0  0  0  0  0
   14.3125  -10.8102  -11.4586 C   0  0  2  0  0  0  0  0  0  0  0  0
   12.9441  -11.0698  -11.1333 N   0  0  0  0  0  0  0  0  0  0  0  0
   14.7032   -9.4058  -11.3313 C   0  0  0  0  0  0  0  0  0  0  0  0
   14.1403   -8.5388  -12.0461 O   0  0  0  0  0  0  0  0  0  0  0  0
   15.1031   -5.6455   -6.5489 N   0  0  0  0  0  0  0  0  0  0  0  0
   14.0408   -6.0724   -7.3754 C   0  0  0  0  0  0  0  0  0  0  0  0
   12.8670   -5.9008   -6.9988 O   0  0  0  0  0  0  0  0  0  0  0  0
   14.3285   -6.7082   -8.6687 C   0  0  0  0  0  0  0  0  0  0  0  0
   15.7574   -6.8720   -9.0236 C   0  0  0  0  0  0  0  0  0  0  0  0
   16.0822   -7.5602  -10.3024 C   0  0  2  0  0  0  0  0  0  0  0  0
   15.7162   -8.9316  -10.4191 N   0  0  0  0  0  0  0  0  0  0  0  0
   17.5017   -7.4264  -10.6980 C   0  0  0  0  0  0  0  0  0  0  0  0
   18.3768   -8.0963  -10.1115 O   0  0  0  0  0  0  0  0  0  0  0  0
   17.9195   -6.5553  -11.7322 N   0  0  0  0  0  0  0  0  0  0  0  0
   19.3263   -6.5906  -12.1784 C   0  0  1  0  0  0  0  0  0  0  0  0
   19.6295   -7.9849  -12.6781 C   0  0  0  0  0  0  0  0  0  0  0  0
   20.9609   -8.0897  -13.2992 C   0  0  0  0  0  0  0  0  0  0  0  0
   21.8252   -7.1796  -13.2924 O   0  0  0  0  0  0  0  0  0  0  0  0
   19.3544   -5.6784  -13.3638 C   0  0  0  0  0  0  0  0  0  0  0  0
   18.4125   -5.5463  -14.1699 O   0  0  0  0  0  0  0  0  0  0  0  0
   21.3220   -9.2740  -13.9521 O   0  0  0  0  0  0  0  0  0  0  0  0
   20.4844   -4.8937  -13.6418 O   0  0  0  0  0  0  0  0  0  0  0  0
  1  2  1  0
  2  3  2  0
  2  4  1  0
  4  5  1  0
  5  6  1  0
  6  8  1  0
  6  7  1  6
  8  9  2  0
 11 10  1  0
 11 12  2  0
 13 11  1  0
 14 13  1  0
 15 14  1  1
 16 15  1  0
 16  8  1  0
 17 15  1  0
 17 18  2  0
 19 17  1  0
 20 19  1  0
 20 24  1  0
 20 21  1  6
 22 21  1  0
 22 26  1  0
 23 22  2  0
 24 25  2  0
 24 27  1  0
M  END
$$$$
