QQD.pdb
     RDKit          3D

 27 26  0  0  1  0  0  0  0  0999 V2000
   19.0070  -16.6181  -14.7358 N   0  0  0  0  0  0  0  0  0  0  0  0
   17.8276  -16.9457  -15.4122 C   0  0  0  0  0  0  0  0  0  0  0  0
   17.2402  -18.0288  -15.1613 O   0  0  0  0  0  0  0  0  0  0  0  0
   17.2167  -16.0643  -16.4341 C   0  0  0  0  0  0  0  0  0  0  0  0
   17.9342  -14.7359  -16.5341 C   0  0  0  0  0  0  0  0  0  0  0  0
   17.3320  -13.9964  -17.7046 C   0  0  2  0  0  0  0  0  0  0  0  0
   17.4924  -14.8041  -18.8739 N   0  0  0  0  0  0  0  0  0  0  0  0
   17.8218  -12.6253  -17.8507 C   0  0  0  0  0  0  0  0  0  0  0  0
   18.8380  -12.4022  -18.5557 O   0  0  0  0  0  0  0  0  0  0  0  0
   14.9206   -6.3457  -17.8709 N   0  0  0  0  0  0  0  0  0  0  0  0
   16.1559   -6.7183  -17.2973 C   0  0  0  0  0  0  0  0  0  0  0  0
   16.5189   -6.1882  -16.2314 O   0  0  0  0  0  0  0  0  0  0  0  0
   16.9959   -7.7272  -17.9577 C   0  0  0  0  0  0  0  0  0  0  0  0
   16.5807   -9.1407  -17.8017 C   0  0  0  0  0  0  0  0  0  0  0  0
   17.6290  -10.1401  -17.4601 C   0  0  2  0  0  0  0  0  0  0  0  0
   17.2052  -11.4795  -17.2263 N   0  0  0  0  0  0  0  0  0  0  0  0
   18.4910   -9.7253  -16.3312 C   0  0  0  0  0  0  0  0  0  0  0  0
   18.2427  -10.1313  -15.1771 O   0  0  0  0  0  0  0  0  0  0  0  0
   19.6064   -8.8719  -16.5054 N   0  0  0  0  0  0  0  0  0  0  0  0
   20.4432   -8.5336  -15.3372 C   0  0  1  0  0  0  0  0  0  0  0  0
   21.6304   -9.4697  -15.3183 C   0  0  0  0  0  0  0  0  0  0  0  0
   22.5690   -9.1762  -14.2219 C   0  0  0  0  0  0  0  0  0  0  0  0
   22.3682   -8.3285  -13.3183 O   0  0  0  0  0  0  0  0  0  0  0  0
   20.9621   -7.1649  -15.6460 C   0  0  0  0  0  0  0  0  0  0  0  0
   21.1980   -6.7472  -16.7968 O   0  0  0  0  0  0  0  0  0  0  0  0
   23.7808   -9.8731  -14.1513 O   0  0  0  0  0  0  0  0  0  0  0  0
   21.2205   -6.2441  -14.6187 O   0  0  0  0  0  0  0  0  0  0  0  0
  1  2  1  0
  2  3  2  0
  2  4  1  0
  4  5  1  0
  5  6  1  0
  6  8  1  0
  6  7  1  6
  8  9  2  0
 11 10  1  0
 11 12  2  0
 13 11  1  0
 14 13  1  0
 15 14  1  1
 16 15  1  0
 16  8  1  0
 17 15  1  0
 17 18  2  0
 19 17  1  0
 20 19  1  0
 20 24  1  0
 20 21  1  6
 22 21  1  0
 22 26  1  0
 23 22  2  0
 24 25  2  0
 24 27  1  0
M  END
$$$$
