QQD.pdb
     RDKit          3D

 27 26  0  0  1  0  0  0  0  0999 V2000
   25.5875  -14.7250  -20.1628 N   0  0  0  0  0  0  0  0  0  0  0  0
   24.5568  -13.8508  -20.5222 C   0  0  0  0  0  0  0  0  0  0  0  0
   24.7221  -13.0417  -21.4705 O   0  0  0  0  0  0  0  0  0  0  0  0
   23.2476  -13.8248  -19.8297 C   0  0  0  0  0  0  0  0  0  0  0  0
   22.8304  -12.4163  -19.4663 C   0  0  0  0  0  0  0  0  0  0  0  0
   22.4574  -12.4306  -18.0034 C   0  0  2  0  0  0  0  0  0  0  0  0
   22.3596  -13.7933  -17.5803 N   0  0  0  0  0  0  0  0  0  0  0  0
   21.2820  -11.6184  -17.6869 C   0  0  0  0  0  0  0  0  0  0  0  0
   20.2097  -11.8097  -18.3138 O   0  0  0  0  0  0  0  0  0  0  0  0
   16.5091  -12.0976  -15.3968 N   0  0  0  0  0  0  0  0  0  0  0  0
   16.4721  -10.6922  -15.2649 C   0  0  0  0  0  0  0  0  0  0  0  0
   15.4056  -10.1368  -14.9440 O   0  0  0  0  0  0  0  0  0  0  0  0
   17.6881   -9.9017  -15.5018 C   0  0  0  0  0  0  0  0  0  0  0  0
   18.8728  -10.6402  -15.9977 C   0  0  0  0  0  0  0  0  0  0  0  0
   20.0935   -9.8558  -16.3279 C   0  0  2  0  0  0  0  0  0  0  0  0
   21.2652  -10.5852  -16.6793 N   0  0  0  0  0  0  0  0  0  0  0  0
   20.4587   -8.8705  -15.2861 C   0  0  0  0  0  0  0  0  0  0  0  0
   21.1237   -9.2323  -14.2935 O   0  0  0  0  0  0  0  0  0  0  0  0
   20.0800   -7.5093  -15.3669 N   0  0  0  0  0  0  0  0  0  0  0  0
   20.4789   -6.5859  -14.2862 C   0  0  1  0  0  0  0  0  0  0  0  0
   21.8696   -6.0759  -14.5888 C   0  0  0  0  0  0  0  0  0  0  0  0
   22.3026   -5.0187  -13.6591 C   0  0  0  0  0  0  0  0  0  0  0  0
   22.4566   -5.1744  -12.4232 O   0  0  0  0  0  0  0  0  0  0  0  0
   19.5407   -5.4298  -14.4315 C   0  0  0  0  0  0  0  0  0  0  0  0
   18.7306   -5.2973  -15.3699 O   0  0  0  0  0  0  0  0  0  0  0  0
   22.5703   -3.7372  -14.1543 O   0  0  0  0  0  0  0  0  0  0  0  0
   19.5219   -4.3944  -13.4841 O   0  0  0  0  0  0  0  0  0  0  0  0
  1  2  1  0
  2  3  2  0
  2  4  1  0
  4  5  1  0
  5  6  1  0
  6  8  1  0
  6  7  1  6
  8  9  2  0
 11 10  1  0
 11 12  2  0
 13 11  1  0
 14 13  1  0
 15 14  1  1
 16 15  1  0
 16  8  1  0
 17 15  1  0
 17 18  2  0
 19 17  1  0
 20 19  1  0
 20 24  1  0
 20 21  1  6
 22 21  1  0
 22 26  1  0
 23 22  2  0
 24 25  2  0
 24 27  1  0
M  END
$$$$
