QQD.pdb
     RDKit          3D

 27 26  0  0  1  0  0  0  0  0999 V2000
   27.1235  -19.0037  -18.5384 N   0  0  0  0  0  0  0  0  0  0  0  0
   28.0728  -18.1440  -17.9765 C   0  0  0  0  0  0  0  0  0  0  0  0
   28.6485  -17.2885  -18.6961 O   0  0  0  0  0  0  0  0  0  0  0  0
   28.4469  -18.1868  -16.5439 C   0  0  0  0  0  0  0  0  0  0  0  0
   27.7644  -19.3252  -15.8172 C   0  0  0  0  0  0  0  0  0  0  0  0
   26.4272  -18.8078  -15.3445 C   0  0  2  0  0  0  0  0  0  0  0  0
   26.6440  -17.5746  -14.6533 N   0  0  0  0  0  0  0  0  0  0  0  0
   25.6487  -19.7900  -14.5892 C   0  0  0  0  0  0  0  0  0  0  0  0
   25.4649  -20.9367  -15.0694 O   0  0  0  0  0  0  0  0  0  0  0  0
   25.0354  -21.0454   -8.3841 N   0  0  0  0  0  0  0  0  0  0  0  0
   26.1256  -21.1137   -9.2788 C   0  0  0  0  0  0  0  0  0  0  0  0
   27.2695  -21.3187   -8.8332 O   0  0  0  0  0  0  0  0  0  0  0  0
   25.9010  -20.9479  -10.7216 C   0  0  0  0  0  0  0  0  0  0  0  0
   24.5124  -20.6553  -11.1470 C   0  0  0  0  0  0  0  0  0  0  0  0
   24.2538  -20.4745  -12.6012 C   0  0  2  0  0  0  0  0  0  0  0  0
   25.0607  -19.5295  -13.2971 N   0  0  0  0  0  0  0  0  0  0  0  0
   22.8360  -20.1904  -12.9153 C   0  0  0  0  0  0  0  0  0  0  0  0
   22.3812  -19.0393  -12.7515 O   0  0  0  0  0  0  0  0  0  0  0  0
   21.9555  -21.1853  -13.4028 N   0  0  0  0  0  0  0  0  0  0  0  0
   20.5734  -20.8100  -13.7615 C   0  0  1  0  0  0  0  0  0  0  0  0
   20.3629  -21.1229  -15.2256 C   0  0  0  0  0  0  0  0  0  0  0  0
   18.9676  -20.9265  -15.6545 C   0  0  0  0  0  0  0  0  0  0  0  0
   18.0449  -20.5101  -14.9125 O   0  0  0  0  0  0  0  0  0  0  0  0
   19.7241  -21.7602  -12.9780 C   0  0  0  0  0  0  0  0  0  0  0  0
   18.6380  -21.4559  -12.4468 O   0  0  0  0  0  0  0  0  0  0  0  0
   18.6093  -21.2147  -16.9765 O   0  0  0  0  0  0  0  0  0  0  0  0
   20.1193  -23.0941  -12.7925 O   0  0  0  0  0  0  0  0  0  0  0  0
  1  2  1  0
  2  3  2  0
  2  4  1  0
  4  5  1  0
  5  6  1  0
  6  8  1  0
  6  7  1  1
  8  9  2  0
 11 10  1  0
 11 12  2  0
 13 11  1  0
 14 13  1  0
 15 14  1  1
 16 15  1  0
 16  8  1  0
 17 15  1  0
 17 18  2  0
 19 17  1  0
 20 19  1  0
 20 24  1  0
 20 21  1  6
 22 21  1  0
 22 26  1  0
 23 22  2  0
 24 25  2  0
 24 27  1  0
M  END
$$$$
