QQD.pdb
     RDKit          3D

 27 26  0  0  1  0  0  0  0  0999 V2000
   14.7331  -11.4863  -13.9706 N   0  0  0  0  0  0  0  0  0  0  0  0
   14.7715  -11.6781  -15.3554 C   0  0  0  0  0  0  0  0  0  0  0  0
   13.7614  -12.1267  -15.9551 O   0  0  0  0  0  0  0  0  0  0  0  0
   15.9670  -11.3741  -16.1756 C   0  0  0  0  0  0  0  0  0  0  0  0
   17.1115  -10.8553  -15.3325 C   0  0  0  0  0  0  0  0  0  0  0  0
   18.3040  -10.7133  -16.2474 C   0  0  2  0  0  0  0  0  0  0  0  0
   18.4680  -11.9413  -16.9620 N   0  0  0  0  0  0  0  0  0  0  0  0
   19.5144  -10.2471  -15.5700 C   0  0  0  0  0  0  0  0  0  0  0  0
   20.1237  -11.0201  -14.7885 O   0  0  0  0  0  0  0  0  0  0  0  0
   24.7195  -11.1332  -15.9735 N   0  0  0  0  0  0  0  0  0  0  0  0
   24.9370   -9.9600  -15.2184 C   0  0  0  0  0  0  0  0  0  0  0  0
   26.0824   -9.7038  -14.8043 O   0  0  0  0  0  0  0  0  0  0  0  0
   23.8159   -9.0537  -14.9334 C   0  0  0  0  0  0  0  0  0  0  0  0
   22.4898   -9.4540  -15.4587 C   0  0  0  0  0  0  0  0  0  0  0  0
   21.3397   -8.5424  -15.2120 C   0  0  2  0  0  0  0  0  0  0  0  0
   20.0741   -8.9277  -15.7394 N   0  0  0  0  0  0  0  0  0  0  0  0
   21.6013   -7.1433  -15.6163 C   0  0  0  0  0  0  0  0  0  0  0  0
   21.7087   -6.8551  -16.8262 O   0  0  0  0  0  0  0  0  0  0  0  0
   21.7380   -6.0968  -14.6734 N   0  0  0  0  0  0  0  0  0  0  0  0
   21.9603   -4.7189  -15.1547 C   0  0  1  0  0  0  0  0  0  0  0  0
   21.2052   -3.7733  -14.2483 C   0  0  0  0  0  0  0  0  0  0  0  0
   19.7778   -3.6697  -14.5963 C   0  0  0  0  0  0  0  0  0  0  0  0
   19.2446   -4.2168  -15.5922 O   0  0  0  0  0  0  0  0  0  0  0  0
   23.4197   -4.4845  -14.9240 C   0  0  0  0  0  0  0  0  0  0  0  0
   24.1641   -5.2617  -14.2945 O   0  0  0  0  0  0  0  0  0  0  0  0
   18.9259   -2.9159  -13.7809 O   0  0  0  0  0  0  0  0  0  0  0  0
   24.0518   -3.3347  -15.4222 O   0  0  0  0  0  0  0  0  0  0  0  0
  1  2  1  0
  2  3  2  0
  2  4  1  0
  4  5  1  0
  5  6  1  0
  6  8  1  0
  6  7  1  1
  8  9  2  0
 11 10  1  0
 11 12  2  0
 13 11  1  0
 14 13  1  0
 15 14  1  6
 16 15  1  0
 16  8  1  0
 17 15  1  0
 17 18  2  0
 19 17  1  0
 20 19  1  0
 20 24  1  0
 20 21  1  1
 22 21  1  0
 22 26  1  0
 23 22  2  0
 24 25  2  0
 24 27  1  0
M  END
$$$$
