NVR.pdb
     RDKit          3D

 27 26  0  0  1  0  0  0  0  0999 V2000
   17.7038  -22.9855  -10.6026 N   0  0  0  0  0  0  0  0  0  0  0  0
   18.1864  -22.0522   -9.6649 C   0  0  0  0  0  0  0  0  0  0  0  0
   17.5160  -21.8687   -8.6164 O   0  0  0  0  0  0  0  0  0  0  0  0
   19.4356  -21.2766   -9.8441 C   0  0  0  0  0  0  0  0  0  0  0  0
   20.0855  -21.6059  -11.1702 C   0  0  2  0  0  0  0  0  0  0  0  0
   20.2803  -23.0260  -11.2008 N   0  0  0  0  0  0  0  0  0  0  0  0
   21.2713  -20.8028  -11.4497 C   0  0  0  0  0  0  0  0  0  0  0  0
   21.1259  -19.5613  -11.6141 O   0  0  0  0  0  0  0  0  0  0  0  0
   25.4944  -22.0275  -11.4765 C   0  0  0  0  0  0  0  0  0  0  0  0
   24.9563  -20.6017  -11.3743 C   0  0  2  0  0  0  0  0  0  0  0  0
   24.8704  -20.1697   -9.9483 C   0  0  0  0  0  0  0  0  0  0  0  0
   23.6514  -20.4718  -12.1302 C   0  0  2  0  0  0  0  0  0  0  0  0
   22.6035  -21.2918  -11.5577 N   0  0  0  0  0  0  0  0  0  0  0  0
   23.9273  -20.8477  -13.5403 C   0  0  0  0  0  0  0  0  0  0  0  0
   23.6199  -22.0304  -13.9056 O   0  0  0  0  0  0  0  0  0  0  0  0
   21.0809  -20.6120  -20.2225 N   0  0  0  0  0  0  0  0  0  0  0  0
   20.1444  -21.1001  -19.2449 C   0  0  0  0  0  0  0  0  0  0  0  0
   19.4008  -22.1080  -19.5122 N   0  0  0  0  0  0  0  0  0  0  0  0
   20.0205  -20.4796  -17.9749 N   0  0  0  0  0  0  0  0  0  0  0  0
   20.7193  -19.3207  -17.5524 C   0  0  0  0  0  0  0  0  0  0  0  0
   22.1867  -19.5583  -17.4004 C   0  0  0  0  0  0  0  0  0  0  0  0
   22.6151  -19.6884  -15.9630 C   0  0  0  0  0  0  0  0  0  0  0  0
   24.0853  -19.8668  -15.8527 C   0  0  2  0  0  0  0  0  0  0  0  0
   24.5003  -19.9519  -14.4393 N   0  0  0  0  0  0  0  0  0  0  0  0
   24.9044  -18.8488  -16.5468 C   0  0  0  0  0  0  0  0  0  0  0  0
   25.3893  -17.8290  -16.0482 O   0  0  0  0  0  0  0  0  0  0  0  0
   25.1683  -19.0461  -17.9164 O   0  0  0  0  0  0  0  0  0  0  0  0
  2  3  2  0
  2  1  1  0
  4  2  1  0
  5  4  1  0
  5  6  1  1
  7  5  1  0
  8  7  2  0
 10  9  1  1
 10 11  1  0
 10 12  1  0
 12 13  1  1
 13  7  1  0
 14 15  2  0
 14 12  1  0
 17 16  1  0
 17 18  2  0
 19 17  1  0
 20 19  1  0
 21 20  1  0
 23 22  1  1
 22 21  1  0
 23 24  1  0
 24 14  1  0
 25 23  1  0
 26 25  2  0
 27 25  1  0
M  END
$$$$
