NVR.pdb
     RDKit          3D

 27 26  0  0  1  0  0  0  0  0999 V2000
   28.9361  -18.3215  -19.2202 N   0  0  0  0  0  0  0  0  0  0  0  0
   27.6125  -18.7792  -19.0716 C   0  0  0  0  0  0  0  0  0  0  0  0
   26.7340  -18.3025  -19.8352 O   0  0  0  0  0  0  0  0  0  0  0  0
   27.1985  -19.7877  -18.0685 C   0  0  0  0  0  0  0  0  0  0  0  0
   28.3931  -20.2869  -17.2855 C   0  0  2  0  0  0  0  0  0  0  0  0
   29.1695  -21.0984  -18.1766 N   0  0  0  0  0  0  0  0  0  0  0  0
   28.0342  -20.9127  -16.0172 C   0  0  0  0  0  0  0  0  0  0  0  0
   27.4387  -22.0236  -16.0474 O   0  0  0  0  0  0  0  0  0  0  0  0
   29.0426  -19.5047  -11.9993 C   0  0  0  0  0  0  0  0  0  0  0  0
   28.8526  -20.9663  -12.3999 C   0  0  2  0  0  0  0  0  0  0  0  0
   30.1673  -21.6101  -12.6907 C   0  0  0  0  0  0  0  0  0  0  0  0
   27.8543  -21.0805  -13.5319 C   0  0  2  0  0  0  0  0  0  0  0  0
   28.2946  -20.3827  -14.7223 N   0  0  0  0  0  0  0  0  0  0  0  0
   26.5652  -20.5403  -13.0298 C   0  0  0  0  0  0  0  0  0  0  0  0
   26.3051  -19.3156  -13.2731 O   0  0  0  0  0  0  0  0  0  0  0  0
   19.3175  -22.4642  -10.2397 N   0  0  0  0  0  0  0  0  0  0  0  0
   18.8251  -21.3426  -10.9951 C   0  0  0  0  0  0  0  0  0  0  0  0
   17.7378  -20.7608  -10.6496 N   0  0  0  0  0  0  0  0  0  0  0  0
   19.5238  -20.8616  -12.1326 N   0  0  0  0  0  0  0  0  0  0  0  0
   20.7377  -21.3908  -12.6385 C   0  0  0  0  0  0  0  0  0  0  0  0
   21.9416  -20.7867  -11.9914 C   0  0  0  0  0  0  0  0  0  0  0  0
   23.2352  -21.3611  -12.5047 C   0  0  0  0  0  0  0  0  0  0  0  0
   24.4007  -20.8033  -11.7728 C   0  0  2  0  0  0  0  0  0  0  0  0
   25.6661  -21.3306  -12.3185 N   0  0  0  0  0  0  0  0  0  0  0  0
   24.3804  -20.9906  -10.3052 C   0  0  0  0  0  0  0  0  0  0  0  0
   23.6788  -20.3789   -9.4946 O   0  0  0  0  0  0  0  0  0  0  0  0
   25.2428  -21.9613   -9.7589 O   0  0  0  0  0  0  0  0  0  0  0  0
  2  3  2  0
  2  1  1  0
  4  2  1  0
  5  4  1  0
  5  6  1  6
  7  5  1  0
  8  7  2  0
 10  9  1  6
 10 11  1  0
 10 12  1  0
 12 13  1  6
 13  7  1  0
 14 15  2  0
 14 12  1  0
 17 16  1  0
 17 18  2  0
 19 17  1  0
 20 19  1  0
 21 20  1  0
 23 22  1  6
 22 21  1  0
 23 24  1  0
 24 14  1  0
 25 23  1  0
 26 25  2  0
 27 25  1  0
M  END
$$$$
