NVR.pdb
     RDKit          3D

 27 26  0  0  1  0  0  0  0  0999 V2000
   29.3495  -18.3526  -16.2233 N   0  0  0  0  0  0  0  0  0  0  0  0
   28.0245  -18.3669  -16.7003 C   0  0  0  0  0  0  0  0  0  0  0  0
   27.7163  -17.5550  -17.6102 O   0  0  0  0  0  0  0  0  0  0  0  0
   26.9766  -19.2819  -16.1912 C   0  0  0  0  0  0  0  0  0  0  0  0
   27.5621  -20.2756  -15.2119 C   0  0  2  0  0  0  0  0  0  0  0  0
   28.2473  -21.2710  -15.9834 N   0  0  0  0  0  0  0  0  0  0  0  0
   26.5889  -20.7848  -14.2514 C   0  0  0  0  0  0  0  0  0  0  0  0
   25.7188  -21.6009  -14.6593 O   0  0  0  0  0  0  0  0  0  0  0  0
   24.7141  -21.4894   -9.7027 C   0  0  0  0  0  0  0  0  0  0  0  0
   25.7757  -20.7972  -10.5552 C   0  0  2  0  0  0  0  0  0  0  0  0
   25.9451  -19.3746  -10.1367 C   0  0  0  0  0  0  0  0  0  0  0  0
   25.4674  -20.9670  -12.0273 C   0  0  2  0  0  0  0  0  0  0  0  0
   26.5225  -20.4444  -12.8711 N   0  0  0  0  0  0  0  0  0  0  0  0
   24.1758  -20.2796  -12.2823 C   0  0  0  0  0  0  0  0  0  0  0  0
   24.2098  -19.1871  -12.9396 O   0  0  0  0  0  0  0  0  0  0  0  0
   20.7607  -17.5795  -17.5853 N   0  0  0  0  0  0  0  0  0  0  0  0
   21.0700  -18.9105  -18.0368 C   0  0  0  0  0  0  0  0  0  0  0  0
   21.4487  -19.1094  -19.2439 N   0  0  0  0  0  0  0  0  0  0  0  0
   20.9598  -20.0243  -17.1648 N   0  0  0  0  0  0  0  0  0  0  0  0
   20.4180  -19.9950  -15.8551 C   0  0  0  0  0  0  0  0  0  0  0  0
   21.4489  -19.7035  -14.8133 C   0  0  0  0  0  0  0  0  0  0  0  0
   21.7515  -20.8903  -13.9377 C   0  0  0  0  0  0  0  0  0  0  0  0
   21.6809  -20.5304  -12.4987 C   0  0  2  0  0  0  0  0  0  0  0  0
   22.9667  -20.7977  -11.8259 N   0  0  0  0  0  0  0  0  0  0  0  0
   20.5837  -21.1660  -11.7362 C   0  0  0  0  0  0  0  0  0  0  0  0
   20.5352  -22.3391  -11.3553 O   0  0  0  0  0  0  0  0  0  0  0  0
   19.4729  -20.3669  -11.4016 O   0  0  0  0  0  0  0  0  0  0  0  0
  2  3  2  0
  2  1  1  0
  4  2  1  0
  5  4  1  0
  5  6  1  6
  7  5  1  0
  8  7  2  0
 10  9  1  1
 10 11  1  0
 10 12  1  0
 12 13  1  6
 13  7  1  0
 14 15  2  0
 14 12  1  0
 17 16  1  0
 17 18  2  0
 19 17  1  0
 20 19  1  0
 21 20  1  0
 23 22  1  6
 22 21  1  0
 23 24  1  0
 24 14  1  0
 25 23  1  0
 26 25  2  0
 27 25  1  0
M  END
$$$$
