NVR.pdb
     RDKit          3D

 27 26  0  0  1  0  0  0  0  0999 V2000
   29.3551  -19.7387  -16.8474 N   0  0  0  0  0  0  0  0  0  0  0  0
   28.0073  -19.3328  -16.8908 C   0  0  0  0  0  0  0  0  0  0  0  0
   27.6921  -18.4186  -17.6953 O   0  0  0  0  0  0  0  0  0  0  0  0
   26.9434  -19.9204  -16.0440 C   0  0  0  0  0  0  0  0  0  0  0  0
   27.5206  -20.9451  -15.0921 C   0  0  2  0  0  0  0  0  0  0  0  0
   27.9744  -22.0481  -15.8877 N   0  0  0  0  0  0  0  0  0  0  0  0
   26.6210  -21.2891  -13.9959 C   0  0  0  0  0  0  0  0  0  0  0  0
   25.8318  -22.2595  -14.1538 O   0  0  0  0  0  0  0  0  0  0  0  0
   27.0638  -20.9351   -9.9445 C   0  0  0  0  0  0  0  0  0  0  0  0
   25.7264  -20.3830  -10.4337 C   0  0  2  0  0  0  0  0  0  0  0  0
   24.6396  -20.6872   -9.4571 C   0  0  0  0  0  0  0  0  0  0  0  0
   25.4358  -20.8648  -11.8389 C   0  0  2  0  0  0  0  0  0  0  0  0
   26.5441  -20.6241  -12.7400 N   0  0  0  0  0  0  0  0  0  0  0  0
   24.2053  -20.1671  -12.2912 C   0  0  0  0  0  0  0  0  0  0  0  0
   24.3420  -19.2157  -13.1296 O   0  0  0  0  0  0  0  0  0  0  0  0
   21.1318  -25.4133  -15.2482 N   0  0  0  0  0  0  0  0  0  0  0  0
   19.9705  -24.7494  -15.7789 C   0  0  0  0  0  0  0  0  0  0  0  0
   18.8577  -25.3761  -15.8742 N   0  0  0  0  0  0  0  0  0  0  0  0
   20.0310  -23.3986  -16.2090 N   0  0  0  0  0  0  0  0  0  0  0  0
   21.0997  -22.5014  -15.9589 C   0  0  0  0  0  0  0  0  0  0  0  0
   20.8512  -21.6287  -14.7717 C   0  0  0  0  0  0  0  0  0  0  0  0
   22.0346  -21.5467  -13.8446 C   0  0  0  0  0  0  0  0  0  0  0  0
   21.7666  -20.6291  -12.7082 C   0  0  2  0  0  0  0  0  0  0  0  0
   22.9440  -20.5281  -11.8245 N   0  0  0  0  0  0  0  0  0  0  0  0
   20.5693  -20.9490  -11.8999 C   0  0  0  0  0  0  0  0  0  0  0  0
   20.4139  -21.9338  -11.1721 O   0  0  0  0  0  0  0  0  0  0  0  0
   19.4862  -20.0499  -11.9534 O   0  0  0  0  0  0  0  0  0  0  0  0
  2  3  2  0
  2  1  1  0
  4  2  1  0
  5  4  1  0
  5  6  1  6
  7  5  1  0
  8  7  2  0
 10  9  1  1
 10 11  1  0
 10 12  1  0
 12 13  1  6
 13  7  1  0
 14 15  2  0
 14 12  1  0
 17 16  1  0
 17 18  2  0
 19 17  1  0
 20 19  1  0
 21 20  1  0
 23 22  1  6
 22 21  1  0
 23 24  1  0
 24 14  1  0
 25 23  1  0
 26 25  2  0
 27 25  1  0
M  END
$$$$
