NVR.pdb
     RDKit          3D

 27 26  0  0  1  0  0  0  0  0999 V2000
   29.4542  -18.3124  -16.2563 N   0  0  0  0  0  0  0  0  0  0  0  0
   28.1280  -17.8387  -16.2415 C   0  0  0  0  0  0  0  0  0  0  0  0
   27.8932  -16.7252  -16.7774 O   0  0  0  0  0  0  0  0  0  0  0  0
   26.9976  -18.5765  -15.6313 C   0  0  0  0  0  0  0  0  0  0  0  0
   27.4539  -19.9224  -15.1119 C   0  0  2  0  0  0  0  0  0  0  0  0
   27.9212  -20.6716  -16.2414 N   0  0  0  0  0  0  0  0  0  0  0  0
   26.4571  -20.5917  -14.2827 C   0  0  0  0  0  0  0  0  0  0  0  0
   25.6658  -21.4014  -14.8374 O   0  0  0  0  0  0  0  0  0  0  0  0
   25.2354  -19.8844   -9.9856 C   0  0  0  0  0  0  0  0  0  0  0  0
   25.4957  -21.2132  -10.6923 C   0  0  2  0  0  0  0  0  0  0  0  0
   26.8649  -21.7187  -10.3805 C   0  0  0  0  0  0  0  0  0  0  0  0
   25.2142  -21.0897  -12.1744 C   0  0  2  0  0  0  0  0  0  0  0  0
   26.2855  -20.4176  -12.8806 N   0  0  0  0  0  0  0  0  0  0  0  0
   23.9287  -20.3590  -12.3127 C   0  0  0  0  0  0  0  0  0  0  0  0
   23.8495  -19.2011  -11.7837 O   0  0  0  0  0  0  0  0  0  0  0  0
   19.9750  -18.0328  -19.1866 N   0  0  0  0  0  0  0  0  0  0  0  0
   19.8272  -19.3069  -18.5338 C   0  0  0  0  0  0  0  0  0  0  0  0
   19.6170  -20.3642  -19.2252 N   0  0  0  0  0  0  0  0  0  0  0  0
   19.9058  -19.4203  -17.1217 N   0  0  0  0  0  0  0  0  0  0  0  0
   20.1224  -18.3483  -16.2197 C   0  0  0  0  0  0  0  0  0  0  0  0
   20.2842  -18.8095  -14.8076 C   0  0  0  0  0  0  0  0  0  0  0  0
   21.4720  -19.7149  -14.6176 C   0  0  0  0  0  0  0  0  0  0  0  0
   21.5843  -20.1681  -13.2079 C   0  0  2  0  0  0  0  0  0  0  0  0
   22.8432  -20.9067  -12.9913 N   0  0  0  0  0  0  0  0  0  0  0  0
   20.4483  -20.9716  -12.7047 C   0  0  0  0  0  0  0  0  0  0  0  0
   19.3790  -20.5398  -12.2645 O   0  0  0  0  0  0  0  0  0  0  0  0
   20.5821  -22.3738  -12.7217 O   0  0  0  0  0  0  0  0  0  0  0  0
  2  3  2  0
  2  1  1  0
  4  2  1  0
  5  4  1  0
  5  6  1  6
  7  5  1  0
  8  7  2  0
 10  9  1  1
 10 11  1  0
 10 12  1  0
 12 13  1  6
 13  7  1  0
 14 15  2  0
 14 12  1  0
 17 16  1  0
 17 18  2  0
 19 17  1  0
 20 19  1  0
 21 20  1  0
 23 22  1  6
 22 21  1  0
 23 24  1  0
 24 14  1  0
 25 23  1  0
 26 25  2  0
 27 25  1  0
M  END
$$$$
