NVR.pdb
     RDKit          3D

 27 26  0  0  1  0  0  0  0  0999 V2000
   24.9890  -19.0115  -18.0193 N   0  0  0  0  0  0  0  0  0  0  0  0
   25.0305  -18.7399  -16.6381 C   0  0  0  0  0  0  0  0  0  0  0  0
   25.5587  -17.6611  -16.2645 O   0  0  0  0  0  0  0  0  0  0  0  0
   24.4889  -19.6516  -15.6037 C   0  0  0  0  0  0  0  0  0  0  0  0
   25.5979  -20.1786  -14.7197 C   0  0  2  0  0  0  0  0  0  0  0  0
   26.4631  -20.9609  -15.5533 N   0  0  0  0  0  0  0  0  0  0  0  0
   25.1122  -20.8462  -13.5166 C   0  0  0  0  0  0  0  0  0  0  0  0
   24.6228  -22.0023  -13.6320 O   0  0  0  0  0  0  0  0  0  0  0  0
   25.7650  -19.8130   -9.2449 C   0  0  0  0  0  0  0  0  0  0  0  0
   25.6263  -21.1635   -9.9446 C   0  0  2  0  0  0  0  0  0  0  0  0
   26.9620  -21.6828  -10.3616 C   0  0  0  0  0  0  0  0  0  0  0  0
   24.6264  -21.0738  -11.0773 C   0  0  2  0  0  0  0  0  0  0  0  0
   25.1362  -20.3108  -12.1981 N   0  0  0  0  0  0  0  0  0  0  0  0
   23.3925  -20.4635  -10.5198 C   0  0  0  0  0  0  0  0  0  0  0  0
   23.1325  -19.2581  -10.8457 O   0  0  0  0  0  0  0  0  0  0  0  0
   16.9217  -24.2901  -13.0631 N   0  0  0  0  0  0  0  0  0  0  0  0
   16.4419  -22.9696  -12.7509 C   0  0  0  0  0  0  0  0  0  0  0  0
   15.2244  -22.7944  -12.3943 N   0  0  0  0  0  0  0  0  0  0  0  0
   17.2970  -21.8405  -12.8341 N   0  0  0  0  0  0  0  0  0  0  0  0
   18.7086  -21.8647  -12.7050 C   0  0  0  0  0  0  0  0  0  0  0  0
   19.1645  -21.5333  -11.3210 C   0  0  0  0  0  0  0  0  0  0  0  0
   20.6637  -21.4812  -11.1929 C   0  0  0  0  0  0  0  0  0  0  0  0
   21.0747  -21.1381   -9.8078 C   0  0  2  0  0  0  0  0  0  0  0  0
   22.5437  -21.1699   -9.6717 N   0  0  0  0  0  0  0  0  0  0  0  0
   20.4626  -21.9590   -8.7397 C   0  0  0  0  0  0  0  0  0  0  0  0
   20.7678  -23.1152   -8.4335 O   0  0  0  0  0  0  0  0  0  0  0  0
   19.4242  -21.3793   -7.9848 O   0  0  0  0  0  0  0  0  0  0  0  0
  2  3  2  0
  2  1  1  0
  4  2  1  0
  5  4  1  0
  5  6  1  6
  7  5  1  0
  8  7  2  0
 10  9  1  6
 10 11  1  0
 10 12  1  0
 12 13  1  6
 13  7  1  0
 14 15  2  0
 14 12  1  0
 17 16  1  0
 17 18  2  0
 19 17  1  0
 20 19  1  0
 21 20  1  0
 23 22  1  6
 22 21  1  0
 23 24  1  0
 24 14  1  0
 25 23  1  0
 26 25  2  0
 27 25  1  0
M  END
$$$$
