NVR.pdb
     RDKit          3D

 27 26  0  0  1  0  0  0  0  0999 V2000
   27.7887  -22.7947  -17.4646 N   0  0  0  0  0  0  0  0  0  0  0  0
   26.5468  -23.4587  -17.4539 C   0  0  0  0  0  0  0  0  0  0  0  0
   26.4222  -24.4885  -18.1653 O   0  0  0  0  0  0  0  0  0  0  0  0
   25.3824  -23.0128  -16.6540 C   0  0  0  0  0  0  0  0  0  0  0  0
   25.7177  -21.7633  -15.8695 C   0  0  2  0  0  0  0  0  0  0  0  0
   26.8248  -22.0869  -15.0180 N   0  0  0  0  0  0  0  0  0  0  0  0
   24.5634  -21.1712  -15.2017 C   0  0  0  0  0  0  0  0  0  0  0  0
   24.5067  -21.2300  -13.9436 O   0  0  0  0  0  0  0  0  0  0  0  0
   22.9716  -17.6110  -15.6822 C   0  0  0  0  0  0  0  0  0  0  0  0
   21.8675  -18.6662  -15.6602 C   0  0  2  0  0  0  0  0  0  0  0  0
   20.6464  -18.1399  -14.9825 C   0  0  0  0  0  0  0  0  0  0  0  0
   22.3828  -19.9608  -15.0689 C   0  0  2  0  0  0  0  0  0  0  0  0
   23.4719  -20.5204  -15.8427 N   0  0  0  0  0  0  0  0  0  0  0  0
   21.2301  -20.8944  -14.9974 C   0  0  0  0  0  0  0  0  0  0  0  0
   20.7067  -21.2695  -16.0984 O   0  0  0  0  0  0  0  0  0  0  0  0
   20.1242  -27.9958  -10.3628 N   0  0  0  0  0  0  0  0  0  0  0  0
   20.8094  -27.3821  -11.4695 C   0  0  0  0  0  0  0  0  0  0  0  0
   21.8855  -27.9025  -11.9294 N   0  0  0  0  0  0  0  0  0  0  0  0
   20.3163  -26.1946  -12.0692 N   0  0  0  0  0  0  0  0  0  0  0  0
   19.1086  -25.5373  -11.7241 C   0  0  0  0  0  0  0  0  0  0  0  0
   18.8017  -24.3876  -12.6280 C   0  0  0  0  0  0  0  0  0  0  0  0
   19.9607  -23.4401  -12.7878 C   0  0  0  0  0  0  0  0  0  0  0  0
   19.6137  -22.3109  -13.6876 C   0  0  2  0  0  0  0  0  0  0  0  0
   20.7297  -21.3501  -13.7805 N   0  0  0  0  0  0  0  0  0  0  0  0
   18.3673  -21.5881  -13.3512 C   0  0  0  0  0  0  0  0  0  0  0  0
   18.2567  -20.6308  -12.5798 O   0  0  0  0  0  0  0  0  0  0  0  0
   17.1753  -22.0221  -13.9637 O   0  0  0  0  0  0  0  0  0  0  0  0
  2  3  2  0
  2  1  1  0
  4  2  1  0
  5  4  1  0
  5  6  1  1
  7  5  1  0
  8  7  2  0
 10  9  1  1
 10 11  1  0
 10 12  1  0
 12 13  1  6
 13  7  1  0
 14 15  2  0
 14 12  1  0
 17 16  1  0
 17 18  2  0
 19 17  1  0
 20 19  1  0
 21 20  1  0
 23 22  1  1
 22 21  1  0
 23 24  1  0
 24 14  1  0
 25 23  1  0
 26 25  2  0
 27 25  1  0
M  END
$$$$
