NVR.pdb
     RDKit          3D

 27 26  0  0  1  0  0  0  0  0999 V2000
   23.6936  -15.4742  -20.5197 N   0  0  0  0  0  0  0  0  0  0  0  0
   22.5094  -14.7977  -20.1683 C   0  0  0  0  0  0  0  0  0  0  0  0
   21.5113  -14.9245  -20.9232 O   0  0  0  0  0  0  0  0  0  0  0  0
   22.3745  -13.9473  -18.9630 C   0  0  0  0  0  0  0  0  0  0  0  0
   23.6636  -13.9314  -18.1710 C   0  0  2  0  0  0  0  0  0  0  0  0
   23.8506  -15.2528  -17.6471 N   0  0  0  0  0  0  0  0  0  0  0  0
   23.7286  -12.8520  -17.1913 C   0  0  0  0  0  0  0  0  0  0  0  0
   23.0636  -12.9715  -16.1269 O   0  0  0  0  0  0  0  0  0  0  0  0
   26.4495   -9.4124  -17.1286 C   0  0  0  0  0  0  0  0  0  0  0  0
   25.8053  -10.1118  -15.9333 C   0  0  2  0  0  0  0  0  0  0  0  0
   26.7133  -11.1600  -15.3816 C   0  0  0  0  0  0  0  0  0  0  0  0
   24.4299  -10.6274  -16.2985 C   0  0  2  0  0  0  0  0  0  0  0  0
   24.4835  -11.6524  -17.3206 N   0  0  0  0  0  0  0  0  0  0  0  0
   23.6314   -9.4568  -16.7431 C   0  0  0  0  0  0  0  0  0  0  0  0
   23.3704   -9.3602  -17.9878 O   0  0  0  0  0  0  0  0  0  0  0  0
   16.3571   -7.9657  -19.5506 N   0  0  0  0  0  0  0  0  0  0  0  0
   16.7241   -6.6601  -19.0690 C   0  0  0  0  0  0  0  0  0  0  0  0
   15.9689   -5.6522  -19.3013 N   0  0  0  0  0  0  0  0  0  0  0  0
   17.9222   -6.4594  -18.3360 N   0  0  0  0  0  0  0  0  0  0  0  0
   18.8093   -7.4805  -17.9116 C   0  0  0  0  0  0  0  0  0  0  0  0
   20.0428   -6.9379  -17.2658 C   0  0  0  0  0  0  0  0  0  0  0  0
   21.0140   -8.0135  -16.8575 C   0  0  0  0  0  0  0  0  0  0  0  0
   22.2266   -7.4335  -16.2262 C   0  0  2  0  0  0  0  0  0  0  0  0
   23.1794   -8.4936  -15.8448 N   0  0  0  0  0  0  0  0  0  0  0  0
   21.9799   -6.5508  -15.0647 C   0  0  0  0  0  0  0  0  0  0  0  0
   22.2323   -6.8016  -13.8827 O   0  0  0  0  0  0  0  0  0  0  0  0
   21.3982   -5.2921  -15.3130 O   0  0  0  0  0  0  0  0  0  0  0  0
  2  3  2  0
  2  1  1  0
  4  2  1  0
  5  4  1  0
  5  6  1  1
  7  5  1  0
  8  7  2  0
 10  9  1  6
 10 11  1  0
 10 12  1  0
 12 13  1  6
 13  7  1  0
 14 15  2  0
 14 12  1  0
 17 16  1  0
 17 18  2  0
 19 17  1  0
 20 19  1  0
 21 20  1  0
 23 22  1  1
 22 21  1  0
 23 24  1  0
 24 14  1  0
 25 23  1  0
 26 25  2  0
 27 25  1  0
M  END
$$$$
