PWW.pdb
     RDKit          3D

 36 40  0  0  1  0  0  0  0  0999 V2000
    8.2734  -15.1981   18.0897 N   0  0  0  0  0  0  0  0  0  0  0  0
    7.9655  -14.6153   16.8068 C   0  0  0  0  0  0  0  0  0  0  0  0
    7.7074  -13.1658   17.1441 C   0  0  0  0  0  0  0  0  0  0  0  0
    8.5790  -12.9262   18.3436 C   0  0  0  0  0  0  0  0  0  0  0  0
    9.1968  -14.2711   18.6779 C   0  0  1  0  0  0  0  0  0  0  0  0
    9.2709  -14.3950   20.1541 C   0  0  0  0  0  0  0  0  0  0  0  0
    9.9738  -13.6551   20.8765 O   0  0  0  0  0  0  0  0  0  0  0  0
    8.5069  -15.4018   20.7784 N   0  0  0  0  0  0  0  0  0  0  0  0
    8.4108  -15.5248   22.2730 C   0  0  1  0  0  0  0  0  0  0  0  0
    7.0536  -15.9093   22.6403 C   0  0  0  0  0  0  0  0  0  0  0  0
    6.5213  -15.6270   23.9750 C   0  0  0  0  0  0  0  0  0  0  0  0
    5.8451  -16.5119   24.8111 C   0  0  0  0  0  0  0  0  0  0  0  0
    5.4783  -15.9328   25.9468 N   0  0  0  0  0  0  0  0  0  0  0  0
    5.9010  -14.6593   25.8862 C   0  0  0  0  0  0  0  0  0  0  0  0
    5.7709  -13.6858   26.8478 C   0  0  0  0  0  0  0  0  0  0  0  0
    6.3054  -12.4242   26.6196 C   0  0  0  0  0  0  0  0  0  0  0  0
    6.9479  -12.2094   25.4237 C   0  0  0  0  0  0  0  0  0  0  0  0
    7.0728  -13.1945   24.4613 C   0  0  0  0  0  0  0  0  0  0  0  0
    6.5471  -14.4425   24.6811 C   0  0  0  0  0  0  0  0  0  0  0  0
    9.5877  -16.2742   22.6690 C   0  0  0  0  0  0  0  0  0  0  0  0
   10.1071  -17.1055   21.8102 O   0  0  0  0  0  0  0  0  0  0  0  0
   10.2455  -16.1702   23.9309 N   0  0  0  0  0  0  0  0  0  0  0  0
   11.4076  -16.9891   24.1706 C   0  0  1  0  0  0  0  0  0  0  0  0
   12.2337  -16.3428   25.3007 C   0  0  0  0  0  0  0  0  0  0  0  0
   11.5026  -16.1024   26.5393 C   0  0  0  0  0  0  0  0  0  0  0  0
   10.7906  -17.0953   27.2281 C   0  0  0  0  0  0  0  0  0  0  0  0
   10.2116  -16.5563   28.3156 N   0  0  0  0  0  0  0  0  0  0  0  0
   10.5089  -15.2325   28.3858 C   0  0  0  0  0  0  0  0  0  0  0  0
   10.1490  -14.2940   29.3213 C   0  0  0  0  0  0  0  0  0  0  0  0
   10.6049  -12.9924   29.1723 C   0  0  0  0  0  0  0  0  0  0  0  0
   11.4035  -12.7156   28.0785 C   0  0  0  0  0  0  0  0  0  0  0  0
   11.7473  -13.6669   27.1589 C   0  0  0  0  0  0  0  0  0  0  0  0
   11.3041  -14.9686   27.2867 C   0  0  0  0  0  0  0  0  0  0  0  0
   11.1829  -18.4168   24.3557 C   0  0  0  0  0  0  0  0  0  0  0  0
    9.9628  -19.0128   24.6367 O   0  0  0  0  0  0  0  0  0  0  0  0
   12.1531  -19.2625   24.2672 O   0  0  0  0  0  0  0  0  0  0  0  0
  1  2  1  0
  3  2  1  0
  4  5  1  0
  4  3  1  0
  5  1  1  0
  6  8  1  0
  5  6  1  1
  7  6  2  0
  9 20  1  0
  9  8  1  0
  9 10  1  6
 11 10  1  0
 11 19  1  0
 12 13  1  0
 12 11  2  0
 13 14  1  0
 14 15  2  0
 14 19  1  0
 15 16  1  0
 16 17  2  0
 18 17  1  0
 19 18  2  0
 20 22  1  0
 21 20  2  0
 22 23  1  0
 23 24  1  1
 24 25  1  0
 25 33  1  0
 25 26  2  0
 26 27  1  0
 28 27  1  0
 28 29  2  0
 30 29  1  0
 31 30  2  0
 32 33  2  0
 32 31  1  0
 33 28  1  0
 34 23  1  0
 34 35  1  0
 36 34  2  0
M  END
$$$$
