PWW.pdb
     RDKit          3D

 36 40  0  0  1  0  0  0  0  0999 V2000
    8.2300  -18.4646   18.1394 N   0  0  0  0  0  0  0  0  0  0  0  0
    7.9216  -18.7439   16.7583 C   0  0  0  0  0  0  0  0  0  0  0  0
    8.3141  -17.4654   16.0562 C   0  0  0  0  0  0  0  0  0  0  0  0
    9.4305  -16.9293   16.9060 C   0  0  0  0  0  0  0  0  0  0  0  0
    9.5361  -17.8733   18.0892 C   0  0  1  0  0  0  0  0  0  0  0  0
    9.8488  -17.0717   19.2974 C   0  0  0  0  0  0  0  0  0  0  0  0
   10.9314  -16.4697   19.4676 O   0  0  0  0  0  0  0  0  0  0  0  0
    8.8724  -16.9826   20.3102 N   0  0  0  0  0  0  0  0  0  0  0  0
    9.0293  -16.0751   21.4976 C   0  0  1  0  0  0  0  0  0  0  0  0
    7.7453  -15.4589   21.8084 C   0  0  0  0  0  0  0  0  0  0  0  0
    7.6342  -14.4121   22.8262 C   0  0  0  0  0  0  0  0  0  0  0  0
    7.8891  -13.0530   22.6609 C   0  0  0  0  0  0  0  0  0  0  0  0
    7.7119  -12.3783   23.7891 N   0  0  0  0  0  0  0  0  0  0  0  0
    7.3387  -13.2717   24.7200 C   0  0  0  0  0  0  0  0  0  0  0  0
    7.0189  -13.0294   26.0347 C   0  0  0  0  0  0  0  0  0  0  0  0
    6.6188  -14.0833   26.8461 C   0  0  0  0  0  0  0  0  0  0  0  0
    6.5624  -15.3364   26.2842 C   0  0  0  0  0  0  0  0  0  0  0  0
    6.8874  -15.5713   24.9608 C   0  0  0  0  0  0  0  0  0  0  0  0
    7.2830  -14.5342   24.1544 C   0  0  0  0  0  0  0  0  0  0  0  0
    9.8023  -16.8377   22.4591 C   0  0  0  0  0  0  0  0  0  0  0  0
    9.8359  -18.1344   22.3337 O   0  0  0  0  0  0  0  0  0  0  0  0
   10.5523  -16.2839   23.5393 N   0  0  0  0  0  0  0  0  0  0  0  0
   11.5266  -17.1170   24.1989 C   0  0  1  0  0  0  0  0  0  0  0  0
   12.0315  -16.3757   25.4530 C   0  0  0  0  0  0  0  0  0  0  0  0
   11.0372  -16.1931   26.5039 C   0  0  0  0  0  0  0  0  0  0  0  0
   10.1081  -17.1758   26.8757 C   0  0  0  0  0  0  0  0  0  0  0  0
    9.3194  -16.6971   27.8541 N   0  0  0  0  0  0  0  0  0  0  0  0
    9.6845  -15.4240   28.1569 C   0  0  0  0  0  0  0  0  0  0  0  0
    9.1736  -14.5561   29.0904 C   0  0  0  0  0  0  0  0  0  0  0  0
    9.7444  -13.2982   29.2168 C   0  0  0  0  0  0  0  0  0  0  0  0
   10.8055  -12.9909   28.3859 C   0  0  0  0  0  0  0  0  0  0  0  0
   11.2959  -13.8714   27.4624 C   0  0  0  0  0  0  0  0  0  0  0  0
   10.7426  -15.1286   27.3185 C   0  0  0  0  0  0  0  0  0  0  0  0
   11.1488  -18.5013   24.4523 C   0  0  0  0  0  0  0  0  0  0  0  0
    9.8691  -19.0231   24.3391 O   0  0  0  0  0  0  0  0  0  0  0  0
   12.0237  -19.3760   24.8181 O   0  0  0  0  0  0  0  0  0  0  0  0
  1  2  1  0
  3  2  1  0
  4  5  1  0
  4  3  1  0
  5  1  1  0
  6  8  1  0
  5  6  1  1
  7  6  2  0
  9 20  1  0
  9  8  1  0
  9 10  1  1
 11 10  1  0
 11 19  1  0
 12 13  1  0
 12 11  2  0
 13 14  1  0
 14 15  2  0
 14 19  1  0
 15 16  1  0
 16 17  2  0
 18 17  1  0
 19 18  2  0
 20 22  1  0
 21 20  2  0
 22 23  1  0
 23 24  1  1
 24 25  1  0
 25 33  1  0
 25 26  2  0
 26 27  1  0
 28 27  1  0
 28 29  2  0
 30 29  1  0
 31 30  2  0
 32 33  2  0
 32 31  1  0
 33 28  1  0
 34 23  1  0
 34 35  1  0
 36 34  2  0
M  END
$$$$
