PWW.pdb
     RDKit          3D

 36 40  0  0  1  0  0  0  0  0999 V2000
    8.3669  -15.4210   18.0170 N   0  0  0  0  0  0  0  0  0  0  0  0
    8.0495  -14.8859   16.7156 C   0  0  0  0  0  0  0  0  0  0  0  0
    7.8753  -13.4103   16.9871 C   0  0  0  0  0  0  0  0  0  0  0  0
    8.7944  -13.1583   18.1481 C   0  0  0  0  0  0  0  0  0  0  0  0
    9.3535  -14.5156   18.5317 C   0  0  1  0  0  0  0  0  0  0  0  0
    9.4666  -14.5714   20.0095 C   0  0  0  0  0  0  0  0  0  0  0  0
   10.2269  -13.8339   20.6740 O   0  0  0  0  0  0  0  0  0  0  0  0
    8.6734  -15.5066   20.7047 N   0  0  0  0  0  0  0  0  0  0  0  0
    8.5594  -15.5049   22.2031 C   0  0  1  0  0  0  0  0  0  0  0  0
    7.1626  -15.6786   22.5820 C   0  0  0  0  0  0  0  0  0  0  0  0
    6.7099  -15.4126   23.9490 C   0  0  0  0  0  0  0  0  0  0  0  0
    6.1521  -16.3269   24.8391 C   0  0  0  0  0  0  0  0  0  0  0  0
    5.8312  -15.7569   25.9931 N   0  0  0  0  0  0  0  0  0  0  0  0
    6.1672  -14.4605   25.8914 C   0  0  0  0  0  0  0  0  0  0  0  0
    6.0447  -13.4844   26.8514 C   0  0  0  0  0  0  0  0  0  0  0  0
    6.4808  -12.1951   26.5746 C   0  0  0  0  0  0  0  0  0  0  0  0
    7.0217  -11.9563   25.3338 C   0  0  0  0  0  0  0  0  0  0  0  0
    7.1398  -12.9442   24.3734 C   0  0  0  0  0  0  0  0  0  0  0  0
    6.7109  -14.2196   24.6412 C   0  0  0  0  0  0  0  0  0  0  0  0
    9.6259  -16.3718   22.6663 C   0  0  0  0  0  0  0  0  0  0  0  0
    9.9890  -17.3641   21.9036 O   0  0  0  0  0  0  0  0  0  0  0  0
   10.3332  -16.2238   23.8966 N   0  0  0  0  0  0  0  0  0  0  0  0
   11.3394  -17.1998   24.2335 C   0  0  1  0  0  0  0  0  0  0  0  0
   12.2607  -16.5963   25.3126 C   0  0  0  0  0  0  0  0  0  0  0  0
   11.6096  -16.2971   26.5826 C   0  0  0  0  0  0  0  0  0  0  0  0
   11.0771  -17.2763   27.4340 C   0  0  0  0  0  0  0  0  0  0  0  0
   10.5293  -16.6828   28.5093 N   0  0  0  0  0  0  0  0  0  0  0  0
   10.6743  -15.3354   28.4140 C   0  0  0  0  0  0  0  0  0  0  0  0
   10.2842  -14.3411   29.2769 C   0  0  0  0  0  0  0  0  0  0  0  0
   10.5710  -13.0233   28.9522 C   0  0  0  0  0  0  0  0  0  0  0  0
   11.2402  -12.7881   27.7657 C   0  0  0  0  0  0  0  0  0  0  0  0
   11.6171  -13.7949   26.9214 C   0  0  0  0  0  0  0  0  0  0  0  0
   11.3411  -15.1139   27.2240 C   0  0  0  0  0  0  0  0  0  0  0  0
   10.8759  -18.5449   24.5482 C   0  0  0  0  0  0  0  0  0  0  0  0
   11.6487  -19.6956   24.5085 O   0  0  0  0  0  0  0  0  0  0  0  0
    9.6547  -18.7649   24.9009 O   0  0  0  0  0  0  0  0  0  0  0  0
  1  2  1  0
  3  2  1  0
  4  5  1  0
  4  3  1  0
  5  1  1  0
  6  8  1  0
  5  6  1  1
  7  6  2  0
  9 20  1  0
  9  8  1  0
  9 10  1  6
 11 10  1  0
 11 19  1  0
 12 13  1  0
 12 11  2  0
 13 14  1  0
 14 15  2  0
 14 19  1  0
 15 16  1  0
 16 17  2  0
 18 17  1  0
 19 18  2  0
 20 22  1  0
 21 20  2  0
 22 23  1  0
 23 24  1  1
 24 25  1  0
 25 33  1  0
 25 26  2  0
 26 27  1  0
 28 27  1  0
 28 29  2  0
 30 29  1  0
 31 30  2  0
 32 33  2  0
 32 31  1  0
 33 28  1  0
 34 23  1  0
 34 35  1  0
 36 34  2  0
M  END
$$$$
