PWW.pdb
     RDKit          3D

 36 40  0  0  1  0  0  0  0  0999 V2000
    6.7774  -18.4687   24.4719 N   0  0  0  0  0  0  0  0  0  0  0  0
    5.5943  -19.0722   25.0345 C   0  0  0  0  0  0  0  0  0  0  0  0
    5.5353  -20.4144   24.3444 C   0  0  0  0  0  0  0  0  0  0  0  0
    6.9784  -20.7317   24.0745 C   0  0  0  0  0  0  0  0  0  0  0  0
    7.7592  -19.5130   24.5300 C   0  0  1  0  0  0  0  0  0  0  0  0
    8.8805  -19.2983   23.5831 C   0  0  0  0  0  0  0  0  0  0  0  0
    9.8252  -20.1039   23.4349 O   0  0  0  0  0  0  0  0  0  0  0  0
    8.8822  -18.1219   22.8065 N   0  0  0  0  0  0  0  0  0  0  0  0
   10.0000  -17.7880   21.8593 C   0  0  1  0  0  0  0  0  0  0  0  0
    9.4443  -17.2264   20.6343 C   0  0  0  0  0  0  0  0  0  0  0  0
    9.2645  -15.7817   20.4769 C   0  0  0  0  0  0  0  0  0  0  0  0
    9.9933  -14.9326   19.6478 C   0  0  0  0  0  0  0  0  0  0  0  0
    9.5897  -13.6737   19.7559 N   0  0  0  0  0  0  0  0  0  0  0  0
    8.5914  -13.6628   20.6543 C   0  0  0  0  0  0  0  0  0  0  0  0
    7.8478  -12.5837   21.0689 C   0  0  0  0  0  0  0  0  0  0  0  0
    6.8245  -12.7720   21.9891 C   0  0  0  0  0  0  0  0  0  0  0  0
    6.6037  -14.0492   22.4464 C   0  0  0  0  0  0  0  0  0  0  0  0
    7.3578  -15.1289   22.0248 C   0  0  0  0  0  0  0  0  0  0  0  0
    8.3697  -14.9491   21.1159 C   0  0  0  0  0  0  0  0  0  0  0  0
   10.9943  -17.1101   22.6689 C   0  0  0  0  0  0  0  0  0  0  0  0
   12.2010  -16.9910   22.1916 O   0  0  0  0  0  0  0  0  0  0  0  0
   10.7609  -16.5411   23.9564 N   0  0  0  0  0  0  0  0  0  0  0  0
   11.8480  -15.8611   24.6155 C   0  0  1  0  0  0  0  0  0  0  0  0
   11.3180  -14.5267   25.1773 C   0  0  0  0  0  0  0  0  0  0  0  0
   10.1425  -14.6407   26.0326 C   0  0  0  0  0  0  0  0  0  0  0  0
   10.0866  -15.4536   27.1743 C   0  0  0  0  0  0  0  0  0  0  0  0
    8.8664  -15.3575   27.7313 N   0  0  0  0  0  0  0  0  0  0  0  0
    8.0956  -14.5064   27.0052 C   0  0  0  0  0  0  0  0  0  0  0  0
    6.7991  -14.0999   27.2037 C   0  0  0  0  0  0  0  0  0  0  0  0
    6.2384  -13.1951   26.3142 C   0  0  0  0  0  0  0  0  0  0  0  0
    7.0281  -12.7519   25.2698 C   0  0  0  0  0  0  0  0  0  0  0  0
    8.3165  -13.1724   25.0917 C   0  0  0  0  0  0  0  0  0  0  0  0
    8.8948  -14.0734   25.9641 C   0  0  0  0  0  0  0  0  0  0  0  0
   12.6227  -16.6326   25.5786 C   0  0  0  0  0  0  0  0  0  0  0  0
   13.8346  -16.2493   26.1330 O   0  0  0  0  0  0  0  0  0  0  0  0
   12.2123  -17.7811   25.9991 O   0  0  0  0  0  0  0  0  0  0  0  0
  1  2  1  0
  3  2  1  0
  4  5  1  0
  4  3  1  0
  5  1  1  0
  6  8  1  0
  5  6  1  6
  7  6  2  0
  9 20  1  0
  9  8  1  0
  9 10  1  6
 11 10  1  0
 11 19  1  0
 12 13  1  0
 12 11  2  0
 13 14  1  0
 14 15  2  0
 14 19  1  0
 15 16  1  0
 16 17  2  0
 18 17  1  0
 19 18  2  0
 20 22  1  0
 21 20  2  0
 22 23  1  0
 23 24  1  1
 24 25  1  0
 25 33  1  0
 25 26  2  0
 26 27  1  0
 28 27  1  0
 28 29  2  0
 30 29  1  0
 31 30  2  0
 32 33  2  0
 32 31  1  0
 33 28  1  0
 34 23  1  0
 34 35  1  0
 36 34  2  0
M  END
$$$$
