PWW.pdb
     RDKit          3D

 36 40  0  0  1  0  0  0  0  0999 V2000
    7.7595  -18.6484   18.7534 N   0  0  0  0  0  0  0  0  0  0  0  0
    7.3855  -19.1126   17.4399 C   0  0  0  0  0  0  0  0  0  0  0  0
    7.8544  -17.9957   16.5375 C   0  0  0  0  0  0  0  0  0  0  0  0
    9.0365  -17.4283   17.2701 C   0  0  0  0  0  0  0  0  0  0  0  0
    9.1057  -18.1823   18.5850 C   0  0  1  0  0  0  0  0  0  0  0  0
    9.5195  -17.2314   19.6454 C   0  0  0  0  0  0  0  0  0  0  0  0
   10.6448  -16.6878   19.6871 O   0  0  0  0  0  0  0  0  0  0  0  0
    8.5940  -16.9222   20.6627 N   0  0  0  0  0  0  0  0  0  0  0  0
    8.8626  -15.8659   21.6972 C   0  0  1  0  0  0  0  0  0  0  0  0
    7.6204  -15.1719   22.0135 C   0  0  0  0  0  0  0  0  0  0  0  0
    7.6220  -13.9365   22.7997 C   0  0  0  0  0  0  0  0  0  0  0  0
    7.9633  -12.6616   22.3552 C   0  0  0  0  0  0  0  0  0  0  0  0
    7.8778  -11.7625   23.3267 N   0  0  0  0  0  0  0  0  0  0  0  0
    7.4811  -12.4198   24.4288 C   0  0  0  0  0  0  0  0  0  0  0  0
    7.2310  -11.8947   25.6742 C   0  0  0  0  0  0  0  0  0  0  0  0
    6.7917  -12.7307   26.6927 C   0  0  0  0  0  0  0  0  0  0  0  0
    6.6268  -14.0632   26.3989 C   0  0  0  0  0  0  0  0  0  0  0  0
    6.8822  -14.5832   25.1432 C   0  0  0  0  0  0  0  0  0  0  0  0
    7.3161  -13.7622   24.1332 C   0  0  0  0  0  0  0  0  0  0  0  0
    9.6915  -16.5139   22.6955 C   0  0  0  0  0  0  0  0  0  0  0  0
    9.6547  -17.8139   22.7779 O   0  0  0  0  0  0  0  0  0  0  0  0
   10.5680  -15.8440   23.6006 N   0  0  0  0  0  0  0  0  0  0  0  0
   11.3900  -16.6395   24.4781 C   0  0  1  0  0  0  0  0  0  0  0  0
   10.4658  -17.4425   25.4153 C   0  0  0  0  0  0  0  0  0  0  0  0
    9.6695  -16.6378   26.3344 C   0  0  0  0  0  0  0  0  0  0  0  0
    8.2685  -16.6767   26.3896 C   0  0  0  0  0  0  0  0  0  0  0  0
    7.8342  -15.8086   27.3204 N   0  0  0  0  0  0  0  0  0  0  0  0
    8.8944  -15.1848   27.8970 C   0  0  0  0  0  0  0  0  0  0  0  0
    8.9298  -14.2402   28.8930 C   0  0  0  0  0  0  0  0  0  0  0  0
   10.1611  -13.7681   29.3235 C   0  0  0  0  0  0  0  0  0  0  0  0
   11.2912  -14.2833   28.7168 C   0  0  0  0  0  0  0  0  0  0  0  0
   11.2309  -15.2224   27.7253 C   0  0  0  0  0  0  0  0  0  0  0  0
   10.0161  -15.7059   27.2804 C   0  0  0  0  0  0  0  0  0  0  0  0
   12.4325  -17.4454   23.8563 C   0  0  0  0  0  0  0  0  0  0  0  0
   13.5320  -17.9852   24.5063 O   0  0  0  0  0  0  0  0  0  0  0  0
   12.4004  -17.7226   22.5967 O   0  0  0  0  0  0  0  0  0  0  0  0
  1  2  1  0
  3  2  1  0
  4  5  1  0
  4  3  1  0
  5  1  1  0
  6  8  1  0
  5  6  1  1
  7  6  2  0
  9 20  1  0
  9  8  1  0
  9 10  1  1
 11 10  1  0
 11 19  1  0
 12 13  1  0
 12 11  2  0
 13 14  1  0
 14 15  2  0
 14 19  1  0
 15 16  1  0
 16 17  2  0
 18 17  1  0
 19 18  2  0
 20 22  1  0
 21 20  2  0
 22 23  1  0
 23 24  1  6
 24 25  1  0
 25 33  1  0
 25 26  2  0
 26 27  1  0
 28 27  1  0
 28 29  2  0
 30 29  1  0
 31 30  2  0
 32 33  2  0
 32 31  1  0
 33 28  1  0
 34 23  1  0
 34 35  1  0
 36 34  2  0
M  END
$$$$
