PWW.pdb
     RDKit          3D

 36 40  0  0  1  0  0  0  0  0999 V2000
    8.4963  -18.0394   19.1916 N   0  0  0  0  0  0  0  0  0  0  0  0
    8.0736  -18.4077   17.8626 C   0  0  0  0  0  0  0  0  0  0  0  0
    7.7410  -17.0771   17.2299 C   0  0  0  0  0  0  0  0  0  0  0  0
    8.6656  -16.1192   17.9252 C   0  0  0  0  0  0  0  0  0  0  0  0
    9.3901  -16.9380   18.9773 C   0  0  1  0  0  0  0  0  0  0  0  0
    9.5612  -16.0955   20.1860 C   0  0  0  0  0  0  0  0  0  0  0  0
   10.3293  -15.1103   20.2401 O   0  0  0  0  0  0  0  0  0  0  0  0
    8.8172  -16.4221   21.3378 N   0  0  0  0  0  0  0  0  0  0  0  0
    8.7401  -15.5086   22.5284 C   0  0  1  0  0  0  0  0  0  0  0  0
    7.4220  -15.6219   23.1405 C   0  0  0  0  0  0  0  0  0  0  0  0
    7.1267  -14.9861   24.4261 C   0  0  0  0  0  0  0  0  0  0  0  0
    6.6768  -15.6119   25.5860 C   0  0  0  0  0  0  0  0  0  0  0  0
    6.4872  -14.7442   26.5713 N   0  0  0  0  0  0  0  0  0  0  0  0
    6.8050  -13.5325   26.0868 C   0  0  0  0  0  0  0  0  0  0  0  0
    6.7890  -12.3314   26.7549 C   0  0  0  0  0  0  0  0  0  0  0  0
    7.1864  -11.1764   26.0938 C   0  0  0  0  0  0  0  0  0  0  0  0
    7.5820  -11.2947   24.7828 C   0  0  0  0  0  0  0  0  0  0  0  0
    7.5936  -12.5072   24.1180 C   0  0  0  0  0  0  0  0  0  0  0  0
    7.2023  -13.6515   24.7659 C   0  0  0  0  0  0  0  0  0  0  0  0
    9.9779  -15.7237   23.2531 C   0  0  0  0  0  0  0  0  0  0  0  0
   10.7161  -14.6871   23.5337 O   0  0  0  0  0  0  0  0  0  0  0  0
   10.4598  -16.9884   23.7050 N   0  0  0  0  0  0  0  0  0  0  0  0
   11.7314  -17.0381   24.3827 C   0  0  1  0  0  0  0  0  0  0  0  0
   11.5339  -17.7493   25.7363 C   0  0  0  0  0  0  0  0  0  0  0  0
   10.4907  -17.1839   26.5839 C   0  0  0  0  0  0  0  0  0  0  0  0
    9.3291  -17.8767   26.9555 C   0  0  0  0  0  0  0  0  0  0  0  0
    8.5594  -17.0805   27.7185 N   0  0  0  0  0  0  0  0  0  0  0  0
    9.1619  -15.8731   27.8760 C   0  0  0  0  0  0  0  0  0  0  0  0
    8.7531  -14.7660   28.5781 C   0  0  0  0  0  0  0  0  0  0  0  0
    9.5717  -13.6463   28.5969 C   0  0  0  0  0  0  0  0  0  0  0  0
   10.7635  -13.7135   27.8997 C   0  0  0  0  0  0  0  0  0  0  0  0
   11.1484  -14.8268   27.2061 C   0  0  0  0  0  0  0  0  0  0  0  0
   10.3490  -15.9525   27.1729 C   0  0  0  0  0  0  0  0  0  0  0  0
   12.8670  -17.5401   23.6203 C   0  0  0  0  0  0  0  0  0  0  0  0
   14.1877  -17.5395   24.0432 O   0  0  0  0  0  0  0  0  0  0  0  0
   12.7111  -18.0422   22.4422 O   0  0  0  0  0  0  0  0  0  0  0  0
  1  2  1  0
  3  2  1  0
  4  5  1  0
  4  3  1  0
  5  1  1  0
  6  8  1  0
  5  6  1  1
  7  6  2  0
  9 20  1  0
  9  8  1  0
  9 10  1  1
 11 10  1  0
 11 19  1  0
 12 13  1  0
 12 11  2  0
 13 14  1  0
 14 15  2  0
 14 19  1  0
 15 16  1  0
 16 17  2  0
 18 17  1  0
 19 18  2  0
 20 22  1  0
 21 20  2  0
 22 23  1  0
 23 24  1  1
 24 25  1  0
 25 33  1  0
 25 26  2  0
 26 27  1  0
 28 27  1  0
 28 29  2  0
 30 29  1  0
 31 30  2  0
 32 33  2  0
 32 31  1  0
 33 28  1  0
 34 23  1  0
 34 35  1  0
 36 34  2  0
M  END
$$$$
