PWW.pdb
     RDKit          3D

 36 40  0  0  1  0  0  0  0  0999 V2000
    8.3506  -15.2800   18.2554 N   0  0  0  0  0  0  0  0  0  0  0  0
    7.9875  -14.7357   16.9699 C   0  0  0  0  0  0  0  0  0  0  0  0
    7.6676  -13.2943   17.2882 C   0  0  0  0  0  0  0  0  0  0  0  0
    8.5524  -12.9919   18.4636 C   0  0  0  0  0  0  0  0  0  0  0  0
    9.2410  -14.2996   18.8069 C   0  0  1  0  0  0  0  0  0  0  0  0
    9.3527  -14.3931   20.2829 C   0  0  0  0  0  0  0  0  0  0  0  0
    9.9767  -13.5667   20.9837 O   0  0  0  0  0  0  0  0  0  0  0  0
    8.7207  -15.4725   20.9329 N   0  0  0  0  0  0  0  0  0  0  0  0
    8.6126  -15.5553   22.4295 C   0  0  1  0  0  0  0  0  0  0  0  0
    7.2279  -15.8190   22.8005 C   0  0  0  0  0  0  0  0  0  0  0  0
    6.7189  -15.4664   24.1275 C   0  0  0  0  0  0  0  0  0  0  0  0
    6.1642  -16.3304   25.0683 C   0  0  0  0  0  0  0  0  0  0  0  0
    5.7832  -15.6862   26.1635 N   0  0  0  0  0  0  0  0  0  0  0  0
    6.0755  -14.3894   25.9714 C   0  0  0  0  0  0  0  0  0  0  0  0
    5.8846  -13.3478   26.8478 C   0  0  0  0  0  0  0  0  0  0  0  0
    6.2832  -12.0677   26.4849 C   0  0  0  0  0  0  0  0  0  0  0  0
    6.8576  -11.9044   25.2470 C   0  0  0  0  0  0  0  0  0  0  0  0
    7.0444  -12.9579   24.3710 C   0  0  0  0  0  0  0  0  0  0  0  0
    6.6529  -14.2246   24.7240 C   0  0  0  0  0  0  0  0  0  0  0  0
    9.7233  -16.3903   22.8450 C   0  0  0  0  0  0  0  0  0  0  0  0
   10.1054  -17.3489   22.0492 O   0  0  0  0  0  0  0  0  0  0  0  0
   10.4550  -16.2441   24.0613 N   0  0  0  0  0  0  0  0  0  0  0  0
   11.4834  -17.2076   24.3657 C   0  0  1  0  0  0  0  0  0  0  0  0
   12.4314  -16.5925   25.4145 C   0  0  0  0  0  0  0  0  0  0  0  0
   11.8008  -16.2288   26.6781 C   0  0  0  0  0  0  0  0  0  0  0  0
   11.4504  -17.1577   27.6688 C   0  0  0  0  0  0  0  0  0  0  0  0
   10.8716  -16.5150   28.6986 N   0  0  0  0  0  0  0  0  0  0  0  0
   10.8197  -15.1827   28.4378 C   0  0  0  0  0  0  0  0  0  0  0  0
   10.3307  -14.1510   29.2007 C   0  0  0  0  0  0  0  0  0  0  0  0
   10.4131  -12.8571   28.7072 C   0  0  0  0  0  0  0  0  0  0  0  0
   10.9895  -12.6827   27.4630 C   0  0  0  0  0  0  0  0  0  0  0  0
   11.4680  -13.7262   26.7208 C   0  0  0  0  0  0  0  0  0  0  0  0
   11.3955  -15.0224   27.1918 C   0  0  0  0  0  0  0  0  0  0  0  0
   11.0467  -18.5581   24.6950 C   0  0  0  0  0  0  0  0  0  0  0  0
    9.7696  -18.9186   25.0975 O   0  0  0  0  0  0  0  0  0  0  0  0
   11.8604  -19.5571   24.6318 O   0  0  0  0  0  0  0  0  0  0  0  0
  1  2  1  0
  3  2  1  0
  4  5  1  0
  4  3  1  0
  5  1  1  0
  6  8  1  0
  5  6  1  1
  7  6  2  0
  9 20  1  0
  9  8  1  0
  9 10  1  6
 11 10  1  0
 11 19  1  0
 12 13  1  0
 12 11  2  0
 13 14  1  0
 14 15  2  0
 14 19  1  0
 15 16  1  0
 16 17  2  0
 18 17  1  0
 19 18  2  0
 20 22  1  0
 21 20  2  0
 22 23  1  0
 23 24  1  1
 24 25  1  0
 25 33  1  0
 25 26  2  0
 26 27  1  0
 28 27  1  0
 28 29  2  0
 30 29  1  0
 31 30  2  0
 32 33  2  0
 32 31  1  0
 33 28  1  0
 34 23  1  0
 34 35  1  0
 36 34  2  0
M  END
$$$$
