PWW.pdb
     RDKit          3D

 36 40  0  0  1  0  0  0  0  0999 V2000
    8.7000  -15.6282   17.6531 N   0  0  0  0  0  0  0  0  0  0  0  0
    8.6122  -15.0575   16.3313 C   0  0  0  0  0  0  0  0  0  0  0  0
    7.6315  -13.9234   16.5142 C   0  0  0  0  0  0  0  0  0  0  0  0
    7.8422  -13.5067   17.9417 C   0  0  0  0  0  0  0  0  0  0  0  0
    8.8481  -14.4890   18.5123 C   0  0  1  0  0  0  0  0  0  0  0  0
    8.4705  -14.7782   19.9172 C   0  0  0  0  0  0  0  0  0  0  0  0
    8.3806  -13.9017   20.8043 O   0  0  0  0  0  0  0  0  0  0  0  0
    8.1973  -16.1145   20.2732 N   0  0  0  0  0  0  0  0  0  0  0  0
    7.7378  -16.4994   21.6512 C   0  0  1  0  0  0  0  0  0  0  0  0
    7.0208  -17.7668   21.5855 C   0  0  0  0  0  0  0  0  0  0  0  0
    6.7017  -18.5203   22.7999 C   0  0  0  0  0  0  0  0  0  0  0  0
    5.6910  -18.2419   23.7167 C   0  0  0  0  0  0  0  0  0  0  0  0
    5.6834  -19.1103   24.7193 N   0  0  0  0  0  0  0  0  0  0  0  0
    6.6837  -19.9766   24.4890 C   0  0  0  0  0  0  0  0  0  0  0  0
    7.0407  -21.0663   25.2469 C   0  0  0  0  0  0  0  0  0  0  0  0
    8.0909  -21.8741   24.8298 C   0  0  0  0  0  0  0  0  0  0  0  0
    8.7308  -21.5373   23.6610 C   0  0  0  0  0  0  0  0  0  0  0  0
    8.3657  -20.4380   22.9056 C   0  0  0  0  0  0  0  0  0  0  0  0
    7.3291  -19.6365   23.3124 C   0  0  0  0  0  0  0  0  0  0  0  0
    8.8843  -16.2744   22.5106 C   0  0  0  0  0  0  0  0  0  0  0  0
   10.0748  -16.4187   22.0007 O   0  0  0  0  0  0  0  0  0  0  0  0
    8.8230  -15.8896   23.8833 N   0  0  0  0  0  0  0  0  0  0  0  0
   10.0527  -15.8126   24.6319 C   0  0  1  0  0  0  0  0  0  0  0  0
    9.9190  -14.6826   25.6723 C   0  0  0  0  0  0  0  0  0  0  0  0
    8.5581  -14.4184   26.1248 C   0  0  0  0  0  0  0  0  0  0  0  0
    7.6772  -15.4163   26.5667 C   0  0  0  0  0  0  0  0  0  0  0  0
    6.4983  -14.8581   26.8937 N   0  0  0  0  0  0  0  0  0  0  0  0
    6.5526  -13.5162   26.6886 C   0  0  0  0  0  0  0  0  0  0  0  0
    5.5981  -12.5509   26.8949 C   0  0  0  0  0  0  0  0  0  0  0  0
    5.9140  -11.2285   26.6197 C   0  0  0  0  0  0  0  0  0  0  0  0
    7.1856  -10.9593   26.1491 C   0  0  0  0  0  0  0  0  0  0  0  0
    8.1190  -11.9380   25.9499 C   0  0  0  0  0  0  0  0  0  0  0  0
    7.8261  -13.2611   26.2162 C   0  0  0  0  0  0  0  0  0  0  0  0
   10.5677  -17.0578   25.1862 C   0  0  0  0  0  0  0  0  0  0  0  0
   11.8481  -17.2530   25.6815 O   0  0  0  0  0  0  0  0  0  0  0  0
    9.8299  -18.1138   25.2549 O   0  0  0  0  0  0  0  0  0  0  0  0
  1  2  1  0
  3  2  1  0
  4  5  1  0
  4  3  1  0
  5  1  1  0
  6  8  1  0
  5  6  1  1
  7  6  2  0
  9 20  1  0
  9  8  1  0
  9 10  1  6
 11 10  1  0
 11 19  1  0
 12 13  1  0
 12 11  2  0
 13 14  1  0
 14 15  2  0
 14 19  1  0
 15 16  1  0
 16 17  2  0
 18 17  1  0
 19 18  2  0
 20 22  1  0
 21 20  2  0
 22 23  1  0
 23 24  1  1
 24 25  1  0
 25 33  1  0
 25 26  2  0
 26 27  1  0
 28 27  1  0
 28 29  2  0
 30 29  1  0
 31 30  2  0
 32 33  2  0
 32 31  1  0
 33 28  1  0
 34 23  1  0
 34 35  1  0
 36 34  2  0
M  END
$$$$
