PWW.pdb
     RDKit          3D

 36 40  0  0  1  0  0  0  0  0999 V2000
    8.2970  -15.6764   19.0492 N   0  0  0  0  0  0  0  0  0  0  0  0
    7.8538  -15.0885   17.8089 C   0  0  0  0  0  0  0  0  0  0  0  0
    7.7176  -13.6246   18.1551 C   0  0  0  0  0  0  0  0  0  0  0  0
    8.7506  -13.4220   19.2265 C   0  0  0  0  0  0  0  0  0  0  0  0
    9.3365  -14.7951   19.4974 C   0  0  1  0  0  0  0  0  0  0  0  0
    9.5974  -14.9106   20.9529 C   0  0  0  0  0  0  0  0  0  0  0  0
   10.2841  -14.0905   21.6004 O   0  0  0  0  0  0  0  0  0  0  0  0
    9.0407  -16.0047   21.6459 N   0  0  0  0  0  0  0  0  0  0  0  0
    8.9456  -16.0399   23.1452 C   0  0  1  0  0  0  0  0  0  0  0  0
    7.5428  -16.0276   23.5412 C   0  0  0  0  0  0  0  0  0  0  0  0
    6.8274  -14.7682   23.7561 C   0  0  0  0  0  0  0  0  0  0  0  0
    5.9564  -14.1383   22.8706 C   0  0  0  0  0  0  0  0  0  0  0  0
    5.4908  -12.9990   23.3652 N   0  0  0  0  0  0  0  0  0  0  0  0
    6.0413  -12.8511   24.5814 C   0  0  0  0  0  0  0  0  0  0  0  0
    5.8309  -11.8317   25.4791 C   0  0  0  0  0  0  0  0  0  0  0  0
    6.4675  -11.8656   26.7131 C   0  0  0  0  0  0  0  0  0  0  0  0
    7.2897  -12.9345   26.9786 C   0  0  0  0  0  0  0  0  0  0  0  0
    7.4967  -13.9551   26.0688 C   0  0  0  0  0  0  0  0  0  0  0  0
    6.8705  -13.9272   24.8484 C   0  0  0  0  0  0  0  0  0  0  0  0
    9.8836  -17.0647   23.5614 C   0  0  0  0  0  0  0  0  0  0  0  0
   10.1525  -18.0297   22.7279 O   0  0  0  0  0  0  0  0  0  0  0  0
   10.5593  -17.1030   24.8176 N   0  0  0  0  0  0  0  0  0  0  0  0
   11.5477  -18.1296   25.0363 C   0  0  1  0  0  0  0  0  0  0  0  0
   12.5563  -17.6185   26.0844 C   0  0  0  0  0  0  0  0  0  0  0  0
   11.9790  -17.2687   27.3770 C   0  0  0  0  0  0  0  0  0  0  0  0
   11.9059  -18.1543   28.4621 C   0  0  0  0  0  0  0  0  0  0  0  0
   11.3038  -17.5428   29.4975 N   0  0  0  0  0  0  0  0  0  0  0  0
   10.9681  -16.2733   29.1493 C   0  0  0  0  0  0  0  0  0  0  0  0
   10.3539  -15.2884   29.8829 C   0  0  0  0  0  0  0  0  0  0  0  0
   10.1368  -14.0519   29.2927 C   0  0  0  0  0  0  0  0  0  0  0  0
   10.5570  -13.8840   27.9865 C   0  0  0  0  0  0  0  0  0  0  0  0
   11.1651  -14.8806   27.2754 C   0  0  0  0  0  0  0  0  0  0  0  0
   11.3905  -16.1196   27.8424 C   0  0  0  0  0  0  0  0  0  0  0  0
   11.0552  -19.4737   25.3077 C   0  0  0  0  0  0  0  0  0  0  0  0
   11.8197  -20.6306   25.3023 O   0  0  0  0  0  0  0  0  0  0  0  0
    9.8131  -19.6868   25.5836 O   0  0  0  0  0  0  0  0  0  0  0  0
  1  2  1  0
  3  2  1  0
  4  5  1  0
  4  3  1  0
  5  1  1  0
  6  8  1  0
  5  6  1  1
  7  6  2  0
  9 20  1  0
  9  8  1  0
  9 10  1  6
 11 10  1  0
 11 19  1  0
 12 13  1  0
 12 11  2  0
 13 14  1  0
 14 15  2  0
 14 19  1  0
 15 16  1  0
 16 17  2  0
 18 17  1  0
 19 18  2  0
 20 22  1  0
 21 20  2  0
 22 23  1  0
 23 24  1  1
 24 25  1  0
 25 33  1  0
 25 26  2  0
 26 27  1  0
 28 27  1  0
 28 29  2  0
 30 29  1  0
 31 30  2  0
 32 33  2  0
 32 31  1  0
 33 28  1  0
 34 23  1  0
 34 35  1  0
 36 34  2  0
M  END
$$$$
