PWW.pdb
     RDKit          3D

 36 40  0  0  1  0  0  0  0  0999 V2000
    9.6242  -16.8766   16.9987 N   0  0  0  0  0  0  0  0  0  0  0  0
   10.0057  -17.8944   16.0506 C   0  0  0  0  0  0  0  0  0  0  0  0
   11.0036  -18.7237   16.8239 C   0  0  0  0  0  0  0  0  0  0  0  0
   10.5454  -18.5830   18.2474 C   0  0  0  0  0  0  0  0  0  0  0  0
    9.3855  -17.6055   18.2110 C   0  0  1  0  0  0  0  0  0  0  0  0
    9.4614  -16.7484   19.4191 C   0  0  0  0  0  0  0  0  0  0  0  0
   10.0737  -15.6589   19.4577 O   0  0  0  0  0  0  0  0  0  0  0  0
    8.8072  -17.1847   20.5891 N   0  0  0  0  0  0  0  0  0  0  0  0
    8.7702  -16.3576   21.8431 C   0  0  1  0  0  0  0  0  0  0  0  0
    7.4005  -16.2894   22.3373 C   0  0  0  0  0  0  0  0  0  0  0  0
    7.0786  -15.5902   23.5829 C   0  0  0  0  0  0  0  0  0  0  0  0
    6.8078  -16.1672   24.8211 C   0  0  0  0  0  0  0  0  0  0  0  0
    6.5338  -15.2517   25.7411 N   0  0  0  0  0  0  0  0  0  0  0  0
    6.6163  -14.0562   25.1345 C   0  0  0  0  0  0  0  0  0  0  0  0
    6.4391  -12.8154   25.6986 C   0  0  0  0  0  0  0  0  0  0  0  0
    6.5991  -11.6795   24.9153 C   0  0  0  0  0  0  0  0  0  0  0  0
    6.9319  -11.8567   23.5936 C   0  0  0  0  0  0  0  0  0  0  0  0
    7.1068  -13.1091   23.0341 C   0  0  0  0  0  0  0  0  0  0  0  0
    6.9502  -14.2347   23.8028 C   0  0  0  0  0  0  0  0  0  0  0  0
    9.8847  -16.8293   22.6424 C   0  0  0  0  0  0  0  0  0  0  0  0
   10.4304  -17.9699   22.3271 O   0  0  0  0  0  0  0  0  0  0  0  0
   10.4543  -16.1375   23.7528 N   0  0  0  0  0  0  0  0  0  0  0  0
   11.6400  -16.6807   24.3673 C   0  0  1  0  0  0  0  0  0  0  0  0
   12.0138  -15.7937   25.5717 C   0  0  0  0  0  0  0  0  0  0  0  0
   11.3767  -16.1623   26.8306 C   0  0  0  0  0  0  0  0  0  0  0  0
   11.6327  -17.3620   27.5105 C   0  0  0  0  0  0  0  0  0  0  0  0
   10.8778  -17.4149   28.6222 N   0  0  0  0  0  0  0  0  0  0  0  0
   10.1206  -16.2909   28.7172 C   0  0  0  0  0  0  0  0  0  0  0  0
    9.2204  -15.9103   29.6817 C   0  0  0  0  0  0  0  0  0  0  0  0
    8.5812  -14.6859   29.5539 C   0  0  0  0  0  0  0  0  0  0  0  0
    8.8929  -13.9137   28.4505 C   0  0  0  0  0  0  0  0  0  0  0  0
    9.7918  -14.3148   27.5020 C   0  0  0  0  0  0  0  0  0  0  0  0
   10.4391  -15.5301   27.6083 C   0  0  0  0  0  0  0  0  0  0  0  0
   11.6324  -18.1055   24.6723 C   0  0  0  0  0  0  0  0  0  0  0  0
   12.7539  -18.8894   24.8973 O   0  0  0  0  0  0  0  0  0  0  0  0
   10.5266  -18.7646   24.7560 O   0  0  0  0  0  0  0  0  0  0  0  0
  1  2  1  0
  3  2  1  0
  4  5  1  0
  4  3  1  0
  5  1  1  0
  6  8  1  0
  5  6  1  1
  7  6  2  0
  9 20  1  0
  9  8  1  0
  9 10  1  1
 11 10  1  0
 11 19  1  0
 12 13  1  0
 12 11  2  0
 13 14  1  0
 14 15  2  0
 14 19  1  0
 15 16  1  0
 16 17  2  0
 18 17  1  0
 19 18  2  0
 20 22  1  0
 21 20  2  0
 22 23  1  0
 23 24  1  1
 24 25  1  0
 25 33  1  0
 25 26  2  0
 26 27  1  0
 28 27  1  0
 28 29  2  0
 30 29  1  0
 31 30  2  0
 32 33  2  0
 32 31  1  0
 33 28  1  0
 34 23  1  0
 34 35  1  0
 36 34  2  0
M  END
$$$$
