TLP.pdb
     RDKit          3D

 23 23  0  0  1  0  0  0  0  0999 V2000
    9.6656  -19.5623   18.5658 C   0  0  0  0  0  0  0  0  0  0  0  0
   10.7747  -18.9057   17.8070 C   0  0  1  0  0  0  0  0  0  0  0  0
   11.0755  -19.6402   16.6556 O   0  0  0  0  0  0  0  0  0  0  0  0
   10.4549  -17.4885   17.3952 C   0  0  2  0  0  0  0  0  0  0  0  0
   11.6030  -16.9791   16.6858 N   0  0  0  0  0  0  0  0  0  0  0  0
   10.2497  -16.6394   18.6070 C   0  0  0  0  0  0  0  0  0  0  0  0
   11.2914  -16.2461   19.2374 O   0  0  0  0  0  0  0  0  0  0  0  0
    6.8389  -12.3907   18.8794 C   0  0  0  0  0  0  0  0  0  0  0  0
    8.0158  -13.3666   18.9842 C   0  0  1  0  0  0  0  0  0  0  0  0
    9.1687  -12.4389   19.5118 C   0  0  0  0  0  0  0  0  0  0  0  0
    7.8058  -14.3722   20.0570 C   0  0  0  0  0  0  0  0  0  0  0  0
    8.7824  -15.4131   20.3058 C   0  0  2  0  0  0  0  0  0  0  0  0
    8.9953  -16.2530   19.0883 N   0  0  0  0  0  0  0  0  0  0  0  0
    9.0235  -16.1875   21.4727 C   0  0  0  0  0  0  0  0  0  0  0  0
    8.4481  -17.4021   21.3604 O   0  0  0  0  0  0  0  0  0  0  0  0
    9.6806  -16.0543   22.7004 N   0  0  0  0  0  0  0  0  0  0  0  0
   10.5129  -14.9503   23.1222 C   0  0  0  0  0  0  0  0  0  0  0  0
   10.8813  -15.1506   24.5631 C   0  0  0  0  0  0  0  0  0  0  0  0
    9.9092  -16.1627   25.0247 C   0  0  0  0  0  0  0  0  0  0  0  0
    9.6761  -17.0210   23.7720 C   0  0  1  0  0  0  0  0  0  0  0  0
    8.3818  -17.6869   24.0312 C   0  0  0  0  0  0  0  0  0  0  0  0
    7.2538  -17.1968   23.3462 O   0  0  0  0  0  0  0  0  0  0  0  0
    8.1629  -18.6488   24.7962 O   0  0  0  0  0  0  0  0  0  0  0  0
  2  4  1  0
  2  1  1  6
  3  2  1  0
  4  6  1  0
  4  5  1  1
  6  7  2  0
  9  8  1  1
  9 10  1  0
 12 11  1  1
 11  9  1  0
 12 14  1  0
 13  6  1  0
 13 12  1  0
 14 15  2  0
 16 14  1  0
 16 17  1  0
 18 17  1  0
 19 18  1  0
 20 19  1  0
 20 16  1  0
 21 22  1  0
 20 21  1  1
 23 21  2  0
M  END
$$$$
