TLP.pdb
     RDKit          3D

 23 23  0  0  1  0  0  0  0  0999 V2000
    7.9514  -19.9620   24.9834 C   0  0  0  0  0  0  0  0  0  0  0  0
    6.6423  -20.2151   24.3055 C   0  0  1  0  0  0  0  0  0  0  0  0
    6.2183  -21.5261   24.5446 O   0  0  0  0  0  0  0  0  0  0  0  0
    5.5497  -19.2741   24.7538 C   0  0  2  0  0  0  0  0  0  0  0  0
    4.3856  -19.5552   23.9495 N   0  0  0  0  0  0  0  0  0  0  0  0
    5.9564  -17.8602   24.4951 C   0  0  0  0  0  0  0  0  0  0  0  0
    5.8343  -17.4184   23.3005 O   0  0  0  0  0  0  0  0  0  0  0  0
    5.9496  -12.6075   27.3467 C   0  0  0  0  0  0  0  0  0  0  0  0
    6.6038  -13.2796   26.1348 C   0  0  1  0  0  0  0  0  0  0  0  0
    8.0673  -12.7111   26.1914 C   0  0  0  0  0  0  0  0  0  0  0  0
    6.7495  -14.7452   26.3275 C   0  0  0  0  0  0  0  0  0  0  0  0
    6.9830  -15.6264   25.2015 C   0  0  2  0  0  0  0  0  0  0  0  0
    6.4590  -16.9990   25.4749 N   0  0  0  0  0  0  0  0  0  0  0  0
    8.0836  -15.7012   24.3056 C   0  0  0  0  0  0  0  0  0  0  0  0
    9.0791  -16.4368   24.8411 O   0  0  0  0  0  0  0  0  0  0  0  0
    8.4326  -15.2329   23.0345 N   0  0  0  0  0  0  0  0  0  0  0  0
    7.6193  -14.4225   22.1564 C   0  0  0  0  0  0  0  0  0  0  0  0
    8.4460  -14.0237   20.9692 C   0  0  0  0  0  0  0  0  0  0  0  0
    9.8294  -14.2907   21.4135 C   0  0  0  0  0  0  0  0  0  0  0  0
    9.6705  -15.5033   22.3434 C   0  0  1  0  0  0  0  0  0  0  0  0
   10.8911  -15.4763   23.1772 C   0  0  0  0  0  0  0  0  0  0  0  0
   12.1083  -15.8085   22.5528 O   0  0  0  0  0  0  0  0  0  0  0  0
   10.9763  -15.1885   24.3889 O   0  0  0  0  0  0  0  0  0  0  0  0
  2  4  1  0
  2  1  1  1
  3  2  1  0
  4  6  1  0
  4  5  1  6
  6  7  2  0
  9  8  1  1
  9 10  1  0
 12 11  1  1
 11  9  1  0
 12 14  1  0
 13  6  1  0
 13 12  1  0
 14 15  2  0
 16 14  1  0
 16 17  1  0
 18 17  1  0
 19 18  1  0
 20 19  1  0
 20 16  1  0
 21 22  1  0
 20 21  1  1
 23 21  2  0
M  END
$$$$
