TLP.pdb
     RDKit          3D

 23 23  0  0  1  0  0  0  0  0999 V2000
    6.3196  -17.6511   19.5239 C   0  0  0  0  0  0  0  0  0  0  0  0
    7.0580  -17.0399   20.6721 C   0  0  1  0  0  0  0  0  0  0  0  0
    8.4037  -17.4192   20.6401 O   0  0  0  0  0  0  0  0  0  0  0  0
    6.9906  -15.5314   20.6861 C   0  0  2  0  0  0  0  0  0  0  0  0
    7.7404  -15.0586   19.5480 N   0  0  0  0  0  0  0  0  0  0  0  0
    7.6464  -15.0031   21.9199 C   0  0  0  0  0  0  0  0  0  0  0  0
    8.9049  -14.7777   21.8711 O   0  0  0  0  0  0  0  0  0  0  0  0
    8.3908  -11.8431   26.3735 C   0  0  0  0  0  0  0  0  0  0  0  0
    7.2876  -12.9031   26.4610 C   0  0  1  0  0  0  0  0  0  0  0  0
    6.0711  -12.0703   27.0038 C   0  0  0  0  0  0  0  0  0  0  0  0
    6.8660  -13.3741   25.1168 C   0  0  0  0  0  0  0  0  0  0  0  0
    7.6391  -14.3658   24.3972 C   0  0  2  0  0  0  0  0  0  0  0  0
    6.9698  -14.7432   23.1154 N   0  0  0  0  0  0  0  0  0  0  0  0
    8.4069  -15.4601   24.8794 C   0  0  0  0  0  0  0  0  0  0  0  0
    7.6284  -16.3115   25.5780 O   0  0  0  0  0  0  0  0  0  0  0  0
    9.7318  -15.9071   24.8411 N   0  0  0  0  0  0  0  0  0  0  0  0
   10.8009  -15.3792   24.0239 C   0  0  0  0  0  0  0  0  0  0  0  0
   12.0830  -16.0518   24.4183 C   0  0  0  0  0  0  0  0  0  0  0  0
   11.7620  -16.6530   25.7289 C   0  0  0  0  0  0  0  0  0  0  0  0
   10.2744  -17.0122   25.5944 C   0  0  1  0  0  0  0  0  0  0  0  0
    9.8071  -17.1279   26.9922 C   0  0  0  0  0  0  0  0  0  0  0  0
   10.2478  -18.2421   27.7314 O   0  0  0  0  0  0  0  0  0  0  0  0
    9.0569  -16.3436   27.6091 O   0  0  0  0  0  0  0  0  0  0  0  0
  2  4  1  0
  2  1  1  6
  3  2  1  0
  4  6  1  0
  4  5  1  6
  6  7  2  0
  9  8  1  6
  9 10  1  0
 12 11  1  1
 11  9  1  0
 12 14  1  0
 13  6  1  0
 13 12  1  0
 14 15  2  0
 16 14  1  0
 16 17  1  0
 18 17  1  0
 19 18  1  0
 20 19  1  0
 20 16  1  0
 21 22  1  0
 20 21  1  1
 23 21  2  0
M  END
$$$$
