TLP.pdb
     RDKit          3D

 23 23  0  0  1  0  0  0  0  0999 V2000
    6.2930  -19.6366   24.1706 C   0  0  0  0  0  0  0  0  0  0  0  0
    6.1401  -19.2273   22.7402 C   0  0  1  0  0  0  0  0  0  0  0  0
    5.2670  -20.0962   22.0780 O   0  0  0  0  0  0  0  0  0  0  0  0
    5.6210  -17.8186   22.5778 C   0  0  2  0  0  0  0  0  0  0  0  0
    5.5124  -17.5625   21.1623 N   0  0  0  0  0  0  0  0  0  0  0  0
    6.6008  -16.8452   23.1469 C   0  0  0  0  0  0  0  0  0  0  0  0
    7.6608  -16.6084   22.4705 O   0  0  0  0  0  0  0  0  0  0  0  0
    6.6217  -11.8321   26.5620 C   0  0  0  0  0  0  0  0  0  0  0  0
    7.5242  -12.8903   25.9185 C   0  0  1  0  0  0  0  0  0  0  0  0
    8.5102  -13.2408   27.0903 C   0  0  0  0  0  0  0  0  0  0  0  0
    6.7877  -14.1502   25.6417 C   0  0  0  0  0  0  0  0  0  0  0  0
    7.4347  -15.2616   24.9744 C   0  0  2  0  0  0  0  0  0  0  0  0
    6.4280  -16.1837   24.3663 N   0  0  0  0  0  0  0  0  0  0  0  0
    8.6040  -15.9893   25.3245 C   0  0  0  0  0  0  0  0  0  0  0  0
    8.3953  -16.7065   26.4474 O   0  0  0  0  0  0  0  0  0  0  0  0
    9.9047  -16.1748   24.8443 N   0  0  0  0  0  0  0  0  0  0  0  0
   10.4397  -15.7026   23.5872 C   0  0  0  0  0  0  0  0  0  0  0  0
   11.9122  -15.9899   23.5545 C   0  0  0  0  0  0  0  0  0  0  0  0
   12.2379  -16.2562   24.9705 C   0  0  0  0  0  0  0  0  0  0  0  0
   10.9552  -16.9091   25.5079 C   0  0  1  0  0  0  0  0  0  0  0  0
   11.0449  -16.7208   26.9716 C   0  0  0  0  0  0  0  0  0  0  0  0
   12.0194  -17.4670   27.6611 O   0  0  0  0  0  0  0  0  0  0  0  0
   10.3505  -15.9665   27.6838 O   0  0  0  0  0  0  0  0  0  0  0  0
  2  4  1  0
  2  1  1  1
  3  2  1  0
  4  6  1  0
  4  5  1  6
  6  7  2  0
  9  8  1  1
  9 10  1  0
 12 11  1  1
 11  9  1  0
 12 14  1  0
 13  6  1  0
 13 12  1  0
 14 15  2  0
 16 14  1  0
 16 17  1  0
 18 17  1  0
 19 18  1  0
 20 19  1  0
 20 16  1  0
 21 22  1  0
 20 21  1  1
 23 21  2  0
M  END
$$$$
