TLP.pdb
     RDKit          3D

 23 23  0  0  1  0  0  0  0  0999 V2000
    8.6746  -19.5642   23.9639 C   0  0  0  0  0  0  0  0  0  0  0  0
    7.2476  -19.9783   23.7932 C   0  0  1  0  0  0  0  0  0  0  0  0
    7.1117  -21.3523   24.0154 O   0  0  0  0  0  0  0  0  0  0  0  0
    6.3034  -19.2522   24.7214 C   0  0  2  0  0  0  0  0  0  0  0  0
    4.9714  -19.7254   24.4334 N   0  0  0  0  0  0  0  0  0  0  0  0
    6.3404  -17.7854   24.4412 C   0  0  0  0  0  0  0  0  0  0  0  0
    5.6015  -17.3449   23.4941 O   0  0  0  0  0  0  0  0  0  0  0  0
    5.9990  -12.4796   26.1594 C   0  0  0  0  0  0  0  0  0  0  0  0
    7.3503  -13.1063   25.7992 C   0  0  1  0  0  0  0  0  0  0  0  0
    8.2705  -12.6030   26.9688 C   0  0  0  0  0  0  0  0  0  0  0  0
    7.3267  -14.5854   25.9335 C   0  0  0  0  0  0  0  0  0  0  0  0
    7.3105  -15.4407   24.7642 C   0  0  2  0  0  0  0  0  0  0  0  0
    7.1297  -16.8735   25.1483 N   0  0  0  0  0  0  0  0  0  0  0  0
    8.0501  -15.3568   23.5536 C   0  0  0  0  0  0  0  0  0  0  0  0
    9.1786  -16.0906   23.6380 O   0  0  0  0  0  0  0  0  0  0  0  0
    7.9478  -14.7341   22.3052 N   0  0  0  0  0  0  0  0  0  0  0  0
    6.8205  -13.9825   21.8018 C   0  0  0  0  0  0  0  0  0  0  0  0
    7.2039  -13.3639   20.4895 C   0  0  0  0  0  0  0  0  0  0  0  0
    8.6782  -13.4577   20.4876 C   0  0  0  0  0  0  0  0  0  0  0  0
    8.9473  -14.7556   21.2643 C   0  0  1  0  0  0  0  0  0  0  0  0
   10.3483  -14.6176   21.7158 C   0  0  0  0  0  0  0  0  0  0  0  0
   11.3574  -14.7505   20.7431 O   0  0  0  0  0  0  0  0  0  0  0  0
   10.7535  -14.3923   22.8749 O   0  0  0  0  0  0  0  0  0  0  0  0
  2  4  1  0
  2  1  1  1
  3  2  1  0
  4  6  1  0
  4  5  1  6
  6  7  2  0
  9  8  1  1
  9 10  1  0
 12 11  1  1
 11  9  1  0
 12 14  1  0
 13  6  1  0
 13 12  1  0
 14 15  2  0
 16 14  1  0
 16 17  1  0
 18 17  1  0
 19 18  1  0
 20 19  1  0
 20 16  1  0
 21 22  1  0
 20 21  1  1
 23 21  2  0
M  END
$$$$
