TLP.pdb
     RDKit          3D

 23 23  0  0  1  0  0  0  0  0999 V2000
    6.5757  -17.9929   21.5492 C   0  0  0  0  0  0  0  0  0  0  0  0
    7.2409  -17.1412   20.5152 C   0  0  1  0  0  0  0  0  0  0  0  0
    6.8129  -17.5092   19.2356 O   0  0  0  0  0  0  0  0  0  0  0  0
    6.9734  -15.6664   20.6988 C   0  0  2  0  0  0  0  0  0  0  0  0
    7.5805  -14.9790   19.5853 N   0  0  0  0  0  0  0  0  0  0  0  0
    7.6285  -15.1813   21.9506 C   0  0  0  0  0  0  0  0  0  0  0  0
    8.8945  -14.9981   21.9233 O   0  0  0  0  0  0  0  0  0  0  0  0
    8.2543  -11.9324   26.3536 C   0  0  0  0  0  0  0  0  0  0  0  0
    7.2177  -13.0542   26.4775 C   0  0  1  0  0  0  0  0  0  0  0  0
    5.9676  -12.2885   27.0425 C   0  0  0  0  0  0  0  0  0  0  0  0
    6.7925  -13.5629   25.1483 C   0  0  0  0  0  0  0  0  0  0  0  0
    7.6025  -14.5190   24.4211 C   0  0  2  0  0  0  0  0  0  0  0  0
    6.9436  -14.9186   23.1407 N   0  0  0  0  0  0  0  0  0  0  0  0
    8.4169  -15.5827   24.8955 C   0  0  0  0  0  0  0  0  0  0  0  0
    7.6809  -16.4582   25.6101 O   0  0  0  0  0  0  0  0  0  0  0  0
    9.7563  -15.9818   24.8376 N   0  0  0  0  0  0  0  0  0  0  0  0
   10.8060  -15.3808   24.0462 C   0  0  0  0  0  0  0  0  0  0  0  0
   12.1107  -16.0265   24.4102 C   0  0  0  0  0  0  0  0  0  0  0  0
   11.8116  -16.6977   25.6917 C   0  0  0  0  0  0  0  0  0  0  0  0
   10.3370  -17.1011   25.5398 C   0  0  1  0  0  0  0  0  0  0  0  0
    9.8752  -17.2966   26.9306 C   0  0  0  0  0  0  0  0  0  0  0  0
    9.2564  -16.2035   27.5663 O   0  0  0  0  0  0  0  0  0  0  0  0
    9.9672  -18.3316   27.6225 O   0  0  0  0  0  0  0  0  0  0  0  0
  2  4  1  0
  2  1  1  1
  3  2  1  0
  4  6  1  0
  4  5  1  6
  6  7  2  0
  9  8  1  6
  9 10  1  0
 12 11  1  1
 11  9  1  0
 12 14  1  0
 13  6  1  0
 13 12  1  0
 14 15  2  0
 16 14  1  0
 16 17  1  0
 18 17  1  0
 19 18  1  0
 20 19  1  0
 20 16  1  0
 21 22  1  0
 20 21  1  1
 23 21  2  0
M  END
$$$$
