TLP.pdb
     RDKit          3D

 23 23  0  0  1  0  0  0  0  0999 V2000
    9.6792  -18.4153   22.5502 C   0  0  0  0  0  0  0  0  0  0  0  0
   10.0011  -17.3098   21.5956 C   0  0  1  0  0  0  0  0  0  0  0  0
   10.0611  -17.8010   20.2876 O   0  0  0  0  0  0  0  0  0  0  0  0
    8.9978  -16.1818   21.6330 C   0  0  2  0  0  0  0  0  0  0  0  0
    9.3632  -15.2489   20.5951 N   0  0  0  0  0  0  0  0  0  0  0  0
    9.0816  -15.4680   22.9425 C   0  0  0  0  0  0  0  0  0  0  0  0
   10.0635  -14.6667   23.1181 O   0  0  0  0  0  0  0  0  0  0  0  0
    5.2800  -12.3594   25.7314 C   0  0  0  0  0  0  0  0  0  0  0  0
    6.4780  -12.9540   24.9832 C   0  0  1  0  0  0  0  0  0  0  0  0
    7.6385  -11.9745   25.3856 C   0  0  0  0  0  0  0  0  0  0  0  0
    6.8753  -14.2739   25.5367 C   0  0  0  0  0  0  0  0  0  0  0  0
    8.1777  -14.8411   25.2518 C   0  0  2  0  0  0  0  0  0  0  0  0
    8.1567  -15.6242   23.9792 N   0  0  0  0  0  0  0  0  0  0  0  0
    9.1595  -15.3755   26.1294 C   0  0  0  0  0  0  0  0  0  0  0  0
    9.2647  -16.7098   25.9635 O   0  0  0  0  0  0  0  0  0  0  0  0
   10.0436  -14.9202   27.1131 N   0  0  0  0  0  0  0  0  0  0  0  0
   10.3316  -13.5441   27.4491 C   0  0  0  0  0  0  0  0  0  0  0  0
   11.2137  -13.5213   28.6629 C   0  0  0  0  0  0  0  0  0  0  0  0
   11.0675  -14.8839   29.2146 C   0  0  0  0  0  0  0  0  0  0  0  0
   10.8658  -15.7493   27.9614 C   0  0  1  0  0  0  0  0  0  0  0  0
   10.2243  -16.9781   28.4754 C   0  0  0  0  0  0  0  0  0  0  0  0
    8.8301  -16.9477   28.6683 O   0  0  0  0  0  0  0  0  0  0  0  0
   10.7774  -18.0595   28.7635 O   0  0  0  0  0  0  0  0  0  0  0  0
  2  4  1  0
  2  1  1  1
  3  2  1  0
  4  6  1  0
  4  5  1  6
  6  7  2  0
  9  8  1  1
  9 10  1  0
 12 11  1  1
 11  9  1  0
 12 14  1  0
 13  6  1  0
 13 12  1  0
 14 15  2  0
 16 14  1  0
 16 17  1  0
 18 17  1  0
 19 18  1  0
 20 19  1  0
 20 16  1  0
 21 22  1  0
 20 21  1  1
 23 21  2  0
M  END
$$$$
