TLP.pdb
     RDKit          3D

 23 23  0  0  1  0  0  0  0  0999 V2000
    8.8047  -18.0291   20.3746 C   0  0  0  0  0  0  0  0  0  0  0  0
    9.1753  -17.3666   21.6634 C   0  0  1  0  0  0  0  0  0  0  0  0
   10.5534  -17.4651   21.8802 O   0  0  0  0  0  0  0  0  0  0  0  0
    8.7906  -15.9072   21.7130 C   0  0  2  0  0  0  0  0  0  0  0  0
    9.6919  -15.1967   20.8390 N   0  0  0  0  0  0  0  0  0  0  0  0
    8.9792  -15.3769   23.0968 C   0  0  0  0  0  0  0  0  0  0  0  0
   10.1069  -14.8414   23.3768 O   0  0  0  0  0  0  0  0  0  0  0  0
    5.1707  -12.2786   25.9580 C   0  0  0  0  0  0  0  0  0  0  0  0
    6.4109  -12.8213   25.2398 C   0  0  1  0  0  0  0  0  0  0  0  0
    7.5259  -11.8141   25.6984 C   0  0  0  0  0  0  0  0  0  0  0  0
    6.8314  -14.1385   25.7826 C   0  0  0  0  0  0  0  0  0  0  0  0
    8.1013  -14.7282   25.4100 C   0  0  2  0  0  0  0  0  0  0  0  0
    8.0024  -15.4320   24.0955 N   0  0  0  0  0  0  0  0  0  0  0  0
    9.0989  -15.3453   26.2123 C   0  0  0  0  0  0  0  0  0  0  0  0
    9.0782  -16.6834   26.0450 O   0  0  0  0  0  0  0  0  0  0  0  0
   10.0910  -14.9680   27.1234 N   0  0  0  0  0  0  0  0  0  0  0  0
   10.5287  -13.6226   27.4198 C   0  0  0  0  0  0  0  0  0  0  0  0
   11.4958  -13.6744   28.5660 C   0  0  0  0  0  0  0  0  0  0  0  0
   11.2654  -15.0140   29.1445 C   0  0  0  0  0  0  0  0  0  0  0  0
   10.8933  -15.8647   27.9205 C   0  0  1  0  0  0  0  0  0  0  0  0
   10.1806  -17.0253   28.4955 C   0  0  0  0  0  0  0  0  0  0  0  0
    8.7834  -17.0734   28.3296 O   0  0  0  0  0  0  0  0  0  0  0  0
   10.6751  -17.9861   29.1206 O   0  0  0  0  0  0  0  0  0  0  0  0
  2  4  1  0
  2  1  1  6
  3  2  1  0
  4  6  1  0
  4  5  1  6
  6  7  2  0
  9  8  1  1
  9 10  1  0
 12 11  1  1
 11  9  1  0
 12 14  1  0
 13  6  1  0
 13 12  1  0
 14 15  2  0
 16 14  1  0
 16 17  1  0
 18 17  1  0
 19 18  1  0
 20 19  1  0
 20 16  1  0
 21 22  1  0
 20 21  1  1
 23 21  2  0
M  END
$$$$
