TLP.pdb
     RDKit          3D

 23 23  0  0  1  0  0  0  0  0999 V2000
    9.2277  -18.3888   20.5491 C   0  0  0  0  0  0  0  0  0  0  0  0
    9.4474  -17.6122   21.8084 C   0  0  1  0  0  0  0  0  0  0  0  0
   10.8065  -17.5968   22.1376 O   0  0  0  0  0  0  0  0  0  0  0  0
    8.9653  -16.1841   21.7172 C   0  0  2  0  0  0  0  0  0  0  0  0
    9.8803  -15.4774   20.8544 N   0  0  0  0  0  0  0  0  0  0  0  0
    9.0158  -15.5417   23.0649 C   0  0  0  0  0  0  0  0  0  0  0  0
   10.0860  -14.9168   23.3830 O   0  0  0  0  0  0  0  0  0  0  0  0
    4.9771  -12.4489   25.6331 C   0  0  0  0  0  0  0  0  0  0  0  0
    6.2669  -12.9803   24.9987 C   0  0  1  0  0  0  0  0  0  0  0  0
    7.3375  -11.9538   25.5166 C   0  0  0  0  0  0  0  0  0  0  0  0
    6.6703  -14.2869   25.5788 C   0  0  0  0  0  0  0  0  0  0  0  0
    7.9717  -14.8583   25.2977 C   0  0  2  0  0  0  0  0  0  0  0  0
    7.9697  -15.5840   23.9914 N   0  0  0  0  0  0  0  0  0  0  0  0
    8.9267  -15.4440   26.1720 C   0  0  0  0  0  0  0  0  0  0  0  0
    9.0054  -16.7740   25.9624 O   0  0  0  0  0  0  0  0  0  0  0  0
    9.8040  -15.0422   27.1848 N   0  0  0  0  0  0  0  0  0  0  0  0
   10.0743  -13.6873   27.6096 C   0  0  0  0  0  0  0  0  0  0  0  0
   10.9549  -13.7319   28.8238 C   0  0  0  0  0  0  0  0  0  0  0  0
   10.8255  -15.1290   29.2860 C   0  0  0  0  0  0  0  0  0  0  0  0
   10.6359  -15.9140   27.9791 C   0  0  1  0  0  0  0  0  0  0  0  0
   10.0095  -17.1815   28.4114 C   0  0  0  0  0  0  0  0  0  0  0  0
   10.8087  -18.0819   29.1411 O   0  0  0  0  0  0  0  0  0  0  0  0
    8.8370  -17.5574   28.2060 O   0  0  0  0  0  0  0  0  0  0  0  0
  2  4  1  0
  2  1  1  6
  3  2  1  0
  4  6  1  0
  4  5  1  6
  6  7  2  0
  9  8  1  1
  9 10  1  0
 12 11  1  1
 11  9  1  0
 12 14  1  0
 13  6  1  0
 13 12  1  0
 14 15  2  0
 16 14  1  0
 16 17  1  0
 18 17  1  0
 19 18  1  0
 20 19  1  0
 20 16  1  0
 21 22  1  0
 20 21  1  1
 23 21  2  0
M  END
$$$$
