TDA.pdb
     RDKit          3D

 21 20  0  0  1  0  0  0  0  0999 V2000
   22.7336  -11.6203  -14.5368 C   0  0  0  0  0  0  0  0  0  0  0  0
   22.4430  -12.2273  -15.8951 C   0  0  1  0  0  0  0  0  0  0  0  0
   22.6098  -13.6143  -15.7547 O   0  0  0  0  0  0  0  0  0  0  0  0
   21.0198  -11.9286  -16.2347 C   0  0  2  0  0  0  0  0  0  0  0  0
   20.7170  -12.5621  -17.4906 N   0  0  0  0  0  0  0  0  0  0  0  0
   20.6815  -10.5026  -16.2898 C   0  0  0  0  0  0  0  0  0  0  0  0
   21.1599   -9.8472  -17.2446 O   0  0  0  0  0  0  0  0  0  0  0  0
   19.8703   -9.8189  -15.3647 N   0  0  0  0  0  0  0  0  0  0  0  0
   19.5494   -8.4377  -15.3657 C   0  0  1  0  0  0  0  0  0  0  0  0
   18.1697   -8.0555  -14.9840 C   0  0  0  0  0  0  0  0  0  0  0  0
   17.1353   -8.7323  -15.8073 C   0  0  0  0  0  0  0  0  0  0  0  0
   16.2036   -9.3813  -15.2669 O   0  0  0  0  0  0  0  0  0  0  0  0
   20.5743   -7.6470  -14.5918 C   0  0  0  0  0  0  0  0  0  0  0  0
   20.7859   -7.8688  -13.3716 O   0  0  0  0  0  0  0  0  0  0  0  0
   17.1348   -8.6901  -17.1927 O   0  0  0  0  0  0  0  0  0  0  0  0
   23.3082   -5.1687  -15.3751 C   0  0  0  0  0  0  0  0  0  0  0  0
   22.3578   -5.9234  -14.4614 C   0  0  2  0  0  0  0  0  0  0  0  0
   21.3444   -6.6208  -15.2001 N   0  0  0  0  0  0  0  0  0  0  0  0
   21.7522   -4.9208  -13.5454 C   0  0  0  0  0  0  0  0  0  0  0  0
   20.4251   -4.5794  -13.5735 O   0  0  0  0  0  0  0  0  0  0  0  0
   22.5084   -4.3505  -12.6901 O   0  0  0  0  0  0  0  0  0  0  0  0
  2  1  1  1
  2  4  1  0
  2  3  1  0
  4  5  1  6
  6  4  1  0
  7  6  2  0
  8  6  1  0
  9 13  1  0
  9  8  1  0
  9 10  1  1
 11 15  1  0
 11 10  1  0
 12 11  2  0
 13 18  1  0
 14 13  2  0
 17 16  1  6
 17 19  1  0
 18 17  1  0
 19 21  2  0
 19 20  1  0
M  END
$$$$
