TDA.pdb
     RDKit          3D

 21 20  0  0  1  0  0  0  0  0999 V2000
   17.2397  -11.9997  -14.7590 C   0  0  0  0  0  0  0  0  0  0  0  0
   17.4451  -12.6514  -16.1122 C   0  0  1  0  0  0  0  0  0  0  0  0
   16.6030  -13.7745  -16.1445 O   0  0  0  0  0  0  0  0  0  0  0  0
   17.0160  -11.6770  -17.1592 C   0  0  2  0  0  0  0  0  0  0  0  0
   17.0993  -12.3295  -18.4389 N   0  0  0  0  0  0  0  0  0  0  0  0
   17.7684  -10.4181  -17.1804 C   0  0  0  0  0  0  0  0  0  0  0  0
   18.9127  -10.4549  -17.6895 O   0  0  0  0  0  0  0  0  0  0  0  0
   17.3115   -9.1846  -16.6793 N   0  0  0  0  0  0  0  0  0  0  0  0
   17.9892   -7.9399  -16.7235 C   0  0  1  0  0  0  0  0  0  0  0  0
   17.1664   -6.7181  -16.8839 C   0  0  0  0  0  0  0  0  0  0  0  0
   17.9838   -5.4832  -16.9964 C   0  0  0  0  0  0  0  0  0  0  0  0
   18.9264   -5.4069  -17.8252 O   0  0  0  0  0  0  0  0  0  0  0  0
   18.9498   -7.8094  -15.5683 C   0  0  0  0  0  0  0  0  0  0  0  0
   18.5624   -7.9372  -14.3781 O   0  0  0  0  0  0  0  0  0  0  0  0
   17.7613   -4.3634  -16.2106 O   0  0  0  0  0  0  0  0  0  0  0  0
   22.5532   -8.1737  -14.9648 C   0  0  0  0  0  0  0  0  0  0  0  0
   21.2372   -7.4795  -14.6583 C   0  0  2  0  0  0  0  0  0  0  0  0
   20.3292   -7.5376  -15.7679 N   0  0  0  0  0  0  0  0  0  0  0  0
   21.5627   -6.0706  -14.3116 C   0  0  0  0  0  0  0  0  0  0  0  0
   22.2798   -5.7148  -13.1992 O   0  0  0  0  0  0  0  0  0  0  0  0
   21.1523   -5.1472  -15.0911 O   0  0  0  0  0  0  0  0  0  0  0  0
  2  1  1  1
  2  4  1  0
  2  3  1  0
  4  5  1  6
  6  4  1  0
  7  6  2  0
  8  6  1  0
  9 13  1  0
  9  8  1  0
  9 10  1  1
 11 15  1  0
 11 10  1  0
 12 11  2  0
 13 18  1  0
 14 13  2  0
 17 16  1  6
 17 19  1  0
 18 17  1  0
 19 21  2  0
 19 20  1  0
M  END
$$$$
