TDA.pdb
     RDKit          3D

 21 20  0  0  1  0  0  0  0  0999 V2000
   11.9275  -11.2948  -11.1507 C   0  0  0  0  0  0  0  0  0  0  0  0
   12.5619  -12.6600  -11.3289 C   0  0  1  0  0  0  0  0  0  0  0  0
   11.5457  -13.5139  -11.7866 O   0  0  0  0  0  0  0  0  0  0  0  0
   13.6201  -12.5395  -12.3756 C   0  0  2  0  0  0  0  0  0  0  0  0
   14.1899  -13.8436  -12.5881 N   0  0  0  0  0  0  0  0  0  0  0  0
   14.6760  -11.5652  -12.0806 C   0  0  0  0  0  0  0  0  0  0  0  0
   15.6033  -11.9498  -11.3308 O   0  0  0  0  0  0  0  0  0  0  0  0
   14.7297  -10.2458  -12.5683 N   0  0  0  0  0  0  0  0  0  0  0  0
   15.7215   -9.2712  -12.2902 C   0  0  1  0  0  0  0  0  0  0  0  0
   16.4508   -8.6895  -13.4414 C   0  0  0  0  0  0  0  0  0  0  0  0
   17.4639   -7.6832  -13.0330 C   0  0  0  0  0  0  0  0  0  0  0  0
   17.3787   -6.4891  -13.4180 O   0  0  0  0  0  0  0  0  0  0  0  0
   15.1794   -8.1966  -11.3815 C   0  0  0  0  0  0  0  0  0  0  0  0
   14.2153   -7.4685  -11.7325 O   0  0  0  0  0  0  0  0  0  0  0  0
   18.5424   -7.9934  -12.2195 O   0  0  0  0  0  0  0  0  0  0  0  0
   15.6579   -7.0046   -7.8393 C   0  0  0  0  0  0  0  0  0  0  0  0
   15.2981   -6.8378   -9.3057 C   0  0  2  0  0  0  0  0  0  0  0  0
   15.7283   -7.9571  -10.0940 N   0  0  0  0  0  0  0  0  0  0  0  0
   15.9454   -5.5819   -9.7690 C   0  0  0  0  0  0  0  0  0  0  0  0
   15.6245   -4.3433   -9.2777 O   0  0  0  0  0  0  0  0  0  0  0  0
   16.8454   -5.6637  -10.6702 O   0  0  0  0  0  0  0  0  0  0  0  0
  2  1  1  6
  2  4  1  0
  2  3  1  0
  4  5  1  1
  6  4  1  0
  7  6  2  0
  8  6  1  0
  9 13  1  0
  9  8  1  0
  9 10  1  6
 11 15  1  0
 11 10  1  0
 12 11  2  0
 13 18  1  0
 14 13  2  0
 17 16  1  1
 17 19  1  0
 18 17  1  0
 19 21  2  0
 19 20  1  0
M  END
$$$$
