TDA.pdb
     RDKit          3D

 21 20  0  0  1  0  0  0  0  0999 V2000
   17.2678   -7.8704  -15.7954 C   0  0  0  0  0  0  0  0  0  0  0  0
   17.6302   -9.3325  -15.6250 C   0  0  1  0  0  0  0  0  0  0  0  0
   17.7138   -9.8745  -16.9176 O   0  0  0  0  0  0  0  0  0  0  0  0
   18.9704   -9.3983  -14.9698 C   0  0  2  0  0  0  0  0  0  0  0  0
   19.3605  -10.7808  -14.8867 N   0  0  0  0  0  0  0  0  0  0  0  0
   19.0458   -8.7683  -13.6474 C   0  0  0  0  0  0  0  0  0  0  0  0
   18.3696   -9.2953  -12.7336 O   0  0  0  0  0  0  0  0  0  0  0  0
   19.8097   -7.6303  -13.3269 N   0  0  0  0  0  0  0  0  0  0  0  0
   19.9548   -7.0296  -12.0506 C   0  0  1  0  0  0  0  0  0  0  0  0
   21.2271   -6.3253  -11.7666 C   0  0  0  0  0  0  0  0  0  0  0  0
   21.6721   -5.4629  -12.8909 C   0  0  0  0  0  0  0  0  0  0  0  0
   21.9228   -5.9546  -14.0209 O   0  0  0  0  0  0  0  0  0  0  0  0
   18.7623   -6.1662  -11.7240 C   0  0  0  0  0  0  0  0  0  0  0  0
   18.2997   -5.3470  -12.5594 O   0  0  0  0  0  0  0  0  0  0  0  0
   21.8346   -4.0923  -12.7649 O   0  0  0  0  0  0  0  0  0  0  0  0
   16.3163   -5.7884   -8.8584 C   0  0  0  0  0  0  0  0  0  0  0  0
   16.9616   -5.4215  -10.1838 C   0  0  2  0  0  0  0  0  0  0  0  0
   18.1087   -6.2365  -10.4653 N   0  0  0  0  0  0  0  0  0  0  0  0
   17.3384   -3.9857  -10.0979 C   0  0  0  0  0  0  0  0  0  0  0  0
   18.6302   -3.5386  -10.1965 O   0  0  0  0  0  0  0  0  0  0  0  0
   16.4099   -3.1276   -9.9234 O   0  0  0  0  0  0  0  0  0  0  0  0
  2  1  1  6
  2  4  1  0
  2  3  1  0
  4  5  1  1
  6  4  1  0
  7  6  2  0
  8  6  1  0
  9 13  1  0
  9  8  1  0
  9 10  1  6
 11 15  1  0
 11 10  1  0
 12 11  2  0
 13 18  1  0
 14 13  2  0
 17 16  1  1
 17 19  1  0
 18 17  1  0
 19 21  2  0
 19 20  1  0
M  END
$$$$
