TDA.pdb
     RDKit          3D

 21 20  0  0  1  0  0  0  0  0999 V2000
   22.5863  -13.6093  -15.8182 C   0  0  0  0  0  0  0  0  0  0  0  0
   23.7919  -13.3577  -16.7020 C   0  0  1  0  0  0  0  0  0  0  0  0
   23.3371  -13.4403  -18.0278 O   0  0  0  0  0  0  0  0  0  0  0  0
   24.2791  -11.9729  -16.4280 C   0  0  2  0  0  0  0  0  0  0  0  0
   24.7465  -11.9239  -15.0681 N   0  0  0  0  0  0  0  0  0  0  0  0
   23.2958  -10.9111  -16.6663 C   0  0  0  0  0  0  0  0  0  0  0  0
   23.1211  -10.5628  -17.8572 O   0  0  0  0  0  0  0  0  0  0  0  0
   22.5407  -10.2590  -15.6734 N   0  0  0  0  0  0  0  0  0  0  0  0
   21.5943   -9.2202  -15.8633 C   0  0  1  0  0  0  0  0  0  0  0  0
   20.1724   -9.5308  -15.5856 C   0  0  0  0  0  0  0  0  0  0  0  0
   19.2575   -8.4193  -15.9509 C   0  0  0  0  0  0  0  0  0  0  0  0
   19.2524   -7.9442  -17.1152 O   0  0  0  0  0  0  0  0  0  0  0  0
   22.0307   -7.9600  -15.1591 C   0  0  0  0  0  0  0  0  0  0  0  0
   22.4376   -7.9836  -13.9688 O   0  0  0  0  0  0  0  0  0  0  0  0
   18.3723   -7.8505  -15.0488 O   0  0  0  0  0  0  0  0  0  0  0  0
   22.7248   -4.3804  -16.1499 C   0  0  0  0  0  0  0  0  0  0  0  0
   22.5741   -5.5364  -15.1759 C   0  0  2  0  0  0  0  0  0  0  0  0
   22.0032   -6.6944  -15.8024 N   0  0  0  0  0  0  0  0  0  0  0  0
   21.7122   -5.0548  -14.0641 C   0  0  0  0  0  0  0  0  0  0  0  0
   22.1169   -4.1193  -13.1480 O   0  0  0  0  0  0  0  0  0  0  0  0
   20.5358   -5.5386  -13.9595 O   0  0  0  0  0  0  0  0  0  0  0  0
  2  1  1  1
  2  4  1  0
  2  3  1  0
  4  5  1  1
  6  4  1  0
  7  6  2  0
  8  6  1  0
  9 13  1  0
  9  8  1  0
  9 10  1  1
 11 15  1  0
 11 10  1  0
 12 11  2  0
 13 18  1  0
 14 13  2  0
 17 16  1  6
 17 19  1  0
 18 17  1  0
 19 21  2  0
 19 20  1  0
M  END
$$$$
