TDA.pdb
     RDKit          3D

 21 20  0  0  1  0  0  0  0  0999 V2000
   17.9378  -10.4547  -12.9748 C   0  0  0  0  0  0  0  0  0  0  0  0
   16.7076  -11.3362  -13.0610 C   0  0  1  0  0  0  0  0  0  0  0  0
   17.1659  -12.6307  -13.3540 O   0  0  0  0  0  0  0  0  0  0  0  0
   16.0476  -11.3329  -11.7214 C   0  0  2  0  0  0  0  0  0  0  0  0
   14.9726  -12.2889  -11.7499 N   0  0  0  0  0  0  0  0  0  0  0  0
   15.5538  -10.0255  -11.2766 C   0  0  0  0  0  0  0  0  0  0  0  0
   14.5163   -9.5967  -11.8332 O   0  0  0  0  0  0  0  0  0  0  0  0
   16.1469   -9.2225  -10.2842 N   0  0  0  0  0  0  0  0  0  0  0  0
   15.7161   -7.9436   -9.8487 C   0  0  1  0  0  0  0  0  0  0  0  0
   15.8740   -7.6214   -8.4111 C   0  0  0  0  0  0  0  0  0  0  0  0
   15.2826   -6.3088   -8.0463 C   0  0  0  0  0  0  0  0  0  0  0  0
   16.0148   -5.3116   -7.8208 O   0  0  0  0  0  0  0  0  0  0  0  0
   16.2890   -6.8567  -10.7232 C   0  0  0  0  0  0  0  0  0  0  0  0
   17.5307   -6.6723  -10.8082 O   0  0  0  0  0  0  0  0  0  0  0  0
   13.9157   -6.1081   -7.9346 O   0  0  0  0  0  0  0  0  0  0  0  0
   15.0677   -4.6994  -13.5285 C   0  0  0  0  0  0  0  0  0  0  0  0
   16.0260   -5.0447  -12.4014 C   0  0  2  0  0  0  0  0  0  0  0  0
   15.4590   -5.9948  -11.4877 N   0  0  0  0  0  0  0  0  0  0  0  0
   16.3536   -3.7709  -11.7077 C   0  0  0  0  0  0  0  0  0  0  0  0
   17.1499   -2.7985  -12.2543 O   0  0  0  0  0  0  0  0  0  0  0  0
   15.8674   -3.5753  -10.5440 O   0  0  0  0  0  0  0  0  0  0  0  0
  2  1  1  1
  2  4  1  0
  2  3  1  0
  4  5  1  6
  6  4  1  0
  7  6  2  0
  8  6  1  0
  9 13  1  0
  9  8  1  0
  9 10  1  1
 11 15  1  0
 11 10  1  0
 12 11  2  0
 13 18  1  0
 14 13  2  0
 17 16  1  6
 17 19  1  0
 18 17  1  0
 19 21  2  0
 19 20  1  0
M  END
$$$$
