TDA.pdb
     RDKit          3D

 21 20  0  0  1  0  0  0  0  0999 V2000
   17.6437  -11.7656  -15.1404 C   0  0  0  0  0  0  0  0  0  0  0  0
   18.3058  -11.1486  -16.3565 C   0  0  1  0  0  0  0  0  0  0  0  0
   17.8222  -11.8512  -17.4718 O   0  0  0  0  0  0  0  0  0  0  0  0
   17.8713   -9.7223  -16.4396 C   0  0  2  0  0  0  0  0  0  0  0  0
   17.6595   -9.3991  -17.8256 N   0  0  0  0  0  0  0  0  0  0  0  0
   18.7904   -8.7573  -15.8272 C   0  0  0  0  0  0  0  0  0  0  0  0
   18.8189   -8.7238  -14.5749 O   0  0  0  0  0  0  0  0  0  0  0  0
   19.6344   -7.8748  -16.5275 N   0  0  0  0  0  0  0  0  0  0  0  0
   20.5411   -6.9370  -15.9716 C   0  0  1  0  0  0  0  0  0  0  0  0
   21.9865   -7.1575  -16.2119 C   0  0  0  0  0  0  0  0  0  0  0  0
   22.4757   -8.4407  -15.6465 C   0  0  0  0  0  0  0  0  0  0  0  0
   22.4605   -8.6466  -14.4060 O   0  0  0  0  0  0  0  0  0  0  0  0
   20.1342   -5.5263  -16.3162 C   0  0  0  0  0  0  0  0  0  0  0  0
   20.0774   -5.1356  -17.5108 O   0  0  0  0  0  0  0  0  0  0  0  0
   22.9685   -9.4678  -16.4360 O   0  0  0  0  0  0  0  0  0  0  0  0
   18.1777   -2.7611  -15.0479 C   0  0  0  0  0  0  0  0  0  0  0  0
   19.4909   -3.2190  -15.6593 C   0  0  2  0  0  0  0  0  0  0  0  0
   19.7978   -4.5777  -15.3145 N   0  0  0  0  0  0  0  0  0  0  0  0
   20.5441   -2.2942  -15.1629 C   0  0  0  0  0  0  0  0  0  0  0  0
   20.6229   -0.9759  -15.5293 O   0  0  0  0  0  0  0  0  0  0  0  0
   21.4183   -2.7536  -14.3545 O   0  0  0  0  0  0  0  0  0  0  0  0
  2  1  1  1
  2  4  1  0
  2  3  1  0
  4  5  1  6
  6  4  1  0
  7  6  2  0
  8  6  1  0
  9 13  1  0
  9  8  1  0
  9 10  1  6
 11 15  1  0
 11 10  1  0
 12 11  2  0
 13 18  1  0
 14 13  2  0
 17 16  1  1
 17 19  1  0
 18 17  1  0
 19 21  2  0
 19 20  1  0
M  END
$$$$
