TDA.pdb
     RDKit          3D

 21 20  0  0  1  0  0  0  0  0999 V2000
   18.0058  -10.4210  -14.2771 C   0  0  0  0  0  0  0  0  0  0  0  0
   18.6888  -11.2713  -15.3299 C   0  0  1  0  0  0  0  0  0  0  0  0
   18.0333  -12.5130  -15.3247 O   0  0  0  0  0  0  0  0  0  0  0  0
   18.4896  -10.6086  -16.6531 C   0  0  2  0  0  0  0  0  0  0  0  0
   19.0127  -11.4787  -17.6727 N   0  0  0  0  0  0  0  0  0  0  0  0
   19.0814   -9.2719  -16.7726 C   0  0  0  0  0  0  0  0  0  0  0  0
   20.3177   -9.2193  -16.9694 O   0  0  0  0  0  0  0  0  0  0  0  0
   18.3778   -8.0559  -16.6845 N   0  0  0  0  0  0  0  0  0  0  0  0
   18.9137   -6.7479  -16.7961 C   0  0  1  0  0  0  0  0  0  0  0  0
   17.9878   -5.6604  -17.1903 C   0  0  0  0  0  0  0  0  0  0  0  0
   18.6740   -4.3554  -17.3691 C   0  0  0  0  0  0  0  0  0  0  0  0
   19.7239   -4.2674  -18.0556 O   0  0  0  0  0  0  0  0  0  0  0  0
   19.6999   -6.3819  -15.5623 C   0  0  0  0  0  0  0  0  0  0  0  0
   19.1710   -6.3993  -14.4209 O   0  0  0  0  0  0  0  0  0  0  0  0
   18.2080   -3.1800  -16.8015 O   0  0  0  0  0  0  0  0  0  0  0  0
   23.3063   -5.8358  -14.6543 C   0  0  0  0  0  0  0  0  0  0  0  0
   21.8084   -5.7030  -14.4386 C   0  0  2  0  0  0  0  0  0  0  0  0
   21.0666   -6.0025  -15.6300 N   0  0  0  0  0  0  0  0  0  0  0  0
   21.5582   -4.3063  -13.9942 C   0  0  0  0  0  0  0  0  0  0  0  0
   22.0149   -3.8008  -12.8050 O   0  0  0  0  0  0  0  0  0  0  0  0
   20.8835   -3.5409  -14.7608 O   0  0  0  0  0  0  0  0  0  0  0  0
  2  1  1  1
  2  4  1  0
  2  3  1  0
  4  5  1  6
  6  4  1  0
  7  6  2  0
  8  6  1  0
  9 13  1  0
  9  8  1  0
  9 10  1  1
 11 15  1  0
 11 10  1  0
 12 11  2  0
 13 18  1  0
 14 13  2  0
 17 16  1  6
 17 19  1  0
 18 17  1  0
 19 21  2  0
 19 20  1  0
M  END
$$$$
