TDA.pdb
     RDKit          3D

 21 20  0  0  1  0  0  0  0  0999 V2000
   19.7079  -11.2737  -14.9732 C   0  0  0  0  0  0  0  0  0  0  0  0
   18.9352  -11.6084  -16.2336 C   0  0  1  0  0  0  0  0  0  0  0  0
   18.4827  -12.9291  -16.0836 O   0  0  0  0  0  0  0  0  0  0  0  0
   17.7632  -10.6861  -16.3102 C   0  0  2  0  0  0  0  0  0  0  0  0
   16.9581  -11.0782  -17.4364 N   0  0  0  0  0  0  0  0  0  0  0  0
   18.1000   -9.2613  -16.3974 C   0  0  0  0  0  0  0  0  0  0  0  0
   18.8354   -8.9141  -17.3507 O   0  0  0  0  0  0  0  0  0  0  0  0
   17.6671   -8.2632  -15.5042 N   0  0  0  0  0  0  0  0  0  0  0  0
   18.0235   -6.8908  -15.5175 C   0  0  1  0  0  0  0  0  0  0  0  0
   16.9499   -5.9025  -15.2600 C   0  0  0  0  0  0  0  0  0  0  0  0
   17.4319   -4.4990  -15.3200 C   0  0  0  0  0  0  0  0  0  0  0  0
   17.8120   -3.9935  -16.4068 O   0  0  0  0  0  0  0  0  0  0  0  0
   19.2257   -6.6390  -14.6425 C   0  0  0  0  0  0  0  0  0  0  0  0
   19.1973   -6.8789  -13.4077 O   0  0  0  0  0  0  0  0  0  0  0  0
   17.4904   -3.6787  -14.2044 O   0  0  0  0  0  0  0  0  0  0  0  0
   22.8812   -5.9500  -15.1013 C   0  0  0  0  0  0  0  0  0  0  0  0
   21.5786   -5.9114  -14.3207 C   0  0  2  0  0  0  0  0  0  0  0  0
   20.4395   -6.1222  -15.1676 N   0  0  0  0  0  0  0  0  0  0  0  0
   21.5103   -4.5809  -13.6602 C   0  0  0  0  0  0  0  0  0  0  0  0
   22.2957   -4.2279  -12.5940 O   0  0  0  0  0  0  0  0  0  0  0  0
   20.6770   -3.7257  -14.1107 O   0  0  0  0  0  0  0  0  0  0  0  0
  2  1  1  1
  2  4  1  0
  2  3  1  0
  4  5  1  6
  6  4  1  0
  7  6  2  0
  8  6  1  0
  9 13  1  0
  9  8  1  0
  9 10  1  1
 11 15  1  0
 11 10  1  0
 12 11  2  0
 13 18  1  0
 14 13  2  0
 17 16  1  6
 17 19  1  0
 18 17  1  0
 19 21  2  0
 19 20  1  0
M  END
$$$$
