GSF.pdb
     RDKit          3D

 22 22  0  0  1  0  0  0  0  0999 V2000
    7.8519  -12.8829   17.7484 N   0  0  0  0  0  0  0  0  0  0  0  0
    8.7382  -13.0472   18.8592 C   0  0  0  0  0  0  0  0  0  0  0  0
    8.2499  -14.0030   19.8579 C   0  0  0  0  0  0  0  0  0  0  0  0
    7.0404  -14.3471   19.8192 O   0  0  0  0  0  0  0  0  0  0  0  0
   10.3347  -16.9843   21.1646 O   0  0  0  0  0  0  0  0  0  0  0  0
    8.9367  -16.9905   21.3274 C   0  0  0  0  0  0  0  0  0  0  0  0
    8.5352  -15.5962   21.7358 C   0  0  2  0  0  0  0  0  0  0  0  0
    9.0488  -14.5773   20.8789 N   0  0  0  0  0  0  0  0  0  0  0  0
    9.0395  -15.4117   23.1467 C   0  0  0  0  0  0  0  0  0  0  0  0
   10.1491  -14.8520   23.3274 O   0  0  0  0  0  0  0  0  0  0  0  0
    8.2568  -15.8707   24.2359 N   0  0  0  0  0  0  0  0  0  0  0  0
    8.6597  -15.7942   25.6229 C   0  0  1  0  0  0  0  0  0  0  0  0
    7.5393  -15.4505   26.5334 C   0  0  0  0  0  0  0  0  0  0  0  0
    7.2010  -14.0277   26.5068 C   0  0  0  0  0  0  0  0  0  0  0  0
    5.9029  -13.6403   26.1542 C   0  0  0  0  0  0  0  0  0  0  0  0
    5.5341  -12.3141   26.1360 C   0  0  0  0  0  0  0  0  0  0  0  0
    6.4734  -11.3651   26.4740 C   0  0  0  0  0  0  0  0  0  0  0  0
    7.7670  -11.7232   26.8273 C   0  0  0  0  0  0  0  0  0  0  0  0
    8.1175  -13.0528   26.8399 C   0  0  0  0  0  0  0  0  0  0  0  0
    9.5063  -16.9279   26.0579 C   0  0  0  0  0  0  0  0  0  0  0  0
   10.0165  -16.9050   27.2030 O   0  0  0  0  0  0  0  0  0  0  0  0
    9.7962  -18.0463   25.2990 O   0  0  0  0  0  0  0  0  0  0  0  0
  1  2  1  0
  2  3  1  0
  3  4  2  0
  3  8  1  0
  5  6  1  0
  7  9  1  0
  7  6  1  6
  8  7  1  0
  9 10  2  0
 11 12  1  0
 11  9  1  0
 12 13  1  1
 13 14  1  0
 14 19  2  0
 15 16  2  0
 15 14  1  0
 16 17  1  0
 17 18  2  0
 19 18  1  0
 20 22  1  0
 20 12  1  0
 21 20  2  0
M  END
$$$$
