GSF.pdb
     RDKit          3D

 22 22  0  0  1  0  0  0  0  0999 V2000
    8.0898  -12.4526   18.1187 N   0  0  0  0  0  0  0  0  0  0  0  0
    8.8827  -13.4081   18.8291 C   0  0  0  0  0  0  0  0  0  0  0  0
    8.2039  -13.9742   19.9988 C   0  0  0  0  0  0  0  0  0  0  0  0
    7.1350  -13.4386   20.3906 O   0  0  0  0  0  0  0  0  0  0  0  0
    8.6208  -17.7628   21.2272 O   0  0  0  0  0  0  0  0  0  0  0  0
    7.4960  -17.0416   21.6696 C   0  0  0  0  0  0  0  0  0  0  0  0
    7.9320  -15.6091   21.8424 C   0  0  2  0  0  0  0  0  0  0  0  0
    8.6672  -15.0955   20.7326 N   0  0  0  0  0  0  0  0  0  0  0  0
    8.7682  -15.5747   23.0989 C   0  0  0  0  0  0  0  0  0  0  0  0
   10.0149  -15.4639   22.9965 O   0  0  0  0  0  0  0  0  0  0  0  0
    8.1355  -15.6676   24.3641 N   0  0  0  0  0  0  0  0  0  0  0  0
    8.8319  -15.6389   25.6314 C   0  0  1  0  0  0  0  0  0  0  0  0
    7.9594  -15.2369   26.7627 C   0  0  0  0  0  0  0  0  0  0  0  0
    7.3609  -13.9152   26.5774 C   0  0  0  0  0  0  0  0  0  0  0  0
    8.1946  -12.7950   26.4803 C   0  0  0  0  0  0  0  0  0  0  0  0
    7.6764  -11.5346   26.2848 C   0  0  0  0  0  0  0  0  0  0  0  0
    6.3101  -11.3929   26.1853 C   0  0  0  0  0  0  0  0  0  0  0  0
    5.4619  -12.4877   26.2781 C   0  0  0  0  0  0  0  0  0  0  0  0
    5.9972  -13.7391   26.4735 C   0  0  0  0  0  0  0  0  0  0  0  0
    9.6744  -16.8319   25.8723 C   0  0  0  0  0  0  0  0  0  0  0  0
    9.4100  -17.8984   25.2683 O   0  0  0  0  0  0  0  0  0  0  0  0
   10.7607  -16.8843   26.7256 O   0  0  0  0  0  0  0  0  0  0  0  0
  1  2  1  0
  2  3  1  0
  3  4  2  0
  3  8  1  0
  5  6  1  0
  7  9  1  0
  7  6  1  6
  8  7  1  0
  9 10  2  0
 11 12  1  0
 11  9  1  0
 12 13  1  1
 13 14  1  0
 14 19  2  0
 15 16  2  0
 15 14  1  0
 16 17  1  0
 17 18  2  0
 19 18  1  0
 20 22  1  0
 20 12  1  0
 21 20  2  0
M  END
$$$$
