GSF.pdb
     RDKit          3D

 22 22  0  0  1  0  0  0  0  0999 V2000
    7.9842  -12.3247   18.7086 N   0  0  0  0  0  0  0  0  0  0  0  0
    8.8054  -13.3181   19.3292 C   0  0  0  0  0  0  0  0  0  0  0  0
    8.1442  -14.0098   20.4400 C   0  0  0  0  0  0  0  0  0  0  0  0
    7.2623  -13.3933   21.0919 O   0  0  0  0  0  0  0  0  0  0  0  0
    8.6597  -18.0021   21.2791 O   0  0  0  0  0  0  0  0  0  0  0  0
    7.4568  -17.4192   21.7198 C   0  0  0  0  0  0  0  0  0  0  0  0
    7.7287  -15.9509   21.9251 C   0  0  2  0  0  0  0  0  0  0  0  0
    8.4273  -15.3400   20.8412 N   0  0  0  0  0  0  0  0  0  0  0  0
    8.5281  -15.8477   23.2016 C   0  0  0  0  0  0  0  0  0  0  0  0
    9.7712  -15.6844   23.1289 O   0  0  0  0  0  0  0  0  0  0  0  0
    7.8659  -15.9365   24.4519 N   0  0  0  0  0  0  0  0  0  0  0  0
    8.5313  -15.8933   25.7354 C   0  0  1  0  0  0  0  0  0  0  0  0
    7.6674  -15.3604   26.8180 C   0  0  0  0  0  0  0  0  0  0  0  0
    7.2492  -13.9785   26.5834 C   0  0  0  0  0  0  0  0  0  0  0  0
    5.8892  -13.6962   26.4095 C   0  0  0  0  0  0  0  0  0  0  0  0
    5.4480  -12.4079   26.2071 C   0  0  0  0  0  0  0  0  0  0  0  0
    6.3766  -11.3912   26.1782 C   0  0  0  0  0  0  0  0  0  0  0  0
    7.7306  -11.6448   26.3480 C   0  0  0  0  0  0  0  0  0  0  0  0
    8.1531  -12.9378   26.5491 C   0  0  0  0  0  0  0  0  0  0  0  0
    9.2674  -17.1349   26.0638 C   0  0  0  0  0  0  0  0  0  0  0  0
   10.0478  -17.1408   27.0452 O   0  0  0  0  0  0  0  0  0  0  0  0
    9.1726  -18.3273   25.3710 O   0  0  0  0  0  0  0  0  0  0  0  0
  1  2  1  0
  2  3  1  0
  3  4  2  0
  3  8  1  0
  5  6  1  0
  7  9  1  0
  7  6  1  6
  8  7  1  0
  9 10  2  0
 11 12  1  0
 11  9  1  0
 12 13  1  1
 13 14  1  0
 14 19  2  0
 15 16  2  0
 15 14  1  0
 16 17  1  0
 17 18  2  0
 19 18  1  0
 20 22  1  0
 20 12  1  0
 21 20  2  0
M  END
$$$$
