GSF.pdb
     RDKit          3D

 22 22  0  0  1  0  0  0  0  0999 V2000
    8.1612  -12.0226   18.9250 N   0  0  0  0  0  0  0  0  0  0  0  0
    8.5681  -13.3659   19.2010 C   0  0  0  0  0  0  0  0  0  0  0  0
    7.9625  -13.9203   20.4156 C   0  0  0  0  0  0  0  0  0  0  0  0
    7.4341  -13.1288   21.2386 O   0  0  0  0  0  0  0  0  0  0  0  0
    7.9515  -17.9630   21.4375 O   0  0  0  0  0  0  0  0  0  0  0  0
    6.8572  -17.1958   21.8790 C   0  0  0  0  0  0  0  0  0  0  0  0
    7.3223  -15.7635   21.9449 C   0  0  2  0  0  0  0  0  0  0  0  0
    7.9266  -15.3006   20.7380 N   0  0  0  0  0  0  0  0  0  0  0  0
    8.3001  -15.6933   23.0929 C   0  0  0  0  0  0  0  0  0  0  0  0
    9.5251  -15.5769   22.8418 O   0  0  0  0  0  0  0  0  0  0  0  0
    7.8216  -15.7596   24.4257 N   0  0  0  0  0  0  0  0  0  0  0  0
    8.6653  -15.7385   25.6002 C   0  0  1  0  0  0  0  0  0  0  0  0
    7.9830  -15.1792   26.7935 C   0  0  0  0  0  0  0  0  0  0  0  0
    7.4350  -13.8430   26.5610 C   0  0  0  0  0  0  0  0  0  0  0  0
    6.0483  -13.6812   26.4601 C   0  0  0  0  0  0  0  0  0  0  0  0
    5.4872  -12.4397   26.2624 C   0  0  0  0  0  0  0  0  0  0  0  0
    6.3217  -11.3484   26.1647 C   0  0  0  0  0  0  0  0  0  0  0  0
    7.6998  -11.4822   26.2614 C   0  0  0  0  0  0  0  0  0  0  0  0
    8.2426  -12.7301   26.4589 C   0  0  0  0  0  0  0  0  0  0  0  0
    9.4014  -17.0031   25.8244 C   0  0  0  0  0  0  0  0  0  0  0  0
   10.3123  -17.0352   26.6854 O   0  0  0  0  0  0  0  0  0  0  0  0
    9.1724  -18.1907   25.1551 O   0  0  0  0  0  0  0  0  0  0  0  0
  1  2  1  0
  2  3  1  0
  3  4  2  0
  3  8  1  0
  5  6  1  0
  7  9  1  0
  7  6  1  6
  8  7  1  0
  9 10  2  0
 11 12  1  0
 11  9  1  0
 12 13  1  1
 13 14  1  0
 14 19  2  0
 15 16  2  0
 15 14  1  0
 16 17  1  0
 17 18  2  0
 19 18  1  0
 20 22  1  0
 20 12  1  0
 21 20  2  0
M  END
$$$$
