GSF.pdb
     RDKit          3D

 22 22  0  0  1  0  0  0  0  0999 V2000
    4.3975  -19.0750   20.5936 N   0  0  0  0  0  0  0  0  0  0  0  0
    4.5865  -18.0062   21.5255 C   0  0  0  0  0  0  0  0  0  0  0  0
    5.8594  -17.2999   21.3518 C   0  0  0  0  0  0  0  0  0  0  0  0
    6.2934  -17.1222   20.1843 O   0  0  0  0  0  0  0  0  0  0  0  0
    6.5826  -14.0484   22.1393 O   0  0  0  0  0  0  0  0  0  0  0  0
    7.5724  -14.7455   21.4212 C   0  0  0  0  0  0  0  0  0  0  0  0
    7.8295  -16.0323   22.1628 C   0  0  2  0  0  0  0  0  0  0  0  0
    6.6499  -16.7946   22.4149 N   0  0  0  0  0  0  0  0  0  0  0  0
    8.5003  -15.6423   23.4578 C   0  0  0  0  0  0  0  0  0  0  0  0
    8.8460  -14.4469   23.6274 O   0  0  0  0  0  0  0  0  0  0  0  0
    8.7269  -16.6259   24.4533 N   0  0  0  0  0  0  0  0  0  0  0  0
    8.7564  -16.3601   25.8746 C   0  0  1  0  0  0  0  0  0  0  0  0
    7.4446  -15.9164   26.4082 C   0  0  0  0  0  0  0  0  0  0  0  0
    7.2850  -14.4625   26.3884 C   0  0  0  0  0  0  0  0  0  0  0  0
    6.0389  -13.9162   26.0595 C   0  0  0  0  0  0  0  0  0  0  0  0
    5.8372  -12.5545   26.0485 C   0  0  0  0  0  0  0  0  0  0  0  0
    6.8928  -11.7302   26.3698 C   0  0  0  0  0  0  0  0  0  0  0  0
    8.1381  -12.2469   26.6994 C   0  0  0  0  0  0  0  0  0  0  0  0
    8.3212  -13.6098   26.7052 C   0  0  0  0  0  0  0  0  0  0  0  0
    9.4383  -17.4128   26.6608 C   0  0  0  0  0  0  0  0  0  0  0  0
    9.5243  -18.5703   26.1863 O   0  0  0  0  0  0  0  0  0  0  0  0
   10.0091  -17.2362   27.9073 O   0  0  0  0  0  0  0  0  0  0  0  0
  1  2  1  0
  2  3  1  0
  3  4  2  0
  3  8  1  0
  5  6  1  0
  7  9  1  0
  7  6  1  1
  8  7  1  0
  9 10  2  0
 11 12  1  0
 11  9  1  0
 12 13  1  1
 13 14  1  0
 14 19  2  0
 15 16  2  0
 15 14  1  0
 16 17  1  0
 17 18  2  0
 19 18  1  0
 20 22  1  0
 20 12  1  0
 21 20  2  0
M  END
$$$$
