GSF.pdb
     RDKit          3D

 22 22  0  0  1  0  0  0  0  0999 V2000
    8.0627  -12.8365   17.6940 N   0  0  0  0  0  0  0  0  0  0  0  0
    8.4615  -14.1248   18.1714 C   0  0  0  0  0  0  0  0  0  0  0  0
    8.0206  -14.4004   19.5421 C   0  0  0  0  0  0  0  0  0  0  0  0
    8.1246  -13.4877   20.4017 O   0  0  0  0  0  0  0  0  0  0  0  0
    7.0819  -18.1409   21.2491 O   0  0  0  0  0  0  0  0  0  0  0  0
    6.2061  -17.0715   21.5143 C   0  0  0  0  0  0  0  0  0  0  0  0
    6.9896  -15.8001   21.3096 C   0  0  2  0  0  0  0  0  0  0  0  0
    7.4779  -15.6354   19.9790 N   0  0  0  0  0  0  0  0  0  0  0  0
    8.1318  -15.8490   22.2955 C   0  0  0  0  0  0  0  0  0  0  0  0
    9.2554  -16.2512   21.9046 O   0  0  0  0  0  0  0  0  0  0  0  0
    7.9174  -15.4425   23.6366 N   0  0  0  0  0  0  0  0  0  0  0  0
    8.9532  -15.3614   24.6427 C   0  0  1  0  0  0  0  0  0  0  0  0
    9.2424  -13.9684   25.0652 C   0  0  0  0  0  0  0  0  0  0  0  0
    8.1047  -13.3259   25.7229 C   0  0  0  0  0  0  0  0  0  0  0  0
    8.1918  -13.0088   27.0835 C   0  0  0  0  0  0  0  0  0  0  0  0
    7.1540  -12.3851   27.7387 C   0  0  0  0  0  0  0  0  0  0  0  0
    6.0171  -12.0752   27.0256 C   0  0  0  0  0  0  0  0  0  0  0  0
    5.9060  -12.3790   25.6759 C   0  0  0  0  0  0  0  0  0  0  0  0
    6.9527  -13.0022   25.0379 C   0  0  0  0  0  0  0  0  0  0  0  0
    8.7886  -16.3374   25.7434 C   0  0  0  0  0  0  0  0  0  0  0  0
    9.7258  -16.5006   26.5603 O   0  0  0  0  0  0  0  0  0  0  0  0
    7.6639  -17.1098   25.9653 O   0  0  0  0  0  0  0  0  0  0  0  0
  1  2  1  0
  2  3  1  0
  3  4  2  0
  3  8  1  0
  5  6  1  0
  7  9  1  0
  7  6  1  6
  8  7  1  0
  9 10  2  0
 11 12  1  0
 11  9  1  0
 12 13  1  1
 13 14  1  0
 14 19  2  0
 15 16  2  0
 15 14  1  0
 16 17  1  0
 17 18  2  0
 19 18  1  0
 20 22  1  0
 20 12  1  0
 21 20  2  0
M  END
$$$$
