GSF.pdb
     RDKit          3D

 22 22  0  0  1  0  0  0  0  0999 V2000
    8.2142  -12.2016   19.0135 N   0  0  0  0  0  0  0  0  0  0  0  0
    8.4628  -13.5889   19.2583 C   0  0  0  0  0  0  0  0  0  0  0  0
    7.8646  -14.0770   20.5047 C   0  0  0  0  0  0  0  0  0  0  0  0
    7.4975  -13.2353   21.3648 O   0  0  0  0  0  0  0  0  0  0  0  0
    7.5662  -18.0881   21.5881 O   0  0  0  0  0  0  0  0  0  0  0  0
    6.5394  -17.2458   22.0544 C   0  0  0  0  0  0  0  0  0  0  0  0
    7.0909  -15.8431   22.0629 C   0  0  2  0  0  0  0  0  0  0  0  0
    7.6656  -15.4452   20.8189 N   0  0  0  0  0  0  0  0  0  0  0  0
    8.1229  -15.8057   23.1642 C   0  0  0  0  0  0  0  0  0  0  0  0
    9.3397  -15.7655   22.8560 O   0  0  0  0  0  0  0  0  0  0  0  0
    7.7031  -15.8165   24.5182 N   0  0  0  0  0  0  0  0  0  0  0  0
    8.5994  -15.7993   25.6531 C   0  0  1  0  0  0  0  0  0  0  0  0
    8.0105  -15.1421   26.8463 C   0  0  0  0  0  0  0  0  0  0  0  0
    7.3834  -13.8574   26.5364 C   0  0  0  0  0  0  0  0  0  0  0  0
    8.1761  -12.8081   26.0569 C   0  0  0  0  0  0  0  0  0  0  0  0
    7.6256  -11.5886   25.7325 C   0  0  0  0  0  0  0  0  0  0  0  0
    6.2682  -11.4167   25.8894 C   0  0  0  0  0  0  0  0  0  0  0  0
    5.4605  -12.4413   26.3630 C   0  0  0  0  0  0  0  0  0  0  0  0
    6.0276  -13.6527   26.6820 C   0  0  0  0  0  0  0  0  0  0  0  0
    9.2611  -17.0991   25.9061 C   0  0  0  0  0  0  0  0  0  0  0  0
    8.7943  -18.1354   25.3766 O   0  0  0  0  0  0  0  0  0  0  0  0
   10.3814  -17.2858   26.6941 O   0  0  0  0  0  0  0  0  0  0  0  0
  1  2  1  0
  2  3  1  0
  3  4  2  0
  3  8  1  0
  5  6  1  0
  7  9  1  0
  7  6  1  6
  8  7  1  0
  9 10  2  0
 11 12  1  0
 11  9  1  0
 12 13  1  1
 13 14  1  0
 14 19  2  0
 15 16  2  0
 15 14  1  0
 16 17  1  0
 17 18  2  0
 19 18  1  0
 20 22  1  0
 20 12  1  0
 21 20  2  0
M  END
$$$$
