GSF.pdb
     RDKit          3D

 22 22  0  0  1  0  0  0  0  0999 V2000
    7.8648  -12.2550   18.6932 N   0  0  0  0  0  0  0  0  0  0  0  0
    8.7231  -13.2488   19.2607 C   0  0  0  0  0  0  0  0  0  0  0  0
    8.1043  -13.9932   20.3617 C   0  0  0  0  0  0  0  0  0  0  0  0
    7.0107  -13.5799   20.8266 O   0  0  0  0  0  0  0  0  0  0  0  0
    8.9810  -17.8389   21.2248 O   0  0  0  0  0  0  0  0  0  0  0  0
    7.7452  -17.3292   21.6655 C   0  0  0  0  0  0  0  0  0  0  0  0
    7.9569  -15.8694   21.9755 C   0  0  2  0  0  0  0  0  0  0  0  0
    8.6526  -15.1605   20.9510 N   0  0  0  0  0  0  0  0  0  0  0  0
    8.7268  -15.8244   23.2733 C   0  0  0  0  0  0  0  0  0  0  0  0
    9.9706  -15.6548   23.2367 O   0  0  0  0  0  0  0  0  0  0  0  0
    8.0367  -15.9734   24.5027 N   0  0  0  0  0  0  0  0  0  0  0  0
    8.6637  -15.9195   25.8049 C   0  0  1  0  0  0  0  0  0  0  0  0
    7.7630  -15.3922   26.8600 C   0  0  0  0  0  0  0  0  0  0  0  0
    7.3463  -14.0118   26.6141 C   0  0  0  0  0  0  0  0  0  0  0  0
    8.3182  -13.0070   26.5423 C   0  0  0  0  0  0  0  0  0  0  0  0
    7.9740  -11.6978   26.2921 C   0  0  0  0  0  0  0  0  0  0  0  0
    6.6437  -11.3900   26.1118 C   0  0  0  0  0  0  0  0  0  0  0  0
    5.6609  -12.3679   26.1780 C   0  0  0  0  0  0  0  0  0  0  0  0
    6.0233  -13.6704   26.4289 C   0  0  0  0  0  0  0  0  0  0  0  0
    9.4025  -17.1524   26.1589 C   0  0  0  0  0  0  0  0  0  0  0  0
    9.0933  -18.2315   25.6001 O   0  0  0  0  0  0  0  0  0  0  0  0
   10.4350  -17.2305   27.0747 O   0  0  0  0  0  0  0  0  0  0  0  0
  1  2  1  0
  2  3  1  0
  3  4  2  0
  3  8  1  0
  5  6  1  0
  7  9  1  0
  7  6  1  6
  8  7  1  0
  9 10  2  0
 11 12  1  0
 11  9  1  0
 12 13  1  1
 13 14  1  0
 14 19  2  0
 15 16  2  0
 15 14  1  0
 16 17  1  0
 17 18  2  0
 19 18  1  0
 20 22  1  0
 20 12  1  0
 21 20  2  0
M  END
$$$$
