IRY.pdb
     RDKit          3D

 32 32  0  0  1  0  0  0  0  0999 V2000
   14.5420  -14.5191  -26.1530 C   0  0  0  0  0  0  0  0  0  0  0  0
   15.5916  -15.0718  -25.2323 C   0  0  0  0  0  0  0  0  0  0  0  0
   16.3839  -13.9013  -24.5740 C   0  0  2  0  0  0  0  0  0  0  0  0
   17.2558  -13.3965  -25.7107 C   0  0  0  0  0  0  0  0  0  0  0  0
   17.1285  -14.5392  -23.4548 C   0  0  2  0  0  0  0  0  0  0  0  0
   16.0735  -14.9345  -22.4743 N   0  0  0  0  0  0  0  0  0  0  0  0
   18.1089  -13.7360  -22.7361 C   0  0  0  0  0  0  0  0  0  0  0  0
   17.7127  -12.8684  -21.8795 O   0  0  0  0  0  0  0  0  0  0  0  0
   25.4278  -17.0702  -21.2349 N   0  0  0  0  0  0  0  0  0  0  0  0
   24.4413  -16.9137  -22.2417 C   0  0  0  0  0  0  0  0  0  0  0  0
   24.3456  -17.7618  -23.2038 N   0  0  0  0  0  0  0  0  0  0  0  0
   23.5251  -15.8200  -22.2293 N   0  0  0  0  0  0  0  0  0  0  0  0
   23.5273  -14.8840  -21.1400 C   0  0  0  0  0  0  0  0  0  0  0  0
   22.1462  -14.2726  -20.9749 C   0  0  0  0  0  0  0  0  0  0  0  0
   21.7835  -13.5564  -22.2281 C   0  0  0  0  0  0  0  0  0  0  0  0
   20.4346  -12.9225  -22.2592 C   0  0  2  0  0  0  0  0  0  0  0  0
   19.5028  -13.8536  -22.9208 N   0  0  0  0  0  0  0  0  0  0  0  0
   20.4232  -11.6328  -22.9770 C   0  0  0  0  0  0  0  0  0  0  0  0
   19.9100  -11.5883  -24.1514 O   0  0  0  0  0  0  0  0  0  0  0  0
   23.6033  -17.7213  -23.9271 O   0  0  0  0  0  0  0  0  0  0  0  0
   19.7532   -3.8115  -26.5002 C   0  0  0  0  0  0  0  0  0  0  0  0
   19.7126   -5.0303  -25.8219 C   0  0  0  0  0  0  0  0  0  0  0  0
   19.5780   -5.0991  -24.4519 C   0  0  0  0  0  0  0  0  0  0  0  0
   19.5379   -6.3032  -23.7804 C   0  0  0  0  0  0  0  0  0  0  0  0
   19.6301   -7.5127  -24.4372 C   0  0  0  0  0  0  0  0  0  0  0  0
   19.5994   -8.8356  -23.7766 C   0  0  1  0  0  0  0  0  0  0  0  0
   20.9351   -9.1707  -23.2228 N   0  0  0  0  0  0  0  0  0  0  0  0
   20.9399  -10.4117  -22.4758 C   0  0  0  0  0  0  0  0  0  0  0  0
   21.5541   -8.0901  -22.4464 O   0  0  0  0  0  0  0  0  0  0  0  0
   21.6764   -6.8172  -23.0338 C   0  0  0  0  0  0  0  0  0  0  0  0
   19.7663   -7.4278  -25.8289 C   0  0  0  0  0  0  0  0  0  0  0  0
   19.8065   -6.2271  -26.5003 O   0  0  0  0  0  0  0  0  0  0  0  0
  2  1  1  0
  3  2  1  0
  3  4  1  6
  5  3  1  0
  5  6  1  1
  7  5  1  0
  8  7  2  0
  9 10  1  0
 10 12  1  0
 11 10  2  0
 12 13  1  0
 13 14  1  0
 14 15  1  0
 16 15  1  6
 16 18  1  0
 16 17  1  0
 17  7  1  0
 18 27  1  0
 19 18  2  0
 21 22  2  0
 21 20  1  0
 23 22  1  0
 24 23  2  0
 25 24  1  0
 26 25  1  6
 27 26  1  0
 28 29  1  0
 28 26  1  0
 30 24  1  0
 30 31  2  0
 31 21  1  0
 32 28  2  0
M  END
$$$$
