IRY.pdb
     RDKit          3D

 32 32  0  0  1  0  0  0  0  0999 V2000
   17.0584  -20.9761   -9.9973 C   0  0  0  0  0  0  0  0  0  0  0  0
   17.4108  -21.2276  -11.4350 C   0  0  0  0  0  0  0  0  0  0  0  0
   18.9535  -21.4053  -11.5757 C   0  0  2  0  0  0  0  0  0  0  0  0
   19.4976  -20.0767  -11.0794 C   0  0  0  0  0  0  0  0  0  0  0  0
   19.1677  -21.6626  -13.0255 C   0  0  2  0  0  0  0  0  0  0  0  0
   18.5196  -22.9848  -13.2755 N   0  0  0  0  0  0  0  0  0  0  0  0
   20.5381  -21.7530  -13.5120 C   0  0  0  0  0  0  0  0  0  0  0  0
   21.2063  -22.8316  -13.3290 O   0  0  0  0  0  0  0  0  0  0  0  0
   25.1388  -20.0276  -20.0371 N   0  0  0  0  0  0  0  0  0  0  0  0
   26.0312  -19.3032  -19.2062 C   0  0  0  0  0  0  0  0  0  0  0  0
   27.2448  -19.0910  -19.5750 N   0  0  0  0  0  0  0  0  0  0  0  0
   25.6238  -18.7868  -17.9401 N   0  0  0  0  0  0  0  0  0  0  0  0
   24.2703  -18.9542  -17.4897 C   0  0  0  0  0  0  0  0  0  0  0  0
   24.2314  -19.8857  -16.2899 C   0  0  0  0  0  0  0  0  0  0  0  0
   22.8328  -19.9660  -15.7877 C   0  0  0  0  0  0  0  0  0  0  0  0
   22.6064  -20.8413  -14.6023 C   0  0  2  0  0  0  0  0  0  0  0  0
   21.1968  -20.7072  -14.1927 N   0  0  0  0  0  0  0  0  0  0  0  0
   23.4781  -20.4988  -13.4614 C   0  0  0  0  0  0  0  0  0  0  0  0
   23.0983  -19.5784  -12.6533 O   0  0  0  0  0  0  0  0  0  0  0  0
   27.9261  -18.5510  -19.0091 O   0  0  0  0  0  0  0  0  0  0  0  0
   28.5845  -19.6391   -6.5364 C   0  0  0  0  0  0  0  0  0  0  0  0
   27.7793  -20.0917   -7.5824 C   0  0  0  0  0  0  0  0  0  0  0  0
   26.4485  -19.7468   -7.6809 C   0  0  0  0  0  0  0  0  0  0  0  0
   25.6516  -20.1937   -8.7142 C   0  0  0  0  0  0  0  0  0  0  0  0
   26.1362  -21.0130   -9.7126 C   0  0  0  0  0  0  0  0  0  0  0  0
   25.3343  -21.5302  -10.8425 C   0  0  2  0  0  0  0  0  0  0  0  0
   25.5704  -20.7175  -12.0619 N   0  0  0  0  0  0  0  0  0  0  0  0
   24.7249  -21.1076  -13.1714 C   0  0  0  0  0  0  0  0  0  0  0  0
   26.9766  -20.6458  -12.4755 O   0  0  0  0  0  0  0  0  0  0  0  0
   27.7288  -19.5085  -12.1275 C   0  0  0  0  0  0  0  0  0  0  0  0
   27.4899  -21.3553   -9.5999 C   0  0  0  0  0  0  0  0  0  0  0  0
   28.2863  -20.9102   -8.5695 O   0  0  0  0  0  0  0  0  0  0  0  0
  2  1  1  0
  3  2  1  0
  3  4  1  6
  5  3  1  0
  5  6  1  1
  7  5  1  0
  8  7  2  0
  9 10  1  0
 10 12  1  0
 11 10  2  0
 12 13  1  0
 13 14  1  0
 14 15  1  0
 16 15  1  6
 16 18  1  0
 16 17  1  0
 17  7  1  0
 18 27  1  0
 19 18  2  0
 21 22  2  0
 21 20  1  0
 23 22  1  0
 24 23  2  0
 25 24  1  0
 26 25  1  1
 27 26  1  0
 28 29  1  0
 28 26  1  0
 30 24  1  0
 30 31  2  0
 31 21  1  0
 32 28  2  0
M  END
$$$$
