IRY.pdb
     RDKit          3D

 32 32  0  0  1  0  0  0  0  0999 V2000
   18.8542  -31.4703  -11.5644 C   0  0  0  0  0  0  0  0  0  0  0  0
   19.0526  -30.1221  -12.1950 C   0  0  0  0  0  0  0  0  0  0  0  0
   20.4846  -30.0318  -12.8051 C   0  0  2  0  0  0  0  0  0  0  0  0
   21.3838  -30.2708  -11.6044 C   0  0  0  0  0  0  0  0  0  0  0  0
   20.5602  -28.6595  -13.3754 C   0  0  2  0  0  0  0  0  0  0  0  0
   21.9173  -28.5804  -13.9941 N   0  0  0  0  0  0  0  0  0  0  0  0
   20.4326  -27.5293  -12.4649 C   0  0  0  0  0  0  0  0  0  0  0  0
   21.4697  -27.0851  -11.8560 O   0  0  0  0  0  0  0  0  0  0  0  0
   16.4529  -21.2700  -15.2372 N   0  0  0  0  0  0  0  0  0  0  0  0
   15.8262  -21.6248  -14.0154 C   0  0  0  0  0  0  0  0  0  0  0  0
   14.6055  -21.2927  -13.7837 N   0  0  0  0  0  0  0  0  0  0  0  0
   16.5173  -22.3558  -13.0036 N   0  0  0  0  0  0  0  0  0  0  0  0
   17.9442  -22.2506  -12.8790 C   0  0  0  0  0  0  0  0  0  0  0  0
   18.4439  -23.1916  -11.7957 C   0  0  0  0  0  0  0  0  0  0  0  0
   18.6269  -24.5472  -12.3820 C   0  0  0  0  0  0  0  0  0  0  0  0
   19.1872  -25.5886  -11.4744 C   0  0  2  0  0  0  0  0  0  0  0  0
   19.2130  -26.8697  -12.2032 N   0  0  0  0  0  0  0  0  0  0  0  0
   18.4031  -25.7513  -10.2345 C   0  0  0  0  0  0  0  0  0  0  0  0
   17.2887  -26.3833  -10.2913 O   0  0  0  0  0  0  0  0  0  0  0  0
   14.1066  -21.5325  -12.9065 O   0  0  0  0  0  0  0  0  0  0  0  0
   15.2757  -25.6509   -1.9788 C   0  0  0  0  0  0  0  0  0  0  0  0
   16.0750  -25.4300   -3.1011 C   0  0  0  0  0  0  0  0  0  0  0  0
   15.8673  -24.3612   -3.9462 C   0  0  0  0  0  0  0  0  0  0  0  0
   16.6566  -24.1420   -5.0559 C   0  0  0  0  0  0  0  0  0  0  0  0
   17.7020  -24.9779   -5.3891 C   0  0  0  0  0  0  0  0  0  0  0  0
   18.5805  -24.8019   -6.5658 C   0  0  2  0  0  0  0  0  0  0  0  0
   17.9400  -25.3645   -7.7809 N   0  0  0  0  0  0  0  0  0  0  0  0
   18.7774  -25.2612   -8.9582 C   0  0  0  0  0  0  0  0  0  0  0  0
   16.5942  -24.8442   -8.0486 O   0  0  0  0  0  0  0  0  0  0  0  0
   15.4807  -25.6217   -7.6797 C   0  0  0  0  0  0  0  0  0  0  0  0
   17.9016  -26.0597   -4.5216 C   0  0  0  0  0  0  0  0  0  0  0  0
   17.1149  -26.2797   -3.4140 O   0  0  0  0  0  0  0  0  0  0  0  0
  2  1  1  0
  3  2  1  0
  3  4  1  1
  5  3  1  0
  5  6  1  1
  7  5  1  0
  8  7  2  0
  9 10  1  0
 10 12  1  0
 11 10  2  0
 12 13  1  0
 13 14  1  0
 14 15  1  0
 16 15  1  6
 16 18  1  0
 16 17  1  0
 17  7  1  0
 18 27  1  0
 19 18  2  0
 21 22  2  0
 21 20  1  0
 23 22  1  0
 24 23  2  0
 25 24  1  0
 26 25  1  1
 27 26  1  0
 28 29  1  0
 28 26  1  0
 30 24  1  0
 30 31  2  0
 31 21  1  0
 32 28  2  0
M  END
$$$$
