IRY.pdb
     RDKit          3D

 32 32  0  0  1  0  0  0  0  0999 V2000
   21.6975  -20.1080  -17.1921 C   0  0  0  0  0  0  0  0  0  0  0  0
   20.8498  -20.6067  -16.0575 C   0  0  0  0  0  0  0  0  0  0  0  0
   20.8334  -19.5519  -14.9093 C   0  0  2  0  0  0  0  0  0  0  0  0
   21.9989  -18.6439  -15.2622 C   0  0  0  0  0  0  0  0  0  0  0  0
   21.0206  -20.3504  -13.6678 C   0  0  2  0  0  0  0  0  0  0  0  0
   22.3515  -21.0070  -13.8365 N   0  0  0  0  0  0  0  0  0  0  0  0
   20.0538  -21.4001  -13.3739 C   0  0  0  0  0  0  0  0  0  0  0  0
   18.8316  -21.0900  -13.1425 O   0  0  0  0  0  0  0  0  0  0  0  0
   20.9752  -29.6051  -13.4389 N   0  0  0  0  0  0  0  0  0  0  0  0
   20.8610  -28.8007  -14.6014 C   0  0  0  0  0  0  0  0  0  0  0  0
   21.4836  -29.1166  -15.6814 N   0  0  0  0  0  0  0  0  0  0  0  0
   20.0601  -27.6201  -14.6197 N   0  0  0  0  0  0  0  0  0  0  0  0
   19.2583  -27.2694  -13.4809 C   0  0  0  0  0  0  0  0  0  0  0  0
   18.4676  -26.0044  -13.7693 C   0  0  0  0  0  0  0  0  0  0  0  0
   19.4186  -24.8778  -13.9727 C   0  0  0  0  0  0  0  0  0  0  0  0
   19.3643  -23.7785  -12.9673 C   0  0  2  0  0  0  0  0  0  0  0  0
   20.3789  -22.7724  -13.3290 N   0  0  0  0  0  0  0  0  0  0  0  0
   19.6151  -24.2475  -11.5903 C   0  0  0  0  0  0  0  0  0  0  0  0
   20.7049  -23.8982  -11.0118 O   0  0  0  0  0  0  0  0  0  0  0  0
   21.4404  -28.5513  -16.5501 O   0  0  0  0  0  0  0  0  0  0  0  0
   14.3921  -23.1122   -5.6587 C   0  0  0  0  0  0  0  0  0  0  0  0
   15.5552  -23.3838   -6.3804 C   0  0  0  0  0  0  0  0  0  0  0  0
   15.7246  -22.9560   -7.6797 C   0  0  0  0  0  0  0  0  0  0  0  0
   16.8737  -23.2241   -8.3940 C   0  0  0  0  0  0  0  0  0  0  0  0
   17.9239  -23.9363   -7.8534 C   0  0  0  0  0  0  0  0  0  0  0  0
   19.1781  -24.2615   -8.5667 C   0  0  1  0  0  0  0  0  0  0  0  0
   18.9823  -25.4363   -9.4524 N   0  0  0  0  0  0  0  0  0  0  0  0
   18.7420  -25.0675  -10.8324 C   0  0  0  0  0  0  0  0  0  0  0  0
   17.9673  -26.3850   -8.9798 O   0  0  0  0  0  0  0  0  0  0  0  0
   18.1972  -27.0818   -7.7790 C   0  0  0  0  0  0  0  0  0  0  0  0
   17.7382  -24.3646   -6.5326 C   0  0  0  0  0  0  0  0  0  0  0  0
   16.5922  -24.0979   -5.8185 O   0  0  0  0  0  0  0  0  0  0  0  0
  2  1  1  0
  3  2  1  0
  3  4  1  6
  5  3  1  0
  5  6  1  6
  7  5  1  0
  8  7  2  0
  9 10  1  0
 10 12  1  0
 11 10  2  0
 12 13  1  0
 13 14  1  0
 14 15  1  0
 16 15  1  6
 16 18  1  0
 16 17  1  0
 17  7  1  0
 18 27  1  0
 19 18  2  0
 21 22  2  0
 21 20  1  0
 23 22  1  0
 24 23  2  0
 25 24  1  0
 26 25  1  6
 27 26  1  0
 28 29  1  0
 28 26  1  0
 30 24  1  0
 30 31  2  0
 31 21  1  0
 32 28  2  0
M  END
$$$$
