IRY.pdb
     RDKit          3D

 32 32  0  0  1  0  0  0  0  0999 V2000
   28.3110  -20.0438   -6.9094 C   0  0  0  0  0  0  0  0  0  0  0  0
   27.4913  -20.9085   -7.8232 C   0  0  0  0  0  0  0  0  0  0  0  0
   26.8695  -20.0362   -8.9561 C   0  0  2  0  0  0  0  0  0  0  0  0
   25.8569  -19.1817   -8.2134 C   0  0  0  0  0  0  0  0  0  0  0  0
   26.2779  -21.0210   -9.9018 C   0  0  2  0  0  0  0  0  0  0  0  0
   27.4324  -21.8549  -10.3519 N   0  0  0  0  0  0  0  0  0  0  0  0
   25.6175  -20.5140  -11.0974 C   0  0  0  0  0  0  0  0  0  0  0  0
   24.4522  -19.9880  -11.0036 O   0  0  0  0  0  0  0  0  0  0  0  0
   28.7963  -21.7284  -16.0863 N   0  0  0  0  0  0  0  0  0  0  0  0
   27.8167  -22.1830  -17.0057 C   0  0  0  0  0  0  0  0  0  0  0  0
   27.8242  -23.3990  -17.4243 N   0  0  0  0  0  0  0  0  0  0  0  0
   26.7943  -21.3189  -17.4993 N   0  0  0  0  0  0  0  0  0  0  0  0
   26.7860  -19.9274  -17.1436 C   0  0  0  0  0  0  0  0  0  0  0  0
   25.7773  -19.6785  -16.0349 C   0  0  0  0  0  0  0  0  0  0  0  0
   26.3114  -20.2378  -14.7634 C   0  0  0  0  0  0  0  0  0  0  0  0
   25.4264  -20.1239  -13.5691 C   0  0  2  0  0  0  0  0  0  0  0  0
   26.1900  -20.5603  -12.3862 N   0  0  0  0  0  0  0  0  0  0  0  0
   24.2008  -20.9385  -13.6833 C   0  0  0  0  0  0  0  0  0  0  0  0
   24.1884  -22.1064  -13.1539 O   0  0  0  0  0  0  0  0  0  0  0  0
   27.1923  -23.7492  -18.1686 O   0  0  0  0  0  0  0  0  0  0  0  0
   16.3514  -22.2885  -10.6503 C   0  0  0  0  0  0  0  0  0  0  0  0
   17.5907  -21.8256  -11.0943 C   0  0  0  0  0  0  0  0  0  0  0  0
   17.7457  -20.5745  -11.6515 C   0  0  0  0  0  0  0  0  0  0  0  0
   18.9701  -20.1160  -12.0909 C   0  0  0  0  0  0  0  0  0  0  0  0
   20.1149  -20.8801  -12.0004 C   0  0  0  0  0  0  0  0  0  0  0  0
   21.4542  -20.4500  -12.4572 C   0  0  2  0  0  0  0  0  0  0  0  0
   21.6816  -20.8659  -13.8637 N   0  0  0  0  0  0  0  0  0  0  0  0
   23.0099  -20.5390  -14.3401 C   0  0  0  0  0  0  0  0  0  0  0  0
   20.6579  -20.3958  -14.8042 O   0  0  0  0  0  0  0  0  0  0  0  0
   20.8071  -19.1247  -15.3895 C   0  0  0  0  0  0  0  0  0  0  0  0
   19.9428  -22.1489  -11.4321 C   0  0  0  0  0  0  0  0  0  0  0  0
   18.7217  -22.6079  -10.9932 O   0  0  0  0  0  0  0  0  0  0  0  0
  2  1  1  0
  3  2  1  0
  3  4  1  1
  5  3  1  0
  5  6  1  6
  7  5  1  0
  8  7  2  0
  9 10  1  0
 10 12  1  0
 11 10  2  0
 12 13  1  0
 13 14  1  0
 14 15  1  0
 16 15  1  6
 16 18  1  0
 16 17  1  0
 17  7  1  0
 18 27  1  0
 19 18  2  0
 21 22  2  0
 21 20  1  0
 23 22  1  0
 24 23  2  0
 25 24  1  0
 26 25  1  1
 27 26  1  0
 28 29  1  0
 28 26  1  0
 30 24  1  0
 30 31  2  0
 31 21  1  0
 32 28  2  0
M  END
$$$$
