IRY.pdb
     RDKit          3D

 32 32  0  0  1  0  0  0  0  0999 V2000
   28.3750  -15.6047  -16.7322 C   0  0  0  0  0  0  0  0  0  0  0  0
   27.4189  -16.7572  -16.8430 C   0  0  0  0  0  0  0  0  0  0  0  0
   26.7999  -17.0642  -15.4452 C   0  0  2  0  0  0  0  0  0  0  0  0
   27.9796  -17.6137  -14.6618 C   0  0  0  0  0  0  0  0  0  0  0  0
   25.7235  -18.0529  -15.7240 C   0  0  2  0  0  0  0  0  0  0  0  0
   24.7441  -17.3163  -16.5778 N   0  0  0  0  0  0  0  0  0  0  0  0
   24.9859  -18.6022  -14.5939 C   0  0  0  0  0  0  0  0  0  0  0  0
   24.1549  -17.8612  -13.9585 O   0  0  0  0  0  0  0  0  0  0  0  0
   20.1319  -24.4087  -12.8120 N   0  0  0  0  0  0  0  0  0  0  0  0
   19.5238  -23.1282  -12.7653 C   0  0  0  0  0  0  0  0  0  0  0  0
   18.5516  -22.8930  -11.9570 N   0  0  0  0  0  0  0  0  0  0  0  0
   19.9603  -22.0604  -13.6048 N   0  0  0  0  0  0  0  0  0  0  0  0
   21.3209  -22.0062  -14.0616 C   0  0  0  0  0  0  0  0  0  0  0  0
   22.2616  -21.8413  -12.8799 C   0  0  0  0  0  0  0  0  0  0  0  0
   23.6497  -21.6716  -13.3892 C   0  0  0  0  0  0  0  0  0  0  0  0
   24.3528  -20.4208  -12.9847 C   0  0  2  0  0  0  0  0  0  0  0  0
   25.1247  -19.9313  -14.1411 N   0  0  0  0  0  0  0  0  0  0  0  0
   25.2649  -20.6195  -11.8413 C   0  0  0  0  0  0  0  0  0  0  0  0
   26.5294  -20.5755  -12.0499 O   0  0  0  0  0  0  0  0  0  0  0  0
   18.0851  -21.9697  -11.8803 O   0  0  0  0  0  0  0  0  0  0  0  0
   29.3427  -19.7954   -4.2249 C   0  0  0  0  0  0  0  0  0  0  0  0
   28.6820  -19.7774   -5.4539 C   0  0  0  0  0  0  0  0  0  0  0  0
   27.5757  -18.9860   -5.6763 C   0  0  0  0  0  0  0  0  0  0  0  0
   26.9218  -18.9675   -6.8907 C   0  0  0  0  0  0  0  0  0  0  0  0
   27.3337  -19.7391   -7.9573 C   0  0  0  0  0  0  0  0  0  0  0  0
   26.6744  -19.7691   -9.2808 C   0  0  1  0  0  0  0  0  0  0  0  0
   25.7841  -20.9516   -9.3909 N   0  0  0  0  0  0  0  0  0  0  0  0
   24.8616  -20.8606  -10.5040 C   0  0  0  0  0  0  0  0  0  0  0  0
   25.0763  -21.2907   -8.1509 O   0  0  0  0  0  0  0  0  0  0  0  0
   23.6710  -21.2193   -8.1309 C   0  0  0  0  0  0  0  0  0  0  0  0
   28.4591  -20.5380   -7.7172 C   0  0  0  0  0  0  0  0  0  0  0  0
   29.1126  -20.5576   -6.5061 O   0  0  0  0  0  0  0  0  0  0  0  0
  2  1  1  0
  3  2  1  0
  3  4  1  1
  5  3  1  0
  5  6  1  6
  7  5  1  0
  8  7  2  0
  9 10  1  0
 10 12  1  0
 11 10  2  0
 12 13  1  0
 13 14  1  0
 14 15  1  0
 16 15  1  6
 16 18  1  0
 16 17  1  0
 17  7  1  0
 18 27  1  0
 19 18  2  0
 21 22  2  0
 21 20  1  0
 23 22  1  0
 24 23  2  0
 25 24  1  0
 26 25  1  6
 27 26  1  0
 28 29  1  0
 28 26  1  0
 30 24  1  0
 30 31  2  0
 31 21  1  0
 32 28  2  0
M  END
$$$$
