IRY.pdb
     RDKit          3D

 32 32  0  0  1  0  0  0  0  0999 V2000
   18.2114  -22.5350  -13.1679 C   0  0  0  0  0  0  0  0  0  0  0  0
   18.9348  -22.1204  -14.4167 C   0  0  0  0  0  0  0  0  0  0  0  0
   19.6947  -20.7823  -14.1654 C   0  0  2  0  0  0  0  0  0  0  0  0
   18.5798  -19.8206  -13.7920 C   0  0  0  0  0  0  0  0  0  0  0  0
   20.3642  -20.4858  -15.4607 C   0  0  2  0  0  0  0  0  0  0  0  0
   20.6601  -21.8259  -16.0500 N   0  0  0  0  0  0  0  0  0  0  0  0
   21.6150  -19.7393  -15.4324 C   0  0  0  0  0  0  0  0  0  0  0  0
   21.6377  -18.5583  -14.9341 O   0  0  0  0  0  0  0  0  0  0  0  0
   24.6633  -24.5066  -15.2861 N   0  0  0  0  0  0  0  0  0  0  0  0
   25.5119  -24.6613  -16.4118 C   0  0  0  0  0  0  0  0  0  0  0  0
   25.4764  -25.7361  -17.1172 N   0  0  0  0  0  0  0  0  0  0  0  0
   26.4309  -23.6424  -16.8030 N   0  0  0  0  0  0  0  0  0  0  0  0
   26.4357  -22.3729  -16.1314 C   0  0  0  0  0  0  0  0  0  0  0  0
   25.1797  -21.5928  -16.4816 C   0  0  0  0  0  0  0  0  0  0  0  0
   25.2367  -20.2635  -15.8151 C   0  0  0  0  0  0  0  0  0  0  0  0
   24.0393  -19.3908  -15.9794 C   0  0  2  0  0  0  0  0  0  0  0  0
   22.8374  -20.2424  -15.9259 N   0  0  0  0  0  0  0  0  0  0  0  0
   24.0463  -18.6404  -17.2505 C   0  0  0  0  0  0  0  0  0  0  0  0
   23.6223  -19.2244  -18.3105 O   0  0  0  0  0  0  0  0  0  0  0  0
   26.0853  -25.8970  -17.9414 O   0  0  0  0  0  0  0  0  0  0  0  0
   24.2075  -12.7800  -23.7933 C   0  0  0  0  0  0  0  0  0  0  0  0
   24.1486  -13.3904  -22.5398 C   0  0  0  0  0  0  0  0  0  0  0  0
   23.1494  -14.2796  -22.2072 C   0  0  0  0  0  0  0  0  0  0  0  0
   23.0900  -14.8833  -20.9684 C   0  0  0  0  0  0  0  0  0  0  0  0
   24.0259  -14.6352  -19.9860 C   0  0  0  0  0  0  0  0  0  0  0  0
   24.0157  -15.2443  -18.6384 C   0  0  2  0  0  0  0  0  0  0  0  0
   24.5548  -16.6263  -18.6889 N   0  0  0  0  0  0  0  0  0  0  0  0
   24.4896  -17.3035  -17.4102 C   0  0  0  0  0  0  0  0  0  0  0  0
   25.8999  -16.7278  -19.2669 O   0  0  0  0  0  0  0  0  0  0  0  0
   26.0357  -16.7603  -20.6672 C   0  0  0  0  0  0  0  0  0  0  0  0
   25.0355  -13.7299  -20.3378 C   0  0  0  0  0  0  0  0  0  0  0  0
   25.0961  -13.1266  -21.5734 O   0  0  0  0  0  0  0  0  0  0  0  0
  2  1  1  0
  3  2  1  0
  3  4  1  6
  5  3  1  0
  5  6  1  1
  7  5  1  0
  8  7  2  0
  9 10  1  0
 10 12  1  0
 11 10  2  0
 12 13  1  0
 13 14  1  0
 14 15  1  0
 16 15  1  6
 16 18  1  0
 16 17  1  0
 17  7  1  0
 18 27  1  0
 19 18  2  0
 21 22  2  0
 21 20  1  0
 23 22  1  0
 24 23  2  0
 25 24  1  0
 26 25  1  6
 27 26  1  0
 28 29  1  0
 28 26  1  0
 30 24  1  0
 30 31  2  0
 31 21  1  0
 32 28  2  0
M  END
$$$$
