CAL.pdb
     RDKit          3D

 20 19  0  0  1  0  0  0  0  0999 V2000
   14.6871  -19.1336  -14.8318 N   0  0  0  0  0  0  0  0  0  0  0  0
   15.8513  -19.9865  -14.6244 C   0  0  1  0  0  0  0  0  0  0  0  0
   15.6478  -21.2079  -15.5289 C   0  0  0  0  0  0  0  0  0  0  0  0
   14.5845  -22.4266  -14.7586 S   0  0  0  0  0  0  0  0  0  0  0  0
   17.0557  -19.2257  -15.0453 C   0  0  0  0  0  0  0  0  0  0  0  0
   17.0483  -18.4739  -16.0752 O   0  0  0  0  0  0  0  0  0  0  0  0
   20.5023  -18.5538  -13.5766 C   0  0  0  0  0  0  0  0  0  0  0  0
   19.4414  -18.5102  -14.6797 C   0  0  2  0  0  0  0  0  0  0  0  0
   18.2853  -19.2844  -14.3346 N   0  0  0  0  0  0  0  0  0  0  0  0
   20.0199  -19.0313  -15.9637 C   0  0  0  0  0  0  0  0  0  0  0  0
   19.8827  -20.2511  -16.2839 O   0  0  0  0  0  0  0  0  0  0  0  0
   21.0670  -18.6152  -21.1939 C   0  0  0  0  0  0  0  0  0  0  0  0
   22.2074  -18.1287  -20.3142 C   0  0  1  0  0  0  0  0  0  0  0  0
   22.9712  -17.0151  -21.0425 C   0  0  0  0  0  0  0  0  0  0  0  0
   21.6495  -17.6312  -19.0219 C   0  0  0  0  0  0  0  0  0  0  0  0
   21.2899  -18.7516  -18.1114 C   0  0  2  0  0  0  0  0  0  0  0  0
   20.7266  -18.2003  -16.8500 N   0  0  0  0  0  0  0  0  0  0  0  0
   22.4184  -19.6337  -17.7840 C   0  0  0  0  0  0  0  0  0  0  0  0
   22.6516  -20.8075  -18.5095 O   0  0  0  0  0  0  0  0  0  0  0  0
   23.1988  -19.3692  -16.8580 O   0  0  0  0  0  0  0  0  0  0  0  0
  2  1  1  6
  3  2  1  0
  4  3  1  0
  5  6  2  0
  5  2  1  0
  8  7  1  1
  8  9  1  0
  9  5  1  0
 10  8  1  0
 11 10  2  0
 13 12  1  6
 13 14  1  0
 15 13  1  0
 16 15  1  6
 16 17  1  0
 17 10  1  0
 18 16  1  0
 19 18  1  0
 20 18  2  0
M  END
$$$$
