CAL.pdb
     RDKit          3D

 20 19  0  0  1  0  0  0  0  0999 V2000
   19.6685  -11.9027  -18.2075 N   0  0  0  0  0  0  0  0  0  0  0  0
   20.9812  -11.2802  -18.0839 C   0  0  1  0  0  0  0  0  0  0  0  0
   21.1660  -10.4278  -19.3451 C   0  0  0  0  0  0  0  0  0  0  0  0
   22.0297  -11.3312  -20.6284 S   0  0  0  0  0  0  0  0  0  0  0  0
   20.9657  -10.4181  -16.8743 C   0  0  0  0  0  0  0  0  0  0  0  0
   20.0197   -9.5928  -16.6506 O   0  0  0  0  0  0  0  0  0  0  0  0
   23.1541   -9.9658  -13.7873 C   0  0  0  0  0  0  0  0  0  0  0  0
   22.0719   -9.5484  -14.7868 C   0  0  2  0  0  0  0  0  0  0  0  0
   21.9948  -10.4553  -15.8945 N   0  0  0  0  0  0  0  0  0  0  0  0
   22.3575   -8.1660  -15.2989 C   0  0  0  0  0  0  0  0  0  0  0  0
   22.9963   -7.9995  -16.3822 O   0  0  0  0  0  0  0  0  0  0  0  0
   21.5485   -4.2556  -18.5553 C   0  0  0  0  0  0  0  0  0  0  0  0
   21.6354   -4.1552  -17.0409 C   0  0  1  0  0  0  0  0  0  0  0  0
   20.5610   -3.1845  -16.5338 C   0  0  0  0  0  0  0  0  0  0  0  0
   21.4451   -5.5127  -16.4495 C   0  0  0  0  0  0  0  0  0  0  0  0
   22.1903   -5.6642  -15.1708 C   0  0  2  0  0  0  0  0  0  0  0  0
   21.9345   -7.0172  -14.6084 N   0  0  0  0  0  0  0  0  0  0  0  0
   21.8439   -4.6549  -14.1607 C   0  0  0  0  0  0  0  0  0  0  0  0
   20.7895   -4.8625  -13.2643 O   0  0  0  0  0  0  0  0  0  0  0  0
   22.4711   -3.5897  -14.0689 O   0  0  0  0  0  0  0  0  0  0  0  0
  2  1  1  6
  3  2  1  0
  4  3  1  0
  5  6  2  0
  5  2  1  0
  8  7  1  1
  8  9  1  0
  9  5  1  0
 10  8  1  0
 11 10  2  0
 13 12  1  6
 13 14  1  0
 15 13  1  0
 16 15  1  6
 16 17  1  0
 17 10  1  0
 18 16  1  0
 19 18  1  0
 20 18  2  0
M  END
$$$$
