CAL.pdb
     RDKit          3D

 20 19  0  0  1  0  0  0  0  0999 V2000
   17.3344  -12.2796  -15.7263 N   0  0  0  0  0  0  0  0  0  0  0  0
   16.1526  -12.0338  -14.9085 C   0  0  1  0  0  0  0  0  0  0  0  0
   16.4279  -12.7006  -13.5554 C   0  0  0  0  0  0  0  0  0  0  0  0
   15.9501  -14.4271  -13.5639 S   0  0  0  0  0  0  0  0  0  0  0  0
   16.0099  -10.5647  -14.7419 C   0  0  0  0  0  0  0  0  0  0  0  0
   17.0230   -9.8049  -14.5918 O   0  0  0  0  0  0  0  0  0  0  0  0
   13.2536   -8.0362  -15.2590 C   0  0  0  0  0  0  0  0  0  0  0  0
   14.5839   -8.4919  -14.6534 C   0  0  2  0  0  0  0  0  0  0  0  0
   14.7462   -9.9137  -14.7389 N   0  0  0  0  0  0  0  0  0  0  0  0
   14.6588   -8.0716  -13.2137 C   0  0  0  0  0  0  0  0  0  0  0  0
   14.5641   -6.8477  -12.8941 O   0  0  0  0  0  0  0  0  0  0  0  0
   12.0273  -10.4602   -9.2983 C   0  0  0  0  0  0  0  0  0  0  0  0
   12.7348   -9.4441  -10.1804 C   0  0  1  0  0  0  0  0  0  0  0  0
   12.1517   -8.0497   -9.9171 C   0  0  0  0  0  0  0  0  0  0  0  0
   14.1972   -9.4722   -9.8817 C   0  0  0  0  0  0  0  0  0  0  0  0
   14.9564   -8.5480  -10.7667 C   0  0  2  0  0  0  0  0  0  0  0  0
   14.8343   -9.0044  -12.1770 N   0  0  0  0  0  0  0  0  0  0  0  0
   16.3807   -8.4366  -10.4234 C   0  0  0  0  0  0  0  0  0  0  0  0
   16.7870   -7.9427   -9.1786 O   0  0  0  0  0  0  0  0  0  0  0  0
   17.2669   -8.7748  -11.2213 O   0  0  0  0  0  0  0  0  0  0  0  0
  2  1  1  6
  3  2  1  0
  4  3  1  0
  5  6  2  0
  5  2  1  0
  8  7  1  1
  8  9  1  0
  9  5  1  0
 10  8  1  0
 11 10  2  0
 13 12  1  1
 13 14  1  0
 15 13  1  0
 16 15  1  1
 16 17  1  0
 17 10  1  0
 18 16  1  0
 19 18  1  0
 20 18  2  0
M  END
$$$$
