CAL.pdb
     RDKit          3D

 20 19  0  0  1  0  0  0  0  0999 V2000
   15.2798  -10.6855  -17.1224 N   0  0  0  0  0  0  0  0  0  0  0  0
   15.2388   -9.5555  -16.2018 C   0  0  1  0  0  0  0  0  0  0  0  0
   15.0281  -10.1541  -14.8059 C   0  0  0  0  0  0  0  0  0  0  0  0
   14.9124   -8.8779  -13.5540 S   0  0  0  0  0  0  0  0  0  0  0  0
   16.5493   -8.8598  -16.2742 C   0  0  0  0  0  0  0  0  0  0  0  0
   17.6505   -9.5027  -16.2863 O   0  0  0  0  0  0  0  0  0  0  0  0
   17.6881   -5.2698  -16.8276 C   0  0  0  0  0  0  0  0  0  0  0  0
   17.9051   -6.7518  -16.5099 C   0  0  2  0  0  0  0  0  0  0  0  0
   16.6621   -7.4441  -16.3343 N   0  0  0  0  0  0  0  0  0  0  0  0
   18.7284   -6.8900  -15.2618 C   0  0  0  0  0  0  0  0  0  0  0  0
   18.1691   -6.9560  -14.1250 O   0  0  0  0  0  0  0  0  0  0  0  0
   21.5051   -8.9845  -11.6556 C   0  0  0  0  0  0  0  0  0  0  0  0
   22.4050   -8.6754  -12.8412 C   0  0  1  0  0  0  0  0  0  0  0  0
   23.3837   -9.8379  -13.0528 C   0  0  0  0  0  0  0  0  0  0  0  0
   21.5603   -8.4661  -14.0542 C   0  0  0  0  0  0  0  0  0  0  0  0
   20.9141   -7.1260  -14.0491 C   0  0  2  0  0  0  0  0  0  0  0  0
   20.1321   -6.9509  -15.3021 N   0  0  0  0  0  0  0  0  0  0  0  0
   21.8632   -6.0118  -13.9199 C   0  0  0  0  0  0  0  0  0  0  0  0
   22.3141   -5.5891  -12.6643 O   0  0  0  0  0  0  0  0  0  0  0  0
   22.2948   -5.4110  -14.9145 O   0  0  0  0  0  0  0  0  0  0  0  0
  2  1  1  6
  3  2  1  0
  4  3  1  0
  5  6  2  0
  5  2  1  0
  8  7  1  1
  8  9  1  0
  9  5  1  0
 10  8  1  0
 11 10  2  0
 13 12  1  1
 13 14  1  0
 15 13  1  0
 16 15  1  6
 16 17  1  0
 17 10  1  0
 18 16  1  0
 19 18  1  0
 20 18  2  0
M  END
$$$$
