CAL.pdb
     RDKit          3D

 20 19  0  0  1  0  0  0  0  0999 V2000
   15.0588  -13.4573  -16.5743 N   0  0  0  0  0  0  0  0  0  0  0  0
   14.8680  -12.0530  -16.2315 C   0  0  1  0  0  0  0  0  0  0  0  0
   14.6280  -12.0155  -14.7174 C   0  0  0  0  0  0  0  0  0  0  0  0
   12.9861  -12.5959  -14.2976 S   0  0  0  0  0  0  0  0  0  0  0  0
   16.1164  -11.3252  -16.5757 C   0  0  0  0  0  0  0  0  0  0  0  0
   17.2568  -11.8948  -16.5396 O   0  0  0  0  0  0  0  0  0  0  0  0
   16.9660   -7.9183  -18.0383 C   0  0  0  0  0  0  0  0  0  0  0  0
   17.3044   -9.2497  -17.3622 C   0  0  2  0  0  0  0  0  0  0  0  0
   16.1231   -9.9581  -16.9648 N   0  0  0  0  0  0  0  0  0  0  0  0
   18.1630   -9.0042  -16.1550 C   0  0  0  0  0  0  0  0  0  0  0  0
   17.6374   -8.8550  -15.0101 O   0  0  0  0  0  0  0  0  0  0  0  0
   21.7440  -10.0273  -12.6223 C   0  0  0  0  0  0  0  0  0  0  0  0
   22.4301   -9.4654  -13.8571 C   0  0  1  0  0  0  0  0  0  0  0  0
   23.7736  -10.1778  -14.0601 C   0  0  0  0  0  0  0  0  0  0  0  0
   21.5420   -9.6613  -15.0411 C   0  0  0  0  0  0  0  0  0  0  0  0
   20.3856   -8.7254  -15.0212 C   0  0  2  0  0  0  0  0  0  0  0  0
   19.5638   -8.9310  -16.2437 N   0  0  0  0  0  0  0  0  0  0  0  0
   20.7712   -7.3099  -14.9385 C   0  0  0  0  0  0  0  0  0  0  0  0
   20.9762   -6.5485  -16.0947 O   0  0  0  0  0  0  0  0  0  0  0  0
   20.9273   -6.7447  -13.8464 O   0  0  0  0  0  0  0  0  0  0  0  0
  2  1  1  1
  3  2  1  0
  4  3  1  0
  5  6  2  0
  5  2  1  0
  8  7  1  1
  8  9  1  0
  9  5  1  0
 10  8  1  0
 11 10  2  0
 13 12  1  1
 13 14  1  0
 15 13  1  0
 16 15  1  6
 16 17  1  0
 17 10  1  0
 18 16  1  0
 19 18  1  0
 20 18  2  0
M  END
$$$$
