CAL.pdb
     RDKit          3D

 20 19  0  0  1  0  0  0  0  0999 V2000
   23.7132  -16.2220  -17.9543 N   0  0  0  0  0  0  0  0  0  0  0  0
   23.9107  -16.4877  -16.5343 C   0  0  1  0  0  0  0  0  0  0  0  0
   22.5199  -16.7880  -15.9624 C   0  0  0  0  0  0  0  0  0  0  0  0
   21.6212  -15.2826  -15.5948 S   0  0  0  0  0  0  0  0  0  0  0  0
   24.7895  -17.6789  -16.4104 C   0  0  0  0  0  0  0  0  0  0  0  0
   24.6679  -18.6857  -17.1835 O   0  0  0  0  0  0  0  0  0  0  0  0
   28.0393  -18.4696  -14.6601 C   0  0  0  0  0  0  0  0  0  0  0  0
   26.7299  -18.8752  -15.3422 C   0  0  2  0  0  0  0  0  0  0  0  0
   25.8151  -17.7750  -15.4310 N   0  0  0  0  0  0  0  0  0  0  0  0
   26.0835  -19.9950  -14.5787 C   0  0  0  0  0  0  0  0  0  0  0  0
   26.5974  -21.1549  -14.5776 O   0  0  0  0  0  0  0  0  0  0  0  0
   26.0565  -20.0485   -9.8683 C   0  0  0  0  0  0  0  0  0  0  0  0
   25.9379  -20.5168  -11.3097 C   0  0  1  0  0  0  0  0  0  0  0  0
   26.7358  -21.8149  -11.4892 C   0  0  0  0  0  0  0  0  0  0  0  0
   24.4971  -20.7307  -11.6369 C   0  0  0  0  0  0  0  0  0  0  0  0
   24.2898  -20.9368  -13.0957 C   0  0  2  0  0  0  0  0  0  0  0  0
   24.8996  -19.8059  -13.8450 N   0  0  0  0  0  0  0  0  0  0  0  0
   22.8772  -21.0576  -13.4815 C   0  0  0  0  0  0  0  0  0  0  0  0
   22.0763  -22.0883  -12.9768 O   0  0  0  0  0  0  0  0  0  0  0  0
   22.3492  -20.2541  -14.2639 O   0  0  0  0  0  0  0  0  0  0  0  0
  2  1  1  6
  3  2  1  0
  4  3  1  0
  5  6  2  0
  5  2  1  0
  8  7  1  1
  8  9  1  0
  9  5  1  0
 10  8  1  0
 11 10  2  0
 13 12  1  1
 13 14  1  0
 15 13  1  0
 16 15  1  1
 16 17  1  0
 17 10  1  0
 18 16  1  0
 19 18  1  0
 20 18  2  0
M  END
$$$$
