APK.pdb
     RDKit          3D

 22 22  0  0  1  0  0  0  0  0999 V2000
   27.8612  -18.7043  -16.5416 C   0  0  0  0  0  0  0  0  0  0  0  0
   28.5689  -20.0317  -16.3391 C   0  0  2  0  0  0  0  0  0  0  0  0
   28.2471  -20.8355  -17.5096 N   0  0  0  0  0  0  0  0  0  0  0  0
   28.0964  -20.7186  -15.1110 C   0  0  0  0  0  0  0  0  0  0  0  0
   27.1930  -21.5902  -15.2413 O   0  0  0  0  0  0  0  0  0  0  0  0
   28.5924  -20.4569  -13.8274 N   0  0  0  0  0  0  0  0  0  0  0  0
   29.6449  -19.5491  -13.4821 C   0  0  0  0  0  0  0  0  0  0  0  0
   30.4204  -20.4073  -12.4719 C   0  0  0  0  0  0  0  0  0  0  0  0
   29.3961  -21.2949  -11.8421 C   0  0  0  0  0  0  0  0  0  0  0  0
   28.1262  -21.0538  -12.6129 C   0  0  1  0  0  0  0  0  0  0  0  0
   27.1518  -20.2055  -11.8740 C   0  0  0  0  0  0  0  0  0  0  0  0
   27.0264  -19.0184  -12.2722 O   0  0  0  0  0  0  0  0  0  0  0  0
   26.3911  -20.6397  -10.7947 N   0  0  0  0  0  0  0  0  0  0  0  0
   24.8762  -20.4717  -10.7516 C   0  0  1  0  0  0  0  0  0  0  0  0
   24.3470  -21.1754  -11.9274 C   0  0  0  0  0  0  0  0  0  0  0  0
   23.8015  -20.4610  -13.0634 C   0  0  0  0  0  0  0  0  0  0  0  0
   22.3631  -20.3348  -13.3428 C   0  0  0  0  0  0  0  0  0  0  0  0
   21.9944  -19.6312  -14.6062 C   0  0  0  0  0  0  0  0  0  0  0  0
   20.5491  -19.6003  -14.7244 N   0  0  0  0  0  0  0  0  0  0  0  0
   24.4789  -20.9589   -9.4239 C   0  0  0  0  0  0  0  0  0  0  0  0
   23.5917  -20.1839   -8.6178 O   0  0  0  0  0  0  0  0  0  0  0  0
   24.8469  -22.0121   -8.9100 O   0  0  0  0  0  0  0  0  0  0  0  0
  2  3  1  0
  2  1  1  6
  4  2  1  0
  5  4  2  0
  6  7  1  0
  6  4  1  0
  8  7  1  0
  9 10  1  0
  9  8  1  0
 10  6  1  0
 10 11  1  1
 11 13  1  0
 12 11  2  0
 13 14  1  0
 14 20  1  0
 14 15  1  6
 16 15  1  0
 17 16  1  0
 18 17  1  0
 19 18  1  0
 20 21  1  0
 22 20  2  0
M  END
$$$$
