APK.pdb
     RDKit          3D

 22 22  0  0  1  0  0  0  0  0999 V2000
   26.4866  -21.8076  -11.2650 C   0  0  0  0  0  0  0  0  0  0  0  0
   26.1223  -20.3486  -11.0596 C   0  0  2  0  0  0  0  0  0  0  0  0
   25.0634  -20.3410  -10.0603 N   0  0  0  0  0  0  0  0  0  0  0  0
   25.6334  -19.7275  -12.3159 C   0  0  0  0  0  0  0  0  0  0  0  0
   24.4558  -19.2735  -12.3223 O   0  0  0  0  0  0  0  0  0  0  0  0
   26.3983  -19.6175  -13.4843 N   0  0  0  0  0  0  0  0  0  0  0  0
   27.7305  -20.1023  -13.6872 C   0  0  0  0  0  0  0  0  0  0  0  0
   28.3465  -18.9001  -14.4176 C   0  0  0  0  0  0  0  0  0  0  0  0
   27.2131  -18.2673  -15.1583 C   0  0  0  0  0  0  0  0  0  0  0  0
   25.9780  -18.9972  -14.7038 C   0  0  1  0  0  0  0  0  0  0  0  0
   25.4715  -19.9649  -15.7147 C   0  0  0  0  0  0  0  0  0  0  0  0
   26.0822  -21.0622  -15.7961 O   0  0  0  0  0  0  0  0  0  0  0  0
   24.3886  -19.7308  -16.5540 N   0  0  0  0  0  0  0  0  0  0  0  0
   23.4806  -20.8561  -17.0379 C   0  0  1  0  0  0  0  0  0  0  0  0
   22.1303  -20.5358  -16.5563 C   0  0  0  0  0  0  0  0  0  0  0  0
   20.9957  -21.3908  -16.8397 C   0  0  0  0  0  0  0  0  0  0  0  0
   19.6214  -21.1074  -16.3993 C   0  0  0  0  0  0  0  0  0  0  0  0
   18.5850  -22.1113  -16.7802 C   0  0  0  0  0  0  0  0  0  0  0  0
   17.3485  -21.7981  -16.0897 N   0  0  0  0  0  0  0  0  0  0  0  0
   23.6946  -20.9175  -18.4900 C   0  0  0  0  0  0  0  0  0  0  0  0
   23.3621  -22.1052  -19.2085 O   0  0  0  0  0  0  0  0  0  0  0  0
   24.1511  -20.0124  -19.1835 O   0  0  0  0  0  0  0  0  0  0  0  0
  2  3  1  0
  2  1  1  6
  4  2  1  0
  5  4  2  0
  6  7  1  0
  6  4  1  0
  8  7  1  0
  9 10  1  0
  9  8  1  0
 10  6  1  0
 10 11  1  6
 11 13  1  0
 12 11  2  0
 13 14  1  0
 14 20  1  0
 14 15  1  6
 16 15  1  0
 17 16  1  0
 18 17  1  0
 19 18  1  0
 20 21  1  0
 22 20  2  0
M  END
$$$$
