APK.pdb
     RDKit          3D

 22 22  0  0  1  0  0  0  0  0999 V2000
   18.6145  -15.7223  -17.3875 C   0  0  0  0  0  0  0  0  0  0  0  0
   19.1060  -14.7241  -16.3551 C   0  0  2  0  0  0  0  0  0  0  0  0
   18.1233  -14.7478  -15.2811 N   0  0  0  0  0  0  0  0  0  0  0  0
   19.1992  -13.3556  -16.9223 C   0  0  0  0  0  0  0  0  0  0  0  0
   19.8296  -13.2154  -18.0066 O   0  0  0  0  0  0  0  0  0  0  0  0
   18.6319  -12.2213  -16.3277 N   0  0  0  0  0  0  0  0  0  0  0  0
   17.8994  -12.1718  -15.0980 C   0  0  0  0  0  0  0  0  0  0  0  0
   16.7424  -11.2501  -15.5103 C   0  0  0  0  0  0  0  0  0  0  0  0
   17.3096  -10.3543  -16.5636 C   0  0  0  0  0  0  0  0  0  0  0  0
   18.6878  -10.8885  -16.8466 C   0  0  1  0  0  0  0  0  0  0  0  0
   19.7660  -10.0625  -16.2380 C   0  0  0  0  0  0  0  0  0  0  0  0
   20.2017  -10.4437  -15.1207 O   0  0  0  0  0  0  0  0  0  0  0  0
   20.3054   -8.9212  -16.8196 N   0  0  0  0  0  0  0  0  0  0  0  0
   21.5439   -8.2329  -16.2562 C   0  0  1  0  0  0  0  0  0  0  0  0
   22.1960   -7.5606  -17.3879 C   0  0  0  0  0  0  0  0  0  0  0  0
   23.3548   -6.7105  -17.2064 C   0  0  0  0  0  0  0  0  0  0  0  0
   23.9877   -5.9401  -18.2875 C   0  0  0  0  0  0  0  0  0  0  0  0
   25.2344   -5.2015  -17.9305 C   0  0  0  0  0  0  0  0  0  0  0  0
   25.6330   -4.3772  -19.0554 N   0  0  0  0  0  0  0  0  0  0  0  0
   21.0450   -7.3967  -15.1563 C   0  0  0  0  0  0  0  0  0  0  0  0
   21.8537   -7.1864  -13.9991 O   0  0  0  0  0  0  0  0  0  0  0  0
   19.9540   -6.8330  -15.1257 O   0  0  0  0  0  0  0  0  0  0  0  0
  2  3  1  0
  2  1  1  6
  4  2  1  0
  5  4  2  0
  6  7  1  0
  6  4  1  0
  8  7  1  0
  9 10  1  0
  9  8  1  0
 10  6  1  0
 10 11  1  1
 11 13  1  0
 12 11  2  0
 13 14  1  0
 14 20  1  0
 14 15  1  6
 16 15  1  0
 17 16  1  0
 18 17  1  0
 19 18  1  0
 20 21  1  0
 22 20  2  0
M  END
$$$$
