APK.pdb
     RDKit          3D

 22 22  0  0  1  0  0  0  0  0999 V2000
   23.8134  -32.3302   -7.4049 C   0  0  0  0  0  0  0  0  0  0  0  0
   25.1801  -32.9301   -7.6805 C   0  0  2  0  0  0  0  0  0  0  0  0
   25.0587  -33.6256   -8.9538 N   0  0  0  0  0  0  0  0  0  0  0  0
   25.5780  -33.8884   -6.6191 C   0  0  0  0  0  0  0  0  0  0  0  0
   25.4865  -35.1196   -6.8809 O   0  0  0  0  0  0  0  0  0  0  0  0
   26.0455  -33.5069   -5.3549 N   0  0  0  0  0  0  0  0  0  0  0  0
   26.0680  -32.1821   -4.8115 C   0  0  0  0  0  0  0  0  0  0  0  0
   27.4673  -32.1739   -4.1792 C   0  0  0  0  0  0  0  0  0  0  0  0
   27.7337  -33.5935   -3.7954 C   0  0  0  0  0  0  0  0  0  0  0  0
   26.5870  -34.3857   -4.3634 C   0  0  1  0  0  0  0  0  0  0  0  0
   25.5959  -34.7929   -3.3304 C   0  0  0  0  0  0  0  0  0  0  0  0
   24.7165  -33.9440   -3.0313 O   0  0  0  0  0  0  0  0  0  0  0  0
   25.5872  -36.0278   -2.6924 N   0  0  0  0  0  0  0  0  0  0  0  0
   24.4868  -36.4271   -1.7155 C   0  0  1  0  0  0  0  0  0  0  0  0
   24.0207  -37.7553   -2.1358 C   0  0  0  0  0  0  0  0  0  0  0  0
   22.9489  -38.4424   -1.4449 C   0  0  0  0  0  0  0  0  0  0  0  0
   22.4473  -39.7729   -1.8206 C   0  0  0  0  0  0  0  0  0  0  0  0
   21.2584  -40.2683   -1.0667 C   0  0  0  0  0  0  0  0  0  0  0  0
   20.8448  -41.5426   -1.6225 N   0  0  0  0  0  0  0  0  0  0  0  0
   25.0981  -36.3037   -0.3854 C   0  0  0  0  0  0  0  0  0  0  0  0
   24.2694  -36.2333    0.7747 O   0  0  0  0  0  0  0  0  0  0  0  0
   26.3035  -36.2519   -0.1554 O   0  0  0  0  0  0  0  0  0  0  0  0
  2  3  1  0
  2  1  1  1
  4  2  1  0
  5  4  2  0
  6  7  1  0
  6  4  1  0
  8  7  1  0
  9 10  1  0
  9  8  1  0
 10  6  1  0
 10 11  1  1
 11 13  1  0
 12 11  2  0
 13 14  1  0
 14 20  1  0
 14 15  1  6
 16 15  1  0
 17 16  1  0
 18 17  1  0
 19 18  1  0
 20 21  1  0
 22 20  2  0
M  END
$$$$
