APK.pdb
     RDKit          3D

 22 22  0  0  1  0  0  0  0  0999 V2000
   25.3601  -21.4447   -8.1572 C   0  0  0  0  0  0  0  0  0  0  0  0
   26.2335  -20.2954   -8.6263 C   0  0  2  0  0  0  0  0  0  0  0  0
   25.8611  -19.1529   -7.8042 N   0  0  0  0  0  0  0  0  0  0  0  0
   25.9993  -19.9830  -10.0583 C   0  0  0  0  0  0  0  0  0  0  0  0
   25.2360  -19.0144  -10.3267 O   0  0  0  0  0  0  0  0  0  0  0  0
   26.5727  -20.6958  -11.1191 N   0  0  0  0  0  0  0  0  0  0  0  0
   27.4498  -21.8237  -11.0211 C   0  0  0  0  0  0  0  0  0  0  0  0
   28.4928  -21.4472  -12.0835 C   0  0  0  0  0  0  0  0  0  0  0  0
   27.7488  -20.6363  -13.0947 C   0  0  0  0  0  0  0  0  0  0  0  0
   26.3778  -20.4247  -12.5110 C   0  0  1  0  0  0  0  0  0  0  0  0
   25.3403  -21.2859  -13.1409 C   0  0  0  0  0  0  0  0  0  0  0  0
   25.2970  -22.4836  -12.7573 O   0  0  0  0  0  0  0  0  0  0  0  0
   24.4387  -20.8528  -14.1060 N   0  0  0  0  0  0  0  0  0  0  0  0
   22.9728  -21.2721  -14.0913 C   0  0  1  0  0  0  0  0  0  0  0  0
   22.4475  -20.8985  -12.7713 C   0  0  0  0  0  0  0  0  0  0  0  0
   21.0735  -21.1600  -12.3942 C   0  0  0  0  0  0  0  0  0  0  0  0
   20.6739  -22.1218  -11.3559 C   0  0  0  0  0  0  0  0  0  0  0  0
   19.2066  -22.3145  -11.1628 C   0  0  0  0  0  0  0  0  0  0  0  0
   18.9932  -23.2756  -10.0977 N   0  0  0  0  0  0  0  0  0  0  0  0
   22.3827  -20.6275  -15.2721 C   0  0  0  0  0  0  0  0  0  0  0  0
   21.3778  -21.3060  -16.0254 O   0  0  0  0  0  0  0  0  0  0  0  0
   22.6767  -19.5143  -15.6999 O   0  0  0  0  0  0  0  0  0  0  0  0
  2  3  1  0
  2  1  1  1
  4  2  1  0
  5  4  2  0
  6  7  1  0
  6  4  1  0
  8  7  1  0
  9 10  1  0
  9  8  1  0
 10  6  1  0
 10 11  1  6
 11 13  1  0
 12 11  2  0
 13 14  1  0
 14 20  1  0
 14 15  1  1
 16 15  1  0
 17 16  1  0
 18 17  1  0
 19 18  1  0
 20 21  1  0
 22 20  2  0
M  END
$$$$
