APK.pdb
     RDKit          3D

 22 22  0  0  1  0  0  0  0  0999 V2000
   18.2946   -8.5084  -16.4938 C   0  0  0  0  0  0  0  0  0  0  0  0
   19.4629   -9.1563  -15.7733 C   0  0  2  0  0  0  0  0  0  0  0  0
   19.3356  -10.5861  -16.0170 N   0  0  0  0  0  0  0  0  0  0  0  0
   19.4187   -8.8884  -14.3140 C   0  0  0  0  0  0  0  0  0  0  0  0
   18.9425   -9.7894  -13.5697 O   0  0  0  0  0  0  0  0  0  0  0  0
   19.8720   -7.7027  -13.7217 N   0  0  0  0  0  0  0  0  0  0  0  0
   20.3532   -6.5348  -14.3967 C   0  0  0  0  0  0  0  0  0  0  0  0
   21.5777   -6.2076  -13.5296 C   0  0  0  0  0  0  0  0  0  0  0  0
   21.2342   -6.7023  -12.1618 C   0  0  0  0  0  0  0  0  0  0  0  0
   19.9313   -7.4396  -12.3160 C   0  0  1  0  0  0  0  0  0  0  0  0
   18.7645   -6.6667  -11.8100 C   0  0  0  0  0  0  0  0  0  0  0  0
   18.2218   -5.8738  -12.6226 O   0  0  0  0  0  0  0  0  0  0  0  0
   18.2528   -6.7683  -10.5216 N   0  0  0  0  0  0  0  0  0  0  0  0
   16.8215   -6.3651  -10.1843 C   0  0  1  0  0  0  0  0  0  0  0  0
   16.0488   -7.6115  -10.0981 C   0  0  0  0  0  0  0  0  0  0  0  0
   14.6828   -7.6313   -9.6161 C   0  0  0  0  0  0  0  0  0  0  0  0
   13.8570   -8.8453   -9.5329 C   0  0  0  0  0  0  0  0  0  0  0  0
   12.4616   -8.6628   -9.0363 C   0  0  0  0  0  0  0  0  0  0  0  0
   11.7704   -9.9367   -9.0926 N   0  0  0  0  0  0  0  0  0  0  0  0
   16.9353   -5.5431   -8.9721 C   0  0  0  0  0  0  0  0  0  0  0  0
   18.0170   -5.7577   -8.0659 O   0  0  0  0  0  0  0  0  0  0  0  0
   16.1615   -4.6488   -8.6404 O   0  0  0  0  0  0  0  0  0  0  0  0
  2  3  1  0
  2  1  1  6
  4  2  1  0
  5  4  2  0
  6  7  1  0
  6  4  1  0
  8  7  1  0
  9 10  1  0
  9  8  1  0
 10  6  1  0
 10 11  1  6
 11 13  1  0
 12 11  2  0
 13 14  1  0
 14 20  1  0
 14 15  1  1
 16 15  1  0
 17 16  1  0
 18 17  1  0
 19 18  1  0
 20 21  1  0
 22 20  2  0
M  END
$$$$
