APK.pdb
     RDKit          3D

 22 22  0  0  1  0  0  0  0  0999 V2000
   22.2531  -12.5538  -16.0768 C   0  0  0  0  0  0  0  0  0  0  0  0
   23.4582  -12.6337  -16.9961 C   0  0  2  0  0  0  0  0  0  0  0  0
   23.0303  -12.0561  -18.2623 N   0  0  0  0  0  0  0  0  0  0  0  0
   23.8921  -14.0378  -17.2042 C   0  0  0  0  0  0  0  0  0  0  0  0
   23.5092  -14.6164  -18.2584 O   0  0  0  0  0  0  0  0  0  0  0  0
   24.6956  -14.7505  -16.3048 N   0  0  0  0  0  0  0  0  0  0  0  0
   25.1463  -14.3081  -15.0194 C   0  0  0  0  0  0  0  0  0  0  0  0
   26.6098  -14.7702  -15.0733 C   0  0  0  0  0  0  0  0  0  0  0  0
   26.6085  -15.9780  -15.9536 C   0  0  0  0  0  0  0  0  0  0  0  0
   25.2129  -16.0692  -16.5094 C   0  0  1  0  0  0  0  0  0  0  0  0
   24.3979  -17.1309  -15.8585 C   0  0  0  0  0  0  0  0  0  0  0  0
   23.9443  -16.8678  -14.7146 O   0  0  0  0  0  0  0  0  0  0  0  0
   24.1167  -18.3670  -16.4286 N   0  0  0  0  0  0  0  0  0  0  0  0
   22.9951  -19.2612  -15.9116 C   0  0  1  0  0  0  0  0  0  0  0  0
   21.7533  -18.4878  -16.0442 C   0  0  0  0  0  0  0  0  0  0  0  0
   20.4587  -19.0649  -15.7450 C   0  0  0  0  0  0  0  0  0  0  0  0
   19.1843  -18.3444  -15.8854 C   0  0  0  0  0  0  0  0  0  0  0  0
   17.9640  -19.0612  -15.4117 C   0  0  0  0  0  0  0  0  0  0  0  0
   16.7960  -18.2581  -15.7188 N   0  0  0  0  0  0  0  0  0  0  0  0
   23.1151  -20.5045  -16.6849 C   0  0  0  0  0  0  0  0  0  0  0  0
   23.8535  -20.5141  -17.9064 O   0  0  0  0  0  0  0  0  0  0  0  0
   22.6238  -21.5873  -16.3770 O   0  0  0  0  0  0  0  0  0  0  0  0
  2  3  1  0
  2  1  1  1
  4  2  1  0
  5  4  2  0
  6  7  1  0
  6  4  1  0
  8  7  1  0
  9 10  1  0
  9  8  1  0
 10  6  1  0
 10 11  1  1
 11 13  1  0
 12 11  2  0
 13 14  1  0
 14 20  1  0
 14 15  1  6
 16 15  1  0
 17 16  1  0
 18 17  1  0
 19 18  1  0
 20 21  1  0
 22 20  2  0
M  END
$$$$
