NDR.pdb
     RDKit          3D

 28 27  0  0  1  0  0  0  0  0999 V2000
   11.4455  -16.9258   12.9767 N   0  0  0  0  0  0  0  0  0  0  0  0
   11.0557  -18.1037   13.6493 C   0  0  0  0  0  0  0  0  0  0  0  0
   10.3428  -18.9375   13.0564 O   0  0  0  0  0  0  0  0  0  0  0  0
   11.4866  -18.3391   15.0287 C   0  0  0  0  0  0  0  0  0  0  0  0
   12.2464  -17.1664   15.6334 C   0  0  2  0  0  0  0  0  0  0  0  0
   13.4117  -16.8751   14.8467 N   0  0  0  0  0  0  0  0  0  0  0  0
   12.5929  -17.5902   17.0163 C   0  0  0  0  0  0  0  0  0  0  0  0
   11.6773  -18.0083   17.7627 O   0  0  0  0  0  0  0  0  0  0  0  0
   13.9247  -17.5457   17.5401 N   0  0  0  0  0  0  0  0  0  0  0  0
   14.2531  -17.9539   18.8776 C   0  0  1  0  0  0  0  0  0  0  0  0
   15.7407  -18.0791   19.0965 C   0  0  0  0  0  0  0  0  0  0  0  0
   16.0344  -18.5722   20.4562 C   0  0  0  0  0  0  0  0  0  0  0  0
   15.5720  -19.6378   20.9306 O   0  0  0  0  0  0  0  0  0  0  0  0
   13.5603  -17.1671   19.9154 C   0  0  0  0  0  0  0  0  0  0  0  0
   13.7050  -15.9156   19.9882 O   0  0  0  0  0  0  0  0  0  0  0  0
   16.8707  -17.8535   21.3139 O   0  0  0  0  0  0  0  0  0  0  0  0
    6.7544  -13.3855   19.2182 N   0  0  0  0  0  0  0  0  0  0  0  0
    7.9514  -12.7050   19.5860 C   0  0  0  0  0  0  0  0  0  0  0  0
    8.0352  -11.4214   19.3860 N   0  0  0  0  0  0  0  0  0  0  0  0
    9.0608  -13.3582   20.1611 N   0  0  0  0  0  0  0  0  0  0  0  0
    9.0855  -14.7699   20.3887 C   0  0  0  0  0  0  0  0  0  0  0  0
   10.4243  -15.1588   21.0026 C   0  0  0  0  0  0  0  0  0  0  0  0
   10.5164  -16.6346   21.2547 C   0  0  0  0  0  0  0  0  0  0  0  0
   11.8819  -16.9540   21.7868 C   0  0  2  0  0  0  0  0  0  0  0  0
   12.6959  -17.7485   20.8941 N   0  0  0  0  0  0  0  0  0  0  0  0
   11.7840  -17.5608   23.1358 C   0  0  0  0  0  0  0  0  0  0  0  0
   11.0511  -17.0295   23.9953 O   0  0  0  0  0  0  0  0  0  0  0  0
   12.4952  -18.7004   23.4392 O   0  0  0  0  0  0  0  0  0  0  0  0
  1  2  1  0
  2  3  2  0
  4  2  1  0
  5  4  1  0
  5  6  1  6
  7  8  2  0
  7  5  1  0
  9  7  1  0
 10 14  1  0
 10  9  1  0
 10 11  1  1
 12 11  1  0
 12 13  2  0
 14 15  2  0
 16 12  1  0
 18 17  1  0
 18 19  2  0
 20 18  1  0
 21 20  1  0
 22 21  1  0
 23 22  1  0
 24 23  1  6
 25 24  1  0
 25 14  1  0
 26 24  1  0
 27 26  2  0
 28 26  1  0
M  END
$$$$
