NDR.pdb
     RDKit          3D

 28 27  0  0  1  0  0  0  0  0999 V2000
   10.4700  -16.7689   15.1142 N   0  0  0  0  0  0  0  0  0  0  0  0
   11.1832  -17.4614   16.1160 C   0  0  0  0  0  0  0  0  0  0  0  0
   12.2641  -18.0114   15.8259 O   0  0  0  0  0  0  0  0  0  0  0  0
   10.6549  -17.5301   17.4798 C   0  0  0  0  0  0  0  0  0  0  0  0
   11.3511  -16.5822   18.4466 C   0  0  2  0  0  0  0  0  0  0  0  0
   12.7517  -16.5054   18.1398 N   0  0  0  0  0  0  0  0  0  0  0  0
   11.1020  -17.1447   19.8007 C   0  0  0  0  0  0  0  0  0  0  0  0
    9.9178  -17.2594   20.1941 O   0  0  0  0  0  0  0  0  0  0  0  0
   12.1503  -17.5644   20.6810 N   0  0  0  0  0  0  0  0  0  0  0  0
   11.9146  -17.9797   22.0358 C   0  0  1  0  0  0  0  0  0  0  0  0
   13.0730  -18.7542   22.6143 C   0  0  0  0  0  0  0  0  0  0  0  0
   12.7355  -19.2917   23.9468 C   0  0  0  0  0  0  0  0  0  0  0  0
   11.6027  -19.1910   24.4770 O   0  0  0  0  0  0  0  0  0  0  0  0
   11.4302  -16.8905   22.9049 C   0  0  0  0  0  0  0  0  0  0  0  0
   12.2249  -16.0295   23.3734 O   0  0  0  0  0  0  0  0  0  0  0  0
   13.6923  -19.9628   24.7121 O   0  0  0  0  0  0  0  0  0  0  0  0
    8.7051  -11.8924   20.1927 N   0  0  0  0  0  0  0  0  0  0  0  0
    8.1744  -13.0203   19.5017 C   0  0  0  0  0  0  0  0  0  0  0  0
    8.4232  -13.1573   18.2313 N   0  0  0  0  0  0  0  0  0  0  0  0
    7.3853  -14.0051   20.1308 N   0  0  0  0  0  0  0  0  0  0  0  0
    7.2518  -14.0873   21.5523 C   0  0  0  0  0  0  0  0  0  0  0  0
    8.4829  -14.7683   22.1362 C   0  0  0  0  0  0  0  0  0  0  0  0
    8.3635  -14.9640   23.6186 C   0  0  0  0  0  0  0  0  0  0  0  0
    9.5969  -15.6547   24.1200 C   0  0  2  0  0  0  0  0  0  0  0  0
   10.0585  -16.7332   23.2746 N   0  0  0  0  0  0  0  0  0  0  0  0
    9.4121  -16.0915   25.5245 C   0  0  0  0  0  0  0  0  0  0  0  0
    9.4665  -17.3077   25.8005 O   0  0  0  0  0  0  0  0  0  0  0  0
    9.1820  -15.1647   26.5166 O   0  0  0  0  0  0  0  0  0  0  0  0
  1  2  1  0
  2  3  2  0
  4  2  1  0
  5  4  1  0
  5  6  1  6
  7  8  2  0
  7  5  1  0
  9  7  1  0
 10 14  1  0
 10  9  1  0
 10 11  1  1
 12 11  1  0
 12 13  2  0
 14 15  2  0
 16 12  1  0
 18 17  1  0
 18 19  2  0
 20 18  1  0
 21 20  1  0
 22 21  1  0
 23 22  1  0
 24 23  1  6
 25 24  1  0
 25 14  1  0
 26 24  1  0
 27 26  2  0
 28 26  1  0
M  END
$$$$
