NDR.pdb
     RDKit          3D

 28 27  0  0  1  0  0  0  0  0999 V2000
   10.6809  -21.2273   16.6274 N   0  0  0  0  0  0  0  0  0  0  0  0
   12.0727  -21.0823   16.4441 C   0  0  0  0  0  0  0  0  0  0  0  0
   12.5939  -21.4846   15.3851 O   0  0  0  0  0  0  0  0  0  0  0  0
   12.8913  -20.4654   17.4897 C   0  0  0  0  0  0  0  0  0  0  0  0
   12.1025  -20.1036   18.7407 C   0  0  2  0  0  0  0  0  0  0  0  0
   11.0229  -19.2186   18.4045 N   0  0  0  0  0  0  0  0  0  0  0  0
   13.0855  -19.4685   19.6584 C   0  0  0  0  0  0  0  0  0  0  0  0
   13.7402  -20.2010   20.4362 O   0  0  0  0  0  0  0  0  0  0  0  0
   13.3237  -18.0571   19.6981 N   0  0  0  0  0  0  0  0  0  0  0  0
   14.1749  -17.4348   20.6736 C   0  0  1  0  0  0  0  0  0  0  0  0
   14.6993  -16.0964   20.2154 C   0  0  0  0  0  0  0  0  0  0  0  0
   15.7282  -16.2623   19.1704 C   0  0  0  0  0  0  0  0  0  0  0  0
   15.9825  -15.4011   18.2939 O   0  0  0  0  0  0  0  0  0  0  0  0
   13.5940  -17.4169   22.0295 C   0  0  0  0  0  0  0  0  0  0  0  0
   13.4553  -18.4818   22.6922 O   0  0  0  0  0  0  0  0  0  0  0  0
   16.4977  -17.4261   19.1008 O   0  0  0  0  0  0  0  0  0  0  0  0
    6.9417  -12.9860   21.0431 N   0  0  0  0  0  0  0  0  0  0  0  0
    7.9843  -13.2992   20.1232 C   0  0  0  0  0  0  0  0  0  0  0  0
    8.2167  -12.4882   19.1318 N   0  0  0  0  0  0  0  0  0  0  0  0
    8.7846  -14.4548   20.2334 N   0  0  0  0  0  0  0  0  0  0  0  0
    8.4767  -15.5164   21.1409 C   0  0  0  0  0  0  0  0  0  0  0  0
    9.4807  -15.5080   22.2866 C   0  0  0  0  0  0  0  0  0  0  0  0
   10.8710  -15.8142   21.8139 C   0  0  0  0  0  0  0  0  0  0  0  0
   11.7661  -15.9783   23.0062 C   0  0  2  0  0  0  0  0  0  0  0  0
   13.1532  -16.2219   22.6782 N   0  0  0  0  0  0  0  0  0  0  0  0
   11.2241  -17.0089   23.9237 C   0  0  0  0  0  0  0  0  0  0  0  0
   11.1276  -18.1898   23.5306 O   0  0  0  0  0  0  0  0  0  0  0  0
   10.8301  -16.6677   25.1983 O   0  0  0  0  0  0  0  0  0  0  0  0
  1  2  1  0
  2  3  2  0
  4  2  1  0
  5  4  1  0
  5  6  1  6
  7  8  2  0
  7  5  1  0
  9  7  1  0
 10 14  1  0
 10  9  1  0
 10 11  1  6
 12 11  1  0
 12 13  2  0
 14 15  2  0
 16 12  1  0
 18 17  1  0
 18 19  2  0
 20 18  1  0
 21 20  1  0
 22 21  1  0
 23 22  1  0
 24 23  1  6
 25 24  1  0
 25 14  1  0
 26 24  1  0
 27 26  2  0
 28 26  1  0
M  END
$$$$
