NDR.pdb
     RDKit          3D

 28 27  0  0  1  0  0  0  0  0999 V2000
   12.3637  -19.0274   13.9380 N   0  0  0  0  0  0  0  0  0  0  0  0
   13.3110  -19.8281   14.6112 C   0  0  0  0  0  0  0  0  0  0  0  0
   13.3809  -21.0445   14.3455 O   0  0  0  0  0  0  0  0  0  0  0  0
   14.2000  -19.2317   15.6102 C   0  0  0  0  0  0  0  0  0  0  0  0
   14.0907  -19.8823   16.9823 C   0  0  2  0  0  0  0  0  0  0  0  0
   13.5848  -21.2201   16.8552 N   0  0  0  0  0  0  0  0  0  0  0  0
   13.1764  -19.0071   17.7635 C   0  0  0  0  0  0  0  0  0  0  0  0
   13.5585  -17.8504   18.0569 O   0  0  0  0  0  0  0  0  0  0  0  0
   11.8762  -19.4202   18.1984 N   0  0  0  0  0  0  0  0  0  0  0  0
   11.0414  -18.6131   19.0441 C   0  0  1  0  0  0  0  0  0  0  0  0
    9.5909  -18.6486   18.6304 C   0  0  0  0  0  0  0  0  0  0  0  0
    8.7820  -17.7377   19.4636 C   0  0  0  0  0  0  0  0  0  0  0  0
    9.2451  -17.0563   20.4100 O   0  0  0  0  0  0  0  0  0  0  0  0
   11.2588  -18.8559   20.4829 C   0  0  0  0  0  0  0  0  0  0  0  0
   10.4656  -19.5773   21.1483 O   0  0  0  0  0  0  0  0  0  0  0  0
    7.4130  -17.5821   19.2335 O   0  0  0  0  0  0  0  0  0  0  0  0
   11.3059  -23.2192   25.8111 N   0  0  0  0  0  0  0  0  0  0  0  0
   12.5696  -22.8667   26.3680 C   0  0  0  0  0  0  0  0  0  0  0  0
   12.7415  -22.9619   27.6548 N   0  0  0  0  0  0  0  0  0  0  0  0
   13.6539  -22.4152   25.5878 N   0  0  0  0  0  0  0  0  0  0  0  0
   13.5212  -22.1047   24.1981 C   0  0  0  0  0  0  0  0  0  0  0  0
   13.2943  -20.6072   24.0351 C   0  0  0  0  0  0  0  0  0  0  0  0
   13.0424  -20.2323   22.6046 C   0  0  0  0  0  0  0  0  0  0  0  0
   12.7264  -18.7678   22.5330 C   0  0  2  0  0  0  0  0  0  0  0  0
   12.3560  -18.3043   21.2144 N   0  0  0  0  0  0  0  0  0  0  0  0
   13.8339  -17.9693   23.1105 C   0  0  0  0  0  0  0  0  0  0  0  0
   14.4363  -17.1462   22.3909 O   0  0  0  0  0  0  0  0  0  0  0  0
   14.1960  -18.1337   24.4289 O   0  0  0  0  0  0  0  0  0  0  0  0
  1  2  1  0
  2  3  2  0
  4  2  1  0
  5  4  1  0
  5  6  1  6
  7  8  2  0
  7  5  1  0
  9  7  1  0
 10 14  1  0
 10  9  1  0
 10 11  1  6
 12 11  1  0
 12 13  2  0
 14 15  2  0
 16 12  1  0
 18 17  1  0
 18 19  2  0
 20 18  1  0
 21 20  1  0
 22 21  1  0
 23 22  1  0
 24 23  1  6
 25 24  1  0
 25 14  1  0
 26 24  1  0
 27 26  2  0
 28 26  1  0
M  END
$$$$
