NDR.pdb
     RDKit          3D

 28 27  0  0  1  0  0  0  0  0999 V2000
    7.8375  -12.7036   14.8908 N   0  0  0  0  0  0  0  0  0  0  0  0
    7.7453  -14.0945   15.1115 C   0  0  0  0  0  0  0  0  0  0  0  0
    7.3567  -14.8348   14.1864 O   0  0  0  0  0  0  0  0  0  0  0  0
    8.1035  -14.6570   16.4151 C   0  0  0  0  0  0  0  0  0  0  0  0
    9.3222  -15.5682   16.3664 C   0  0  2  0  0  0  0  0  0  0  0  0
    9.1472  -16.5727   15.3553 N   0  0  0  0  0  0  0  0  0  0  0  0
    9.4325  -16.1547   17.7287 C   0  0  0  0  0  0  0  0  0  0  0  0
    9.6544  -15.3889   18.6954 O   0  0  0  0  0  0  0  0  0  0  0  0
    9.2965  -17.5554   17.9933 N   0  0  0  0  0  0  0  0  0  0  0  0
    9.4240  -18.1187   19.3085 C   0  0  1  0  0  0  0  0  0  0  0  0
    8.9699  -19.5562   19.3697 C   0  0  0  0  0  0  0  0  0  0  0  0
    9.1053  -20.0948   20.7370 C   0  0  0  0  0  0  0  0  0  0  0  0
   10.1414  -20.6543   21.1707 O   0  0  0  0  0  0  0  0  0  0  0  0
   10.7459  -17.8829   19.9196 C   0  0  0  0  0  0  0  0  0  0  0  0
   11.7837  -18.4323   19.4575 O   0  0  0  0  0  0  0  0  0  0  0  0
    8.0514  -20.0064   21.6497 O   0  0  0  0  0  0  0  0  0  0  0  0
   15.0310  -14.8072   17.1970 N   0  0  0  0  0  0  0  0  0  0  0  0
   15.4029  -13.9880   18.3024 C   0  0  0  0  0  0  0  0  0  0  0  0
   16.4435  -13.2136   18.1929 N   0  0  0  0  0  0  0  0  0  0  0  0
   14.6936  -13.9738   19.5210 N   0  0  0  0  0  0  0  0  0  0  0  0
   14.7880  -15.0352   20.4748 C   0  0  0  0  0  0  0  0  0  0  0  0
   13.8634  -14.7418   21.6494 C   0  0  0  0  0  0  0  0  0  0  0  0
   12.4366  -15.0829   21.3367 C   0  0  0  0  0  0  0  0  0  0  0  0
   12.2527  -16.5667   21.4563 C   0  0  2  0  0  0  0  0  0  0  0  0
   10.9458  -17.0372   21.0544 N   0  0  0  0  0  0  0  0  0  0  0  0
   12.6121  -17.0256   22.8193 C   0  0  0  0  0  0  0  0  0  0  0  0
   13.7731  -16.8446   23.2409 O   0  0  0  0  0  0  0  0  0  0  0  0
   11.6745  -17.6465   23.6141 O   0  0  0  0  0  0  0  0  0  0  0  0
  1  2  1  0
  2  3  2  0
  4  2  1  0
  5  4  1  0
  5  6  1  6
  7  8  2  0
  7  5  1  0
  9  7  1  0
 10 14  1  0
 10  9  1  0
 10 11  1  6
 12 11  1  0
 12 13  2  0
 14 15  2  0
 16 12  1  0
 18 17  1  0
 18 19  2  0
 20 18  1  0
 21 20  1  0
 22 21  1  0
 23 22  1  0
 24 23  1  1
 25 24  1  0
 25 14  1  0
 26 24  1  0
 27 26  2  0
 28 26  1  0
M  END
$$$$
