NDR.pdb
     RDKit          3D

 28 27  0  0  1  0  0  0  0  0999 V2000
   11.6032  -18.9771   15.0216 N   0  0  0  0  0  0  0  0  0  0  0  0
   10.8277  -19.9476   15.6915 C   0  0  0  0  0  0  0  0  0  0  0  0
   10.5323  -21.0059   15.1020 O   0  0  0  0  0  0  0  0  0  0  0  0
   10.3775  -19.7089   17.0642 C   0  0  0  0  0  0  0  0  0  0  0  0
   10.7867  -18.3465   17.6067 C   0  0  2  0  0  0  0  0  0  0  0  0
   12.0000  -17.9085   16.9760 N   0  0  0  0  0  0  0  0  0  0  0  0
   10.9520  -18.5376   19.0723 C   0  0  0  0  0  0  0  0  0  0  0  0
    9.9264  -18.6785   19.7784 O   0  0  0  0  0  0  0  0  0  0  0  0
   12.2284  -18.5697   19.7205 N   0  0  0  0  0  0  0  0  0  0  0  0
   12.3795  -18.6550   21.1464 C   0  0  1  0  0  0  0  0  0  0  0  0
   13.7656  -19.0866   21.5574 C   0  0  0  0  0  0  0  0  0  0  0  0
   13.8217  -19.3736   23.0040 C   0  0  0  0  0  0  0  0  0  0  0  0
   13.8489  -18.4892   23.8937 O   0  0  0  0  0  0  0  0  0  0  0  0
   11.8901  -17.4592   21.8583 C   0  0  0  0  0  0  0  0  0  0  0  0
   12.3775  -16.3186   21.6261 O   0  0  0  0  0  0  0  0  0  0  0  0
   13.8486  -20.6893   23.4729 O   0  0  0  0  0  0  0  0  0  0  0  0
    8.0080  -13.2310   18.3168 N   0  0  0  0  0  0  0  0  0  0  0  0
    7.8259  -12.9894   19.7095 C   0  0  0  0  0  0  0  0  0  0  0  0
    7.4537  -11.8052   20.1019 N   0  0  0  0  0  0  0  0  0  0  0  0
    8.0307  -13.9779   20.6940 N   0  0  0  0  0  0  0  0  0  0  0  0
    7.6292  -13.7988   22.0548 C   0  0  0  0  0  0  0  0  0  0  0  0
    8.6512  -14.4566   22.9732 C   0  0  0  0  0  0  0  0  0  0  0  0
    9.1713  -15.7421   22.4013 C   0  0  0  0  0  0  0  0  0  0  0  0
   10.1975  -16.3112   23.3355 C   0  0  2  0  0  0  0  0  0  0  0  0
   10.8541  -17.5014   22.8422 N   0  0  0  0  0  0  0  0  0  0  0  0
    9.6148  -16.5175   24.6828 C   0  0  0  0  0  0  0  0  0  0  0  0
    9.5357  -17.6741   25.1460 O   0  0  0  0  0  0  0  0  0  0  0  0
    9.1641  -15.4437   25.4177 O   0  0  0  0  0  0  0  0  0  0  0  0
  1  2  1  0
  2  3  2  0
  4  2  1  0
  5  4  1  0
  5  6  1  6
  7  8  2  0
  7  5  1  0
  9  7  1  0
 10 14  1  0
 10  9  1  0
 10 11  1  6
 12 11  1  0
 12 13  2  0
 14 15  2  0
 16 12  1  0
 18 17  1  0
 18 19  2  0
 20 18  1  0
 21 20  1  0
 22 21  1  0
 23 22  1  0
 24 23  1  6
 25 24  1  0
 25 14  1  0
 26 24  1  0
 27 26  2  0
 28 26  1  0
M  END
$$$$
