NDR.pdb
     RDKit          3D

 28 27  0  0  1  0  0  0  0  0999 V2000
    7.7076  -12.3754   13.6743 N   0  0  0  0  0  0  0  0  0  0  0  0
    7.4898  -13.7694   13.7036 C   0  0  0  0  0  0  0  0  0  0  0  0
    7.1221  -14.3516   12.6640 O   0  0  0  0  0  0  0  0  0  0  0  0
    7.6947  -14.5193   14.9445 C   0  0  0  0  0  0  0  0  0  0  0  0
    8.6984  -15.6556   14.8058 C   0  0  2  0  0  0  0  0  0  0  0  0
    8.4061  -16.4318   13.6337 N   0  0  0  0  0  0  0  0  0  0  0  0
    8.5691  -16.4526   16.0548 C   0  0  0  0  0  0  0  0  0  0  0  0
    9.0303  -15.9788   17.1192 O   0  0  0  0  0  0  0  0  0  0  0  0
    7.9410  -17.7384   16.1036 N   0  0  0  0  0  0  0  0  0  0  0  0
    7.8672  -18.5277   17.3015 C   0  0  1  0  0  0  0  0  0  0  0  0
    6.7157  -19.5025   17.2830 C   0  0  0  0  0  0  0  0  0  0  0  0
    6.6355  -20.2486   18.5539 C   0  0  0  0  0  0  0  0  0  0  0  0
    7.5964  -20.8773   19.0596 O   0  0  0  0  0  0  0  0  0  0  0  0
    9.1572  -19.1336   17.6824 C   0  0  0  0  0  0  0  0  0  0  0  0
    9.6530  -20.0825   17.0145 O   0  0  0  0  0  0  0  0  0  0  0  0
    5.4452  -20.2950   19.2837 O   0  0  0  0  0  0  0  0  0  0  0  0
   16.2633  -17.8648   15.0690 N   0  0  0  0  0  0  0  0  0  0  0  0
   15.9833  -19.0148   15.8630 C   0  0  0  0  0  0  0  0  0  0  0  0
   15.9760  -20.1869   15.2968 N   0  0  0  0  0  0  0  0  0  0  0  0
   15.7105  -18.9465   17.2448 N   0  0  0  0  0  0  0  0  0  0  0  0
   14.7447  -18.0445   17.7915 C   0  0  0  0  0  0  0  0  0  0  0  0
   13.6698  -18.8385   18.5226 C   0  0  0  0  0  0  0  0  0  0  0  0
   12.3056  -18.2472   18.3242 C   0  0  0  0  0  0  0  0  0  0  0  0
   11.2949  -19.1085   19.0218 C   0  0  2  0  0  0  0  0  0  0  0  0
    9.9230  -18.7037   18.8102 N   0  0  0  0  0  0  0  0  0  0  0  0
   11.6217  -19.2281   20.4628 C   0  0  0  0  0  0  0  0  0  0  0  0
   10.7960  -18.8362   21.3132 O   0  0  0  0  0  0  0  0  0  0  0  0
   12.8251  -19.7661   20.8609 O   0  0  0  0  0  0  0  0  0  0  0  0
  1  2  1  0
  2  3  2  0
  4  2  1  0
  5  4  1  0
  5  6  1  6
  7  8  2  0
  7  5  1  0
  9  7  1  0
 10 14  1  0
 10  9  1  0
 10 11  1  6
 12 11  1  0
 12 13  2  0
 14 15  2  0
 16 12  1  0
 18 17  1  0
 18 19  2  0
 20 18  1  0
 21 20  1  0
 22 21  1  0
 23 22  1  0
 24 23  1  1
 25 24  1  0
 25 14  1  0
 26 24  1  0
 27 26  2  0
 28 26  1  0
M  END
$$$$
