NDR.pdb
     RDKit          3D

 28 27  0  0  1  0  0  0  0  0999 V2000
    8.1199  -13.8941   17.0667 N   0  0  0  0  0  0  0  0  0  0  0  0
    8.2288  -13.4517   18.4025 C   0  0  0  0  0  0  0  0  0  0  0  0
    7.8783  -12.2904   18.6912 O   0  0  0  0  0  0  0  0  0  0  0  0
    8.7487  -14.3512   19.4343 C   0  0  0  0  0  0  0  0  0  0  0  0
    8.9975  -15.7670   18.9330 C   0  0  2  0  0  0  0  0  0  0  0  0
    7.7578  -16.3768   18.5415 N   0  0  0  0  0  0  0  0  0  0  0  0
    9.6418  -16.4810   20.0675 C   0  0  0  0  0  0  0  0  0  0  0  0
    8.9106  -16.9932   20.9469 O   0  0  0  0  0  0  0  0  0  0  0  0
   11.0607  -16.6145   20.2064 N   0  0  0  0  0  0  0  0  0  0  0  0
   11.6754  -17.3735   21.2596 C   0  0  1  0  0  0  0  0  0  0  0  0
   13.1453  -17.6140   21.0187 C   0  0  0  0  0  0  0  0  0  0  0  0
   13.3509  -18.7631   20.1157 C   0  0  0  0  0  0  0  0  0  0  0  0
   12.6730  -19.8182   20.1581 O   0  0  0  0  0  0  0  0  0  0  0  0
   11.3669  -16.8590   22.6074 C   0  0  0  0  0  0  0  0  0  0  0  0
   11.8886  -15.7910   23.0313 O   0  0  0  0  0  0  0  0  0  0  0  0
   14.3446  -18.7344   19.1343 O   0  0  0  0  0  0  0  0  0  0  0  0
    5.1052  -12.8746   26.2082 N   0  0  0  0  0  0  0  0  0  0  0  0
    6.4287  -12.3501   26.1411 C   0  0  0  0  0  0  0  0  0  0  0  0
    6.6230  -11.0901   26.4045 N   0  0  0  0  0  0  0  0  0  0  0  0
    7.5497  -13.1346   25.8002 N   0  0  0  0  0  0  0  0  0  0  0  0
    7.4574  -14.5428   25.5683 C   0  0  0  0  0  0  0  0  0  0  0  0
    8.8290  -15.0815   25.1821 C   0  0  0  0  0  0  0  0  0  0  0  0
    8.8433  -16.5801   25.1177 C   0  0  0  0  0  0  0  0  0  0  0  0
   10.2464  -17.0435   24.8601 C   0  0  2  0  0  0  0  0  0  0  0  0
   10.4776  -17.5160   23.5132 N   0  0  0  0  0  0  0  0  0  0  0  0
   10.6578  -18.0416   25.8761 C   0  0  0  0  0  0  0  0  0  0  0  0
   10.4712  -17.7975   27.0860 O   0  0  0  0  0  0  0  0  0  0  0  0
   11.2409  -19.2277   25.4896 O   0  0  0  0  0  0  0  0  0  0  0  0
  1  2  1  0
  2  3  2  0
  4  2  1  0
  5  4  1  0
  5  6  1  1
  7  8  2  0
  7  5  1  0
  9  7  1  0
 10 14  1  0
 10  9  1  0
 10 11  1  6
 12 11  1  0
 12 13  2  0
 14 15  2  0
 16 12  1  0
 18 17  1  0
 18 19  2  0
 20 18  1  0
 21 20  1  0
 22 21  1  0
 23 22  1  0
 24 23  1  6
 25 24  1  0
 25 14  1  0
 26 24  1  0
 27 26  2  0
 28 26  1  0
M  END
$$$$
