NDR.pdb
     RDKit          3D

 28 27  0  0  1  0  0  0  0  0999 V2000
    8.3874  -12.9104   16.9208 N   0  0  0  0  0  0  0  0  0  0  0  0
    7.5843  -14.0305   17.2241 C   0  0  0  0  0  0  0  0  0  0  0  0
    6.6327  -14.3207   16.4723 O   0  0  0  0  0  0  0  0  0  0  0  0
    7.8699  -14.8399   18.4105 C   0  0  0  0  0  0  0  0  0  0  0  0
    8.9391  -14.2368   19.3110 C   0  0  2  0  0  0  0  0  0  0  0  0
   10.0838  -13.8570   18.5317 N   0  0  0  0  0  0  0  0  0  0  0  0
    9.2617  -15.2946   20.3054 C   0  0  0  0  0  0  0  0  0  0  0  0
    8.3351  -15.7574   21.0108 O   0  0  0  0  0  0  0  0  0  0  0  0
   10.5820  -15.8140   20.4983 N   0  0  0  0  0  0  0  0  0  0  0  0
   10.8846  -16.8480   21.4484 C   0  0  1  0  0  0  0  0  0  0  0  0
   11.9072  -17.8292   20.9309 C   0  0  0  0  0  0  0  0  0  0  0  0
   13.0818  -17.1259   20.3796 C   0  0  0  0  0  0  0  0  0  0  0  0
   13.9530  -16.5588   21.0824 O   0  0  0  0  0  0  0  0  0  0  0  0
   11.1805  -16.3325   22.7985 C   0  0  0  0  0  0  0  0  0  0  0  0
   12.0660  -16.8687   23.5202 O   0  0  0  0  0  0  0  0  0  0  0  0
   13.2911  -17.0529   19.0004 O   0  0  0  0  0  0  0  0  0  0  0  0
    6.2350  -12.3147   28.0734 N   0  0  0  0  0  0  0  0  0  0  0  0
    6.3507  -11.9103   26.7117 C   0  0  0  0  0  0  0  0  0  0  0  0
    6.4131  -10.6402   26.4331 N   0  0  0  0  0  0  0  0  0  0  0  0
    6.4011  -12.8253   25.6401 N   0  0  0  0  0  0  0  0  0  0  0  0
    6.2896  -14.2380   25.8329 C   0  0  0  0  0  0  0  0  0  0  0  0
    7.6812  -14.8576   25.8402 C   0  0  0  0  0  0  0  0  0  0  0  0
    8.3422  -14.7635   24.4969 C   0  0  0  0  0  0  0  0  0  0  0  0
    9.7324  -15.3176   24.5978 C   0  0  2  0  0  0  0  0  0  0  0  0
   10.5020  -15.2158   23.3779 N   0  0  0  0  0  0  0  0  0  0  0  0
    9.7012  -16.7048   25.1196 C   0  0  0  0  0  0  0  0  0  0  0  0
   10.1012  -16.9325   26.2800 O   0  0  0  0  0  0  0  0  0  0  0  0
    9.2357  -17.7339   24.3319 O   0  0  0  0  0  0  0  0  0  0  0  0
  1  2  1  0
  2  3  2  0
  4  2  1  0
  5  4  1  0
  5  6  1  6
  7  8  2  0
  7  5  1  0
  9  7  1  0
 10 14  1  0
 10  9  1  0
 10 11  1  6
 12 11  1  0
 12 13  2  0
 14 15  2  0
 16 12  1  0
 18 17  1  0
 18 19  2  0
 20 18  1  0
 21 20  1  0
 22 21  1  0
 23 22  1  0
 24 23  1  6
 25 24  1  0
 25 14  1  0
 26 24  1  0
 27 26  2  0
 28 26  1  0
M  END
$$$$
