WIK.pdb
     RDKit          3D

 32 33  0  0  1  0  0  0  0  0999 V2000
   25.9997  -21.9613  -13.2388 N   0  0  0  0  0  0  0  0  0  0  0  0
   26.1505  -20.8347  -12.3601 C   0  0  1  0  0  0  0  0  0  0  0  0
   25.2640  -19.6741  -12.7240 C   0  0  0  0  0  0  0  0  0  0  0  0
   25.4882  -19.2407  -14.1127 C   0  0  0  0  0  0  0  0  0  0  0  0
   24.4860  -18.9535  -15.0360 C   0  0  0  0  0  0  0  0  0  0  0  0
   25.0319  -18.5660  -16.1898 N   0  0  0  0  0  0  0  0  0  0  0  0
   26.3767  -18.5897  -16.0543 C   0  0  0  0  0  0  0  0  0  0  0  0
   27.4194  -18.2992  -16.9130 C   0  0  0  0  0  0  0  0  0  0  0  0
   28.7085  -18.4314  -16.4755 C   0  0  0  0  0  0  0  0  0  0  0  0
   29.0183  -18.8453  -15.2048 C   0  0  0  0  0  0  0  0  0  0  0  0
   27.9742  -19.1353  -14.3465 C   0  0  0  0  0  0  0  0  0  0  0  0
   26.6708  -19.0116  -14.7560 C   0  0  0  0  0  0  0  0  0  0  0  0
   25.8972  -21.2986  -10.9691 C   0  0  0  0  0  0  0  0  0  0  0  0
   25.5265  -22.4604  -10.6891 O   0  0  0  0  0  0  0  0  0  0  0  0
   28.6968  -20.8925   -6.4020 C   0  0  0  0  0  0  0  0  0  0  0  0
   27.4220  -20.0614   -6.4714 C   0  0  0  0  0  0  0  0  0  0  0  0
   27.1094  -19.6368   -7.8693 C   0  0  2  0  0  0  0  0  0  0  0  0
   26.2112  -18.4077   -7.8881 C   0  0  0  0  0  0  0  0  0  0  0  0
   26.3493  -20.7336   -8.5663 C   0  0  2  0  0  0  0  0  0  0  0  0
   26.1024  -20.3225   -9.9328 N   0  0  0  0  0  0  0  0  0  0  0  0
   25.0101  -20.9827   -7.9473 C   0  0  0  0  0  0  0  0  0  0  0  0
   24.8924  -21.3371   -6.7359 O   0  0  0  0  0  0  0  0  0  0  0  0
   23.8113  -20.8308   -8.6969 N   0  0  0  0  0  0  0  0  0  0  0  0
   22.5226  -21.0235   -8.0159 C   0  0  1  0  0  0  0  0  0  0  0  0
   21.5356  -21.5787   -9.0241 C   0  0  0  0  0  0  0  0  0  0  0  0
   20.1879  -21.8673   -8.4582 C   0  0  0  0  0  0  0  0  0  0  0  0
   19.3460  -22.4386   -9.5974 C   0  0  0  0  0  0  0  0  0  0  0  0
   17.9748  -22.8413   -9.0999 C   0  0  0  0  0  0  0  0  0  0  0  0
   17.2132  -23.3653  -10.2095 N   0  0  0  0  0  0  0  0  0  0  0  0
   22.7174  -21.8885   -6.8430 C   0  0  0  0  0  0  0  0  0  0  0  0
   23.4999  -22.8764   -6.9299 O   0  0  0  0  0  0  0  0  0  0  0  0
   22.0997  -21.7051   -5.6215 O   0  0  0  0  0  0  0  0  0  0  0  0
  2  1  1  6
  2  3  1  0
  2 13  1  0
  3  4  1  0
  4  5  2  0
  5  6  1  0
  7  6  1  0
  8  7  2  0
  9  8  1  0
 10 11  1  0
 10  9  2  0
 11 12  2  0
 12  4  1  0
 12  7  1  0
 13 14  2  0
 13 20  1  0
 16 15  1  0
 17 19  1  0
 17 16  1  0
 17 18  1  1
 19 21  1  0
 19 20  1  6
 21 22  2  0
 23 21  1  0
 23 24  1  0
 24 25  1  6
 24 30  1  0
 26 27  1  0
 26 25  1  0
 27 28  1  0
 29 28  1  0
 30 32  1  0
 31 30  2  0
M  END
$$$$
