WIK.pdb
     RDKit          3D

 32 33  0  0  1  0  0  0  0  0999 V2000
   26.4083  -20.4784  -18.0285 N   0  0  0  0  0  0  0  0  0  0  0  0
   25.6760  -19.7538  -17.0270 C   0  0  1  0  0  0  0  0  0  0  0  0
   24.4289  -19.1002  -17.5589 C   0  0  0  0  0  0  0  0  0  0  0  0
   24.7183  -17.7753  -18.1311 C   0  0  0  0  0  0  0  0  0  0  0  0
   24.0946  -16.5868  -17.7602 C   0  0  0  0  0  0  0  0  0  0  0  0
   24.6087  -15.5705  -18.4546 N   0  0  0  0  0  0  0  0  0  0  0  0
   25.5615  -16.0575  -19.2807 C   0  0  0  0  0  0  0  0  0  0  0  0
   26.3964  -15.4706  -20.2120 C   0  0  0  0  0  0  0  0  0  0  0  0
   27.2714  -16.2500  -20.9173 C   0  0  0  0  0  0  0  0  0  0  0  0
   27.3594  -17.6075  -20.7401 C   0  0  0  0  0  0  0  0  0  0  0  0
   26.5238  -18.1935  -19.8078 C   0  0  0  0  0  0  0  0  0  0  0  0
   25.6362  -17.4381  -19.0844 C   0  0  0  0  0  0  0  0  0  0  0  0
   25.3672  -20.6918  -15.9138 C   0  0  0  0  0  0  0  0  0  0  0  0
   24.8760  -21.8290  -16.0898 O   0  0  0  0  0  0  0  0  0  0  0  0
   28.6484  -20.2187  -11.6049 C   0  0  0  0  0  0  0  0  0  0  0  0
   27.7052  -20.8081  -12.6459 C   0  0  0  0  0  0  0  0  0  0  0  0
   26.2721  -20.5689  -12.2978 C   0  0  2  0  0  0  0  0  0  0  0  0
   25.8589  -21.3671  -11.0690 C   0  0  0  0  0  0  0  0  0  0  0  0
   25.3978  -21.0407  -13.4290 C   0  0  2  0  0  0  0  0  0  0  0  0
   25.6664  -20.2171  -14.5894 N   0  0  0  0  0  0  0  0  0  0  0  0
   23.9404  -20.8885  -13.1261 C   0  0  0  0  0  0  0  0  0  0  0  0
   23.3361  -19.7877  -13.2991 O   0  0  0  0  0  0  0  0  0  0  0  0
   23.1724  -21.9777  -12.6305 N   0  0  0  0  0  0  0  0  0  0  0  0
   21.7253  -21.7959  -12.4451 C   0  0  1  0  0  0  0  0  0  0  0  0
   21.0516  -23.1382  -12.6528 C   0  0  0  0  0  0  0  0  0  0  0  0
   19.5745  -23.1119  -12.4602 C   0  0  0  0  0  0  0  0  0  0  0  0
   19.0612  -24.5086  -12.8053 C   0  0  0  0  0  0  0  0  0  0  0  0
   17.5503  -24.5558  -12.7365 C   0  0  0  0  0  0  0  0  0  0  0  0
   17.1063  -25.8620  -13.1638 N   0  0  0  0  0  0  0  0  0  0  0  0
   21.4751  -21.2087  -11.1205 C   0  0  0  0  0  0  0  0  0  0  0  0
   22.3543  -21.3226  -10.2208 O   0  0  0  0  0  0  0  0  0  0  0  0
   20.3280  -20.5244  -10.7696 O   0  0  0  0  0  0  0  0  0  0  0  0
  2  1  1  6
  2  3  1  0
  2 13  1  0
  3  4  1  0
  4  5  2  0
  5  6  1  0
  7  6  1  0
  8  7  2  0
  9  8  1  0
 10 11  1  0
 10  9  2  0
 11 12  2  0
 12  4  1  0
 12  7  1  0
 13 14  2  0
 13 20  1  0
 16 15  1  0
 17 19  1  0
 17 16  1  0
 17 18  1  1
 19 21  1  0
 19 20  1  6
 21 22  2  0
 23 21  1  0
 23 24  1  0
 24 25  1  1
 24 30  1  0
 26 27  1  0
 26 25  1  0
 27 28  1  0
 29 28  1  0
 30 32  1  0
 31 30  2  0
M  END
$$$$
