WIK.pdb
     RDKit          3D

 32 33  0  0  1  0  0  0  0  0999 V2000
   26.7385  -19.0105  -17.6402 N   0  0  0  0  0  0  0  0  0  0  0  0
   25.8438  -18.7849  -16.5389 C   0  0  1  0  0  0  0  0  0  0  0  0
   24.4208  -18.5481  -16.9679 C   0  0  0  0  0  0  0  0  0  0  0  0
   24.2939  -17.3070  -17.7491 C   0  0  0  0  0  0  0  0  0  0  0  0
   25.0415  -16.1500  -17.5454 C   0  0  0  0  0  0  0  0  0  0  0  0
   24.6943  -15.2239  -18.4405 N   0  0  0  0  0  0  0  0  0  0  0  0
   23.7306  -15.7399  -19.2357 C   0  0  0  0  0  0  0  0  0  0  0  0
   23.0132  -15.2343  -20.3028 C   0  0  0  0  0  0  0  0  0  0  0  0
   22.0727  -16.0174  -20.9131 C   0  0  0  0  0  0  0  0  0  0  0  0
   21.8047  -17.3006  -20.5085 C   0  0  0  0  0  0  0  0  0  0  0  0
   22.5233  -17.8055  -19.4411 C   0  0  0  0  0  0  0  0  0  0  0  0
   23.4738  -17.0445  -18.8090 C   0  0  0  0  0  0  0  0  0  0  0  0
   25.9483  -19.9471  -15.6154 C   0  0  0  0  0  0  0  0  0  0  0  0
   25.9494  -21.1361  -16.0049 O   0  0  0  0  0  0  0  0  0  0  0  0
   28.6386  -21.0135  -12.3548 C   0  0  0  0  0  0  0  0  0  0  0  0
   27.7840  -19.7907  -12.0466 C   0  0  0  0  0  0  0  0  0  0  0  0
   26.3405  -20.1444  -11.8931 C   0  0  2  0  0  0  0  0  0  0  0  0
   26.1497  -21.2744  -10.8910 C   0  0  0  0  0  0  0  0  0  0  0  0
   25.8060  -20.6438  -13.2089 C   0  0  2  0  0  0  0  0  0  0  0  0
   26.0492  -19.6317  -14.2157 N   0  0  0  0  0  0  0  0  0  0  0  0
   24.3268  -20.8667  -13.1769 C   0  0  0  0  0  0  0  0  0  0  0  0
   23.5147  -19.9152  -12.9715 O   0  0  0  0  0  0  0  0  0  0  0  0
   23.7713  -22.1603  -13.3768 N   0  0  0  0  0  0  0  0  0  0  0  0
   22.3092  -22.3128  -13.3547 C   0  0  1  0  0  0  0  0  0  0  0  0
   21.9888  -23.7924  -13.4401 C   0  0  0  0  0  0  0  0  0  0  0  0
   20.5307  -24.0987  -13.4325 C   0  0  0  0  0  0  0  0  0  0  0  0
   20.4000  -25.6168  -13.5400 C   0  0  0  0  0  0  0  0  0  0  0  0
   18.9453  -26.0323  -13.5104 C   0  0  0  0  0  0  0  0  0  0  0  0
   18.8700  -27.4698  -13.6273 N   0  0  0  0  0  0  0  0  0  0  0  0
   21.7708  -21.6610  -12.1517 C   0  0  0  0  0  0  0  0  0  0  0  0
   20.6314  -21.1180  -12.2035 O   0  0  0  0  0  0  0  0  0  0  0  0
   22.4249  -21.5920  -10.9373 O   0  0  0  0  0  0  0  0  0  0  0  0
  2  1  1  6
  2  3  1  0
  2 13  1  0
  3  4  1  0
  4  5  2  0
  5  6  1  0
  7  6  1  0
  8  7  2  0
  9  8  1  0
 10 11  1  0
 10  9  2  0
 11 12  2  0
 12  4  1  0
 12  7  1  0
 13 14  2  0
 13 20  1  0
 16 15  1  0
 17 19  1  0
 17 16  1  0
 17 18  1  1
 19 21  1  0
 19 20  1  6
 21 22  2  0
 23 21  1  0
 23 24  1  0
 24 25  1  1
 24 30  1  0
 26 27  1  0
 26 25  1  0
 27 28  1  0
 29 28  1  0
 30 32  1  0
 31 30  2  0
M  END
$$$$
