WIK.pdb
     RDKit          3D

 32 33  0  0  1  0  0  0  0  0999 V2000
   27.8814  -19.3576  -17.1697 N   0  0  0  0  0  0  0  0  0  0  0  0
   26.5920  -19.7725  -16.6906 C   0  0  1  0  0  0  0  0  0  0  0  0
   25.7092  -20.3361  -17.7714 C   0  0  0  0  0  0  0  0  0  0  0  0
   25.2217  -19.2798  -18.6731 C   0  0  0  0  0  0  0  0  0  0  0  0
   25.9172  -18.7752  -19.7689 C   0  0  0  0  0  0  0  0  0  0  0  0
   25.1812  -17.8480  -20.3837 N   0  0  0  0  0  0  0  0  0  0  0  0
   24.0101  -17.7243  -19.7198 C   0  0  0  0  0  0  0  0  0  0  0  0
   22.8978  -16.9257  -19.9041 C   0  0  0  0  0  0  0  0  0  0  0  0
   21.8455  -17.0264  -19.0363 C   0  0  0  0  0  0  0  0  0  0  0  0
   21.8437  -17.8965  -17.9756 C   0  0  0  0  0  0  0  0  0  0  0  0
   22.9569  -18.6952  -17.7925 C   0  0  0  0  0  0  0  0  0  0  0  0
   24.0276  -18.6176  -18.6466 C   0  0  0  0  0  0  0  0  0  0  0  0
   26.8031  -20.7542  -15.5923 C   0  0  0  0  0  0  0  0  0  0  0  0
   27.3700  -21.8574  -15.7565 O   0  0  0  0  0  0  0  0  0  0  0  0
   29.2936  -20.8169  -12.3739 C   0  0  0  0  0  0  0  0  0  0  0  0
   28.1855  -19.7812  -12.2322 C   0  0  0  0  0  0  0  0  0  0  0  0
   26.8598  -20.4168  -11.9660 C   0  0  2  0  0  0  0  0  0  0  0  0
   26.9290  -21.3682  -10.7795 C   0  0  0  0  0  0  0  0  0  0  0  0
   26.4550  -21.2451  -13.1562 C   0  0  2  0  0  0  0  0  0  0  0  0
   26.3104  -20.3661  -14.2979 N   0  0  0  0  0  0  0  0  0  0  0  0
   25.1307  -21.9141  -12.9626 C   0  0  0  0  0  0  0  0  0  0  0  0
   24.9687  -22.8341  -12.1056 O   0  0  0  0  0  0  0  0  0  0  0  0
   23.9965  -21.5422  -13.7354 N   0  0  0  0  0  0  0  0  0  0  0  0
   22.7288  -22.2547  -13.5185 C   0  0  1  0  0  0  0  0  0  0  0  0
   21.6282  -21.2226  -13.3689 C   0  0  0  0  0  0  0  0  0  0  0  0
   20.2529  -21.7953  -13.3875 C   0  0  0  0  0  0  0  0  0  0  0  0
   19.2859  -20.6147  -13.4504 C   0  0  0  0  0  0  0  0  0  0  0  0
   17.8590  -21.0983  -13.5910 C   0  0  0  0  0  0  0  0  0  0  0  0
   16.9952  -19.9537  -13.7634 N   0  0  0  0  0  0  0  0  0  0  0  0
   22.5066  -23.1984  -14.6239 C   0  0  0  0  0  0  0  0  0  0  0  0
   23.0807  -22.9960  -15.7307 O   0  0  0  0  0  0  0  0  0  0  0  0
   21.7011  -24.3177  -14.5500 O   0  0  0  0  0  0  0  0  0  0  0  0
  2  1  1  6
  2  3  1  0
  2 13  1  0
  3  4  1  0
  4  5  2  0
  5  6  1  0
  7  6  1  0
  8  7  2  0
  9  8  1  0
 10 11  1  0
 10  9  2  0
 11 12  2  0
 12  4  1  0
 12  7  1  0
 13 14  2  0
 13 20  1  0
 16 15  1  0
 17 19  1  0
 17 16  1  0
 17 18  1  1
 19 21  1  0
 19 20  1  6
 21 22  2  0
 23 21  1  0
 23 24  1  0
 24 25  1  6
 24 30  1  0
 26 27  1  0
 26 25  1  0
 27 28  1  0
 29 28  1  0
 30 32  1  0
 31 30  2  0
M  END
$$$$
