WIK.pdb
     RDKit          3D

 32 33  0  0  1  0  0  0  0  0999 V2000
   27.1655  -20.8718  -12.7898 N   0  0  0  0  0  0  0  0  0  0  0  0
   25.9865  -20.6008  -12.0147 C   0  0  1  0  0  0  0  0  0  0  0  0
   24.7264  -21.1313  -12.6439 C   0  0  0  0  0  0  0  0  0  0  0  0
   24.3613  -20.3643  -13.8460 C   0  0  0  0  0  0  0  0  0  0  0  0
   25.0558  -20.3842  -15.0529 C   0  0  0  0  0  0  0  0  0  0  0  0
   24.4440  -19.5975  -15.9396 N   0  0  0  0  0  0  0  0  0  0  0  0
   23.3569  -19.0537  -15.3482 C   0  0  0  0  0  0  0  0  0  0  0  0
   22.3824  -18.1762  -15.7836 C   0  0  0  0  0  0  0  0  0  0  0  0
   21.3886  -17.7941  -14.9253 C   0  0  0  0  0  0  0  0  0  0  0  0
   21.3137  -18.2484  -13.6329 C   0  0  0  0  0  0  0  0  0  0  0  0
   22.2889  -19.1265  -13.1986 C   0  0  0  0  0  0  0  0  0  0  0  0
   23.2980  -19.5288  -14.0364 C   0  0  0  0  0  0  0  0  0  0  0  0
   26.1927  -21.1613  -10.6517 C   0  0  0  0  0  0  0  0  0  0  0  0
   26.3776  -22.3788  -10.4303 O   0  0  0  0  0  0  0  0  0  0  0  0
   28.4184  -20.5856   -5.5765 C   0  0  0  0  0  0  0  0  0  0  0  0
   27.0232  -20.1078   -5.9582 C   0  0  0  0  0  0  0  0  0  0  0  0
   26.9601  -19.6524   -7.3798 C   0  0  2  0  0  0  0  0  0  0  0  0
   26.2135  -18.3317   -7.5067 C   0  0  0  0  0  0  0  0  0  0  0  0
   26.1909  -20.6591   -8.1931 C   0  0  2  0  0  0  0  0  0  0  0  0
   26.1674  -20.2129   -9.5707 N   0  0  0  0  0  0  0  0  0  0  0  0
   24.7640  -20.7745   -7.7579 C   0  0  0  0  0  0  0  0  0  0  0  0
   23.9036  -19.8929   -8.0569 O   0  0  0  0  0  0  0  0  0  0  0  0
   24.3149  -21.8828   -6.9886 N   0  0  0  0  0  0  0  0  0  0  0  0
   22.8950  -21.9542   -6.6138 C   0  0  1  0  0  0  0  0  0  0  0  0
   22.5240  -23.4153   -6.4507 C   0  0  0  0  0  0  0  0  0  0  0  0
   21.1058  -23.6403   -6.0533 C   0  0  0  0  0  0  0  0  0  0  0  0
   20.9290  -25.1487   -5.8905 C   0  0  0  0  0  0  0  0  0  0  0  0
   19.4895  -25.4875   -5.5695 C   0  0  0  0  0  0  0  0  0  0  0  0
   19.3688  -26.9201   -5.4319 N   0  0  0  0  0  0  0  0  0  0  0  0
   22.6709  -21.1499   -5.4036 C   0  0  0  0  0  0  0  0  0  0  0  0
   21.5349  -20.6325   -5.2101 O   0  0  0  0  0  0  0  0  0  0  0  0
   23.6249  -20.9072   -4.4349 O   0  0  0  0  0  0  0  0  0  0  0  0
  2  1  1  6
  2  3  1  0
  2 13  1  0
  3  4  1  0
  4  5  2  0
  5  6  1  0
  7  6  1  0
  8  7  2  0
  9  8  1  0
 10 11  1  0
 10  9  2  0
 11 12  2  0
 12  4  1  0
 12  7  1  0
 13 14  2  0
 13 20  1  0
 16 15  1  0
 17 19  1  0
 17 16  1  0
 17 18  1  1
 19 21  1  0
 19 20  1  6
 21 22  2  0
 23 21  1  0
 23 24  1  0
 24 25  1  1
 24 30  1  0
 26 27  1  0
 26 25  1  0
 27 28  1  0
 29 28  1  0
 30 32  1  0
 31 30  2  0
M  END
$$$$
