WIK.pdb
     RDKit          3D

 32 33  0  0  1  0  0  0  0  0999 V2000
   26.0267  -21.7680  -13.6860 N   0  0  0  0  0  0  0  0  0  0  0  0
   25.7562  -20.7081  -12.7547 C   0  0  1  0  0  0  0  0  0  0  0  0
   24.6684  -19.7754  -13.2150 C   0  0  0  0  0  0  0  0  0  0  0  0
   24.9852  -19.1847  -14.5255 C   0  0  0  0  0  0  0  0  0  0  0  0
   24.0720  -18.9831  -15.5574 C   0  0  0  0  0  0  0  0  0  0  0  0
   24.6815  -18.4061  -16.5941 N   0  0  0  0  0  0  0  0  0  0  0  0
   25.9817  -18.2197  -16.2744 C   0  0  0  0  0  0  0  0  0  0  0  0
   27.0564  -17.6830  -16.9571 C   0  0  0  0  0  0  0  0  0  0  0  0
   28.2833  -17.6402  -16.3544 C   0  0  0  0  0  0  0  0  0  0  0  0
   28.4992  -18.1127  -15.0847 C   0  0  0  0  0  0  0  0  0  0  0  0
   27.4233  -18.6490  -14.4025 C   0  0  0  0  0  0  0  0  0  0  0  0
   26.1802  -18.7051  -14.9802 C   0  0  0  0  0  0  0  0  0  0  0  0
   25.4264  -21.3232  -11.4403 C   0  0  0  0  0  0  0  0  0  0  0  0
   25.0613  -22.5129  -11.3108 O   0  0  0  0  0  0  0  0  0  0  0  0
   26.9058  -19.8975   -5.6245 C   0  0  0  0  0  0  0  0  0  0  0  0
   26.0859  -20.6996   -6.6270 C   0  0  0  0  0  0  0  0  0  0  0  0
   26.2471  -20.1819   -8.0192 C   0  0  2  0  0  0  0  0  0  0  0  0
   25.7794  -18.7375   -8.1316 C   0  0  0  0  0  0  0  0  0  0  0  0
   25.3832  -20.9859   -8.9541 C   0  0  2  0  0  0  0  0  0  0  0  0
   25.5488  -20.4627  -10.2943 N   0  0  0  0  0  0  0  0  0  0  0  0
   23.9275  -20.8703   -8.6281 C   0  0  0  0  0  0  0  0  0  0  0  0
   23.3211  -19.7581   -8.6753 O   0  0  0  0  0  0  0  0  0  0  0  0
   23.1635  -22.0088   -8.2510 N   0  0  0  0  0  0  0  0  0  0  0  0
   21.7284  -21.8389   -7.9803 C   0  0  1  0  0  0  0  0  0  0  0  0
   20.9651  -22.8093   -8.8606 C   0  0  0  0  0  0  0  0  0  0  0  0
   19.5102  -22.8938   -8.5508 C   0  0  0  0  0  0  0  0  0  0  0  0
   18.7717  -22.8243   -9.8860 C   0  0  0  0  0  0  0  0  0  0  0  0
   17.2767  -22.9284   -9.6770 C   0  0  0  0  0  0  0  0  0  0  0  0
   16.9509  -24.2895   -9.3203 N   0  0  0  0  0  0  0  0  0  0  0  0
   21.4797  -22.0250   -6.5432 C   0  0  0  0  0  0  0  0  0  0  0  0
   20.4294  -21.5432   -6.0329 O   0  0  0  0  0  0  0  0  0  0  0  0
   22.3215  -22.7014   -5.6823 O   0  0  0  0  0  0  0  0  0  0  0  0
  2  1  1  6
  2  3  1  0
  2 13  1  0
  3  4  1  0
  4  5  2  0
  5  6  1  0
  7  6  1  0
  8  7  2  0
  9  8  1  0
 10 11  1  0
 10  9  2  0
 11 12  2  0
 12  4  1  0
 12  7  1  0
 13 14  2  0
 13 20  1  0
 16 15  1  0
 17 19  1  0
 17 16  1  0
 17 18  1  1
 19 21  1  0
 19 20  1  6
 21 22  2  0
 23 21  1  0
 23 24  1  0
 24 25  1  6
 24 30  1  0
 26 27  1  0
 26 25  1  0
 27 28  1  0
 29 28  1  0
 30 32  1  0
 31 30  2  0
M  END
$$$$
