AHR.pdb
     RDKit          3D

 27 27  0  0  1  0  0  0  0  0999 V2000
   24.5436  -20.0861  -20.8602 C   0  0  0  0  0  0  0  0  0  0  0  0
   23.3492  -19.7052  -20.0118 C   0  0  2  0  0  0  0  0  0  0  0  0
   22.8608  -18.3814  -20.3398 N   0  0  0  0  0  0  0  0  0  0  0  0
   23.6730  -19.7438  -18.5698 C   0  0  0  0  0  0  0  0  0  0  0  0
   24.3609  -20.6586  -18.0474 O   0  0  0  0  0  0  0  0  0  0  0  0
   23.1954  -18.7135  -17.7264 N   0  0  0  0  0  0  0  0  0  0  0  0
   23.4044  -18.7043  -16.2930 C   0  0  1  0  0  0  0  0  0  0  0  0
   23.9356  -17.3417  -15.9281 C   0  0  0  0  0  0  0  0  0  0  0  0
   25.3526  -17.1372  -16.1775 C   0  0  0  0  0  0  0  0  0  0  0  0
   26.2387  -18.0532  -16.6756 C   0  0  0  0  0  0  0  0  0  0  0  0
   27.4380  -17.4644  -16.7536 N   0  0  0  0  0  0  0  0  0  0  0  0
   27.3082  -16.2097  -16.3154 C   0  0  0  0  0  0  0  0  0  0  0  0
   26.0395  -16.0075  -15.9639 N   0  0  0  0  0  0  0  0  0  0  0  0
   22.1888  -19.1170  -15.6076 C   0  0  0  0  0  0  0  0  0  0  0  0
   21.0716  -18.6917  -16.0348 O   0  0  0  0  0  0  0  0  0  0  0  0
   19.7528  -26.7210  -11.6733 N   0  0  0  0  0  0  0  0  0  0  0  0
   18.5817  -25.9867  -11.9973 C   0  0  0  0  0  0  0  0  0  0  0  0
   17.4317  -26.5475  -11.9479 N   0  0  0  0  0  0  0  0  0  0  0  0
   18.6327  -24.6173  -12.3852 N   0  0  0  0  0  0  0  0  0  0  0  0
   19.9285  -23.9952  -12.5676 C   0  0  0  0  0  0  0  0  0  0  0  0
   19.7894  -22.5514  -12.9860 C   0  0  0  0  0  0  0  0  0  0  0  0
   21.0659  -21.9262  -13.4412 C   0  0  0  0  0  0  0  0  0  0  0  0
   20.9448  -20.4715  -13.8448 C   0  0  2  0  0  0  0  0  0  0  0  0
   22.1279  -19.9723  -14.4800 N   0  0  0  0  0  0  0  0  0  0  0  0
   20.6093  -19.7229  -12.6077 C   0  0  0  0  0  0  0  0  0  0  0  0
   21.5394  -19.1747  -11.9780 O   0  0  0  0  0  0  0  0  0  0  0  0
   19.3177  -19.6110  -12.1310 O   0  0  0  0  0  0  0  0  0  0  0  0
  2  3  1  0
  2  1  1  6
  4  2  1  0
  5  4  2  0
  6  4  1  0
  7  6  1  0
  7  8  1  1
  8  9  1  0
  9 13  1  0
 10  9  2  0
 10 11  1  0
 11 12  1  0
 13 12  2  0
 14  7  1  0
 14 15  2  0
 16 17  1  0
 17 18  2  0
 19 17  1  0
 19 20  1  0
 20 21  1  0
 22 21  1  0
 23 22  1  1
 23 24  1  0
 24 14  1  0
 25 27  1  0
 25 23  1  0
 26 25  2  0
M  END
$$$$
