AHR.pdb
     RDKit          3D

 27 27  0  0  1  0  0  0  0  0999 V2000
   26.6074  -15.3856  -15.8369 C   0  0  0  0  0  0  0  0  0  0  0  0
   27.3829  -16.6492  -16.1426 C   0  0  2  0  0  0  0  0  0  0  0  0
   28.1686  -16.5148  -17.3521 N   0  0  0  0  0  0  0  0  0  0  0  0
   26.4854  -17.8145  -16.2911 C   0  0  0  0  0  0  0  0  0  0  0  0
   25.9638  -18.1409  -17.3886 O   0  0  0  0  0  0  0  0  0  0  0  0
   26.1900  -18.6082  -15.1581 N   0  0  0  0  0  0  0  0  0  0  0  0
   25.2920  -19.7441  -15.2005 C   0  0  1  0  0  0  0  0  0  0  0  0
   26.0063  -20.9023  -14.5523 C   0  0  0  0  0  0  0  0  0  0  0  0
   27.1204  -21.4499  -15.3079 C   0  0  0  0  0  0  0  0  0  0  0  0
   28.4293  -21.5087  -14.9136 C   0  0  0  0  0  0  0  0  0  0  0  0
   29.1289  -22.0878  -15.8964 N   0  0  0  0  0  0  0  0  0  0  0  0
   28.2803  -22.3856  -16.8836 C   0  0  0  0  0  0  0  0  0  0  0  0
   27.0565  -21.9983  -16.5280 N   0  0  0  0  0  0  0  0  0  0  0  0
   24.0054  -19.3866  -14.6218 C   0  0  0  0  0  0  0  0  0  0  0  0
   23.9511  -18.4170  -13.8042 O   0  0  0  0  0  0  0  0  0  0  0  0
   18.2057  -14.1976  -16.8951 N   0  0  0  0  0  0  0  0  0  0  0  0
   17.5252  -14.8524  -15.8350 C   0  0  0  0  0  0  0  0  0  0  0  0
   16.4025  -14.4047  -15.4122 N   0  0  0  0  0  0  0  0  0  0  0  0
   18.0516  -16.0161  -15.2051 N   0  0  0  0  0  0  0  0  0  0  0  0
   19.3920  -16.4456  -15.5491 C   0  0  0  0  0  0  0  0  0  0  0  0
   19.7432  -17.7456  -14.8665 C   0  0  0  0  0  0  0  0  0  0  0  0
   21.0975  -18.2669  -15.2151 C   0  0  0  0  0  0  0  0  0  0  0  0
   21.4659  -19.5671  -14.5313 C   0  0  2  0  0  0  0  0  0  0  0  0
   22.7729  -20.0311  -14.8905 N   0  0  0  0  0  0  0  0  0  0  0  0
   20.4033  -20.5404  -14.8875 C   0  0  0  0  0  0  0  0  0  0  0  0
   20.6168  -21.3285  -15.8338 O   0  0  0  0  0  0  0  0  0  0  0  0
   19.1975  -20.6065  -14.2171 O   0  0  0  0  0  0  0  0  0  0  0  0
  2  3  1  0
  2  1  1  6
  4  2  1  0
  5  4  2  0
  6  4  1  0
  7  6  1  0
  7  8  1  1
  8  9  1  0
  9 13  1  0
 10  9  2  0
 10 11  1  0
 11 12  1  0
 13 12  2  0
 14  7  1  0
 14 15  2  0
 16 17  1  0
 17 18  2  0
 19 17  1  0
 19 20  1  0
 20 21  1  0
 22 21  1  0
 23 22  1  6
 23 24  1  0
 24 14  1  0
 25 27  1  0
 25 23  1  0
 26 25  2  0
M  END
$$$$
