AHR.pdb
     RDKit          3D

 27 27  0  0  1  0  0  0  0  0999 V2000
   25.5358  -19.0338  -19.8385 C   0  0  0  0  0  0  0  0  0  0  0  0
   24.8180  -18.6054  -18.5765 C   0  0  2  0  0  0  0  0  0  0  0  0
   25.6112  -17.6747  -17.7999 N   0  0  0  0  0  0  0  0  0  0  0  0
   24.4823  -19.7647  -17.7226 C   0  0  0  0  0  0  0  0  0  0  0  0
   23.8735  -20.7781  -18.1533 O   0  0  0  0  0  0  0  0  0  0  0  0
   24.8554  -19.7492  -16.3583 N   0  0  0  0  0  0  0  0  0  0  0  0
   24.5026  -20.8037  -15.4299 C   0  0  1  0  0  0  0  0  0  0  0  0
   25.7282  -21.1001  -14.6042 C   0  0  0  0  0  0  0  0  0  0  0  0
   26.8064  -21.7743  -15.3077 C   0  0  0  0  0  0  0  0  0  0  0  0
   26.8051  -22.1825  -16.6137 C   0  0  0  0  0  0  0  0  0  0  0  0
   27.9875  -22.7559  -16.8662 N   0  0  0  0  0  0  0  0  0  0  0  0
   28.7136  -22.7089  -15.7465 C   0  0  0  0  0  0  0  0  0  0  0  0
   27.9971  -22.1117  -14.7957 N   0  0  0  0  0  0  0  0  0  0  0  0
   23.3081  -20.4352  -14.6847 C   0  0  0  0  0  0  0  0  0  0  0  0
   23.3205  -19.3667  -13.9993 O   0  0  0  0  0  0  0  0  0  0  0  0
   17.4626  -16.6059  -14.9334 N   0  0  0  0  0  0  0  0  0  0  0  0
   18.1349  -16.3776  -16.1629 C   0  0  0  0  0  0  0  0  0  0  0  0
   18.2479  -15.1900  -16.6281 N   0  0  0  0  0  0  0  0  0  0  0  0
   18.7039  -17.4407  -16.9206 N   0  0  0  0  0  0  0  0  0  0  0  0
   18.6123  -18.7901  -16.4011 C   0  0  0  0  0  0  0  0  0  0  0  0
   19.7297  -19.0800  -15.4282 C   0  0  0  0  0  0  0  0  0  0  0  0
   19.7581  -20.4901  -14.9399 C   0  0  0  0  0  0  0  0  0  0  0  0
   20.8875  -20.8004  -13.9798 C   0  0  2  0  0  0  0  0  0  0  0  0
   22.0983  -21.1713  -14.6498 N   0  0  0  0  0  0  0  0  0  0  0  0
   20.3879  -21.8718  -13.0819 C   0  0  0  0  0  0  0  0  0  0  0  0
   20.7495  -23.0470  -13.3059 O   0  0  0  0  0  0  0  0  0  0  0  0
   19.5453  -21.6194  -12.0169 O   0  0  0  0  0  0  0  0  0  0  0  0
  2  3  1  0
  2  1  1  6
  4  2  1  0
  5  4  2  0
  6  4  1  0
  7  6  1  0
  7  8  1  1
  8  9  1  0
  9 13  1  0
 10  9  2  0
 10 11  1  0
 11 12  1  0
 13 12  2  0
 14  7  1  0
 14 15  2  0
 16 17  1  0
 17 18  2  0
 19 17  1  0
 19 20  1  0
 20 21  1  0
 22 21  1  0
 23 22  1  6
 23 24  1  0
 24 14  1  0
 25 27  1  0
 25 23  1  0
 26 25  2  0
M  END
$$$$
