AHR.pdb
     RDKit          3D

 27 27  0  0  1  0  0  0  0  0999 V2000
   25.7052  -17.1914  -18.2478 C   0  0  0  0  0  0  0  0  0  0  0  0
   26.8291  -18.0462  -17.7021 C   0  0  2  0  0  0  0  0  0  0  0  0
   27.5573  -18.7126  -18.7624 N   0  0  0  0  0  0  0  0  0  0  0  0
   26.3253  -19.0696  -16.7616 C   0  0  0  0  0  0  0  0  0  0  0  0
   25.9585  -20.2156  -17.1296 O   0  0  0  0  0  0  0  0  0  0  0  0
   26.2459  -18.7622  -15.3832 N   0  0  0  0  0  0  0  0  0  0  0  0
   25.8210  -19.7197  -14.3826 C   0  0  1  0  0  0  0  0  0  0  0  0
   26.5429  -19.3791  -13.1040 C   0  0  0  0  0  0  0  0  0  0  0  0
   26.1907  -20.1933  -11.9529 C   0  0  0  0  0  0  0  0  0  0  0  0
   26.3901  -21.5393  -11.8079 C   0  0  0  0  0  0  0  0  0  0  0  0
   25.9280  -21.8957  -10.6036 N   0  0  0  0  0  0  0  0  0  0  0  0
   25.4503  -20.8007  -10.0070 C   0  0  0  0  0  0  0  0  0  0  0  0
   25.6089  -19.7625  -10.8261 N   0  0  0  0  0  0  0  0  0  0  0  0
   24.3682  -19.7494  -14.3036 C   0  0  0  0  0  0  0  0  0  0  0  0
   23.7334  -18.6500  -14.3024 O   0  0  0  0  0  0  0  0  0  0  0  0
   18.7657  -26.5144  -15.1478 N   0  0  0  0  0  0  0  0  0  0  0  0
   19.4089  -25.6359  -16.0589 C   0  0  0  0  0  0  0  0  0  0  0  0
   19.5817  -25.9822  -17.2795 N   0  0  0  0  0  0  0  0  0  0  0  0
   19.8827  -24.3526  -15.6630 N   0  0  0  0  0  0  0  0  0  0  0  0
   19.5809  -23.8832  -14.3259 C   0  0  0  0  0  0  0  0  0  0  0  0
   20.1196  -22.4913  -14.0989 C   0  0  0  0  0  0  0  0  0  0  0  0
   21.5971  -22.3765  -14.2761 C   0  0  0  0  0  0  0  0  0  0  0  0
   22.1447  -20.9756  -14.0985 C   0  0  2  0  0  0  0  0  0  0  0  0
   23.5703  -20.9174  -14.2280 N   0  0  0  0  0  0  0  0  0  0  0  0
   21.6791  -20.5123  -12.7673 C   0  0  0  0  0  0  0  0  0  0  0  0
   22.4604  -20.6194  -11.7977 O   0  0  0  0  0  0  0  0  0  0  0  0
   20.4246  -19.9718  -12.5628 O   0  0  0  0  0  0  0  0  0  0  0  0
  2  3  1  0
  2  1  1  6
  4  2  1  0
  5  4  2  0
  6  4  1  0
  7  6  1  0
  7  8  1  1
  8  9  1  0
  9 13  1  0
 10  9  2  0
 10 11  1  0
 11 12  1  0
 13 12  2  0
 14  7  1  0
 14 15  2  0
 16 17  1  0
 17 18  2  0
 19 17  1  0
 19 20  1  0
 20 21  1  0
 22 21  1  0
 23 22  1  1
 23 24  1  0
 24 14  1  0
 25 27  1  0
 25 23  1  0
 26 25  2  0
M  END
$$$$
