AHR.pdb
     RDKit          3D

 27 27  0  0  1  0  0  0  0  0999 V2000
   18.3915  -13.3241  -15.2735 C   0  0  0  0  0  0  0  0  0  0  0  0
   17.8857  -11.9099  -15.4631 C   0  0  2  0  0  0  0  0  0  0  0  0
   18.3573  -11.3357  -16.7066 N   0  0  0  0  0  0  0  0  0  0  0  0
   18.3025  -11.0304  -14.3503 C   0  0  0  0  0  0  0  0  0  0  0  0
   18.2010  -11.3625  -13.1409 O   0  0  0  0  0  0  0  0  0  0  0  0
   18.8413   -9.7554  -14.6417 N   0  0  0  0  0  0  0  0  0  0  0  0
   19.3454   -8.8581  -13.6222 C   0  0  1  0  0  0  0  0  0  0  0  0
   20.4384   -8.0343  -14.2535 C   0  0  0  0  0  0  0  0  0  0  0  0
   21.6615   -8.7545  -14.5653 C   0  0  0  0  0  0  0  0  0  0  0  0
   21.9262  -10.0721  -14.3081 C   0  0  0  0  0  0  0  0  0  0  0  0
   23.1595  -10.3382  -14.7544 N   0  0  0  0  0  0  0  0  0  0  0  0
   23.6569   -9.2155  -15.2791 C   0  0  0  0  0  0  0  0  0  0  0  0
   22.7471   -8.2494  -15.1654 N   0  0  0  0  0  0  0  0  0  0  0  0
   18.2481   -8.1095  -13.0277 C   0  0  0  0  0  0  0  0  0  0  0  0
   17.3511   -7.6317  -13.7884 O   0  0  0  0  0  0  0  0  0  0  0  0
   12.3927   -9.9204   -6.8951 N   0  0  0  0  0  0  0  0  0  0  0  0
   11.9845   -8.7094   -7.5136 C   0  0  0  0  0  0  0  0  0  0  0  0
   10.7773   -8.2985   -7.3982 N   0  0  0  0  0  0  0  0  0  0  0  0
   12.8838   -7.9114   -8.2769 N   0  0  0  0  0  0  0  0  0  0  0  0
   14.1662   -8.4736   -8.6493 C   0  0  0  0  0  0  0  0  0  0  0  0
   14.9344   -7.5373   -9.5505 C   0  0  0  0  0  0  0  0  0  0  0  0
   16.2163   -8.1046  -10.0629 C   0  0  0  0  0  0  0  0  0  0  0  0
   16.9634   -7.2029  -11.0234 C   0  0  2  0  0  0  0  0  0  0  0  0
   18.0768   -7.8563  -11.6445 N   0  0  0  0  0  0  0  0  0  0  0  0
   17.3733   -6.0099  -10.2409 C   0  0  0  0  0  0  0  0  0  0  0  0
   18.5342   -5.9762   -9.7792 O   0  0  0  0  0  0  0  0  0  0  0  0
   16.5258   -4.9447  -10.0065 O   0  0  0  0  0  0  0  0  0  0  0  0
  2  3  1  0
  2  1  1  1
  4  2  1  0
  5  4  2  0
  6  4  1  0
  7  6  1  0
  7  8  1  6
  8  9  1  0
  9 13  1  0
 10  9  2  0
 10 11  1  0
 11 12  1  0
 13 12  2  0
 14  7  1  0
 14 15  2  0
 16 17  1  0
 17 18  2  0
 19 17  1  0
 19 20  1  0
 20 21  1  0
 22 21  1  0
 23 22  1  1
 23 24  1  0
 24 14  1  0
 25 27  1  0
 25 23  1  0
 26 25  2  0
M  END
$$$$
