AHR.pdb
     RDKit          3D

 27 27  0  0  1  0  0  0  0  0999 V2000
   28.1248  -18.2305  -18.0114 C   0  0  0  0  0  0  0  0  0  0  0  0
   26.6765  -18.0490  -18.4126 C   0  0  2  0  0  0  0  0  0  0  0  0
   26.5453  -17.7619  -19.8264 N   0  0  0  0  0  0  0  0  0  0  0  0
   26.0343  -16.9580  -17.6490 C   0  0  0  0  0  0  0  0  0  0  0  0
   25.9897  -16.9370  -16.3917 O   0  0  0  0  0  0  0  0  0  0  0  0
   25.4388  -15.8824  -18.3485 N   0  0  0  0  0  0  0  0  0  0  0  0
   24.6909  -14.8296  -17.6922 C   0  0  1  0  0  0  0  0  0  0  0  0
   25.3404  -13.5216  -18.0651 C   0  0  0  0  0  0  0  0  0  0  0  0
   26.5392  -13.1845  -17.3160 C   0  0  0  0  0  0  0  0  0  0  0  0
   26.9630  -13.7536  -16.1460 C   0  0  0  0  0  0  0  0  0  0  0  0
   28.1091  -13.1604  -15.7920 N   0  0  0  0  0  0  0  0  0  0  0  0
   28.3981  -12.2415  -16.7169 C   0  0  0  0  0  0  0  0  0  0  0  0
   27.4440  -12.2538  -17.6461 N   0  0  0  0  0  0  0  0  0  0  0  0
   23.2755  -14.9494  -18.0088 C   0  0  0  0  0  0  0  0  0  0  0  0
   22.9394  -15.3295  -19.1725 O   0  0  0  0  0  0  0  0  0  0  0  0
   18.2692  -19.8026  -14.0912 N   0  0  0  0  0  0  0  0  0  0  0  0
   18.9229  -18.6324  -13.6232 C   0  0  0  0  0  0  0  0  0  0  0  0
   18.8688  -18.3121  -12.3847 N   0  0  0  0  0  0  0  0  0  0  0  0
   19.6553  -17.7771  -14.4953 N   0  0  0  0  0  0  0  0  0  0  0  0
   19.7538  -18.1337  -15.8962 C   0  0  0  0  0  0  0  0  0  0  0  0
   20.5748  -17.1247  -16.6623 C   0  0  0  0  0  0  0  0  0  0  0  0
   20.0560  -15.7281  -16.5739 C   0  0  0  0  0  0  0  0  0  0  0  0
   20.8065  -14.7236  -17.4233 C   0  0  2  0  0  0  0  0  0  0  0  0
   22.2061  -14.6778  -17.1205 N   0  0  0  0  0  0  0  0  0  0  0  0
   20.1390  -13.4153  -17.2082 C   0  0  0  0  0  0  0  0  0  0  0  0
   20.7627  -12.5288  -16.5860 O   0  0  0  0  0  0  0  0  0  0  0  0
   18.8645  -13.1443  -17.6665 O   0  0  0  0  0  0  0  0  0  0  0  0
  2  3  1  0
  2  1  1  1
  4  2  1  0
  5  4  2  0
  6  4  1  0
  7  6  1  0
  7  8  1  6
  8  9  1  0
  9 13  1  0
 10  9  2  0
 10 11  1  0
 11 12  1  0
 13 12  2  0
 14  7  1  0
 14 15  2  0
 16 17  1  0
 17 18  2  0
 19 17  1  0
 19 20  1  0
 20 21  1  0
 22 21  1  0
 23 22  1  1
 23 24  1  0
 24 14  1  0
 25 27  1  0
 25 23  1  0
 26 25  2  0
M  END
$$$$
