AHR.pdb
     RDKit          3D

 27 27  0  0  1  0  0  0  0  0999 V2000
   15.0840  -21.7546    4.4717 C   0  0  0  0  0  0  0  0  0  0  0  0
   15.3305  -20.6316    3.4870 C   0  0  2  0  0  0  0  0  0  0  0  0
   15.6400  -21.1376    2.1654 N   0  0  0  0  0  0  0  0  0  0  0  0
   16.4378  -19.7566    3.9274 C   0  0  0  0  0  0  0  0  0  0  0  0
   17.6469  -20.0109    3.6895 O   0  0  0  0  0  0  0  0  0  0  0  0
   16.1412  -18.5770    4.6496 N   0  0  0  0  0  0  0  0  0  0  0  0
   17.1593  -17.6572    5.1144 C   0  0  1  0  0  0  0  0  0  0  0  0
   16.6047  -16.2639    4.9631 C   0  0  0  0  0  0  0  0  0  0  0  0
   17.1721  -15.4810    3.8782 C   0  0  0  0  0  0  0  0  0  0  0  0
   18.1874  -15.8546    3.0403 C   0  0  0  0  0  0  0  0  0  0  0  0
   18.4035  -14.8500    2.1831 N   0  0  0  0  0  0  0  0  0  0  0  0
   17.5451  -13.8696    2.4753 C   0  0  0  0  0  0  0  0  0  0  0  0
   16.7940  -14.2510    3.5070 N   0  0  0  0  0  0  0  0  0  0  0  0
   17.5933  -18.0265    6.4535 C   0  0  0  0  0  0  0  0  0  0  0  0
   16.7776  -18.6308    7.2156 O   0  0  0  0  0  0  0  0  0  0  0  0
   25.4750  -17.3808   10.9062 N   0  0  0  0  0  0  0  0  0  0  0  0
   24.5304  -17.9091   11.8250 C   0  0  0  0  0  0  0  0  0  0  0  0
   24.8851  -18.2067   13.0188 N   0  0  0  0  0  0  0  0  0  0  0  0
   23.1696  -18.1281   11.4663 N   0  0  0  0  0  0  0  0  0  0  0  0
   22.7332  -17.7531   10.1365 C   0  0  0  0  0  0  0  0  0  0  0  0
   21.2702  -18.0640    9.9316 C   0  0  0  0  0  0  0  0  0  0  0  0
   20.7603  -17.7142    8.5733 C   0  0  0  0  0  0  0  0  0  0  0  0
   19.3022  -18.0525    8.3426 C   0  0  2  0  0  0  0  0  0  0  0  0
   18.8733  -17.7725    7.0046 N   0  0  0  0  0  0  0  0  0  0  0  0
   18.5320  -17.2866    9.3545 C   0  0  0  0  0  0  0  0  0  0  0  0
   18.2376  -16.0992    9.0986 O   0  0  0  0  0  0  0  0  0  0  0  0
   18.1323  -17.8336   10.5581 O   0  0  0  0  0  0  0  0  0  0  0  0
  2  3  1  0
  2  1  1  1
  4  2  1  0
  5  4  2  0
  6  4  1  0
  7  6  1  0
  7  8  1  1
  8  9  1  0
  9 13  1  0
 10  9  2  0
 10 11  1  0
 11 12  1  0
 13 12  2  0
 14  7  1  0
 14 15  2  0
 16 17  1  0
 17 18  2  0
 19 17  1  0
 19 20  1  0
 20 21  1  0
 22 21  1  0
 23 22  1  6
 23 24  1  0
 24 14  1  0
 25 27  1  0
 25 23  1  0
 26 25  2  0
M  END
$$$$
