AHR.pdb
     RDKit          3D

 27 27  0  0  1  0  0  0  0  0999 V2000
   24.9386  -21.6409  -20.6535 C   0  0  0  0  0  0  0  0  0  0  0  0
   25.5176  -20.2439  -20.5852 C   0  0  2  0  0  0  0  0  0  0  0  0
   26.6902  -20.1095  -21.4250 N   0  0  0  0  0  0  0  0  0  0  0  0
   25.8847  -19.8754  -19.2013 C   0  0  0  0  0  0  0  0  0  0  0  0
   26.8643  -20.3819  -18.5954 O   0  0  0  0  0  0  0  0  0  0  0  0
   25.1101  -18.9118  -18.5140 N   0  0  0  0  0  0  0  0  0  0  0  0
   25.4308  -18.4438  -17.1811 C   0  0  1  0  0  0  0  0  0  0  0  0
   25.1399  -16.9653  -17.1451 C   0  0  0  0  0  0  0  0  0  0  0  0
   26.1801  -16.1112  -17.6934 C   0  0  0  0  0  0  0  0  0  0  0  0
   27.5266  -16.3551  -17.6940 C   0  0  0  0  0  0  0  0  0  0  0  0
   28.1306  -15.3244  -18.2969 N   0  0  0  0  0  0  0  0  0  0  0  0
   27.1869  -14.4546  -18.6659 C   0  0  0  0  0  0  0  0  0  0  0  0
   25.9982  -14.9311  -18.2998 N   0  0  0  0  0  0  0  0  0  0  0  0
   24.7398  -19.2518  -16.1874 C   0  0  0  0  0  0  0  0  0  0  0  0
   23.6019  -19.7348  -16.4762 O   0  0  0  0  0  0  0  0  0  0  0  0
   23.4766  -19.7067   -8.5546 N   0  0  0  0  0  0  0  0  0  0  0  0
   23.6262  -21.1148   -8.4513 C   0  0  0  0  0  0  0  0  0  0  0  0
   22.8300  -21.7983   -7.7175 N   0  0  0  0  0  0  0  0  0  0  0  0
   24.6508  -21.8179   -9.1471 N   0  0  0  0  0  0  0  0  0  0  0  0
   25.3901  -21.1232  -10.1816 C   0  0  0  0  0  0  0  0  0  0  0  0
   24.6297  -21.1124  -11.4856 C   0  0  0  0  0  0  0  0  0  0  0  0
   25.3498  -20.4322  -12.6020 C   0  0  0  0  0  0  0  0  0  0  0  0
   24.5735  -20.3618  -13.9005 C   0  0  2  0  0  0  0  0  0  0  0  0
   25.2268  -19.5627  -14.8941 N   0  0  0  0  0  0  0  0  0  0  0  0
   23.2273  -19.8418  -13.5530 C   0  0  0  0  0  0  0  0  0  0  0  0
   23.0881  -18.6075  -13.4145 O   0  0  0  0  0  0  0  0  0  0  0  0
   22.1321  -20.6652  -13.3787 O   0  0  0  0  0  0  0  0  0  0  0  0
  2  3  1  0
  2  1  1  1
  4  2  1  0
  5  4  2  0
  6  4  1  0
  7  6  1  0
  7  8  1  6
  8  9  1  0
  9 13  1  0
 10  9  2  0
 10 11  1  0
 11 12  1  0
 13 12  2  0
 14  7  1  0
 14 15  2  0
 16 17  1  0
 17 18  2  0
 19 17  1  0
 19 20  1  0
 20 21  1  0
 22 21  1  0
 23 22  1  1
 23 24  1  0
 24 14  1  0
 25 27  1  0
 25 23  1  0
 26 25  2  0
M  END
$$$$
