AHR.pdb
     RDKit          3D

 27 27  0  0  1  0  0  0  0  0999 V2000
   19.5359  -14.5773  -19.3866 C   0  0  0  0  0  0  0  0  0  0  0  0
   20.0227  -13.2100  -19.8169 C   0  0  2  0  0  0  0  0  0  0  0  0
   20.9129  -13.2938  -20.9566 N   0  0  0  0  0  0  0  0  0  0  0  0
   20.7273  -12.5143  -18.7192 C   0  0  0  0  0  0  0  0  0  0  0  0
   20.1625  -12.1844  -17.6443 O   0  0  0  0  0  0  0  0  0  0  0  0
   22.0980  -12.1983  -18.8685 N   0  0  0  0  0  0  0  0  0  0  0  0
   22.8709  -11.5268  -17.8437 C   0  0  1  0  0  0  0  0  0  0  0  0
   24.3193  -11.8710  -18.0796 C   0  0  0  0  0  0  0  0  0  0  0  0
   25.2679  -11.2201  -17.1916 C   0  0  0  0  0  0  0  0  0  0  0  0
   24.9745  -10.3982  -16.1377 C   0  0  0  0  0  0  0  0  0  0  0  0
   26.1298  -10.0144  -15.5820 N   0  0  0  0  0  0  0  0  0  0  0  0
   27.1241  -10.5813  -16.2698 C   0  0  0  0  0  0  0  0  0  0  0  0
   26.6024  -11.3161  -17.2505 N   0  0  0  0  0  0  0  0  0  0  0  0
   22.5500  -10.1075  -17.8245 C   0  0  0  0  0  0  0  0  0  0  0  0
   22.6475   -9.4440  -18.9024 O   0  0  0  0  0  0  0  0  0  0  0  0
   15.1833   -7.5583  -17.3145 N   0  0  0  0  0  0  0  0  0  0  0  0
   15.8731   -7.6440  -18.5525 C   0  0  0  0  0  0  0  0  0  0  0  0
   15.2220   -7.7325  -19.6515 N   0  0  0  0  0  0  0  0  0  0  0  0
   17.2953   -7.6357  -18.6262 N   0  0  0  0  0  0  0  0  0  0  0  0
   18.0536   -7.5325  -17.3959 C   0  0  0  0  0  0  0  0  0  0  0  0
   19.5324   -7.7025  -17.6475 C   0  0  0  0  0  0  0  0  0  0  0  0
   20.3641   -7.6873  -16.4083 C   0  0  0  0  0  0  0  0  0  0  0  0
   21.8344   -7.9718  -16.6343 C   0  0  2  0  0  0  0  0  0  0  0  0
   22.1255   -9.3735  -16.6897 N   0  0  0  0  0  0  0  0  0  0  0  0
   22.5643   -7.2863  -15.5385 C   0  0  0  0  0  0  0  0  0  0  0  0
   22.8275   -7.9384  -14.5052 O   0  0  0  0  0  0  0  0  0  0  0  0
   22.9597   -5.9652  -15.6183 O   0  0  0  0  0  0  0  0  0  0  0  0
  2  3  1  0
  2  1  1  1
  4  2  1  0
  5  4  2  0
  6  4  1  0
  7  6  1  0
  7  8  1  6
  8  9  1  0
  9 13  1  0
 10  9  2  0
 10 11  1  0
 11 12  1  0
 13 12  2  0
 14  7  1  0
 14 15  2  0
 16 17  1  0
 17 18  2  0
 19 17  1  0
 19 20  1  0
 20 21  1  0
 22 21  1  0
 23 22  1  1
 23 24  1  0
 24 14  1  0
 25 27  1  0
 25 23  1  0
 26 25  2  0
M  END
$$$$
