RGC.pdb
     RDKit          3D

 22 21  0  0  1  0  0  0  0  0999 V2000
    7.7343  -13.8298   15.1204 N   0  0  0  0  0  0  0  0  0  0  0  0
    8.7243  -14.1714   16.0840 C   0  0  0  0  0  0  0  0  0  0  0  0
    9.5501  -15.1227   15.8920 N   0  0  0  0  0  0  0  0  0  0  0  0
    8.7528  -13.3951   17.2795 N   0  0  0  0  0  0  0  0  0  0  0  0
    8.7715  -14.0003   18.5716 C   0  0  0  0  0  0  0  0  0  0  0  0
    7.3808  -14.6157   18.8205 C   0  0  0  0  0  0  0  0  0  0  0  0
    7.1101  -14.4843   20.2917 C   0  0  0  0  0  0  0  0  0  0  0  0
    8.3376  -14.7224   21.1064 C   0  0  2  0  0  0  0  0  0  0  0  0
    9.1339  -15.7384   20.4105 N   0  0  0  0  0  0  0  0  0  0  0  0
    8.0918  -15.1249   22.5046 C   0  0  0  0  0  0  0  0  0  0  0  0
    7.2819  -14.4715   23.1971 O   0  0  0  0  0  0  0  0  0  0  0  0
   10.2708  -15.4706   16.5300 N   0  0  0  0  0  0  0  0  0  0  0  0
    8.7666  -16.2538   23.0797 C   0  0  0  0  0  0  0  0  0  0  0  0
    8.5679  -16.6285   24.4640 C   0  0  0  0  0  0  0  0  0  0  0  0
    9.2037  -15.6097   25.3386 O   0  0  0  0  0  0  0  0  0  0  0  0
   10.4523  -15.3515   25.2243 N   0  0  0  0  0  0  0  0  0  0  0  0
    8.4953  -14.8856   26.3202 C   0  0  1  0  0  0  0  0  0  0  0  0
    9.1226  -13.9652   27.2216 C   0  0  0  0  0  0  0  0  0  0  0  0
    8.1455  -12.9750   27.8185 S   0  0  0  0  0  0  0  0  0  0  0  0
    7.1628  -12.3142   26.4457 C   0  0  0  0  0  0  0  0  0  0  0  0
    9.8243  -14.6153   28.3313 O   0  0  0  0  0  0  0  0  0  0  0  0
    9.7321  -15.8572   28.4930 O   0  0  0  0  0  0  0  0  0  0  0  0
  1  2  1  0
  2  3  2  0
  4  5  1  0
  4  2  1  0
  6  7  1  0
  6  5  1  0
  7  8  1  0
  8 10  1  0
  8  9  1  6
 10 12  1  0
 11 10  2  0
 12 13  1  0
 13 14  1  0
 14 15  2  0
 14 16  1  0
 16 17  1  0
 17 20  1  0
 17 18  1  1
 18 19  1  0
 20 21  2  0
 20 22  1  0
M  END
$$$$
