RGC.pdb
     RDKit          3D

 22 21  0  0  1  0  0  0  0  0999 V2000
    7.7071  -15.5728   17.4517 N   0  0  0  0  0  0  0  0  0  0  0  0
    8.2627  -14.2777   17.2538 C   0  0  0  0  0  0  0  0  0  0  0  0
    8.3149  -13.7370   16.1011 N   0  0  0  0  0  0  0  0  0  0  0  0
    8.7584  -13.6071   18.4102 N   0  0  0  0  0  0  0  0  0  0  0  0
    7.8854  -13.0671   19.4013 C   0  0  0  0  0  0  0  0  0  0  0  0
    6.7550  -14.0879   19.6359 C   0  0  0  0  0  0  0  0  0  0  0  0
    6.6423  -14.2698   21.1221 C   0  0  0  0  0  0  0  0  0  0  0  0
    7.7461  -15.1154   21.6642 C   0  0  2  0  0  0  0  0  0  0  0  0
    7.6657  -16.4192   20.9975 N   0  0  0  0  0  0  0  0  0  0  0  0
    7.7437  -15.2823   23.1303 C   0  0  0  0  0  0  0  0  0  0  0  0
    7.7572  -14.2692   23.8624 O   0  0  0  0  0  0  0  0  0  0  0  0
    8.7558  -12.8511   15.8394 N   0  0  0  0  0  0  0  0  0  0  0  0
    7.7248  -16.5877   23.7270 C   0  0  0  0  0  0  0  0  0  0  0  0
    7.7477  -16.7624   25.1641 C   0  0  0  0  0  0  0  0  0  0  0  0
    9.1124  -16.4614   25.6680 O   0  0  0  0  0  0  0  0  0  0  0  0
    9.9744  -15.9066   24.9012 N   0  0  0  0  0  0  0  0  0  0  0  0
    9.5328  -16.7591   26.9812 C   0  0  1  0  0  0  0  0  0  0  0  0
   10.2100  -15.8161   27.8210 C   0  0  0  0  0  0  0  0  0  0  0  0
    9.3508  -14.6179   28.1642 S   0  0  0  0  0  0  0  0  0  0  0  0
   10.4154  -13.4425   29.0428 C   0  0  0  0  0  0  0  0  0  0  0  0
   10.6897  -16.3896   29.0809 O   0  0  0  0  0  0  0  0  0  0  0  0
    9.9179  -17.0774   29.7935 O   0  0  0  0  0  0  0  0  0  0  0  0
  1  2  1  0
  2  3  2  0
  4  5  1  0
  4  2  1  0
  6  7  1  0
  6  5  1  0
  7  8  1  0
  8 10  1  0
  8  9  1  6
 10 12  1  0
 11 10  2  0
 12 13  1  0
 13 14  1  0
 14 15  2  0
 14 16  1  0
 16 17  1  0
 17 20  1  0
 17 18  1  1
 18 19  1  0
 20 21  2  0
 20 22  1  0
M  END
$$$$
