RGC.pdb
     RDKit          3D

 22 21  0  0  1  0  0  0  0  0999 V2000
    8.0099  -14.2018   16.1164 N   0  0  0  0  0  0  0  0  0  0  0  0
    8.7691  -13.7733   17.2412 C   0  0  0  0  0  0  0  0  0  0  0  0
    9.9538  -14.1924   17.4524 N   0  0  0  0  0  0  0  0  0  0  0  0
    8.1422  -12.8464   18.1247 N   0  0  0  0  0  0  0  0  0  0  0  0
    7.6870  -13.2302   19.4215 C   0  0  0  0  0  0  0  0  0  0  0  0
    7.1663  -14.6774   19.3256 C   0  0  0  0  0  0  0  0  0  0  0  0
    6.7153  -15.0639   20.7047 C   0  0  0  0  0  0  0  0  0  0  0  0
    7.7035  -15.9518   21.3846 C   0  0  2  0  0  0  0  0  0  0  0  0
    7.3476  -17.3356   21.0542 N   0  0  0  0  0  0  0  0  0  0  0  0
    7.7995  -15.7766   22.8466 C   0  0  0  0  0  0  0  0  0  0  0  0
    8.0567  -14.6456   23.3127 O   0  0  0  0  0  0  0  0  0  0  0  0
   10.5908  -13.9282   18.2088 N   0  0  0  0  0  0  0  0  0  0  0  0
    7.6012  -16.8828   23.7396 C   0  0  0  0  0  0  0  0  0  0  0  0
    7.7476  -16.7334   25.1722 C   0  0  0  0  0  0  0  0  0  0  0  0
    9.1540  -16.3676   25.4809 O   0  0  0  0  0  0  0  0  0  0  0  0
    9.9453  -16.0026   24.5431 N   0  0  0  0  0  0  0  0  0  0  0  0
    9.6907  -16.3992   26.7850 C   0  0  1  0  0  0  0  0  0  0  0  0
    9.9551  -15.2190   27.5534 C   0  0  0  0  0  0  0  0  0  0  0  0
    8.7109  -14.3932   27.8016 S   0  0  0  0  0  0  0  0  0  0  0  0
    9.0909  -12.7000   27.2765 C   0  0  0  0  0  0  0  0  0  0  0  0
   10.5704  -15.4907   28.8550 O   0  0  0  0  0  0  0  0  0  0  0  0
   11.6238  -14.8948   29.1898 O   0  0  0  0  0  0  0  0  0  0  0  0
  1  2  1  0
  2  3  2  0
  4  5  1  0
  4  2  1  0
  6  7  1  0
  6  5  1  0
  7  8  1  0
  8 10  1  0
  8  9  1  1
 10 12  1  0
 11 10  2  0
 12 13  1  0
 13 14  1  0
 14 15  2  0
 14 16  1  0
 16 17  1  0
 17 20  1  0
 17 18  1  1
 18 19  1  0
 20 21  2  0
 20 22  1  0
M  END
$$$$
