RGC.pdb
     RDKit          3D

 22 21  0  0  1  0  0  0  0  0999 V2000
    8.9086  -18.6031   15.4301 N   0  0  0  0  0  0  0  0  0  0  0  0
    8.1776  -19.7638   15.8091 C   0  0  0  0  0  0  0  0  0  0  0  0
    8.4371  -20.9117   15.3205 N   0  0  0  0  0  0  0  0  0  0  0  0
    7.1376  -19.5841   16.7676 N   0  0  0  0  0  0  0  0  0  0  0  0
    6.8736  -18.3155   17.3653 C   0  0  0  0  0  0  0  0  0  0  0  0
    8.2210  -17.7241   17.8230 C   0  0  0  0  0  0  0  0  0  0  0  0
    8.2856  -17.9049   19.3123 C   0  0  0  0  0  0  0  0  0  0  0  0
    8.9337  -16.7418   19.9861 C   0  0  2  0  0  0  0  0  0  0  0  0
    9.9068  -17.2778   20.9435 N   0  0  0  0  0  0  0  0  0  0  0  0
    8.0058  -15.8110   20.6570 C   0  0  0  0  0  0  0  0  0  0  0  0
    6.9417  -15.4887   20.0859 O   0  0  0  0  0  0  0  0  0  0  0  0
    8.0041  -21.8092   15.5542 N   0  0  0  0  0  0  0  0  0  0  0  0
    8.3057  -15.2724   21.9533 C   0  0  0  0  0  0  0  0  0  0  0  0
    7.4501  -14.2857   22.5783 C   0  0  0  0  0  0  0  0  0  0  0  0
    7.9443  -14.0157   23.9531 O   0  0  0  0  0  0  0  0  0  0  0  0
    9.1014  -14.4275   24.3141 N   0  0  0  0  0  0  0  0  0  0  0  0
    7.1939  -13.3116   24.9180 C   0  0  1  0  0  0  0  0  0  0  0  0
    7.6636  -13.0628   26.2486 C   0  0  0  0  0  0  0  0  0  0  0  0
    6.7580  -12.1281   27.0220 S   0  0  0  0  0  0  0  0  0  0  0  0
    6.4784  -10.6781   25.9703 C   0  0  0  0  0  0  0  0  0  0  0  0
    7.8303  -14.2779   27.0500 O   0  0  0  0  0  0  0  0  0  0  0  0
    7.3366  -15.3635   26.6570 O   0  0  0  0  0  0  0  0  0  0  0  0
  1  2  1  0
  2  3  2  0
  4  5  1  0
  4  2  1  0
  6  7  1  0
  6  5  1  0
  7  8  1  0
  8 10  1  0
  8  9  1  1
 10 12  1  0
 11 10  2  0
 12 13  1  0
 13 14  1  0
 14 15  2  0
 14 16  1  0
 16 17  1  0
 17 20  1  0
 17 18  1  1
 18 19  1  0
 20 21  2  0
 20 22  1  0
M  END
$$$$
