RGC.pdb
     RDKit          3D

 22 21  0  0  1  0  0  0  0  0999 V2000
    8.7996  -13.1375   17.7654 N   0  0  0  0  0  0  0  0  0  0  0  0
    8.2235  -13.1915   19.0656 C   0  0  0  0  0  0  0  0  0  0  0  0
    8.1715  -12.1670   19.8215 N   0  0  0  0  0  0  0  0  0  0  0  0
    7.7016  -14.4500   19.4857 N   0  0  0  0  0  0  0  0  0  0  0  0
    7.9596  -14.9773   20.7863 C   0  0  0  0  0  0  0  0  0  0  0  0
    6.8681  -14.4423   21.7335 C   0  0  0  0  0  0  0  0  0  0  0  0
    7.1325  -15.0507   23.0806 C   0  0  0  0  0  0  0  0  0  0  0  0
    7.6091  -16.4605   22.9702 C   0  0  2  0  0  0  0  0  0  0  0  0
    6.4234  -17.3137   22.8395 N   0  0  0  0  0  0  0  0  0  0  0  0
    8.4592  -16.9223   24.0844 C   0  0  0  0  0  0  0  0  0  0  0  0
    7.9554  -17.0716   25.2186 O   0  0  0  0  0  0  0  0  0  0  0  0
    7.7540  -12.0910   20.7530 N   0  0  0  0  0  0  0  0  0  0  0  0
    9.8528  -17.2032   23.8854 C   0  0  0  0  0  0  0  0  0  0  0  0
   10.6990  -17.6401   24.9759 C   0  0  0  0  0  0  0  0  0  0  0  0
   10.9202  -16.5019   25.9047 O   0  0  0  0  0  0  0  0  0  0  0  0
   11.8923  -15.6918   25.7108 N   0  0  0  0  0  0  0  0  0  0  0  0
   10.1002  -16.2495   27.0244 C   0  0  1  0  0  0  0  0  0  0  0  0
   10.4493  -15.3222   28.0594 C   0  0  0  0  0  0  0  0  0  0  0  0
    9.3077  -14.3970   28.4235 S   0  0  0  0  0  0  0  0  0  0  0  0
    8.8875  -13.4665   26.9253 C   0  0  0  0  0  0  0  0  0  0  0  0
   10.9068  -15.9644   29.2942 O   0  0  0  0  0  0  0  0  0  0  0  0
   10.8778  -17.2152   29.4011 O   0  0  0  0  0  0  0  0  0  0  0  0
  1  2  1  0
  2  3  2  0
  4  5  1  0
  4  2  1  0
  6  7  1  0
  6  5  1  0
  7  8  1  0
  8 10  1  0
  8  9  1  1
 10 12  1  0
 11 10  2  0
 12 13  1  0
 13 14  1  0
 14 15  2  0
 14 16  1  0
 16 17  1  0
 17 20  1  0
 17 18  1  1
 18 19  1  0
 20 21  2  0
 20 22  1  0
M  END
$$$$
