RGC.pdb
     RDKit          3D

 22 21  0  0  1  0  0  0  0  0999 V2000
    8.4470  -13.1236   16.1691 N   0  0  0  0  0  0  0  0  0  0  0  0
    8.3115  -14.3183   15.4080 C   0  0  0  0  0  0  0  0  0  0  0  0
    7.7475  -14.3278   14.2653 N   0  0  0  0  0  0  0  0  0  0  0  0
    8.8407  -15.5107   15.9832 N   0  0  0  0  0  0  0  0  0  0  0  0
    9.3176  -15.5523   17.3275 C   0  0  0  0  0  0  0  0  0  0  0  0
    8.2078  -14.9883   18.2357 C   0  0  0  0  0  0  0  0  0  0  0  0
    8.7283  -15.0562   19.6426 C   0  0  0  0  0  0  0  0  0  0  0  0
    7.9807  -16.0522   20.4648 C   0  0  2  0  0  0  0  0  0  0  0  0
    6.5685  -15.6568   20.4531 N   0  0  0  0  0  0  0  0  0  0  0  0
    8.4635  -16.2078   21.8505 C   0  0  0  0  0  0  0  0  0  0  0  0
    9.6838  -16.0839   22.0917 O   0  0  0  0  0  0  0  0  0  0  0  0
    7.6567  -15.1115   13.6133 N   0  0  0  0  0  0  0  0  0  0  0  0
    7.5548  -16.4974   22.9232 C   0  0  0  0  0  0  0  0  0  0  0  0
    6.9996  -15.4452   23.7484 C   0  0  0  0  0  0  0  0  0  0  0  0
    7.9957  -15.0622   24.7819 O   0  0  0  0  0  0  0  0  0  0  0  0
    9.2394  -15.3038   24.5986 N   0  0  0  0  0  0  0  0  0  0  0  0
    7.6461  -14.4291   25.9929 C   0  0  1  0  0  0  0  0  0  0  0  0
    8.5857  -13.7129   26.8037 C   0  0  0  0  0  0  0  0  0  0  0  0
    8.1482  -12.2916   27.0868 S   0  0  0  0  0  0  0  0  0  0  0  0
    6.3712  -12.3498   27.4416 C   0  0  0  0  0  0  0  0  0  0  0  0
    8.8593  -14.3546   28.0921 O   0  0  0  0  0  0  0  0  0  0  0  0
    8.1682  -15.3338   28.4668 O   0  0  0  0  0  0  0  0  0  0  0  0
  1  2  1  0
  2  3  2  0
  4  5  1  0
  4  2  1  0
  6  7  1  0
  6  5  1  0
  7  8  1  0
  8 10  1  0
  8  9  1  1
 10 12  1  0
 11 10  2  0
 12 13  1  0
 13 14  1  0
 14 15  2  0
 14 16  1  0
 16 17  1  0
 17 20  1  0
 17 18  1  1
 18 19  1  0
 20 21  2  0
 20 22  1  0
M  END
$$$$
