RGC.pdb
     RDKit          3D

 22 21  0  0  1  0  0  0  0  0999 V2000
    9.6122  -20.4433   18.1130 N   0  0  0  0  0  0  0  0  0  0  0  0
   11.0145  -20.2045   18.1516 C   0  0  0  0  0  0  0  0  0  0  0  0
   11.8503  -21.0210   17.6431 N   0  0  0  0  0  0  0  0  0  0  0  0
   11.4448  -19.0023   18.7860 N   0  0  0  0  0  0  0  0  0  0  0  0
   10.5194  -18.0752   19.3519 C   0  0  0  0  0  0  0  0  0  0  0  0
    9.6607  -17.5107   18.2035 C   0  0  0  0  0  0  0  0  0  0  0  0
    8.6654  -16.5773   18.8303 C   0  0  0  0  0  0  0  0  0  0  0  0
    8.0308  -17.1732   20.0424 C   0  0  2  0  0  0  0  0  0  0  0  0
    7.2351  -18.3225   19.5989 N   0  0  0  0  0  0  0  0  0  0  0  0
    7.2022  -16.2445   20.8351 C   0  0  0  0  0  0  0  0  0  0  0  0
    6.0525  -15.9572   20.4375 O   0  0  0  0  0  0  0  0  0  0  0  0
   12.8725  -20.9709   17.6622 N   0  0  0  0  0  0  0  0  0  0  0  0
    7.6953  -15.6682   22.0538 C   0  0  0  0  0  0  0  0  0  0  0  0
    6.8976  -14.7409   22.8284 C   0  0  0  0  0  0  0  0  0  0  0  0
    7.6900  -14.2768   23.9962 O   0  0  0  0  0  0  0  0  0  0  0  0
    8.9435  -14.5274   24.0646 N   0  0  0  0  0  0  0  0  0  0  0  0
    7.1298  -13.5543   25.0703 C   0  0  1  0  0  0  0  0  0  0  0  0
    7.8820  -13.1494   26.2207 C   0  0  0  0  0  0  0  0  0  0  0  0
    7.1591  -12.1145   27.0562 S   0  0  0  0  0  0  0  0  0  0  0  0
    6.6910  -10.7685   25.9355 C   0  0  0  0  0  0  0  0  0  0  0  0
    8.2420  -14.2585   27.1077 O   0  0  0  0  0  0  0  0  0  0  0  0
    7.6726  -15.3712   26.9869 O   0  0  0  0  0  0  0  0  0  0  0  0
  1  2  1  0
  2  3  2  0
  4  5  1  0
  4  2  1  0
  6  7  1  0
  6  5  1  0
  7  8  1  0
  8 10  1  0
  8  9  1  6
 10 12  1  0
 11 10  2  0
 12 13  1  0
 13 14  1  0
 14 15  2  0
 14 16  1  0
 16 17  1  0
 17 20  1  0
 17 18  1  1
 18 19  1  0
 20 21  2  0
 20 22  1  0
M  END
$$$$
