RGC.pdb
     RDKit          3D

 22 21  0  0  1  0  0  0  0  0999 V2000
   10.0006  -12.3016   19.1978 N   0  0  0  0  0  0  0  0  0  0  0  0
    8.7616  -12.8275   19.6599 C   0  0  0  0  0  0  0  0  0  0  0  0
    7.9500  -12.1292   20.3509 N   0  0  0  0  0  0  0  0  0  0  0  0
    8.4661  -14.1778   19.3105 N   0  0  0  0  0  0  0  0  0  0  0  0
    7.2579  -14.8162   19.7216 C   0  0  0  0  0  0  0  0  0  0  0  0
    7.3173  -16.2810   19.2465 C   0  0  0  0  0  0  0  0  0  0  0  0
    6.9287  -17.1299   20.4225 C   0  0  0  0  0  0  0  0  0  0  0  0
    8.1112  -17.5072   21.2510 C   0  0  2  0  0  0  0  0  0  0  0  0
    8.5567  -18.8297   20.8002 N   0  0  0  0  0  0  0  0  0  0  0  0
    7.8793  -17.5077   22.7083 C   0  0  0  0  0  0  0  0  0  0  0  0
    7.5624  -18.5742   23.2781 O   0  0  0  0  0  0  0  0  0  0  0  0
    7.0468  -12.4129   20.7398 N   0  0  0  0  0  0  0  0  0  0  0  0
    8.0129  -16.3046   23.4798 C   0  0  0  0  0  0  0  0  0  0  0  0
    7.7812  -16.2934   24.9089 C   0  0  0  0  0  0  0  0  0  0  0  0
    9.0226  -15.8569   25.5985 O   0  0  0  0  0  0  0  0  0  0  0  0
   10.1013  -15.6797   24.9323 N   0  0  0  0  0  0  0  0  0  0  0  0
    9.0903  -15.6182   26.9871 C   0  0  1  0  0  0  0  0  0  0  0  0
   10.2426  -15.0626   27.6325 C   0  0  0  0  0  0  0  0  0  0  0  0
    9.8916  -13.9508   28.5980 S   0  0  0  0  0  0  0  0  0  0  0  0
    8.5975  -12.9574   27.8072 C   0  0  0  0  0  0  0  0  0  0  0  0
   11.0377  -16.0497   28.3674 O   0  0  0  0  0  0  0  0  0  0  0  0
   10.6205  -17.2275   28.4915 O   0  0  0  0  0  0  0  0  0  0  0  0
  1  2  1  0
  2  3  2  0
  4  5  1  0
  4  2  1  0
  6  7  1  0
  6  5  1  0
  7  8  1  0
  8 10  1  0
  8  9  1  6
 10 12  1  0
 11 10  2  0
 12 13  1  0
 13 14  1  0
 14 15  2  0
 14 16  1  0
 16 17  1  0
 17 20  1  0
 17 18  1  1
 18 19  1  0
 20 21  2  0
 20 22  1  0
M  END
$$$$
