RGC.pdb
     RDKit          3D

 22 21  0  0  1  0  0  0  0  0999 V2000
    7.8793  -11.7709   20.0161 N   0  0  0  0  0  0  0  0  0  0  0  0
    8.2647  -13.1074   19.7155 C   0  0  0  0  0  0  0  0  0  0  0  0
    9.4289  -13.3904   19.2813 N   0  0  0  0  0  0  0  0  0  0  0  0
    7.2852  -14.1218   19.9258 N   0  0  0  0  0  0  0  0  0  0  0  0
    7.5628  -15.2903   20.6963 C   0  0  0  0  0  0  0  0  0  0  0  0
    7.9361  -16.4195   19.7163 C   0  0  0  0  0  0  0  0  0  0  0  0
    8.2738  -17.6199   20.5528 C   0  0  0  0  0  0  0  0  0  0  0  0
    7.0675  -18.1880   21.2229 C   0  0  2  0  0  0  0  0  0  0  0  0
    5.9839  -18.2007   20.2348 N   0  0  0  0  0  0  0  0  0  0  0  0
    6.6430  -17.4839   22.4483 C   0  0  0  0  0  0  0  0  0  0  0  0
    5.4255  -17.2854   22.6504 O   0  0  0  0  0  0  0  0  0  0  0  0
    9.8141  -14.3137   19.0649 N   0  0  0  0  0  0  0  0  0  0  0  0
    7.6051  -17.0256   23.4100 C   0  0  0  0  0  0  0  0  0  0  0  0
    7.1964  -16.3706   24.6348 C   0  0  0  0  0  0  0  0  0  0  0  0
    8.4026  -16.0581   25.4439 O   0  0  0  0  0  0  0  0  0  0  0  0
    9.5480  -16.5100   25.0936 N   0  0  0  0  0  0  0  0  0  0  0  0
    8.3642  -15.2697   26.6129 C   0  0  1  0  0  0  0  0  0  0  0  0
    9.5350  -14.9149   27.3589 C   0  0  0  0  0  0  0  0  0  0  0  0
    9.2637  -13.8485   28.3986 S   0  0  0  0  0  0  0  0  0  0  0  0
   10.8664  -13.3901   29.1113 C   0  0  0  0  0  0  0  0  0  0  0  0
   10.1615  -16.0485   28.0436 O   0  0  0  0  0  0  0  0  0  0  0  0
    9.4532  -16.8760   28.6684 O   0  0  0  0  0  0  0  0  0  0  0  0
  1  2  1  0
  2  3  2  0
  4  5  1  0
  4  2  1  0
  6  7  1  0
  6  5  1  0
  7  8  1  0
  8 10  1  0
  8  9  1  6
 10 12  1  0
 11 10  2  0
 12 13  1  0
 13 14  1  0
 14 15  2  0
 14 16  1  0
 16 17  1  0
 17 20  1  0
 17 18  1  1
 18 19  1  0
 20 21  2  0
 20 22  1  0
M  END
$$$$
