RGC.pdb
     RDKit          3D

 22 21  0  0  1  0  0  0  0  0999 V2000
    8.4809  -11.8112   19.2618 N   0  0  0  0  0  0  0  0  0  0  0  0
    7.9903  -13.1463   19.2145 C   0  0  0  0  0  0  0  0  0  0  0  0
    8.3902  -13.9793   18.3370 N   0  0  0  0  0  0  0  0  0  0  0  0
    7.0279  -13.5129   20.2004 N   0  0  0  0  0  0  0  0  0  0  0  0
    6.3664  -14.7770   20.1752 C   0  0  0  0  0  0  0  0  0  0  0  0
    7.4253  -15.8650   20.4391 C   0  0  0  0  0  0  0  0  0  0  0  0
    7.5551  -15.9853   21.9303 C   0  0  0  0  0  0  0  0  0  0  0  0
    8.5533  -17.0241   22.3196 C   0  0  2  0  0  0  0  0  0  0  0  0
    7.8501  -18.3102   22.3665 N   0  0  0  0  0  0  0  0  0  0  0  0
    9.2552  -16.7708   23.5926 C   0  0  0  0  0  0  0  0  0  0  0  0
    8.5988  -16.7224   24.6553 O   0  0  0  0  0  0  0  0  0  0  0  0
    8.1418  -14.9681   18.2465 N   0  0  0  0  0  0  0  0  0  0  0  0
   10.6775  -16.5807   23.6290 C   0  0  0  0  0  0  0  0  0  0  0  0
   11.2638  -15.3546   24.1282 C   0  0  0  0  0  0  0  0  0  0  0  0
   11.5218  -15.4977   25.5842 O   0  0  0  0  0  0  0  0  0  0  0  0
   12.7231  -15.5567   26.0228 N   0  0  0  0  0  0  0  0  0  0  0  0
   10.4928  -15.5762   26.5459 C   0  0  1  0  0  0  0  0  0  0  0  0
   10.7246  -15.4557   27.9547 C   0  0  0  0  0  0  0  0  0  0  0  0
    9.7566  -14.5051   28.6263 S   0  0  0  0  0  0  0  0  0  0  0  0
    9.3178  -13.2469   27.3970 C   0  0  0  0  0  0  0  0  0  0  0  0
   10.6589  -16.7313   28.6724 O   0  0  0  0  0  0  0  0  0  0  0  0
   10.3142  -17.7765   28.0678 O   0  0  0  0  0  0  0  0  0  0  0  0
  1  2  1  0
  2  3  2  0
  4  5  1  0
  4  2  1  0
  6  7  1  0
  6  5  1  0
  7  8  1  0
  8 10  1  0
  8  9  1  1
 10 12  1  0
 11 10  2  0
 12 13  1  0
 13 14  1  0
 14 15  2  0
 14 16  1  0
 16 17  1  0
 17 20  1  0
 17 18  1  1
 18 19  1  0
 20 21  2  0
 20 22  1  0
M  END
$$$$
