PHR.pdb
     RDKit          3D

 29 30  0  0  1  0  0  0  0  0999 V2000
    9.1696  -19.0800   18.8885 N   0  0  0  0  0  0  0  0  0  0  0  0
    8.1239  -19.8539   18.2920 C   0  0  0  0  0  0  0  0  0  0  0  0
    7.4000  -18.9395   17.3073 C   0  0  0  0  0  0  0  0  0  0  0  0
    7.7833  -17.5584   17.8257 C   0  0  0  0  0  0  0  0  0  0  0  0
    9.2137  -17.7977   18.2601 C   0  0  1  0  0  0  0  0  0  0  0  0
    9.7133  -16.7279   19.1276 C   0  0  0  0  0  0  0  0  0  0  0  0
   10.6395  -15.9858   18.7167 O   0  0  0  0  0  0  0  0  0  0  0  0
    9.1795  -16.5033   20.4256 N   0  0  0  0  0  0  0  0  0  0  0  0
    9.6202  -15.4201   21.2763 C   0  0  1  0  0  0  0  0  0  0  0  0
    8.5716  -14.4261   21.6233 C   0  0  0  0  0  0  0  0  0  0  0  0
    7.9629  -13.7037   20.5016 C   0  0  0  0  0  0  0  0  0  0  0  0
    8.2335  -12.4627   19.9724 C   0  0  0  0  0  0  0  0  0  0  0  0
    7.3690  -12.2619   18.9374 N   0  0  0  0  0  0  0  0  0  0  0  0
    6.5842  -13.3272   18.8145 C   0  0  0  0  0  0  0  0  0  0  0  0
    6.9436  -14.1982   19.7602 N   0  0  0  0  0  0  0  0  0  0  0  0
   10.0495  -16.0475   22.5797 C   0  0  0  0  0  0  0  0  0  0  0  0
    9.2427  -16.7938   23.1685 O   0  0  0  0  0  0  0  0  0  0  0  0
   16.6106  -19.4148   21.0840 N   0  0  0  0  0  0  0  0  0  0  0  0
   15.9214  -20.6560   21.3099 C   0  0  0  0  0  0  0  0  0  0  0  0
   16.6118  -21.7295   21.4658 N   0  0  0  0  0  0  0  0  0  0  0  0
   14.5126  -20.7091   21.3621 N   0  0  0  0  0  0  0  0  0  0  0  0
   13.6978  -19.4945   21.1190 C   0  0  0  0  0  0  0  0  0  0  0  0
   13.3886  -18.8198   22.4026 C   0  0  0  0  0  0  0  0  0  0  0  0
   12.5823  -17.5967   22.3794 C   0  0  0  0  0  0  0  0  0  0  0  0
   12.1513  -16.9258   23.6075 C   0  0  2  0  0  0  0  0  0  0  0  0
   11.3163  -15.7741   23.0730 N   0  0  0  0  0  0  0  0  0  0  0  0
   13.0533  -16.3016   24.5299 C   0  0  0  0  0  0  0  0  0  0  0  0
   13.3115  -16.8862   25.6476 O   0  0  0  0  0  0  0  0  0  0  0  0
   13.7011  -15.1085   24.3349 O   0  0  0  0  0  0  0  0  0  0  0  0
  1  2  1  0
  3  2  1  0
  4  3  1  0
  5  4  1  0
  5  1  1  0
  5  6  1  1
  7  6  2  0
  8  6  1  0
  9  8  1  0
 10 11  1  0
  9 10  1  1
 11 15  1  0
 12 11  2  0
 12 13  1  0
 13 14  1  0
 15 14  2  0
 16  9  1  0
 16 17  2  0
 19 20  2  0
 19 18  1  0
 21 19  1  0
 22 21  1  0
 23 22  1  0
 24 23  1  0
 25 24  1  6
 25 26  1  0
 26 16  1  0
 27 25  1  0
 28 27  2  0
 29 27  1  0
M  END
$$$$
