PHR.pdb
     RDKit          3D

 29 30  0  0  1  0  0  0  0  0999 V2000
    8.8413  -15.0499   16.6645 N   0  0  0  0  0  0  0  0  0  0  0  0
    7.9378  -14.5847   15.6569 C   0  0  0  0  0  0  0  0  0  0  0  0
    7.9629  -13.0593   15.7068 C   0  0  0  0  0  0  0  0  0  0  0  0
    8.4982  -12.8027   17.1107 C   0  0  0  0  0  0  0  0  0  0  0  0
    9.5034  -13.9265   17.2483 C   0  0  1  0  0  0  0  0  0  0  0  0
    9.9113  -14.1346   18.6400 C   0  0  0  0  0  0  0  0  0  0  0  0
   10.5202  -13.2179   19.2453 O   0  0  0  0  0  0  0  0  0  0  0  0
    9.6379  -15.3473   19.3290 N   0  0  0  0  0  0  0  0  0  0  0  0
   10.0294  -15.5723   20.7028 C   0  0  1  0  0  0  0  0  0  0  0  0
    9.0929  -16.4115   21.4944 C   0  0  0  0  0  0  0  0  0  0  0  0
    7.6949  -15.9703   21.5302 C   0  0  0  0  0  0  0  0  0  0  0  0
    7.1423  -14.7397   21.8015 C   0  0  0  0  0  0  0  0  0  0  0  0
    5.7882  -14.8701   21.7101 N   0  0  0  0  0  0  0  0  0  0  0  0
    5.4935  -16.1271   21.3951 C   0  0  0  0  0  0  0  0  0  0  0  0
    6.6463  -16.7915   21.2866 N   0  0  0  0  0  0  0  0  0  0  0  0
   11.3336  -16.3297   20.6572 C   0  0  0  0  0  0  0  0  0  0  0  0
   11.3494  -17.4427   20.0955 O   0  0  0  0  0  0  0  0  0  0  0  0
   17.4680  -14.9986   16.4829 N   0  0  0  0  0  0  0  0  0  0  0  0
   17.7973  -13.8351   17.2603 C   0  0  0  0  0  0  0  0  0  0  0  0
   19.0079  -13.4018   17.2463 N   0  0  0  0  0  0  0  0  0  0  0  0
   16.8190  -13.1708   18.0296 N   0  0  0  0  0  0  0  0  0  0  0  0
   15.4190  -13.6579   18.0613 C   0  0  0  0  0  0  0  0  0  0  0  0
   15.2970  -14.8061   18.9917 C   0  0  0  0  0  0  0  0  0  0  0  0
   14.1024  -14.9068   19.8338 C   0  0  0  0  0  0  0  0  0  0  0  0
   13.8213  -16.0921   20.6463 C   0  0  2  0  0  0  0  0  0  0  0  0
   12.4598  -15.7658   21.2373 N   0  0  0  0  0  0  0  0  0  0  0  0
   14.6069  -16.4826   21.7796 C   0  0  0  0  0  0  0  0  0  0  0  0
   15.7560  -17.0307   21.5874 O   0  0  0  0  0  0  0  0  0  0  0  0
   14.2541  -16.3183   23.0948 O   0  0  0  0  0  0  0  0  0  0  0  0
  1  2  1  0
  3  2  1  0
  4  3  1  0
  5  4  1  0
  5  1  1  0
  5  6  1  1
  7  6  2  0
  8  6  1  0
  9  8  1  0
 10 11  1  0
  9 10  1  1
 11 15  1  0
 12 11  2  0
 12 13  1  0
 13 14  1  0
 15 14  2  0
 16  9  1  0
 16 17  2  0
 19 20  2  0
 19 18  1  0
 21 19  1  0
 22 21  1  0
 23 22  1  0
 24 23  1  0
 25 24  1  1
 25 26  1  0
 26 16  1  0
 27 25  1  0
 28 27  2  0
 29 27  1  0
M  END
$$$$
