PHR.pdb
     RDKit          3D

 29 30  0  0  1  0  0  0  0  0999 V2000
    8.3659  -13.0800   19.5858 N   0  0  0  0  0  0  0  0  0  0  0  0
    8.0198  -12.5251   18.3130 C   0  0  0  0  0  0  0  0  0  0  0  0
    7.4499  -13.6639   17.4713 C   0  0  0  0  0  0  0  0  0  0  0  0
    8.0152  -14.8885   18.1812 C   0  0  0  0  0  0  0  0  0  0  0  0
    7.9449  -14.4447   19.6269 C   0  0  1  0  0  0  0  0  0  0  0  0
    8.7577  -15.2911   20.5041 C   0  0  0  0  0  0  0  0  0  0  0  0
    8.4806  -16.5115   20.6094 O   0  0  0  0  0  0  0  0  0  0  0  0
    9.8550  -14.7710   21.2428 N   0  0  0  0  0  0  0  0  0  0  0  0
   10.7309  -15.6055   22.0351 C   0  0  1  0  0  0  0  0  0  0  0  0
   12.1690  -15.2351   21.9835 C   0  0  0  0  0  0  0  0  0  0  0  0
   12.8663  -15.5066   20.7223 C   0  0  0  0  0  0  0  0  0  0  0  0
   12.4317  -16.0988   19.5587 C   0  0  0  0  0  0  0  0  0  0  0  0
   13.4829  -16.1150   18.6906 N   0  0  0  0  0  0  0  0  0  0  0  0
   14.5381  -15.5584   19.2762 C   0  0  0  0  0  0  0  0  0  0  0  0
   14.1647  -15.1909   20.5041 N   0  0  0  0  0  0  0  0  0  0  0  0
   10.3048  -15.4296   23.4718 C   0  0  0  0  0  0  0  0  0  0  0  0
   10.3603  -14.2868   23.9674 O   0  0  0  0  0  0  0  0  0  0  0  0
    7.3551  -20.2074   23.3331 N   0  0  0  0  0  0  0  0  0  0  0  0
    6.4823  -20.7207   24.3536 C   0  0  0  0  0  0  0  0  0  0  0  0
    6.2918  -21.9903   24.4260 N   0  0  0  0  0  0  0  0  0  0  0  0
    5.8399  -19.8576   25.2660 N   0  0  0  0  0  0  0  0  0  0  0  0
    6.0766  -18.3946   25.2219 C   0  0  0  0  0  0  0  0  0  0  0  0
    7.5185  -18.1031   25.4073 C   0  0  0  0  0  0  0  0  0  0  0  0
    7.9505  -16.7054   25.4860 C   0  0  0  0  0  0  0  0  0  0  0  0
    9.3617  -16.3328   25.6026 C   0  0  2  0  0  0  0  0  0  0  0  0
    9.8700  -16.5364   24.1850 N   0  0  0  0  0  0  0  0  0  0  0  0
   10.3058  -17.0419   26.4149 C   0  0  0  0  0  0  0  0  0  0  0  0
   10.2493  -16.9181   27.6953 O   0  0  0  0  0  0  0  0  0  0  0  0
   11.2921  -17.8765   25.9547 O   0  0  0  0  0  0  0  0  0  0  0  0
  1  2  1  0
  3  2  1  0
  4  3  1  0
  5  4  1  0
  5  1  1  0
  5  6  1  1
  7  6  2  0
  8  6  1  0
  9  8  1  0
 10 11  1  0
  9 10  1  1
 11 15  1  0
 12 11  2  0
 12 13  1  0
 13 14  1  0
 15 14  2  0
 16  9  1  0
 16 17  2  0
 19 20  2  0
 19 18  1  0
 21 19  1  0
 22 21  1  0
 23 22  1  0
 24 23  1  0
 25 24  1  6
 25 26  1  0
 26 16  1  0
 27 25  1  0
 28 27  2  0
 29 27  1  0
M  END
$$$$
