PHR.pdb
     RDKit          3D

 29 30  0  0  1  0  0  0  0  0999 V2000
    8.2619  -13.0519   18.3815 N   0  0  0  0  0  0  0  0  0  0  0  0
    8.1865  -13.5868   17.0564 C   0  0  0  0  0  0  0  0  0  0  0  0
    7.4715  -14.9314   17.1593 C   0  0  0  0  0  0  0  0  0  0  0  0
    7.6707  -15.2780   18.6301 C   0  0  0  0  0  0  0  0  0  0  0  0
    7.5460  -13.9116   19.2701 C   0  0  1  0  0  0  0  0  0  0  0  0
    8.0512  -13.8982   20.6453 C   0  0  0  0  0  0  0  0  0  0  0  0
    9.2664  -13.6569   20.8511 O   0  0  0  0  0  0  0  0  0  0  0  0
    7.2044  -14.1511   21.7585 N   0  0  0  0  0  0  0  0  0  0  0  0
    7.6626  -14.0596   23.1271 C   0  0  1  0  0  0  0  0  0  0  0  0
    6.5988  -13.7952   24.1303 C   0  0  0  0  0  0  0  0  0  0  0  0
    7.0390  -13.6411   25.5206 C   0  0  0  0  0  0  0  0  0  0  0  0
    6.6341  -14.2759   26.6724 C   0  0  0  0  0  0  0  0  0  0  0  0
    7.3582  -13.7542   27.7031 N   0  0  0  0  0  0  0  0  0  0  0  0
    8.1858  -12.8295   27.2279 C   0  0  0  0  0  0  0  0  0  0  0  0
    7.9924  -12.7616   25.9087 N   0  0  0  0  0  0  0  0  0  0  0  0
    8.2403  -15.4092   23.4757 C   0  0  0  0  0  0  0  0  0  0  0  0
    7.5954  -16.4270   23.1553 O   0  0  0  0  0  0  0  0  0  0  0  0
   14.1587  -15.4734   21.3712 N   0  0  0  0  0  0  0  0  0  0  0  0
   13.2667  -14.8553   20.4283 C   0  0  0  0  0  0  0  0  0  0  0  0
   13.7461  -14.0195   19.5768 N   0  0  0  0  0  0  0  0  0  0  0  0
   11.8875  -15.1517   20.4265 N   0  0  0  0  0  0  0  0  0  0  0  0
   11.1491  -15.3353   21.6991 C   0  0  0  0  0  0  0  0  0  0  0  0
   11.5764  -16.5904   22.3629 C   0  0  0  0  0  0  0  0  0  0  0  0
   11.3916  -16.7203   23.8104 C   0  0  0  0  0  0  0  0  0  0  0  0
   10.0642  -16.8344   24.4179 C   0  0  2  0  0  0  0  0  0  0  0  0
    9.4588  -15.4696   24.1350 N   0  0  0  0  0  0  0  0  0  0  0  0
    9.8470  -17.0261   25.8215 C   0  0  0  0  0  0  0  0  0  0  0  0
   10.0651  -16.0475   26.6294 O   0  0  0  0  0  0  0  0  0  0  0  0
    9.4056  -18.1816   26.4141 O   0  0  0  0  0  0  0  0  0  0  0  0
  1  2  1  0
  3  2  1  0
  4  3  1  0
  5  4  1  0
  5  1  1  0
  5  6  1  1
  7  6  2  0
  8  6  1  0
  9  8  1  0
 10 11  1  0
  9 10  1  1
 11 15  1  0
 12 11  2  0
 12 13  1  0
 13 14  1  0
 15 14  2  0
 16  9  1  0
 16 17  2  0
 19 20  2  0
 19 18  1  0
 21 19  1  0
 22 21  1  0
 23 22  1  0
 24 23  1  0
 25 24  1  1
 25 26  1  0
 26 16  1  0
 27 25  1  0
 28 27  2  0
 29 27  1  0
M  END
$$$$
