PHR.pdb
     RDKit          3D

 29 30  0  0  1  0  0  0  0  0999 V2000
    8.4390  -19.3896   19.4362 N   0  0  0  0  0  0  0  0  0  0  0  0
    7.4261  -20.0124   18.6400 C   0  0  0  0  0  0  0  0  0  0  0  0
    7.2388  -19.1437   17.3990 C   0  0  0  0  0  0  0  0  0  0  0  0
    7.8076  -17.8086   17.8651 C   0  0  0  0  0  0  0  0  0  0  0  0
    8.9668  -18.2701   18.7226 C   0  0  1  0  0  0  0  0  0  0  0  0
    9.4744  -17.2008   19.5861 C   0  0  0  0  0  0  0  0  0  0  0  0
   10.6547  -16.7984   19.4364 O   0  0  0  0  0  0  0  0  0  0  0  0
    8.6685  -16.6024   20.5923 N   0  0  0  0  0  0  0  0  0  0  0  0
    9.1234  -15.4950   21.4035 C   0  0  1  0  0  0  0  0  0  0  0  0
    8.1866  -14.3440   21.4789 C   0  0  0  0  0  0  0  0  0  0  0  0
    7.9101  -13.6461   20.2191 C   0  0  0  0  0  0  0  0  0  0  0  0
    8.1919  -12.3606   19.8174 C   0  0  0  0  0  0  0  0  0  0  0  0
    7.7102  -12.2131   18.5505 N   0  0  0  0  0  0  0  0  0  0  0  0
    7.1474  -13.3534   18.1645 C   0  0  0  0  0  0  0  0  0  0  0  0
    7.2685  -14.2191   19.1735 N   0  0  0  0  0  0  0  0  0  0  0  0
    9.2535  -16.0214   22.8115 C   0  0  0  0  0  0  0  0  0  0  0  0
    8.2098  -16.2634   23.4491 O   0  0  0  0  0  0  0  0  0  0  0  0
   11.4894  -22.8410   24.0780 N   0  0  0  0  0  0  0  0  0  0  0  0
   12.6047  -22.6147   24.9562 C   0  0  0  0  0  0  0  0  0  0  0  0
   12.9166  -23.5242   25.8100 N   0  0  0  0  0  0  0  0  0  0  0  0
   13.3525  -21.4201   24.8928 N   0  0  0  0  0  0  0  0  0  0  0  0
   12.9701  -20.3341   23.9587 C   0  0  0  0  0  0  0  0  0  0  0  0
   12.0637  -19.3738   24.6332 C   0  0  0  0  0  0  0  0  0  0  0  0
   11.6272  -18.1828   23.9000 C   0  0  0  0  0  0  0  0  0  0  0  0
   10.6863  -17.2182   24.4730 C   0  0  2  0  0  0  0  0  0  0  0  0
   10.5195  -16.2160   23.3428 N   0  0  0  0  0  0  0  0  0  0  0  0
   10.9798  -16.4057   25.6166 C   0  0  0  0  0  0  0  0  0  0  0  0
   11.5699  -15.2740   25.4471 O   0  0  0  0  0  0  0  0  0  0  0  0
   10.6776  -16.7144   26.9183 O   0  0  0  0  0  0  0  0  0  0  0  0
  1  2  1  0
  3  2  1  0
  4  3  1  0
  5  4  1  0
  5  1  1  0
  5  6  1  1
  7  6  2  0
  8  6  1  0
  9  8  1  0
 10 11  1  0
  9 10  1  1
 11 15  1  0
 12 11  2  0
 12 13  1  0
 13 14  1  0
 15 14  2  0
 16  9  1  0
 16 17  2  0
 19 20  2  0
 19 18  1  0
 21 19  1  0
 22 21  1  0
 23 22  1  0
 24 23  1  0
 25 24  1  6
 25 26  1  0
 26 16  1  0
 27 25  1  0
 28 27  2  0
 29 27  1  0
M  END
$$$$
