PHR.pdb
     RDKit          3D

 29 30  0  0  1  0  0  0  0  0999 V2000
    8.3637  -18.5041   18.7072 N   0  0  0  0  0  0  0  0  0  0  0  0
    7.4691  -18.9024   17.6637 C   0  0  0  0  0  0  0  0  0  0  0  0
    7.8894  -18.1478   16.4052 C   0  0  0  0  0  0  0  0  0  0  0  0
    8.6753  -16.9802   16.9903 C   0  0  0  0  0  0  0  0  0  0  0  0
    9.3695  -17.6523   18.1558 C   0  0  1  0  0  0  0  0  0  0  0  0
    9.9134  -16.6812   19.1086 C   0  0  0  0  0  0  0  0  0  0  0  0
   10.8764  -15.9534   18.7618 O   0  0  0  0  0  0  0  0  0  0  0  0
    9.3822  -16.5370   20.4190 N   0  0  0  0  0  0  0  0  0  0  0  0
    9.8135  -15.4987   21.3284 C   0  0  1  0  0  0  0  0  0  0  0  0
    8.7530  -14.5429   21.7405 C   0  0  0  0  0  0  0  0  0  0  0  0
    8.0480  -13.8469   20.6592 C   0  0  0  0  0  0  0  0  0  0  0  0
    8.0653  -12.5266   20.2720 C   0  0  0  0  0  0  0  0  0  0  0  0
    7.2200  -12.4006   19.2098 N   0  0  0  0  0  0  0  0  0  0  0  0
    6.6892  -13.5874   18.9343 C   0  0  0  0  0  0  0  0  0  0  0  0
    7.1901  -14.4611   19.8107 N   0  0  0  0  0  0  0  0  0  0  0  0
   10.2627  -16.1944   22.5897 C   0  0  0  0  0  0  0  0  0  0  0  0
    9.3915  -16.6856   23.3341 O   0  0  0  0  0  0  0  0  0  0  0  0
   11.1114  -20.2105   19.6872 N   0  0  0  0  0  0  0  0  0  0  0  0
   11.0920  -21.4140   20.4732 C   0  0  0  0  0  0  0  0  0  0  0  0
   10.3250  -22.3800   20.1099 N   0  0  0  0  0  0  0  0  0  0  0  0
   11.8956  -21.5459   21.6251 N   0  0  0  0  0  0  0  0  0  0  0  0
   12.8015  -20.4510   22.0480 C   0  0  0  0  0  0  0  0  0  0  0  0
   12.0438  -19.4197   22.7969 C   0  0  0  0  0  0  0  0  0  0  0  0
   12.7600  -18.2433   23.2965 C   0  0  0  0  0  0  0  0  0  0  0  0
   12.0772  -17.1620   24.0099 C   0  0  2  0  0  0  0  0  0  0  0  0
   11.6182  -16.2624   22.8744 N   0  0  0  0  0  0  0  0  0  0  0  0
   12.7362  -16.2682   24.9159 C   0  0  0  0  0  0  0  0  0  0  0  0
   12.9374  -16.6428   26.1312 O   0  0  0  0  0  0  0  0  0  0  0  0
   13.2006  -15.0145   24.6098 O   0  0  0  0  0  0  0  0  0  0  0  0
  1  2  1  0
  3  2  1  0
  4  3  1  0
  5  4  1  0
  5  1  1  0
  5  6  1  1
  7  6  2  0
  8  6  1  0
  9  8  1  0
 10 11  1  0
  9 10  1  1
 11 15  1  0
 12 11  2  0
 12 13  1  0
 13 14  1  0
 15 14  2  0
 16  9  1  0
 16 17  2  0
 19 20  2  0
 19 18  1  0
 21 19  1  0
 22 21  1  0
 23 22  1  0
 24 23  1  0
 25 24  1  6
 25 26  1  0
 26 16  1  0
 27 25  1  0
 28 27  2  0
 29 27  1  0
M  END
$$$$
