PHR.pdb
     RDKit          3D

 29 30  0  0  1  0  0  0  0  0999 V2000
    7.7322  -15.1169   19.1605 N   0  0  0  0  0  0  0  0  0  0  0  0
    6.9933  -14.6669   18.0205 C   0  0  0  0  0  0  0  0  0  0  0  0
    7.2399  -13.1658   17.8947 C   0  0  0  0  0  0  0  0  0  0  0  0
    7.6905  -12.8051   19.3054 C   0  0  0  0  0  0  0  0  0  0  0  0
    8.5033  -14.0285   19.6725 C   0  0  1  0  0  0  0  0  0  0  0  0
    8.7604  -14.1084   21.1128 C   0  0  0  0  0  0  0  0  0  0  0  0
    9.9217  -14.3650   21.5162 O   0  0  0  0  0  0  0  0  0  0  0  0
    7.7313  -13.9035   22.0714 N   0  0  0  0  0  0  0  0  0  0  0  0
    7.9905  -13.8171   23.4915 C   0  0  1  0  0  0  0  0  0  0  0  0
    6.8684  -13.2802   24.3043 C   0  0  0  0  0  0  0  0  0  0  0  0
    7.1513  -13.0335   25.7219 C   0  0  0  0  0  0  0  0  0  0  0  0
    7.6351  -11.9181   26.3661 C   0  0  0  0  0  0  0  0  0  0  0  0
    7.7221  -12.2177   27.6934 N   0  0  0  0  0  0  0  0  0  0  0  0
    7.3122  -13.4674   27.8840 C   0  0  0  0  0  0  0  0  0  0  0  0
    6.9673  -13.9599   26.6921 N   0  0  0  0  0  0  0  0  0  0  0  0
    8.2163  -15.2296   23.9716 C   0  0  0  0  0  0  0  0  0  0  0  0
    7.4353  -16.1180   23.5776 O   0  0  0  0  0  0  0  0  0  0  0  0
   15.3130  -21.3786   24.7968 N   0  0  0  0  0  0  0  0  0  0  0  0
   14.4735  -20.5932   23.9337 C   0  0  0  0  0  0  0  0  0  0  0  0
   14.9091  -20.2744   22.7667 N   0  0  0  0  0  0  0  0  0  0  0  0
   13.1920  -20.1731   24.3476 N   0  0  0  0  0  0  0  0  0  0  0  0
   12.7243  -18.7911   24.0833 C   0  0  0  0  0  0  0  0  0  0  0  0
   11.4561  -18.5323   24.8068 C   0  0  0  0  0  0  0  0  0  0  0  0
   10.7918  -17.2394   24.6240 C   0  0  0  0  0  0  0  0  0  0  0  0
    9.5179  -16.9210   25.2719 C   0  0  2  0  0  0  0  0  0  0  0  0
    9.2763  -15.4880   24.8275 N   0  0  0  0  0  0  0  0  0  0  0  0
    9.3386  -16.8784   26.6932 C   0  0  0  0  0  0  0  0  0  0  0  0
    9.4099  -15.7453   27.3007 O   0  0  0  0  0  0  0  0  0  0  0  0
    9.0798  -17.9558   27.5014 O   0  0  0  0  0  0  0  0  0  0  0  0
  1  2  1  0
  3  2  1  0
  4  3  1  0
  5  4  1  0
  5  1  1  0
  5  6  1  1
  7  6  2  0
  8  6  1  0
  9  8  1  0
 10 11  1  0
  9 10  1  1
 11 15  1  0
 12 11  2  0
 12 13  1  0
 13 14  1  0
 15 14  2  0
 16  9  1  0
 16 17  2  0
 19 20  2  0
 19 18  1  0
 21 19  1  0
 22 21  1  0
 23 22  1  0
 24 23  1  0
 25 24  1  1
 25 26  1  0
 26 16  1  0
 27 25  1  0
 28 27  2  0
 29 27  1  0
M  END
$$$$
