RQV.pdb
     RDKit          3D

 28 27  0  0  1  0  0  0  0  0999 V2000
    7.4667  -13.6112   17.1662 N   0  0  0  0  0  0  0  0  0  0  0  0
    8.4131  -13.4473   18.2106 C   0  0  0  0  0  0  0  0  0  0  0  0
    8.6068  -12.3029   18.7392 N   0  0  0  0  0  0  0  0  0  0  0  0
    9.1563  -14.5825   18.6725 N   0  0  0  0  0  0  0  0  0  0  0  0
    8.8102  -15.9135   18.2989 C   0  0  0  0  0  0  0  0  0  0  0  0
    7.8952  -16.7115   19.1054 C   0  0  0  0  0  0  0  0  0  0  0  0
    8.1324  -17.0960   20.4997 C   0  0  0  0  0  0  0  0  0  0  0  0
    7.1011  -17.9125   21.1443 C   0  0  2  0  0  0  0  0  0  0  0  0
    5.9371  -18.0840   20.3715 N   0  0  0  0  0  0  0  0  0  0  0  0
    6.7151  -17.3964   22.5063 C   0  0  0  0  0  0  0  0  0  0  0  0
    5.6412  -16.7492   22.6147 O   0  0  0  0  0  0  0  0  0  0  0  0
    9.3133  -12.1998   19.4957 N   0  0  0  0  0  0  0  0  0  0  0  0
    8.4543  -20.5319   25.6112 C   0  0  0  0  0  0  0  0  0  0  0  0
    7.0521  -20.4995   25.5005 O   0  0  0  0  0  0  0  0  0  0  0  0
    6.4326  -21.5593   25.2612 C   0  0  0  0  0  0  0  0  0  0  0  0
    6.3222  -19.2457   25.6619 C   0  0  0  0  0  0  0  0  0  0  0  0
    7.2772  -18.1261   26.0349 C   0  0  2  0  0  0  0  0  0  0  0  0
    7.1560  -17.0699   24.9611 N   0  0  0  0  0  0  0  0  0  0  0  0
    7.4809  -17.5932   23.6650 C   0  0  0  0  0  0  0  0  0  0  0  0
    7.9765  -15.9174   25.3598 O   0  0  0  0  0  0  0  0  0  0  0  0
    9.2175  -15.8185   25.1800 C   0  0  0  0  0  0  0  0  0  0  0  0
    6.6528  -12.0575   25.4932 C   0  0  2  0  0  0  0  0  0  0  0  0
    7.2097  -12.5449   26.7958 C   0  0  0  0  0  0  0  0  0  0  0  0
    6.0445  -12.9331   27.6808 C   0  0  2  0  0  0  0  0  0  0  0  0
    8.1389  -13.7402   26.5699 N   0  0  0  0  0  0  0  0  0  0  0  0
    7.3273  -14.8240   25.9988 C   0  0  0  0  0  0  0  0  0  0  0  0
    8.7100  -14.1269   27.8676 O   0  0  0  0  0  0  0  0  0  0  0  0
    8.2977  -15.1529   28.4412 O   0  0  0  0  0  0  0  0  0  0  0  0
  2  1  1  0
  3  2  2  0
  4  2  1  0
  5  4  1  0
  6  5  1  0
  7  6  1  0
  8  7  1  0
  8  9  1  6
 10  8  1  0
 10 18  1  0
 11 10  2  0
 13 12  1  0
 14 13  2  0
 15 13  1  0
 16 15  1  0
 17 16  1  6
 17 18  1  0
 19 17  1  0
 20 19  2  0
 22 21  1  1
 22 23  1  0
 22 24  1  0
 24 26  1  0
 24 25  1  1
 25 19  1  0
 26 28  1  0
 27 26  2  0
M  END
$$$$
