RQV.pdb
     RDKit          3D

 28 27  0  0  1  0  0  0  0  0999 V2000
    7.4556  -13.6485   15.5027 N   0  0  0  0  0  0  0  0  0  0  0  0
    8.3424  -14.6963   15.8619 C   0  0  0  0  0  0  0  0  0  0  0  0
    8.6262  -15.6217   15.0313 N   0  0  0  0  0  0  0  0  0  0  0  0
    8.9223  -14.7103   17.1725 N   0  0  0  0  0  0  0  0  0  0  0  0
    8.3940  -13.9270   18.2395 C   0  0  0  0  0  0  0  0  0  0  0  0
    7.0765  -14.2018   18.7989 C   0  0  0  0  0  0  0  0  0  0  0  0
    6.8174  -14.5094   20.2083 C   0  0  0  0  0  0  0  0  0  0  0  0
    7.7685  -15.4018   20.8752 C   0  0  2  0  0  0  0  0  0  0  0  0
    7.7762  -16.7154   20.3695 N   0  0  0  0  0  0  0  0  0  0  0  0
    7.5736  -15.4513   22.3686 C   0  0  0  0  0  0  0  0  0  0  0  0
    7.3332  -14.3739   22.9730 O   0  0  0  0  0  0  0  0  0  0  0  0
    9.3716  -16.3090   15.2636 N   0  0  0  0  0  0  0  0  0  0  0  0
    6.3651  -21.3316   23.9775 C   0  0  0  0  0  0  0  0  0  0  0  0
    6.4929  -20.2748   24.8975 O   0  0  0  0  0  0  0  0  0  0  0  0
    6.6313  -20.5350   26.1129 C   0  0  0  0  0  0  0  0  0  0  0  0
    6.4651  -18.8873   24.4447 C   0  0  0  0  0  0  0  0  0  0  0  0
    7.6116  -18.1093   25.0649 C   0  0  2  0  0  0  0  0  0  0  0  0
    7.5048  -16.6903   24.5565 N   0  0  0  0  0  0  0  0  0  0  0  0
    7.6438  -16.6276   23.1296 C   0  0  0  0  0  0  0  0  0  0  0  0
    8.4820  -15.8694   25.2856 O   0  0  0  0  0  0  0  0  0  0  0  0
    9.6946  -15.7452   24.9753 C   0  0  0  0  0  0  0  0  0  0  0  0
    7.5924  -12.2921   26.2419 C   0  0  2  0  0  0  0  0  0  0  0  0
    8.1151  -12.9741   27.4691 C   0  0  0  0  0  0  0  0  0  0  0  0
    6.9274  -13.3678   28.3211 C   0  0  2  0  0  0  0  0  0  0  0  0
    8.9405  -14.2061   27.0895 N   0  0  0  0  0  0  0  0  0  0  0  0
    8.0324  -15.1561   26.4321 C   0  0  0  0  0  0  0  0  0  0  0  0
    9.5075  -14.7735   28.3209 O   0  0  0  0  0  0  0  0  0  0  0  0
    9.0491  -15.8383   28.7768 O   0  0  0  0  0  0  0  0  0  0  0  0
  2  1  1  0
  3  2  2  0
  4  2  1  0
  5  4  1  0
  6  5  1  0
  7  6  1  0
  8  7  1  0
  8  9  1  6
 10  8  1  0
 10 18  1  0
 11 10  2  0
 13 12  1  0
 14 13  2  0
 15 13  1  0
 16 15  1  0
 17 16  1  6
 17 18  1  0
 19 17  1  0
 20 19  2  0
 22 21  1  1
 22 23  1  0
 22 24  1  0
 24 26  1  0
 24 25  1  1
 25 19  1  0
 26 28  1  0
 27 26  2  0
M  END
$$$$
