RQV.pdb
     RDKit          3D

 28 27  0  0  1  0  0  0  0  0999 V2000
    7.7947  -13.3433   15.6173 N   0  0  0  0  0  0  0  0  0  0  0  0
    8.6738  -14.3201   16.1526 C   0  0  0  0  0  0  0  0  0  0  0  0
    9.1592  -15.2356   15.4091 N   0  0  0  0  0  0  0  0  0  0  0  0
    9.0163  -14.2730   17.5435 N   0  0  0  0  0  0  0  0  0  0  0  0
    8.2738  -13.4932   18.4773 C   0  0  0  0  0  0  0  0  0  0  0  0
    6.9781  -13.9394   18.9736 C   0  0  0  0  0  0  0  0  0  0  0  0
    6.7425  -14.4873   20.3124 C   0  0  0  0  0  0  0  0  0  0  0  0
    7.0521  -15.9054   20.5097 C   0  0  2  0  0  0  0  0  0  0  0  0
    6.0383  -16.7809   20.0771 N   0  0  0  0  0  0  0  0  0  0  0  0
    7.4074  -16.2321   21.9371 C   0  0  0  0  0  0  0  0  0  0  0  0
    6.4857  -16.6034   22.7094 O   0  0  0  0  0  0  0  0  0  0  0  0
    9.8028  -15.9424   15.8191 N   0  0  0  0  0  0  0  0  0  0  0  0
   12.2891  -19.1036   24.3586 C   0  0  0  0  0  0  0  0  0  0  0  0
   11.5093  -18.7439   25.4731 O   0  0  0  0  0  0  0  0  0  0  0  0
   11.7808  -19.2309   26.5926 C   0  0  0  0  0  0  0  0  0  0  0  0
   10.3940  -17.8128   25.3310 C   0  0  0  0  0  0  0  0  0  0  0  0
   10.2634  -17.3662   23.8861 C   0  0  2  0  0  0  0  0  0  0  0  0
    9.0645  -16.4489   23.8170 N   0  0  0  0  0  0  0  0  0  0  0  0
    8.7062  -16.1476   22.4605 C   0  0  0  0  0  0  0  0  0  0  0  0
    9.3509  -15.2612   24.6341 O   0  0  0  0  0  0  0  0  0  0  0  0
    9.7753  -14.1641   24.1887 C   0  0  0  0  0  0  0  0  0  0  0  0
    8.0675  -12.0636   27.5049 C   0  0  2  0  0  0  0  0  0  0  0  0
    8.0591  -13.2574   26.5997 C   0  0  0  0  0  0  0  0  0  0  0  0
    8.0611  -12.7552   25.1716 C   0  0  1  0  0  0  0  0  0  0  0  0
    9.2806  -14.1413   26.8639 N   0  0  0  0  0  0  0  0  0  0  0  0
    9.1348  -15.3480   26.0381 C   0  0  0  0  0  0  0  0  0  0  0  0
    9.3039  -14.4729   28.2954 O   0  0  0  0  0  0  0  0  0  0  0  0
    8.7588  -15.5195   28.6945 O   0  0  0  0  0  0  0  0  0  0  0  0
  2  1  1  0
  3  2  2  0
  4  2  1  0
  5  4  1  0
  6  5  1  0
  7  6  1  0
  8  7  1  0
  8  9  1  1
 10  8  1  0
 10 18  1  0
 11 10  2  0
 13 12  1  0
 14 13  2  0
 15 13  1  0
 16 15  1  0
 17 16  1  6
 17 18  1  0
 19 17  1  0
 20 19  2  0
 22 21  1  1
 22 23  1  0
 22 24  1  0
 24 26  1  0
 24 25  1  1
 25 19  1  0
 26 28  1  0
 27 26  2  0
M  END
$$$$
