RQV.pdb
     RDKit          3D

 28 27  0  0  1  0  0  0  0  0999 V2000
    9.5990  -12.9317   18.0286 N   0  0  0  0  0  0  0  0  0  0  0  0
    8.2032  -12.6767   18.0149 C   0  0  0  0  0  0  0  0  0  0  0  0
    7.7587  -11.5021   17.7929 N   0  0  0  0  0  0  0  0  0  0  0  0
    7.2879  -13.7535   18.2536 N   0  0  0  0  0  0  0  0  0  0  0  0
    7.5735  -14.7938   19.1850 C   0  0  0  0  0  0  0  0  0  0  0  0
    7.1118  -14.7205   20.5655 C   0  0  0  0  0  0  0  0  0  0  0  0
    7.3699  -15.7409   21.5855 C   0  0  0  0  0  0  0  0  0  0  0  0
    8.7720  -16.0791   21.8415 C   0  0  2  0  0  0  0  0  0  0  0  0
    9.2939  -17.0602   20.9775 N   0  0  0  0  0  0  0  0  0  0  0  0
    9.0203  -16.4977   23.2676 C   0  0  0  0  0  0  0  0  0  0  0  0
    8.5334  -15.7911   24.1882 O   0  0  0  0  0  0  0  0  0  0  0  0
    6.7363  -11.3203   17.8529 N   0  0  0  0  0  0  0  0  0  0  0  0
   11.8937  -21.8549   24.3602 C   0  0  0  0  0  0  0  0  0  0  0  0
   10.5608  -21.5564   24.0230 O   0  0  0  0  0  0  0  0  0  0  0  0
    9.9935  -22.2187   23.1265 C   0  0  0  0  0  0  0  0  0  0  0  0
    9.8421  -20.4864   24.7083 C   0  0  0  0  0  0  0  0  0  0  0  0
   10.7868  -19.3434   25.0333 C   0  0  2  0  0  0  0  0  0  0  0  0
    9.9711  -18.0723   24.9832 N   0  0  0  0  0  0  0  0  0  0  0  0
    9.7630  -17.6299   23.6340 C   0  0  0  0  0  0  0  0  0  0  0  0
   10.6267  -17.0752   25.8414 O   0  0  0  0  0  0  0  0  0  0  0  0
   11.7188  -16.5073   25.5831 C   0  0  0  0  0  0  0  0  0  0  0  0
   10.2821  -13.5783   29.0962 C   0  0  2  0  0  0  0  0  0  0  0  0
    9.7172  -14.5586   28.1142 C   0  0  0  0  0  0  0  0  0  0  0  0
    9.5559  -13.8451   26.7889 C   0  0  1  0  0  0  0  0  0  0  0  0
   10.6441  -15.7681   27.9679 N   0  0  0  0  0  0  0  0  0  0  0  0
    9.9851  -16.7176   27.0603 C   0  0  0  0  0  0  0  0  0  0  0  0
   10.8447  -16.3540   29.3007 O   0  0  0  0  0  0  0  0  0  0  0  0
   10.1648  -17.3375   29.6502 O   0  0  0  0  0  0  0  0  0  0  0  0
  2  1  1  0
  3  2  2  0
  4  2  1  0
  5  4  1  0
  6  5  1  0
  7  6  1  0
  8  7  1  0
  8  9  1  6
 10  8  1  0
 10 18  1  0
 11 10  2  0
 13 12  1  0
 14 13  2  0
 15 13  1  0
 16 15  1  0
 17 16  1  6
 17 18  1  0
 19 17  1  0
 20 19  2  0
 22 21  1  1
 22 23  1  0
 22 24  1  0
 24 26  1  0
 24 25  1  1
 25 19  1  0
 26 28  1  0
 27 26  2  0
M  END
$$$$
