TRA.pdb
     RDKit          3D

 24 23  0  0  1  0  0  0  0  0999 V2000
   32.2402  -23.4005  -11.0155 C   0  0  0  0  0  0  0  0  0  0  0  0
   30.9216  -22.6755  -11.1950 C   0  0  1  0  0  0  0  0  0  0  0  0
   30.0280  -23.0205  -10.2035 O   0  0  0  0  0  0  0  0  0  0  0  0
   31.0968  -21.2005  -11.4001 C   0  0  2  0  0  0  0  0  0  0  0  0
   31.7946  -20.6680  -10.2505 N   0  0  0  0  0  0  0  0  0  0  0  0
   29.8230  -20.5027  -11.6985 C   0  0  0  0  0  0  0  0  0  0  0  0
   29.1963  -20.0304  -10.7318 O   0  0  0  0  0  0  0  0  0  0  0  0
   23.6385  -19.9981  -16.5721 N   0  0  0  0  0  0  0  0  0  0  0  0
   23.6318  -18.5583  -16.5767 C   0  0  0  0  0  0  0  0  0  0  0  0
   22.5330  -17.9009  -16.6267 N   0  0  0  0  0  0  0  0  0  0  0  0
   24.8678  -17.8412  -16.5252 N   0  0  0  0  0  0  0  0  0  0  0  0
   26.1311  -18.5405  -16.3854 C   0  0  0  0  0  0  0  0  0  0  0  0
   26.4465  -18.7638  -14.8998 C   0  0  0  0  0  0  0  0  0  0  0  0
   27.8083  -19.4093  -14.7515 C   0  0  0  0  0  0  0  0  0  0  0  0
   28.0538  -19.6850  -13.3212 C   0  0  2  0  0  0  0  0  0  0  0  0
   29.2719  -20.3335  -12.9743 N   0  0  0  0  0  0  0  0  0  0  0  0
   26.9320  -20.4824  -12.7704 C   0  0  0  0  0  0  0  0  0  0  0  0
   26.8016  -21.6640  -13.2266 O   0  0  0  0  0  0  0  0  0  0  0  0
   22.5452  -16.8733  -16.5711 C   0  0  0  0  0  0  0  0  0  0  0  0
   24.6414  -20.6977   -9.8981 C   0  0  1  0  0  0  0  0  0  0  0  0
   24.9286  -20.8651  -11.3889 N   0  0  0  0  0  0  0  0  0  0  0  0
   26.0280  -20.0030  -11.7910 C   0  0  0  0  0  0  0  0  0  0  0  0
   23.7158  -20.4496  -12.1505 O   0  0  0  0  0  0  0  0  0  0  0  0
   23.7399  -19.4013  -12.8801 O   0  0  0  0  0  0  0  0  0  0  0  0
  2  1  1  1
  2  3  1  0
  4  2  1  0
  4  6  1  0
  4  5  1  1
  6  7  2  0
  8  9  1  0
  9 11  1  0
 10  9  2  0
 11 12  1  0
 12 13  1  0
 13 14  1  0
 15 14  1  6
 16  6  1  0
 16 15  1  0
 17 21  1  0
 17 15  1  0
 18 17  2  0
 20 21  1  0
 20 19  1  1
 22 20  1  0
 22 24  1  0
 23 22  2  0
M  END
$$$$
