TRA.pdb
     RDKit          3D

 24 23  0  0  1  0  0  0  0  0999 V2000
   16.2677  -10.0539  -14.1211 C   0  0  0  0  0  0  0  0  0  0  0  0
   17.4614   -9.1728  -14.4297 C   0  0  1  0  0  0  0  0  0  0  0  0
   17.0599   -7.9071  -14.8005 O   0  0  0  0  0  0  0  0  0  0  0  0
   18.5029   -9.2130  -13.3517 C   0  0  2  0  0  0  0  0  0  0  0  0
   17.9137   -8.6880  -12.1395 N   0  0  0  0  0  0  0  0  0  0  0  0
   19.7644   -8.5377  -13.7407 C   0  0  0  0  0  0  0  0  0  0  0  0
   19.9164   -7.3611  -13.3628 O   0  0  0  0  0  0  0  0  0  0  0  0
   25.8867  -13.8758  -15.6004 N   0  0  0  0  0  0  0  0  0  0  0  0
   24.4960  -14.1042  -15.8954 C   0  0  0  0  0  0  0  0  0  0  0  0
   24.0471  -15.2872  -16.0981 N   0  0  0  0  0  0  0  0  0  0  0  0
   23.5930  -12.9977  -15.9659 N   0  0  0  0  0  0  0  0  0  0  0  0
   23.9963  -11.6760  -15.5247 C   0  0  0  0  0  0  0  0  0  0  0  0
   22.7940  -10.7222  -15.5552 C   0  0  0  0  0  0  0  0  0  0  0  0
   23.2016   -9.3592  -15.0360 C   0  0  0  0  0  0  0  0  0  0  0  0
   22.0000   -8.5058  -14.9376 C   0  0  2  0  0  0  0  0  0  0  0  0
   20.7928   -9.1151  -14.4949 N   0  0  0  0  0  0  0  0  0  0  0  0
   21.7402   -7.8627  -16.2478 C   0  0  0  0  0  0  0  0  0  0  0  0
   21.0244   -8.5223  -17.0687 O   0  0  0  0  0  0  0  0  0  0  0  0
   23.0537  -15.4283  -16.3269 C   0  0  0  0  0  0  0  0  0  0  0  0
   22.2828   -4.6356  -18.0892 C   0  0  1  0  0  0  0  0  0  0  0  0
   22.0363   -6.1392  -17.9829 N   0  0  0  0  0  0  0  0  0  0  0  0
   22.2374   -6.5882  -16.6149 C   0  0  0  0  0  0  0  0  0  0  0  0
   23.0285   -6.8402  -18.8477 O   0  0  0  0  0  0  0  0  0  0  0  0
   24.0033   -7.4787  -18.3243 O   0  0  0  0  0  0  0  0  0  0  0  0
  2  1  1  1
  2  3  1  0
  4  2  1  0
  4  6  1  0
  4  5  1  1
  6  7  2  0
  8  9  1  0
  9 11  1  0
 10  9  2  0
 11 12  1  0
 12 13  1  0
 13 14  1  0
 15 14  1  6
 16  6  1  0
 16 15  1  0
 17 21  1  0
 17 15  1  0
 18 17  2  0
 20 21  1  0
 20 19  1  1
 22 20  1  0
 22 24  1  0
 23 22  2  0
M  END
$$$$
