TRA.pdb
     RDKit          3D

 24 23  0  0  1  0  0  0  0  0999 V2000
   12.0975  -10.5331  -10.9994 C   0  0  0  0  0  0  0  0  0  0  0  0
   12.7256  -11.9122  -10.9918 C   0  0  1  0  0  0  0  0  0  0  0  0
   11.7852  -12.8860  -11.2525 O   0  0  0  0  0  0  0  0  0  0  0  0
   13.9623  -11.9882  -11.8364 C   0  0  2  0  0  0  0  0  0  0  0  0
   14.4256  -13.3583  -11.8304 N   0  0  0  0  0  0  0  0  0  0  0  0
   14.9992  -11.0079  -11.4333 C   0  0  0  0  0  0  0  0  0  0  0  0
   15.7358  -11.3228  -10.4801 O   0  0  0  0  0  0  0  0  0  0  0  0
   21.2187  -10.0043  -14.9639 N   0  0  0  0  0  0  0  0  0  0  0  0
   21.5763   -9.3451  -13.7348 C   0  0  0  0  0  0  0  0  0  0  0  0
   22.7859   -9.3427  -13.3117 N   0  0  0  0  0  0  0  0  0  0  0  0
   20.5709   -8.6794  -12.9661 N   0  0  0  0  0  0  0  0  0  0  0  0
   19.1797   -8.7040  -13.3762 C   0  0  0  0  0  0  0  0  0  0  0  0
   18.3218   -7.9230  -12.3712 C   0  0  0  0  0  0  0  0  0  0  0  0
   16.8575   -8.0418  -12.7387 C   0  0  0  0  0  0  0  0  0  0  0  0
   16.1498   -8.7591  -11.6586 C   0  0  2  0  0  0  0  0  0  0  0  0
   15.2147   -9.7629  -12.0361 N   0  0  0  0  0  0  0  0  0  0  0  0
   15.4533   -7.7819  -10.7881 C   0  0  0  0  0  0  0  0  0  0  0  0
   14.3489   -7.3231  -11.2250 O   0  0  0  0  0  0  0  0  0  0  0  0
   23.0136   -8.9086  -12.4067 C   0  0  0  0  0  0  0  0  0  0  0  0
   15.5912   -6.4108   -7.3011 C   0  0  1  0  0  0  0  0  0  0  0  0
   15.1414   -6.4178   -8.7607 N   0  0  0  0  0  0  0  0  0  0  0  0
   15.9467   -7.3501   -9.5325 C   0  0  0  0  0  0  0  0  0  0  0  0
   15.3514   -5.0530   -9.3235 O   0  0  0  0  0  0  0  0  0  0  0  0
   16.3394   -4.8199  -10.0991 O   0  0  0  0  0  0  0  0  0  0  0  0
  2  1  1  6
  2  3  1  0
  4  2  1  0
  4  6  1  0
  4  5  1  1
  6  7  2  0
  8  9  1  0
  9 11  1  0
 10  9  2  0
 11 12  1  0
 12 13  1  0
 13 14  1  0
 15 14  1  6
 16  6  1  0
 16 15  1  0
 17 21  1  0
 17 15  1  0
 18 17  2  0
 20 21  1  0
 20 19  1  1
 22 20  1  0
 22 24  1  0
 23 22  2  0
M  END
$$$$
