TRA.pdb
     RDKit          3D

 24 23  0  0  1  0  0  0  0  0999 V2000
   24.9331  -22.5797  -14.2647 C   0  0  0  0  0  0  0  0  0  0  0  0
   25.0936  -22.4245  -12.7657 C   0  0  1  0  0  0  0  0  0  0  0  0
   26.1923  -23.1218  -12.3107 O   0  0  0  0  0  0  0  0  0  0  0  0
   25.0278  -20.9934  -12.3231 C   0  0  2  0  0  0  0  0  0  0  0  0
   25.2812  -20.9525  -10.8996 N   0  0  0  0  0  0  0  0  0  0  0  0
   23.7675  -20.3218  -12.7223 C   0  0  0  0  0  0  0  0  0  0  0  0
   22.9288  -20.1130  -11.8261 O   0  0  0  0  0  0  0  0  0  0  0  0
   22.5648  -17.4273  -19.7085 N   0  0  0  0  0  0  0  0  0  0  0  0
   23.0232  -16.4786  -18.7272 C   0  0  0  0  0  0  0  0  0  0  0  0
   24.0798  -15.7806  -18.9232 N   0  0  0  0  0  0  0  0  0  0  0  0
   22.2934  -16.3059  -17.5097 N   0  0  0  0  0  0  0  0  0  0  0  0
   21.0495  -17.0154  -17.2781 C   0  0  0  0  0  0  0  0  0  0  0  0
   21.0730  -17.6794  -15.8943 C   0  0  0  0  0  0  0  0  0  0  0  0
   22.3388  -18.4949  -15.7333 C   0  0  0  0  0  0  0  0  0  0  0  0
   22.2699  -19.2385  -14.4588 C   0  0  2  0  0  0  0  0  0  0  0  0
   23.4475  -19.9059  -14.0202 N   0  0  0  0  0  0  0  0  0  0  0  0
   21.1718  -20.2323  -14.5234 C   0  0  0  0  0  0  0  0  0  0  0  0
   21.3697  -21.2448  -15.2697 O   0  0  0  0  0  0  0  0  0  0  0  0
   24.3720  -15.0824  -18.2258 C   0  0  0  0  0  0  0  0  0  0  0  0
   18.4154  -21.3955  -12.4103 C   0  0  1  0  0  0  0  0  0  0  0  0
   19.0511  -21.2499  -13.7915 N   0  0  0  0  0  0  0  0  0  0  0  0
   19.9516  -20.1088  -13.8147 C   0  0  0  0  0  0  0  0  0  0  0  0
   17.9664  -21.0003  -14.7838 O   0  0  0  0  0  0  0  0  0  0  0  0
   17.8908  -19.8774  -15.3883 O   0  0  0  0  0  0  0  0  0  0  0  0
  2  1  1  6
  2  3  1  0
  4  2  1  0
  4  6  1  0
  4  5  1  1
  6  7  2  0
  8  9  1  0
  9 11  1  0
 10  9  2  0
 11 12  1  0
 12 13  1  0
 13 14  1  0
 15 14  1  6
 16  6  1  0
 16 15  1  0
 17 21  1  0
 17 15  1  0
 18 17  2  0
 20 21  1  0
 20 19  1  1
 22 20  1  0
 22 24  1  0
 23 22  2  0
M  END
$$$$
