TRA.pdb
     RDKit          3D

 24 23  0  0  1  0  0  0  0  0999 V2000
   31.9149  -35.5959   -2.8588 C   0  0  0  0  0  0  0  0  0  0  0  0
   32.9974  -35.3922   -3.8995 C   0  0  1  0  0  0  0  0  0  0  0  0
   34.1450  -36.0769   -3.5607 O   0  0  0  0  0  0  0  0  0  0  0  0
   32.5084  -35.6341   -5.2963 C   0  0  2  0  0  0  0  0  0  0  0  0
   33.6081  -35.3922   -6.2042 N   0  0  0  0  0  0  0  0  0  0  0  0
   31.2861  -34.8609   -5.6232 C   0  0  0  0  0  0  0  0  0  0  0  0
   31.4338  -33.6528   -5.8858 O   0  0  0  0  0  0  0  0  0  0  0  0
   25.5351  -33.5898  -11.2728 N   0  0  0  0  0  0  0  0  0  0  0  0
   25.0595  -32.8231  -10.1507 C   0  0  0  0  0  0  0  0  0  0  0  0
   24.2918  -31.8107  -10.3175 N   0  0  0  0  0  0  0  0  0  0  0  0
   25.4455  -33.1902   -8.8237 N   0  0  0  0  0  0  0  0  0  0  0  0
   26.5637  -34.0849   -8.5923 C   0  0  0  0  0  0  0  0  0  0  0  0
   26.6358  -34.4622   -7.1061 C   0  0  0  0  0  0  0  0  0  0  0  0
   27.8158  -35.3795   -6.8620 C   0  0  0  0  0  0  0  0  0  0  0  0
   28.7807  -34.6932   -5.9790 C   0  0  2  0  0  0  0  0  0  0  0  0
   29.9860  -35.3788   -5.6600 N   0  0  0  0  0  0  0  0  0  0  0  0
   28.1119  -34.3184   -4.7102 C   0  0  0  0  0  0  0  0  0  0  0  0
   28.2465  -35.1312   -3.7393 O   0  0  0  0  0  0  0  0  0  0  0  0
   23.9426  -31.2899   -9.5015 C   0  0  0  0  0  0  0  0  0  0  0  0
   26.0982  -31.5127   -3.2018 C   0  0  1  0  0  0  0  0  0  0  0  0
   26.7181  -32.9078   -3.2487 N   0  0  0  0  0  0  0  0  0  0  0  0
   27.3539  -33.1345   -4.5362 C   0  0  0  0  0  0  0  0  0  0  0  0
   25.6271  -33.9121   -3.0912 O   0  0  0  0  0  0  0  0  0  0  0  0
   25.1757  -34.5394   -4.1084 O   0  0  0  0  0  0  0  0  0  0  0  0
  2  1  1  1
  2  3  1  0
  4  2  1  0
  4  6  1  0
  4  5  1  6
  6  7  2  0
  8  9  1  0
  9 11  1  0
 10  9  2  0
 11 12  1  0
 12 13  1  0
 13 14  1  0
 15 14  1  6
 16  6  1  0
 16 15  1  0
 17 21  1  0
 17 15  1  0
 18 17  2  0
 20 21  1  0
 20 19  1  1
 22 20  1  0
 22 24  1  0
 23 22  2  0
M  END
$$$$
