TRA.pdb
     RDKit          3D

 24 23  0  0  1  0  0  0  0  0999 V2000
   39.1721   -3.9877    5.3757 C   0  0  0  0  0  0  0  0  0  0  0  0
   39.3958   -3.9811    3.8768 C   0  0  1  0  0  0  0  0  0  0  0  0
   40.7362   -3.8631    3.5768 O   0  0  0  0  0  0  0  0  0  0  0  0
   38.6916   -5.1085    3.1830 C   0  0  2  0  0  0  0  0  0  0  0  0
   39.0190   -5.0428    1.7756 N   0  0  0  0  0  0  0  0  0  0  0  0
   37.2340   -5.1341    3.4539 C   0  0  0  0  0  0  0  0  0  0  0  0
   36.4945   -4.5688    2.6270 O   0  0  0  0  0  0  0  0  0  0  0  0
   31.4847  -10.6337    7.6278 N   0  0  0  0  0  0  0  0  0  0  0  0
   30.7489   -9.4508    7.2641 C   0  0  0  0  0  0  0  0  0  0  0  0
   29.4830   -9.3751    7.4481 N   0  0  0  0  0  0  0  0  0  0  0  0
   31.4341   -8.3365    6.6866 N   0  0  0  0  0  0  0  0  0  0  0  0
   32.8750   -8.3512    6.5200 C   0  0  0  0  0  0  0  0  0  0  0  0
   33.3282   -7.1004    5.7543 C   0  0  0  0  0  0  0  0  0  0  0  0
   34.8313   -7.1222    5.5714 C   0  0  0  0  0  0  0  0  0  0  0  0
   35.2366   -5.9304    4.7986 C   0  0  2  0  0  0  0  0  0  0  0  0
   36.6263   -5.7404    4.5598 N   0  0  0  0  0  0  0  0  0  0  0  0
   34.7091   -4.7107    5.4557 C   0  0  0  0  0  0  0  0  0  0  0  0
   35.2649   -4.3738    6.5506 O   0  0  0  0  0  0  0  0  0  0  0  0
   28.9778   -8.5131    7.2012 C   0  0  0  0  0  0  0  0  0  0  0  0
   32.6610   -1.6917    4.8492 C   0  0  1  0  0  0  0  0  0  0  0  0
   33.1421   -2.8319    5.7444 N   0  0  0  0  0  0  0  0  0  0  0  0
   33.6483   -3.9290    4.9360 C   0  0  0  0  0  0  0  0  0  0  0  0
   31.9784   -3.3368    6.5283 O   0  0  0  0  0  0  0  0  0  0  0  0
   31.3257   -4.3593    6.1280 O   0  0  0  0  0  0  0  0  0  0  0  0
  2  1  1  1
  2  3  1  0
  4  2  1  0
  4  6  1  0
  4  5  1  6
  6  7  2  0
  8  9  1  0
  9 11  1  0
 10  9  2  0
 11 12  1  0
 12 13  1  0
 13 14  1  0
 15 14  1  1
 16  6  1  0
 16 15  1  0
 17 21  1  0
 17 15  1  0
 18 17  2  0
 20 21  1  0
 20 19  1  1
 22 20  1  0
 22 24  1  0
 23 22  2  0
M  END
$$$$
