TRA.pdb
     RDKit          3D

 24 23  0  0  1  0  0  0  0  0999 V2000
   15.9664   -7.5625  -13.2298 C   0  0  0  0  0  0  0  0  0  0  0  0
   15.8231   -8.3876  -11.9667 C   0  0  1  0  0  0  0  0  0  0  0  0
   14.4998   -8.6796  -11.7136 O   0  0  0  0  0  0  0  0  0  0  0  0
   16.7453   -9.5696  -11.9415 C   0  0  2  0  0  0  0  0  0  0  0  0
   16.5421  -10.2700  -10.6923 N   0  0  0  0  0  0  0  0  0  0  0  0
   18.1600   -9.2051  -12.1956 C   0  0  0  0  0  0  0  0  0  0  0  0
   18.8762   -8.9883  -11.2005 O   0  0  0  0  0  0  0  0  0  0  0  0
   24.3706  -12.2698  -17.4093 N   0  0  0  0  0  0  0  0  0  0  0  0
   24.1214  -12.4592  -16.0038 C   0  0  0  0  0  0  0  0  0  0  0  0
   24.5037  -13.5230  -15.4004 N   0  0  0  0  0  0  0  0  0  0  0  0
   23.4359  -11.4481  -15.2606 N   0  0  0  0  0  0  0  0  0  0  0  0
   22.9088  -10.2670  -15.9176 C   0  0  0  0  0  0  0  0  0  0  0  0
   22.2202   -9.3576  -14.8905 C   0  0  0  0  0  0  0  0  0  0  0  0
   20.7809   -9.7884  -14.7008 C   0  0  0  0  0  0  0  0  0  0  0  0
   20.1216   -8.8554  -13.7645 C   0  0  2  0  0  0  0  0  0  0  0  0
   18.7512   -9.0862  -13.4590 N   0  0  0  0  0  0  0  0  0  0  0  0
   20.2554   -7.4684  -14.2705 C   0  0  0  0  0  0  0  0  0  0  0  0
   19.5058   -7.1493  -15.2490 O   0  0  0  0  0  0  0  0  0  0  0  0
   24.3151  -13.6406  -14.3955 C   0  0  0  0  0  0  0  0  0  0  0  0
   21.8797   -4.2075  -13.3556 C   0  0  1  0  0  0  0  0  0  0  0  0
   21.1383   -5.1686  -14.2827 N   0  0  0  0  0  0  0  0  0  0  0  0
   21.1517   -6.5134  -13.7308 C   0  0  0  0  0  0  0  0  0  0  0  0
   21.8508   -5.2015  -15.5922 O   0  0  0  0  0  0  0  0  0  0  0  0
   22.6650   -6.1487  -15.8601 O   0  0  0  0  0  0  0  0  0  0  0  0
  2  1  1  6
  2  3  1  0
  4  2  1  0
  4  6  1  0
  4  5  1  1
  6  7  2  0
  8  9  1  0
  9 11  1  0
 10  9  2  0
 11 12  1  0
 12 13  1  0
 13 14  1  0
 15 14  1  6
 16  6  1  0
 16 15  1  0
 17 21  1  0
 17 15  1  0
 18 17  2  0
 20 21  1  0
 20 19  1  1
 22 20  1  0
 22 24  1  0
 23 22  2  0
M  END
$$$$
