TRA.pdb
     RDKit          3D

 24 23  0  0  1  0  0  0  0  0999 V2000
   24.2439  -26.3139  -19.0274 C   0  0  0  0  0  0  0  0  0  0  0  0
   23.4777  -25.5038  -18.0011 C   0  0  1  0  0  0  0  0  0  0  0  0
   22.1173  -25.6456  -18.1738 O   0  0  0  0  0  0  0  0  0  0  0  0
   23.9631  -25.7374  -16.6018 C   0  0  2  0  0  0  0  0  0  0  0  0
   23.8310  -27.1481  -16.3112 N   0  0  0  0  0  0  0  0  0  0  0  0
   23.3011  -24.8605  -15.6060 C   0  0  0  0  0  0  0  0  0  0  0  0
   22.4978  -25.3998  -14.8223 O   0  0  0  0  0  0  0  0  0  0  0  0
   26.7814  -20.1830  -12.4961 N   0  0  0  0  0  0  0  0  0  0  0  0
   26.2050  -20.6959  -11.2804 C   0  0  0  0  0  0  0  0  0  0  0  0
   26.9394  -21.2061  -10.3626 N   0  0  0  0  0  0  0  0  0  0  0  0
   24.7895  -20.6395  -11.0855 N   0  0  0  0  0  0  0  0  0  0  0  0
   23.9348  -19.9343  -12.0216 C   0  0  0  0  0  0  0  0  0  0  0  0
   23.0285  -20.9301  -12.7586 C   0  0  0  0  0  0  0  0  0  0  0  0
   23.8194  -21.6575  -13.8256 C   0  0  0  0  0  0  0  0  0  0  0  0
   22.9218  -22.5953  -14.5306 C   0  0  2  0  0  0  0  0  0  0  0  0
   23.5065  -23.4817  -15.4777 N   0  0  0  0  0  0  0  0  0  0  0  0
   21.8463  -21.8351  -15.2110 C   0  0  0  0  0  0  0  0  0  0  0  0
   22.2189  -20.9970  -16.0942 O   0  0  0  0  0  0  0  0  0  0  0  0
   26.5141  -21.5255   -9.4815 C   0  0  0  0  0  0  0  0  0  0  0  0
   18.0935  -21.6303  -15.4013 C   0  0  1  0  0  0  0  0  0  0  0  0
   19.5208  -21.1322  -15.6194 N   0  0  0  0  0  0  0  0  0  0  0  0
   20.4670  -21.9947  -14.9307 C   0  0  0  0  0  0  0  0  0  0  0  0
   19.6355  -19.7648  -15.0357 O   0  0  0  0  0  0  0  0  0  0  0  0
   20.0553  -19.6070  -13.8396 O   0  0  0  0  0  0  0  0  0  0  0  0
  2  1  1  6
  2  3  1  0
  4  2  1  0
  4  6  1  0
  4  5  1  1
  6  7  2  0
  8  9  1  0
  9 11  1  0
 10  9  2  0
 11 12  1  0
 12 13  1  0
 13 14  1  0
 15 14  1  6
 16  6  1  0
 16 15  1  0
 17 21  1  0
 17 15  1  0
 18 17  2  0
 20 21  1  0
 20 19  1  6
 22 20  1  0
 22 24  1  0
 23 22  2  0
M  END
$$$$
