SYS.pdb
     RDKit          3D

 25 25  0  0  1  0  0  0  0  0999 V2000
    6.8743  -15.9435   19.4838 O   0  0  0  0  0  0  0  0  0  0  0  0
    7.4756  -14.9976   18.6540 C   0  0  0  0  0  0  0  0  0  0  0  0
    7.3666  -13.6648   19.3600 C   0  0  2  0  0  0  0  0  0  0  0  0
    7.8818  -12.5671   18.5889 N   0  0  0  0  0  0  0  0  0  0  0  0
    8.0738  -13.7292   20.6967 C   0  0  0  0  0  0  0  0  0  0  0  0
    9.3205  -13.6251   20.7608 O   0  0  0  0  0  0  0  0  0  0  0  0
    8.9675  -13.9683   29.5792 O   0  0  0  0  0  0  0  0  0  0  0  0
    8.4854  -13.8505   28.2615 C   0  0  0  0  0  0  0  0  0  0  0  0
    7.6663  -14.8217   27.7262 C   0  0  0  0  0  0  0  0  0  0  0  0
    7.1933  -14.7011   26.4265 C   0  0  0  0  0  0  0  0  0  0  0  0
    7.5132  -13.6282   25.6270 C   0  0  0  0  0  0  0  0  0  0  0  0
    7.0058  -13.5350   24.2463 C   0  0  0  0  0  0  0  0  0  0  0  0
    7.9193  -14.0919   23.1996 C   0  0  2  0  0  0  0  0  0  0  0  0
    7.3366  -13.9080   21.8939 N   0  0  0  0  0  0  0  0  0  0  0  0
    8.3059  -15.4977   23.4733 C   0  0  0  0  0  0  0  0  0  0  0  0
    7.5381  -16.4668   23.2730 O   0  0  0  0  0  0  0  0  0  0  0  0
    8.3315  -12.6603   26.1640 C   0  0  0  0  0  0  0  0  0  0  0  0
    8.8109  -12.7755   27.4717 C   0  0  0  0  0  0  0  0  0  0  0  0
   10.7348  -17.4218   22.0242 O   0  0  0  0  0  0  0  0  0  0  0  0
   11.0798  -17.6905   23.3522 C   0  0  0  0  0  0  0  0  0  0  0  0
    9.9582  -17.2098   24.2440 C   0  0  2  0  0  0  0  0  0  0  0  0
    9.5987  -15.8430   23.9924 N   0  0  0  0  0  0  0  0  0  0  0  0
   10.3711  -17.4289   25.6614 C   0  0  0  0  0  0  0  0  0  0  0  0
   10.4047  -16.4153   26.4057 O   0  0  0  0  0  0  0  0  0  0  0  0
   10.7074  -18.6740   26.1652 O   0  0  0  0  0  0  0  0  0  0  0  0
  1  2  1  0
  2  3  1  0
  3  4  1  6
  5  6  2  0
  5  3  1  0
  7  8  1  0
  8  9  2  0
  8 18  1  0
  9 10  1  0
 10 11  2  0
 11 12  1  0
 13 12  1  1
 13 15  1  0
 13 14  1  0
 14  5  1  0
 15 16  2  0
 17 11  1  0
 18 17  2  0
 20 19  1  0
 21 20  1  6
 22 15  1  0
 22 21  1  0
 23 25  1  0
 23 21  1  0
 24 23  2  0
M  END
$$$$
