SYS.pdb
     RDKit          3D

 25 25  0  0  1  0  0  0  0  0999 V2000
    6.2344  -17.7856   19.5437 O   0  0  0  0  0  0  0  0  0  0  0  0
    7.2881  -17.4433   20.3905 C   0  0  0  0  0  0  0  0  0  0  0  0
    7.1877  -15.9541   20.6332 C   0  0  2  0  0  0  0  0  0  0  0  0
    7.4106  -15.1673   19.4517 N   0  0  0  0  0  0  0  0  0  0  0  0
    8.1612  -15.5407   21.7160 C   0  0  0  0  0  0  0  0  0  0  0  0
    9.3376  -15.2237   21.4246 O   0  0  0  0  0  0  0  0  0  0  0  0
   10.9790  -14.6900   30.1891 O   0  0  0  0  0  0  0  0  0  0  0  0
   10.2118  -14.7506   29.0100 C   0  0  0  0  0  0  0  0  0  0  0  0
    9.6364  -15.9376   28.6092 C   0  0  0  0  0  0  0  0  0  0  0  0
    8.8806  -15.9924   27.4459 C   0  0  0  0  0  0  0  0  0  0  0  0
    8.6741  -14.8868   26.6536 C   0  0  0  0  0  0  0  0  0  0  0  0
    7.8775  -14.9796   25.4170 C   0  0  0  0  0  0  0  0  0  0  0  0
    8.6509  -15.3686   24.1961 C   0  0  2  0  0  0  0  0  0  0  0  0
    7.7566  -15.5063   23.0739 N   0  0  0  0  0  0  0  0  0  0  0  0
    9.4974  -16.5665   24.4180 C   0  0  0  0  0  0  0  0  0  0  0  0
    9.0237  -17.7130   24.5907 O   0  0  0  0  0  0  0  0  0  0  0  0
    9.2502  -13.7031   27.0560 C   0  0  0  0  0  0  0  0  0  0  0  0
   10.0120  -13.6411   28.2261 C   0  0  0  0  0  0  0  0  0  0  0  0
   13.4479  -16.4250   23.5196 O   0  0  0  0  0  0  0  0  0  0  0  0
   12.8736  -17.6988   23.5700 C   0  0  0  0  0  0  0  0  0  0  0  0
   11.7364  -17.6712   24.5651 C   0  0  2  0  0  0  0  0  0  0  0  0
   10.9302  -16.4890   24.4510 N   0  0  0  0  0  0  0  0  0  0  0  0
   12.3170  -17.8238   25.9317 C   0  0  0  0  0  0  0  0  0  0  0  0
   12.0800  -16.9026   26.7549 O   0  0  0  0  0  0  0  0  0  0  0  0
   13.0836  -18.9136   26.3080 O   0  0  0  0  0  0  0  0  0  0  0  0
  1  2  1  0
  2  3  1  0
  3  4  1  6
  5  6  2  0
  5  3  1  0
  7  8  1  0
  8  9  2  0
  8 18  1  0
  9 10  1  0
 10 11  2  0
 11 12  1  0
 13 12  1  1
 13 15  1  0
 13 14  1  0
 14  5  1  0
 15 16  2  0
 17 11  1  0
 18 17  2  0
 20 19  1  0
 21 20  1  6
 22 15  1  0
 22 21  1  0
 23 25  1  0
 23 21  1  0
 24 23  2  0
M  END
$$$$
