SYS.pdb
     RDKit          3D

 25 25  0  0  1  0  0  0  0  0999 V2000
    9.3963  -19.0760   19.8548 O   0  0  0  0  0  0  0  0  0  0  0  0
    8.4297  -18.2318   19.3092 C   0  0  0  0  0  0  0  0  0  0  0  0
    9.0648  -16.8654   19.1812 C   0  0  2  0  0  0  0  0  0  0  0  0
   10.2995  -16.8769   18.4461 N   0  0  0  0  0  0  0  0  0  0  0  0
    9.2910  -16.2705   20.5544 C   0  0  0  0  0  0  0  0  0  0  0  0
   10.4359  -16.2642   21.0627 O   0  0  0  0  0  0  0  0  0  0  0  0
    7.0376  -11.9568   28.0980 O   0  0  0  0  0  0  0  0  0  0  0  0
    7.0511  -12.5594   26.8255 C   0  0  0  0  0  0  0  0  0  0  0  0
    7.5816  -11.8935   25.7412 C   0  0  0  0  0  0  0  0  0  0  0  0
    7.5929  -12.4918   24.4883 C   0  0  0  0  0  0  0  0  0  0  0  0
    7.0854  -13.7523   24.2739 C   0  0  0  0  0  0  0  0  0  0  0  0
    7.0999  -14.3557   22.9291 C   0  0  0  0  0  0  0  0  0  0  0  0
    8.3098  -15.1810   22.6210 C   0  0  2  0  0  0  0  0  0  0  0  0
    8.2119  -15.7124   21.2845 N   0  0  0  0  0  0  0  0  0  0  0  0
    8.5624  -16.2230   23.6462 C   0  0  0  0  0  0  0  0  0  0  0  0
    7.8773  -17.2674   23.7394 O   0  0  0  0  0  0  0  0  0  0  0  0
    6.5561  -14.4147   25.3583 C   0  0  0  0  0  0  0  0  0  0  0  0
    6.5418  -13.8182   26.6221 C   0  0  0  0  0  0  0  0  0  0  0  0
   12.1561  -17.1660   24.8634 O   0  0  0  0  0  0  0  0  0  0  0  0
   11.0718  -18.0066   25.1328 C   0  0  0  0  0  0  0  0  0  0  0  0
    9.8960  -17.1520   25.5471 C   0  0  2  0  0  0  0  0  0  0  0  0
    9.6189  -16.1006   24.6098 N   0  0  0  0  0  0  0  0  0  0  0  0
   10.1704  -16.6245   26.9161 C   0  0  0  0  0  0  0  0  0  0  0  0
   10.1094  -15.3769   27.0661 O   0  0  0  0  0  0  0  0  0  0  0  0
   10.4799  -17.4406   27.9909 O   0  0  0  0  0  0  0  0  0  0  0  0
  1  2  1  0
  2  3  1  0
  3  4  1  1
  5  6  2  0
  5  3  1  0
  7  8  1  0
  8  9  2  0
  8 18  1  0
  9 10  1  0
 10 11  2  0
 11 12  1  0
 13 12  1  1
 13 15  1  0
 13 14  1  0
 14  5  1  0
 15 16  2  0
 17 11  1  0
 18 17  2  0
 20 19  1  0
 21 20  1  6
 22 15  1  0
 22 21  1  0
 23 25  1  0
 23 21  1  0
 24 23  2  0
M  END
$$$$
