SYS.pdb
     RDKit          3D

 25 25  0  0  1  0  0  0  0  0999 V2000
    7.4042  -15.4442   19.4854 O   0  0  0  0  0  0  0  0  0  0  0  0
    6.4185  -14.5563   19.9151 C   0  0  0  0  0  0  0  0  0  0  0  0
    7.1301  -13.3082   20.3867 C   0  0  2  0  0  0  0  0  0  0  0  0
    7.8557  -12.6368   19.3439 N   0  0  0  0  0  0  0  0  0  0  0  0
    8.0663  -13.6472   21.5267 C   0  0  0  0  0  0  0  0  0  0  0  0
    9.2996  -13.7413   21.3285 O   0  0  0  0  0  0  0  0  0  0  0  0
   10.4696  -15.0463   30.0468 O   0  0  0  0  0  0  0  0  0  0  0  0
    9.7622  -14.7950   28.8556 C   0  0  0  0  0  0  0  0  0  0  0  0
    9.7242  -13.5259   28.3183 C   0  0  0  0  0  0  0  0  0  0  0  0
    9.0254  -13.2830   27.1434 C   0  0  0  0  0  0  0  0  0  0  0  0
    8.3512  -14.2773   26.4730 C   0  0  0  0  0  0  0  0  0  0  0  0
    7.6073  -13.9854   25.2345 C   0  0  0  0  0  0  0  0  0  0  0  0
    8.3583  -14.2567   23.9687 C   0  0  2  0  0  0  0  0  0  0  0  0
    7.5618  -13.8630   22.8335 N   0  0  0  0  0  0  0  0  0  0  0  0
    8.8423  -15.6565   23.8846 C   0  0  0  0  0  0  0  0  0  0  0  0
    8.0814  -16.6291   23.6753 O   0  0  0  0  0  0  0  0  0  0  0  0
    8.3906  -15.5434   27.0120 C   0  0  0  0  0  0  0  0  0  0  0  0
    9.0923  -15.7947   28.1943 C   0  0  0  0  0  0  0  0  0  0  0  0
   12.4226  -16.7148   22.5336 O   0  0  0  0  0  0  0  0  0  0  0  0
   11.4210  -17.6740   22.7115 C   0  0  0  0  0  0  0  0  0  0  0  0
   10.6752  -17.3552   23.9868 C   0  0  2  0  0  0  0  0  0  0  0  0
   10.2291  -15.9917   24.0406 N   0  0  0  0  0  0  0  0  0  0  0  0
   11.5616  -17.7005   25.1369 C   0  0  0  0  0  0  0  0  0  0  0  0
   11.8167  -16.7782   25.9536 O   0  0  0  0  0  0  0  0  0  0  0  0
   12.0942  -18.9645   25.3257 O   0  0  0  0  0  0  0  0  0  0  0  0
  1  2  1  0
  2  3  1  0
  3  4  1  6
  5  6  2  0
  5  3  1  0
  7  8  1  0
  8  9  2  0
  8 18  1  0
  9 10  1  0
 10 11  2  0
 11 12  1  0
 13 12  1  1
 13 15  1  0
 13 14  1  0
 14  5  1  0
 15 16  2  0
 17 11  1  0
 18 17  2  0
 20 19  1  0
 21 20  1  6
 22 15  1  0
 22 21  1  0
 23 25  1  0
 23 21  1  0
 24 23  2  0
M  END
$$$$
