SYS.pdb
     RDKit          3D

 25 25  0  0  1  0  0  0  0  0999 V2000
    7.0124  -16.3382   14.6757 O   0  0  0  0  0  0  0  0  0  0  0  0
    8.2858  -16.9028   14.6111 C   0  0  0  0  0  0  0  0  0  0  0  0
    9.2549  -15.7683   14.3649 C   0  0  2  0  0  0  0  0  0  0  0  0
    9.6513  -15.6451   12.9893 N   0  0  0  0  0  0  0  0  0  0  0  0
   10.4794  -15.9367   15.2385 C   0  0  0  0  0  0  0  0  0  0  0  0
   11.4520  -16.6201   14.8432 O   0  0  0  0  0  0  0  0  0  0  0  0
   15.8982  -14.6234   22.2283 O   0  0  0  0  0  0  0  0  0  0  0  0
   14.8384  -14.5761   21.3025 C   0  0  0  0  0  0  0  0  0  0  0  0
   15.0780  -14.2742   19.9788 C   0  0  0  0  0  0  0  0  0  0  0  0
   14.0298  -14.2289   19.0695 C   0  0  0  0  0  0  0  0  0  0  0  0
   12.7283  -14.4781   19.4388 C   0  0  0  0  0  0  0  0  0  0  0  0
   11.6350  -14.4095   18.4526 C   0  0  0  0  0  0  0  0  0  0  0  0
   11.5858  -15.5503   17.4850 C   0  0  2  0  0  0  0  0  0  0  0  0
   10.5436  -15.3243   16.5151 N   0  0  0  0  0  0  0  0  0  0  0  0
   11.4769  -16.8654   18.1629 C   0  0  0  0  0  0  0  0  0  0  0  0
   10.4332  -17.2510   18.7382 O   0  0  0  0  0  0  0  0  0  0  0  0
   12.4919  -14.7790   20.7612 C   0  0  0  0  0  0  0  0  0  0  0  0
   13.5426  -14.8264   21.6816 C   0  0  0  0  0  0  0  0  0  0  0  0
   14.2125  -19.8524   17.5308 O   0  0  0  0  0  0  0  0  0  0  0  0
   12.9725  -20.2078   18.0702 C   0  0  0  0  0  0  0  0  0  0  0  0
   12.4583  -19.0475   18.8910 C   0  0  2  0  0  0  0  0  0  0  0  0
   12.5725  -17.7914   18.2055 N   0  0  0  0  0  0  0  0  0  0  0  0
   13.1897  -19.0444   20.1921 C   0  0  0  0  0  0  0  0  0  0  0  0
   13.0902  -20.0786   20.9014 O   0  0  0  0  0  0  0  0  0  0  0  0
   13.9497  -17.9720   20.6275 O   0  0  0  0  0  0  0  0  0  0  0  0
  1  2  1  0
  2  3  1  0
  3  4  1  6
  5  6  2  0
  5  3  1  0
  7  8  1  0
  8  9  2  0
  8 18  1  0
  9 10  1  0
 10 11  2  0
 11 12  1  0
 13 12  1  1
 13 15  1  0
 13 14  1  0
 14  5  1  0
 15 16  2  0
 17 11  1  0
 18 17  2  0
 20 19  1  0
 21 20  1  6
 22 15  1  0
 22 21  1  0
 23 25  1  0
 23 21  1  0
 24 23  2  0
M  END
$$$$
