SYS.pdb
     RDKit          3D

 25 25  0  0  1  0  0  0  0  0999 V2000
    7.5964  -17.1423   20.3040 O   0  0  0  0  0  0  0  0  0  0  0  0
    6.6839  -16.1020   20.4762 C   0  0  0  0  0  0  0  0  0  0  0  0
    7.4839  -14.8190   20.5042 C   0  0  2  0  0  0  0  0  0  0  0  0
    8.1924  -14.5618   19.2808 N   0  0  0  0  0  0  0  0  0  0  0  0
    8.4555  -14.8417   21.6645 C   0  0  0  0  0  0  0  0  0  0  0  0
    9.6888  -14.9165   21.4583 O   0  0  0  0  0  0  0  0  0  0  0  0
   10.8830  -15.1037   30.2915 O   0  0  0  0  0  0  0  0  0  0  0  0
   10.1876  -14.9307   29.0795 C   0  0  0  0  0  0  0  0  0  0  0  0
    9.5340  -15.9916   28.4896 C   0  0  0  0  0  0  0  0  0  0  0  0
    8.8495  -15.8161   27.2945 C   0  0  0  0  0  0  0  0  0  0  0  0
    8.7921  -14.5993   26.6550 C   0  0  0  0  0  0  0  0  0  0  0  0
    8.0680  -14.4475   25.3801 C   0  0  0  0  0  0  0  0  0  0  0  0
    8.8111  -14.9251   24.1719 C   0  0  2  0  0  0  0  0  0  0  0  0
    7.9847  -14.7786   22.9999 N   0  0  0  0  0  0  0  0  0  0  0  0
    9.3464  -16.2983   24.3406 C   0  0  0  0  0  0  0  0  0  0  0  0
    8.6705  -17.3265   24.1065 O   0  0  0  0  0  0  0  0  0  0  0  0
    9.4458  -13.5419   27.2461 C   0  0  0  0  0  0  0  0  0  0  0  0
   10.1366  -13.7119   28.4491 C   0  0  0  0  0  0  0  0  0  0  0  0
   12.5349  -17.5308   22.9034 O   0  0  0  0  0  0  0  0  0  0  0  0
   11.5993  -18.3997   23.4731 C   0  0  0  0  0  0  0  0  0  0  0  0
   11.2260  -17.8711   24.8390 C   0  0  2  0  0  0  0  0  0  0  0  0
   10.6879  -16.5412   24.7893 N   0  0  0  0  0  0  0  0  0  0  0  0
   12.4347  -17.9544   25.7107 C   0  0  0  0  0  0  0  0  0  0  0  0
   12.8621  -16.8738   26.1926 O   0  0  0  0  0  0  0  0  0  0  0  0
   13.0785  -19.1466   25.9956 O   0  0  0  0  0  0  0  0  0  0  0  0
  1  2  1  0
  2  3  1  0
  3  4  1  6
  5  6  2  0
  5  3  1  0
  7  8  1  0
  8  9  2  0
  8 18  1  0
  9 10  1  0
 10 11  2  0
 11 12  1  0
 13 12  1  1
 13 15  1  0
 13 14  1  0
 14  5  1  0
 15 16  2  0
 17 11  1  0
 18 17  2  0
 20 19  1  0
 21 20  1  6
 22 15  1  0
 22 21  1  0
 23 25  1  0
 23 21  1  0
 24 23  2  0
M  END
$$$$
