SYS.pdb
     RDKit          3D

 25 25  0  0  1  0  0  0  0  0999 V2000
    8.5966  -15.5374   18.5726 O   0  0  0  0  0  0  0  0  0  0  0  0
    7.3074  -15.1594   18.9463 C   0  0  0  0  0  0  0  0  0  0  0  0
    7.4391  -13.8731   19.7304 C   0  0  2  0  0  0  0  0  0  0  0  0
    8.0267  -12.8018   18.9742 N   0  0  0  0  0  0  0  0  0  0  0  0
    8.2453  -14.1154   20.9883 C   0  0  0  0  0  0  0  0  0  0  0  0
    9.4410  -13.7481   21.0564 O   0  0  0  0  0  0  0  0  0  0  0  0
    6.4712  -10.3575   27.4836 O   0  0  0  0  0  0  0  0  0  0  0  0
    6.6914  -11.5283   26.7329 C   0  0  0  0  0  0  0  0  0  0  0  0
    5.6608  -12.4132   26.4974 C   0  0  0  0  0  0  0  0  0  0  0  0
    5.8826  -13.5662   25.7565 C   0  0  0  0  0  0  0  0  0  0  0  0
    7.1168  -13.8742   25.2326 C   0  0  0  0  0  0  0  0  0  0  0  0
    7.3241  -15.1129   24.4610 C   0  0  0  0  0  0  0  0  0  0  0  0
    8.3303  -15.0082   23.3581 C   0  0  2  0  0  0  0  0  0  0  0  0
    7.6598  -14.7606   22.1062 N   0  0  0  0  0  0  0  0  0  0  0  0
    9.2435  -16.1762   23.3100 C   0  0  0  0  0  0  0  0  0  0  0  0
    8.8796  -17.3101   22.9217 O   0  0  0  0  0  0  0  0  0  0  0  0
    8.1440  -12.9890   25.4696 C   0  0  0  0  0  0  0  0  0  0  0  0
    7.9274  -11.8265   26.2145 C   0  0  0  0  0  0  0  0  0  0  0  0
   12.7676  -16.3647   21.9267 O   0  0  0  0  0  0  0  0  0  0  0  0
   12.8684  -16.9198   23.2060 C   0  0  0  0  0  0  0  0  0  0  0  0
   11.4756  -17.2345   23.7014 C   0  0  2  0  0  0  0  0  0  0  0  0
   10.6185  -16.0829   23.7107 N   0  0  0  0  0  0  0  0  0  0  0  0
   11.5973  -17.8535   25.0541 C   0  0  0  0  0  0  0  0  0  0  0  0
   10.9387  -17.3196   25.9836 O   0  0  0  0  0  0  0  0  0  0  0  0
   12.3876  -18.9616   25.3082 O   0  0  0  0  0  0  0  0  0  0  0  0
  1  2  1  0
  2  3  1  0
  3  4  1  6
  5  6  2  0
  5  3  1  0
  7  8  1  0
  8  9  2  0
  8 18  1  0
  9 10  1  0
 10 11  2  0
 11 12  1  0
 13 12  1  1
 13 15  1  0
 13 14  1  0
 14  5  1  0
 15 16  2  0
 17 11  1  0
 18 17  2  0
 20 19  1  0
 21 20  1  1
 22 15  1  0
 22 21  1  0
 23 25  1  0
 23 21  1  0
 24 23  2  0
M  END
$$$$
