SYS.pdb
     RDKit          3D

 25 25  0  0  1  0  0  0  0  0999 V2000
    7.8170  -15.5293   19.3946 O   0  0  0  0  0  0  0  0  0  0  0  0
    6.6915  -14.8421   19.8480 C   0  0  0  0  0  0  0  0  0  0  0  0
    7.1746  -13.5063   20.3665 C   0  0  2  0  0  0  0  0  0  0  0  0
    7.8092  -12.6996   19.3609 N   0  0  0  0  0  0  0  0  0  0  0  0
    8.1211  -13.7154   21.5290 C   0  0  0  0  0  0  0  0  0  0  0  0
    9.3573  -13.5872   21.3719 O   0  0  0  0  0  0  0  0  0  0  0  0
   10.5816  -14.9324   30.0480 O   0  0  0  0  0  0  0  0  0  0  0  0
    9.8643  -14.7375   28.8522 C   0  0  0  0  0  0  0  0  0  0  0  0
    9.8408  -13.5007   28.2435 C   0  0  0  0  0  0  0  0  0  0  0  0
    9.1323  -13.3133   27.0643 C   0  0  0  0  0  0  0  0  0  0  0  0
    8.4339  -14.3326   26.4594 C   0  0  0  0  0  0  0  0  0  0  0  0
    7.6802  -14.0992   25.2144 C   0  0  0  0  0  0  0  0  0  0  0  0
    8.4421  -14.3716   23.9552 C   0  0  2  0  0  0  0  0  0  0  0  0
    7.6233  -14.0590   22.8108 N   0  0  0  0  0  0  0  0  0  0  0  0
    9.0005  -15.7454   23.9155 C   0  0  0  0  0  0  0  0  0  0  0  0
    8.2955  -16.7620   23.7194 O   0  0  0  0  0  0  0  0  0  0  0  0
    8.4589  -15.5663   27.0695 C   0  0  0  0  0  0  0  0  0  0  0  0
    9.1703  -15.7617   28.2565 C   0  0  0  0  0  0  0  0  0  0  0  0
   11.9584  -16.7270   21.9493 O   0  0  0  0  0  0  0  0  0  0  0  0
   12.1973  -17.3816   23.1615 C   0  0  0  0  0  0  0  0  0  0  0  0
   10.9338  -17.3305   23.9893 C   0  0  2  0  0  0  0  0  0  0  0  0
   10.4000  -16.0026   24.1024 N   0  0  0  0  0  0  0  0  0  0  0  0
   11.2329  -17.9297   25.3231 C   0  0  0  0  0  0  0  0  0  0  0  0
   10.9799  -17.2226   26.3324 O   0  0  0  0  0  0  0  0  0  0  0  0
   11.7633  -19.1993   25.4778 O   0  0  0  0  0  0  0  0  0  0  0  0
  1  2  1  0
  2  3  1  0
  3  4  1  6
  5  6  2  0
  5  3  1  0
  7  8  1  0
  8  9  2  0
  8 18  1  0
  9 10  1  0
 10 11  2  0
 11 12  1  0
 13 12  1  1
 13 15  1  0
 13 14  1  0
 14  5  1  0
 15 16  2  0
 17 11  1  0
 18 17  2  0
 20 19  1  0
 21 20  1  6
 22 15  1  0
 22 21  1  0
 23 25  1  0
 23 21  1  0
 24 23  2  0
M  END
$$$$
