KNF.pdb
     RDKit          3D

 29 29  0  0  1  0  0  0  0  0999 V2000
   10.1853  -18.9306   21.0702 N   0  0  0  0  0  0  0  0  0  0  0  0
   11.2533  -17.9603   20.7550 C   0  0  1  0  0  0  0  0  0  0  0  0
   11.6656  -18.0941   19.3291 C   0  0  0  0  0  0  0  0  0  0  0  0
   12.0269  -19.4836   18.9561 C   0  0  0  0  0  0  0  0  0  0  0  0
   12.2918  -19.5976   17.4535 C   0  0  0  0  0  0  0  0  0  0  0  0
   12.4885  -21.0753   17.0967 C   0  0  0  0  0  0  0  0  0  0  0  0
   12.7153  -21.2190   15.6796 N   0  0  0  0  0  0  0  0  0  0  0  0
   10.6975  -16.6219   21.0210 C   0  0  0  0  0  0  0  0  0  0  0  0
   11.3306  -15.5933   20.6158 O   0  0  0  0  0  0  0  0  0  0  0  0
    7.0230  -16.8357   22.7660 N   0  0  0  0  0  0  0  0  0  0  0  0
    6.6279  -15.7623   21.8929 C   0  0  0  0  0  0  0  0  0  0  0  0
    5.4365  -15.7001   21.5677 O   0  0  0  0  0  0  0  0  0  0  0  0
    7.6677  -14.8195   21.4521 C   0  0  0  0  0  0  0  0  0  0  0  0
    9.0404  -15.0442   21.9690 C   0  0  2  0  0  0  0  0  0  0  0  0
    9.4906  -16.4171   21.7081 N   0  0  0  0  0  0  0  0  0  0  0  0
    9.0643  -14.8241   23.4562 C   0  0  0  0  0  0  0  0  0  0  0  0
    9.1499  -13.6902   23.9610 O   0  0  0  0  0  0  0  0  0  0  0  0
    8.9909  -15.9274   24.3748 N   0  0  0  0  0  0  0  0  0  0  0  0
    9.4596  -15.7591   25.7599 C   0  0  1  0  0  0  0  0  0  0  0  0
    8.2330  -15.5193   26.5839 C   0  0  0  0  0  0  0  0  0  0  0  0
    7.6697  -14.1735   26.5082 C   0  0  0  0  0  0  0  0  0  0  0  0
    6.3585  -14.0134   26.1290 C   0  0  0  0  0  0  0  0  0  0  0  0
    5.7348  -12.7732   26.0405 C   0  0  0  0  0  0  0  0  0  0  0  0
    6.4594  -11.6614   26.3445 C   0  0  0  0  0  0  0  0  0  0  0  0
    7.7703  -11.7826   26.7261 C   0  0  0  0  0  0  0  0  0  0  0  0
    8.3698  -13.0208   26.8076 C   0  0  0  0  0  0  0  0  0  0  0  0
   10.0908  -17.0220   26.1747 C   0  0  0  0  0  0  0  0  0  0  0  0
   10.5402  -17.1624   27.3243 O   0  0  0  0  0  0  0  0  0  0  0  0
   10.1846  -18.0641   25.2795 O   0  0  0  0  0  0  0  0  0  0  0  0
  2  1  1  6
  2  3  1  0
  4  3  1  0
  5  4  1  0
  6  5  1  0
  7  6  1  0
  8  9  2  0
  8  2  1  0
 11 10  1  0
 11 13  1  0
 12 11  2  0
 14 13  1  1
 14 15  1  0
 15  8  1  0
 16 14  1  0
 16 18  1  0
 17 16  2  0
 19 20  1  1
 19 18  1  0
 19 27  1  0
 21 26  2  0
 21 20  1  0
 22 21  1  0
 23 24  1  0
 23 22  2  0
 24 25  2  0
 25 26  1  0
 27 28  2  0
 27 29  1  0
M  END
$$$$
