KNF.pdb
     RDKit          3D

 29 29  0  0  1  0  0  0  0  0999 V2000
    7.4872  -19.2469   19.6048 N   0  0  0  0  0  0  0  0  0  0  0  0
    7.0410  -18.4889   20.7913 C   0  0  1  0  0  0  0  0  0  0  0  0
    6.9805  -19.3843   21.9811 C   0  0  0  0  0  0  0  0  0  0  0  0
    6.0693  -20.5397   21.7937 C   0  0  0  0  0  0  0  0  0  0  0  0
    5.9440  -21.3550   23.0823 C   0  0  0  0  0  0  0  0  0  0  0  0
    5.0462  -22.5682   22.8148 C   0  0  0  0  0  0  0  0  0  0  0  0
    4.9542  -23.3895   23.9968 N   0  0  0  0  0  0  0  0  0  0  0  0
    8.0216  -17.4078   20.9930 C   0  0  0  0  0  0  0  0  0  0  0  0
    9.2383  -17.6029   20.6699 O   0  0  0  0  0  0  0  0  0  0  0  0
    8.7072  -14.5527   19.0043 N   0  0  0  0  0  0  0  0  0  0  0  0
    8.2427  -13.5280   19.9014 C   0  0  0  0  0  0  0  0  0  0  0  0
    7.8269  -12.4766   19.4006 O   0  0  0  0  0  0  0  0  0  0  0  0
    8.2960  -13.8053   21.3451 C   0  0  0  0  0  0  0  0  0  0  0  0
    8.7384  -15.1620   21.7521 C   0  0  2  0  0  0  0  0  0  0  0  0
    7.6814  -16.1566   21.5310 N   0  0  0  0  0  0  0  0  0  0  0  0
    9.0786  -15.1661   23.2167 C   0  0  0  0  0  0  0  0  0  0  0  0
   10.1121  -14.6361   23.6626 O   0  0  0  0  0  0  0  0  0  0  0  0
    8.2159  -15.7924   24.1811 N   0  0  0  0  0  0  0  0  0  0  0  0
    8.6337  -15.8788   25.5899 C   0  0  1  0  0  0  0  0  0  0  0  0
    7.4290  -15.5139   26.4002 C   0  0  0  0  0  0  0  0  0  0  0  0
    7.1713  -14.0835   26.5471 C   0  0  0  0  0  0  0  0  0  0  0  0
    8.2228  -13.2314   26.7859 C   0  0  0  0  0  0  0  0  0  0  0  0
    8.0743  -11.8557   26.9277 C   0  0  0  0  0  0  0  0  0  0  0  0
    6.8244  -11.3258   26.8251 C   0  0  0  0  0  0  0  0  0  0  0  0
    5.7516  -12.1453   26.5879 C   0  0  0  0  0  0  0  0  0  0  0  0
    5.9200  -13.5061   26.4504 C   0  0  0  0  0  0  0  0  0  0  0  0
    9.0033  -17.2769   25.8615 C   0  0  0  0  0  0  0  0  0  0  0  0
    9.3739  -17.6298   26.9936 O   0  0  0  0  0  0  0  0  0  0  0  0
    8.9371  -18.2089   24.8501 O   0  0  0  0  0  0  0  0  0  0  0  0
  2  1  1  6
  2  3  1  0
  4  3  1  0
  5  4  1  0
  6  5  1  0
  7  6  1  0
  8  9  2  0
  8  2  1  0
 11 10  1  0
 11 13  1  0
 12 11  2  0
 14 13  1  1
 14 15  1  0
 15  8  1  0
 16 14  1  0
 16 18  1  0
 17 16  2  0
 19 20  1  1
 19 18  1  0
 19 27  1  0
 21 26  2  0
 21 20  1  0
 22 21  1  0
 23 24  1  0
 23 22  2  0
 24 25  2  0
 25 26  1  0
 27 28  2  0
 27 29  1  0
M  END
$$$$
