KNF.pdb
     RDKit          3D

 29 29  0  0  1  0  0  0  0  0999 V2000
   10.6926  -15.2058   19.3374 N   0  0  0  0  0  0  0  0  0  0  0  0
    9.8145  -14.3848   20.1952 C   0  0  1  0  0  0  0  0  0  0  0  0
    8.5798  -14.0038   19.4526 C   0  0  0  0  0  0  0  0  0  0  0  0
    8.7547  -14.0331   17.9798 C   0  0  0  0  0  0  0  0  0  0  0  0
    7.4963  -13.5334   17.2673 C   0  0  0  0  0  0  0  0  0  0  0  0
    7.7282  -13.5936   15.7534 C   0  0  0  0  0  0  0  0  0  0  0  0
    6.5276  -13.2132   15.0505 N   0  0  0  0  0  0  0  0  0  0  0  0
    9.4895  -15.2072   21.3738 C   0  0  0  0  0  0  0  0  0  0  0  0
    8.5960  -14.8035   22.1873 O   0  0  0  0  0  0  0  0  0  0  0  0
   12.3327  -19.3727   21.9702 N   0  0  0  0  0  0  0  0  0  0  0  0
   10.9967  -18.9818   21.6054 C   0  0  0  0  0  0  0  0  0  0  0  0
   10.7163  -18.9629   20.4012 O   0  0  0  0  0  0  0  0  0  0  0  0
   10.0643  -18.6343   22.6890 C   0  0  0  0  0  0  0  0  0  0  0  0
    9.6973  -17.2030   22.8255 C   0  0  2  0  0  0  0  0  0  0  0  0
   10.1221  -16.4291   21.6525 N   0  0  0  0  0  0  0  0  0  0  0  0
   10.3740  -16.6194   24.0348 C   0  0  0  0  0  0  0  0  0  0  0  0
   11.6119  -16.5484   24.1367 O   0  0  0  0  0  0  0  0  0  0  0  0
    9.6125  -16.1125   25.1437 N   0  0  0  0  0  0  0  0  0  0  0  0
   10.3072  -15.6122   26.3411 C   0  0  1  0  0  0  0  0  0  0  0  0
   10.1615  -14.1227   26.3100 C   0  0  0  0  0  0  0  0  0  0  0  0
    8.7905  -13.6184   26.2922 C   0  0  0  0  0  0  0  0  0  0  0  0
    8.0716  -13.6652   25.1218 C   0  0  0  0  0  0  0  0  0  0  0  0
    6.7584  -13.2196   25.0136 C   0  0  0  0  0  0  0  0  0  0  0  0
    6.1541  -12.7111   26.1226 C   0  0  0  0  0  0  0  0  0  0  0  0
    6.8406  -12.6482   27.3074 C   0  0  0  0  0  0  0  0  0  0  0  0
    8.1414  -13.0951   27.3936 C   0  0  0  0  0  0  0  0  0  0  0  0
    9.6095  -16.1496   27.5198 C   0  0  0  0  0  0  0  0  0  0  0  0
    9.9906  -15.8697   28.6686 O   0  0  0  0  0  0  0  0  0  0  0  0
    8.5185  -16.9725   27.3506 O   0  0  0  0  0  0  0  0  0  0  0  0
  2  1  1  6
  2  3  1  0
  4  3  1  0
  5  4  1  0
  6  5  1  0
  7  6  1  0
  8  9  2  0
  8  2  1  0
 11 10  1  0
 11 13  1  0
 12 11  2  0
 14 13  1  6
 14 15  1  0
 15  8  1  0
 16 14  1  0
 16 18  1  0
 17 16  2  0
 19 20  1  1
 19 18  1  0
 19 27  1  0
 21 26  2  0
 21 20  1  0
 22 21  1  0
 23 24  1  0
 23 22  2  0
 24 25  2  0
 25 26  1  0
 27 28  2  0
 27 29  1  0
M  END
$$$$
