KNF.pdb
     RDKit          3D

 29 29  0  0  1  0  0  0  0  0999 V2000
    9.8265  -13.6753   19.4695 N   0  0  0  0  0  0  0  0  0  0  0  0
    8.4444  -13.5237   19.9676 C   0  0  1  0  0  0  0  0  0  0  0  0
    7.4735  -13.6850   18.8485 C   0  0  0  0  0  0  0  0  0  0  0  0
    8.0021  -13.2088   17.5469 C   0  0  0  0  0  0  0  0  0  0  0  0
    8.3536  -14.3848   16.6335 C   0  0  0  0  0  0  0  0  0  0  0  0
    7.4065  -14.3755   15.4284 C   0  0  0  0  0  0  0  0  0  0  0  0
    8.1566  -14.5188   14.2049 N   0  0  0  0  0  0  0  0  0  0  0  0
    8.2493  -14.5661   20.9907 C   0  0  0  0  0  0  0  0  0  0  0  0
    7.1259  -14.6520   21.5852 O   0  0  0  0  0  0  0  0  0  0  0  0
   11.3538  -16.3089   20.8850 N   0  0  0  0  0  0  0  0  0  0  0  0
   10.9607  -17.6416   21.2593 C   0  0  0  0  0  0  0  0  0  0  0  0
   11.7347  -18.5646   20.9802 O   0  0  0  0  0  0  0  0  0  0  0  0
    9.6699  -17.8081   21.9452 C   0  0  0  0  0  0  0  0  0  0  0  0
    8.9231  -16.5703   22.2800 C   0  0  2  0  0  0  0  0  0  0  0  0
    9.2505  -15.4818   21.3509 N   0  0  0  0  0  0  0  0  0  0  0  0
    9.2860  -16.1191   23.6676 C   0  0  0  0  0  0  0  0  0  0  0  0
   10.3227  -15.4752   23.9095 O   0  0  0  0  0  0  0  0  0  0  0  0
    8.4428  -16.4168   24.7932 N   0  0  0  0  0  0  0  0  0  0  0  0
    8.8488  -15.9951   26.1438 C   0  0  1  0  0  0  0  0  0  0  0  0
    7.6133  -15.4583   26.7968 C   0  0  0  0  0  0  0  0  0  0  0  0
    7.2946  -14.0630   26.5038 C   0  0  0  0  0  0  0  0  0  0  0  0
    8.3141  -13.1836   26.2280 C   0  0  0  0  0  0  0  0  0  0  0  0
    8.1051  -11.8418   25.9269 C   0  0  0  0  0  0  0  0  0  0  0  0
    6.8263  -11.3753   25.9044 C   0  0  0  0  0  0  0  0  0  0  0  0
    5.7841  -12.2235   26.1749 C   0  0  0  0  0  0  0  0  0  0  0  0
    6.0125  -13.5498   26.4711 C   0  0  0  0  0  0  0  0  0  0  0  0
    9.3061  -17.1921   26.8671 C   0  0  0  0  0  0  0  0  0  0  0  0
    9.1743  -18.3244   26.3732 O   0  0  0  0  0  0  0  0  0  0  0  0
    9.8895  -17.0586   28.1072 O   0  0  0  0  0  0  0  0  0  0  0  0
  2  1  1  6
  2  3  1  0
  4  3  1  0
  5  4  1  0
  6  5  1  0
  7  6  1  0
  8  9  2  0
  8  2  1  0
 11 10  1  0
 11 13  1  0
 12 11  2  0
 14 13  1  6
 14 15  1  0
 15  8  1  0
 16 14  1  0
 16 18  1  0
 17 16  2  0
 19 20  1  1
 19 18  1  0
 19 27  1  0
 21 26  2  0
 21 20  1  0
 22 21  1  0
 23 24  1  0
 23 22  2  0
 24 25  2  0
 25 26  1  0
 27 28  2  0
 27 29  1  0
M  END
$$$$
