INY.pdb
     RDKit          3D

 29 29  0  0  1  0  0  0  0  0999 V2000
   23.7201  -13.7854  -17.8944 C   0  0  0  0  0  0  0  0  0  0  0  0
   24.1799  -13.5069  -16.5039 C   0  0  0  0  0  0  0  0  0  0  0  0
   23.9124  -12.0744  -16.0567 C   0  0  2  0  0  0  0  0  0  0  0  0
   22.6575  -11.6435  -16.8294 C   0  0  0  0  0  0  0  0  0  0  0  0
   25.0343  -11.2316  -16.5658 C   0  0  2  0  0  0  0  0  0  0  0  0
   26.3326  -11.5938  -16.0854 N   0  0  0  0  0  0  0  0  0  0  0  0
   24.8299   -9.7844  -16.2494 C   0  0  0  0  0  0  0  0  0  0  0  0
   25.0888   -9.2904  -15.1265 O   0  0  0  0  0  0  0  0  0  0  0  0
   25.1515   -4.3451  -17.2762 N   0  0  0  0  0  0  0  0  0  0  0  0
   24.0467   -5.1427  -17.5794 C   0  0  0  0  0  0  0  0  0  0  0  0
   22.9003   -4.6124  -17.3985 O   0  0  0  0  0  0  0  0  0  0  0  0
   24.1616   -6.5521  -18.0926 C   0  0  0  0  0  0  0  0  0  0  0  0
   24.1872   -7.4866  -16.9493 C   0  0  2  0  0  0  0  0  0  0  0  0
   24.3260   -8.8610  -17.2007 N   0  0  0  0  0  0  0  0  0  0  0  0
   22.9626   -7.2656  -16.1383 C   0  0  0  0  0  0  0  0  0  0  0  0
   22.0551   -8.1269  -16.1764 O   0  0  0  0  0  0  0  0  0  0  0  0
   17.3919   -6.5793   -9.9140 O   0  0  0  0  0  0  0  0  0  0  0  0
   18.4740   -6.7003  -10.7726 C   0  0  0  0  0  0  0  0  0  0  0  0
   18.4026   -7.4467  -11.9211 C   0  0  0  0  0  0  0  0  0  0  0  0
   19.5089   -7.5302  -12.7343 C   0  0  0  0  0  0  0  0  0  0  0  0
   20.6587   -6.8654  -12.3788 C   0  0  0  0  0  0  0  0  0  0  0  0
   21.8327   -6.9799  -13.2798 C   0  0  0  0  0  0  0  0  0  0  0  0
   21.6230   -6.0261  -14.4321 C   0  0  2  0  0  0  0  0  0  0  0  0
   22.7596   -6.1255  -15.3163 N   0  0  0  0  0  0  0  0  0  0  0  0
   21.4686   -4.6161  -13.9354 C   0  0  0  0  0  0  0  0  0  0  0  0
   20.2194   -4.0965  -13.6532 O   0  0  0  0  0  0  0  0  0  0  0  0
   20.7516   -6.1103  -11.2294 C   0  0  0  0  0  0  0  0  0  0  0  0
   19.6370   -6.0386  -10.4302 C   0  0  0  0  0  0  0  0  0  0  0  0
   22.4563   -3.8679  -13.7607 O   0  0  0  0  0  0  0  0  0  0  0  0
  2  1  1  0
  3  2  1  0
  3  4  1  6
  5  3  1  0
  5  6  1  1
  7  8  2  0
  7  5  1  0
  9 10  1  0
 10 11  2  0
 10 12  1  0
 13 12  1  6
 13 14  1  0
 14  7  1  0
 15 24  1  0
 15 13  1  0
 16 15  2  0
 17 18  1  0
 18 28  2  0
 19 20  2  0
 19 18  1  0
 20 21  1  0
 21 22  1  0
 21 27  2  0
 23 22  1  1
 23 25  1  0
 23 24  1  0
 25 26  1  0
 28 27  1  0
 29 25  2  0
M  END
$$$$
