INY.pdb
     RDKit          3D

 29 29  0  0  1  0  0  0  0  0999 V2000
   18.9633  -14.9838  -20.1429 C   0  0  0  0  0  0  0  0  0  0  0  0
   20.1199  -14.6531  -19.2623 C   0  0  0  0  0  0  0  0  0  0  0  0
   19.8186  -13.5411  -18.2643 C   0  0  2  0  0  0  0  0  0  0  0  0
   19.6918  -12.2678  -19.1129 C   0  0  0  0  0  0  0  0  0  0  0  0
   21.0323  -13.3647  -17.4134 C   0  0  2  0  0  0  0  0  0  0  0  0
   21.4456  -14.5314  -16.6954 N   0  0  0  0  0  0  0  0  0  0  0  0
   20.8556  -12.2660  -16.4145 C   0  0  0  0  0  0  0  0  0  0  0  0
   19.8737  -12.2046  -15.6373 O   0  0  0  0  0  0  0  0  0  0  0  0
   23.2401  -12.1655  -14.7555 N   0  0  0  0  0  0  0  0  0  0  0  0
   23.4444  -10.9142  -14.1713 C   0  0  0  0  0  0  0  0  0  0  0  0
   24.4328  -10.8195  -13.3698 O   0  0  0  0  0  0  0  0  0  0  0  0
   22.5701   -9.7215  -14.4468 C   0  0  0  0  0  0  0  0  0  0  0  0
   21.5665  -10.0786  -15.4699 C   0  0  2  0  0  0  0  0  0  0  0  0
   21.7901  -11.2084  -16.2727 N   0  0  0  0  0  0  0  0  0  0  0  0
   21.3532   -8.8984  -16.3461 C   0  0  0  0  0  0  0  0  0  0  0  0
   22.1693   -8.6831  -17.2705 O   0  0  0  0  0  0  0  0  0  0  0  0
   18.6928   -2.6453  -21.4014 O   0  0  0  0  0  0  0  0  0  0  0  0
   18.8674   -3.7795  -20.6231 C   0  0  0  0  0  0  0  0  0  0  0  0
   20.0407   -4.4896  -20.6375 C   0  0  0  0  0  0  0  0  0  0  0  0
   20.1559   -5.6073  -19.8438 C   0  0  0  0  0  0  0  0  0  0  0  0
   19.0950   -5.9869  -19.0560 C   0  0  0  0  0  0  0  0  0  0  0  0
   19.2550   -7.1988  -18.2142 C   0  0  0  0  0  0  0  0  0  0  0  0
   20.1335   -6.8319  -17.0415 C   0  0  2  0  0  0  0  0  0  0  0  0
   20.2695   -7.9932  -16.1952 N   0  0  0  0  0  0  0  0  0  0  0  0
   19.5398   -5.6880  -16.2684 C   0  0  0  0  0  0  0  0  0  0  0  0
   19.9232   -4.3849  -16.5237 O   0  0  0  0  0  0  0  0  0  0  0  0
   17.9074   -5.2876  -19.0268 C   0  0  0  0  0  0  0  0  0  0  0  0
   17.8112   -4.1746  -19.8256 C   0  0  0  0  0  0  0  0  0  0  0  0
   18.6844   -5.8718  -15.3738 O   0  0  0  0  0  0  0  0  0  0  0  0
  2  1  1  0
  3  2  1  0
  3  4  1  6
  5  3  1  0
  5  6  1  1
  7  8  2  0
  7  5  1  0
  9 10  1  0
 10 11  2  0
 10 12  1  0
 13 12  1  1
 13 14  1  0
 14  7  1  0
 15 24  1  0
 15 13  1  0
 16 15  2  0
 17 18  1  0
 18 28  2  0
 19 20  2  0
 19 18  1  0
 20 21  1  0
 21 22  1  0
 21 27  2  0
 23 22  1  6
 23 25  1  0
 23 24  1  0
 25 26  1  0
 28 27  1  0
 29 25  2  0
M  END
$$$$
