INY.pdb
     RDKit          3D

 29 29  0  0  1  0  0  0  0  0999 V2000
   28.0510  -19.4357  -19.1915 C   0  0  0  0  0  0  0  0  0  0  0  0
   28.5008  -20.1988  -17.9924 C   0  0  0  0  0  0  0  0  0  0  0  0
   27.3960  -20.4097  -16.9635 C   0  0  2  0  0  0  0  0  0  0  0  0
   27.1553  -19.0239  -16.3479 C   0  0  0  0  0  0  0  0  0  0  0  0
   27.9568  -21.2652  -15.8763 C   0  0  2  0  0  0  0  0  0  0  0  0
   28.3494  -22.5807  -16.2800 N   0  0  0  0  0  0  0  0  0  0  0  0
   26.9990  -21.4157  -14.7378 C   0  0  0  0  0  0  0  0  0  0  0  0
   26.0225  -22.2014  -14.7696 O   0  0  0  0  0  0  0  0  0  0  0  0
   24.4732  -21.3621  -10.3940 N   0  0  0  0  0  0  0  0  0  0  0  0
   25.6608  -20.6966  -10.0851 C   0  0  0  0  0  0  0  0  0  0  0  0
   25.8376  -20.3965   -8.8576 O   0  0  0  0  0  0  0  0  0  0  0  0
   26.6975  -20.3369  -11.1141 C   0  0  0  0  0  0  0  0  0  0  0  0
   26.2616  -20.8270  -12.4374 C   0  0  2  0  0  0  0  0  0  0  0  0
   27.1258  -20.6771  -13.5336 N   0  0  0  0  0  0  0  0  0  0  0  0
   24.9566  -20.1962  -12.7618 C   0  0  0  0  0  0  0  0  0  0  0  0
   24.9349  -18.9783  -13.0500 O   0  0  0  0  0  0  0  0  0  0  0  0
   18.1739  -17.7021  -16.9116 O   0  0  0  0  0  0  0  0  0  0  0  0
   19.3268  -18.2585  -16.3787 C   0  0  0  0  0  0  0  0  0  0  0  0
   20.3161  -17.4812  -15.8325 C   0  0  0  0  0  0  0  0  0  0  0  0
   21.4378  -18.0897  -15.3189 C   0  0  0  0  0  0  0  0  0  0  0  0
   21.5422  -19.4599  -15.3644 C   0  0  0  0  0  0  0  0  0  0  0  0
   22.7674  -20.0810  -14.8022 C   0  0  0  0  0  0  0  0  0  0  0  0
   22.5271  -20.3227  -13.3307 C   0  0  2  0  0  0  0  0  0  0  0  0
   23.7229  -20.8995  -12.7641 N   0  0  0  0  0  0  0  0  0  0  0  0
   21.3556  -21.2415  -13.1259 C   0  0  0  0  0  0  0  0  0  0  0  0
   20.1134  -20.7414  -12.7838 O   0  0  0  0  0  0  0  0  0  0  0  0
   20.5599  -20.2592  -15.9087 C   0  0  0  0  0  0  0  0  0  0  0  0
   19.4475  -19.6339  -16.4164 C   0  0  0  0  0  0  0  0  0  0  0  0
   21.4609  -22.4816  -13.2567 O   0  0  0  0  0  0  0  0  0  0  0  0
  2  1  1  0
  3  2  1  0
  3  4  1  1
  5  3  1  0
  5  6  1  6
  7  8  2  0
  7  5  1  0
  9 10  1  0
 10 11  2  0
 10 12  1  0
 13 12  1  1
 13 14  1  0
 14  7  1  0
 15 24  1  0
 15 13  1  0
 16 15  2  0
 17 18  1  0
 18 28  2  0
 19 20  2  0
 19 18  1  0
 20 21  1  0
 21 22  1  0
 21 27  2  0
 23 22  1  6
 23 25  1  0
 23 24  1  0
 25 26  1  0
 28 27  1  0
 29 25  2  0
M  END
$$$$
