INY.pdb
     RDKit          3D

 29 29  0  0  1  0  0  0  0  0999 V2000
   22.9918  -14.8066  -22.2020 C   0  0  0  0  0  0  0  0  0  0  0  0
   22.4701  -15.1438  -20.8468 C   0  0  0  0  0  0  0  0  0  0  0  0
   23.2003  -16.3118  -20.1938 C   0  0  2  0  0  0  0  0  0  0  0  0
   22.8778  -17.5264  -21.0758 C   0  0  0  0  0  0  0  0  0  0  0  0
   22.5503  -16.5618  -18.8734 C   0  0  2  0  0  0  0  0  0  0  0  0
   22.6812  -15.5014  -17.9215 N   0  0  0  0  0  0  0  0  0  0  0  0
   23.0668  -17.8073  -18.2269 C   0  0  0  0  0  0  0  0  0  0  0  0
   23.0049  -18.9337  -18.7741 O   0  0  0  0  0  0  0  0  0  0  0  0
   26.3514  -18.5428  -17.9684 N   0  0  0  0  0  0  0  0  0  0  0  0
   26.5623  -18.6331  -16.5914 C   0  0  0  0  0  0  0  0  0  0  0  0
   27.7670  -18.4950  -16.1940 O   0  0  0  0  0  0  0  0  0  0  0  0
   25.4569  -18.8784  -15.6010 C   0  0  0  0  0  0  0  0  0  0  0  0
   24.1685  -18.9591  -16.3185 C   0  0  2  0  0  0  0  0  0  0  0  0
   23.6668  -17.8054  -16.9417 N   0  0  0  0  0  0  0  0  0  0  0  0
   23.1442  -19.4851  -15.3802 C   0  0  0  0  0  0  0  0  0  0  0  0
   23.4073  -20.5175  -14.7232 O   0  0  0  0  0  0  0  0  0  0  0  0
   17.4434  -15.3082  -17.3822 O   0  0  0  0  0  0  0  0  0  0  0  0
   18.0940  -16.0814  -16.4327 C   0  0  0  0  0  0  0  0  0  0  0  0
   17.4722  -17.1348  -15.8122 C   0  0  0  0  0  0  0  0  0  0  0  0
   18.1683  -17.8661  -14.8779 C   0  0  0  0  0  0  0  0  0  0  0  0
   19.4684  -17.5258  -14.5875 C   0  0  0  0  0  0  0  0  0  0  0  0
   20.1873  -18.3364  -13.5730 C   0  0  0  0  0  0  0  0  0  0  0  0
   20.8931  -19.4587  -14.2968 C   0  0  2  0  0  0  0  0  0  0  0  0
   21.8744  -18.8806  -15.1837 N   0  0  0  0  0  0  0  0  0  0  0  0
   19.9126  -20.2917  -15.0734 C   0  0  0  0  0  0  0  0  0  0  0  0
   18.9737  -21.0710  -14.4243 O   0  0  0  0  0  0  0  0  0  0  0  0
   20.1116  -16.4712  -15.1993 C   0  0  0  0  0  0  0  0  0  0  0  0
   19.4007  -15.7529  -16.1292 C   0  0  0  0  0  0  0  0  0  0  0  0
   19.9103  -20.3099  -16.3247 O   0  0  0  0  0  0  0  0  0  0  0  0
  2  1  1  0
  3  2  1  0
  3  4  1  6
  5  3  1  0
  5  6  1  1
  7  8  2  0
  7  5  1  0
  9 10  1  0
 10 11  2  0
 10 12  1  0
 13 12  1  1
 13 14  1  0
 14  7  1  0
 15 24  1  0
 15 13  1  0
 16 15  2  0
 17 18  1  0
 18 28  2  0
 19 20  2  0
 19 18  1  0
 20 21  1  0
 21 22  1  0
 21 27  2  0
 23 22  1  6
 23 25  1  0
 23 24  1  0
 25 26  1  0
 28 27  1  0
 29 25  2  0
M  END
$$$$
