INY.pdb
     RDKit          3D

 29 29  0  0  1  0  0  0  0  0999 V2000
   10.3308   -9.0256  -10.6025 C   0  0  0  0  0  0  0  0  0  0  0  0
   11.0563   -8.4839   -9.4181 C   0  0  0  0  0  0  0  0  0  0  0  0
   11.9829   -7.3224   -9.7589 C   0  0  2  0  0  0  0  0  0  0  0  0
   13.1707   -7.9623  -10.4919 C   0  0  0  0  0  0  0  0  0  0  0  0
   12.5174   -6.7862   -8.4724 C   0  0  2  0  0  0  0  0  0  0  0  0
   11.5255   -6.3575   -7.5343 N   0  0  0  0  0  0  0  0  0  0  0  0
   13.4479   -5.6367   -8.6934 C   0  0  0  0  0  0  0  0  0  0  0  0
   13.0511   -4.4935   -9.0212 O   0  0  0  0  0  0  0  0  0  0  0  0
   17.1510   -2.4933   -9.7202 N   0  0  0  0  0  0  0  0  0  0  0  0
   17.1648   -2.8168   -8.3623 C   0  0  0  0  0  0  0  0  0  0  0  0
   17.8811   -2.0740   -7.6118 O   0  0  0  0  0  0  0  0  0  0  0  0
   16.3918   -3.9683   -7.7798 C   0  0  0  0  0  0  0  0  0  0  0  0
   15.7570   -4.7320   -8.8730 C   0  0  2  0  0  0  0  0  0  0  0  0
   14.8537   -5.7565   -8.5480 N   0  0  0  0  0  0  0  0  0  0  0  0
   16.8293   -5.2899   -9.7363 C   0  0  0  0  0  0  0  0  0  0  0  0
   17.2894   -6.4218   -9.4642 O   0  0  0  0  0  0  0  0  0  0  0  0
   23.0993   -8.2424  -14.3493 O   0  0  0  0  0  0  0  0  0  0  0  0
   22.1624   -7.6976  -13.4843 C   0  0  0  0  0  0  0  0  0  0  0  0
   21.2654   -8.4828  -12.8062 C   0  0  0  0  0  0  0  0  0  0  0  0
   20.3588   -7.8857  -11.9613 C   0  0  0  0  0  0  0  0  0  0  0  0
   20.3718   -6.5186  -11.8158 C   0  0  0  0  0  0  0  0  0  0  0  0
   19.3779   -5.9095  -10.8970 C   0  0  0  0  0  0  0  0  0  0  0  0
   18.3182   -5.2429  -11.7420 C   0  0  2  0  0  0  0  0  0  0  0  0
   17.3670   -4.6091  -10.8605 N   0  0  0  0  0  0  0  0  0  0  0  0
   17.6278   -6.2473  -12.6211 C   0  0  0  0  0  0  0  0  0  0  0  0
   16.2815   -6.5190  -12.4658 O   0  0  0  0  0  0  0  0  0  0  0  0
   21.2645   -5.7114  -12.4878 C   0  0  0  0  0  0  0  0  0  0  0  0
   22.1620   -6.3254  -13.3267 C   0  0  0  0  0  0  0  0  0  0  0  0
   18.2408   -6.8687  -13.5178 O   0  0  0  0  0  0  0  0  0  0  0  0
  2  1  1  0
  3  2  1  0
  3  4  1  6
  5  3  1  0
  5  6  1  1
  7  8  2  0
  7  5  1  0
  9 10  1  0
 10 11  2  0
 10 12  1  0
 13 12  1  1
 13 14  1  0
 14  7  1  0
 15 24  1  0
 15 13  1  0
 16 15  2  0
 17 18  1  0
 18 28  2  0
 19 20  2  0
 19 18  1  0
 20 21  1  0
 21 22  1  0
 21 27  2  0
 23 22  1  1
 23 25  1  0
 23 24  1  0
 25 26  1  0
 28 27  1  0
 29 25  2  0
M  END
$$$$
