INY.pdb
     RDKit          3D

 29 29  0  0  1  0  0  0  0  0999 V2000
   29.3764   -1.1091  -21.0111 C   0  0  0  0  0  0  0  0  0  0  0  0
   28.5995   -1.6676  -19.8679 C   0  0  0  0  0  0  0  0  0  0  0  0
   27.3325   -2.3968  -20.2998 C   0  0  2  0  0  0  0  0  0  0  0  0
   26.4013   -1.2974  -20.8304 C   0  0  0  0  0  0  0  0  0  0  0  0
   26.6886   -2.9399  -19.0675 C   0  0  2  0  0  0  0  0  0  0  0  0
   27.4590   -3.9159  -18.3593 N   0  0  0  0  0  0  0  0  0  0  0  0
   25.3557   -3.5513  -19.3603 C   0  0  0  0  0  0  0  0  0  0  0  0
   24.4655   -2.9602  -20.0160 O   0  0  0  0  0  0  0  0  0  0  0  0
   21.3350   -6.4042  -20.1194 N   0  0  0  0  0  0  0  0  0  0  0  0
   22.3150   -7.3239  -19.7418 C   0  0  0  0  0  0  0  0  0  0  0  0
   22.0024   -8.5567  -19.8444 O   0  0  0  0  0  0  0  0  0  0  0  0
   23.6742   -6.9221  -19.2378 C   0  0  0  0  0  0  0  0  0  0  0  0
   23.7583   -5.4486  -19.1840 C   0  0  2  0  0  0  0  0  0  0  0  0
   24.9997   -4.8502  -18.9157 N   0  0  0  0  0  0  0  0  0  0  0  0
   22.7633   -4.9602  -18.1952 C   0  0  0  0  0  0  0  0  0  0  0  0
   22.9717   -5.1743  -16.9797 O   0  0  0  0  0  0  0  0  0  0  0  0
   16.2749   -0.8754  -14.2374 O   0  0  0  0  0  0  0  0  0  0  0  0
   17.1954   -1.2797  -15.1924 C   0  0  0  0  0  0  0  0  0  0  0  0
   16.8009   -1.7941  -16.4011 C   0  0  0  0  0  0  0  0  0  0  0  0
   17.7598   -2.1786  -17.3094 C   0  0  0  0  0  0  0  0  0  0  0  0
   19.0889   -2.0392  -16.9863 C   0  0  0  0  0  0  0  0  0  0  0  0
   20.0951   -2.4661  -17.9904 C   0  0  0  0  0  0  0  0  0  0  0  0
   20.6449   -3.8027  -17.5513 C   0  0  2  0  0  0  0  0  0  0  0  0
   21.5805   -4.2594  -18.5511 N   0  0  0  0  0  0  0  0  0  0  0  0
   19.5371   -4.8030  -17.3761 C   0  0  0  0  0  0  0  0  0  0  0  0
   18.9480   -4.9997  -16.1414 O   0  0  0  0  0  0  0  0  0  0  0  0
   19.5066   -1.5247  -15.7775 C   0  0  0  0  0  0  0  0  0  0  0  0
   18.5350   -1.1463  -14.8837 C   0  0  0  0  0  0  0  0  0  0  0  0
   19.1113   -5.4880  -18.3329 O   0  0  0  0  0  0  0  0  0  0  0  0
  2  1  1  0
  3  2  1  0
  3  4  1  1
  5  3  1  0
  5  6  1  6
  7  8  2  0
  7  5  1  0
  9 10  1  0
 10 11  2  0
 10 12  1  0
 13 12  1  1
 13 14  1  0
 14  7  1  0
 15 24  1  0
 15 13  1  0
 16 15  2  0
 17 18  1  0
 18 28  2  0
 19 20  2  0
 19 18  1  0
 20 21  1  0
 21 22  1  0
 21 27  2  0
 23 22  1  6
 23 25  1  0
 23 24  1  0
 25 26  1  0
 28 27  1  0
 29 25  2  0
M  END
$$$$
