INY.pdb
     RDKit          3D

 29 29  0  0  1  0  0  0  0  0999 V2000
   39.7859  -13.3298  -10.3072 C   0  0  0  0  0  0  0  0  0  0  0  0
   39.8081  -11.8410  -10.2319 C   0  0  0  0  0  0  0  0  0  0  0  0
   39.8002  -11.3100   -8.8030 C   0  0  2  0  0  0  0  0  0  0  0  0
   38.4136  -11.6714   -8.2515 C   0  0  0  0  0  0  0  0  0  0  0  0
   39.8507   -9.8202   -8.8808 C   0  0  2  0  0  0  0  0  0  0  0  0
   40.4078   -9.2935  -10.0890 N   0  0  0  0  0  0  0  0  0  0  0  0
   40.6190   -9.2301   -7.7416 C   0  0  0  0  0  0  0  0  0  0  0  0
   40.1719   -9.1834   -6.5712 O   0  0  0  0  0  0  0  0  0  0  0  0
   43.4381  -10.0068   -4.3599 N   0  0  0  0  0  0  0  0  0  0  0  0
   43.6824   -9.9144   -5.7312 C   0  0  0  0  0  0  0  0  0  0  0  0
   43.6974  -11.0143   -6.3778 O   0  0  0  0  0  0  0  0  0  0  0  0
   43.9190   -8.6098   -6.4418 C   0  0  0  0  0  0  0  0  0  0  0  0
   42.6227   -8.0448   -6.8682 C   0  0  2  0  0  0  0  0  0  0  0  0
   41.9154   -8.6777   -7.9028 N   0  0  0  0  0  0  0  0  0  0  0  0
   42.8310   -6.6188   -7.2278 C   0  0  0  0  0  0  0  0  0  0  0  0
   43.2717   -6.3465   -8.3673 O   0  0  0  0  0  0  0  0  0  0  0  0
   37.5627   -1.0007   -5.4789 O   0  0  0  0  0  0  0  0  0  0  0  0
   38.6221   -1.6729   -6.0693 C   0  0  0  0  0  0  0  0  0  0  0  0
   39.7163   -1.0056   -6.5580 C   0  0  0  0  0  0  0  0  0  0  0  0
   40.7371   -1.7261   -7.1334 C   0  0  0  0  0  0  0  0  0  0  0  0
   40.6382   -3.0956   -7.2058 C   0  0  0  0  0  0  0  0  0  0  0  0
   41.7581   -3.8394   -7.8349 C   0  0  0  0  0  0  0  0  0  0  0  0
   42.7585   -4.1673   -6.7517 C   0  0  2  0  0  0  0  0  0  0  0  0
   42.5572   -5.5384   -6.3479 N   0  0  0  0  0  0  0  0  0  0  0  0
   42.5921   -3.2460   -5.5761 C   0  0  0  0  0  0  0  0  0  0  0  0
   43.0304   -1.9365   -5.6338 O   0  0  0  0  0  0  0  0  0  0  0  0
   39.5477   -3.7854   -6.7210 C   0  0  0  0  0  0  0  0  0  0  0  0
   38.5387   -3.0491   -6.1500 C   0  0  0  0  0  0  0  0  0  0  0  0
   42.0556   -3.6273   -4.5118 O   0  0  0  0  0  0  0  0  0  0  0  0
  2  1  1  0
  3  2  1  0
  3  4  1  6
  5  3  1  0
  5  6  1  6
  7  8  2  0
  7  5  1  0
  9 10  1  0
 10 11  2  0
 10 12  1  0
 13 12  1  6
 13 14  1  0
 14  7  1  0
 15 24  1  0
 15 13  1  0
 16 15  2  0
 17 18  1  0
 18 28  2  0
 19 20  2  0
 19 18  1  0
 20 21  1  0
 21 22  1  0
 21 27  2  0
 23 22  1  6
 23 25  1  0
 23 24  1  0
 25 26  1  0
 28 27  1  0
 29 25  2  0
M  END
$$$$
