YTI.pdb
     RDKit          3D

 28 28  0  0  1  0  0  0  0  0999 V2000
   23.5746  -29.6814  -17.2203 O   0  0  0  0  0  0  0  0  0  0  0  0
   24.1868  -28.4776  -16.8347 C   0  0  0  0  0  0  0  0  0  0  0  0
   25.3609  -28.0373  -17.3953 C   0  0  0  0  0  0  0  0  0  0  0  0
   25.9914  -26.8630  -17.0437 C   0  0  0  0  0  0  0  0  0  0  0  0
   25.3908  -26.0947  -16.0653 C   0  0  0  0  0  0  0  0  0  0  0  0
   25.9632  -24.8273  -15.5974 C   0  0  0  0  0  0  0  0  0  0  0  0
   25.1288  -23.6093  -15.9159 C   0  0  2  0  0  0  0  0  0  0  0  0
   25.3491  -23.3621  -17.3501 N   0  0  0  0  0  0  0  0  0  0  0  0
   25.6103  -22.4782  -15.1051 C   0  0  0  0  0  0  0  0  0  0  0  0
   26.0493  -21.4154  -15.6396 O   0  0  0  0  0  0  0  0  0  0  0  0
   24.1950  -26.5112  -15.4724 C   0  0  0  0  0  0  0  0  0  0  0  0
   23.6033  -27.6897  -15.8556 C   0  0  0  0  0  0  0  0  0  0  0  0
   24.4157  -20.0948  -14.7006 C   0  0  0  0  0  0  0  0  0  0  0  0
   24.5333  -20.4319  -13.2342 C   0  0  1  0  0  0  0  0  0  0  0  0
   23.3950  -21.2446  -12.9682 O   0  0  0  0  0  0  0  0  0  0  0  0
   25.7930  -21.2295  -12.9056 C   0  0  2  0  0  0  0  0  0  0  0  0
   25.6240  -22.4801  -13.6835 N   0  0  0  0  0  0  0  0  0  0  0  0
   25.8184  -21.5321  -11.4732 C   0  0  0  0  0  0  0  0  0  0  0  0
   25.2443  -22.5655  -11.0483 O   0  0  0  0  0  0  0  0  0  0  0  0
   30.1460  -20.1434   -8.5637 C   0  0  0  0  0  0  0  0  0  0  0  0
   28.9644  -20.8642   -9.1254 C   0  0  0  0  0  0  0  0  0  0  0  0
   27.6735  -20.3910   -8.4882 C   0  0  2  0  0  0  0  0  0  0  0  0
   27.6522  -20.5535   -7.0036 C   0  0  0  0  0  0  0  0  0  0  0  0
   26.4771  -21.1069   -9.1420 C   0  0  2  0  0  0  0  0  0  0  0  0
   26.4759  -20.6932  -10.5550 N   0  0  0  0  0  0  0  0  0  0  0  0
   25.2784  -20.5529   -8.4961 C   0  0  0  0  0  0  0  0  0  0  0  0
   24.5868  -21.2905   -7.5638 O   0  0  0  0  0  0  0  0  0  0  0  0
   24.8703  -19.4000   -8.7871 O   0  0  0  0  0  0  0  0  0  0  0  0
  2  1  1  0
  3  2  2  0
  4  3  1  0
  5 11  1  0
  5  4  2  0
  6  5  1  0
  7  6  1  0
  7  8  1  6
  9  7  1  0
  9 10  2  0
 11 12  2  0
 12  2  1  0
 14 13  1  6
 15 14  1  0
 16 14  1  0
 16 17  1  6
 17  9  1  0
 18 16  1  0
 19 18  2  0
 21 20  1  0
 22 23  1  1
 22 21  1  0
 24 22  1  0
 24 25  1  6
 25 18  1  0
 26 27  1  0
 26 24  1  0
 28 26  2  0
M  END
$$$$
