YTI.pdb
     RDKit          3D

 28 28  0  0  1  0  0  0  0  0999 V2000
   16.1489  -24.1680    1.6685 O   0  0  0  0  0  0  0  0  0  0  0  0
   16.0792  -22.8667    2.1925 C   0  0  0  0  0  0  0  0  0  0  0  0
   15.1441  -21.9534    1.7704 C   0  0  0  0  0  0  0  0  0  0  0  0
   15.0441  -20.6687    2.2600 C   0  0  0  0  0  0  0  0  0  0  0  0
   15.9488  -20.2944    3.2346 C   0  0  0  0  0  0  0  0  0  0  0  0
   15.9525  -18.9546    3.8328 C   0  0  0  0  0  0  0  0  0  0  0  0
   15.0862  -18.8167    5.0622 C   0  0  2  0  0  0  0  0  0  0  0  0
   13.7063  -18.9741    4.5744 N   0  0  0  0  0  0  0  0  0  0  0  0
   15.2922  -17.4783    5.6411 C   0  0  0  0  0  0  0  0  0  0  0  0
   14.6230  -16.4743    5.2511 O   0  0  0  0  0  0  0  0  0  0  0  0
   16.9146  -21.1977    3.6887 C   0  0  0  0  0  0  0  0  0  0  0  0
   16.9755  -22.4681    3.1709 C   0  0  0  0  0  0  0  0  0  0  0  0
   14.5926  -16.6106    9.0164 C   0  0  0  0  0  0  0  0  0  0  0  0
   16.0185  -16.1751    8.7823 C   0  0  1  0  0  0  0  0  0  0  0  0
   16.7987  -17.2958    9.1854 O   0  0  0  0  0  0  0  0  0  0  0  0
   16.3157  -15.8725    7.3156 C   0  0  2  0  0  0  0  0  0  0  0  0
   16.2390  -17.2024    6.6651 N   0  0  0  0  0  0  0  0  0  0  0  0
   17.6722  -15.3348    7.1941 C   0  0  0  0  0  0  0  0  0  0  0  0
   18.6196  -16.1053    6.8994 O   0  0  0  0  0  0  0  0  0  0  0  0
   18.6676  -11.7661    3.8514 C   0  0  0  0  0  0  0  0  0  0  0  0
   18.8008  -12.8743    4.8439 C   0  0  0  0  0  0  0  0  0  0  0  0
   19.2657  -12.3580    6.1907 C   0  0  2  0  0  0  0  0  0  0  0  0
   20.5660  -11.6258    6.1268 C   0  0  0  0  0  0  0  0  0  0  0  0
   19.3319  -13.5197    7.1992 C   0  0  2  0  0  0  0  0  0  0  0  0
   17.9438  -13.9693    7.3962 N   0  0  0  0  0  0  0  0  0  0  0  0
   19.8106  -12.9295    8.4576 C   0  0  0  0  0  0  0  0  0  0  0  0
   21.1575  -12.8672    8.7286 O   0  0  0  0  0  0  0  0  0  0  0  0
   18.9966  -12.4753    9.3012 O   0  0  0  0  0  0  0  0  0  0  0  0
  2  1  1  0
  3  2  2  0
  4  3  1  0
  5 11  1  0
  5  4  2  0
  6  5  1  0
  7  6  1  0
  7  8  1  6
  9  7  1  0
  9 10  2  0
 11 12  2  0
 12  2  1  0
 14 13  1  6
 15 14  1  0
 16 14  1  0
 16 17  1  6
 17  9  1  0
 18 16  1  0
 19 18  2  0
 21 20  1  0
 22 23  1  6
 22 21  1  0
 24 22  1  0
 24 25  1  1
 25 18  1  0
 26 27  1  0
 26 24  1  0
 28 26  2  0
M  END
$$$$
