YTI.pdb
     RDKit          3D

 28 28  0  0  1  0  0  0  0  0999 V2000
   16.5128  -16.5657  -19.5874 O   0  0  0  0  0  0  0  0  0  0  0  0
   16.9004  -15.5240  -18.7286 C   0  0  0  0  0  0  0  0  0  0  0  0
   17.1076  -15.7180  -17.3846 C   0  0  0  0  0  0  0  0  0  0  0  0
   17.4880  -14.7221  -16.5107 C   0  0  0  0  0  0  0  0  0  0  0  0
   17.6668  -13.4574  -17.0369 C   0  0  0  0  0  0  0  0  0  0  0  0
   18.0646  -12.3106  -16.2127 C   0  0  0  0  0  0  0  0  0  0  0  0
   19.4370  -11.7626  -16.5249 C   0  0  2  0  0  0  0  0  0  0  0  0
   20.3732  -12.8117  -16.0892 N   0  0  0  0  0  0  0  0  0  0  0  0
   19.6393  -10.5223  -15.7573 C   0  0  0  0  0  0  0  0  0  0  0  0
   19.6089  -10.5117  -14.4896 O   0  0  0  0  0  0  0  0  0  0  0  0
   17.4649  -13.2227  -18.4004 C   0  0  0  0  0  0  0  0  0  0  0  0
   17.0861  -14.2471  -19.2330 C   0  0  0  0  0  0  0  0  0  0  0  0
   22.4663   -8.8564  -15.0941 C   0  0  0  0  0  0  0  0  0  0  0  0
   21.6078   -7.7788  -15.7102 C   0  0  1  0  0  0  0  0  0  0  0  0
   21.9284   -7.8243  -17.0967 O   0  0  0  0  0  0  0  0  0  0  0  0
   20.1128   -8.0403  -15.5436 C   0  0  2  0  0  0  0  0  0  0  0  0
   19.8810   -9.2568  -16.3583 N   0  0  0  0  0  0  0  0  0  0  0  0
   19.3567   -6.9160  -16.0986 C   0  0  0  0  0  0  0  0  0  0  0  0
   18.8579   -7.0122  -17.2476 O   0  0  0  0  0  0  0  0  0  0  0  0
   14.8619   -6.1421  -16.4318 C   0  0  0  0  0  0  0  0  0  0  0  0
   16.2931   -5.8378  -16.7322 C   0  0  0  0  0  0  0  0  0  0  0  0
   16.9069   -4.9548  -15.6644 C   0  0  2  0  0  0  0  0  0  0  0  0
   16.1460   -3.6905  -15.4330 C   0  0  0  0  0  0  0  0  0  0  0  0
   18.3776   -4.6614  -16.0135 C   0  0  2  0  0  0  0  0  0  0  0  0
   19.1694   -5.7251  -15.3736 N   0  0  0  0  0  0  0  0  0  0  0  0
   18.6977   -3.3863  -15.3555 C   0  0  0  0  0  0  0  0  0  0  0  0
   18.6200   -2.2043  -16.0543 O   0  0  0  0  0  0  0  0  0  0  0  0
   19.0463   -3.3597  -14.1480 O   0  0  0  0  0  0  0  0  0  0  0  0
  2  1  1  0
  3  2  2  0
  4  3  1  0
  5 11  1  0
  5  4  2  0
  6  5  1  0
  7  6  1  0
  7  8  1  1
  9  7  1  0
  9 10  2  0
 11 12  2  0
 12  2  1  0
 14 13  1  1
 15 14  1  0
 16 14  1  0
 16 17  1  6
 17  9  1  0
 18 16  1  0
 19 18  2  0
 21 20  1  0
 22 23  1  6
 22 21  1  0
 24 22  1  0
 24 25  1  1
 25 18  1  0
 26 27  1  0
 26 24  1  0
 28 26  2  0
M  END
$$$$
