YTI.pdb
     RDKit          3D

 28 28  0  0  1  0  0  0  0  0999 V2000
   19.0046  -15.1954  -17.7533 O   0  0  0  0  0  0  0  0  0  0  0  0
   19.4213  -16.0654  -16.7324 C   0  0  0  0  0  0  0  0  0  0  0  0
   18.5626  -16.9462  -16.1212 C   0  0  0  0  0  0  0  0  0  0  0  0
   18.9336  -17.8146  -15.1169 C   0  0  0  0  0  0  0  0  0  0  0  0
   20.2543  -17.7827  -14.7133 C   0  0  0  0  0  0  0  0  0  0  0  0
   20.7743  -18.6511  -13.6510 C   0  0  0  0  0  0  0  0  0  0  0  0
   21.3178  -19.9743  -14.1355 C   0  0  2  0  0  0  0  0  0  0  0  0
   20.1392  -20.7197  -14.6066 N   0  0  0  0  0  0  0  0  0  0  0  0
   21.9628  -20.6652  -13.0062 C   0  0  0  0  0  0  0  0  0  0  0  0
   21.3857  -21.6087  -12.3858 O   0  0  0  0  0  0  0  0  0  0  0  0
   21.1570  -16.8991  -15.3130 C   0  0  0  0  0  0  0  0  0  0  0  0
   20.7410  -16.0520  -16.3106 C   0  0  0  0  0  0  0  0  0  0  0  0
   25.4921  -23.3045  -12.9999 C   0  0  0  0  0  0  0  0  0  0  0  0
   24.3663  -22.3188  -13.1968 C   0  0  1  0  0  0  0  0  0  0  0  0
   23.2052  -23.1327  -13.3245 O   0  0  0  0  0  0  0  0  0  0  0  0
   24.1800  -21.3818  -12.0058 C   0  0  2  0  0  0  0  0  0  0  0  0
   23.2604  -20.3411  -12.5244 N   0  0  0  0  0  0  0  0  0  0  0  0
   25.4674  -20.7798  -11.6534 C   0  0  0  0  0  0  0  0  0  0  0  0
   25.9957  -19.9474  -12.4320 O   0  0  0  0  0  0  0  0  0  0  0  0
   26.9328  -20.2474   -6.3779 C   0  0  0  0  0  0  0  0  0  0  0  0
   26.6780  -20.0023   -7.8291 C   0  0  0  0  0  0  0  0  0  0  0  0
   27.7172  -20.6839   -8.6962 C   0  0  2  0  0  0  0  0  0  0  0  0
   29.1182  -20.2876   -8.3627 C   0  0  0  0  0  0  0  0  0  0  0  0
   27.4062  -20.4258  -10.1821 C   0  0  2  0  0  0  0  0  0  0  0  0
   26.1308  -21.1079  -10.4570 N   0  0  0  0  0  0  0  0  0  0  0  0
   28.4680  -21.1072  -10.9368 C   0  0  0  0  0  0  0  0  0  0  0  0
   29.4899  -20.3844  -11.5067 O   0  0  0  0  0  0  0  0  0  0  0  0
   28.4556  -22.3571  -11.0712 O   0  0  0  0  0  0  0  0  0  0  0  0
  2  1  1  0
  3  2  2  0
  4  3  1  0
  5 11  1  0
  5  4  2  0
  6  5  1  0
  7  6  1  0
  7  8  1  1
  9  7  1  0
  9 10  2  0
 11 12  2  0
 12  2  1  0
 14 13  1  1
 15 14  1  0
 16 14  1  0
 16 17  1  6
 17  9  1  0
 18 16  1  0
 19 18  2  0
 21 20  1  0
 22 23  1  1
 22 21  1  0
 24 22  1  0
 24 25  1  6
 25 18  1  0
 26 27  1  0
 26 24  1  0
 28 26  2  0
M  END
$$$$
