YTI.pdb
     RDKit          3D

 28 28  0  0  1  0  0  0  0  0999 V2000
   32.4561  -25.3128  -18.3148 O   0  0  0  0  0  0  0  0  0  0  0  0
   31.6682  -24.3929  -17.6036 C   0  0  0  0  0  0  0  0  0  0  0  0
   31.0201  -24.7259  -16.4391 C   0  0  0  0  0  0  0  0  0  0  0  0
   30.2389  -23.8522  -15.7136 C   0  0  0  0  0  0  0  0  0  0  0  0
   30.1113  -22.5667  -16.2032 C   0  0  0  0  0  0  0  0  0  0  0  0
   29.3040  -21.5437  -15.5289 C   0  0  0  0  0  0  0  0  0  0  0  0
   27.8148  -21.7910  -15.5768 C   0  0  2  0  0  0  0  0  0  0  0  0
   27.4175  -21.4532  -16.9532 N   0  0  0  0  0  0  0  0  0  0  0  0
   27.1544  -20.9045  -14.6038 C   0  0  0  0  0  0  0  0  0  0  0  0
   26.7432  -19.7496  -14.9279 O   0  0  0  0  0  0  0  0  0  0  0  0
   30.7567  -22.1920  -17.3856 C   0  0  0  0  0  0  0  0  0  0  0  0
   31.5252  -23.0978  -18.0746 C   0  0  0  0  0  0  0  0  0  0  0  0
   24.7447  -19.7360  -14.3549 C   0  0  0  0  0  0  0  0  0  0  0  0
   24.7460  -20.3820  -12.9909 C   0  0  1  0  0  0  0  0  0  0  0  0
   24.3403  -21.7242  -13.2375 O   0  0  0  0  0  0  0  0  0  0  0  0
   26.1275  -20.3986  -12.3411 C   0  0  2  0  0  0  0  0  0  0  0  0
   26.9257  -21.2595  -13.2463 N   0  0  0  0  0  0  0  0  0  0  0  0
   26.0358  -21.0165  -11.0168 C   0  0  0  0  0  0  0  0  0  0  0  0
   26.0612  -22.2683  -10.9144 O   0  0  0  0  0  0  0  0  0  0  0  0
   27.9356  -18.4275   -6.6735 C   0  0  0  0  0  0  0  0  0  0  0  0
   27.5664  -19.4796   -7.6674 C   0  0  0  0  0  0  0  0  0  0  0  0
   26.1407  -19.9531   -7.4681 C   0  0  2  0  0  0  0  0  0  0  0  0
   25.8919  -20.5265   -6.1116 C   0  0  0  0  0  0  0  0  0  0  0  0
   25.7668  -20.9587   -8.5728 C   0  0  2  0  0  0  0  0  0  0  0  0
   25.9230  -20.2407   -9.8486 N   0  0  0  0  0  0  0  0  0  0  0  0
   24.3396  -21.2531   -8.3786 C   0  0  0  0  0  0  0  0  0  0  0  0
   23.9489  -22.3624   -7.6657 O   0  0  0  0  0  0  0  0  0  0  0  0
   23.4593  -20.4964   -8.8611 O   0  0  0  0  0  0  0  0  0  0  0  0
  2  1  1  0
  3  2  2  0
  4  3  1  0
  5 11  1  0
  5  4  2  0
  6  5  1  0
  7  6  1  0
  7  8  1  6
  9  7  1  0
  9 10  2  0
 11 12  2  0
 12  2  1  0
 14 13  1  6
 15 14  1  0
 16 14  1  0
 16 17  1  6
 17  9  1  0
 18 16  1  0
 19 18  2  0
 21 20  1  0
 22 23  1  1
 22 21  1  0
 24 22  1  0
 24 25  1  6
 25 18  1  0
 26 27  1  0
 26 24  1  0
 28 26  2  0
M  END
$$$$
