YTI.pdb
     RDKit          3D

 28 28  0  0  1  0  0  0  0  0999 V2000
   29.8915  -15.3585  -18.9338 O   0  0  0  0  0  0  0  0  0  0  0  0
   29.2035  -15.9394  -17.8559 C   0  0  0  0  0  0  0  0  0  0  0  0
   29.7161  -16.9926  -17.1384 C   0  0  0  0  0  0  0  0  0  0  0  0
   29.0718  -17.5888  -16.0756 C   0  0  0  0  0  0  0  0  0  0  0  0
   27.8352  -17.0827  -15.7250 C   0  0  0  0  0  0  0  0  0  0  0  0
   27.0447  -17.6318  -14.6175 C   0  0  0  0  0  0  0  0  0  0  0  0
   26.4651  -19.0012  -14.8822 C   0  0  2  0  0  0  0  0  0  0  0  0
   25.6427  -18.8384  -16.0921 N   0  0  0  0  0  0  0  0  0  0  0  0
   25.6375  -19.3976  -13.7304 C   0  0  0  0  0  0  0  0  0  0  0  0
   24.3729  -19.3083  -13.7575 O   0  0  0  0  0  0  0  0  0  0  0  0
   27.2821  -16.0111  -16.4327 C   0  0  0  0  0  0  0  0  0  0  0  0
   27.9618  -15.4490  -17.4853 C   0  0  0  0  0  0  0  0  0  0  0  0
   24.3540  -21.6865  -13.6290 C   0  0  0  0  0  0  0  0  0  0  0  0
   24.9827  -21.9318  -12.2790 C   0  0  1  0  0  0  0  0  0  0  0  0
   26.1871  -22.6312  -12.5744 O   0  0  0  0  0  0  0  0  0  0  0  0
   25.3329  -20.6415  -11.5418 C   0  0  2  0  0  0  0  0  0  0  0  0
   26.1734  -19.9037  -12.5148 N   0  0  0  0  0  0  0  0  0  0  0  0
   26.1160  -20.9604  -10.3464 C   0  0  0  0  0  0  0  0  0  0  0  0
   27.3461  -21.1913  -10.4554 O   0  0  0  0  0  0  0  0  0  0  0  0
   28.8368  -18.8045   -6.2243 C   0  0  0  0  0  0  0  0  0  0  0  0
   28.1022  -20.0753   -6.5010 C   0  0  0  0  0  0  0  0  0  0  0  0
   27.1755  -19.9306   -7.6913 C   0  0  2  0  0  0  0  0  0  0  0  0
   26.2320  -18.7791   -7.5700 C   0  0  0  0  0  0  0  0  0  0  0  0
   26.4148  -21.2494   -7.9223 C   0  0  2  0  0  0  0  0  0  0  0  0
   25.5248  -21.0119   -9.0709 N   0  0  0  0  0  0  0  0  0  0  0  0
   25.5840  -21.4463   -6.7256 C   0  0  0  0  0  0  0  0  0  0  0  0
   26.1212  -22.0072   -5.5905 O   0  0  0  0  0  0  0  0  0  0  0  0
   24.3739  -21.1057   -6.7242 O   0  0  0  0  0  0  0  0  0  0  0  0
  2  1  1  0
  3  2  2  0
  4  3  1  0
  5 11  1  0
  5  4  2  0
  6  5  1  0
  7  6  1  0
  7  8  1  6
  9  7  1  0
  9 10  2  0
 11 12  2  0
 12  2  1  0
 14 13  1  6
 15 14  1  0
 16 14  1  0
 16 17  1  6
 17  9  1  0
 18 16  1  0
 19 18  2  0
 21 20  1  0
 22 23  1  1
 22 21  1  0
 24 22  1  0
 24 25  1  6
 25 18  1  0
 26 27  1  0
 26 24  1  0
 28 26  2  0
M  END
$$$$
