YTI.pdb
     RDKit          3D

 28 28  0  0  1  0  0  0  0  0999 V2000
   18.2886  -14.3339  -17.2772 O   0  0  0  0  0  0  0  0  0  0  0  0
   18.9120  -15.4740  -16.7439 C   0  0  0  0  0  0  0  0  0  0  0  0
   18.3367  -16.7201  -16.7991 C   0  0  0  0  0  0  0  0  0  0  0  0
   18.9165  -17.8613  -16.2876 C   0  0  0  0  0  0  0  0  0  0  0  0
   20.1524  -17.7239  -15.6859 C   0  0  0  0  0  0  0  0  0  0  0  0
   20.8724  -18.8589  -15.0975 C   0  0  0  0  0  0  0  0  0  0  0  0
   21.6354  -19.6993  -16.0939 C   0  0  2  0  0  0  0  0  0  0  0  0
   20.6300  -20.6010  -16.6795 N   0  0  0  0  0  0  0  0  0  0  0  0
   22.6735  -20.4597  -15.3778 C   0  0  0  0  0  0  0  0  0  0  0  0
   22.4003  -21.5217  -14.7409 O   0  0  0  0  0  0  0  0  0  0  0  0
   20.7684  -16.4708  -15.6115 C   0  0  0  0  0  0  0  0  0  0  0  0
   20.1518  -15.3614  -16.1357 C   0  0  0  0  0  0  0  0  0  0  0  0
   27.4011  -21.7352  -15.1515 C   0  0  0  0  0  0  0  0  0  0  0  0
   26.1930  -20.9977  -15.6752 C   0  0  1  0  0  0  0  0  0  0  0  0
   25.7512  -21.7848  -16.7764 O   0  0  0  0  0  0  0  0  0  0  0  0
   25.0624  -20.9052  -14.6534 C   0  0  2  0  0  0  0  0  0  0  0  0
   24.0422  -20.0772  -15.3397 N   0  0  0  0  0  0  0  0  0  0  0  0
   25.5434  -20.2138  -13.4557 C   0  0  0  0  0  0  0  0  0  0  0  0
   25.8288  -18.9920  -13.5186 O   0  0  0  0  0  0  0  0  0  0  0  0
   24.8280  -22.0957   -8.1470 C   0  0  0  0  0  0  0  0  0  0  0  0
   25.5484  -21.8338   -9.4290 C   0  0  0  0  0  0  0  0  0  0  0  0
   25.3494  -20.4051   -9.8935 C   0  0  2  0  0  0  0  0  0  0  0  0
   23.9250  -20.0755  -10.1994 C   0  0  0  0  0  0  0  0  0  0  0  0
   26.2574  -20.1199  -11.1040 C   0  0  2  0  0  0  0  0  0  0  0  0
   25.6919  -20.8844  -12.2280 N   0  0  0  0  0  0  0  0  0  0  0  0
   27.5673  -20.6948  -10.7652 C   0  0  0  0  0  0  0  0  0  0  0  0
   28.4012  -20.0521   -9.8803 O   0  0  0  0  0  0  0  0  0  0  0  0
   27.9418  -21.7793  -11.2792 O   0  0  0  0  0  0  0  0  0  0  0  0
  2  1  1  0
  3  2  2  0
  4  3  1  0
  5 11  1  0
  5  4  2  0
  6  5  1  0
  7  6  1  0
  7  8  1  1
  9  7  1  0
  9 10  2  0
 11 12  2  0
 12  2  1  0
 14 13  1  1
 15 14  1  0
 16 14  1  0
 16 17  1  6
 17  9  1  0
 18 16  1  0
 19 18  2  0
 21 20  1  0
 22 23  1  6
 22 21  1  0
 24 22  1  0
 24 25  1  6
 25 18  1  0
 26 27  1  0
 26 24  1  0
 28 26  2  0
M  END
$$$$
