QKE.pdb
     RDKit          3D

 28 27  0  0  1  0  0  0  0  0999 V2000
   21.4207   -8.1198  -13.3318 N   0  0  0  0  0  0  0  0  0  0  0  0
   21.2228   -8.8888  -14.4969 C   0  0  0  0  0  0  0  0  0  0  0  0
   21.9381   -8.7239  -15.5042 O   0  0  0  0  0  0  0  0  0  0  0  0
   20.1512   -9.9110  -14.5352 C   0  0  0  0  0  0  0  0  0  0  0  0
   18.8044   -9.2717  -14.2710 C   0  0  0  0  0  0  0  0  0  0  0  0
   17.9752  -10.1910  -13.4086 C   0  0  2  0  0  0  0  0  0  0  0  0
   17.4970  -11.2477  -14.2805 N   0  0  0  0  0  0  0  0  0  0  0  0
   16.8505   -9.4893  -12.7513 C   0  0  0  0  0  0  0  0  0  0  0  0
   15.9409   -9.0349  -13.4880 O   0  0  0  0  0  0  0  0  0  0  0  0
   16.7869   -9.3285  -11.3455 N   0  0  0  0  0  0  0  0  0  0  0  0
   15.6462   -8.6526  -10.6827 C   0  0  1  0  0  0  0  0  0  0  0  0
   15.2071   -9.5020   -9.5088 C   0  0  0  0  0  0  0  0  0  0  0  0
   14.1121   -8.9337   -8.6794 C   0  0  0  0  0  0  0  0  0  0  0  0
   12.7958   -9.6658   -8.8883 C   0  0  0  0  0  0  0  0  0  0  0  0
   11.6518   -9.0028   -8.1696 C   0  0  0  0  0  0  0  0  0  0  0  0
   10.3737   -9.5969   -8.4851 N   0  0  0  0  0  0  0  0  0  0  0  0
   16.0815   -7.2943  -10.3243 C   0  0  0  0  0  0  0  0  0  0  0  0
   17.1146   -7.1483   -9.5770 O   0  0  0  0  0  0  0  0  0  0  0  0
   15.4757   -6.0866  -10.7243 N   0  0  0  0  0  0  0  0  0  0  0  0
   15.9736   -4.7627  -10.3472 C   0  0  1  0  0  0  0  0  0  0  0  0
   15.7776   -3.7647  -11.4407 C   0  0  0  0  0  0  0  0  0  0  0  0
   16.1784   -2.3677  -11.1189 C   0  0  0  0  0  0  0  0  0  0  0  0
   15.9841   -1.3906  -12.2104 C   0  0  0  0  0  0  0  0  0  0  0  0
   15.5163   -1.6576  -13.3396 O   0  0  0  0  0  0  0  0  0  0  0  0
   15.3202   -4.2652   -9.1310 C   0  0  0  0  0  0  0  0  0  0  0  0
   14.2538   -4.7985   -8.7392 O   0  0  0  0  0  0  0  0  0  0  0  0
   16.3510   -0.0761  -11.9569 O   0  0  0  0  0  0  0  0  0  0  0  0
   15.8329   -3.2192   -8.3838 O   0  0  0  0  0  0  0  0  0  0  0  0
  1  2  1  0
  2  4  1  0
  2  3  2  0
  4  5  1  0
  5  6  1  0
  6  8  1  0
  6  7  1  6
  8  9  2  0
 10  8  1  0
 10 11  1  0
 11 12  1  1
 13 12  1  0
 14 15  1  0
 14 13  1  0
 16 15  1  0
 17 11  1  0
 17 18  2  0
 19 17  1  0
 20 25  1  0
 20 19  1  0
 20 21  1  6
 22 21  1  0
 23 22  1  0
 23 24  2  0
 25 28  1  0
 26 25  2  0
 27 23  1  0
M  END
$$$$
