QKE.pdb
     RDKit          3D

 28 27  0  0  1  0  0  0  0  0999 V2000
   14.5470   -5.9467   -7.4621 N   0  0  0  0  0  0  0  0  0  0  0  0
   13.2096   -6.3759   -7.3402 C   0  0  0  0  0  0  0  0  0  0  0  0
   12.3649   -5.6827   -6.7406 O   0  0  0  0  0  0  0  0  0  0  0  0
   12.7911   -7.6689   -7.9300 C   0  0  0  0  0  0  0  0  0  0  0  0
   13.9711   -8.3549   -8.5851 C   0  0  0  0  0  0  0  0  0  0  0  0
   13.4818   -9.2050   -9.7316 C   0  0  2  0  0  0  0  0  0  0  0  0
   13.0558  -10.4654   -9.1523 N   0  0  0  0  0  0  0  0  0  0  0  0
   14.5202   -9.4146  -10.7647 C   0  0  0  0  0  0  0  0  0  0  0  0
   15.3873  -10.2955  -10.5446 O   0  0  0  0  0  0  0  0  0  0  0  0
   14.5486   -8.6589  -11.9623 N   0  0  0  0  0  0  0  0  0  0  0  0
   15.5754   -8.8816  -13.0079 C   0  0  1  0  0  0  0  0  0  0  0  0
   14.8682   -9.1642  -14.3164 C   0  0  0  0  0  0  0  0  0  0  0  0
   15.7511   -9.3263  -15.5013 C   0  0  0  0  0  0  0  0  0  0  0  0
   16.0868  -10.7847  -15.7707 C   0  0  0  0  0  0  0  0  0  0  0  0
   16.9991  -10.9526  -16.9558 C   0  0  0  0  0  0  0  0  0  0  0  0
   17.2908  -12.3372  -17.2452 N   0  0  0  0  0  0  0  0  0  0  0  0
   16.4510   -7.7001  -13.0300 C   0  0  0  0  0  0  0  0  0  0  0  0
   15.9398   -6.5422  -12.8175 O   0  0  0  0  0  0  0  0  0  0  0  0
   17.8407   -7.6904  -13.2624 N   0  0  0  0  0  0  0  0  0  0  0  0
   18.6578   -6.4758  -13.2581 C   0  0  1  0  0  0  0  0  0  0  0  0
   20.1028   -6.7808  -13.0364 C   0  0  0  0  0  0  0  0  0  0  0  0
   21.0222   -5.6107  -13.0725 C   0  0  0  0  0  0  0  0  0  0  0  0
   22.4451   -5.9211  -12.8217 C   0  0  0  0  0  0  0  0  0  0  0  0
   23.3249   -6.0246  -13.7050 O   0  0  0  0  0  0  0  0  0  0  0  0
   18.5202   -5.7269  -14.5126 C   0  0  0  0  0  0  0  0  0  0  0  0
   18.3118   -6.3469  -15.5837 O   0  0  0  0  0  0  0  0  0  0  0  0
   22.8290   -6.1114  -11.5013 O   0  0  0  0  0  0  0  0  0  0  0  0
   18.6106   -4.3471  -14.5710 O   0  0  0  0  0  0  0  0  0  0  0  0
  1  2  1  0
  2  4  1  0
  2  3  2  0
  4  5  1  0
  5  6  1  0
  6  8  1  0
  6  7  1  1
  8  9  2  0
 10  8  1  0
 10 11  1  0
 11 12  1  6
 13 12  1  0
 14 15  1  0
 14 13  1  0
 16 15  1  0
 17 11  1  0
 17 18  2  0
 19 17  1  0
 20 25  1  0
 20 19  1  0
 20 21  1  6
 22 21  1  0
 23 22  1  0
 23 24  2  0
 25 28  1  0
 26 25  2  0
 27 23  1  0
M  END
$$$$
