QKE.pdb
     RDKit          3D

 28 27  0  0  1  0  0  0  0  0999 V2000
   18.4603  -20.5910  -15.9363 N   0  0  0  0  0  0  0  0  0  0  0  0
   19.2597  -21.6246  -15.4067 C   0  0  0  0  0  0  0  0  0  0  0  0
   18.8276  -22.7906  -15.3210 O   0  0  0  0  0  0  0  0  0  0  0  0
   20.6355  -21.3314  -14.9421 C   0  0  0  0  0  0  0  0  0  0  0  0
   20.9416  -19.8572  -15.1008 C   0  0  0  0  0  0  0  0  0  0  0  0
   22.4223  -19.6756  -15.3267 C   0  0  2  0  0  0  0  0  0  0  0  0
   23.0778  -20.1127  -14.1082 N   0  0  0  0  0  0  0  0  0  0  0  0
   22.7779  -18.2769  -15.6536 C   0  0  0  0  0  0  0  0  0  0  0  0
   22.8536  -17.4607  -14.7026 O   0  0  0  0  0  0  0  0  0  0  0  0
   23.0271  -17.8587  -16.9836 N   0  0  0  0  0  0  0  0  0  0  0  0
   23.5040  -16.4915  -17.3012 C   0  0  1  0  0  0  0  0  0  0  0  0
   24.4892  -16.5857  -18.4470 C   0  0  0  0  0  0  0  0  0  0  0  0
   25.9222  -16.6534  -18.0575 C   0  0  0  0  0  0  0  0  0  0  0  0
   26.5847  -17.9377  -18.5307 C   0  0  0  0  0  0  0  0  0  0  0  0
   28.0154  -18.0446  -18.0763 C   0  0  0  0  0  0  0  0  0  0  0  0
   28.5808  -19.3526  -18.3121 N   0  0  0  0  0  0  0  0  0  0  0  0
   22.3219  -15.6618  -17.5792 C   0  0  0  0  0  0  0  0  0  0  0  0
   21.3365  -16.1766  -18.2203 O   0  0  0  0  0  0  0  0  0  0  0  0
   22.1356  -14.3158  -17.2059 N   0  0  0  0  0  0  0  0  0  0  0  0
   20.8862  -13.5806  -17.4098 C   0  0  1  0  0  0  0  0  0  0  0  0
   20.8614  -12.3046  -16.6344 C   0  0  0  0  0  0  0  0  0  0  0  0
   19.5989  -11.5208  -16.7218 C   0  0  0  0  0  0  0  0  0  0  0  0
   19.5866  -10.2605  -15.9502 C   0  0  0  0  0  0  0  0  0  0  0  0
   18.6108   -9.4829  -15.8588 O   0  0  0  0  0  0  0  0  0  0  0  0
   20.6630  -13.2760  -18.8279 C   0  0  0  0  0  0  0  0  0  0  0  0
   21.6456  -13.0416  -19.5725 O   0  0  0  0  0  0  0  0  0  0  0  0
   20.7510   -9.9187  -15.2763 O   0  0  0  0  0  0  0  0  0  0  0  0
   19.3997  -13.2347  -19.3917 O   0  0  0  0  0  0  0  0  0  0  0  0
  1  2  1  0
  2  4  1  0
  2  3  2  0
  4  5  1  0
  5  6  1  0
  6  8  1  0
  6  7  1  1
  8  9  2  0
 10  8  1  0
 10 11  1  0
 11 12  1  6
 13 12  1  0
 14 15  1  0
 14 13  1  0
 16 15  1  0
 17 11  1  0
 17 18  2  0
 19 17  1  0
 20 25  1  0
 20 19  1  0
 20 21  1  1
 22 21  1  0
 23 22  1  0
 23 24  2  0
 25 28  1  0
 26 25  2  0
 27 23  1  0
M  END
$$$$
