QKE.pdb
     RDKit          3D

 28 27  0  0  1  0  0  0  0  0999 V2000
   25.0430  -16.7976  -22.1016 N   0  0  0  0  0  0  0  0  0  0  0  0
   25.3608  -15.5177  -21.6032 C   0  0  0  0  0  0  0  0  0  0  0  0
   25.5655  -14.5607  -22.3751 O   0  0  0  0  0  0  0  0  0  0  0  0
   25.4557  -15.2957  -20.1415 C   0  0  0  0  0  0  0  0  0  0  0  0
   25.2926  -16.6050  -19.3988 C   0  0  0  0  0  0  0  0  0  0  0  0
   24.1898  -16.4668  -18.3784 C   0  0  2  0  0  0  0  0  0  0  0  0
   24.6406  -15.4727  -17.4222 N   0  0  0  0  0  0  0  0  0  0  0  0
   23.8735  -17.7481  -17.7094 C   0  0  0  0  0  0  0  0  0  0  0  0
   23.6045  -18.7328  -18.4405 O   0  0  0  0  0  0  0  0  0  0  0  0
   23.8706  -17.8759  -16.2988 N   0  0  0  0  0  0  0  0  0  0  0  0
   23.4987  -19.1429  -15.6253 C   0  0  1  0  0  0  0  0  0  0  0  0
   24.5849  -19.4885  -14.6289 C   0  0  0  0  0  0  0  0  0  0  0  0
   24.3337  -20.6955  -13.7983 C   0  0  0  0  0  0  0  0  0  0  0  0
   25.4977  -21.0049  -12.8701 C   0  0  0  0  0  0  0  0  0  0  0  0
   25.2261  -22.1938  -11.9882 C   0  0  0  0  0  0  0  0  0  0  0  0
   26.3204  -22.4872  -11.0925 N   0  0  0  0  0  0  0  0  0  0  0  0
   22.1648  -18.9573  -15.0342 C   0  0  0  0  0  0  0  0  0  0  0  0
   21.9138  -17.8756  -14.3908 O   0  0  0  0  0  0  0  0  0  0  0  0
   21.0862  -19.8619  -15.0975 N   0  0  0  0  0  0  0  0  0  0  0  0
   19.7811  -19.6161  -14.4817 C   0  0  1  0  0  0  0  0  0  0  0  0
   18.6748  -20.2573  -15.2530 C   0  0  0  0  0  0  0  0  0  0  0  0
   17.2985  -19.9814  -14.7578 C   0  0  0  0  0  0  0  0  0  0  0  0
   16.2137  -20.6370  -15.5176 C   0  0  0  0  0  0  0  0  0  0  0  0
   16.3807  -21.4199  -16.4789 O   0  0  0  0  0  0  0  0  0  0  0  0
   19.7357  -20.1025  -13.0978 C   0  0  0  0  0  0  0  0  0  0  0  0
   20.4494  -21.0784  -12.7613 O   0  0  0  0  0  0  0  0  0  0  0  0
   14.9103  -20.3586  -15.1294 O   0  0  0  0  0  0  0  0  0  0  0  0
   18.9304  -19.5262  -12.1310 O   0  0  0  0  0  0  0  0  0  0  0  0
  1  2  1  0
  2  4  1  0
  2  3  2  0
  4  5  1  0
  5  6  1  0
  6  8  1  0
  6  7  1  1
  8  9  2  0
 10  8  1  0
 10 11  1  0
 11 12  1  1
 13 12  1  0
 14 15  1  0
 14 13  1  0
 16 15  1  0
 17 11  1  0
 17 18  2  0
 19 17  1  0
 20 25  1  0
 20 19  1  0
 20 21  1  6
 22 21  1  0
 23 22  1  0
 23 24  2  0
 25 28  1  0
 26 25  2  0
 27 23  1  0
M  END
$$$$
