QKE.pdb
     RDKit          3D

 28 27  0  0  1  0  0  0  0  0999 V2000
   27.8246  -18.1221  -18.8560 N   0  0  0  0  0  0  0  0  0  0  0  0
   26.5728  -18.7399  -19.0539 C   0  0  0  0  0  0  0  0  0  0  0  0
   25.5116  -18.1045  -18.9002 O   0  0  0  0  0  0  0  0  0  0  0  0
   26.5063  -20.1658  -19.4508 C   0  0  0  0  0  0  0  0  0  0  0  0
   25.7139  -20.9588  -18.4332 C   0  0  0  0  0  0  0  0  0  0  0  0
   26.3631  -20.8230  -17.0780 C   0  0  2  0  0  0  0  0  0  0  0  0
   27.6222  -21.5403  -17.1548 N   0  0  0  0  0  0  0  0  0  0  0  0
   25.5128  -21.3495  -15.9875 C   0  0  0  0  0  0  0  0  0  0  0  0
   24.8317  -22.3765  -16.2279 O   0  0  0  0  0  0  0  0  0  0  0  0
   25.4586  -20.7307  -14.7146 N   0  0  0  0  0  0  0  0  0  0  0  0
   24.6365  -21.2779  -13.6091 C   0  0  1  0  0  0  0  0  0  0  0  0
   25.1963  -20.7626  -12.3002 C   0  0  0  0  0  0  0  0  0  0  0  0
   24.4194  -21.1211  -11.0844 C   0  0  0  0  0  0  0  0  0  0  0  0
   25.0350  -20.5431   -9.8198 C   0  0  0  0  0  0  0  0  0  0  0  0
   24.3353  -21.0168   -8.5745 C   0  0  0  0  0  0  0  0  0  0  0  0
   24.8130  -20.3597   -7.3804 N   0  0  0  0  0  0  0  0  0  0  0  0
   23.2384  -20.9004  -13.8659 C   0  0  0  0  0  0  0  0  0  0  0  0
   22.9762  -19.7020  -14.2431 O   0  0  0  0  0  0  0  0  0  0  0  0
   22.1089  -21.7342  -13.7453 N   0  0  0  0  0  0  0  0  0  0  0  0
   20.7383  -21.2898  -14.0040 C   0  0  1  0  0  0  0  0  0  0  0  0
   20.0495  -22.1669  -14.9970 C   0  0  0  0  0  0  0  0  0  0  0  0
   18.6624  -21.7661  -15.3593 C   0  0  0  0  0  0  0  0  0  0  0  0
   17.9779  -22.6628  -16.3139 C   0  0  0  0  0  0  0  0  0  0  0  0
   17.9004  -23.9066  -16.2031 O   0  0  0  0  0  0  0  0  0  0  0  0
   19.9403  -21.2527  -12.7729 C   0  0  0  0  0  0  0  0  0  0  0  0
   20.1748  -22.0795  -11.8584 O   0  0  0  0  0  0  0  0  0  0  0  0
   17.3759  -22.0733  -17.4170 O   0  0  0  0  0  0  0  0  0  0  0  0
   18.9254  -20.3340  -12.5697 O   0  0  0  0  0  0  0  0  0  0  0  0
  1  2  1  0
  2  4  1  0
  2  3  2  0
  4  5  1  0
  5  6  1  0
  6  8  1  0
  6  7  1  6
  8  9  2  0
 10  8  1  0
 10 11  1  0
 11 12  1  1
 13 12  1  0
 14 15  1  0
 14 13  1  0
 16 15  1  0
 17 11  1  0
 17 18  2  0
 19 17  1  0
 20 25  1  0
 20 19  1  0
 20 21  1  6
 22 21  1  0
 23 22  1  0
 23 24  2  0
 25 28  1  0
 26 25  2  0
 27 23  1  0
M  END
$$$$
