QKE.pdb
     RDKit          3D

 28 27  0  0  1  0  0  0  0  0999 V2000
   21.7976  -12.3007  -17.4011 N   0  0  0  0  0  0  0  0  0  0  0  0
   21.1489  -13.5017  -17.0480 C   0  0  0  0  0  0  0  0  0  0  0  0
   21.7490  -14.5932  -17.0940 O   0  0  0  0  0  0  0  0  0  0  0  0
   19.7326  -13.4773  -16.6142 C   0  0  0  0  0  0  0  0  0  0  0  0
   19.2261  -12.0519  -16.5507 C   0  0  0  0  0  0  0  0  0  0  0  0
   17.7853  -12.0528  -16.1029 C   0  0  2  0  0  0  0  0  0  0  0  0
   17.0440  -12.7831  -17.1143 N   0  0  0  0  0  0  0  0  0  0  0  0
   17.2462  -10.6861  -15.9267 C   0  0  0  0  0  0  0  0  0  0  0  0
   17.2464   -9.9293  -16.9285 O   0  0  0  0  0  0  0  0  0  0  0  0
   16.7445  -10.2336  -14.6819 N   0  0  0  0  0  0  0  0  0  0  0  0
   16.1248   -8.8963  -14.5236 C   0  0  1  0  0  0  0  0  0  0  0  0
   14.9236   -9.0337  -13.6123 C   0  0  0  0  0  0  0  0  0  0  0  0
   13.6734   -9.5039  -14.2647 C   0  0  0  0  0  0  0  0  0  0  0  0
   12.4946   -9.5144  -13.3041 C   0  0  0  0  0  0  0  0  0  0  0  0
   11.2467  -10.0702  -13.9356 C   0  0  0  0  0  0  0  0  0  0  0  0
   10.1302  -10.1168  -13.0206 N   0  0  0  0  0  0  0  0  0  0  0  0
   17.1642   -7.9804  -14.0298 C   0  0  0  0  0  0  0  0  0  0  0  0
   17.6646   -8.1766  -12.8644 O   0  0  0  0  0  0  0  0  0  0  0  0
   17.6988   -6.8712  -14.7149 N   0  0  0  0  0  0  0  0  0  0  0  0
   18.7253   -5.9885  -14.1579 C   0  0  1  0  0  0  0  0  0  0  0  0
   19.8617   -5.7924  -15.1067 C   0  0  0  0  0  0  0  0  0  0  0  0
   20.9411   -4.8794  -14.6408 C   0  0  0  0  0  0  0  0  0  0  0  0
   22.0644   -4.7008  -15.5844 C   0  0  0  0  0  0  0  0  0  0  0  0
   22.0558   -3.9386  -16.5764 O   0  0  0  0  0  0  0  0  0  0  0  0
   18.1747   -4.6754  -13.8025 C   0  0  0  0  0  0  0  0  0  0  0  0
   18.8781   -3.8652  -13.1515 O   0  0  0  0  0  0  0  0  0  0  0  0
   23.2157   -5.4387  -15.3459 O   0  0  0  0  0  0  0  0  0  0  0  0
   16.8960   -4.2822  -14.1572 O   0  0  0  0  0  0  0  0  0  0  0  0
  1  2  1  0
  2  4  1  0
  2  3  2  0
  4  5  1  0
  5  6  1  0
  6  8  1  0
  6  7  1  6
  8  9  2  0
 10  8  1  0
 10 11  1  0
 11 12  1  1
 13 12  1  0
 14 15  1  0
 14 13  1  0
 16 15  1  0
 17 11  1  0
 17 18  2  0
 19 17  1  0
 20 25  1  0
 20 19  1  0
 20 21  1  6
 22 21  1  0
 23 22  1  0
 23 24  2  0
 25 28  1  0
 26 25  2  0
 27 23  1  0
M  END
$$$$
