CID.pdb
     RDKit          3D

 23 22  0  0  1  0  0  0  0  0999 V2000
   23.8747  -13.0729  -20.5287 N   0  0  0  0  0  0  0  0  0  0  0  0
   24.4352  -11.7350  -20.4283 C   0  0  1  0  0  0  0  0  0  0  0  0
   23.8336  -10.7962  -21.4391 C   0  0  0  0  0  0  0  0  0  0  0  0
   24.2774  -11.4379  -23.0950 S   0  0  0  0  0  0  0  0  0  0  0  0
   24.2677  -11.2709  -19.0370 C   0  0  0  0  0  0  0  0  0  0  0  0
   23.2284  -11.5313  -18.3682 O   0  0  0  0  0  0  0  0  0  0  0  0
   28.1097  -12.1435  -15.7092 C   0  0  0  0  0  0  0  0  0  0  0  0
   26.6891  -11.9988  -16.2889 C   0  0  0  0  0  0  0  0  0  0  0  0
   26.3860  -10.5354  -16.2633 C   0  0  2  0  0  0  0  0  0  0  0  0
   26.4158  -10.1139  -14.7934 C   0  0  0  0  0  0  0  0  0  0  0  0
   25.1033  -10.1318  -16.9430 C   0  0  2  0  0  0  0  0  0  0  0  0
   25.2657  -10.5017  -18.3621 N   0  0  0  0  0  0  0  0  0  0  0  0
   24.7730   -8.7050  -16.8559 C   0  0  0  0  0  0  0  0  0  0  0  0
   25.3504   -7.8829  -17.6106 O   0  0  0  0  0  0  0  0  0  0  0  0
   23.8170   -8.1721  -15.9572 N   0  0  0  0  0  0  0  0  0  0  0  0
   23.3549   -6.7926  -16.0481 C   0  0  1  0  0  0  0  0  0  0  0  0
   22.7021   -6.6063  -17.4051 C   0  0  0  0  0  0  0  0  0  0  0  0
   22.2556   -5.2192  -17.5457 C   0  0  0  0  0  0  0  0  0  0  0  0
   21.0795   -4.8012  -17.3033 O   0  0  0  0  0  0  0  0  0  0  0  0
   22.3926   -6.5416  -14.9551 C   0  0  0  0  0  0  0  0  0  0  0  0
   22.3102   -5.3415  -14.2642 O   0  0  0  0  0  0  0  0  0  0  0  0
   23.2011   -4.2703  -17.9836 O   0  0  0  0  0  0  0  0  0  0  0  0
   21.5843   -7.4336  -14.5944 O   0  0  0  0  0  0  0  0  0  0  0  0
  2  1  1  1
  3  2  1  0
  4  3  1  0
  5  6  2  0
  5  2  1  0
  8  7  1  0
  8  9  1  0
  9 11  1  0
  9 10  1  1
 11 12  1  6
 11 13  1  0
 12  5  1  0
 13 15  1  0
 14 13  2  0
 15 16  1  0
 16 20  1  0
 17 18  1  0
 16 17  1  6
 18 22  1  0
 19 18  2  0
 20 23  2  0
 20 21  1  0
M  END
$$$$
