CID.pdb
     RDKit          3D

 23 22  0  0  1  0  0  0  0  0999 V2000
   18.8339  -13.4913  -16.2577 N   0  0  0  0  0  0  0  0  0  0  0  0
   18.2910  -12.2497  -15.7306 C   0  0  1  0  0  0  0  0  0  0  0  0
   17.4375  -12.4815  -14.5129 C   0  0  0  0  0  0  0  0  0  0  0  0
   16.0176  -13.5079  -15.0430 S   0  0  0  0  0  0  0  0  0  0  0  0
   19.4159  -11.3270  -15.4807 C   0  0  0  0  0  0  0  0  0  0  0  0
   20.6183  -11.6945  -15.6001 O   0  0  0  0  0  0  0  0  0  0  0  0
   22.6131   -8.1695  -17.9395 C   0  0  0  0  0  0  0  0  0  0  0  0
   22.1524   -8.0590  -16.4730 C   0  0  0  0  0  0  0  0  0  0  0  0
   20.9677   -8.9618  -16.3493 C   0  0  2  0  0  0  0  0  0  0  0  0
   19.9588   -8.4970  -17.4005 C   0  0  0  0  0  0  0  0  0  0  0  0
   20.3581   -9.0388  -14.9734 C   0  0  2  0  0  0  0  0  0  0  0  0
   19.2167   -9.9665  -15.0899 N   0  0  0  0  0  0  0  0  0  0  0  0
   19.8825   -7.7622  -14.4292 C   0  0  0  0  0  0  0  0  0  0  0  0
   18.6814   -7.4264  -14.5823 O   0  0  0  0  0  0  0  0  0  0  0  0
   20.7048   -6.8549  -13.7177 N   0  0  0  0  0  0  0  0  0  0  0  0
   20.1510   -5.8543  -12.8139 C   0  0  1  0  0  0  0  0  0  0  0  0
   19.4201   -6.5824  -11.7011 C   0  0  0  0  0  0  0  0  0  0  0  0
   18.8241   -5.6056  -10.7880 C   0  0  0  0  0  0  0  0  0  0  0  0
   18.4013   -4.4542  -11.1229 O   0  0  0  0  0  0  0  0  0  0  0  0
   21.2576   -5.0350  -12.2775 C   0  0  0  0  0  0  0  0  0  0  0  0
   22.5917   -5.2427  -12.5956 O   0  0  0  0  0  0  0  0  0  0  0  0
   18.7082   -5.9668   -9.4307 O   0  0  0  0  0  0  0  0  0  0  0  0
   21.0285   -4.0868  -11.4853 O   0  0  0  0  0  0  0  0  0  0  0  0
  2  1  1  1
  3  2  1  0
  4  3  1  0
  5  6  2  0
  5  2  1  0
  8  7  1  0
  8  9  1  0
  9 11  1  0
  9 10  1  6
 11 12  1  6
 11 13  1  0
 12  5  1  0
 13 15  1  0
 14 13  2  0
 15 16  1  0
 16 20  1  0
 17 18  1  0
 16 17  1  1
 18 22  1  0
 19 18  2  0
 20 23  2  0
 20 21  1  0
M  END
$$$$
