CID.pdb
     RDKit          3D

 23 22  0  0  1  0  0  0  0  0999 V2000
   20.6522  -12.1681  -20.2899 N   0  0  0  0  0  0  0  0  0  0  0  0
   21.5815  -11.1080  -19.9338 C   0  0  1  0  0  0  0  0  0  0  0  0
   21.5308   -9.9644  -20.9108 C   0  0  0  0  0  0  0  0  0  0  0  0
   22.1284  -10.6070  -22.5172 S   0  0  0  0  0  0  0  0  0  0  0  0
   21.2959  -10.6953  -18.5455 C   0  0  0  0  0  0  0  0  0  0  0  0
   20.1524  -10.8397  -18.0291 O   0  0  0  0  0  0  0  0  0  0  0  0
   24.5151  -12.2033  -14.8671 C   0  0  0  0  0  0  0  0  0  0  0  0
   23.1698  -11.8433  -15.5270 C   0  0  0  0  0  0  0  0  0  0  0  0
   23.0736  -10.3529  -15.4687 C   0  0  2  0  0  0  0  0  0  0  0  0
   22.9376   -9.9864  -13.9902 C   0  0  0  0  0  0  0  0  0  0  0  0
   21.9784   -9.7454  -16.3066 C   0  0  2  0  0  0  0  0  0  0  0  0
   22.2901  -10.1091  -17.7022 N   0  0  0  0  0  0  0  0  0  0  0  0
   21.8545   -8.2868  -16.2093 C   0  0  0  0  0  0  0  0  0  0  0  0
   22.7158   -7.5491  -16.7504 O   0  0  0  0  0  0  0  0  0  0  0  0
   20.7983   -7.6303  -15.5318 N   0  0  0  0  0  0  0  0  0  0  0  0
   20.5466   -6.2033  -15.6901 C   0  0  1  0  0  0  0  0  0  0  0  0
   20.3082   -5.9310  -17.1637 C   0  0  0  0  0  0  0  0  0  0  0  0
   19.9563   -4.5220  -17.3490 C   0  0  0  0  0  0  0  0  0  0  0  0
   18.7728   -4.0738  -17.4721 O   0  0  0  0  0  0  0  0  0  0  0  0
   19.3643   -5.8375  -14.8827 C   0  0  0  0  0  0  0  0  0  0  0  0
   18.5906   -6.7586  -14.1919 O   0  0  0  0  0  0  0  0  0  0  0  0
   21.0095   -3.5867  -17.3948 O   0  0  0  0  0  0  0  0  0  0  0  0
   18.9990   -4.6391  -14.7862 O   0  0  0  0  0  0  0  0  0  0  0  0
  2  1  1  6
  3  2  1  0
  4  3  1  0
  5  6  2  0
  5  2  1  0
  8  7  1  0
  8  9  1  0
  9 11  1  0
  9 10  1  1
 11 12  1  6
 11 13  1  0
 12  5  1  0
 13 15  1  0
 14 13  2  0
 15 16  1  0
 16 20  1  0
 17 18  1  0
 16 17  1  6
 18 22  1  0
 19 18  2  0
 20 23  2  0
 20 21  1  0
M  END
$$$$
