CID.pdb
     RDKit          3D

 23 22  0  0  1  0  0  0  0  0999 V2000
   24.5653  -13.2543  -18.1498 N   0  0  0  0  0  0  0  0  0  0  0  0
   24.2729  -12.5333  -16.9214 C   0  0  1  0  0  0  0  0  0  0  0  0
   25.5272  -12.0898  -16.2178 C   0  0  0  0  0  0  0  0  0  0  0  0
   26.2297  -13.5668  -15.3958 S   0  0  0  0  0  0  0  0  0  0  0  0
   23.3685  -11.4141  -17.2508 C   0  0  0  0  0  0  0  0  0  0  0  0
   23.5170  -10.7232  -18.2976 O   0  0  0  0  0  0  0  0  0  0  0  0
   17.7613  -10.4812  -17.8978 C   0  0  0  0  0  0  0  0  0  0  0  0
   18.9583   -9.6118  -17.4664 C   0  0  0  0  0  0  0  0  0  0  0  0
   20.0695  -10.5667  -17.1709 C   0  0  2  0  0  0  0  0  0  0  0  0
   19.5478  -11.5157  -16.0910 C   0  0  0  0  0  0  0  0  0  0  0  0
   21.3788   -9.9302  -16.7820 C   0  0  2  0  0  0  0  0  0  0  0  0
   22.2732  -11.0433  -16.4105 N   0  0  0  0  0  0  0  0  0  0  0  0
   21.3046   -8.9834  -15.6638 C   0  0  0  0  0  0  0  0  0  0  0  0
   21.2253   -9.4130  -14.4857 O   0  0  0  0  0  0  0  0  0  0  0  0
   21.3209   -7.5762  -15.8219 N   0  0  0  0  0  0  0  0  0  0  0  0
   21.2761   -6.6692  -14.6816 C   0  0  1  0  0  0  0  0  0  0  0  0
   22.3325   -5.6004  -14.8922 C   0  0  0  0  0  0  0  0  0  0  0  0
   22.2272   -4.5948  -13.8334 C   0  0  0  0  0  0  0  0  0  0  0  0
   21.7878   -3.4119  -13.9891 O   0  0  0  0  0  0  0  0  0  0  0  0
   19.9256   -6.0748  -14.6009 C   0  0  0  0  0  0  0  0  0  0  0  0
   19.3619   -5.6052  -13.4236 O   0  0  0  0  0  0  0  0  0  0  0  0
   22.6448   -4.9638  -12.5389 O   0  0  0  0  0  0  0  0  0  0  0  0
   19.2092   -5.9678  -15.6277 O   0  0  0  0  0  0  0  0  0  0  0  0
  2  1  1  6
  3  2  1  0
  4  3  1  0
  5  6  2  0
  5  2  1  0
  8  7  1  0
  8  9  1  0
  9 11  1  0
  9 10  1  1
 11 12  1  1
 11 13  1  0
 12  5  1  0
 13 15  1  0
 14 13  2  0
 15 16  1  0
 16 20  1  0
 17 18  1  0
 16 17  1  6
 18 22  1  0
 19 18  2  0
 20 23  2  0
 20 21  1  0
M  END
$$$$
