CID.pdb
     RDKit          3D

 23 22  0  0  1  0  0  0  0  0999 V2000
   16.6838  -10.1416  -12.6861 N   0  0  0  0  0  0  0  0  0  0  0  0
   17.2621   -9.7397  -13.9582 C   0  0  1  0  0  0  0  0  0  0  0  0
   16.3309   -8.8573  -14.7452 C   0  0  0  0  0  0  0  0  0  0  0  0
   14.8927   -9.8858  -15.2186 S   0  0  0  0  0  0  0  0  0  0  0  0
   18.5682   -9.1067  -13.6885 C   0  0  0  0  0  0  0  0  0  0  0  0
   18.8115   -8.5196  -12.5971 O   0  0  0  0  0  0  0  0  0  0  0  0
   23.1550  -11.4973  -14.9730 C   0  0  0  0  0  0  0  0  0  0  0  0
   22.0997  -10.6974  -14.1846 C   0  0  0  0  0  0  0  0  0  0  0  0
   21.9877   -9.3779  -14.8775 C   0  0  2  0  0  0  0  0  0  0  0  0
   23.3770   -8.7410  -14.8208 C   0  0  0  0  0  0  0  0  0  0  0  0
   20.9203   -8.4586  -14.3427 C   0  0  2  0  0  0  0  0  0  0  0  0
   19.6345   -9.1182  -14.6404 N   0  0  0  0  0  0  0  0  0  0  0  0
   20.9108   -7.1103  -14.9210 C   0  0  0  0  0  0  0  0  0  0  0  0
   20.5931   -6.9496  -16.1259 O   0  0  0  0  0  0  0  0  0  0  0  0
   21.2399   -5.9402  -14.1943 N   0  0  0  0  0  0  0  0  0  0  0  0
   21.2751   -4.6247  -14.8212 C   0  0  1  0  0  0  0  0  0  0  0  0
   20.0288   -3.8705  -14.3964 C   0  0  0  0  0  0  0  0  0  0  0  0
   20.0451   -2.5301  -14.9850 C   0  0  0  0  0  0  0  0  0  0  0  0
   20.3993   -1.4697  -14.3795 O   0  0  0  0  0  0  0  0  0  0  0  0
   22.4986   -3.9222  -14.3817 C   0  0  0  0  0  0  0  0  0  0  0  0
   23.1060   -2.9087  -15.1085 O   0  0  0  0  0  0  0  0  0  0  0  0
   19.6368   -2.4018  -16.3277 O   0  0  0  0  0  0  0  0  0  0  0  0
   23.0575   -4.2241  -13.2975 O   0  0  0  0  0  0  0  0  0  0  0  0
  2  1  1  1
  3  2  1  0
  4  3  1  0
  5  6  2  0
  5  2  1  0
  8  7  1  0
  8  9  1  0
  9 11  1  0
  9 10  1  1
 11 12  1  6
 11 13  1  0
 12  5  1  0
 13 15  1  0
 14 13  2  0
 15 16  1  0
 16 20  1  0
 17 18  1  0
 16 17  1  1
 18 22  1  0
 19 18  2  0
 20 23  2  0
 20 21  1  0
M  END
$$$$
