CID.pdb
     RDKit          3D

 23 22  0  0  1  0  0  0  0  0999 V2000
   28.6122  -21.0161  -15.6814 N   0  0  0  0  0  0  0  0  0  0  0  0
   27.5832  -20.0583  -15.3098 C   0  0  1  0  0  0  0  0  0  0  0  0
   27.0127  -19.3522  -16.5102 C   0  0  0  0  0  0  0  0  0  0  0  0
   25.8276  -18.1058  -15.8838 S   0  0  0  0  0  0  0  0  0  0  0  0
   26.5605  -20.7688  -14.5170 C   0  0  0  0  0  0  0  0  0  0  0  0
   26.1467  -21.9177  -14.8394 O   0  0  0  0  0  0  0  0  0  0  0  0
   26.6949  -20.7247   -9.2094 C   0  0  0  0  0  0  0  0  0  0  0  0
   26.5272  -21.2473  -10.6494 C   0  0  0  0  0  0  0  0  0  0  0  0
   25.2275  -20.6917  -11.1354 C   0  0  2  0  0  0  0  0  0  0  0  0
   24.1430  -21.2709  -10.2257 C   0  0  0  0  0  0  0  0  0  0  0  0
   24.9310  -20.9292  -12.5935 C   0  0  2  0  0  0  0  0  0  0  0  0
   25.9767  -20.2044  -13.3406 N   0  0  0  0  0  0  0  0  0  0  0  0
   23.6139  -20.4677  -13.0458 C   0  0  0  0  0  0  0  0  0  0  0  0
   23.2703  -19.2744  -12.8538 O   0  0  0  0  0  0  0  0  0  0  0  0
   22.6747  -21.2954  -13.7077 N   0  0  0  0  0  0  0  0  0  0  0  0
   21.3522  -20.8142  -14.0878 C   0  0  1  0  0  0  0  0  0  0  0  0
   20.8369  -21.6983  -15.2082 C   0  0  0  0  0  0  0  0  0  0  0  0
   19.4989  -21.2548  -15.6036 C   0  0  0  0  0  0  0  0  0  0  0  0
   18.4158  -21.8603  -15.3262 O   0  0  0  0  0  0  0  0  0  0  0  0
   20.4661  -20.8796  -12.9070 C   0  0  0  0  0  0  0  0  0  0  0  0
   20.5912  -21.8297  -11.9040 O   0  0  0  0  0  0  0  0  0  0  0  0
   19.4001  -20.0637  -16.3504 O   0  0  0  0  0  0  0  0  0  0  0  0
   19.5326  -20.0516  -12.7587 O   0  0  0  0  0  0  0  0  0  0  0  0
  2  1  1  6
  3  2  1  0
  4  3  1  0
  5  6  2  0
  5  2  1  0
  8  7  1  0
  8  9  1  0
  9 11  1  0
  9 10  1  1
 11 12  1  6
 11 13  1  0
 12  5  1  0
 13 15  1  0
 14 13  2  0
 15 16  1  0
 16 20  1  0
 17 18  1  0
 16 17  1  6
 18 22  1  0
 19 18  2  0
 20 23  2  0
 20 21  1  0
M  END
$$$$
