YQN.pdb
     RDKit          3D

 30 30  0  0  1  0  0  0  0  0999 V2000
   20.4005  -16.0707  -22.2522 O   0  0  0  0  0  0  0  0  0  0  0  0
   20.6879  -15.1359  -21.2591 C   0  0  0  0  0  0  0  0  0  0  0  0
   21.1021  -15.4961  -19.9970 C   0  0  0  0  0  0  0  0  0  0  0  0
   21.3791  -14.5562  -19.0362 C   0  0  0  0  0  0  0  0  0  0  0  0
   21.2484  -13.1902  -19.3110 C   0  0  0  0  0  0  0  0  0  0  0  0
   21.5598  -12.2228  -18.2463 C   0  0  0  0  0  0  0  0  0  0  0  0
   22.8640  -11.5427  -18.5729 C   0  0  2  0  0  0  0  0  0  0  0  0
   23.9207  -12.5278  -18.5475 N   0  0  0  0  0  0  0  0  0  0  0  0
   23.1707  -10.4220  -17.6705 C   0  0  0  0  0  0  0  0  0  0  0  0
   23.9846  -10.5876  -16.6994 O   0  0  0  0  0  0  0  0  0  0  0  0
   20.8369  -12.8276  -20.5644 C   0  0  0  0  0  0  0  0  0  0  0  0
   20.5576  -13.7952  -21.5348 C   0  0  0  0  0  0  0  0  0  0  0  0
   24.9995   -5.2102  -19.0333 N   0  0  0  0  0  0  0  0  0  0  0  0
   24.5874   -4.8102  -17.7130 C   0  0  0  0  0  0  0  0  0  0  0  0
   25.0630   -3.7956  -17.1778 O   0  0  0  0  0  0  0  0  0  0  0  0
   23.5911   -5.6380  -17.0309 C   0  0  0  0  0  0  0  0  0  0  0  0
   23.2347   -6.8412  -17.8478 C   0  0  0  0  0  0  0  0  0  0  0  0
   23.0004   -8.0172  -16.9300 C   0  0  2  0  0  0  0  0  0  0  0  0
   22.6063   -9.1288  -17.8129 N   0  0  0  0  0  0  0  0  0  0  0  0
   21.8587   -7.6903  -16.0050 C   0  0  0  0  0  0  0  0  0  0  0  0
   21.9625   -6.7712  -15.1322 O   0  0  0  0  0  0  0  0  0  0  0  0
   17.7013   -7.3882  -13.2425 N   0  0  0  0  0  0  0  0  0  0  0  0
   18.8591   -8.1628  -12.8940 C   0  0  0  0  0  0  0  0  0  0  0  0
   19.0121   -8.5113  -11.7044 O   0  0  0  0  0  0  0  0  0  0  0  0
   19.8373   -8.5351  -13.9099 C   0  0  0  0  0  0  0  0  0  0  0  0
   19.4996   -8.1423  -15.3195 C   0  0  2  0  0  0  0  0  0  0  0  0
   20.6797   -8.4531  -16.1598 N   0  0  0  0  0  0  0  0  0  0  0  0
   19.2635   -6.7045  -15.5186 C   0  0  0  0  0  0  0  0  0  0  0  0
   17.9919   -6.2274  -15.7313 O   0  0  0  0  0  0  0  0  0  0  0  0
   20.2098   -5.9006  -15.4974 O   0  0  0  0  0  0  0  0  0  0  0  0
  2  1  1  0
  3  2  2  0
  4  3  1  0
  5 11  1  0
  5  4  2  0
  6  5  1  0
  7  6  1  0
  7  8  1  1
  9  7  1  0
  9 10  2  0
 11 12  2  0
 12  2  1  0
 13 14  1  0
 14 15  2  0
 14 16  1  0
 16 17  1  0
 18 17  1  6
 18 19  1  0
 19  9  1  0
 20 18  1  0
 21 20  2  0
 22 23  1  0
 23 24  2  0
 25 23  1  0
 26 25  1  1
 26 27  1  0
 26 28  1  0
 27 20  1  0
 28 29  1  0
 30 28  2  0
M  END
$$$$
