YQN.pdb
     RDKit          3D

 30 30  0  0  1  0  0  0  0  0999 V2000
   16.5187  -14.6512  -20.2100 O   0  0  0  0  0  0  0  0  0  0  0  0
   17.2521  -13.6151  -19.6346 C   0  0  0  0  0  0  0  0  0  0  0  0
   18.5060  -13.2580  -20.0759 C   0  0  0  0  0  0  0  0  0  0  0  0
   19.2082  -12.2335  -19.4923 C   0  0  0  0  0  0  0  0  0  0  0  0
   18.6677  -11.5131  -18.4212 C   0  0  0  0  0  0  0  0  0  0  0  0
   19.4611  -10.4222  -17.8321 C   0  0  0  0  0  0  0  0  0  0  0  0
   20.5840  -11.0187  -17.0237 C   0  0  2  0  0  0  0  0  0  0  0  0
   20.0222  -11.6983  -15.8790 N   0  0  0  0  0  0  0  0  0  0  0  0
   21.5830  -10.0236  -16.6039 C   0  0  0  0  0  0  0  0  0  0  0  0
   21.4190   -9.3728  -15.5165 O   0  0  0  0  0  0  0  0  0  0  0  0
   17.4216  -11.8646  -17.9793 C   0  0  0  0  0  0  0  0  0  0  0  0
   16.7161  -12.9107  -18.5824 C   0  0  0  0  0  0  0  0  0  0  0  0
   27.1546   -8.9713  -19.2352 N   0  0  0  0  0  0  0  0  0  0  0  0
   27.0998   -7.8920  -18.2838 C   0  0  0  0  0  0  0  0  0  0  0  0
   28.0837   -7.1579  -18.0967 O   0  0  0  0  0  0  0  0  0  0  0  0
   25.8476   -7.6925  -17.5523 C   0  0  0  0  0  0  0  0  0  0  0  0
   24.8476   -8.7551  -17.8889 C   0  0  0  0  0  0  0  0  0  0  0  0
   23.6784   -8.6607  -16.9379 C   0  0  2  0  0  0  0  0  0  0  0  0
   22.7538   -9.7314  -17.3489 N   0  0  0  0  0  0  0  0  0  0  0  0
   23.0069   -7.3266  -17.1263 C   0  0  0  0  0  0  0  0  0  0  0  0
   22.6580   -6.9237  -18.2809 O   0  0  0  0  0  0  0  0  0  0  0  0
   20.9496   -3.4774  -17.9811 N   0  0  0  0  0  0  0  0  0  0  0  0
   20.1778   -4.6230  -17.5889 C   0  0  0  0  0  0  0  0  0  0  0  0
   19.0551   -4.7965  -18.1081 O   0  0  0  0  0  0  0  0  0  0  0  0
   20.6953   -5.5656  -16.6033 C   0  0  0  0  0  0  0  0  0  0  0  0
   22.0669   -5.2678  -16.0694 C   0  0  2  0  0  0  0  0  0  0  0  0
   22.7889   -6.5571  -15.9618 N   0  0  0  0  0  0  0  0  0  0  0  0
   22.0907   -4.7080  -14.7098 C   0  0  0  0  0  0  0  0  0  0  0  0
   22.6479   -5.4161  -13.6715 O   0  0  0  0  0  0  0  0  0  0  0  0
   21.6074   -3.5873  -14.4802 O   0  0  0  0  0  0  0  0  0  0  0  0
  2  1  1  0
  3  2  2  0
  4  3  1  0
  5 11  1  0
  5  4  2  0
  6  5  1  0
  7  6  1  0
  7  8  1  1
  9  7  1  0
  9 10  2  0
 11 12  2  0
 12  2  1  0
 13 14  1  0
 14 15  2  0
 14 16  1  0
 16 17  1  0
 18 17  1  6
 18 19  1  0
 19  9  1  0
 20 18  1  0
 21 20  2  0
 22 23  1  0
 23 24  2  0
 25 23  1  0
 26 25  1  1
 26 27  1  0
 26 28  1  0
 27 20  1  0
 28 29  1  0
 30 28  2  0
M  END
$$$$
