YQN.pdb
     RDKit          3D

 30 30  0  0  1  0  0  0  0  0999 V2000
   30.8242  -21.6923   -9.6681 O   0  0  0  0  0  0  0  0  0  0  0  0
   29.6882  -21.3080  -10.3784 C   0  0  0  0  0  0  0  0  0  0  0  0
   28.4153  -21.4392   -9.8717 C   0  0  0  0  0  0  0  0  0  0  0  0
   27.3123  -21.0531  -10.5912 C   0  0  0  0  0  0  0  0  0  0  0  0
   27.4474  -20.5091  -11.8736 C   0  0  0  0  0  0  0  0  0  0  0  0
   26.2329  -20.1092  -12.6025 C   0  0  0  0  0  0  0  0  0  0  0  0
   25.4707  -21.3481  -12.9951 C   0  0  2  0  0  0  0  0  0  0  0  0
   26.3104  -22.1601  -13.8456 N   0  0  0  0  0  0  0  0  0  0  0  0
   24.1892  -21.0511  -13.6539 C   0  0  0  0  0  0  0  0  0  0  0  0
   24.1721  -20.6482  -14.8664 O   0  0  0  0  0  0  0  0  0  0  0  0
   28.7110  -20.3768  -12.3811 C   0  0  0  0  0  0  0  0  0  0  0  0
   29.8270  -20.7742  -11.6379 C   0  0  0  0  0  0  0  0  0  0  0  0
   21.4334  -24.4459  -15.6689 N   0  0  0  0  0  0  0  0  0  0  0  0
   20.5604  -23.6874  -14.8113 C   0  0  0  0  0  0  0  0  0  0  0  0
   19.4265  -23.3538  -15.1920 O   0  0  0  0  0  0  0  0  0  0  0  0
   21.0559  -23.3292  -13.4811 C   0  0  0  0  0  0  0  0  0  0  0  0
   20.6791  -21.9252  -13.1221 C   0  0  0  0  0  0  0  0  0  0  0  0
   21.6701  -20.9679  -13.7400 C   0  0  2  0  0  0  0  0  0  0  0  0
   22.9319  -21.1890  -13.0125 N   0  0  0  0  0  0  0  0  0  0  0  0
   21.1987  -19.5589  -13.4978 C   0  0  0  0  0  0  0  0  0  0  0  0
   21.7602  -18.8182  -12.6298 O   0  0  0  0  0  0  0  0  0  0  0  0
   20.5788  -15.3714  -16.3701 N   0  0  0  0  0  0  0  0  0  0  0  0
   21.5188  -16.4473  -16.5142 C   0  0  0  0  0  0  0  0  0  0  0  0
   22.4698  -16.3103  -17.3122 O   0  0  0  0  0  0  0  0  0  0  0  0
   21.3656  -17.6761  -15.7434 C   0  0  0  0  0  0  0  0  0  0  0  0
   20.1495  -17.7513  -14.8657 C   0  0  2  0  0  0  0  0  0  0  0  0
   20.1106  -19.1117  -14.2799 N   0  0  0  0  0  0  0  0  0  0  0  0
   18.8686  -17.6094  -15.5741 C   0  0  0  0  0  0  0  0  0  0  0  0
   18.0816  -16.4990  -15.3804 O   0  0  0  0  0  0  0  0  0  0  0  0
   18.4797  -18.4909  -16.3575 O   0  0  0  0  0  0  0  0  0  0  0  0
  2  1  1  0
  3  2  2  0
  4  3  1  0
  5 11  1  0
  5  4  2  0
  6  5  1  0
  7  6  1  0
  7  8  1  6
  9  7  1  0
  9 10  2  0
 11 12  2  0
 12  2  1  0
 13 14  1  0
 14 15  2  0
 14 16  1  0
 16 17  1  0
 18 17  1  1
 18 19  1  0
 19  9  1  0
 20 18  1  0
 21 20  2  0
 22 23  1  0
 23 24  2  0
 25 23  1  0
 26 25  1  6
 26 27  1  0
 26 28  1  0
 27 20  1  0
 28 29  1  0
 30 28  2  0
M  END
$$$$
