YQN.pdb
     RDKit          3D

 30 30  0  0  1  0  0  0  0  0999 V2000
   29.3259  -28.5430  -18.7224 O   0  0  0  0  0  0  0  0  0  0  0  0
   28.4710  -27.6801  -18.0389 C   0  0  0  0  0  0  0  0  0  0  0  0
   28.3953  -27.6430  -16.6651 C   0  0  0  0  0  0  0  0  0  0  0  0
   27.5450  -26.7838  -16.0155 C   0  0  0  0  0  0  0  0  0  0  0  0
   26.7210  -25.9106  -16.7346 C   0  0  0  0  0  0  0  0  0  0  0  0
   25.8285  -25.0078  -15.9897 C   0  0  0  0  0  0  0  0  0  0  0  0
   26.2062  -23.5831  -16.3024 C   0  0  2  0  0  0  0  0  0  0  0  0
   27.5400  -23.3362  -15.8047 N   0  0  0  0  0  0  0  0  0  0  0  0
   25.2540  -22.6024  -15.7581 C   0  0  0  0  0  0  0  0  0  0  0  0
   25.0283  -22.5602  -14.5011 O   0  0  0  0  0  0  0  0  0  0  0  0
   26.7931  -25.9441  -18.1004 C   0  0  0  0  0  0  0  0  0  0  0  0
   27.6637  -26.8244  -18.7507 C   0  0  0  0  0  0  0  0  0  0  0  0
   22.6925  -17.7569  -18.7502 N   0  0  0  0  0  0  0  0  0  0  0  0
   21.9708  -17.7134  -17.5052 C   0  0  0  0  0  0  0  0  0  0  0  0
   21.1693  -16.7957  -17.2658 O   0  0  0  0  0  0  0  0  0  0  0  0
   22.2141  -18.7865  -16.5396 C   0  0  0  0  0  0  0  0  0  0  0  0
   23.2561  -19.7391  -17.0386 C   0  0  0  0  0  0  0  0  0  0  0  0
   23.5071  -20.7986  -15.9924 C   0  0  2  0  0  0  0  0  0  0  0  0
   24.5497  -21.6700  -16.5617 N   0  0  0  0  0  0  0  0  0  0  0  0
   22.2456  -21.5968  -15.7986 C   0  0  0  0  0  0  0  0  0  0  0  0
   22.2452  -22.8634  -15.9129 O   0  0  0  0  0  0  0  0  0  0  0  0
   19.0588  -24.3402  -12.6817 N   0  0  0  0  0  0  0  0  0  0  0  0
   19.2197  -23.7416  -13.9769 C   0  0  0  0  0  0  0  0  0  0  0  0
   18.4772  -24.1175  -14.9082 O   0  0  0  0  0  0  0  0  0  0  0  0
   20.2310  -22.7144  -14.2002 C   0  0  0  0  0  0  0  0  0  0  0  0
   19.8394  -21.6005  -15.1281 C   0  0  2  0  0  0  0  0  0  0  0  0
   21.0764  -20.8679  -15.4862 N   0  0  0  0  0  0  0  0  0  0  0  0
   18.9585  -20.5842  -14.5333 C   0  0  0  0  0  0  0  0  0  0  0  0
   19.4207  -19.7518  -13.5417 O   0  0  0  0  0  0  0  0  0  0  0  0
   17.7840  -20.4635  -14.9185 O   0  0  0  0  0  0  0  0  0  0  0  0
  2  1  1  0
  3  2  2  0
  4  3  1  0
  5 11  1  0
  5  4  2  0
  6  5  1  0
  7  6  1  0
  7  8  1  1
  9  7  1  0
  9 10  2  0
 11 12  2  0
 12  2  1  0
 13 14  1  0
 14 15  2  0
 14 16  1  0
 16 17  1  0
 18 17  1  6
 18 19  1  0
 19  9  1  0
 20 18  1  0
 21 20  2  0
 22 23  1  0
 23 24  2  0
 25 23  1  0
 26 25  1  1
 26 27  1  0
 26 28  1  0
 27 20  1  0
 28 29  1  0
 30 28  2  0
M  END
$$$$
