YQN.pdb
     RDKit          3D

 30 30  0  0  1  0  0  0  0  0999 V2000
   17.4094  -27.1882   -9.0024 O   0  0  0  0  0  0  0  0  0  0  0  0
   17.7352  -26.1826   -9.9109 C   0  0  0  0  0  0  0  0  0  0  0  0
   18.9142  -26.1763  -10.6210 C   0  0  0  0  0  0  0  0  0  0  0  0
   19.2119  -25.1742  -11.5102 C   0  0  0  0  0  0  0  0  0  0  0  0
   18.3191  -24.1182  -11.7253 C   0  0  0  0  0  0  0  0  0  0  0  0
   18.6853  -23.0697  -12.6912 C   0  0  0  0  0  0  0  0  0  0  0  0
   19.9606  -22.4105  -12.2338 C   0  0  2  0  0  0  0  0  0  0  0  0
   19.7381  -21.8204  -10.9338 N   0  0  0  0  0  0  0  0  0  0  0  0
   20.4636  -21.4074  -13.1852 C   0  0  0  0  0  0  0  0  0  0  0  0
   19.8132  -20.3240  -13.3753 O   0  0  0  0  0  0  0  0  0  0  0  0
   17.1459  -24.1206  -11.0215 C   0  0  0  0  0  0  0  0  0  0  0  0
   16.8543  -25.1475  -10.1182 C   0  0  0  0  0  0  0  0  0  0  0  0
   26.1634  -21.4212  -15.3775 N   0  0  0  0  0  0  0  0  0  0  0  0
   25.3015  -22.5226  -15.0354 C   0  0  0  0  0  0  0  0  0  0  0  0
   25.7486  -23.6779  -14.9494 O   0  0  0  0  0  0  0  0  0  0  0  0
   23.8879  -22.2304  -14.7916 C   0  0  0  0  0  0  0  0  0  0  0  0
   23.5630  -20.8073  -15.1253 C   0  0  0  0  0  0  0  0  0  0  0  0
   22.0844  -20.5725  -14.9277 C   0  0  2  0  0  0  0  0  0  0  0  0
   21.6615  -21.5678  -13.9272 N   0  0  0  0  0  0  0  0  0  0  0  0
   21.3729  -20.8423  -16.2266 C   0  0  0  0  0  0  0  0  0  0  0  0
   21.4377  -21.9821  -16.7869 O   0  0  0  0  0  0  0  0  0  0  0  0
   19.1313  -23.5886  -17.9748 N   0  0  0  0  0  0  0  0  0  0  0  0
   18.4483  -22.3260  -18.0109 C   0  0  0  0  0  0  0  0  0  0  0  0
   17.5629  -22.1472  -18.8735 O   0  0  0  0  0  0  0  0  0  0  0  0
   18.7824  -21.2730  -17.0584 C   0  0  0  0  0  0  0  0  0  0  0  0
   19.4608  -20.0623  -17.6319 C   0  0  2  0  0  0  0  0  0  0  0  0
   20.6381  -19.7706  -16.7808 N   0  0  0  0  0  0  0  0  0  0  0  0
   18.6569  -18.8314  -17.5976 C   0  0  0  0  0  0  0  0  0  0  0  0
   17.4308  -18.7794  -18.2171 O   0  0  0  0  0  0  0  0  0  0  0  0
   19.0744  -17.8211  -17.0083 O   0  0  0  0  0  0  0  0  0  0  0  0
  2  1  1  0
  3  2  2  0
  4  3  1  0
  5 11  1  0
  5  4  2  0
  6  5  1  0
  7  6  1  0
  7  8  1  1
  9  7  1  0
  9 10  2  0
 11 12  2  0
 12  2  1  0
 13 14  1  0
 14 15  2  0
 14 16  1  0
 16 17  1  0
 18 17  1  6
 18 19  1  0
 19  9  1  0
 20 18  1  0
 21 20  2  0
 22 23  1  0
 23 24  2  0
 25 23  1  0
 26 25  1  1
 26 27  1  0
 26 28  1  0
 27 20  1  0
 28 29  1  0
 30 28  2  0
M  END
$$$$
