YQN.pdb
     RDKit          3D

 30 30  0  0  1  0  0  0  0  0999 V2000
   32.1972  -22.2561   -8.4401 O   0  0  0  0  0  0  0  0  0  0  0  0
   31.0372  -21.8331   -9.0867 C   0  0  0  0  0  0  0  0  0  0  0  0
   29.9797  -21.2608   -8.4169 C   0  0  0  0  0  0  0  0  0  0  0  0
   28.8478  -20.8523   -9.0767 C   0  0  0  0  0  0  0  0  0  0  0  0
   28.7315  -21.0058  -10.4629 C   0  0  0  0  0  0  0  0  0  0  0  0
   27.4974  -20.5494  -11.1226 C   0  0  0  0  0  0  0  0  0  0  0  0
   27.7033  -20.5801  -12.6149 C   0  0  2  0  0  0  0  0  0  0  0  0
   28.8989  -19.8343  -12.9343 N   0  0  0  0  0  0  0  0  0  0  0  0
   26.5481  -20.0649  -13.3662 C   0  0  0  0  0  0  0  0  0  0  0  0
   26.5796  -18.8858  -13.8577 O   0  0  0  0  0  0  0  0  0  0  0  0
   29.7803  -21.5741  -11.1327 C   0  0  0  0  0  0  0  0  0  0  0  0
   30.9284  -21.9864  -10.4488 C   0  0  0  0  0  0  0  0  0  0  0  0
   24.8134  -22.8358  -16.5290 N   0  0  0  0  0  0  0  0  0  0  0  0
   26.1250  -22.2991  -16.2750 C   0  0  0  0  0  0  0  0  0  0  0  0
   27.1395  -22.9991  -16.4264 O   0  0  0  0  0  0  0  0  0  0  0  0
   26.2170  -20.9053  -15.8370 C   0  0  0  0  0  0  0  0  0  0  0  0
   24.8726  -20.2462  -15.8397 C   0  0  0  0  0  0  0  0  0  0  0  0
   24.2838  -20.3055  -14.4504 C   0  0  2  0  0  0  0  0  0  0  0  0
   25.3654  -20.8150  -13.5897 N   0  0  0  0  0  0  0  0  0  0  0  0
   23.1441  -21.2889  -14.4485 C   0  0  0  0  0  0  0  0  0  0  0  0
   22.6469  -21.7207  -15.5365 O   0  0  0  0  0  0  0  0  0  0  0  0
   18.9953  -20.2419  -11.0426 N   0  0  0  0  0  0  0  0  0  0  0  0
   19.8381  -19.5489  -11.9759 C   0  0  0  0  0  0  0  0  0  0  0  0
   19.4029  -18.5143  -12.5238 O   0  0  0  0  0  0  0  0  0  0  0  0
   21.1765  -20.0439  -12.2780 C   0  0  0  0  0  0  0  0  0  0  0  0
   21.2502  -21.4397  -12.8269 C   0  0  2  0  0  0  0  0  0  0  0  0
   22.6641  -21.6999  -13.1850 N   0  0  0  0  0  0  0  0  0  0  0  0
   20.5005  -21.6516  -14.0742 C   0  0  0  0  0  0  0  0  0  0  0  0
   19.2095  -22.1229  -14.0429 O   0  0  0  0  0  0  0  0  0  0  0  0
   21.0233  -21.4076  -15.1739 O   0  0  0  0  0  0  0  0  0  0  0  0
  2  1  1  0
  3  2  2  0
  4  3  1  0
  5 11  1  0
  5  4  2  0
  6  5  1  0
  7  6  1  0
  7  8  1  1
  9  7  1  0
  9 10  2  0
 11 12  2  0
 12  2  1  0
 13 14  1  0
 14 15  2  0
 14 16  1  0
 16 17  1  0
 18 17  1  6
 18 19  1  0
 19  9  1  0
 20 18  1  0
 21 20  2  0
 22 23  1  0
 23 24  2  0
 25 23  1  0
 26 25  1  6
 26 27  1  0
 26 28  1  0
 27 20  1  0
 28 29  1  0
 30 28  2  0
M  END
$$$$
