FWF.pdb
     RDKit          3D

 37 40  0  0  1  0  0  0  0  0999 V2000
    7.1403  -17.1240   21.1709 N   0  0  0  0  0  0  0  0  0  0  0  0
    8.5599  -16.9425   21.1739 C   0  0  1  0  0  0  0  0  0  0  0  0
    8.9987  -15.8671   20.1993 C   0  0  0  0  0  0  0  0  0  0  0  0
    8.2026  -14.6162   20.3996 C   0  0  0  0  0  0  0  0  0  0  0  0
    8.4282  -13.5155   19.6128 C   0  0  0  0  0  0  0  0  0  0  0  0
    7.6650  -12.3713   19.8376 C   0  0  0  0  0  0  0  0  0  0  0  0
    6.7108  -12.3585   20.8283 C   0  0  0  0  0  0  0  0  0  0  0  0
    6.5005  -13.4732   21.6062 C   0  0  0  0  0  0  0  0  0  0  0  0
    7.2353  -14.6206   21.4128 C   0  0  0  0  0  0  0  0  0  0  0  0
    9.0271  -16.5497   22.5265 C   0  0  0  0  0  0  0  0  0  0  0  0
    9.8388  -15.5779   22.6903 O   0  0  0  0  0  0  0  0  0  0  0  0
    8.6046  -17.2178   23.7016 N   0  0  0  0  0  0  0  0  0  0  0  0
    9.2569  -16.8948   24.9762 C   0  0  1  0  0  0  0  0  0  0  0  0
    8.1063  -16.7918   25.9559 C   0  0  0  0  0  0  0  0  0  0  0  0
    7.2579  -15.6037   25.7847 C   0  0  0  0  0  0  0  0  0  0  0  0
    5.9628  -15.5247   25.3210 C   0  0  0  0  0  0  0  0  0  0  0  0
    5.5300  -14.2600   25.2904 N   0  0  0  0  0  0  0  0  0  0  0  0
    6.5418  -13.4826   25.7370 C   0  0  0  0  0  0  0  0  0  0  0  0
    6.6067  -12.0997   25.8996 C   0  0  0  0  0  0  0  0  0  0  0  0
    7.7629  -11.5316   26.3779 C   0  0  0  0  0  0  0  0  0  0  0  0
    8.8549  -12.3217   26.6962 C   0  0  0  0  0  0  0  0  0  0  0  0
    8.7523  -13.6845   26.5219 C   0  0  0  0  0  0  0  0  0  0  0  0
    7.6069  -14.2785   26.0450 C   0  0  0  0  0  0  0  0  0  0  0  0
   10.2304  -17.9357   25.2649 C   0  0  0  0  0  0  0  0  0  0  0  0
    9.9492  -19.1532   25.0516 O   0  0  0  0  0  0  0  0  0  0  0  0
   11.5113  -17.6419   25.7827 N   0  0  0  0  0  0  0  0  0  0  0  0
   12.4301  -18.6833   26.2222 C   0  0  1  0  0  0  0  0  0  0  0  0
   13.7925  -18.2794   25.6570 C   0  0  0  0  0  0  0  0  0  0  0  0
   13.7764  -18.0172   24.2189 C   0  0  0  0  0  0  0  0  0  0  0  0
   13.6922  -16.7315   23.7363 C   0  0  0  0  0  0  0  0  0  0  0  0
   13.6761  -16.4641   22.3644 C   0  0  0  0  0  0  0  0  0  0  0  0
   13.7462  -17.5148   21.4554 C   0  0  0  0  0  0  0  0  0  0  0  0
   13.8310  -18.8095   21.9315 C   0  0  0  0  0  0  0  0  0  0  0  0
   13.8454  -19.0485   23.3000 C   0  0  0  0  0  0  0  0  0  0  0  0
   12.4481  -18.9111   27.6572 C   0  0  0  0  0  0  0  0  0  0  0  0
   11.6286  -18.1910   28.5089 O   0  0  0  0  0  0  0  0  0  0  0  0
   13.2086  -19.7668   28.1589 O   0  0  0  0  0  0  0  0  0  0  0  0
  2  1  1  1
  2  3  1  0
  3  4  1  0
  4  5  2  0
  5  6  1  0
  7  6  2  0
  8  7  1  0
  9  4  1  0
  9  8  2  0
 10 11  2  0
 10  2  1  0
 12 10  1  0
 13 24  1  0
 13 12  1  0
 13 14  1  1
 15 23  1  0
 15 14  1  0
 16 15  2  0
 17 16  1  0
 17 18  1  0
 18 23  2  0
 19 18  1  0
 19 20  2  0
 20 21  1  0
 21 22  2  0
 23 22  1  0
 24 25  2  0
 26 27  1  0
 26 24  1  0
 27 28  1  1
 28 29  1  0
 29 34  1  0
 30 29  2  0
 30 31  1  0
 31 32  2  0
 32 33  1  0
 34 33  2  0
 35 36  1  0
 35 27  1  0
 37 35  2  0
M  END
$$$$
