FWF.pdb
     RDKit          3D

 37 40  0  0  1  0  0  0  0  0999 V2000
    9.9575  -16.3249   19.6272 N   0  0  0  0  0  0  0  0  0  0  0  0
   11.0038  -15.6711   20.3527 C   0  0  1  0  0  0  0  0  0  0  0  0
   10.9778  -14.1675   20.1585 C   0  0  0  0  0  0  0  0  0  0  0  0
    9.7571  -13.7541   19.3986 C   0  0  0  0  0  0  0  0  0  0  0  0
    9.5884  -14.1381   18.0926 C   0  0  0  0  0  0  0  0  0  0  0  0
    8.4372  -13.7269   17.4234 C   0  0  0  0  0  0  0  0  0  0  0  0
    7.4995  -12.9543   18.0682 C   0  0  0  0  0  0  0  0  0  0  0  0
    7.6881  -12.5802   19.3784 C   0  0  0  0  0  0  0  0  0  0  0  0
    8.8125  -12.9676   20.0706 C   0  0  0  0  0  0  0  0  0  0  0  0
   10.8739  -15.9453   21.8053 C   0  0  0  0  0  0  0  0  0  0  0  0
   11.6816  -15.4324   22.6506 O   0  0  0  0  0  0  0  0  0  0  0  0
    9.8584  -16.7784   22.3349 N   0  0  0  0  0  0  0  0  0  0  0  0
    9.3634  -16.5201   23.6923 C   0  0  1  0  0  0  0  0  0  0  0  0
    7.8617  -16.6707   23.5647 C   0  0  0  0  0  0  0  0  0  0  0  0
    7.0857  -16.0113   24.6249 C   0  0  0  0  0  0  0  0  0  0  0  0
    6.2487  -16.5752   25.5630 C   0  0  0  0  0  0  0  0  0  0  0  0
    5.7029  -15.6457   26.3539 N   0  0  0  0  0  0  0  0  0  0  0  0
    6.1765  -14.4474   25.9447 C   0  0  0  0  0  0  0  0  0  0  0  0
    5.9205  -13.1670   26.4325 C   0  0  0  0  0  0  0  0  0  0  0  0
    6.5306  -12.0869   25.8414 C   0  0  0  0  0  0  0  0  0  0  0  0
    7.3919  -12.2646   24.7715 C   0  0  0  0  0  0  0  0  0  0  0  0
    7.6196  -13.5454   24.3178 C   0  0  0  0  0  0  0  0  0  0  0  0
    7.0220  -14.6435   24.8914 C   0  0  0  0  0  0  0  0  0  0  0  0
   10.0094  -17.4571   24.5974 C   0  0  0  0  0  0  0  0  0  0  0  0
   10.4027  -18.5866   24.1772 O   0  0  0  0  0  0  0  0  0  0  0  0
   10.2274  -17.1548   25.9598 N   0  0  0  0  0  0  0  0  0  0  0  0
   10.9127  -18.0723   26.8600 C   0  0  1  0  0  0  0  0  0  0  0  0
   10.8694  -17.3951   28.2305 C   0  0  0  0  0  0  0  0  0  0  0  0
   10.7690  -15.9382   28.1618 C   0  0  0  0  0  0  0  0  0  0  0  0
   11.7266  -15.1942   27.5118 C   0  0  0  0  0  0  0  0  0  0  0  0
   11.6450  -13.8008   27.4371 C   0  0  0  0  0  0  0  0  0  0  0  0
   10.5746  -13.1391   28.0302 C   0  0  0  0  0  0  0  0  0  0  0  0
    9.6082  -13.8788   28.6852 C   0  0  0  0  0  0  0  0  0  0  0  0
    9.7126  -15.2628   28.7453 C   0  0  0  0  0  0  0  0  0  0  0  0
   10.3801  -19.4242   26.8702 C   0  0  0  0  0  0  0  0  0  0  0  0
   11.0602  -20.4593   27.4877 O   0  0  0  0  0  0  0  0  0  0  0  0
    9.2896  -19.6854   26.3181 O   0  0  0  0  0  0  0  0  0  0  0  0
  2  1  1  6
  2  3  1  0
  3  4  1  0
  4  5  2  0
  5  6  1  0
  7  6  2  0
  8  7  1  0
  9  4  1  0
  9  8  2  0
 10 11  2  0
 10  2  1  0
 12 10  1  0
 13 24  1  0
 13 12  1  0
 13 14  1  6
 15 23  1  0
 15 14  1  0
 16 15  2  0
 17 16  1  0
 17 18  1  0
 18 23  2  0
 19 18  1  0
 19 20  2  0
 20 21  1  0
 21 22  2  0
 23 22  1  0
 24 25  2  0
 26 27  1  0
 26 24  1  0
 27 28  1  1
 28 29  1  0
 29 34  1  0
 30 29  2  0
 30 31  1  0
 31 32  2  0
 32 33  1  0
 34 33  2  0
 35 36  1  0
 35 27  1  0
 37 35  2  0
M  END
$$$$
