FWF.pdb
     RDKit          3D

 37 40  0  0  1  0  0  0  0  0999 V2000
    9.3697  -19.1840   19.9079 N   0  0  0  0  0  0  0  0  0  0  0  0
    8.9122  -18.7158   21.1806 C   0  0  1  0  0  0  0  0  0  0  0  0
    8.7449  -19.8465   22.1769 C   0  0  0  0  0  0  0  0  0  0  0  0
    8.2421  -21.0803   21.4960 C   0  0  0  0  0  0  0  0  0  0  0  0
    8.0170  -21.0844   20.1429 C   0  0  0  0  0  0  0  0  0  0  0  0
    7.5454  -22.2553   19.5522 C   0  0  0  0  0  0  0  0  0  0  0  0
    7.3150  -23.3739   20.3187 C   0  0  0  0  0  0  0  0  0  0  0  0
    7.5473  -23.3485   21.6742 C   0  0  0  0  0  0  0  0  0  0  0  0
    8.0129  -22.2102   22.2916 C   0  0  0  0  0  0  0  0  0  0  0  0
    9.8787  -17.7450   21.7511 C   0  0  0  0  0  0  0  0  0  0  0  0
   11.1240  -17.8122   21.4778 O   0  0  0  0  0  0  0  0  0  0  0  0
    9.4834  -16.6980   22.6190 N   0  0  0  0  0  0  0  0  0  0  0  0
   10.5112  -15.8096   23.1747 C   0  0  1  0  0  0  0  0  0  0  0  0
   10.0942  -14.4326   22.7009 C   0  0  0  0  0  0  0  0  0  0  0  0
    8.7858  -14.3829   22.0327 C   0  0  0  0  0  0  0  0  0  0  0  0
    7.5980  -14.9699   22.4111 C   0  0  0  0  0  0  0  0  0  0  0  0
    6.6230  -14.7120   21.5333 N   0  0  0  0  0  0  0  0  0  0  0  0
    7.1592  -13.9456   20.5572 C   0  0  0  0  0  0  0  0  0  0  0  0
    6.5713  -13.4075   19.4137 C   0  0  0  0  0  0  0  0  0  0  0  0
    7.3335  -12.6491   18.5581 C   0  0  0  0  0  0  0  0  0  0  0  0
    8.6728  -12.4194   18.8257 C   0  0  0  0  0  0  0  0  0  0  0  0
    9.2178  -12.9681   19.9659 C   0  0  0  0  0  0  0  0  0  0  0  0
    8.4773  -13.7308   20.8388 C   0  0  0  0  0  0  0  0  0  0  0  0
   10.5369  -15.9912   24.6173 C   0  0  0  0  0  0  0  0  0  0  0  0
   11.3933  -15.3807   25.3249 O   0  0  0  0  0  0  0  0  0  0  0  0
    9.6228  -16.8374   25.2831 N   0  0  0  0  0  0  0  0  0  0  0  0
    9.5572  -16.9217   26.7359 C   0  0  1  0  0  0  0  0  0  0  0  0
    8.0999  -16.6212   27.0887 C   0  0  0  0  0  0  0  0  0  0  0  0
    7.6821  -15.2624   26.7476 C   0  0  0  0  0  0  0  0  0  0  0  0
    6.5601  -15.0394   25.9833 C   0  0  0  0  0  0  0  0  0  0  0  0
    6.1472  -13.7465   25.6487 C   0  0  0  0  0  0  0  0  0  0  0  0
    6.8802  -12.6510   26.0934 C   0  0  0  0  0  0  0  0  0  0  0  0
    8.0088  -12.8659   26.8617 C   0  0  0  0  0  0  0  0  0  0  0  0
    8.3979  -14.1609   27.1803 C   0  0  0  0  0  0  0  0  0  0  0  0
   10.0367  -18.1749   27.2936 C   0  0  0  0  0  0  0  0  0  0  0  0
   10.0996  -18.3746   28.6616 O   0  0  0  0  0  0  0  0  0  0  0  0
   10.4060  -19.1067   26.5469 O   0  0  0  0  0  0  0  0  0  0  0  0
  2  1  1  6
  2  3  1  0
  3  4  1  0
  4  5  2  0
  5  6  1  0
  7  6  2  0
  8  7  1  0
  9  4  1  0
  9  8  2  0
 10 11  2  0
 10  2  1  0
 12 10  1  0
 13 24  1  0
 13 12  1  0
 13 14  1  1
 15 23  1  0
 15 14  1  0
 16 15  2  0
 17 16  1  0
 17 18  1  0
 18 23  2  0
 19 18  1  0
 19 20  2  0
 20 21  1  0
 21 22  2  0
 23 22  1  0
 24 25  2  0
 26 27  1  0
 26 24  1  0
 27 28  1  6
 28 29  1  0
 29 34  1  0
 30 29  2  0
 30 31  1  0
 31 32  2  0
 32 33  1  0
 34 33  2  0
 35 36  1  0
 35 27  1  0
 37 35  2  0
M  END
$$$$
