FWF.pdb
     RDKit          3D

 37 40  0  0  1  0  0  0  0  0999 V2000
   12.1581  -16.6546   19.9536 N   0  0  0  0  0  0  0  0  0  0  0  0
   11.8069  -17.7027   20.8627 C   0  0  1  0  0  0  0  0  0  0  0  0
   12.9969  -18.5741   21.2143 C   0  0  0  0  0  0  0  0  0  0  0  0
   13.3974  -19.4177   20.0453 C   0  0  0  0  0  0  0  0  0  0  0  0
   12.4786  -20.2237   19.4227 C   0  0  0  0  0  0  0  0  0  0  0  0
   12.8977  -20.9944   18.3398 C   0  0  0  0  0  0  0  0  0  0  0  0
   14.2047  -20.9394   17.9147 C   0  0  0  0  0  0  0  0  0  0  0  0
   15.1102  -20.1242   18.5531 C   0  0  0  0  0  0  0  0  0  0  0  0
   14.7322  -19.3493   19.6257 C   0  0  0  0  0  0  0  0  0  0  0  0
   11.2704  -17.1337   22.1238 C   0  0  0  0  0  0  0  0  0  0  0  0
   11.8716  -16.1847   22.7304 O   0  0  0  0  0  0  0  0  0  0  0  0
   10.0740  -17.6003   22.7211 N   0  0  0  0  0  0  0  0  0  0  0  0
    9.6009  -16.9633   23.9560 C   0  0  1  0  0  0  0  0  0  0  0  0
    8.1287  -16.7194   23.6965 C   0  0  0  0  0  0  0  0  0  0  0  0
    7.7168  -15.3103   23.7704 C   0  0  0  0  0  0  0  0  0  0  0  0
    7.8816  -14.3104   22.8367 C   0  0  0  0  0  0  0  0  0  0  0  0
    7.3888  -13.1468   23.2733 N   0  0  0  0  0  0  0  0  0  0  0  0
    6.8886  -13.3658   24.5101 C   0  0  0  0  0  0  0  0  0  0  0  0
    6.2666  -12.4868   25.3952 C   0  0  0  0  0  0  0  0  0  0  0  0
    5.8367  -12.9517   26.6148 C   0  0  0  0  0  0  0  0  0  0  0  0
    6.0179  -14.2794   26.9647 C   0  0  0  0  0  0  0  0  0  0  0  0
    6.6369  -15.1172   26.0631 C   0  0  0  0  0  0  0  0  0  0  0  0
    7.0765  -14.6777   24.8361 C   0  0  0  0  0  0  0  0  0  0  0  0
    9.8993  -17.8511   25.0682 C   0  0  0  0  0  0  0  0  0  0  0  0
    9.8167  -19.1080   24.9251 O   0  0  0  0  0  0  0  0  0  0  0  0
   10.2915  -17.3621   26.3340 N   0  0  0  0  0  0  0  0  0  0  0  0
   10.7478  -18.2428   27.4008 C   0  0  1  0  0  0  0  0  0  0  0  0
   11.0806  -17.3154   28.5703 C   0  0  0  0  0  0  0  0  0  0  0  0
   10.6453  -15.9348   28.3662 C   0  0  0  0  0  0  0  0  0  0  0  0
    9.6830  -15.3712   29.1720 C   0  0  0  0  0  0  0  0  0  0  0  0
    9.2563  -14.0526   28.9901 C   0  0  0  0  0  0  0  0  0  0  0  0
    9.8105  -13.2817   27.9733 C   0  0  0  0  0  0  0  0  0  0  0  0
   10.7778  -13.8399   27.1592 C   0  0  0  0  0  0  0  0  0  0  0  0
   11.1845  -15.1529   27.3609 C   0  0  0  0  0  0  0  0  0  0  0  0
    9.8171  -19.3014   27.7539 C   0  0  0  0  0  0  0  0  0  0  0  0
    8.5739  -19.3946   27.1528 O   0  0  0  0  0  0  0  0  0  0  0  0
   10.1189  -20.1570   28.6136 O   0  0  0  0  0  0  0  0  0  0  0  0
  2  1  1  6
  2  3  1  0
  3  4  1  0
  4  5  2  0
  5  6  1  0
  7  6  2  0
  8  7  1  0
  9  4  1  0
  9  8  2  0
 10 11  2  0
 10  2  1  0
 12 10  1  0
 13 24  1  0
 13 12  1  0
 13 14  1  6
 15 23  1  0
 15 14  1  0
 16 15  2  0
 17 16  1  0
 17 18  1  0
 18 23  2  0
 19 18  1  0
 19 20  2  0
 20 21  1  0
 21 22  2  0
 23 22  1  0
 24 25  2  0
 26 27  1  0
 26 24  1  0
 27 28  1  1
 28 29  1  0
 29 34  1  0
 30 29  2  0
 30 31  1  0
 31 32  2  0
 32 33  1  0
 34 33  2  0
 35 36  1  0
 35 27  1  0
 37 35  2  0
M  END
$$$$
