FWF.pdb
     RDKit          3D

 37 40  0  0  1  0  0  0  0  0999 V2000
    8.6505  -16.6624   19.6527 N   0  0  0  0  0  0  0  0  0  0  0  0
    9.8471  -15.9797   20.0403 C   0  0  1  0  0  0  0  0  0  0  0  0
    9.9932  -14.6435   19.3386 C   0  0  0  0  0  0  0  0  0  0  0  0
    8.8420  -14.4042   18.4134 C   0  0  0  0  0  0  0  0  0  0  0  0
    8.6805  -15.1761   17.2911 C   0  0  0  0  0  0  0  0  0  0  0  0
    7.5953  -14.9150   16.4566 C   0  0  0  0  0  0  0  0  0  0  0  0
    6.7138  -13.9042   16.7620 C   0  0  0  0  0  0  0  0  0  0  0  0
    6.8940  -13.1419   17.8926 C   0  0  0  0  0  0  0  0  0  0  0  0
    7.9541  -13.3710   18.7397 C   0  0  0  0  0  0  0  0  0  0  0  0
    9.8474  -15.7287   21.5029 C   0  0  0  0  0  0  0  0  0  0  0  0
   10.5814  -14.8201   22.0186 O   0  0  0  0  0  0  0  0  0  0  0  0
    9.0425  -16.4694   22.4025 N   0  0  0  0  0  0  0  0  0  0  0  0
    9.1182  -16.1679   23.8370 C   0  0  1  0  0  0  0  0  0  0  0  0
    7.8233  -16.7237   24.3926 C   0  0  0  0  0  0  0  0  0  0  0  0
    6.9598  -15.7312   25.0482 C   0  0  0  0  0  0  0  0  0  0  0  0
    5.7649  -15.9241   25.7067 C   0  0  0  0  0  0  0  0  0  0  0  0
    5.2625  -14.7701   26.1578 N   0  0  0  0  0  0  0  0  0  0  0  0
    6.1263  -13.7936   25.8001 C   0  0  0  0  0  0  0  0  0  0  0  0
    6.0709  -12.4193   26.0261 C   0  0  0  0  0  0  0  0  0  0  0  0
    7.0846  -11.6185   25.5576 C   0  0  0  0  0  0  0  0  0  0  0  0
    8.1524  -12.1678   24.8674 C   0  0  0  0  0  0  0  0  0  0  0  0
    8.1715  -13.5302   24.6639 C   0  0  0  0  0  0  0  0  0  0  0  0
    7.1699  -14.3541   25.1222 C   0  0  0  0  0  0  0  0  0  0  0  0
   10.3322  -16.7700   24.3643 C   0  0  0  0  0  0  0  0  0  0  0  0
   10.8336  -17.7933   23.8090 O   0  0  0  0  0  0  0  0  0  0  0  0
   10.9976  -16.2487   25.4960 N   0  0  0  0  0  0  0  0  0  0  0  0
   12.2143  -16.8480   26.0274 C   0  0  1  0  0  0  0  0  0  0  0  0
   12.5633  -16.0167   27.2626 C   0  0  0  0  0  0  0  0  0  0  0  0
   11.4939  -15.9685   28.2583 C   0  0  0  0  0  0  0  0  0  0  0  0
   11.4033  -16.9239   29.2441 C   0  0  0  0  0  0  0  0  0  0  0  0
   10.3872  -16.8918   30.2036 C   0  0  0  0  0  0  0  0  0  0  0  0
    9.4390  -15.8743   30.1711 C   0  0  0  0  0  0  0  0  0  0  0  0
    9.5226  -14.9105   29.1842 C   0  0  0  0  0  0  0  0  0  0  0  0
   10.5423  -14.9650   28.2423 C   0  0  0  0  0  0  0  0  0  0  0  0
   12.1203  -18.2720   26.3011 C   0  0  0  0  0  0  0  0  0  0  0  0
   10.9158  -18.9454   26.1961 O   0  0  0  0  0  0  0  0  0  0  0  0
   13.1304  -18.9255   26.6401 O   0  0  0  0  0  0  0  0  0  0  0  0
  2  1  1  6
  2  3  1  0
  3  4  1  0
  4  5  2  0
  5  6  1  0
  7  6  2  0
  8  7  1  0
  9  4  1  0
  9  8  2  0
 10 11  2  0
 10  2  1  0
 12 10  1  0
 13 24  1  0
 13 12  1  0
 13 14  1  1
 15 23  1  0
 15 14  1  0
 16 15  2  0
 17 16  1  0
 17 18  1  0
 18 23  2  0
 19 18  1  0
 19 20  2  0
 20 21  1  0
 21 22  2  0
 23 22  1  0
 24 25  2  0
 26 27  1  0
 26 24  1  0
 27 28  1  1
 28 29  1  0
 29 34  1  0
 30 29  2  0
 30 31  1  0
 31 32  2  0
 32 33  1  0
 34 33  2  0
 35 36  1  0
 35 27  1  0
 37 35  2  0
M  END
$$$$
