FWF.pdb
     RDKit          3D

 37 40  0  0  1  0  0  0  0  0999 V2000
    6.6255  -21.3329   22.5841 N   0  0  0  0  0  0  0  0  0  0  0  0
    6.6291  -19.9981   22.0678 C   0  0  1  0  0  0  0  0  0  0  0  0
    5.7450  -19.0713   22.8792 C   0  0  0  0  0  0  0  0  0  0  0  0
    4.3448  -19.0814   22.3520 C   0  0  0  0  0  0  0  0  0  0  0  0
    4.0705  -18.5953   21.0990 C   0  0  0  0  0  0  0  0  0  0  0  0
    2.7511  -18.6219   20.6509 C   0  0  0  0  0  0  0  0  0  0  0  0
    1.7562  -19.1265   21.4556 C   0  0  0  0  0  0  0  0  0  0  0  0
    2.0528  -19.6092   22.7090 C   0  0  0  0  0  0  0  0  0  0  0  0
    3.3441  -19.5988   23.1846 C   0  0  0  0  0  0  0  0  0  0  0  0
    8.0052  -19.4431   22.0818 C   0  0  0  0  0  0  0  0  0  0  0  0
    8.9429  -20.0144   22.7333 O   0  0  0  0  0  0  0  0  0  0  0  0
    8.3577  -18.2641   21.3806 N   0  0  0  0  0  0  0  0  0  0  0  0
    9.7685  -17.8620   21.3307 C   0  0  1  0  0  0  0  0  0  0  0  0
    9.7557  -16.5996   20.4938 C   0  0  0  0  0  0  0  0  0  0  0  0
    8.7542  -15.6033   20.8999 C   0  0  0  0  0  0  0  0  0  0  0  0
    7.6758  -15.7546   21.7442 C   0  0  0  0  0  0  0  0  0  0  0  0
    6.9784  -14.6194   21.8561 N   0  0  0  0  0  0  0  0  0  0  0  0
    7.5925  -13.6975   21.0810 C   0  0  0  0  0  0  0  0  0  0  0  0
    7.2691  -12.3618   20.8481 C   0  0  0  0  0  0  0  0  0  0  0  0
    8.0580  -11.6150   20.0065 C   0  0  0  0  0  0  0  0  0  0  0  0
    9.1642  -12.1802   19.3941 C   0  0  0  0  0  0  0  0  0  0  0  0
    9.4513  -13.5033   19.6493 C   0  0  0  0  0  0  0  0  0  0  0  0
    8.6783  -14.2729   20.4872 C   0  0  0  0  0  0  0  0  0  0  0  0
   10.2433  -17.7005   22.6956 C   0  0  0  0  0  0  0  0  0  0  0  0
   11.4495  -17.9571   22.9893 O   0  0  0  0  0  0  0  0  0  0  0  0
    9.3984  -17.2543   23.7359 N   0  0  0  0  0  0  0  0  0  0  0  0
    9.8703  -16.3780   24.7995 C   0  0  1  0  0  0  0  0  0  0  0  0
    8.6181  -16.0000   25.5916 C   0  0  0  0  0  0  0  0  0  0  0  0
    8.8820  -15.0951   26.7091 C   0  0  0  0  0  0  0  0  0  0  0  0
    9.3649  -15.5726   27.9056 C   0  0  0  0  0  0  0  0  0  0  0  0
    9.6227  -14.7205   28.9834 C   0  0  0  0  0  0  0  0  0  0  0  0
    9.3892  -13.3551   28.8552 C   0  0  0  0  0  0  0  0  0  0  0  0
    8.9041  -12.8669   27.6566 C   0  0  0  0  0  0  0  0  0  0  0  0
    8.6562  -13.7349   26.6006 C   0  0  0  0  0  0  0  0  0  0  0  0
   10.9250  -16.9401   25.6260 C   0  0  0  0  0  0  0  0  0  0  0  0
   10.9310  -18.2810   25.9689 O   0  0  0  0  0  0  0  0  0  0  0  0
   11.8562  -16.2220   26.0495 O   0  0  0  0  0  0  0  0  0  0  0  0
  2  1  1  1
  2  3  1  0
  3  4  1  0
  4  5  2  0
  5  6  1  0
  7  6  2  0
  8  7  1  0
  9  4  1  0
  9  8  2  0
 10 11  2  0
 10  2  1  0
 12 10  1  0
 13 24  1  0
 13 12  1  0
 13 14  1  6
 15 23  1  0
 15 14  1  0
 16 15  2  0
 17 16  1  0
 17 18  1  0
 18 23  2  0
 19 18  1  0
 19 20  2  0
 20 21  1  0
 21 22  2  0
 23 22  1  0
 24 25  2  0
 26 27  1  0
 26 24  1  0
 27 28  1  1
 28 29  1  0
 29 34  1  0
 30 29  2  0
 30 31  1  0
 31 32  2  0
 32 33  1  0
 34 33  2  0
 35 36  1  0
 35 27  1  0
 37 35  2  0
M  END
$$$$
