FWF.pdb
     RDKit          3D

 37 40  0  0  1  0  0  0  0  0999 V2000
   10.7811  -16.9925   18.9513 N   0  0  0  0  0  0  0  0  0  0  0  0
   10.7744  -17.9836   19.9838 C   0  0  1  0  0  0  0  0  0  0  0  0
   12.0182  -18.8501   19.9496 C   0  0  0  0  0  0  0  0  0  0  0  0
   11.9052  -19.8943   18.8840 C   0  0  0  0  0  0  0  0  0  0  0  0
   12.4669  -19.6907   17.6493 C   0  0  0  0  0  0  0  0  0  0  0  0
   12.3336  -20.6896   16.6866 C   0  0  0  0  0  0  0  0  0  0  0  0
   11.6525  -21.8481   16.9800 C   0  0  0  0  0  0  0  0  0  0  0  0
   11.0968  -22.0323   18.2247 C   0  0  0  0  0  0  0  0  0  0  0  0
   11.2083  -21.0678   19.1998 C   0  0  0  0  0  0  0  0  0  0  0  0
   10.7054  -17.3382   21.3183 C   0  0  0  0  0  0  0  0  0  0  0  0
   11.5225  -16.4150   21.6502 O   0  0  0  0  0  0  0  0  0  0  0  0
    9.7404  -17.6998   22.2898 N   0  0  0  0  0  0  0  0  0  0  0  0
    9.6517  -16.9176   23.5286 C   0  0  1  0  0  0  0  0  0  0  0  0
    8.1632  -16.7162   23.7237 C   0  0  0  0  0  0  0  0  0  0  0  0
    7.7028  -15.3308   23.5515 C   0  0  0  0  0  0  0  0  0  0  0  0
    7.5647  -14.6029   22.3898 C   0  0  0  0  0  0  0  0  0  0  0  0
    7.1332  -13.3620   22.6379 N   0  0  0  0  0  0  0  0  0  0  0  0
    6.9800  -13.2545   23.9768 C   0  0  0  0  0  0  0  0  0  0  0  0
    6.5553  -12.1737   24.7477 C   0  0  0  0  0  0  0  0  0  0  0  0
    6.4798  -12.3090   26.1131 C   0  0  0  0  0  0  0  0  0  0  0  0
    6.8214  -13.5057   26.7209 C   0  0  0  0  0  0  0  0  0  0  0  0
    7.2365  -14.5510   25.9252 C   0  0  0  0  0  0  0  0  0  0  0  0
    7.3210  -14.4421   24.5566 C   0  0  0  0  0  0  0  0  0  0  0  0
   10.3240  -17.6593   24.5833 C   0  0  0  0  0  0  0  0  0  0  0  0
   10.4248  -18.9211   24.5155 O   0  0  0  0  0  0  0  0  0  0  0  0
   10.8884  -17.0183   25.7084 N   0  0  0  0  0  0  0  0  0  0  0  0
   11.4817  -17.7624   26.8112 C   0  0  1  0  0  0  0  0  0  0  0  0
   12.0647  -16.6995   27.7432 C   0  0  0  0  0  0  0  0  0  0  0  0
   11.1246  -15.6295   28.0731 C   0  0  0  0  0  0  0  0  0  0  0  0
    9.8962  -15.5541   27.4581 C   0  0  0  0  0  0  0  0  0  0  0  0
    8.9862  -14.5377   27.7625 C   0  0  0  0  0  0  0  0  0  0  0  0
    9.3192  -13.5735   28.7083 C   0  0  0  0  0  0  0  0  0  0  0  0
   10.5512  -13.6416   29.3310 C   0  0  0  0  0  0  0  0  0  0  0  0
   11.4377  -14.6620   29.0105 C   0  0  0  0  0  0  0  0  0  0  0  0
   10.5758  -18.6798   27.4815 C   0  0  0  0  0  0  0  0  0  0  0  0
    9.2284  -18.7159   27.1676 O   0  0  0  0  0  0  0  0  0  0  0  0
   10.9944  -19.4616   28.3622 O   0  0  0  0  0  0  0  0  0  0  0  0
  2  1  1  6
  2  3  1  0
  3  4  1  0
  4  5  2  0
  5  6  1  0
  7  6  2  0
  8  7  1  0
  9  4  1  0
  9  8  2  0
 10 11  2  0
 10  2  1  0
 12 10  1  0
 13 24  1  0
 13 12  1  0
 13 14  1  1
 15 23  1  0
 15 14  1  0
 16 15  2  0
 17 16  1  0
 17 18  1  0
 18 23  2  0
 19 18  1  0
 19 20  2  0
 20 21  1  0
 21 22  2  0
 23 22  1  0
 24 25  2  0
 26 27  1  0
 26 24  1  0
 27 28  1  1
 28 29  1  0
 29 34  1  0
 30 29  2  0
 30 31  1  0
 31 32  2  0
 32 33  1  0
 34 33  2  0
 35 36  1  0
 35 27  1  0
 37 35  2  0
M  END
$$$$
