FWF.pdb
     RDKit          3D

 37 40  0  0  1  0  0  0  0  0999 V2000
   10.5917  -17.8715   19.3139 N   0  0  0  0  0  0  0  0  0  0  0  0
    9.9027  -16.7549   19.8855 C   0  0  1  0  0  0  0  0  0  0  0  0
    8.4175  -16.7860   19.5819 C   0  0  0  0  0  0  0  0  0  0  0  0
    7.7455  -15.5561   20.1057 C   0  0  0  0  0  0  0  0  0  0  0  0
    7.9724  -14.3371   19.5192 C   0  0  0  0  0  0  0  0  0  0  0  0
    7.3273  -13.2183   20.0430 C   0  0  0  0  0  0  0  0  0  0  0  0
    6.4851  -13.3464   21.1230 C   0  0  0  0  0  0  0  0  0  0  0  0
    6.2713  -14.5783   21.6962 C   0  0  0  0  0  0  0  0  0  0  0  0
    6.8912  -15.7048   21.2059 C   0  0  0  0  0  0  0  0  0  0  0  0
   10.0663  -16.7475   21.3603 C   0  0  0  0  0  0  0  0  0  0  0  0
   10.3954  -17.8052   21.9952 O   0  0  0  0  0  0  0  0  0  0  0  0
    9.8729  -15.5823   22.1418 N   0  0  0  0  0  0  0  0  0  0  0  0
   10.3348  -15.5766   23.5351 C   0  0  1  0  0  0  0  0  0  0  0  0
    9.8562  -14.2425   24.0696 C   0  0  0  0  0  0  0  0  0  0  0  0
    8.4830  -14.2476   24.5941 C   0  0  0  0  0  0  0  0  0  0  0  0
    7.6444  -15.3187   24.8136 C   0  0  0  0  0  0  0  0  0  0  0  0
    6.4575  -14.9228   25.2847 N   0  0  0  0  0  0  0  0  0  0  0  0
    6.4981  -13.5750   25.3828 C   0  0  0  0  0  0  0  0  0  0  0  0
    5.5247  -12.6770   25.8174 C   0  0  0  0  0  0  0  0  0  0  0  0
    5.8057  -11.3319   25.8268 C   0  0  0  0  0  0  0  0  0  0  0  0
    7.0426  -10.8693   25.4094 C   0  0  0  0  0  0  0  0  0  0  0  0
    7.9785  -11.7877   24.9869 C   0  0  0  0  0  0  0  0  0  0  0  0
    7.7230  -13.1391   24.9676 C   0  0  0  0  0  0  0  0  0  0  0  0
    9.7865  -16.7477   24.2002 C   0  0  0  0  0  0  0  0  0  0  0  0
    8.5536  -16.8017   24.4901 O   0  0  0  0  0  0  0  0  0  0  0  0
   10.5876  -17.8592   24.5432 N   0  0  0  0  0  0  0  0  0  0  0  0
   11.4139  -17.8819   25.7427 C   0  0  1  0  0  0  0  0  0  0  0  0
   10.4263  -17.8460   26.9096 C   0  0  0  0  0  0  0  0  0  0  0  0
   10.5717  -16.6695   27.7651 C   0  0  0  0  0  0  0  0  0  0  0  0
   10.2249  -15.4182   27.3100 C   0  0  0  0  0  0  0  0  0  0  0  0
   10.3576  -14.2835   28.1155 C   0  0  0  0  0  0  0  0  0  0  0  0
   10.8511  -14.4098   29.4100 C   0  0  0  0  0  0  0  0  0  0  0  0
   11.2020  -15.6630   29.8752 C   0  0  0  0  0  0  0  0  0  0  0  0
   11.0604  -16.7750   29.0546 C   0  0  0  0  0  0  0  0  0  0  0  0
   12.3487  -18.9921   25.8151 C   0  0  0  0  0  0  0  0  0  0  0  0
   11.9098  -20.3040   25.7752 O   0  0  0  0  0  0  0  0  0  0  0  0
   13.5774  -18.7872   25.9162 O   0  0  0  0  0  0  0  0  0  0  0  0
  2  1  1  1
  2  3  1  0
  3  4  1  0
  4  5  2  0
  5  6  1  0
  7  6  2  0
  8  7  1  0
  9  4  1  0
  9  8  2  0
 10 11  2  0
 10  2  1  0
 12 10  1  0
 13 24  1  0
 13 12  1  0
 13 14  1  1
 15 23  1  0
 15 14  1  0
 16 15  2  0
 17 16  1  0
 17 18  1  0
 18 23  2  0
 19 18  1  0
 19 20  2  0
 20 21  1  0
 21 22  2  0
 23 22  1  0
 24 25  2  0
 26 27  1  0
 26 24  1  0
 27 28  1  1
 28 29  1  0
 29 34  1  0
 30 29  2  0
 30 31  1  0
 31 32  2  0
 32 33  1  0
 34 33  2  0
 35 36  1  0
 35 27  1  0
 37 35  2  0
M  END
$$$$
