VHS.pdb
     RDKit          3D

 24 24  0  0  1  0  0  0  0  0999 V2000
    7.5026  -12.6646   18.4533 C   0  0  0  0  0  0  0  0  0  0  0  0
    7.8626  -13.5727   19.6110 C   0  0  2  0  0  0  0  0  0  0  0  0
    8.8611  -12.8233   20.4699 C   0  0  0  0  0  0  0  0  0  0  0  0
    8.5554  -14.8123   19.1031 C   0  0  2  0  0  0  0  0  0  0  0  0
    7.6517  -15.4678   18.1843 N   0  0  0  0  0  0  0  0  0  0  0  0
    8.9528  -15.7358   20.1718 C   0  0  0  0  0  0  0  0  0  0  0  0
    8.1139  -16.3556   20.8841 O   0  0  0  0  0  0  0  0  0  0  0  0
   10.3324  -15.9494   20.4247 N   0  0  0  0  0  0  0  0  0  0  0  0
   10.9096  -16.7353   21.4515 C   0  0  1  0  0  0  0  0  0  0  0  0
   12.3324  -17.2148   21.1924 C   0  0  0  0  0  0  0  0  0  0  0  0
   12.3975  -18.1700   20.0594 C   0  0  0  0  0  0  0  0  0  0  0  0
   11.3755  -19.0402   19.6502 C   0  0  0  0  0  0  0  0  0  0  0  0
   11.8004  -19.7448   18.5954 N   0  0  0  0  0  0  0  0  0  0  0  0
   13.0554  -19.3402   18.3351 C   0  0  0  0  0  0  0  0  0  0  0  0
   13.4025  -18.3875   19.2290 N   0  0  0  0  0  0  0  0  0  0  0  0
   10.8309  -16.2050   22.8105 C   0  0  0  0  0  0  0  0  0  0  0  0
   11.5605  -15.2132   23.1194 O   0  0  0  0  0  0  0  0  0  0  0  0
    7.6694  -16.1301   24.4020 O   0  0  0  0  0  0  0  0  0  0  0  0
    8.4726  -15.9552   25.5134 C   0  0  0  0  0  0  0  0  0  0  0  0
    9.9421  -16.0822   25.1679 C   0  0  2  0  0  0  0  0  0  0  0  0
    9.9984  -16.7011   23.8441 N   0  0  0  0  0  0  0  0  0  0  0  0
   10.6076  -16.9969   26.1202 C   0  0  0  0  0  0  0  0  0  0  0  0
   10.6562  -16.7050   27.3381 O   0  0  0  0  0  0  0  0  0  0  0  0
   11.1978  -18.1919   25.7363 O   0  0  0  0  0  0  0  0  0  0  0  0
  2  1  1  6
  2  3  1  0
  4  6  1  0
  4  2  1  0
  4  5  1  6
  6  7  2  0
  8  6  1  0
  8  9  1  0
  9 10  1  6
 10 11  1  0
 11 15  1  0
 11 12  2  0
 12 13  1  0
 14 13  1  0
 15 14  2  0
 16 17  2  0
 16  9  1  0
 18 19  1  0
 20 19  1  1
 20 21  1  0
 21 16  1  0
 22 20  1  0
 22 24  1  0
 23 22  2  0
M  END
$$$$
