VHS.pdb
     RDKit          3D

 24 24  0  0  1  0  0  0  0  0999 V2000
    7.4557  -12.5424   21.2151 C   0  0  0  0  0  0  0  0  0  0  0  0
    8.4748  -13.2181   20.3210 C   0  0  2  0  0  0  0  0  0  0  0  0
    7.9179  -13.1899   18.9120 C   0  0  0  0  0  0  0  0  0  0  0  0
    8.6273  -14.6673   20.7096 C   0  0  2  0  0  0  0  0  0  0  0  0
    7.3575  -15.3159   20.4700 N   0  0  0  0  0  0  0  0  0  0  0  0
    9.0392  -14.8551   22.1052 C   0  0  0  0  0  0  0  0  0  0  0  0
   10.1487  -14.4465   22.5495 O   0  0  0  0  0  0  0  0  0  0  0  0
    8.1644  -15.5215   23.0017 N   0  0  0  0  0  0  0  0  0  0  0  0
    8.3878  -15.8113   24.3696 C   0  0  1  0  0  0  0  0  0  0  0  0
    7.1867  -15.6205   25.2875 C   0  0  0  0  0  0  0  0  0  0  0  0
    6.9449  -14.1893   25.5933 C   0  0  0  0  0  0  0  0  0  0  0  0
    7.8055  -13.1219   25.2948 C   0  0  0  0  0  0  0  0  0  0  0  0
    7.2493  -11.9823   25.7210 N   0  0  0  0  0  0  0  0  0  0  0  0
    6.0688  -12.3072   26.2756 C   0  0  0  0  0  0  0  0  0  0  0  0
    5.8988  -13.6455   26.1908 N   0  0  0  0  0  0  0  0  0  0  0  0
    9.0176  -17.0930   24.6774 C   0  0  0  0  0  0  0  0  0  0  0  0
    8.5014  -18.1528   24.2065 O   0  0  0  0  0  0  0  0  0  0  0  0
   12.1036  -18.2634   23.7574 O   0  0  0  0  0  0  0  0  0  0  0  0
   12.1449  -18.5666   25.1055 C   0  0  0  0  0  0  0  0  0  0  0  0
   10.7587  -18.5936   25.7160 C   0  0  2  0  0  0  0  0  0  0  0  0
   10.1781  -17.2742   25.4697 N   0  0  0  0  0  0  0  0  0  0  0  0
   10.8553  -18.7759   27.1802 C   0  0  0  0  0  0  0  0  0  0  0  0
   10.4484  -17.8753   27.9510 O   0  0  0  0  0  0  0  0  0  0  0  0
   11.3838  -19.9154   27.7685 O   0  0  0  0  0  0  0  0  0  0  0  0
  2  1  1  1
  2  3  1  0
  4  6  1  0
  4  2  1  0
  4  5  1  1
  6  7  2  0
  8  6  1  0
  8  9  1  0
  9 10  1  1
 10 11  1  0
 11 15  1  0
 11 12  2  0
 12 13  1  0
 14 13  1  0
 15 14  2  0
 16 17  2  0
 16  9  1  0
 18 19  1  0
 20 19  1  6
 20 21  1  0
 21 16  1  0
 22 20  1  0
 22 24  1  0
 23 22  2  0
M  END
$$$$
