VHS.pdb
     RDKit          3D

 24 24  0  0  1  0  0  0  0  0999 V2000
    7.8539  -21.1327   18.5300 C   0  0  0  0  0  0  0  0  0  0  0  0
    8.8383  -20.1885   19.1888 C   0  0  2  0  0  0  0  0  0  0  0  0
    8.6676  -20.3423   20.6866 C   0  0  0  0  0  0  0  0  0  0  0  0
    8.4964  -18.7599   18.8470 C   0  0  2  0  0  0  0  0  0  0  0  0
    8.6134  -18.6179   17.4129 N   0  0  0  0  0  0  0  0  0  0  0  0
    9.3498  -17.7789   19.5267 C   0  0  0  0  0  0  0  0  0  0  0  0
   10.5652  -17.6093   19.2277 O   0  0  0  0  0  0  0  0  0  0  0  0
    8.7987  -16.9827   20.5637 N   0  0  0  0  0  0  0  0  0  0  0  0
    9.4365  -15.9452   21.2863 C   0  0  1  0  0  0  0  0  0  0  0  0
    8.5883  -14.7065   21.5463 C   0  0  0  0  0  0  0  0  0  0  0  0
    8.0583  -14.1241   20.2892 C   0  0  0  0  0  0  0  0  0  0  0  0
    6.7062  -14.0309   19.9253 C   0  0  0  0  0  0  0  0  0  0  0  0
    6.6181  -13.4472   18.7248 N   0  0  0  0  0  0  0  0  0  0  0  0
    7.8735  -13.1740   18.3300 C   0  0  0  0  0  0  0  0  0  0  0  0
    8.7335  -13.5892   19.2867 N   0  0  0  0  0  0  0  0  0  0  0  0
   10.1109  -16.3235   22.5258 C   0  0  0  0  0  0  0  0  0  0  0  0
    9.4512  -16.9521   23.4096 O   0  0  0  0  0  0  0  0  0  0  0  0
   12.8607  -18.5688   22.6676 O   0  0  0  0  0  0  0  0  0  0  0  0
   12.0625  -18.1813   23.7277 C   0  0  0  0  0  0  0  0  0  0  0  0
   12.1439  -16.6887   23.9735 C   0  0  2  0  0  0  0  0  0  0  0  0
   11.4639  -16.0515   22.8465 N   0  0  0  0  0  0  0  0  0  0  0  0
   13.5557  -16.2498   23.9530 C   0  0  0  0  0  0  0  0  0  0  0  0
   13.9882  -15.5781   22.9873 O   0  0  0  0  0  0  0  0  0  0  0  0
   14.4556  -16.5449   24.9664 O   0  0  0  0  0  0  0  0  0  0  0  0
  2  1  1  6
  2  3  1  0
  4  6  1  0
  4  2  1  0
  4  5  1  6
  6  7  2  0
  8  6  1  0
  8  9  1  0
  9 10  1  1
 10 11  1  0
 11 15  1  0
 11 12  2  0
 12 13  1  0
 14 13  1  0
 15 14  2  0
 16 17  2  0
 16  9  1  0
 18 19  1  0
 20 19  1  6
 20 21  1  0
 21 16  1  0
 22 20  1  0
 22 24  1  0
 23 22  2  0
M  END
$$$$
