VHS.pdb
     RDKit          3D

 24 24  0  0  1  0  0  0  0  0999 V2000
    8.0126  -12.4219   18.4618 C   0  0  0  0  0  0  0  0  0  0  0  0
    8.2636  -13.6928   19.2468 C   0  0  2  0  0  0  0  0  0  0  0  0
    7.2697  -13.7125   20.3904 C   0  0  0  0  0  0  0  0  0  0  0  0
    9.6425  -13.6630   19.8569 C   0  0  2  0  0  0  0  0  0  0  0  0
   10.5888  -13.4773   18.7797 N   0  0  0  0  0  0  0  0  0  0  0  0
    9.9685  -14.8747   20.6174 C   0  0  0  0  0  0  0  0  0  0  0  0
    9.2033  -15.3505   21.5025 O   0  0  0  0  0  0  0  0  0  0  0  0
   11.1899  -15.5480   20.3569 N   0  0  0  0  0  0  0  0  0  0  0  0
   11.6764  -16.7236   20.9784 C   0  0  1  0  0  0  0  0  0  0  0  0
   12.6975  -17.5189   20.1743 C   0  0  0  0  0  0  0  0  0  0  0  0
   12.1139  -18.0670   18.9255 C   0  0  0  0  0  0  0  0  0  0  0  0
   10.8098  -18.5607   18.7680 C   0  0  0  0  0  0  0  0  0  0  0  0
   10.6480  -18.9664   17.5035 N   0  0  0  0  0  0  0  0  0  0  0  0
   11.8111  -18.7406   16.8688 C   0  0  0  0  0  0  0  0  0  0  0  0
   12.6879  -18.1964   17.7420 N   0  0  0  0  0  0  0  0  0  0  0  0
   12.1565  -16.5926   22.3519 C   0  0  0  0  0  0  0  0  0  0  0  0
   12.6528  -15.4835   22.7194 O   0  0  0  0  0  0  0  0  0  0  0  0
   10.4393  -16.1856   26.2198 O   0  0  0  0  0  0  0  0  0  0  0  0
   10.7324  -16.4598   24.8970 C   0  0  0  0  0  0  0  0  0  0  0  0
   11.9806  -17.3079   24.7643 C   0  0  2  0  0  0  0  0  0  0  0  0
   12.1212  -17.6076   23.3398 N   0  0  0  0  0  0  0  0  0  0  0  0
   11.7979  -18.5903   25.4774 C   0  0  0  0  0  0  0  0  0  0  0  0
   11.1948  -19.5364   24.9189 O   0  0  0  0  0  0  0  0  0  0  0  0
   12.2667  -18.8156   26.7632 O   0  0  0  0  0  0  0  0  0  0  0  0
  2  1  1  6
  2  3  1  0
  4  6  1  0
  4  2  1  0
  4  5  1  6
  6  7  2  0
  8  6  1  0
  8  9  1  0
  9 10  1  6
 10 11  1  0
 11 15  1  0
 11 12  2  0
 12 13  1  0
 14 13  1  0
 15 14  2  0
 16 17  2  0
 16  9  1  0
 18 19  1  0
 20 19  1  6
 20 21  1  0
 21 16  1  0
 22 20  1  0
 22 24  1  0
 23 22  2  0
M  END
$$$$
