VHS.pdb
     RDKit          3D

 24 24  0  0  1  0  0  0  0  0999 V2000
    6.7040  -14.1155   20.3507 C   0  0  0  0  0  0  0  0  0  0  0  0
    7.9346  -13.2330   20.3151 C   0  0  2  0  0  0  0  0  0  0  0  0
    8.3102  -13.0525   18.8582 C   0  0  0  0  0  0  0  0  0  0  0  0
    9.0914  -13.9270   20.9895 C   0  0  2  0  0  0  0  0  0  0  0  0
    9.3703  -15.1315   20.2400 N   0  0  0  0  0  0  0  0  0  0  0  0
    8.8346  -14.2515   22.3971 C   0  0  0  0  0  0  0  0  0  0  0  0
    8.5035  -13.3792   23.2484 O   0  0  0  0  0  0  0  0  0  0  0  0
    8.9602  -15.5963   22.8316 N   0  0  0  0  0  0  0  0  0  0  0  0
    8.7637  -16.1022   24.1396 C   0  0  1  0  0  0  0  0  0  0  0  0
    8.5858  -17.6120   24.2415 C   0  0  0  0  0  0  0  0  0  0  0  0
    7.3700  -18.0759   23.5295 C   0  0  0  0  0  0  0  0  0  0  0  0
    6.0468  -17.7187   23.8310 C   0  0  0  0  0  0  0  0  0  0  0  0
    5.2242  -18.3325   22.9730 N   0  0  0  0  0  0  0  0  0  0  0  0
    5.9943  -19.0608   22.1465 C   0  0  0  0  0  0  0  0  0  0  0  0
    7.2896  -18.8954   22.4956 N   0  0  0  0  0  0  0  0  0  0  0  0
    9.7119  -15.6690   25.1630 C   0  0  0  0  0  0  0  0  0  0  0  0
   10.9534  -15.8173   24.9436 O   0  0  0  0  0  0  0  0  0  0  0  0
    8.5161  -13.4363   28.3051 O   0  0  0  0  0  0  0  0  0  0  0  0
    9.8357  -13.2999   27.9165 C   0  0  0  0  0  0  0  0  0  0  0  0
   10.3857  -14.5884   27.3403 C   0  0  2  0  0  0  0  0  0  0  0  0
    9.3736  -15.0839   26.4083 N   0  0  0  0  0  0  0  0  0  0  0  0
   10.5409  -15.5951   28.4121 C   0  0  0  0  0  0  0  0  0  0  0  0
   11.3250  -15.3783   29.3655 O   0  0  0  0  0  0  0  0  0  0  0  0
    9.8517  -16.7988   28.4265 O   0  0  0  0  0  0  0  0  0  0  0  0
  2  1  1  6
  2  3  1  0
  4  6  1  0
  4  2  1  0
  4  5  1  6
  6  7  2  0
  8  6  1  0
  8  9  1  0
  9 10  1  6
 10 11  1  0
 11 15  1  0
 11 12  2  0
 12 13  1  0
 14 13  1  0
 15 14  2  0
 16 17  2  0
 16  9  1  0
 18 19  1  0
 20 19  1  1
 20 21  1  0
 21 16  1  0
 22 20  1  0
 22 24  1  0
 23 22  2  0
M  END
$$$$
