VHS.pdb
     RDKit          3D

 24 24  0  0  1  0  0  0  0  0999 V2000
    7.8154  -12.5017   27.3896 C   0  0  0  0  0  0  0  0  0  0  0  0
    7.3126  -12.0749   26.0260 C   0  0  2  0  0  0  0  0  0  0  0  0
    6.4627  -10.8375   26.2329 C   0  0  0  0  0  0  0  0  0  0  0  0
    6.4144  -13.1391   25.4468 C   0  0  2  0  0  0  0  0  0  0  0  0
    5.3736  -13.4015   26.4154 N   0  0  0  0  0  0  0  0  0  0  0  0
    7.1229  -14.3796   25.1125 C   0  0  0  0  0  0  0  0  0  0  0  0
    7.0051  -15.4367   25.7937 O   0  0  0  0  0  0  0  0  0  0  0  0
    7.9780  -14.4051   23.9806 N   0  0  0  0  0  0  0  0  0  0  0  0
    8.7157  -15.5059   23.4814 C   0  0  1  0  0  0  0  0  0  0  0  0
    9.4621  -15.2603   22.1760 C   0  0  0  0  0  0  0  0  0  0  0  0
    8.6168  -14.5613   21.1774 C   0  0  0  0  0  0  0  0  0  0  0  0
    7.3463  -14.9658   20.7398 C   0  0  0  0  0  0  0  0  0  0  0  0
    6.8961  -14.0858   19.8384 N   0  0  0  0  0  0  0  0  0  0  0  0
    7.8471  -13.1458   19.7012 C   0  0  0  0  0  0  0  0  0  0  0  0
    8.8815  -13.4472   20.5175 N   0  0  0  0  0  0  0  0  0  0  0  0
    9.6130  -16.1773   24.4185 C   0  0  0  0  0  0  0  0  0  0  0  0
   10.4393  -15.4750   25.0784 O   0  0  0  0  0  0  0  0  0  0  0  0
    8.6557  -19.1537   26.6359 O   0  0  0  0  0  0  0  0  0  0  0  0
    9.9212  -19.4196   26.1473 C   0  0  0  0  0  0  0  0  0  0  0  0
   10.5917  -18.1682   25.6188 C   0  0  2  0  0  0  0  0  0  0  0  0
    9.6523  -17.5710   24.6704 N   0  0  0  0  0  0  0  0  0  0  0  0
   11.8161  -18.5283   24.8722 C   0  0  0  0  0  0  0  0  0  0  0  0
   11.8886  -18.3004   23.6419 O   0  0  0  0  0  0  0  0  0  0  0  0
   12.9204  -19.1196   25.4680 O   0  0  0  0  0  0  0  0  0  0  0  0
  2  1  1  1
  2  3  1  0
  4  6  1  0
  4  2  1  0
  4  5  1  1
  6  7  2  0
  8  6  1  0
  8  9  1  0
  9 10  1  6
 10 11  1  0
 11 15  1  0
 11 12  2  0
 12 13  1  0
 14 13  1  0
 15 14  2  0
 16 17  2  0
 16  9  1  0
 18 19  1  0
 20 19  1  6
 20 21  1  0
 21 16  1  0
 22 20  1  0
 22 24  1  0
 23 22  2  0
M  END
$$$$
