VHS.pdb
     RDKit          3D

 24 24  0  0  1  0  0  0  0  0999 V2000
    6.3717  -11.1460   27.1348 C   0  0  0  0  0  0  0  0  0  0  0  0
    6.9314  -12.4890   26.7136 C   0  0  2  0  0  0  0  0  0  0  0  0
    8.3841  -12.2687   26.3431 C   0  0  0  0  0  0  0  0  0  0  0  0
    6.2263  -12.9802   25.4741 C   0  0  2  0  0  0  0  0  0  0  0  0
    4.8321  -13.1607   25.8118 N   0  0  0  0  0  0  0  0  0  0  0  0
    6.7865  -14.2274   24.9419 C   0  0  0  0  0  0  0  0  0  0  0  0
    6.4069  -15.3668   25.3329 O   0  0  0  0  0  0  0  0  0  0  0  0
    7.7962  -14.1638   23.9471 N   0  0  0  0  0  0  0  0  0  0  0  0
    8.5283  -15.2408   23.3909 C   0  0  1  0  0  0  0  0  0  0  0  0
    9.4242  -14.8874   22.2102 C   0  0  0  0  0  0  0  0  0  0  0  0
    8.6376  -14.4812   21.0200 C   0  0  0  0  0  0  0  0  0  0  0  0
    7.2382  -14.4706   20.9164 C   0  0  0  0  0  0  0  0  0  0  0  0
    6.8955  -14.0441   19.6956 N   0  0  0  0  0  0  0  0  0  0  0  0
    8.0384  -13.7888   19.0359 C   0  0  0  0  0  0  0  0  0  0  0  0
    9.0834  -14.0579   19.8499 N   0  0  0  0  0  0  0  0  0  0  0  0
    9.2833  -16.0751   24.3226 C   0  0  0  0  0  0  0  0  0  0  0  0
   10.2569  -15.5570   24.9512 O   0  0  0  0  0  0  0  0  0  0  0  0
    7.9647  -19.7456   25.4733 O   0  0  0  0  0  0  0  0  0  0  0  0
    8.7738  -19.0418   26.3457 C   0  0  0  0  0  0  0  0  0  0  0  0
    9.7835  -18.1875   25.6071 C   0  0  2  0  0  0  0  0  0  0  0  0
    9.0289  -17.4408   24.6013 N   0  0  0  0  0  0  0  0  0  0  0  0
   10.7501  -19.0503   24.8947 C   0  0  0  0  0  0  0  0  0  0  0  0
   10.7882  -19.0456   23.6420 O   0  0  0  0  0  0  0  0  0  0  0  0
   11.6422  -19.8882   25.5475 O   0  0  0  0  0  0  0  0  0  0  0  0
  2  1  1  6
  2  3  1  0
  4  6  1  0
  4  2  1  0
  4  5  1  1
  6  7  2  0
  8  6  1  0
  8  9  1  0
  9 10  1  6
 10 11  1  0
 11 15  1  0
 11 12  2  0
 12 13  1  0
 14 13  1  0
 15 14  2  0
 16 17  2  0
 16  9  1  0
 18 19  1  0
 20 19  1  6
 20 21  1  0
 21 16  1  0
 22 20  1  0
 22 24  1  0
 23 22  2  0
M  END
$$$$
