ELT.pdb
     RDKit          3D

 25 24  0  0  1  0  0  0  0  0999 V2000
   12.6277   -6.2744  -13.7168 N   0  0  0  0  0  0  0  0  0  0  0  0
   13.4376   -7.0835  -14.6107 C   0  0  1  0  0  0  0  0  0  0  0  0
   13.3574   -6.3934  -15.9809 C   0  0  0  0  0  0  0  0  0  0  0  0
   12.0350   -6.8131  -16.6335 C   0  0  0  0  0  0  0  0  0  0  0  0
   12.1194   -8.1928  -17.1526 C   0  0  0  0  0  0  0  0  0  0  0  0
   13.0431   -8.5405  -17.9187 O   0  0  0  0  0  0  0  0  0  0  0  0
   14.8345   -7.0371  -14.1115 C   0  0  0  0  0  0  0  0  0  0  0  0
   15.2610   -5.9911  -13.5750 O   0  0  0  0  0  0  0  0  0  0  0  0
   11.1636   -9.1361  -16.7966 O   0  0  0  0  0  0  0  0  0  0  0  0
   16.0894   -9.2272  -11.1711 C   0  0  0  0  0  0  0  0  0  0  0  0
   17.3373   -9.7159  -11.8104 C   0  0  1  0  0  0  0  0  0  0  0  0
   17.5220  -11.2092  -11.5043 C   0  0  0  0  0  0  0  0  0  0  0  0
   17.4446   -9.5616  -13.2808 C   0  0  0  0  0  0  0  0  0  0  0  0
   17.0071   -8.2354  -13.8216 C   0  0  2  0  0  0  0  0  0  0  0  0
   15.6523   -8.1910  -14.2589 N   0  0  0  0  0  0  0  0  0  0  0  0
   17.9644   -7.8339  -14.8847 C   0  0  0  0  0  0  0  0  0  0  0  0
   17.9050   -8.3972  -16.0051 O   0  0  0  0  0  0  0  0  0  0  0  0
   20.7127   -4.5575  -17.1938 C   0  0  0  0  0  0  0  0  0  0  0  0
   19.6477   -5.0921  -16.2862 C   0  0  1  0  0  0  0  0  0  0  0  0
   18.4151   -5.0976  -16.9282 O   0  0  0  0  0  0  0  0  0  0  0  0
   19.9106   -6.4556  -15.7409 C   0  0  2  0  0  0  0  0  0  0  0  0
   18.9563   -6.8377  -14.7102 N   0  0  0  0  0  0  0  0  0  0  0  0
   21.3028   -6.6468  -15.2780 C   0  0  0  0  0  0  0  0  0  0  0  0
   22.2429   -7.1331  -16.1690 O   0  0  0  0  0  0  0  0  0  0  0  0
   21.6757   -6.3867  -14.1092 O   0  0  0  0  0  0  0  0  0  0  0  0
  2  7  1  0
  2  1  1  1
  3  2  1  0
  4  3  1  0
  5  4  1  0
  6  5  2  0
  7  8  2  0
  9  5  1  0
 11 10  1  6
 11 12  1  0
 13 11  1  0
 14 13  1  6
 15 14  1  0
 15  7  1  0
 16 22  1  0
 16 14  1  0
 17 16  2  0
 19 18  1  6
 20 19  1  0
 21 19  1  0
 21 22  1  1
 23 21  1  0
 23 24  1  0
 25 23  2  0
M  END
$$$$
