ELT.pdb
     RDKit          3D

 25 24  0  0  1  0  0  0  0  0999 V2000
   21.4741  -33.4802  -12.9258 N   0  0  0  0  0  0  0  0  0  0  0  0
   21.0885  -33.1826  -11.5574 C   0  0  1  0  0  0  0  0  0  0  0  0
   19.6491  -33.6992  -11.4110 C   0  0  0  0  0  0  0  0  0  0  0  0
   18.7148  -32.6405  -12.0087 C   0  0  0  0  0  0  0  0  0  0  0  0
   18.4195  -31.5826  -11.0219 C   0  0  0  0  0  0  0  0  0  0  0  0
   18.7974  -31.6810   -9.8351 O   0  0  0  0  0  0  0  0  0  0  0  0
   21.9872  -33.9543  -10.6632 C   0  0  0  0  0  0  0  0  0  0  0  0
   22.2845  -35.1325  -10.9587 O   0  0  0  0  0  0  0  0  0  0  0  0
   17.7081  -30.4503  -11.3989 O   0  0  0  0  0  0  0  0  0  0  0  0
   26.7124  -32.1092   -8.8506 C   0  0  0  0  0  0  0  0  0  0  0  0
   25.5320  -32.9324   -9.2163 C   0  0  1  0  0  0  0  0  0  0  0  0
   25.9993  -34.2956   -9.7465 C   0  0  0  0  0  0  0  0  0  0  0  0
   24.5431  -33.2032   -8.1456 C   0  0  0  0  0  0  0  0  0  0  0  0
   23.3420  -33.9933   -8.5648 C   0  0  2  0  0  0  0  0  0  0  0  0
   22.4870  -33.3272   -9.4890 N   0  0  0  0  0  0  0  0  0  0  0  0
   22.6275  -34.4298   -7.3373 C   0  0  0  0  0  0  0  0  0  0  0  0
   21.7477  -33.6825   -6.8439 O   0  0  0  0  0  0  0  0  0  0  0  0
   21.0369  -38.1171   -4.4312 C   0  0  0  0  0  0  0  0  0  0  0  0
   21.8176  -37.5808   -5.5917 C   0  0  1  0  0  0  0  0  0  0  0  0
   21.1552  -37.8358   -6.7866 O   0  0  0  0  0  0  0  0  0  0  0  0
   22.1334  -36.1246   -5.5196 C   0  0  2  0  0  0  0  0  0  0  0  0
   22.8809  -35.6579   -6.6783 N   0  0  0  0  0  0  0  0  0  0  0  0
   22.7984  -35.7276   -4.2590 C   0  0  0  0  0  0  0  0  0  0  0  0
   22.0181  -35.3327   -3.1869 O   0  0  0  0  0  0  0  0  0  0  0  0
   24.0440  -35.7324   -4.1130 O   0  0  0  0  0  0  0  0  0  0  0  0
  2  7  1  0
  2  1  1  6
  3  2  1  0
  4  3  1  0
  5  4  1  0
  6  5  2  0
  7  8  2  0
  9  5  1  0
 11 10  1  1
 11 12  1  0
 13 11  1  0
 14 13  1  1
 15 14  1  0
 15  7  1  0
 16 22  1  0
 16 14  1  0
 17 16  2  0
 19 18  1  1
 20 19  1  0
 21 19  1  0
 21 22  1  6
 23 21  1  0
 23 24  1  0
 25 23  2  0
M  END
$$$$
