ELT.pdb
     RDKit          3D

 25 24  0  0  1  0  0  0  0  0999 V2000
   17.9163  -11.0679  -17.2165 N   0  0  0  0  0  0  0  0  0  0  0  0
   19.1392  -10.5105  -17.7676 C   0  0  1  0  0  0  0  0  0  0  0  0
   18.6903   -9.4214  -18.7537 C   0  0  0  0  0  0  0  0  0  0  0  0
   17.9638  -10.1165  -19.9112 C   0  0  0  0  0  0  0  0  0  0  0  0
   17.5414   -9.1360  -20.9313 C   0  0  0  0  0  0  0  0  0  0  0  0
   17.7431   -7.9128  -20.7757 O   0  0  0  0  0  0  0  0  0  0  0  0
   19.8898   -9.8892  -16.6482 C   0  0  0  0  0  0  0  0  0  0  0  0
   19.2655   -9.4565  -15.6547 O   0  0  0  0  0  0  0  0  0  0  0  0
   16.9050   -9.5602  -22.0910 O   0  0  0  0  0  0  0  0  0  0  0  0
   24.9176  -11.8250  -15.4262 C   0  0  0  0  0  0  0  0  0  0  0  0
   23.5668  -11.2094  -15.3926 C   0  0  1  0  0  0  0  0  0  0  0  0
   22.9041  -11.4960  -14.0374 C   0  0  0  0  0  0  0  0  0  0  0  0
   23.4895   -9.7449  -15.6083 C   0  0  0  0  0  0  0  0  0  0  0  0
   22.1060   -9.1860  -15.7347 C   0  0  2  0  0  0  0  0  0  0  0  0
   21.3063   -9.8034  -16.7387 N   0  0  0  0  0  0  0  0  0  0  0  0
   22.2191   -7.7157  -15.9180 C   0  0  0  0  0  0  0  0  0  0  0  0
   22.2649   -7.2466  -17.0815 O   0  0  0  0  0  0  0  0  0  0  0  0
   20.5687   -5.6611  -16.9969 C   0  0  0  0  0  0  0  0  0  0  0  0
   20.7674   -5.0404  -15.6481 C   0  0  1  0  0  0  0  0  0  0  0  0
   19.7339   -5.3950  -14.7894 O   0  0  0  0  0  0  0  0  0  0  0  0
   22.0680   -5.3620  -14.9920 C   0  0  2  0  0  0  0  0  0  0  0  0
   22.2785   -6.7947  -14.8433 N   0  0  0  0  0  0  0  0  0  0  0  0
   22.2706   -4.6556  -13.7078 C   0  0  0  0  0  0  0  0  0  0  0  0
   22.2918   -5.3911  -12.5362 O   0  0  0  0  0  0  0  0  0  0  0  0
   22.4264   -3.4137  -13.6286 O   0  0  0  0  0  0  0  0  0  0  0  0
  2  7  1  0
  2  1  1  1
  3  2  1  0
  4  3  1  0
  5  4  1  0
  6  5  2  0
  7  8  2  0
  9  5  1  0
 11 10  1  1
 11 12  1  0
 13 11  1  0
 14 13  1  6
 15 14  1  0
 15  7  1  0
 16 22  1  0
 16 14  1  0
 17 16  2  0
 19 18  1  6
 20 19  1  0
 21 19  1  0
 21 22  1  1
 23 21  1  0
 23 24  1  0
 25 23  2  0
M  END
$$$$
