ELT.pdb
     RDKit          3D

 25 24  0  0  1  0  0  0  0  0999 V2000
   20.7377  -19.5696  -12.0465 N   0  0  0  0  0  0  0  0  0  0  0  0
   21.4787  -20.7936  -11.7962 C   0  0  1  0  0  0  0  0  0  0  0  0
   21.1834  -21.7089  -12.9942 C   0  0  0  0  0  0  0  0  0  0  0  0
   19.6600  -21.8273  -13.1212 C   0  0  0  0  0  0  0  0  0  0  0  0
   19.1378  -22.8783  -12.2251 C   0  0  0  0  0  0  0  0  0  0  0  0
   19.9055  -23.5692  -11.5219 O   0  0  0  0  0  0  0  0  0  0  0  0
   22.9214  -20.4458  -11.7799 C   0  0  0  0  0  0  0  0  0  0  0  0
   23.3850  -19.7041  -12.6737 O   0  0  0  0  0  0  0  0  0  0  0  0
   17.7720  -23.1208  -12.1494 O   0  0  0  0  0  0  0  0  0  0  0  0
   25.9445  -18.9703   -8.3682 C   0  0  0  0  0  0  0  0  0  0  0  0
   26.6347  -20.2214   -8.7721 C   0  0  1  0  0  0  0  0  0  0  0  0
   27.2543  -20.8895   -7.5362 C   0  0  0  0  0  0  0  0  0  0  0  0
   25.8151  -21.2519   -9.4530 C   0  0  0  0  0  0  0  0  0  0  0  0
   25.1552  -20.8123  -10.7233 C   0  0  2  0  0  0  0  0  0  0  0  0
   23.7396  -20.9697  -10.7417 N   0  0  0  0  0  0  0  0  0  0  0  0
   25.8225  -21.5095  -11.8532 C   0  0  0  0  0  0  0  0  0  0  0  0
   25.6429  -22.7431  -12.0019 O   0  0  0  0  0  0  0  0  0  0  0  0
   25.9809  -22.0188  -16.3454 C   0  0  0  0  0  0  0  0  0  0  0  0
   25.7360  -21.6652  -14.9105 C   0  0  1  0  0  0  0  0  0  0  0  0
   25.0087  -22.6659  -14.2773 O   0  0  0  0  0  0  0  0  0  0  0  0
   26.9647  -21.3865  -14.1117 C   0  0  2  0  0  0  0  0  0  0  0  0
   26.6624  -20.8578  -12.7895 N   0  0  0  0  0  0  0  0  0  0  0  0
   27.9455  -20.5328  -14.8175 C   0  0  0  0  0  0  0  0  0  0  0  0
   28.8460  -21.1254  -15.6847 O   0  0  0  0  0  0  0  0  0  0  0  0
   28.0004  -19.2888  -14.6681 O   0  0  0  0  0  0  0  0  0  0  0  0
  2  7  1  0
  2  1  1  6
  3  2  1  0
  4  3  1  0
  5  4  1  0
  6  5  2  0
  7  8  2  0
  9  5  1  0
 11 10  1  1
 11 12  1  0
 13 11  1  0
 14 13  1  1
 15 14  1  0
 15  7  1  0
 16 22  1  0
 16 14  1  0
 17 16  2  0
 19 18  1  6
 20 19  1  0
 21 19  1  0
 21 22  1  1
 23 21  1  0
 23 24  1  0
 25 23  2  0
M  END
$$$$
