ELT.pdb
     RDKit          3D

 25 24  0  0  1  0  0  0  0  0999 V2000
   24.7986  -25.3287  -14.8633 N   0  0  0  0  0  0  0  0  0  0  0  0
   24.7193  -23.9758  -15.3859 C   0  0  1  0  0  0  0  0  0  0  0  0
   23.8484  -24.0697  -16.6480 C   0  0  0  0  0  0  0  0  0  0  0  0
   24.4185  -23.0870  -17.6775 C   0  0  0  0  0  0  0  0  0  0  0  0
   25.3160  -23.7790  -18.6240 C   0  0  0  0  0  0  0  0  0  0  0  0
   25.4264  -25.0235  -18.6188 O   0  0  0  0  0  0  0  0  0  0  0  0
   24.0310  -23.1441  -14.3675 C   0  0  0  0  0  0  0  0  0  0  0  0
   22.8756  -23.4521  -14.0012 O   0  0  0  0  0  0  0  0  0  0  0  0
   26.0615  -23.0516  -19.5434 O   0  0  0  0  0  0  0  0  0  0  0  0
   26.9241  -20.4555  -10.3186 C   0  0  0  0  0  0  0  0  0  0  0  0
   25.8029  -21.1343  -11.0165 C   0  0  1  0  0  0  0  0  0  0  0  0
   24.7494  -21.5756   -9.9902 C   0  0  0  0  0  0  0  0  0  0  0  0
   25.0899  -20.3568  -12.0579 C   0  0  0  0  0  0  0  0  0  0  0  0
   24.1141  -21.1349  -12.8855 C   0  0  2  0  0  0  0  0  0  0  0  0
   24.7099  -22.0141  -13.8346 N   0  0  0  0  0  0  0  0  0  0  0  0
   23.1715  -20.1718  -13.5115 C   0  0  0  0  0  0  0  0  0  0  0  0
   23.6117  -19.0775  -13.9415 O   0  0  0  0  0  0  0  0  0  0  0  0
   21.9704  -19.5966  -16.5653 C   0  0  0  0  0  0  0  0  0  0  0  0
   20.7159  -19.7599  -15.7633 C   0  0  1  0  0  0  0  0  0  0  0  0
   20.1888  -21.0345  -15.9338 O   0  0  0  0  0  0  0  0  0  0  0  0
   20.8622  -19.4927  -14.3030 C   0  0  2  0  0  0  0  0  0  0  0  0
   21.7836  -20.4158  -13.6566 N   0  0  0  0  0  0  0  0  0  0  0  0
   19.5713  -19.4334  -13.5825 C   0  0  0  0  0  0  0  0  0  0  0  0
   18.6670  -18.4393  -13.9113 O   0  0  0  0  0  0  0  0  0  0  0  0
   19.2536  -20.2469  -12.6824 O   0  0  0  0  0  0  0  0  0  0  0  0
  2  7  1  0
  2  1  1  1
  3  2  1  0
  4  3  1  0
  5  4  1  0
  6  5  2  0
  7  8  2  0
  9  5  1  0
 11 10  1  1
 11 12  1  0
 13 11  1  0
 14 13  1  6
 15 14  1  0
 15  7  1  0
 16 22  1  0
 16 14  1  0
 17 16  2  0
 19 18  1  6
 20 19  1  0
 21 19  1  0
 21 22  1  1
 23 21  1  0
 23 24  1  0
 25 23  2  0
M  END
$$$$
