ELT.pdb
     RDKit          3D

 25 24  0  0  1  0  0  0  0  0999 V2000
   17.3131  -11.7904  -17.9634 N   0  0  0  0  0  0  0  0  0  0  0  0
   18.2771  -10.7902  -18.3876 C   0  0  1  0  0  0  0  0  0  0  0  0
   17.4473   -9.6360  -18.9702 C   0  0  0  0  0  0  0  0  0  0  0  0
   16.8611  -10.1149  -20.3036 C   0  0  0  0  0  0  0  0  0  0  0  0
   16.0421   -9.0568  -20.9282 C   0  0  0  0  0  0  0  0  0  0  0  0
   16.5099   -8.3194  -21.8218 O   0  0  0  0  0  0  0  0  0  0  0  0
   18.9971  -10.3233  -17.1768 C   0  0  0  0  0  0  0  0  0  0  0  0
   18.3772  -10.2171  -16.0958 O   0  0  0  0  0  0  0  0  0  0  0  0
   14.7264   -8.8598  -20.5279 O   0  0  0  0  0  0  0  0  0  0  0  0
   22.5982   -9.9712  -13.4401 C   0  0  0  0  0  0  0  0  0  0  0  0
   23.2308   -9.9749  -14.7835 C   0  0  1  0  0  0  0  0  0  0  0  0
   24.4671  -10.8854  -14.7678 C   0  0  0  0  0  0  0  0  0  0  0  0
   22.3887  -10.4122  -15.9223 C   0  0  0  0  0  0  0  0  0  0  0  0
   21.1611   -9.5902  -16.1668 C   0  0  2  0  0  0  0  0  0  0  0  0
   20.3797  -10.0083  -17.2819 N   0  0  0  0  0  0  0  0  0  0  0  0
   21.5727   -8.1655  -16.2593 C   0  0  0  0  0  0  0  0  0  0  0  0
   22.4076   -7.8260  -17.1332 O   0  0  0  0  0  0  0  0  0  0  0  0
   19.4663   -5.3062  -17.2195 C   0  0  0  0  0  0  0  0  0  0  0  0
   20.1178   -4.9494  -15.9187 C   0  0  1  0  0  0  0  0  0  0  0  0
   19.2163   -5.0771  -14.8688 O   0  0  0  0  0  0  0  0  0  0  0  0
   21.3462   -5.7310  -15.5939 C   0  0  2  0  0  0  0  0  0  0  0  0
   21.0725   -7.1488  -15.4090 N   0  0  0  0  0  0  0  0  0  0  0  0
   22.1103   -5.1806  -14.4528 C   0  0  0  0  0  0  0  0  0  0  0  0
   22.1640   -5.9023  -13.2736 O   0  0  0  0  0  0  0  0  0  0  0  0
   22.7173   -4.0843  -14.5025 O   0  0  0  0  0  0  0  0  0  0  0  0
  2  7  1  0
  2  1  1  1
  3  2  1  0
  4  3  1  0
  5  4  1  0
  6  5  2  0
  7  8  2  0
  9  5  1  0
 11 10  1  1
 11 12  1  0
 13 11  1  0
 14 13  1  6
 15 14  1  0
 15  7  1  0
 16 22  1  0
 16 14  1  0
 17 16  2  0
 19 18  1  6
 20 19  1  0
 21 19  1  0
 21 22  1  1
 23 21  1  0
 23 24  1  0
 25 23  2  0
M  END
$$$$
