ELT.pdb
     RDKit          3D

 25 24  0  0  1  0  0  0  0  0999 V2000
   27.8439  -22.0051  -15.9206 N   0  0  0  0  0  0  0  0  0  0  0  0
   27.0287  -20.8677  -15.5310 C   0  0  1  0  0  0  0  0  0  0  0  0
   26.3861  -20.3548  -16.8288 C   0  0  0  0  0  0  0  0  0  0  0  0
   27.4904  -19.6930  -17.6615 C   0  0  0  0  0  0  0  0  0  0  0  0
   27.7790  -18.3325  -17.1655 C   0  0  0  0  0  0  0  0  0  0  0  0
   26.9344  -17.6923  -16.5038 O   0  0  0  0  0  0  0  0  0  0  0  0
   25.9721  -21.3687  -14.6171 C   0  0  0  0  0  0  0  0  0  0  0  0
   25.3642  -22.4242  -14.9005 O   0  0  0  0  0  0  0  0  0  0  0  0
   29.0048  -17.7346  -17.4302 O   0  0  0  0  0  0  0  0  0  0  0  0
   26.1213  -20.1801   -9.0924 C   0  0  0  0  0  0  0  0  0  0  0  0
   25.9376  -20.7807  -10.4379 C   0  0  1  0  0  0  0  0  0  0  0  0
   25.9191  -22.3116  -10.3200 C   0  0  0  0  0  0  0  0  0  0  0  0
   24.7191  -20.3921  -11.1872 C   0  0  0  0  0  0  0  0  0  0  0  0
   24.6038  -20.9623  -12.5670 C   0  0  2  0  0  0  0  0  0  0  0  0
   25.6801  -20.6290  -13.4384 N   0  0  0  0  0  0  0  0  0  0  0  0
   23.2804  -20.5704  -13.1174 C   0  0  0  0  0  0  0  0  0  0  0  0
   23.0890  -19.3773  -13.4578 O   0  0  0  0  0  0  0  0  0  0  0  0
   19.3575  -21.5171  -15.8147 C   0  0  0  0  0  0  0  0  0  0  0  0
   20.6789  -21.8148  -15.1751 C   0  0  1  0  0  0  0  0  0  0  0  0
   21.7210  -21.5259  -16.0480 O   0  0  0  0  0  0  0  0  0  0  0  0
   20.9263  -21.1113  -13.8831 C   0  0  2  0  0  0  0  0  0  0  0  0
   22.2030  -21.4748  -13.2857 N   0  0  0  0  0  0  0  0  0  0  0  0
   19.8203  -21.2575  -12.9113 C   0  0  0  0  0  0  0  0  0  0  0  0
   18.8723  -20.2539  -12.8212 O   0  0  0  0  0  0  0  0  0  0  0  0
   19.6983  -22.2545  -12.1603 O   0  0  0  0  0  0  0  0  0  0  0  0
  2  7  1  0
  2  1  1  6
  3  2  1  0
  4  3  1  0
  5  4  1  0
  6  5  2  0
  7  8  2  0
  9  5  1  0
 11 10  1  1
 11 12  1  0
 13 11  1  0
 14 13  1  1
 15 14  1  0
 15  7  1  0
 16 22  1  0
 16 14  1  0
 17 16  2  0
 19 18  1  6
 20 19  1  0
 21 19  1  0
 21 22  1  1
 23 21  1  0
 23 24  1  0
 25 23  2  0
M  END
$$$$
