ELT.pdb
     RDKit          3D

 25 24  0  0  1  0  0  0  0  0999 V2000
   21.4428  -12.4613  -18.3659 N   0  0  0  0  0  0  0  0  0  0  0  0
   22.1002  -11.1762  -18.2038 C   0  0  1  0  0  0  0  0  0  0  0  0
   21.7549  -10.3721  -19.4665 C   0  0  0  0  0  0  0  0  0  0  0  0
   22.5294  -10.9918  -20.6356 C   0  0  0  0  0  0  0  0  0  0  0  0
   22.2948  -10.2349  -21.8816 C   0  0  0  0  0  0  0  0  0  0  0  0
   21.5012  -10.6515  -22.7520 O   0  0  0  0  0  0  0  0  0  0  0  0
   21.5034  -10.5170  -17.0156 C   0  0  0  0  0  0  0  0  0  0  0  0
   20.4528  -10.9792  -16.5191 O   0  0  0  0  0  0  0  0  0  0  0  0
   22.9601   -9.0370  -22.1106 O   0  0  0  0  0  0  0  0  0  0  0  0
   19.9524   -8.4680  -12.6844 C   0  0  0  0  0  0  0  0  0  0  0  0
   21.4004   -8.7738  -12.8051 C   0  0  1  0  0  0  0  0  0  0  0  0
   21.8445   -9.6392  -11.6169 C   0  0  0  0  0  0  0  0  0  0  0  0
   21.8395   -9.4743  -14.0355 C   0  0  0  0  0  0  0  0  0  0  0  0
   21.6757   -8.7019  -15.3079 C   0  0  2  0  0  0  0  0  0  0  0  0
   22.1479   -9.3714  -16.4731 N   0  0  0  0  0  0  0  0  0  0  0  0
   22.3043   -7.3686  -15.1206 C   0  0  0  0  0  0  0  0  0  0  0  0
   23.5095   -7.3042  -14.7751 O   0  0  0  0  0  0  0  0  0  0  0  0
   22.5369   -4.5975  -17.7720 C   0  0  0  0  0  0  0  0  0  0  0  0
   21.9825   -4.0323  -16.5003 C   0  0  1  0  0  0  0  0  0  0  0  0
   20.6100   -3.8423  -16.6069 O   0  0  0  0  0  0  0  0  0  0  0  0
   22.2615   -4.8400  -15.2775 C   0  0  2  0  0  0  0  0  0  0  0  0
   21.6169   -6.1447  -15.3117 N   0  0  0  0  0  0  0  0  0  0  0  0
   21.9573   -4.1261  -14.0177 C   0  0  0  0  0  0  0  0  0  0  0  0
   22.7324   -3.0365  -13.6626 O   0  0  0  0  0  0  0  0  0  0  0  0
   21.0236   -4.4621  -13.2508 O   0  0  0  0  0  0  0  0  0  0  0  0
  2  7  1  0
  2  1  1  6
  3  2  1  0
  4  3  1  0
  5  4  1  0
  6  5  2  0
  7  8  2  0
  9  5  1  0
 11 10  1  6
 11 12  1  0
 13 11  1  0
 14 13  1  1
 15 14  1  0
 15  7  1  0
 16 22  1  0
 16 14  1  0
 17 16  2  0
 19 18  1  6
 20 19  1  0
 21 19  1  0
 21 22  1  6
 23 21  1  0
 23 24  1  0
 25 23  2  0
M  END
$$$$
