FFE.pdb
     RDKit          3D

 32 33  0  0  1  0  0  0  0  0999 V2000
   28.2377  -20.7252  -17.0755 N   0  0  0  0  0  0  0  0  0  0  0  0
   27.2596  -21.2411  -16.1640 C   0  0  1  0  0  0  0  0  0  0  0  0
   27.9080  -22.0860  -15.0695 C   0  0  0  0  0  0  0  0  0  0  0  0
   28.4318  -23.3551  -15.6628 C   0  0  0  0  0  0  0  0  0  0  0  0
   29.7796  -23.5076  -15.9162 C   0  0  0  0  0  0  0  0  0  0  0  0
   30.2644  -24.6860  -16.4684 C   0  0  0  0  0  0  0  0  0  0  0  0
   29.4102  -25.7154  -16.7698 C   0  0  0  0  0  0  0  0  0  0  0  0
   28.0698  -25.5611  -16.5167 C   0  0  0  0  0  0  0  0  0  0  0  0
   27.5757  -24.3959  -15.9686 C   0  0  0  0  0  0  0  0  0  0  0  0
   26.3800  -20.1998  -15.5811 C   0  0  0  0  0  0  0  0  0  0  0  0
   26.8577  -19.3407  -14.8298 O   0  0  0  0  0  0  0  0  0  0  0  0
   24.9902  -20.1621  -15.8648 N   0  0  0  0  0  0  0  0  0  0  0  0
   24.0718  -19.1843  -15.4396 C   0  0  1  0  0  0  0  0  0  0  0  0
   23.8774  -17.9837  -16.3382 C   0  0  0  0  0  0  0  0  0  0  0  0
   25.0766  -17.1490  -16.4886 C   0  0  0  0  0  0  0  0  0  0  0  0
   25.3707  -16.1944  -15.5057 C   0  0  0  0  0  0  0  0  0  0  0  0
   26.4759  -15.3854  -15.6068 C   0  0  0  0  0  0  0  0  0  0  0  0
   27.3404  -15.4761  -16.6740 C   0  0  0  0  0  0  0  0  0  0  0  0
   27.0468  -16.4247  -17.6495 C   0  0  0  0  0  0  0  0  0  0  0  0
   25.9249  -17.2384  -17.5370 C   0  0  0  0  0  0  0  0  0  0  0  0
   22.7458  -19.7550  -15.1363 C   0  0  0  0  0  0  0  0  0  0  0  0
   22.2392  -20.6056  -15.9427 O   0  0  0  0  0  0  0  0  0  0  0  0
   21.9801  -19.4301  -14.0077 N   0  0  0  0  0  0  0  0  0  0  0  0
   20.6003  -19.9694  -13.7921 C   0  0  1  0  0  0  0  0  0  0  0  0
   20.2733  -19.9003  -12.3600 C   0  0  0  0  0  0  0  0  0  0  0  0
   18.9097  -20.3724  -12.0071 C   0  0  0  0  0  0  0  0  0  0  0  0
   18.7775  -21.8309  -11.8040 C   0  0  0  0  0  0  0  0  0  0  0  0
   19.7910  -22.5953  -11.7761 O   0  0  0  0  0  0  0  0  0  0  0  0
   19.7333  -19.4092  -14.7801 C   0  0  0  0  0  0  0  0  0  0  0  0
   18.9901  -20.2028  -15.4715 O   0  0  0  0  0  0  0  0  0  0  0  0
   17.5354  -22.4726  -11.6227 O   0  0  0  0  0  0  0  0  0  0  0  0
   19.5518  -18.0699  -15.1233 O   0  0  0  0  0  0  0  0  0  0  0  0
  2  1  1  1
  3  4  1  0
  3  2  1  0
  4  5  2  0
  5  6  1  0
  7  6  2  0
  8  7  1  0
  9  8  2  0
  9  4  1  0
 10  2  1  0
 10 11  2  0
 12 10  1  0
 13 12  1  0
 13 21  1  0
 13 14  1  6
 15 14  1  0
 16 15  2  0
 17 16  1  0
 18 17  2  0
 18 19  1  0
 19 20  2  0
 20 15  1  0
 21 23  1  0
 22 21  2  0
 23 24  1  0
 24 29  1  0
 25 26  1  0
 24 25  1  1
 27 26  1  0
 27 28  2  0
 29 30  2  0
 29 32  1  0
 31 27  1  0
M  END
$$$$
