FFE.pdb
     RDKit          3D

 32 33  0  0  1  0  0  0  0  0999 V2000
   25.1154  -19.9198   -7.6656 N   0  0  0  0  0  0  0  0  0  0  0  0
   26.3158  -20.0637   -8.4350 C   0  0  1  0  0  0  0  0  0  0  0  0
   27.2359  -21.1272   -7.8395 C   0  0  0  0  0  0  0  0  0  0  0  0
   28.0077  -20.5391   -6.7014 C   0  0  0  0  0  0  0  0  0  0  0  0
   27.3956  -20.2983   -5.4883 C   0  0  0  0  0  0  0  0  0  0  0  0
   28.1131  -19.7509   -4.4328 C   0  0  0  0  0  0  0  0  0  0  0  0
   29.4408  -19.4416   -4.5810 C   0  0  0  0  0  0  0  0  0  0  0  0
   30.0473  -19.6823   -5.7889 C   0  0  0  0  0  0  0  0  0  0  0  0
   29.3459  -20.2255   -6.8449 C   0  0  0  0  0  0  0  0  0  0  0  0
   26.0739  -20.3162   -9.8757 C   0  0  0  0  0  0  0  0  0  0  0  0
   24.9785  -20.7546  -10.2482 O   0  0  0  0  0  0  0  0  0  0  0  0
   27.0758  -20.0660  -10.8488 N   0  0  0  0  0  0  0  0  0  0  0  0
   26.8796  -19.5538  -12.1447 C   0  0  1  0  0  0  0  0  0  0  0  0
   28.1151  -19.1848  -12.9348 C   0  0  0  0  0  0  0  0  0  0  0  0
   27.8431  -18.8047  -14.3272 C   0  0  0  0  0  0  0  0  0  0  0  0
   27.3562  -17.5194  -14.6006 C   0  0  0  0  0  0  0  0  0  0  0  0
   27.0794  -17.1211  -15.8854 C   0  0  0  0  0  0  0  0  0  0  0  0
   27.2674  -17.9635  -16.9576 C   0  0  0  0  0  0  0  0  0  0  0  0
   27.7510  -19.2399  -16.6843 C   0  0  0  0  0  0  0  0  0  0  0  0
   28.0277  -19.6326  -15.3795 C   0  0  0  0  0  0  0  0  0  0  0  0
   26.0453  -20.4404  -12.9776 C   0  0  0  0  0  0  0  0  0  0  0  0
   26.2512  -21.7001  -12.9386 O   0  0  0  0  0  0  0  0  0  0  0  0
   25.0214  -20.0002  -13.8281 N   0  0  0  0  0  0  0  0  0  0  0  0
   24.1047  -20.9478  -14.5373 C   0  0  1  0  0  0  0  0  0  0  0  0
   22.8547  -21.0735  -13.7728 C   0  0  0  0  0  0  0  0  0  0  0  0
   21.7989  -21.8851  -14.4310 C   0  0  0  0  0  0  0  0  0  0  0  0
   20.5273  -21.9950  -13.6847 C   0  0  0  0  0  0  0  0  0  0  0  0
   20.3524  -21.4051  -12.5739 O   0  0  0  0  0  0  0  0  0  0  0  0
   24.0955  -20.6171  -15.9274 C   0  0  0  0  0  0  0  0  0  0  0  0
   24.2571  -19.3858  -16.2706 O   0  0  0  0  0  0  0  0  0  0  0  0
   19.4274  -22.7466  -14.1459 O   0  0  0  0  0  0  0  0  0  0  0  0
   23.9394  -21.4634  -17.0246 O   0  0  0  0  0  0  0  0  0  0  0  0
  2  1  1  1
  3  4  1  0
  3  2  1  0
  4  5  2  0
  5  6  1  0
  7  6  2  0
  8  7  1  0
  9  8  2  0
  9  4  1  0
 10  2  1  0
 10 11  2  0
 12 10  1  0
 13 12  1  0
 13 21  1  0
 13 14  1  6
 15 14  1  0
 16 15  2  0
 17 16  1  0
 18 17  2  0
 18 19  1  0
 19 20  2  0
 20 15  1  0
 21 23  1  0
 22 21  2  0
 23 24  1  0
 24 29  1  0
 25 26  1  0
 24 25  1  1
 27 26  1  0
 27 28  2  0
 29 30  2  0
 29 32  1  0
 31 27  1  0
M  END
$$$$
