FFE.pdb
     RDKit          3D

 32 33  0  0  1  0  0  0  0  0999 V2000
   28.3417  -20.6545  -15.5442 N   0  0  0  0  0  0  0  0  0  0  0  0
   27.3784  -19.9204  -14.7780 C   0  0  1  0  0  0  0  0  0  0  0  0
   26.5742  -18.9671  -15.6592 C   0  0  0  0  0  0  0  0  0  0  0  0
   27.4913  -17.9515  -16.2628 C   0  0  0  0  0  0  0  0  0  0  0  0
   27.8867  -16.8449  -15.5395 C   0  0  0  0  0  0  0  0  0  0  0  0
   28.7372  -15.9020  -16.1017 C   0  0  0  0  0  0  0  0  0  0  0  0
   29.1967  -16.0573  -17.3843 C   0  0  0  0  0  0  0  0  0  0  0  0
   28.8018  -17.1592  -18.1017 C   0  0  0  0  0  0  0  0  0  0  0  0
   27.9576  -18.1028  -17.5549 C   0  0  0  0  0  0  0  0  0  0  0  0
   26.4820  -20.7789  -13.9672 C   0  0  0  0  0  0  0  0  0  0  0  0
   26.0086  -21.8111  -14.4583 O   0  0  0  0  0  0  0  0  0  0  0  0
   26.1491  -20.4445  -12.6290 N   0  0  0  0  0  0  0  0  0  0  0  0
   25.1614  -21.0519  -11.8317 C   0  0  1  0  0  0  0  0  0  0  0  0
   25.5230  -21.3506  -10.3941 C   0  0  0  0  0  0  0  0  0  0  0  0
   26.9514  -21.1915  -10.0913 C   0  0  0  0  0  0  0  0  0  0  0  0
   27.8995  -21.7154  -10.9805 C   0  0  0  0  0  0  0  0  0  0  0  0
   29.2458  -21.5985  -10.7362 C   0  0  0  0  0  0  0  0  0  0  0  0
   29.7220  -20.9640   -9.6114 C   0  0  0  0  0  0  0  0  0  0  0  0
   28.7790  -20.4444   -8.7291 C   0  0  0  0  0  0  0  0  0  0  0  0
   27.4182  -20.5686   -8.9864 C   0  0  0  0  0  0  0  0  0  0  0  0
   23.8917  -20.3011  -11.8432 C   0  0  0  0  0  0  0  0  0  0  0  0
   23.9204  -19.0403  -12.0437 O   0  0  0  0  0  0  0  0  0  0  0  0
   22.6276  -20.8745  -11.6468 N   0  0  0  0  0  0  0  0  0  0  0  0
   21.4209  -20.4403  -12.4193 C   0  0  1  0  0  0  0  0  0  0  0  0
   21.7431  -20.4328  -13.8541 C   0  0  0  0  0  0  0  0  0  0  0  0
   20.6785  -19.8805  -14.7305 C   0  0  0  0  0  0  0  0  0  0  0  0
   19.6412  -20.8461  -15.1522 C   0  0  0  0  0  0  0  0  0  0  0  0
   18.6354  -21.1061  -14.4222 O   0  0  0  0  0  0  0  0  0  0  0  0
   20.2823  -21.1425  -11.9170 C   0  0  0  0  0  0  0  0  0  0  0  0
   19.1757  -20.4993  -11.7689 O   0  0  0  0  0  0  0  0  0  0  0  0
   19.6868  -21.5360  -16.3808 O   0  0  0  0  0  0  0  0  0  0  0  0
   20.1756  -22.4840  -11.5521 O   0  0  0  0  0  0  0  0  0  0  0  0
  2  1  1  6
  3  4  1  0
  3  2  1  0
  4  5  2  0
  5  6  1  0
  7  6  2  0
  8  7  1  0
  9  8  2  0
  9  4  1  0
 10  2  1  0
 10 11  2  0
 12 10  1  0
 13 12  1  0
 13 21  1  0
 13 14  1  1
 15 14  1  0
 16 15  2  0
 17 16  1  0
 18 17  2  0
 18 19  1  0
 19 20  2  0
 20 15  1  0
 21 23  1  0
 22 21  2  0
 23 24  1  0
 24 29  1  0
 25 26  1  0
 24 25  1  6
 27 26  1  0
 27 28  2  0
 29 30  2  0
 29 32  1  0
 31 27  1  0
M  END
$$$$
