FFE.pdb
     RDKit          3D

 32 33  0  0  1  0  0  0  0  0999 V2000
   25.1963  -20.3406  -18.8343 N   0  0  0  0  0  0  0  0  0  0  0  0
   24.9803  -19.5183  -17.6806 C   0  0  1  0  0  0  0  0  0  0  0  0
   23.8543  -18.5136  -17.9147 C   0  0  0  0  0  0  0  0  0  0  0  0
   24.2133  -17.6188  -19.0581 C   0  0  0  0  0  0  0  0  0  0  0  0
   23.8752  -17.9622  -20.3511 C   0  0  0  0  0  0  0  0  0  0  0  0
   24.2104  -17.1310  -21.4119 C   0  0  0  0  0  0  0  0  0  0  0  0
   24.8825  -15.9566  -21.1896 C   0  0  0  0  0  0  0  0  0  0  0  0
   25.2175  -15.6174  -19.9022 C   0  0  0  0  0  0  0  0  0  0  0  0
   24.8905  -16.4340  -18.8400 C   0  0  0  0  0  0  0  0  0  0  0  0
   24.7555  -20.2879  -16.4335 C   0  0  0  0  0  0  0  0  0  0  0  0
   23.9214  -21.2015  -16.4160 O   0  0  0  0  0  0  0  0  0  0  0  0
   25.4791  -20.0013  -15.2471 N   0  0  0  0  0  0  0  0  0  0  0  0
   25.2445  -20.5404  -13.9685 C   0  0  1  0  0  0  0  0  0  0  0  0
   26.2394  -20.1976  -12.8825 C   0  0  0  0  0  0  0  0  0  0  0  0
   25.7802  -20.5245  -11.5261 C   0  0  0  0  0  0  0  0  0  0  0  0
   25.8539  -21.8518  -11.0826 C   0  0  0  0  0  0  0  0  0  0  0  0
   25.4292  -22.2073   -9.8259 C   0  0  0  0  0  0  0  0  0  0  0  0
   24.9143  -21.2792   -8.9496 C   0  0  0  0  0  0  0  0  0  0  0  0
   24.8417  -19.9612   -9.3917 C   0  0  0  0  0  0  0  0  0  0  0  0
   25.2745  -19.6126  -10.6663 C   0  0  0  0  0  0  0  0  0  0  0  0
   23.8907  -20.2325  -13.4701 C   0  0  0  0  0  0  0  0  0  0  0  0
   23.4965  -19.0180  -13.4603 O   0  0  0  0  0  0  0  0  0  0  0  0
   22.9822  -21.1888  -12.9953 N   0  0  0  0  0  0  0  0  0  0  0  0
   21.5939  -20.8315  -12.5634 C   0  0  1  0  0  0  0  0  0  0  0  0
   20.7758  -20.5500  -13.7525 C   0  0  0  0  0  0  0  0  0  0  0  0
   19.3506  -20.2396  -13.4710 C   0  0  0  0  0  0  0  0  0  0  0  0
   18.3672  -20.9899  -14.2808 C   0  0  0  0  0  0  0  0  0  0  0  0
   18.3320  -20.8926  -15.5464 O   0  0  0  0  0  0  0  0  0  0  0  0
   21.1691  -21.7715  -11.5746 C   0  0  0  0  0  0  0  0  0  0  0  0
   21.4360  -23.0192  -11.7533 O   0  0  0  0  0  0  0  0  0  0  0  0
   17.4128  -21.8617  -13.7181 O   0  0  0  0  0  0  0  0  0  0  0  0
   20.4839  -21.5351  -10.3834 O   0  0  0  0  0  0  0  0  0  0  0  0
  2  1  1  6
  3  4  1  0
  3  2  1  0
  4  5  2  0
  5  6  1  0
  7  6  2  0
  8  7  1  0
  9  8  2  0
  9  4  1  0
 10  2  1  0
 10 11  2  0
 12 10  1  0
 13 12  1  0
 13 21  1  0
 13 14  1  1
 15 14  1  0
 16 15  2  0
 17 16  1  0
 18 17  2  0
 18 19  1  0
 19 20  2  0
 20 15  1  0
 21 23  1  0
 22 21  2  0
 23 24  1  0
 24 29  1  0
 25 26  1  0
 24 25  1  6
 27 26  1  0
 27 28  2  0
 29 30  2  0
 29 32  1  0
 31 27  1  0
M  END
$$$$
