FFE.pdb
     RDKit          3D

 32 33  0  0  1  0  0  0  0  0999 V2000
   21.9944   -6.0648  -12.4775 N   0  0  0  0  0  0  0  0  0  0  0  0
   21.9374   -6.8409  -13.6810 C   0  0  1  0  0  0  0  0  0  0  0  0
   21.1292   -8.1212  -13.4812 C   0  0  0  0  0  0  0  0  0  0  0  0
   21.8548   -9.0276  -12.5384 C   0  0  0  0  0  0  0  0  0  0  0  0
   21.5153   -9.0669  -11.2015 C   0  0  0  0  0  0  0  0  0  0  0  0
   22.1908   -9.9080  -10.3270 C   0  0  0  0  0  0  0  0  0  0  0  0
   23.2052  -10.7119  -10.7797 C   0  0  0  0  0  0  0  0  0  0  0  0
   23.5408  -10.6709  -12.1102 C   0  0  0  0  0  0  0  0  0  0  0  0
   22.8778   -9.8400  -12.9890 C   0  0  0  0  0  0  0  0  0  0  0  0
   21.4492   -6.0820  -14.8573 C   0  0  0  0  0  0  0  0  0  0  0  0
   20.7476   -5.0763  -14.6929 O   0  0  0  0  0  0  0  0  0  0  0  0
   21.7686   -6.4829  -16.1804 N   0  0  0  0  0  0  0  0  0  0  0  0
   21.3796   -5.8403  -17.3704 C   0  0  1  0  0  0  0  0  0  0  0  0
   22.4804   -5.4133  -18.3151 C   0  0  0  0  0  0  0  0  0  0  0  0
   23.3350   -4.3397  -17.7913 C   0  0  0  0  0  0  0  0  0  0  0  0
   22.9663   -3.0057  -18.0114 C   0  0  0  0  0  0  0  0  0  0  0  0
   23.7373   -1.9680  -17.5481 C   0  0  0  0  0  0  0  0  0  0  0  0
   24.9021   -2.1913  -16.8497 C   0  0  0  0  0  0  0  0  0  0  0  0
   25.2671   -3.5169  -16.6319 C   0  0  0  0  0  0  0  0  0  0  0  0
   24.4788   -4.5597  -17.1057 C   0  0  0  0  0  0  0  0  0  0  0  0
   20.3924   -6.6258  -18.1348 C   0  0  0  0  0  0  0  0  0  0  0  0
   20.4674   -7.9004  -18.1158 O   0  0  0  0  0  0  0  0  0  0  0  0
   19.3551   -6.0717  -18.8980 N   0  0  0  0  0  0  0  0  0  0  0  0
   18.1126   -6.8350  -19.2370 C   0  0  1  0  0  0  0  0  0  0  0  0
   17.5979   -7.4838  -18.0218 C   0  0  0  0  0  0  0  0  0  0  0  0
   17.8739   -8.9403  -17.9267 C   0  0  0  0  0  0  0  0  0  0  0  0
   17.2597   -9.6269  -16.7702 C   0  0  0  0  0  0  0  0  0  0  0  0
   16.0557  -10.0292  -16.7954 O   0  0  0  0  0  0  0  0  0  0  0  0
   17.2770   -6.0068  -20.0480 C   0  0  0  0  0  0  0  0  0  0  0  0
   17.4900   -4.7361  -20.0583 O   0  0  0  0  0  0  0  0  0  0  0  0
   17.9559   -9.8882  -15.5725 O   0  0  0  0  0  0  0  0  0  0  0  0
   16.2199   -6.3800  -20.8773 O   0  0  0  0  0  0  0  0  0  0  0  0
  2  1  1  1
  3  4  1  0
  3  2  1  0
  4  5  2  0
  5  6  1  0
  7  6  2  0
  8  7  1  0
  9  8  2  0
  9  4  1  0
 10  2  1  0
 10 11  2  0
 12 10  1  0
 13 12  1  0
 13 21  1  0
 13 14  1  6
 15 14  1  0
 16 15  2  0
 17 16  1  0
 18 17  2  0
 18 19  1  0
 19 20  2  0
 20 15  1  0
 21 23  1  0
 22 21  2  0
 23 24  1  0
 24 29  1  0
 25 26  1  0
 24 25  1  1
 27 26  1  0
 27 28  2  0
 29 30  2  0
 29 32  1  0
 31 27  1  0
M  END
$$$$
