FFE.pdb
     RDKit          3D

 32 33  0  0  1  0  0  0  0  0999 V2000
   27.0428  -20.1008  -17.0111 N   0  0  0  0  0  0  0  0  0  0  0  0
   26.9167  -19.8410  -15.6074 C   0  0  1  0  0  0  0  0  0  0  0  0
   26.8536  -18.3422  -15.3211 C   0  0  0  0  0  0  0  0  0  0  0  0
   27.9856  -17.6533  -16.0145 C   0  0  0  0  0  0  0  0  0  0  0  0
   27.7407  -16.6800  -16.9615 C   0  0  0  0  0  0  0  0  0  0  0  0
   28.7928  -16.0421  -17.6055 C   0  0  0  0  0  0  0  0  0  0  0  0
   30.0908  -16.3706  -17.3095 C   0  0  0  0  0  0  0  0  0  0  0  0
   30.3316  -17.3393  -16.3670 C   0  0  0  0  0  0  0  0  0  0  0  0
   29.2957  -17.9801  -15.7203 C   0  0  0  0  0  0  0  0  0  0  0  0
   25.7837  -20.5525  -14.9686 C   0  0  0  0  0  0  0  0  0  0  0  0
   24.7177  -20.6878  -15.5818 O   0  0  0  0  0  0  0  0  0  0  0  0
   25.8907  -21.0878  -13.6589 N   0  0  0  0  0  0  0  0  0  0  0  0
   24.8943  -21.7871  -12.9528 C   0  0  1  0  0  0  0  0  0  0  0  0
   25.2846  -22.3848  -11.6197 C   0  0  0  0  0  0  0  0  0  0  0  0
   25.7160  -21.3950  -10.6239 C   0  0  0  0  0  0  0  0  0  0  0  0
   27.0829  -21.1196  -10.4839 C   0  0  0  0  0  0  0  0  0  0  0  0
   27.5349  -20.2083   -9.5613 C   0  0  0  0  0  0  0  0  0  0  0  0
   26.6686  -19.5277   -8.7361 C   0  0  0  0  0  0  0  0  0  0  0  0
   25.3112  -19.8025   -8.8762 C   0  0  0  0  0  0  0  0  0  0  0  0
   24.8648  -20.7273   -9.8138 C   0  0  0  0  0  0  0  0  0  0  0  0
   23.6741  -20.9811  -12.7592 C   0  0  0  0  0  0  0  0  0  0  0  0
   23.7791  -19.8086  -12.2646 O   0  0  0  0  0  0  0  0  0  0  0  0
   22.3790  -21.4099  -13.0822 N   0  0  0  0  0  0  0  0  0  0  0  0
   21.1746  -20.5424  -12.8865 C   0  0  1  0  0  0  0  0  0  0  0  0
   20.8746  -19.8422  -14.1444 C   0  0  0  0  0  0  0  0  0  0  0  0
   19.6586  -18.9896  -14.1100 C   0  0  0  0  0  0  0  0  0  0  0  0
   19.3050  -18.3391  -15.3898 C   0  0  0  0  0  0  0  0  0  0  0  0
   18.3191  -17.5445  -15.4844 O   0  0  0  0  0  0  0  0  0  0  0  0
   20.1753  -21.2994  -12.2008 C   0  0  0  0  0  0  0  0  0  0  0  0
   20.1933  -22.5835  -12.3048 O   0  0  0  0  0  0  0  0  0  0  0  0
   20.0285  -18.5441  -16.5823 O   0  0  0  0  0  0  0  0  0  0  0  0
   19.1375  -20.8418  -11.3897 O   0  0  0  0  0  0  0  0  0  0  0  0
  2  1  1  6
  3  4  1  0
  3  2  1  0
  4  5  2  0
  5  6  1  0
  7  6  2  0
  8  7  1  0
  9  8  2  0
  9  4  1  0
 10  2  1  0
 10 11  2  0
 12 10  1  0
 13 12  1  0
 13 21  1  0
 13 14  1  1
 15 14  1  0
 16 15  2  0
 17 16  1  0
 18 17  2  0
 18 19  1  0
 19 20  2  0
 20 15  1  0
 21 23  1  0
 22 21  2  0
 23 24  1  0
 24 29  1  0
 25 26  1  0
 24 25  1  6
 27 26  1  0
 27 28  2  0
 29 30  2  0
 29 32  1  0
 31 27  1  0
M  END
$$$$
