FFE.pdb
     RDKit          3D

 32 33  0  0  1  0  0  0  0  0999 V2000
   23.9547  -17.6399  -19.4755 N   0  0  0  0  0  0  0  0  0  0  0  0
   23.2197  -17.4343  -18.2626 C   0  0  1  0  0  0  0  0  0  0  0  0
   21.7470  -17.1451  -18.5451 C   0  0  0  0  0  0  0  0  0  0  0  0
   21.6165  -15.8004  -19.1867 C   0  0  0  0  0  0  0  0  0  0  0  0
   21.2190  -15.6865  -20.5032 C   0  0  0  0  0  0  0  0  0  0  0  0
   21.0995  -14.4373  -21.0982 C   0  0  0  0  0  0  0  0  0  0  0  0
   21.3750  -13.2987  -20.3855 C   0  0  0  0  0  0  0  0  0  0  0  0
   21.7702  -13.4149  -19.0760 C   0  0  0  0  0  0  0  0  0  0  0  0
   21.8927  -14.6494  -18.4735 C   0  0  0  0  0  0  0  0  0  0  0  0
   23.3665  -18.5368  -17.2823 C   0  0  0  0  0  0  0  0  0  0  0  0
   23.2803  -19.7118  -17.6601 O   0  0  0  0  0  0  0  0  0  0  0  0
   23.6057  -18.2773  -15.9080 N   0  0  0  0  0  0  0  0  0  0  0  0
   23.7148  -19.2312  -14.8791 C   0  0  1  0  0  0  0  0  0  0  0  0
   24.4888  -18.8279  -13.6441 C   0  0  0  0  0  0  0  0  0  0  0  0
   24.5780  -19.8808  -12.6240 C   0  0  0  0  0  0  0  0  0  0  0  0
   23.7425  -19.8146  -11.5008 C   0  0  0  0  0  0  0  0  0  0  0  0
   23.7952  -20.7711  -10.5167 C   0  0  0  0  0  0  0  0  0  0  0  0
   24.6676  -21.8332  -10.5897 C   0  0  0  0  0  0  0  0  0  0  0  0
   25.4969  -21.8975  -11.7059 C   0  0  0  0  0  0  0  0  0  0  0  0
   25.4351  -20.9233  -12.6962 C   0  0  0  0  0  0  0  0  0  0  0  0
   22.4010  -19.7493  -14.4533 C   0  0  0  0  0  0  0  0  0  0  0  0
   21.5102  -18.9251  -14.0558 O   0  0  0  0  0  0  0  0  0  0  0  0
   22.0445  -21.1051  -14.4500 N   0  0  0  0  0  0  0  0  0  0  0  0
   20.6940  -21.5785  -14.0100 C   0  0  1  0  0  0  0  0  0  0  0  0
   20.2034  -22.5883  -14.9598 C   0  0  0  0  0  0  0  0  0  0  0  0
   18.7542  -22.8963  -14.8508 C   0  0  0  0  0  0  0  0  0  0  0  0
   18.2832  -24.0270  -15.6788 C   0  0  0  0  0  0  0  0  0  0  0  0
   17.0595  -24.3637  -15.7145 O   0  0  0  0  0  0  0  0  0  0  0  0
   20.7385  -21.8388  -12.6057 C   0  0  0  0  0  0  0  0  0  0  0  0
   19.9886  -21.1411  -11.8240 O   0  0  0  0  0  0  0  0  0  0  0  0
   19.1434  -24.8013  -16.4839 O   0  0  0  0  0  0  0  0  0  0  0  0
   21.4990  -22.7830  -11.9169 O   0  0  0  0  0  0  0  0  0  0  0  0
  2  1  1  6
  3  4  1  0
  3  2  1  0
  4  5  2  0
  5  6  1  0
  7  6  2  0
  8  7  1  0
  9  8  2  0
  9  4  1  0
 10  2  1  0
 10 11  2  0
 12 10  1  0
 13 12  1  0
 13 21  1  0
 13 14  1  1
 15 14  1  0
 16 15  2  0
 17 16  1  0
 18 17  2  0
 18 19  1  0
 19 20  2  0
 20 15  1  0
 21 23  1  0
 22 21  2  0
 23 24  1  0
 24 29  1  0
 25 26  1  0
 24 25  1  6
 27 26  1  0
 27 28  2  0
 29 30  2  0
 29 32  1  0
 31 27  1  0
M  END
$$$$
