MKC.pdb
     RDKit          3D

 24 23  0  0  1  0  0  0  0  0999 V2000
   30.9406  -21.4681  -10.5141 C   0  0  0  0  0  0  0  0  0  0  0  0
   30.7654  -22.0531  -12.2004 S   0  0  0  0  0  0  0  0  0  0  0  0
   30.7336  -20.6367  -13.3253 C   0  0  0  0  0  0  0  0  0  0  0  0
   29.4300  -19.8655  -13.2072 C   0  0  0  0  0  0  0  0  0  0  0  0
   28.6299  -20.1465  -14.4582 C   0  0  2  0  0  0  0  0  0  0  0  0
   29.1066  -19.2674  -15.5050 N   0  0  0  0  0  0  0  0  0  0  0  0
   27.1938  -19.9442  -14.2755 C   0  0  0  0  0  0  0  0  0  0  0  0
   26.7593  -18.8105  -13.9560 O   0  0  0  0  0  0  0  0  0  0  0  0
   26.2138  -20.9674  -14.4368 N   0  0  0  0  0  0  0  0  0  0  0  0
   24.8489  -20.7977  -13.9449 C   0  0  1  0  0  0  0  0  0  0  0  0
   23.9530  -21.4687  -14.9437 C   0  0  0  0  0  0  0  0  0  0  0  0
   22.4929  -21.4343  -14.5782 C   0  0  0  0  0  0  0  0  0  0  0  0
   21.7602  -20.3009  -15.2375 C   0  0  0  0  0  0  0  0  0  0  0  0
   20.3081  -20.2392  -14.8139 C   0  0  0  0  0  0  0  0  0  0  0  0
   19.6232  -19.1081  -15.3688 N   0  0  0  0  0  0  0  0  0  0  0  0
   24.7022  -21.3506  -12.5793 C   0  0  0  0  0  0  0  0  0  0  0  0
   24.8759  -22.5748  -12.3644 O   0  0  0  0  0  0  0  0  0  0  0  0
   24.3633  -20.5363  -11.4642 N   0  0  0  0  0  0  0  0  0  0  0  0
   23.9643  -21.1105  -10.1935 C   0  0  1  0  0  0  0  0  0  0  0  0
   24.6789  -20.4557   -9.0322 C   0  0  0  0  0  0  0  0  0  0  0  0
   26.4025  -20.9521   -9.0423 S   0  0  0  0  0  0  0  0  0  0  0  0
   22.5035  -20.8643   -9.9916 C   0  0  0  0  0  0  0  0  0  0  0  0
   21.9063  -21.3036   -8.9696 O   0  0  0  0  0  0  0  0  0  0  0  0
   21.7670  -20.1513  -10.9143 O   0  0  0  0  0  0  0  0  0  0  0  0
  1  2  1  0
  2  3  1  0
  4  3  1  0
  5  4  1  0
  5  6  1  6
  7  8  2  0
  7  5  1  0
  9  7  1  0
 10  9  1  0
 10 11  1  6
 12 13  1  0
 12 11  1  0
 13 14  1  0
 14 15  1  0
 16 17  2  0
 16 10  1  0
 18 16  1  0
 19 18  1  0
 19 20  1  1
 20 21  1  0
 22 19  1  0
 23 22  2  0
 24 22  1  0
M  END
$$$$
