MKC.pdb
     RDKit          3D

 24 23  0  0  1  0  0  0  0  0999 V2000
   25.5947  -15.3419  -16.4462 C   0  0  0  0  0  0  0  0  0  0  0  0
   24.5036  -13.9308  -16.6331 S   0  0  0  0  0  0  0  0  0  0  0  0
   23.2688  -14.2929  -17.9046 C   0  0  0  0  0  0  0  0  0  0  0  0
   22.4528  -13.0590  -18.2506 C   0  0  0  0  0  0  0  0  0  0  0  0
   21.7858  -12.5929  -16.9769 C   0  0  2  0  0  0  0  0  0  0  0  0
   20.8448  -13.6118  -16.5621 N   0  0  0  0  0  0  0  0  0  0  0  0
   21.0821  -11.3212  -17.1328 C   0  0  0  0  0  0  0  0  0  0  0  0
   21.6760  -10.3376  -17.6387 O   0  0  0  0  0  0  0  0  0  0  0  0
   19.7283  -11.1018  -16.7425 N   0  0  0  0  0  0  0  0  0  0  0  0
   19.0902   -9.7985  -16.9096 C   0  0  1  0  0  0  0  0  0  0  0  0
   17.6178  -10.0606  -17.0273 C   0  0  0  0  0  0  0  0  0  0  0  0
   17.2211  -10.7737  -18.2925 C   0  0  0  0  0  0  0  0  0  0  0  0
   15.7382  -10.9912  -18.3908 C   0  0  0  0  0  0  0  0  0  0  0  0
   15.3610  -11.7949  -19.6169 C   0  0  0  0  0  0  0  0  0  0  0  0
   13.9495  -12.0329  -19.7031 N   0  0  0  0  0  0  0  0  0  0  0  0
   19.4245   -8.8938  -15.7864 C   0  0  0  0  0  0  0  0  0  0  0  0
   18.9830   -9.1179  -14.6331 O   0  0  0  0  0  0  0  0  0  0  0  0
   20.2475   -7.7468  -15.9560 N   0  0  0  0  0  0  0  0  0  0  0  0
   20.6016   -6.8903  -14.8404 C   0  0  1  0  0  0  0  0  0  0  0  0
   22.0791   -6.9621  -14.5240 C   0  0  0  0  0  0  0  0  0  0  0  0
   22.3848   -8.3584  -13.4404 S   0  0  0  0  0  0  0  0  0  0  0  0
   20.3114   -5.4714  -15.2120 C   0  0  0  0  0  0  0  0  0  0  0  0
   20.4212   -4.5427  -14.3637 O   0  0  0  0  0  0  0  0  0  0  0  0
   19.9160   -5.1364  -16.4901 O   0  0  0  0  0  0  0  0  0  0  0  0
  1  2  1  0
  2  3  1  0
  4  3  1  0
  5  4  1  0
  5  6  1  6
  7  8  2  0
  7  5  1  0
  9  7  1  0
 10  9  1  0
 10 11  1  1
 12 13  1  0
 12 11  1  0
 13 14  1  0
 14 15  1  0
 16 17  2  0
 16 10  1  0
 18 16  1  0
 19 18  1  0
 19 20  1  6
 20 21  1  0
 22 19  1  0
 23 22  2  0
 24 22  1  0
M  END
$$$$
