MKC.pdb
     RDKit          3D

 24 23  0  0  1  0  0  0  0  0999 V2000
   37.5930  -33.7463  -14.2595 C   0  0  0  0  0  0  0  0  0  0  0  0
   38.5150  -32.3398  -14.8824 S   0  0  0  0  0  0  0  0  0  0  0  0
   37.7854  -30.8138  -14.2406 C   0  0  0  0  0  0  0  0  0  0  0  0
   36.3427  -30.6584  -14.6905 C   0  0  0  0  0  0  0  0  0  0  0  0
   36.3647  -29.9458  -16.0232 C   0  0  2  0  0  0  0  0  0  0  0  0
   36.7020  -28.5579  -15.7866 N   0  0  0  0  0  0  0  0  0  0  0  0
   35.0878  -30.0178  -16.7309 C   0  0  0  0  0  0  0  0  0  0  0  0
   34.2312  -29.1151  -16.5653 O   0  0  0  0  0  0  0  0  0  0  0  0
   34.7255  -31.0680  -17.6249 N   0  0  0  0  0  0  0  0  0  0  0  0
   33.4831  -31.0196  -18.3914 C   0  0  1  0  0  0  0  0  0  0  0  0
   33.7554  -31.7314  -19.6836 C   0  0  0  0  0  0  0  0  0  0  0  0
   34.3636  -30.8581  -20.7485 C   0  0  0  0  0  0  0  0  0  0  0  0
   34.6347  -31.6063  -22.0223 C   0  0  0  0  0  0  0  0  0  0  0  0
   35.2261  -30.7132  -23.0920 C   0  0  0  0  0  0  0  0  0  0  0  0
   35.5058  -31.4237  -24.3058 N   0  0  0  0  0  0  0  0  0  0  0  0
   32.3638  -31.6194  -17.6302 C   0  0  0  0  0  0  0  0  0  0  0  0
   32.5562  -32.6146  -16.8901 O   0  0  0  0  0  0  0  0  0  0  0  0
   31.0395  -31.1066  -17.6990 N   0  0  0  0  0  0  0  0  0  0  0  0
   29.9725  -31.6361  -16.8715 C   0  0  1  0  0  0  0  0  0  0  0  0
   28.8552  -30.6334  -16.6862 C   0  0  0  0  0  0  0  0  0  0  0  0
   27.5801  -31.3533  -15.6502 S   0  0  0  0  0  0  0  0  0  0  0  0
   29.3744  -32.8220  -17.5582 C   0  0  0  0  0  0  0  0  0  0  0  0
   29.1001  -33.8739  -16.9161 O   0  0  0  0  0  0  0  0  0  0  0  0
   29.1053  -32.8013  -18.9107 O   0  0  0  0  0  0  0  0  0  0  0  0
  1  2  1  0
  2  3  1  0
  4  3  1  0
  5  4  1  0
  5  6  1  1
  7  8  2  0
  7  5  1  0
  9  7  1  0
 10  9  1  0
 10 11  1  6
 12 13  1  0
 12 11  1  0
 13 14  1  0
 14 15  1  0
 16 17  2  0
 16 10  1  0
 18 16  1  0
 19 18  1  0
 19 20  1  6
 20 21  1  0
 22 19  1  0
 23 22  2  0
 24 22  1  0
M  END
$$$$
