MKC.pdb
     RDKit          3D

 24 23  0  0  1  0  0  0  0  0999 V2000
   24.8589  -20.0676   -9.4057 C   0  0  0  0  0  0  0  0  0  0  0  0
   26.3167  -21.0944   -9.5972 S   0  0  0  0  0  0  0  0  0  0  0  0
   26.4956  -21.5620  -11.3356 C   0  0  0  0  0  0  0  0  0  0  0  0
   25.1459  -21.8377  -11.9761 C   0  0  0  0  0  0  0  0  0  0  0  0
   25.4070  -22.2631  -13.4027 C   0  0  2  0  0  0  0  0  0  0  0  0
   26.0309  -21.1560  -14.0961 N   0  0  0  0  0  0  0  0  0  0  0  0
   24.1913  -22.6541  -14.1139 C   0  0  0  0  0  0  0  0  0  0  0  0
   23.5314  -21.7906  -14.7424 O   0  0  0  0  0  0  0  0  0  0  0  0
   23.6780  -23.9840  -14.1518 N   0  0  0  0  0  0  0  0  0  0  0  0
   22.5047  -24.3238  -14.9527 C   0  0  1  0  0  0  0  0  0  0  0  0
   22.5516  -25.8085  -15.1626 C   0  0  0  0  0  0  0  0  0  0  0  0
   23.3069  -26.2301  -16.3948 C   0  0  0  0  0  0  0  0  0  0  0  0
   24.7852  -26.3432  -16.1542 C   0  0  0  0  0  0  0  0  0  0  0  0
   25.5344  -26.7605  -17.4017 C   0  0  0  0  0  0  0  0  0  0  0  0
   26.9495  -26.8488  -17.1870 N   0  0  0  0  0  0  0  0  0  0  0  0
   21.2591  -23.8767  -14.2890 C   0  0  0  0  0  0  0  0  0  0  0  0
   21.0889  -24.0622  -13.0595 O   0  0  0  0  0  0  0  0  0  0  0  0
   20.2129  -23.2267  -14.9994 N   0  0  0  0  0  0  0  0  0  0  0  0
   19.0243  -22.7371  -14.3278 C   0  0  1  0  0  0  0  0  0  0  0  0
   18.3571  -21.6250  -15.1064 C   0  0  0  0  0  0  0  0  0  0  0  0
   19.3229  -20.1229  -14.9380 S   0  0  0  0  0  0  0  0  0  0  0  0
   18.0310  -23.8507  -14.2346 C   0  0  0  0  0  0  0  0  0  0  0  0
   18.1497  -24.8875  -14.9453 O   0  0  0  0  0  0  0  0  0  0  0  0
   16.9580  -23.7779  -13.3712 O   0  0  0  0  0  0  0  0  0  0  0  0
  1  2  1  0
  2  3  1  0
  4  3  1  0
  5  4  1  0
  5  6  1  6
  7  8  2  0
  7  5  1  0
  9  7  1  0
 10  9  1  0
 10 11  1  1
 12 13  1  0
 12 11  1  0
 13 14  1  0
 14 15  1  0
 16 17  2  0
 16 10  1  0
 18 16  1  0
 19 18  1  0
 19 20  1  6
 20 21  1  0
 22 19  1  0
 23 22  2  0
 24 22  1  0
M  END
$$$$
