MKC.pdb
     RDKit          3D

 24 23  0  0  1  0  0  0  0  0999 V2000
   30.5593  -21.9502  -11.9404 C   0  0  0  0  0  0  0  0  0  0  0  0
   30.3020  -21.9387  -10.1655 S   0  0  0  0  0  0  0  0  0  0  0  0
   28.8738  -20.8995   -9.7743 C   0  0  0  0  0  0  0  0  0  0  0  0
   27.7532  -21.0976  -10.7809 C   0  0  0  0  0  0  0  0  0  0  0  0
   26.6612  -20.1122  -10.4331 C   0  0  2  0  0  0  0  0  0  0  0  0
   26.0861  -20.5062   -9.1643 N   0  0  0  0  0  0  0  0  0  0  0  0
   25.6056  -20.0496  -11.4423 C   0  0  0  0  0  0  0  0  0  0  0  0
   24.4083  -20.2165  -11.1036 O   0  0  0  0  0  0  0  0  0  0  0  0
   25.8358  -19.8056  -12.8283 N   0  0  0  0  0  0  0  0  0  0  0  0
   24.7328  -19.5311  -13.7457 C   0  0  1  0  0  0  0  0  0  0  0  0
   25.3430  -18.9080  -14.9662 C   0  0  0  0  0  0  0  0  0  0  0  0
   24.3399  -18.4905  -16.0084 C   0  0  0  0  0  0  0  0  0  0  0  0
   24.5538  -19.1823  -17.3242 C   0  0  0  0  0  0  0  0  0  0  0  0
   23.5583  -18.7324  -18.3722 C   0  0  0  0  0  0  0  0  0  0  0  0
   23.7716  -19.3687  -19.6394 N   0  0  0  0  0  0  0  0  0  0  0  0
   23.9732  -20.7651  -14.0496 C   0  0  0  0  0  0  0  0  0  0  0  0
   24.5620  -21.7887  -14.4747 O   0  0  0  0  0  0  0  0  0  0  0  0
   22.5643  -20.8496  -13.8780 N   0  0  0  0  0  0  0  0  0  0  0  0
   21.8404  -22.0850  -14.1088 C   0  0  1  0  0  0  0  0  0  0  0  0
   20.6031  -22.1810  -13.2439 C   0  0  0  0  0  0  0  0  0  0  0  0
   19.7167  -20.6228  -13.3045 S   0  0  0  0  0  0  0  0  0  0  0  0
   21.3736  -22.1112  -15.5289 C   0  0  0  0  0  0  0  0  0  0  0  0
   21.3737  -21.0623  -16.2317 O   0  0  0  0  0  0  0  0  0  0  0  0
   20.9301  -23.2799  -16.1116 O   0  0  0  0  0  0  0  0  0  0  0  0
  1  2  1  0
  2  3  1  0
  4  3  1  0
  5  4  1  0
  5  6  1  1
  7  8  2  0
  7  5  1  0
  9  7  1  0
 10  9  1  0
 10 11  1  6
 12 13  1  0
 12 11  1  0
 13 14  1  0
 14 15  1  0
 16 17  2  0
 16 10  1  0
 18 16  1  0
 19 18  1  0
 19 20  1  1
 20 21  1  0
 22 19  1  0
 23 22  2  0
 24 22  1  0
M  END
$$$$
