MKC.pdb
     RDKit          3D

 24 23  0  0  1  0  0  0  0  0999 V2000
   15.0027  -12.0840  -14.7083 C   0  0  0  0  0  0  0  0  0  0  0  0
   15.0395  -13.5561  -15.7321 S   0  0  0  0  0  0  0  0  0  0  0  0
   16.5798  -13.5876  -16.6803 C   0  0  0  0  0  0  0  0  0  0  0  0
   16.8850  -12.2277  -17.2851 C   0  0  0  0  0  0  0  0  0  0  0  0
   18.1701  -12.3657  -18.0686 C   0  0  2  0  0  0  0  0  0  0  0  0
   18.6738  -13.7091  -17.8753 N   0  0  0  0  0  0  0  0  0  0  0  0
   19.1931  -11.4040  -17.6621 C   0  0  0  0  0  0  0  0  0  0  0  0
   19.8170  -11.5745  -16.5861 O   0  0  0  0  0  0  0  0  0  0  0  0
   19.5509  -10.2481  -18.4166 N   0  0  0  0  0  0  0  0  0  0  0  0
   20.5152   -9.2761  -17.9077 C   0  0  1  0  0  0  0  0  0  0  0  0
   20.8941   -8.4075  -19.0707 C   0  0  0  0  0  0  0  0  0  0  0  0
   22.3779   -8.2083  -19.2296 C   0  0  0  0  0  0  0  0  0  0  0  0
   22.8466   -8.4631  -20.6336 C   0  0  0  0  0  0  0  0  0  0  0  0
   24.3171   -8.1489  -20.8084 C   0  0  0  0  0  0  0  0  0  0  0  0
   25.1625   -9.0912  -20.1349 N   0  0  0  0  0  0  0  0  0  0  0  0
   19.9494   -8.5065  -16.7765 C   0  0  0  0  0  0  0  0  0  0  0  0
   18.7491   -8.1402  -16.7908 O   0  0  0  0  0  0  0  0  0  0  0  0
   20.7243   -8.1510  -15.6387 N   0  0  0  0  0  0  0  0  0  0  0  0
   20.1712   -7.3601  -14.5559 C   0  0  1  0  0  0  0  0  0  0  0  0
   20.7273   -7.7795  -13.2132 C   0  0  0  0  0  0  0  0  0  0  0  0
   19.8240   -9.2111  -12.6199 S   0  0  0  0  0  0  0  0  0  0  0  0
   20.5634   -5.9311  -14.7547 C   0  0  0  0  0  0  0  0  0  0  0  0
   20.1043   -5.0221  -14.0084 O   0  0  0  0  0  0  0  0  0  0  0  0
   21.4367   -5.5649  -15.7574 O   0  0  0  0  0  0  0  0  0  0  0  0
  1  2  1  0
  2  3  1  0
  4  3  1  0
  5  4  1  0
  5  6  1  1
  7  8  2  0
  7  5  1  0
  9  7  1  0
 10  9  1  0
 10 11  1  6
 12 13  1  0
 12 11  1  0
 13 14  1  0
 14 15  1  0
 16 17  2  0
 16 10  1  0
 18 16  1  0
 19 18  1  0
 19 20  1  1
 20 21  1  0
 22 19  1  0
 23 22  2  0
 24 22  1  0
M  END
$$$$
