NFN.pdb
     RDKit          3D

 28 28  0  0  1  0  0  0  0  0999 V2000
   11.9294  -18.6940   18.1671 N   0  0  0  0  0  0  0  0  0  0  0  0
   11.0109  -17.6361   18.3730 C   0  0  0  0  0  0  0  0  0  0  0  0
   10.1063  -17.4668   17.5190 O   0  0  0  0  0  0  0  0  0  0  0  0
   11.0550  -16.7171   19.5371 C   0  0  0  0  0  0  0  0  0  0  0  0
   10.0362  -17.1828   20.5701 C   0  0  2  0  0  0  0  0  0  0  0  0
    8.7397  -17.0649   19.8948 N   0  0  0  0  0  0  0  0  0  0  0  0
   10.0200  -16.2779   21.7448 C   0  0  0  0  0  0  0  0  0  0  0  0
   11.0803  -15.8894   22.3034 O   0  0  0  0  0  0  0  0  0  0  0  0
    8.7847  -15.8153   22.2832 N   0  0  0  0  0  0  0  0  0  0  0  0
    8.7197  -15.0833   23.5372 C   0  0  1  0  0  0  0  0  0  0  0  0
    7.4879  -14.2127   23.5986 C   0  0  0  0  0  0  0  0  0  0  0  0
    7.3698  -13.4160   24.8346 C   0  0  0  0  0  0  0  0  0  0  0  0
    6.4556  -13.8086   25.7818 C   0  0  0  0  0  0  0  0  0  0  0  0
    6.3187  -13.0892   26.9458 C   0  0  0  0  0  0  0  0  0  0  0  0
    7.1113  -11.9631   27.1567 C   0  0  0  0  0  0  0  0  0  0  0  0
    8.0313  -11.5572   26.2174 C   0  0  0  0  0  0  0  0  0  0  0  0
    8.1648  -12.2797   25.0546 C   0  0  0  0  0  0  0  0  0  0  0  0
    8.8749  -15.9928   24.6965 C   0  0  0  0  0  0  0  0  0  0  0  0
    8.0389  -16.9077   24.8696 O   0  0  0  0  0  0  0  0  0  0  0  0
   11.9628  -18.9385   24.5020 N   0  0  0  0  0  0  0  0  0  0  0  0
   11.6325  -18.7487   25.8842 C   0  0  0  0  0  0  0  0  0  0  0  0
   11.3515  -19.7543   26.5770 O   0  0  0  0  0  0  0  0  0  0  0  0
   11.6143  -17.4141   26.5074 C   0  0  0  0  0  0  0  0  0  0  0  0
   10.2343  -16.9031   26.6513 C   0  0  2  0  0  0  0  0  0  0  0  0
    9.9166  -15.8975   25.6329 N   0  0  0  0  0  0  0  0  0  0  0  0
   10.1341  -16.1685   27.9663 C   0  0  0  0  0  0  0  0  0  0  0  0
   10.2583  -16.8072   29.1702 O   0  0  0  0  0  0  0  0  0  0  0  0
    9.9287  -14.9197   27.9845 O   0  0  0  0  0  0  0  0  0  0  0  0
  2  1  1  0
  2  3  2  0
  4  5  1  0
  4  2  1  0
  5  7  1  0
  5  6  1  6
  7  8  2  0
  9  7  1  0
  9 10  1  0
 11 12  1  0
 10 11  1  1
 12 17  2  0
 13 14  2  0
 13 12  1  0
 14 15  1  0
 15 16  2  0
 17 16  1  0
 18 10  1  0
 18 19  2  0
 20 21  1  0
 21 23  1  0
 21 22  2  0
 24 23  1  6
 24 25  1  0
 24 26  1  0
 25 18  1  0
 26 27  1  0
 28 26  2  0
M  END
$$$$
