NFN.pdb
     RDKit          3D

 28 28  0  0  1  0  0  0  0  0999 V2000
    9.4016  -16.8154   16.6089 N   0  0  0  0  0  0  0  0  0  0  0  0
   10.1831  -17.0099   17.7736 C   0  0  0  0  0  0  0  0  0  0  0  0
   10.9132  -18.0297   17.8296 O   0  0  0  0  0  0  0  0  0  0  0  0
   10.1895  -16.0805   18.9303 C   0  0  0  0  0  0  0  0  0  0  0  0
    9.8930  -16.8718   20.1983 C   0  0  2  0  0  0  0  0  0  0  0  0
    8.5230  -17.3635   20.0195 N   0  0  0  0  0  0  0  0  0  0  0  0
    9.9066  -15.9891   21.3899 C   0  0  0  0  0  0  0  0  0  0  0  0
   10.9568  -15.4164   21.7851 O   0  0  0  0  0  0  0  0  0  0  0  0
    8.7126  -15.7604   22.1331 N   0  0  0  0  0  0  0  0  0  0  0  0
    8.7198  -15.0396   23.3951 C   0  0  1  0  0  0  0  0  0  0  0  0
    7.4151  -14.3136   23.6173 C   0  0  0  0  0  0  0  0  0  0  0  0
    7.3301  -13.6002   24.9057 C   0  0  0  0  0  0  0  0  0  0  0  0
    8.0299  -12.4271   25.0521 C   0  0  0  0  0  0  0  0  0  0  0  0
    7.9736  -11.7359   26.2396 C   0  0  0  0  0  0  0  0  0  0  0  0
    7.2043  -12.2322   27.2896 C   0  0  0  0  0  0  0  0  0  0  0  0
    6.4979  -13.4058   27.1584 C   0  0  0  0  0  0  0  0  0  0  0  0
    6.5570  -14.0939   25.9689 C   0  0  0  0  0  0  0  0  0  0  0  0
    9.1167  -15.9250   24.5149 C   0  0  0  0  0  0  0  0  0  0  0  0
    8.4810  -16.9854   24.7081 O   0  0  0  0  0  0  0  0  0  0  0  0
   13.5859  -15.6575   24.3768 N   0  0  0  0  0  0  0  0  0  0  0  0
   12.8641  -16.6919   25.0584 C   0  0  0  0  0  0  0  0  0  0  0  0
   12.7567  -17.8116   24.5064 O   0  0  0  0  0  0  0  0  0  0  0  0
   12.2498  -16.4759   26.3797 C   0  0  0  0  0  0  0  0  0  0  0  0
   10.7787  -16.6128   26.3211 C   0  0  2  0  0  0  0  0  0  0  0  0
   10.1785  -15.6510   25.3916 N   0  0  0  0  0  0  0  0  0  0  0  0
   10.2133  -16.2503   27.6731 C   0  0  0  0  0  0  0  0  0  0  0  0
   10.0042  -17.1846   28.6510 O   0  0  0  0  0  0  0  0  0  0  0  0
    9.9140  -15.0492   27.9373 O   0  0  0  0  0  0  0  0  0  0  0  0
  2  1  1  0
  2  3  2  0
  4  5  1  0
  4  2  1  0
  5  7  1  0
  5  6  1  6
  7  8  2  0
  9  7  1  0
  9 10  1  0
 11 12  1  0
 10 11  1  1
 12 17  2  0
 13 14  2  0
 13 12  1  0
 14 15  1  0
 15 16  2  0
 17 16  1  0
 18 10  1  0
 18 19  2  0
 20 21  1  0
 21 23  1  0
 21 22  2  0
 24 23  1  1
 24 25  1  0
 24 26  1  0
 25 18  1  0
 26 27  1  0
 28 26  2  0
M  END
$$$$
