NFN.pdb
     RDKit          3D

 28 28  0  0  1  0  0  0  0  0999 V2000
    8.3337  -20.6194   20.3000 N   0  0  0  0  0  0  0  0  0  0  0  0
    9.6500  -20.1481   20.5250 C   0  0  0  0  0  0  0  0  0  0  0  0
   10.5830  -20.6696   19.8665 O   0  0  0  0  0  0  0  0  0  0  0  0
    9.9907  -19.0759   21.4924 C   0  0  0  0  0  0  0  0  0  0  0  0
    9.4723  -17.7471   20.9562 C   0  0  2  0  0  0  0  0  0  0  0  0
   10.4076  -17.3864   19.8857 N   0  0  0  0  0  0  0  0  0  0  0  0
    9.5432  -16.6916   21.9955 C   0  0  0  0  0  0  0  0  0  0  0  0
   10.6316  -16.3569   22.5345 O   0  0  0  0  0  0  0  0  0  0  0  0
    8.3630  -16.0157   22.4202 N   0  0  0  0  0  0  0  0  0  0  0  0
    8.3736  -15.0740   23.5273 C   0  0  1  0  0  0  0  0  0  0  0  0
    7.1649  -14.1706   23.4879 C   0  0  0  0  0  0  0  0  0  0  0  0
    7.0549  -13.2547   24.6392 C   0  0  0  0  0  0  0  0  0  0  0  0
    7.9161  -12.1870   24.7112 C   0  0  0  0  0  0  0  0  0  0  0  0
    7.8419  -11.3132   25.7704 C   0  0  0  0  0  0  0  0  0  0  0  0
    6.8900  -11.5180   26.7667 C   0  0  0  0  0  0  0  0  0  0  0  0
    6.0204  -12.5829   26.7089 C   0  0  0  0  0  0  0  0  0  0  0  0
    6.0983  -13.4544   25.6475 C   0  0  0  0  0  0  0  0  0  0  0  0
    8.5651  -15.7708   24.8208 C   0  0  0  0  0  0  0  0  0  0  0  0
    8.9537  -15.1162   25.8139 O   0  0  0  0  0  0  0  0  0  0  0  0
    8.2478  -19.1469   28.7318 N   0  0  0  0  0  0  0  0  0  0  0  0
    7.8014  -19.8168   27.5454 C   0  0  0  0  0  0  0  0  0  0  0  0
    7.2243  -20.9228   27.6626 O   0  0  0  0  0  0  0  0  0  0  0  0
    8.0012  -19.2448   26.2027 C   0  0  0  0  0  0  0  0  0  0  0  0
    8.5238  -17.8636   26.2755 C   0  0  2  0  0  0  0  0  0  0  0  0
    8.3353  -17.1424   25.0131 N   0  0  0  0  0  0  0  0  0  0  0  0
   10.0201  -17.9307   26.4643 C   0  0  0  0  0  0  0  0  0  0  0  0
   10.8450  -18.5267   25.5493 O   0  0  0  0  0  0  0  0  0  0  0  0
   10.5556  -17.4268   27.4945 O   0  0  0  0  0  0  0  0  0  0  0  0
  2  1  1  0
  2  3  2  0
  4  5  1  0
  4  2  1  0
  5  7  1  0
  5  6  1  6
  7  8  2  0
  9  7  1  0
  9 10  1  0
 11 12  1  0
 10 11  1  1
 12 17  2  0
 13 14  2  0
 13 12  1  0
 14 15  1  0
 15 16  2  0
 17 16  1  0
 18 10  1  0
 18 19  2  0
 20 21  1  0
 21 23  1  0
 21 22  2  0
 24 23  1  6
 24 25  1  0
 24 26  1  0
 25 18  1  0
 26 27  1  0
 28 26  2  0
M  END
$$$$
