NFN.pdb
     RDKit          3D

 28 28  0  0  1  0  0  0  0  0999 V2000
   10.6510  -17.1221   17.3131 N   0  0  0  0  0  0  0  0  0  0  0  0
   11.2261  -17.3629   18.5845 C   0  0  0  0  0  0  0  0  0  0  0  0
   11.8498  -18.4391   18.7546 O   0  0  0  0  0  0  0  0  0  0  0  0
   11.1347  -16.4193   19.7259 C   0  0  0  0  0  0  0  0  0  0  0  0
   10.2965  -17.0584   20.8263 C   0  0  2  0  0  0  0  0  0  0  0  0
    8.9572  -17.1933   20.2443 N   0  0  0  0  0  0  0  0  0  0  0  0
   10.1920  -16.1614   22.0026 C   0  0  0  0  0  0  0  0  0  0  0  0
   11.2084  -15.6594   22.5522 O   0  0  0  0  0  0  0  0  0  0  0  0
    8.9184  -15.8370   22.5527 N   0  0  0  0  0  0  0  0  0  0  0  0
    8.7850  -15.1118   23.8052 C   0  0  1  0  0  0  0  0  0  0  0  0
    7.5534  -14.2388   23.8028 C   0  0  0  0  0  0  0  0  0  0  0  0
    7.3109  -13.5291   25.0732 C   0  0  0  0  0  0  0  0  0  0  0  0
    7.9359  -12.3233   25.2792 C   0  0  0  0  0  0  0  0  0  0  0  0
    7.7327  -11.6345   26.4520 C   0  0  0  0  0  0  0  0  0  0  0  0
    6.8913  -12.1667   27.4264 C   0  0  0  0  0  0  0  0  0  0  0  0
    6.2583  -13.3734   27.2348 C   0  0  0  0  0  0  0  0  0  0  0  0
    6.4644  -14.0589   26.0603 C   0  0  0  0  0  0  0  0  0  0  0  0
    8.8737  -16.0279   24.9662 C   0  0  0  0  0  0  0  0  0  0  0  0
    8.0921  -17.0028   25.0344 O   0  0  0  0  0  0  0  0  0  0  0  0
   12.3103  -19.6175   25.1642 N   0  0  0  0  0  0  0  0  0  0  0  0
   11.3146  -18.9231   25.9272 C   0  0  0  0  0  0  0  0  0  0  0  0
   10.2376  -19.5105   26.1827 O   0  0  0  0  0  0  0  0  0  0  0  0
   11.5214  -17.5487   26.4151 C   0  0  0  0  0  0  0  0  0  0  0  0
   10.2582  -16.9503   26.8975 C   0  0  2  0  0  0  0  0  0  0  0  0
    9.7931  -15.8751   26.0162 N   0  0  0  0  0  0  0  0  0  0  0  0
   10.5264  -16.2775   28.2220 C   0  0  0  0  0  0  0  0  0  0  0  0
   10.3728  -16.9289   29.4157 O   0  0  0  0  0  0  0  0  0  0  0  0
   10.9071  -15.0709   28.2583 O   0  0  0  0  0  0  0  0  0  0  0  0
  2  1  1  0
  2  3  2  0
  4  5  1  0
  4  2  1  0
  5  7  1  0
  5  6  1  6
  7  8  2  0
  9  7  1  0
  9 10  1  0
 11 12  1  0
 10 11  1  6
 12 17  2  0
 13 14  2  0
 13 12  1  0
 14 15  1  0
 15 16  2  0
 17 16  1  0
 18 10  1  0
 18 19  2  0
 20 21  1  0
 21 23  1  0
 21 22  2  0
 24 23  1  6
 24 25  1  0
 24 26  1  0
 25 18  1  0
 26 27  1  0
 28 26  2  0
M  END
$$$$
