NFN.pdb
     RDKit          3D

 28 28  0  0  1  0  0  0  0  0999 V2000
    8.8141  -12.6691   17.1746 N   0  0  0  0  0  0  0  0  0  0  0  0
    8.2305  -13.9378   17.4086 C   0  0  0  0  0  0  0  0  0  0  0  0
    8.2255  -14.7669   16.4660 O   0  0  0  0  0  0  0  0  0  0  0  0
    7.6251  -14.3442   18.7010 C   0  0  0  0  0  0  0  0  0  0  0  0
    8.5924  -15.2710   19.4271 C   0  0  2  0  0  0  0  0  0  0  0  0
    7.9030  -16.5644   19.4776 N   0  0  0  0  0  0  0  0  0  0  0  0
    8.8132  -14.8197   20.8224 C   0  0  0  0  0  0  0  0  0  0  0  0
    9.9387  -14.4222   21.2257 O   0  0  0  0  0  0  0  0  0  0  0  0
    7.7412  -14.8232   21.7609 N   0  0  0  0  0  0  0  0  0  0  0  0
    7.9387  -14.4572   23.1536 C   0  0  1  0  0  0  0  0  0  0  0  0
    6.9808  -13.3688   23.5738 C   0  0  0  0  0  0  0  0  0  0  0  0
    7.0245  -13.0449   25.0123 C   0  0  0  0  0  0  0  0  0  0  0  0
    8.0600  -12.2718   25.4783 C   0  0  0  0  0  0  0  0  0  0  0  0
    8.1323  -11.9505   26.8134 C   0  0  0  0  0  0  0  0  0  0  0  0
    7.1510  -12.4133   27.6872 C   0  0  0  0  0  0  0  0  0  0  0  0
    6.1077  -13.1888   27.2358 C   0  0  0  0  0  0  0  0  0  0  0  0
    6.0394  -13.5076   25.8995 C   0  0  0  0  0  0  0  0  0  0  0  0
    7.9168  -15.6522   24.0293 C   0  0  0  0  0  0  0  0  0  0  0  0
    6.9754  -16.4696   23.9216 O   0  0  0  0  0  0  0  0  0  0  0  0
   11.4026  -20.1069   24.8413 N   0  0  0  0  0  0  0  0  0  0  0  0
   10.1517  -19.4638   25.1192 C   0  0  0  0  0  0  0  0  0  0  0  0
    9.3397  -20.0365   25.8826 O   0  0  0  0  0  0  0  0  0  0  0  0
    9.7975  -18.1582   24.5362 C   0  0  0  0  0  0  0  0  0  0  0  0
    9.1847  -17.2649   25.5425 C   0  0  2  0  0  0  0  0  0  0  0  0
    8.8996  -15.9369   24.9907 N   0  0  0  0  0  0  0  0  0  0  0  0
   10.1934  -17.0210   26.6388 C   0  0  0  0  0  0  0  0  0  0  0  0
   11.4294  -16.4896   26.3882 O   0  0  0  0  0  0  0  0  0  0  0  0
    9.9123  -17.3088   27.8389 O   0  0  0  0  0  0  0  0  0  0  0  0
  2  1  1  0
  2  3  2  0
  4  5  1  0
  4  2  1  0
  5  7  1  0
  5  6  1  1
  7  8  2  0
  9  7  1  0
  9 10  1  0
 11 12  1  0
 10 11  1  1
 12 17  2  0
 13 14  2  0
 13 12  1  0
 14 15  1  0
 15 16  2  0
 17 16  1  0
 18 10  1  0
 18 19  2  0
 20 21  1  0
 21 23  1  0
 21 22  2  0
 24 23  1  6
 24 25  1  0
 24 26  1  0
 25 18  1  0
 26 27  1  0
 28 26  2  0
M  END
$$$$
