NFN.pdb
     RDKit          3D

 28 28  0  0  1  0  0  0  0  0999 V2000
   10.2009  -18.8915   18.3010 N   0  0  0  0  0  0  0  0  0  0  0  0
   10.6019  -17.5434   18.1364 C   0  0  0  0  0  0  0  0  0  0  0  0
   11.1059  -17.2089   17.0364 O   0  0  0  0  0  0  0  0  0  0  0  0
   10.4617  -16.5045   19.1866 C   0  0  0  0  0  0  0  0  0  0  0  0
   10.0062  -17.1705   20.4792 C   0  0  2  0  0  0  0  0  0  0  0  0
    8.6308  -17.6031   20.2114 N   0  0  0  0  0  0  0  0  0  0  0  0
    9.9656  -16.1932   21.5939 C   0  0  0  0  0  0  0  0  0  0  0  0
   11.0100  -15.6549   22.0486 O   0  0  0  0  0  0  0  0  0  0  0  0
    8.7242  -15.8301   22.1913 N   0  0  0  0  0  0  0  0  0  0  0  0
    8.6606  -15.0904   23.4408 C   0  0  1  0  0  0  0  0  0  0  0  0
    7.3459  -14.3611   23.5779 C   0  0  0  0  0  0  0  0  0  0  0  0
    7.2014  -13.6031   24.8352 C   0  0  0  0  0  0  0  0  0  0  0  0
    7.9112  -12.4361   24.9815 C   0  0  0  0  0  0  0  0  0  0  0  0
    7.8006  -11.7041   26.1404 C   0  0  0  0  0  0  0  0  0  0  0  0
    6.9662  -12.1531   27.1616 C   0  0  0  0  0  0  0  0  0  0  0  0
    6.2489  -13.3201   27.0301 C   0  0  0  0  0  0  0  0  0  0  0  0
    6.3626  -14.0490   25.8693 C   0  0  0  0  0  0  0  0  0  0  0  0
    8.9927  -15.9588   24.5944 C   0  0  0  0  0  0  0  0  0  0  0  0
    8.2455  -16.9256   24.8644 O   0  0  0  0  0  0  0  0  0  0  0  0
   11.4462  -18.3087   24.4645 N   0  0  0  0  0  0  0  0  0  0  0  0
   12.3965  -17.7418   25.3762 C   0  0  0  0  0  0  0  0  0  0  0  0
   13.6135  -17.9820   25.1997 O   0  0  0  0  0  0  0  0  0  0  0  0
   11.9844  -16.8913   26.5061 C   0  0  0  0  0  0  0  0  0  0  0  0
   10.5234  -16.6637   26.5070 C   0  0  2  0  0  0  0  0  0  0  0  0
   10.1107  -15.7683   25.4219 N   0  0  0  0  0  0  0  0  0  0  0  0
   10.1572  -15.9309   27.7750 C   0  0  0  0  0  0  0  0  0  0  0  0
    9.9317  -16.5842   28.9562 O   0  0  0  0  0  0  0  0  0  0  0  0
   10.0485  -14.6699   27.7734 O   0  0  0  0  0  0  0  0  0  0  0  0
  2  1  1  0
  2  3  2  0
  4  5  1  0
  4  2  1  0
  5  7  1  0
  5  6  1  6
  7  8  2  0
  9  7  1  0
  9 10  1  0
 11 12  1  0
 10 11  1  1
 12 17  2  0
 13 14  2  0
 13 12  1  0
 14 15  1  0
 15 16  2  0
 17 16  1  0
 18 10  1  0
 18 19  2  0
 20 21  1  0
 21 23  1  0
 21 22  2  0
 24 23  1  1
 24 25  1  0
 24 26  1  0
 25 18  1  0
 26 27  1  0
 28 26  2  0
M  END
$$$$
