NFN.pdb
     RDKit          3D

 28 28  0  0  1  0  0  0  0  0999 V2000
    8.6265  -18.4314   18.2248 N   0  0  0  0  0  0  0  0  0  0  0  0
    8.8887  -19.1679   19.4054 C   0  0  0  0  0  0  0  0  0  0  0  0
    8.7559  -20.4156   19.3631 O   0  0  0  0  0  0  0  0  0  0  0  0
    9.3102  -18.5523   20.6880 C   0  0  0  0  0  0  0  0  0  0  0  0
    9.2106  -17.0370   20.5622 C   0  0  2  0  0  0  0  0  0  0  0  0
   10.3927  -16.6486   19.7861 N   0  0  0  0  0  0  0  0  0  0  0  0
    9.3066  -16.3867   21.8915 C   0  0  0  0  0  0  0  0  0  0  0  0
   10.2740  -16.5984   22.6704 O   0  0  0  0  0  0  0  0  0  0  0  0
    8.2909  -15.4900   22.3321 N   0  0  0  0  0  0  0  0  0  0  0  0
    8.3236  -14.8809   23.6513 C   0  0  1  0  0  0  0  0  0  0  0  0
    7.3137  -13.7645   23.7631 C   0  0  0  0  0  0  0  0  0  0  0  0
    7.2471  -13.1386   25.0972 C   0  0  0  0  0  0  0  0  0  0  0  0
    6.0141  -12.8076   25.6045 C   0  0  0  0  0  0  0  0  0  0  0  0
    5.9148  -12.2226   26.8451 C   0  0  0  0  0  0  0  0  0  0  0  0
    7.0700  -11.9688   27.5813 C   0  0  0  0  0  0  0  0  0  0  0  0
    8.3121  -12.2944   27.0867 C   0  0  0  0  0  0  0  0  0  0  0  0
    8.4067  -12.8794   25.8455 C   0  0  0  0  0  0  0  0  0  0  0  0
    8.2125  -15.9048   24.7165 C   0  0  0  0  0  0  0  0  0  0  0  0
    7.1818  -16.6117   24.7771 O   0  0  0  0  0  0  0  0  0  0  0  0
   11.2674  -20.5438   26.1141 N   0  0  0  0  0  0  0  0  0  0  0  0
   10.1061  -19.7239   26.3004 C   0  0  0  0  0  0  0  0  0  0  0  0
    9.2420  -20.0884   27.1314 O   0  0  0  0  0  0  0  0  0  0  0  0
    9.9025  -18.4744   25.5474 C   0  0  0  0  0  0  0  0  0  0  0  0
    9.3865  -17.3963   26.4179 C   0  0  2  0  0  0  0  0  0  0  0  0
    9.2042  -16.1417   25.6817 N   0  0  0  0  0  0  0  0  0  0  0  0
   10.4328  -17.0855   27.4608 C   0  0  0  0  0  0  0  0  0  0  0  0
   10.3924  -17.6243   28.7181 O   0  0  0  0  0  0  0  0  0  0  0  0
   11.3903  -16.3034   27.1894 O   0  0  0  0  0  0  0  0  0  0  0  0
  2  1  1  0
  2  3  2  0
  4  5  1  0
  4  2  1  0
  5  7  1  0
  5  6  1  6
  7  8  2  0
  9  7  1  0
  9 10  1  0
 11 12  1  0
 10 11  1  6
 12 17  2  0
 13 14  2  0
 13 12  1  0
 14 15  1  0
 15 16  2  0
 17 16  1  0
 18 10  1  0
 18 19  2  0
 20 21  1  0
 21 23  1  0
 21 22  2  0
 24 23  1  6
 24 25  1  0
 24 26  1  0
 25 18  1  0
 26 27  1  0
 28 26  2  0
M  END
$$$$
