NFN.pdb
     RDKit          3D

 28 28  0  0  1  0  0  0  0  0999 V2000
    8.8886  -12.6708   17.5902 N   0  0  0  0  0  0  0  0  0  0  0  0
    8.1072  -13.6128   18.3024 C   0  0  0  0  0  0  0  0  0  0  0  0
    7.5884  -14.5562   17.6568 O   0  0  0  0  0  0  0  0  0  0  0  0
    7.8657  -13.5500   19.7651 C   0  0  0  0  0  0  0  0  0  0  0  0
    8.6708  -14.6513   20.4440 C   0  0  2  0  0  0  0  0  0  0  0  0
    7.8454  -15.8556   20.3065 N   0  0  0  0  0  0  0  0  0  0  0  0
    8.8324  -14.3747   21.8920 C   0  0  0  0  0  0  0  0  0  0  0  0
    9.6303  -13.4986   22.3197 O   0  0  0  0  0  0  0  0  0  0  0  0
    8.0775  -15.1042   22.8553 N   0  0  0  0  0  0  0  0  0  0  0  0
    8.3916  -15.0560   24.2736 C   0  0  1  0  0  0  0  0  0  0  0  0
    7.1402  -14.9153   25.1060 C   0  0  0  0  0  0  0  0  0  0  0  0
    6.9665  -13.5850   25.7194 C   0  0  0  0  0  0  0  0  0  0  0  0
    6.0639  -13.4501   26.7462 C   0  0  0  0  0  0  0  0  0  0  0  0
    5.8764  -12.2245   27.3411 C   0  0  0  0  0  0  0  0  0  0  0  0
    6.6061  -11.1243   26.8964 C   0  0  0  0  0  0  0  0  0  0  0  0
    7.5138  -11.2434   25.8690 C   0  0  0  0  0  0  0  0  0  0  0  0
    7.6981  -12.4711   25.2769 C   0  0  0  0  0  0  0  0  0  0  0  0
    9.2557  -16.1927   24.6694 C   0  0  0  0  0  0  0  0  0  0  0  0
    9.4984  -16.3801   25.8825 O   0  0  0  0  0  0  0  0  0  0  0  0
   12.2776  -21.0110   22.4633 N   0  0  0  0  0  0  0  0  0  0  0  0
   11.3552  -20.4962   23.4328 C   0  0  0  0  0  0  0  0  0  0  0  0
   11.3160  -21.0304   24.5656 O   0  0  0  0  0  0  0  0  0  0  0  0
   10.4591  -19.3654   23.1359 C   0  0  0  0  0  0  0  0  0  0  0  0
   10.6208  -18.2742   24.1205 C   0  0  2  0  0  0  0  0  0  0  0  0
    9.8320  -17.0926   23.7589 N   0  0  0  0  0  0  0  0  0  0  0  0
   12.0564  -17.8087   24.0827 C   0  0  0  0  0  0  0  0  0  0  0  0
   12.4718  -16.7894   23.2696 O   0  0  0  0  0  0  0  0  0  0  0  0
   12.9254  -18.3627   24.8176 O   0  0  0  0  0  0  0  0  0  0  0  0
  2  1  1  0
  2  3  2  0
  4  5  1  0
  4  2  1  0
  5  7  1  0
  5  6  1  1
  7  8  2  0
  9  7  1  0
  9 10  1  0
 11 12  1  0
 10 11  1  1
 12 17  2  0
 13 14  2  0
 13 12  1  0
 14 15  1  0
 15 16  2  0
 17 16  1  0
 18 10  1  0
 18 19  2  0
 20 21  1  0
 21 23  1  0
 21 22  2  0
 24 23  1  6
 24 25  1  0
 24 26  1  0
 25 18  1  0
 26 27  1  0
 28 26  2  0
M  END
$$$$
