TRK.pdb
     RDKit          3D

 28 27  0  0  1  0  0  0  0  0999 V2000
   24.7200  -14.5999  -18.5552 C   0  0  0  0  0  0  0  0  0  0  0  0
   25.7364  -15.3654  -19.3715 C   0  0  1  0  0  0  0  0  0  0  0  0
   26.6413  -14.4527  -19.9117 O   0  0  0  0  0  0  0  0  0  0  0  0
   26.5389  -16.3226  -18.5088 C   0  0  2  0  0  0  0  0  0  0  0  0
   27.4875  -16.9851  -19.3854 N   0  0  0  0  0  0  0  0  0  0  0  0
   25.6919  -17.3355  -17.8681 C   0  0  0  0  0  0  0  0  0  0  0  0
   24.9305  -18.0722  -18.5588 O   0  0  0  0  0  0  0  0  0  0  0  0
   26.5839  -21.4359  -10.2824 N   0  0  0  0  0  0  0  0  0  0  0  0
   26.1492  -22.2235  -11.4049 C   0  0  0  0  0  0  0  0  0  0  0  0
   26.4021  -23.4666  -11.4611 N   0  0  0  0  0  0  0  0  0  0  0  0
   25.4305  -21.6021  -12.4588 N   0  0  0  0  0  0  0  0  0  0  0  0
   25.0240  -20.2226  -12.4333 C   0  0  0  0  0  0  0  0  0  0  0  0
   24.4019  -19.8016  -13.7454 C   0  0  0  0  0  0  0  0  0  0  0  0
   25.3555  -18.8999  -14.4561 C   0  0  0  0  0  0  0  0  0  0  0  0
   24.8091  -18.4229  -15.7952 C   0  0  2  0  0  0  0  0  0  0  0  0
   25.6991  -17.5215  -16.4534 N   0  0  0  0  0  0  0  0  0  0  0  0
   23.4821  -17.7734  -15.5004 C   0  0  0  0  0  0  0  0  0  0  0  0
   23.4128  -16.7161  -14.8249 O   0  0  0  0  0  0  0  0  0  0  0  0
   26.1018  -24.0446  -12.2574 N   0  0  0  0  0  0  0  0  0  0  0  0
   22.2545  -18.3187  -15.9670 C   0  0  2  0  0  0  0  0  0  0  0  0
   20.9618  -17.7539  -15.6427 C   0  0  0  0  0  0  0  0  0  0  0  0
   20.2304  -17.3183  -16.8704 C   0  0  0  0  0  0  0  0  0  0  0  0
   18.9207  -16.6633  -16.6313 C   0  0  0  0  0  0  0  0  0  0  0  0
   18.2401  -16.1809  -17.8878 C   0  0  0  0  0  0  0  0  0  0  0  0
   16.9728  -15.4444  -17.4336 N   0  0  0  0  0  0  0  0  0  0  0  0
   16.3421  -14.8638  -18.6037 C   0  0  0  0  0  0  0  0  0  0  0  0
   20.2394  -18.6748  -14.7824 O   0  0  0  0  0  0  0  0  0  0  0  0
   19.2453  -18.2711  -14.1313 O   0  0  0  0  0  0  0  0  0  0  0  0
  2  1  1  1
  2  3  1  0
  4  2  1  0
  4  5  1  6
  6  4  1  0
  6  7  2  0
  9  8  1  0
 10  9  2  0
 11  9  1  0
 12 11  1  0
 13 12  1  0
 13 14  1  0
 15 14  1  1
 15 16  1  0
 16  6  1  0
 17 15  1  0
 18 17  2  0
 19 17  1  0
 20 26  1  0
 20 19  1  0
 20 21  1  6
 22 21  1  0
 23 22  1  0
 24 25  1  0
 24 23  1  0
 26 28  1  0
 27 26  2  0
M  END
$$$$
