TRK.pdb
     RDKit          3D

 28 27  0  0  1  0  0  0  0  0999 V2000
   19.6828  -22.5735  -11.5015 C   0  0  0  0  0  0  0  0  0  0  0  0
   19.3322  -21.2786  -10.8047 C   0  0  1  0  0  0  0  0  0  0  0  0
   19.0325  -21.5648   -9.4735 O   0  0  0  0  0  0  0  0  0  0  0  0
   20.5049  -20.3147  -10.7944 C   0  0  2  0  0  0  0  0  0  0  0  0
   20.1118  -19.1822   -9.9759 N   0  0  0  0  0  0  0  0  0  0  0  0
   20.8428  -19.8375  -12.1405 C   0  0  0  0  0  0  0  0  0  0  0  0
   20.1990  -18.8861  -12.6696 O   0  0  0  0  0  0  0  0  0  0  0  0
   25.4705  -23.8444  -15.7235 N   0  0  0  0  0  0  0  0  0  0  0  0
   24.6787  -23.6243  -16.9042 C   0  0  0  0  0  0  0  0  0  0  0  0
   24.1617  -24.6014  -17.5291 N   0  0  0  0  0  0  0  0  0  0  0  0
   24.4750  -22.3008  -17.3730 N   0  0  0  0  0  0  0  0  0  0  0  0
   24.9299  -21.1328  -16.6674 C   0  0  0  0  0  0  0  0  0  0  0  0
   23.7722  -20.3016  -16.1627 C   0  0  0  0  0  0  0  0  0  0  0  0
   23.4006  -20.7823  -14.7995 C   0  0  0  0  0  0  0  0  0  0  0  0
   22.1976  -20.0389  -14.2340 C   0  0  2  0  0  0  0  0  0  0  0  0
   21.9024  -20.4275  -12.8924 N   0  0  0  0  0  0  0  0  0  0  0  0
   21.0474  -20.3338  -15.1612 C   0  0  0  0  0  0  0  0  0  0  0  0
   20.4794  -21.4547  -15.1547 O   0  0  0  0  0  0  0  0  0  0  0  0
   23.6247  -24.4662  -18.3961 N   0  0  0  0  0  0  0  0  0  0  0  0
   20.5522  -19.3686  -16.0805 C   0  0  2  0  0  0  0  0  0  0  0  0
   19.3872  -19.5888  -16.9108 C   0  0  0  0  0  0  0  0  0  0  0  0
   19.7194  -20.4084  -18.1150 C   0  0  0  0  0  0  0  0  0  0  0  0
   18.6028  -20.6172  -19.0696 C   0  0  0  0  0  0  0  0  0  0  0  0
   18.9534  -21.5080  -20.2349 C   0  0  0  0  0  0  0  0  0  0  0  0
   17.6764  -21.6368  -21.0760 N   0  0  0  0  0  0  0  0  0  0  0  0
   18.0113  -22.3304  -22.3051 C   0  0  0  0  0  0  0  0  0  0  0  0
   18.3041  -20.1011  -16.0895 O   0  0  0  0  0  0  0  0  0  0  0  0
   18.2252  -21.3321  -15.8576 O   0  0  0  0  0  0  0  0  0  0  0  0
  2  1  1  6
  2  3  1  0
  4  2  1  0
  4  5  1  1
  6  4  1  0
  6  7  2  0
  9  8  1  0
 10  9  2  0
 11  9  1  0
 12 11  1  0
 13 12  1  0
 13 14  1  0
 15 14  1  6
 15 16  1  0
 16  6  1  0
 17 15  1  0
 18 17  2  0
 19 17  1  0
 20 26  1  0
 20 19  1  0
 20 21  1  6
 22 21  1  0
 23 22  1  0
 24 25  1  0
 24 23  1  0
 26 28  1  0
 27 26  2  0
M  END
$$$$
