TRK.pdb
     RDKit          3D

 28 27  0  0  1  0  0  0  0  0999 V2000
   26.9379  -18.4607  -16.7076 C   0  0  0  0  0  0  0  0  0  0  0  0
   27.3767  -19.7831  -17.2941 C   0  0  1  0  0  0  0  0  0  0  0  0
   28.5881  -19.5882  -17.9562 O   0  0  0  0  0  0  0  0  0  0  0  0
   27.6279  -20.8180  -16.2123 C   0  0  2  0  0  0  0  0  0  0  0  0
   28.0484  -22.0347  -16.8831 N   0  0  0  0  0  0  0  0  0  0  0  0
   26.4231  -21.0992  -15.4228 C   0  0  0  0  0  0  0  0  0  0  0  0
   25.5039  -21.8342  -15.8857 O   0  0  0  0  0  0  0  0  0  0  0  0
   26.4517  -20.2081   -7.0918 N   0  0  0  0  0  0  0  0  0  0  0  0
   25.2957  -20.7993   -7.7111 C   0  0  0  0  0  0  0  0  0  0  0  0
   24.2327  -20.9954   -7.0447 N   0  0  0  0  0  0  0  0  0  0  0  0
   25.3466  -21.1660   -9.0807 N   0  0  0  0  0  0  0  0  0  0  0  0
   26.5453  -21.1003   -9.8732 C   0  0  0  0  0  0  0  0  0  0  0  0
   26.2807  -21.4739  -11.3142 C   0  0  0  0  0  0  0  0  0  0  0  0
   25.2649  -20.5326  -11.8705 C   0  0  0  0  0  0  0  0  0  0  0  0
   25.0486  -20.7348  -13.3645 C   0  0  2  0  0  0  0  0  0  0  0  0
   26.2499  -20.5559  -14.1148 N   0  0  0  0  0  0  0  0  0  0  0  0
   23.9886  -19.7454  -13.7733 C   0  0  0  0  0  0  0  0  0  0  0  0
   24.2947  -18.5939  -14.1725 O   0  0  0  0  0  0  0  0  0  0  0  0
   23.4074  -21.4457   -7.4623 N   0  0  0  0  0  0  0  0  0  0  0  0
   22.6030  -20.0620  -13.7284 C   0  0  2  0  0  0  0  0  0  0  0  0
   21.6679  -19.6780  -14.7644 C   0  0  0  0  0  0  0  0  0  0  0  0
   22.2336  -19.9113  -16.1273 C   0  0  0  0  0  0  0  0  0  0  0  0
   21.3407  -19.5515  -17.2564 C   0  0  0  0  0  0  0  0  0  0  0  0
   21.9431  -19.8024  -18.6160 C   0  0  0  0  0  0  0  0  0  0  0  0
   20.9086  -19.3165  -19.6400 N   0  0  0  0  0  0  0  0  0  0  0  0
   21.4759  -19.4715  -20.9659 C   0  0  0  0  0  0  0  0  0  0  0  0
   20.3843  -20.3078  -14.5079 O   0  0  0  0  0  0  0  0  0  0  0  0
   19.3296  -19.6330  -14.5949 O   0  0  0  0  0  0  0  0  0  0  0  0
  2  1  1  1
  2  3  1  0
  4  2  1  0
  4  5  1  6
  6  4  1  0
  6  7  2  0
  9  8  1  0
 10  9  2  0
 11  9  1  0
 12 11  1  0
 13 12  1  0
 13 14  1  0
 15 14  1  1
 15 16  1  0
 16  6  1  0
 17 15  1  0
 18 17  2  0
 19 17  1  0
 20 26  1  0
 20 19  1  0
 20 21  1  6
 22 21  1  0
 23 22  1  0
 24 25  1  0
 24 23  1  0
 26 28  1  0
 27 26  2  0
M  END
$$$$
