TRK.pdb
     RDKit          3D

 28 27  0  0  1  0  0  0  0  0999 V2000
   23.7773  -13.2374  -15.7782 C   0  0  0  0  0  0  0  0  0  0  0  0
   24.6506  -13.0110  -16.9911 C   0  0  1  0  0  0  0  0  0  0  0  0
   24.9225  -11.6470  -17.0866 O   0  0  0  0  0  0  0  0  0  0  0  0
   25.9873  -13.7179  -16.8566 C   0  0  2  0  0  0  0  0  0  0  0  0
   26.6930  -13.5261  -18.1105 N   0  0  0  0  0  0  0  0  0  0  0  0
   25.8321  -15.1563  -16.6103 C   0  0  0  0  0  0  0  0  0  0  0  0
   25.4213  -15.9280  -17.5242 O   0  0  0  0  0  0  0  0  0  0  0  0
   26.7985  -21.3404  -11.0750 N   0  0  0  0  0  0  0  0  0  0  0  0
   26.0681  -21.7052  -12.2595 C   0  0  0  0  0  0  0  0  0  0  0  0
   25.0204  -22.4183  -12.1807 N   0  0  0  0  0  0  0  0  0  0  0  0
   26.5254  -21.2621  -13.5274 N   0  0  0  0  0  0  0  0  0  0  0  0
   27.0099  -19.9300  -13.7724 C   0  0  0  0  0  0  0  0  0  0  0  0
   26.0314  -18.8842  -13.2879 C   0  0  0  0  0  0  0  0  0  0  0  0
   26.5098  -17.5427  -13.7339 C   0  0  0  0  0  0  0  0  0  0  0  0
   25.8259  -17.0832  -15.0148 C   0  0  2  0  0  0  0  0  0  0  0  0
   26.1378  -15.7285  -15.3393 N   0  0  0  0  0  0  0  0  0  0  0  0
   24.3478  -17.2727  -14.7932 C   0  0  0  0  0  0  0  0  0  0  0  0
   23.7437  -16.6549  -13.8808 O   0  0  0  0  0  0  0  0  0  0  0  0
   24.4927  -22.6992  -13.0179 N   0  0  0  0  0  0  0  0  0  0  0  0
   23.5705  -18.1511  -15.5972 C   0  0  2  0  0  0  0  0  0  0  0  0
   22.1398  -18.3087  -15.4443 C   0  0  0  0  0  0  0  0  0  0  0  0
   21.4237  -18.0967  -16.7382 C   0  0  0  0  0  0  0  0  0  0  0  0
   19.9459  -18.2142  -16.6735 C   0  0  0  0  0  0  0  0  0  0  0  0
   19.2550  -17.9686  -17.9914 C   0  0  0  0  0  0  0  0  0  0  0  0
   17.7519  -17.9225  -17.6858 N   0  0  0  0  0  0  0  0  0  0  0  0
   17.0559  -17.5218  -18.8937 C   0  0  0  0  0  0  0  0  0  0  0  0
   21.8656  -19.5719  -14.7816 O   0  0  0  0  0  0  0  0  0  0  0  0
   22.6023  -20.5642  -15.0004 O   0  0  0  0  0  0  0  0  0  0  0  0
  2  1  1  1
  2  3  1  0
  4  2  1  0
  4  5  1  6
  6  4  1  0
  6  7  2  0
  9  8  1  0
 10  9  2  0
 11  9  1  0
 12 11  1  0
 13 12  1  0
 13 14  1  0
 15 14  1  1
 15 16  1  0
 16  6  1  0
 17 15  1  0
 18 17  2  0
 19 17  1  0
 20 26  1  0
 20 19  1  0
 20 21  1  6
 22 21  1  0
 23 22  1  0
 24 25  1  0
 24 23  1  0
 26 28  1  0
 27 26  2  0
M  END
$$$$
