TRK.pdb
     RDKit          3D

 28 27  0  0  1  0  0  0  0  0999 V2000
   27.2226  -18.5203  -17.2383 C   0  0  0  0  0  0  0  0  0  0  0  0
   27.6373  -19.7711  -17.9790 C   0  0  1  0  0  0  0  0  0  0  0  0
   28.6785  -19.4420  -18.8457 O   0  0  0  0  0  0  0  0  0  0  0  0
   28.1715  -20.8301  -17.0315 C   0  0  2  0  0  0  0  0  0  0  0  0
   28.5173  -21.9839  -17.8415 N   0  0  0  0  0  0  0  0  0  0  0  0
   27.1771  -21.2302  -16.0290 C   0  0  0  0  0  0  0  0  0  0  0  0
   26.1874  -21.9488  -16.3512 O   0  0  0  0  0  0  0  0  0  0  0  0
   23.4438  -20.0405   -9.7123 N   0  0  0  0  0  0  0  0  0  0  0  0
   24.0527  -20.8560   -8.6956 C   0  0  0  0  0  0  0  0  0  0  0  0
   23.3872  -21.2316   -7.6815 N   0  0  0  0  0  0  0  0  0  0  0  0
   25.4111  -21.2431   -8.8300 N   0  0  0  0  0  0  0  0  0  0  0  0
   26.2672  -20.7720   -9.8856 C   0  0  0  0  0  0  0  0  0  0  0  0
   25.7470  -21.1767  -11.2463 C   0  0  0  0  0  0  0  0  0  0  0  0
   26.7444  -20.7664  -12.2779 C   0  0  0  0  0  0  0  0  0  0  0  0
   26.3016  -21.1361  -13.6874 C   0  0  2  0  0  0  0  0  0  0  0  0
   27.2931  -20.8244  -14.6660 N   0  0  0  0  0  0  0  0  0  0  0  0
   25.0216  -20.3820  -13.9372 C   0  0  0  0  0  0  0  0  0  0  0  0
   25.0210  -19.1336  -14.0801 O   0  0  0  0  0  0  0  0  0  0  0  0
   23.7958  -21.8432   -6.9622 N   0  0  0  0  0  0  0  0  0  0  0  0
   23.7631  -21.0385  -14.0228 C   0  0  1  0  0  0  0  0  0  0  0  0
   22.5396  -20.3618  -14.3975 C   0  0  0  0  0  0  0  0  0  0  0  0
   22.5705  -19.9245  -15.8258 C   0  0  0  0  0  0  0  0  0  0  0  0
   21.3451  -19.2408  -16.3079 C   0  0  0  0  0  0  0  0  0  0  0  0
   21.3748  -18.8962  -17.7759 C   0  0  0  0  0  0  0  0  0  0  0  0
   20.0474  -18.1876  -18.0772 N   0  0  0  0  0  0  0  0  0  0  0  0
   20.0823  -17.7254  -19.4517 C   0  0  0  0  0  0  0  0  0  0  0  0
   21.4032  -21.1859  -14.0241 O   0  0  0  0  0  0  0  0  0  0  0  0
   21.5766  -22.3959  -13.7395 O   0  0  0  0  0  0  0  0  0  0  0  0
  2  1  1  1
  2  3  1  0
  4  2  1  0
  4  5  1  6
  6  4  1  0
  6  7  2  0
  9  8  1  0
 10  9  2  0
 11  9  1  0
 12 11  1  0
 13 12  1  0
 13 14  1  0
 15 14  1  1
 15 16  1  0
 16  6  1  0
 17 15  1  0
 18 17  2  0
 19 17  1  0
 20 26  1  0
 20 19  1  0
 20 21  1  6
 22 21  1  0
 23 22  1  0
 24 25  1  0
 24 23  1  0
 26 28  1  0
 27 26  2  0
M  END
$$$$
