TRK.pdb
     RDKit          3D

 28 27  0  0  1  0  0  0  0  0999 V2000
   12.9943   -9.3493  -11.6916 C   0  0  0  0  0  0  0  0  0  0  0  0
   13.2699  -10.5627  -10.8332 C   0  0  1  0  0  0  0  0  0  0  0  0
   12.6047  -11.6537  -11.3907 O   0  0  0  0  0  0  0  0  0  0  0  0
   14.7476  -10.9103  -10.8156 C   0  0  2  0  0  0  0  0  0  0  0  0
   14.8917  -12.0941   -9.9881 N   0  0  0  0  0  0  0  0  0  0  0  0
   15.5651   -9.8300  -10.2514 C   0  0  0  0  0  0  0  0  0  0  0  0
   15.4396   -9.4897   -9.0398 O   0  0  0  0  0  0  0  0  0  0  0  0
   20.9741   -7.5168  -14.4012 N   0  0  0  0  0  0  0  0  0  0  0  0
   21.6292   -7.9013  -13.1795 C   0  0  0  0  0  0  0  0  0  0  0  0
   22.5003   -8.8253  -13.1744 N   0  0  0  0  0  0  0  0  0  0  0  0
   21.2967   -7.2395  -11.9693 N   0  0  0  0  0  0  0  0  0  0  0  0
   20.3285   -6.1789  -11.8879 C   0  0  0  0  0  0  0  0  0  0  0  0
   19.2254   -6.5066  -10.9072 C   0  0  0  0  0  0  0  0  0  0  0  0
   18.4414   -7.6588  -11.4412 C   0  0  0  0  0  0  0  0  0  0  0  0
   17.2555   -8.0105  -10.5527 C   0  0  2  0  0  0  0  0  0  0  0  0
   16.5228   -9.1319  -11.0462 N   0  0  0  0  0  0  0  0  0  0  0  0
   16.3973   -6.7740  -10.4883 C   0  0  0  0  0  0  0  0  0  0  0  0
   15.7952   -6.3480  -11.5057 O   0  0  0  0  0  0  0  0  0  0  0  0
   22.9018   -9.1858  -12.2985 N   0  0  0  0  0  0  0  0  0  0  0  0
   16.2274   -6.0348   -9.2854 C   0  0  2  0  0  0  0  0  0  0  0  0
   15.3417   -4.8956   -9.1731 C   0  0  0  0  0  0  0  0  0  0  0  0
   14.6116   -4.8953   -7.8696 C   0  0  0  0  0  0  0  0  0  0  0  0
   13.7115   -3.7372   -7.6454 C   0  0  0  0  0  0  0  0  0  0  0  0
   13.0914   -3.7021   -6.2711 C   0  0  0  0  0  0  0  0  0  0  0  0
   12.2009   -2.4530   -6.2339 N   0  0  0  0  0  0  0  0  0  0  0  0
   11.6644   -2.3186   -4.8930 C   0  0  0  0  0  0  0  0  0  0  0  0
   16.0826   -3.6822   -9.4711 O   0  0  0  0  0  0  0  0  0  0  0  0
   17.3311   -3.6663   -9.3443 O   0  0  0  0  0  0  0  0  0  0  0  0
  2  1  1  6
  2  3  1  0
  4  2  1  0
  4  5  1  1
  6  4  1  0
  6  7  2  0
  9  8  1  0
 10  9  2  0
 11  9  1  0
 12 11  1  0
 13 12  1  0
 13 14  1  0
 15 14  1  6
 15 16  1  0
 16  6  1  0
 17 15  1  0
 18 17  2  0
 19 17  1  0
 20 26  1  0
 20 19  1  0
 20 21  1  1
 22 21  1  0
 23 22  1  0
 24 25  1  0
 24 23  1  0
 26 28  1  0
 27 26  2  0
M  END
$$$$
