TRK.pdb
     RDKit          3D

 28 27  0  0  1  0  0  0  0  0999 V2000
   28.8307  -20.0309  -18.0474 C   0  0  0  0  0  0  0  0  0  0  0  0
   27.6486  -20.3462  -17.1594 C   0  0  1  0  0  0  0  0  0  0  0  0
   26.5764  -20.7133  -17.9715 O   0  0  0  0  0  0  0  0  0  0  0  0
   27.9341  -21.5258  -16.2475 C   0  0  2  0  0  0  0  0  0  0  0  0
   28.0735  -22.6926  -17.0997 N   0  0  0  0  0  0  0  0  0  0  0  0
   26.8486  -21.7611  -15.2883 C   0  0  0  0  0  0  0  0  0  0  0  0
   26.0141  -22.6935  -15.4724 O   0  0  0  0  0  0  0  0  0  0  0  0
   24.8660  -21.7680   -7.6335 N   0  0  0  0  0  0  0  0  0  0  0  0
   23.7426  -20.9081   -7.8946 C   0  0  0  0  0  0  0  0  0  0  0  0
   22.6168  -21.1297   -7.3506 N   0  0  0  0  0  0  0  0  0  0  0  0
   23.8972  -19.8016   -8.7692 N   0  0  0  0  0  0  0  0  0  0  0  0
   24.9647  -19.6937   -9.7273 C   0  0  0  0  0  0  0  0  0  0  0  0
   24.6896  -20.5211  -10.9624 C   0  0  0  0  0  0  0  0  0  0  0  0
   25.8142  -20.3279  -11.9243 C   0  0  0  0  0  0  0  0  0  0  0  0
   25.6083  -21.1074  -13.2164 C   0  0  2  0  0  0  0  0  0  0  0  0
   26.6996  -20.9508  -14.1233 N   0  0  0  0  0  0  0  0  0  0  0  0
   24.3188  -20.6033  -13.8104 C   0  0  0  0  0  0  0  0  0  0  0  0
   24.2220  -19.4307  -14.2516 O   0  0  0  0  0  0  0  0  0  0  0  0
   21.7791  -20.5871   -7.6000 N   0  0  0  0  0  0  0  0  0  0  0  0
   23.1588  -21.4209  -13.9004 C   0  0  2  0  0  0  0  0  0  0  0  0
   21.8910  -20.9450  -14.4119 C   0  0  0  0  0  0  0  0  0  0  0  0
   21.0147  -22.0756  -14.8428 C   0  0  0  0  0  0  0  0  0  0  0  0
   19.6733  -21.6853  -15.3428 C   0  0  0  0  0  0  0  0  0  0  0  0
   18.8640  -22.8369  -15.8844 C   0  0  0  0  0  0  0  0  0  0  0  0
   17.5196  -22.2451  -16.3285 N   0  0  0  0  0  0  0  0  0  0  0  0
   16.7194  -23.3136  -16.8960 C   0  0  0  0  0  0  0  0  0  0  0  0
   21.2994  -20.0315  -13.4498 O   0  0  0  0  0  0  0  0  0  0  0  0
   21.4529  -20.2342  -12.2207 O   0  0  0  0  0  0  0  0  0  0  0  0
  2  1  1  6
  2  3  1  0
  4  2  1  0
  4  5  1  6
  6  4  1  0
  6  7  2  0
  9  8  1  0
 10  9  2  0
 11  9  1  0
 12 11  1  0
 13 12  1  0
 13 14  1  0
 15 14  1  1
 15 16  1  0
 16  6  1  0
 17 15  1  0
 18 17  2  0
 19 17  1  0
 20 26  1  0
 20 19  1  0
 20 21  1  1
 22 21  1  0
 23 22  1  0
 24 25  1  0
 24 23  1  0
 26 28  1  0
 27 26  2  0
M  END
$$$$
