WPF.pdb
     RDKit          3D

 33 36  0  0  1  0  0  0  0  0999 V2000
    6.0147  -18.4853   24.4273 N   0  0  0  0  0  0  0  0  0  0  0  0
    6.2315  -17.4516   23.4934 C   0  0  1  0  0  0  0  0  0  0  0  0
    5.8913  -16.0989   24.0880 C   0  0  0  0  0  0  0  0  0  0  0  0
    6.6067  -15.7565   25.3101 C   0  0  0  0  0  0  0  0  0  0  0  0
    7.2782  -16.6554   26.1405 C   0  0  0  0  0  0  0  0  0  0  0  0
    7.7799  -15.9740   27.1755 N   0  0  0  0  0  0  0  0  0  0  0  0
    7.4760  -14.6536   27.0833 C   0  0  0  0  0  0  0  0  0  0  0  0
    7.7638  -13.5616   27.8832 C   0  0  0  0  0  0  0  0  0  0  0  0
    7.3182  -12.3072   27.5190 C   0  0  0  0  0  0  0  0  0  0  0  0
    6.5837  -12.1246   26.3591 C   0  0  0  0  0  0  0  0  0  0  0  0
    6.3127  -13.2469   25.5823 C   0  0  0  0  0  0  0  0  0  0  0  0
    6.7368  -14.5154   25.9065 C   0  0  0  0  0  0  0  0  0  0  0  0
    7.5519  -17.4324   22.8203 C   0  0  0  0  0  0  0  0  0  0  0  0
    7.9908  -18.6239   22.5348 O   0  0  0  0  0  0  0  0  0  0  0  0
    8.2914  -16.2992   22.4997 N   0  0  0  0  0  0  0  0  0  0  0  0
    7.8779  -14.9370   22.9223 C   0  0  0  0  0  0  0  0  0  0  0  0
    8.0055  -14.2323   21.5730 C   0  0  0  0  0  0  0  0  0  0  0  0
    9.0953  -14.9357   20.8344 C   0  0  0  0  0  0  0  0  0  0  0  0
    9.4918  -16.0556   21.7618 C   0  0  1  0  0  0  0  0  0  0  0  0
   10.5766  -15.7300   22.7008 C   0  0  0  0  0  0  0  0  0  0  0  0
   11.5242  -15.0168   22.2524 O   0  0  0  0  0  0  0  0  0  0  0  0
   10.6684  -16.1391   24.0485 N   0  0  0  0  0  0  0  0  0  0  0  0
   11.9610  -16.1889   24.7455 C   0  0  1  0  0  0  0  0  0  0  0  0
   11.8581  -15.9412   26.2010 C   0  0  0  0  0  0  0  0  0  0  0  0
   10.9522  -14.8780   26.6341 C   0  0  0  0  0  0  0  0  0  0  0  0
   10.8592  -13.6657   25.9643 C   0  0  0  0  0  0  0  0  0  0  0  0
    9.9885  -12.7248   26.4483 C   0  0  0  0  0  0  0  0  0  0  0  0
    9.2042  -12.9689   27.5887 C   0  0  0  0  0  0  0  0  0  0  0  0
    9.2879  -14.1709   28.2604 C   0  0  0  0  0  0  0  0  0  0  0  0
   10.1683  -15.1042   27.7662 C   0  0  0  0  0  0  0  0  0  0  0  0
   12.5166  -17.5870   24.5388 C   0  0  0  0  0  0  0  0  0  0  0  0
   13.6874  -17.8619   24.9544 O   0  0  0  0  0  0  0  0  0  0  0  0
   11.8308  -18.5999   23.9217 O   0  0  0  0  0  0  0  0  0  0  0  0
  2  1  1  1
  3  2  1  0
  4  3  1  0
  5  4  2  0
  6  5  1  0
  7  6  1  0
  7 12  2  0
  8  9  2  0
  8  7  1  0
  9 10  1  0
 10 11  2  0
 12 11  1  0
 12  4  1  0
 13  2  1  0
 13 14  2  0
 15 13  1  0
 16 15  1  0
 17 18  1  0
 17 16  1  0
 19 18  1  0
 19 15  1  0
 19 20  1  1
 21 20  2  0
 22 20  1  0
 23 22  1  0
 23 24  1  1
 24 25  1  0
 25 26  2  0
 26 27  1  0
 28 27  2  0
 29 28  1  0
 30 29  2  0
 30 25  1  0
 31 33  1  0
 31 23  1  0
 32 31  2  0
M  END
$$$$
