WPF.pdb
     RDKit          3D

 33 36  0  0  1  0  0  0  0  0999 V2000
    6.0708  -17.2810   25.0690 N   0  0  0  0  0  0  0  0  0  0  0  0
    6.6657  -16.2998   24.2497 C   0  0  1  0  0  0  0  0  0  0  0  0
    7.1849  -15.1398   25.0767 C   0  0  0  0  0  0  0  0  0  0  0  0
    6.1631  -14.3309   25.7279 C   0  0  0  0  0  0  0  0  0  0  0  0
    5.1150  -14.8173   26.5111 C   0  0  0  0  0  0  0  0  0  0  0  0
    4.3705  -13.7791   26.9050 N   0  0  0  0  0  0  0  0  0  0  0  0
    4.8674  -12.6115   26.4215 C   0  0  0  0  0  0  0  0  0  0  0  0
    4.4685  -11.2924   26.5486 C   0  0  0  0  0  0  0  0  0  0  0  0
    5.1967  -10.2928   25.9361 C   0  0  0  0  0  0  0  0  0  0  0  0
    6.3262  -10.5921   25.1925 C   0  0  0  0  0  0  0  0  0  0  0  0
    6.6942  -11.9299   25.0861 C   0  0  0  0  0  0  0  0  0  0  0  0
    5.9986  -12.9584   25.6796 C   0  0  0  0  0  0  0  0  0  0  0  0
    7.6817  -16.7730   23.2799 C   0  0  0  0  0  0  0  0  0  0  0  0
    7.7041  -18.0691   23.1636 O   0  0  0  0  0  0  0  0  0  0  0  0
    8.5457  -15.9712   22.5421 N   0  0  0  0  0  0  0  0  0  0  0  0
    8.6507  -14.5065   22.7627 C   0  0  0  0  0  0  0  0  0  0  0  0
    8.5204  -14.0485   21.3113 C   0  0  0  0  0  0  0  0  0  0  0  0
    9.1018  -15.1390   20.4740 C   0  0  0  0  0  0  0  0  0  0  0  0
    9.4708  -16.2023   21.4764 C   0  0  1  0  0  0  0  0  0  0  0  0
   10.8424  -16.1120   22.0013 C   0  0  0  0  0  0  0  0  0  0  0  0
   11.4724  -15.0365   21.7689 O   0  0  0  0  0  0  0  0  0  0  0  0
   11.5266  -17.1074   22.7315 N   0  0  0  0  0  0  0  0  0  0  0  0
   12.6521  -16.7698   23.6138 C   0  0  1  0  0  0  0  0  0  0  0  0
   12.3192  -15.7499   24.6333 C   0  0  0  0  0  0  0  0  0  0  0  0
   11.8821  -16.2335   25.9424 C   0  0  0  0  0  0  0  0  0  0  0  0
   11.5148  -17.5545   26.1590 C   0  0  0  0  0  0  0  0  0  0  0  0
   11.1100  -17.9149   27.4176 C   0  0  0  0  0  0  0  0  0  0  0  0
   11.0656  -16.9831   28.4688 C   0  0  0  0  0  0  0  0  0  0  0  0
   11.4302  -15.6685   28.2643 C   0  0  0  0  0  0  0  0  0  0  0  0
   11.8305  -15.3200   26.9960 C   0  0  0  0  0  0  0  0  0  0  0  0
   13.0454  -18.0492   24.3312 C   0  0  0  0  0  0  0  0  0  0  0  0
   12.2591  -19.0491   24.3019 O   0  0  0  0  0  0  0  0  0  0  0  0
   14.2159  -18.2089   25.0251 O   0  0  0  0  0  0  0  0  0  0  0  0
  2  1  1  1
  3  2  1  0
  4  3  1  0
  5  4  2  0
  6  5  1  0
  7  6  1  0
  7 12  2  0
  8  9  2  0
  8  7  1  0
  9 10  1  0
 10 11  2  0
 12 11  1  0
 12  4  1  0
 13  2  1  0
 13 14  2  0
 15 13  1  0
 16 15  1  0
 17 18  1  0
 17 16  1  0
 19 18  1  0
 19 15  1  0
 19 20  1  1
 21 20  2  0
 22 20  1  0
 23 22  1  0
 23 24  1  1
 24 25  1  0
 25 26  2  0
 26 27  1  0
 28 27  2  0
 29 28  1  0
 30 29  2  0
 30 25  1  0
 31 33  1  0
 31 23  1  0
 32 31  2  0
M  END
$$$$
