WPF.pdb
     RDKit          3D

 33 36  0  0  1  0  0  0  0  0999 V2000
    9.4321  -18.1932   18.0126 N   0  0  0  0  0  0  0  0  0  0  0  0
    8.6595  -18.1523   19.1913 C   0  0  1  0  0  0  0  0  0  0  0  0
    8.5675  -19.5238   19.8312 C   0  0  0  0  0  0  0  0  0  0  0  0
    7.5337  -19.6703   20.8473 C   0  0  0  0  0  0  0  0  0  0  0  0
    6.1579  -19.5811   20.6291 C   0  0  0  0  0  0  0  0  0  0  0  0
    5.5373  -19.7370   21.8029 N   0  0  0  0  0  0  0  0  0  0  0  0
    6.4325  -19.9261   22.8064 C   0  0  0  0  0  0  0  0  0  0  0  0
    6.2933  -20.1349   24.1674 C   0  0  0  0  0  0  0  0  0  0  0  0
    7.4142  -20.3091   24.9535 C   0  0  0  0  0  0  0  0  0  0  0  0
    8.6822  -20.2778   24.3975 C   0  0  0  0  0  0  0  0  0  0  0  0
    8.7816  -20.0633   23.0262 C   0  0  0  0  0  0  0  0  0  0  0  0
    7.6920  -19.8851   22.2044 C   0  0  0  0  0  0  0  0  0  0  0  0
    9.0197  -17.1126   20.1843 C   0  0  0  0  0  0  0  0  0  0  0  0
   10.3036  -16.9161   20.2669 O   0  0  0  0  0  0  0  0  0  0  0  0
    8.1307  -16.3894   20.9719 N   0  0  0  0  0  0  0  0  0  0  0  0
    6.6786  -16.6968   21.0150 C   0  0  0  0  0  0  0  0  0  0  0  0
    6.1408  -15.2844   20.7937 C   0  0  0  0  0  0  0  0  0  0  0  0
    7.1468  -14.3552   21.3877 C   0  0  0  0  0  0  0  0  0  0  0  0
    8.2482  -15.2714   21.8557 C   0  0  1  0  0  0  0  0  0  0  0  0
    8.1187  -15.7396   23.2444 C   0  0  0  0  0  0  0  0  0  0  0  0
    7.6378  -16.9006   23.4124 O   0  0  0  0  0  0  0  0  0  0  0  0
    8.4711  -15.0205   24.4068 N   0  0  0  0  0  0  0  0  0  0  0  0
    8.4887  -15.6643   25.7275 C   0  0  1  0  0  0  0  0  0  0  0  0
    8.5597  -14.7050   26.8522 C   0  0  0  0  0  0  0  0  0  0  0  0
    7.8454  -13.4387   26.6947 C   0  0  0  0  0  0  0  0  0  0  0  0
    8.4186  -12.3372   26.0741 C   0  0  0  0  0  0  0  0  0  0  0  0
    7.6763  -11.1893   25.9798 C   0  0  0  0  0  0  0  0  0  0  0  0
    6.3692  -11.1168   26.4911 C   0  0  0  0  0  0  0  0  0  0  0  0
    5.7899  -12.2063   27.1080 C   0  0  0  0  0  0  0  0  0  0  0  0
    6.5473  -13.3501   27.1991 C   0  0  0  0  0  0  0  0  0  0  0  0
    7.1932  -16.4471   25.8506 C   0  0  0  0  0  0  0  0  0  0  0  0
    6.2114  -16.1530   25.0966 O   0  0  0  0  0  0  0  0  0  0  0  0
    7.0003  -17.4736   26.7372 O   0  0  0  0  0  0  0  0  0  0  0  0
  2  1  1  6
  3  2  1  0
  4  3  1  0
  5  4  2  0
  6  5  1  0
  7  6  1  0
  7 12  2  0
  8  9  2  0
  8  7  1  0
  9 10  1  0
 10 11  2  0
 12 11  1  0
 12  4  1  0
 13  2  1  0
 13 14  2  0
 15 13  1  0
 16 15  1  0
 17 18  1  0
 17 16  1  0
 19 18  1  0
 19 15  1  0
 19 20  1  1
 21 20  2  0
 22 20  1  0
 23 22  1  0
 23 24  1  1
 24 25  1  0
 25 26  2  0
 26 27  1  0
 28 27  2  0
 29 28  1  0
 30 29  2  0
 30 25  1  0
 31 33  1  0
 31 23  1  0
 32 31  2  0
M  END
$$$$
