WPF.pdb
     RDKit          3D

 33 36  0  0  1  0  0  0  0  0999 V2000
    5.9792  -18.2381   20.5947 N   0  0  0  0  0  0  0  0  0  0  0  0
    6.5979  -17.1997   21.3205 C   0  0  1  0  0  0  0  0  0  0  0  0
    5.7680  -16.8080   22.5275 C   0  0  0  0  0  0  0  0  0  0  0  0
    6.1947  -15.5942   23.2111 C   0  0  0  0  0  0  0  0  0  0  0  0
    6.3489  -14.3382   22.6218 C   0  0  0  0  0  0  0  0  0  0  0  0
    6.7841  -13.4880   23.5572 N   0  0  0  0  0  0  0  0  0  0  0  0
    6.9331  -14.1135   24.7533 C   0  0  0  0  0  0  0  0  0  0  0  0
    7.3421  -13.6770   26.0012 C   0  0  0  0  0  0  0  0  0  0  0  0
    7.3845  -14.5629   27.0586 C   0  0  0  0  0  0  0  0  0  0  0  0
    7.0218  -15.8887   26.8881 C   0  0  0  0  0  0  0  0  0  0  0  0
    6.6183  -16.2902   25.6183 C   0  0  0  0  0  0  0  0  0  0  0  0
    6.5606  -15.4419   24.5361 C   0  0  0  0  0  0  0  0  0  0  0  0
    8.0212  -17.4003   21.6821 C   0  0  0  0  0  0  0  0  0  0  0  0
    8.3095  -18.6455   21.9275 O   0  0  0  0  0  0  0  0  0  0  0  0
    8.9925  -16.4087   21.7661 N   0  0  0  0  0  0  0  0  0  0  0  0
    8.6574  -14.9634   21.7035 C   0  0  0  0  0  0  0  0  0  0  0  0
    9.6796  -14.5388   20.6508 C   0  0  0  0  0  0  0  0  0  0  0  0
   10.8501  -15.4512   20.8114 C   0  0  0  0  0  0  0  0  0  0  0  0
   10.4164  -16.4025   21.8970 C   0  0  1  0  0  0  0  0  0  0  0  0
   10.7726  -15.9896   23.2635 C   0  0  0  0  0  0  0  0  0  0  0  0
   11.3260  -14.8560   23.3909 O   0  0  0  0  0  0  0  0  0  0  0  0
   10.5647  -16.7345   24.4443 N   0  0  0  0  0  0  0  0  0  0  0  0
   11.6743  -17.0482   25.3550 C   0  0  1  0  0  0  0  0  0  0  0  0
   12.0263  -15.9346   26.2641 C   0  0  0  0  0  0  0  0  0  0  0  0
   10.9208  -15.1811   26.8547 C   0  0  0  0  0  0  0  0  0  0  0  0
    9.6325  -15.2305   26.3401 C   0  0  0  0  0  0  0  0  0  0  0  0
    8.6619  -14.4834   26.9544 C   0  0  0  0  0  0  0  0  0  0  0  0
    8.9493  -13.6871   28.0763 C   0  0  0  0  0  0  0  0  0  0  0  0
   10.2258  -13.6325   28.5964 C   0  0  0  0  0  0  0  0  0  0  0  0
   11.1905  -14.3839   27.9678 C   0  0  0  0  0  0  0  0  0  0  0  0
   11.2276  -18.2288   26.1994 C   0  0  0  0  0  0  0  0  0  0  0  0
   12.0590  -18.7845   26.9860 O   0  0  0  0  0  0  0  0  0  0  0  0
    9.9616  -18.7519   26.1751 O   0  0  0  0  0  0  0  0  0  0  0  0
  2  1  1  1
  3  2  1  0
  4  3  1  0
  5  4  2  0
  6  5  1  0
  7  6  1  0
  7 12  2  0
  8  9  2  0
  8  7  1  0
  9 10  1  0
 10 11  2  0
 12 11  1  0
 12  4  1  0
 13  2  1  0
 13 14  2  0
 15 13  1  0
 16 15  1  0
 17 18  1  0
 17 16  1  0
 19 18  1  0
 19 15  1  0
 19 20  1  1
 21 20  2  0
 22 20  1  0
 23 22  1  0
 23 24  1  1
 24 25  1  0
 25 26  2  0
 26 27  1  0
 28 27  2  0
 29 28  1  0
 30 29  2  0
 30 25  1  0
 31 33  1  0
 31 23  1  0
 32 31  2  0
M  END
$$$$
