WPF.pdb
     RDKit          3D

 33 36  0  0  1  0  0  0  0  0999 V2000
    6.4477  -19.0371   20.3271 N   0  0  0  0  0  0  0  0  0  0  0  0
    6.3957  -17.7670   20.9371 C   0  0  1  0  0  0  0  0  0  0  0  0
    5.7178  -17.8394   22.2914 C   0  0  0  0  0  0  0  0  0  0  0  0
    4.5713  -18.7351   22.3684 C   0  0  0  0  0  0  0  0  0  0  0  0
    4.4375  -19.8144   23.2435 C   0  0  0  0  0  0  0  0  0  0  0  0
    3.2687  -20.4132   22.9933 N   0  0  0  0  0  0  0  0  0  0  0  0
    2.6063  -19.7881   21.9860 C   0  0  0  0  0  0  0  0  0  0  0  0
    1.3853  -20.0164   21.3760 C   0  0  0  0  0  0  0  0  0  0  0  0
    0.9600  -19.1861   20.3589 C   0  0  0  0  0  0  0  0  0  0  0  0
    1.7412  -18.1228   19.9380 C   0  0  0  0  0  0  0  0  0  0  0  0
    2.9632  -17.9269   20.5741 C   0  0  0  0  0  0  0  0  0  0  0  0
    3.4268  -18.7289   21.5919 C   0  0  0  0  0  0  0  0  0  0  0  0
    7.6696  -17.0125   21.0070 C   0  0  0  0  0  0  0  0  0  0  0  0
    8.6466  -17.6124   20.3910 O   0  0  0  0  0  0  0  0  0  0  0  0
    7.8646  -15.7919   21.6440 N   0  0  0  0  0  0  0  0  0  0  0  0
    6.7569  -15.0574   22.3063 C   0  0  0  0  0  0  0  0  0  0  0  0
    6.9907  -13.6830   21.6819 C   0  0  0  0  0  0  0  0  0  0  0  0
    8.4580  -13.5830   21.4266 C   0  0  0  0  0  0  0  0  0  0  0  0
    8.9874  -14.9300   21.8469 C   0  0  1  0  0  0  0  0  0  0  0  0
    9.4149  -15.0186   23.2519 C   0  0  0  0  0  0  0  0  0  0  0  0
   10.2478  -14.1497   23.6506 O   0  0  0  0  0  0  0  0  0  0  0  0
    8.9938  -15.9795   24.1962 N   0  0  0  0  0  0  0  0  0  0  0  0
    9.3119  -15.8382   25.6238 C   0  0  1  0  0  0  0  0  0  0  0  0
    8.1195  -15.6457   26.4791 C   0  0  0  0  0  0  0  0  0  0  0  0
    7.4842  -14.3288   26.4511 C   0  0  0  0  0  0  0  0  0  0  0  0
    8.1386  -13.1816   26.8784 C   0  0  0  0  0  0  0  0  0  0  0  0
    7.4605  -11.9921   26.8238 C   0  0  0  0  0  0  0  0  0  0  0  0
    6.1398  -11.9218   26.3482 C   0  0  0  0  0  0  0  0  0  0  0  0
    5.4813  -13.0557   25.9196 C   0  0  0  0  0  0  0  0  0  0  0  0
    6.1722  -14.2427   25.9836 C   0  0  0  0  0  0  0  0  0  0  0  0
    9.9999  -17.1236   26.0487 C   0  0  0  0  0  0  0  0  0  0  0  0
   10.5510  -17.1883   27.1937 O   0  0  0  0  0  0  0  0  0  0  0  0
   10.0718  -18.2475   25.2685 O   0  0  0  0  0  0  0  0  0  0  0  0
  2  1  1  1
  3  2  1  0
  4  3  1  0
  5  4  2  0
  6  5  1  0
  7  6  1  0
  7 12  2  0
  8  9  2  0
  8  7  1  0
  9 10  1  0
 10 11  2  0
 12 11  1  0
 12  4  1  0
 13  2  1  0
 13 14  2  0
 15 13  1  0
 16 15  1  0
 17 18  1  0
 17 16  1  0
 19 18  1  0
 19 15  1  0
 19 20  1  1
 21 20  2  0
 22 20  1  0
 23 22  1  0
 23 24  1  1
 24 25  1  0
 25 26  2  0
 26 27  1  0
 28 27  2  0
 29 28  1  0
 30 29  2  0
 30 25  1  0
 31 33  1  0
 31 23  1  0
 32 31  2  0
M  END
$$$$
