WPF.pdb
     RDKit          3D

 33 36  0  0  1  0  0  0  0  0999 V2000
    6.0635  -18.2978   24.7609 N   0  0  0  0  0  0  0  0  0  0  0  0
    6.0802  -17.3555   23.7123 C   0  0  1  0  0  0  0  0  0  0  0  0
    5.9008  -15.9462   24.2422 C   0  0  0  0  0  0  0  0  0  0  0  0
    6.6651  -15.6282   25.4411 C   0  0  0  0  0  0  0  0  0  0  0  0
    7.2221  -16.5562   26.3226 C   0  0  0  0  0  0  0  0  0  0  0  0
    7.8166  -15.8859   27.3149 N   0  0  0  0  0  0  0  0  0  0  0  0
    7.6850  -14.5451   27.1449 C   0  0  0  0  0  0  0  0  0  0  0  0
    8.1184  -13.4545   27.8783 C   0  0  0  0  0  0  0  0  0  0  0  0
    7.8354  -12.1765   27.4409 C   0  0  0  0  0  0  0  0  0  0  0  0
    7.1205  -11.9687   26.2730 C   0  0  0  0  0  0  0  0  0  0  0  0
    6.7000  -13.0901   25.5644 C   0  0  0  0  0  0  0  0  0  0  0  0
    6.9596  -14.3816   25.9627 C   0  0  0  0  0  0  0  0  0  0  0  0
    7.2163  -17.4388   22.7641 C   0  0  0  0  0  0  0  0  0  0  0  0
    7.4798  -18.6593   22.3972 O   0  0  0  0  0  0  0  0  0  0  0  0
    7.9592  -16.3676   22.2801 N   0  0  0  0  0  0  0  0  0  0  0  0
    7.7399  -14.9752   22.7472 C   0  0  0  0  0  0  0  0  0  0  0  0
    7.6489  -14.2904   21.3848 C   0  0  0  0  0  0  0  0  0  0  0  0
    8.5153  -15.0797   20.4604 C   0  0  0  0  0  0  0  0  0  0  0  0
    9.0039  -16.2212   21.3146 C   0  0  1  0  0  0  0  0  0  0  0  0
   10.2747  -15.9742   22.0138 C   0  0  0  0  0  0  0  0  0  0  0  0
   10.9901  -15.0228   21.5776 O   0  0  0  0  0  0  0  0  0  0  0  0
   10.7773  -16.6966   23.1174 N   0  0  0  0  0  0  0  0  0  0  0  0
   12.0340  -16.3115   23.7742 C   0  0  1  0  0  0  0  0  0  0  0  0
   11.9417  -15.0421   24.5297 C   0  0  0  0  0  0  0  0  0  0  0  0
   10.9758  -14.9875   25.6263 C   0  0  0  0  0  0  0  0  0  0  0  0
   11.1911  -15.6341   26.8357 C   0  0  0  0  0  0  0  0  0  0  0  0
   10.2257  -15.5342   27.8030 C   0  0  0  0  0  0  0  0  0  0  0  0
    9.0471  -14.7989   27.5899 C   0  0  0  0  0  0  0  0  0  0  0  0
    8.8244  -14.1512   26.3924 C   0  0  0  0  0  0  0  0  0  0  0  0
    9.7995  -14.2631   25.4296 C   0  0  0  0  0  0  0  0  0  0  0  0
   12.3763  -17.4228   24.7510 C   0  0  0  0  0  0  0  0  0  0  0  0
   13.4501  -17.3494   25.4296 O   0  0  0  0  0  0  0  0  0  0  0  0
   11.5923  -18.5267   24.9601 O   0  0  0  0  0  0  0  0  0  0  0  0
  2  1  1  1
  3  2  1  0
  4  3  1  0
  5  4  2  0
  6  5  1  0
  7  6  1  0
  7 12  2  0
  8  9  2  0
  8  7  1  0
  9 10  1  0
 10 11  2  0
 12 11  1  0
 12  4  1  0
 13  2  1  0
 13 14  2  0
 15 13  1  0
 16 15  1  0
 17 18  1  0
 17 16  1  0
 19 18  1  0
 19 15  1  0
 19 20  1  1
 21 20  2  0
 22 20  1  0
 23 22  1  0
 23 24  1  1
 24 25  1  0
 25 26  2  0
 26 27  1  0
 28 27  2  0
 29 28  1  0
 30 29  2  0
 30 25  1  0
 31 33  1  0
 31 23  1  0
 32 31  2  0
M  END
$$$$
