WPF.pdb
     RDKit          3D

 33 36  0  0  1  0  0  0  0  0999 V2000
    6.0937  -17.6198   24.9291 N   0  0  0  0  0  0  0  0  0  0  0  0
    6.4413  -17.0613   23.6820 C   0  0  1  0  0  0  0  0  0  0  0  0
    6.1379  -15.5761   23.6458 C   0  0  0  0  0  0  0  0  0  0  0  0
    6.0929  -14.9164   24.9439 C   0  0  0  0  0  0  0  0  0  0  0  0
    5.7675  -15.5256   26.1570 C   0  0  0  0  0  0  0  0  0  0  0  0
    5.8022  -14.5941   27.1153 N   0  0  0  0  0  0  0  0  0  0  0  0
    6.1348  -13.3808   26.6042 C   0  0  0  0  0  0  0  0  0  0  0  0
    6.3035  -12.1313   27.1747 C   0  0  0  0  0  0  0  0  0  0  0  0
    6.6629  -11.0585   26.3843 C   0  0  0  0  0  0  0  0  0  0  0  0
    6.8580  -11.2150   25.0221 C   0  0  0  0  0  0  0  0  0  0  0  0
    6.6768  -12.4859   24.4851 C   0  0  0  0  0  0  0  0  0  0  0  0
    6.3193  -13.5833   25.2347 C   0  0  0  0  0  0  0  0  0  0  0  0
    7.8074  -17.3489   23.1845 C   0  0  0  0  0  0  0  0  0  0  0  0
    8.1603  -18.5886   23.3650 O   0  0  0  0  0  0  0  0  0  0  0  0
    8.6676  -16.4385   22.5803 N   0  0  0  0  0  0  0  0  0  0  0  0
    8.4504  -14.9715   22.6570 C   0  0  0  0  0  0  0  0  0  0  0  0
    8.6001  -14.6420   21.1730 C   0  0  0  0  0  0  0  0  0  0  0  0
    9.5553  -15.6446   20.6155 C   0  0  0  0  0  0  0  0  0  0  0  0
    9.8518  -16.5463   21.7861 C   0  0  1  0  0  0  0  0  0  0  0  0
   11.0134  -16.1496   22.5973 C   0  0  0  0  0  0  0  0  0  0  0  0
   11.6852  -15.1569   22.1843 O   0  0  0  0  0  0  0  0  0  0  0  0
   11.4561  -16.7699   23.7854 N   0  0  0  0  0  0  0  0  0  0  0  0
   12.6136  -16.2556   24.5302 C   0  0  1  0  0  0  0  0  0  0  0  0
   12.2724  -15.1729   25.4798 C   0  0  0  0  0  0  0  0  0  0  0  0
   11.4477  -15.5324   26.6327 C   0  0  0  0  0  0  0  0  0  0  0  0
   11.1865  -14.6401   27.6635 C   0  0  0  0  0  0  0  0  0  0  0  0
   10.4101  -15.0684   28.7082 C   0  0  0  0  0  0  0  0  0  0  0  0
    9.8851  -16.3716   28.7459 C   0  0  0  0  0  0  0  0  0  0  0  0
   10.1373  -17.2653   27.7257 C   0  0  0  0  0  0  0  0  0  0  0  0
   10.9208  -16.8235   26.6859 C   0  0  0  0  0  0  0  0  0  0  0  0
   13.1788  -17.4221   25.3215 C   0  0  0  0  0  0  0  0  0  0  0  0
   14.2844  -17.2831   25.9358 O   0  0  0  0  0  0  0  0  0  0  0  0
   12.5686  -18.6443   25.4249 O   0  0  0  0  0  0  0  0  0  0  0  0
  2  1  1  1
  3  2  1  0
  4  3  1  0
  5  4  2  0
  6  5  1  0
  7  6  1  0
  7 12  2  0
  8  9  2  0
  8  7  1  0
  9 10  1  0
 10 11  2  0
 12 11  1  0
 12  4  1  0
 13  2  1  0
 13 14  2  0
 15 13  1  0
 16 15  1  0
 17 18  1  0
 17 16  1  0
 19 18  1  0
 19 15  1  0
 19 20  1  1
 21 20  2  0
 22 20  1  0
 23 22  1  0
 23 24  1  1
 24 25  1  0
 25 26  2  0
 26 27  1  0
 28 27  2  0
 29 28  1  0
 30 29  2  0
 30 25  1  0
 31 33  1  0
 31 23  1  0
 32 31  2  0
M  END
$$$$
