WPF.pdb
     RDKit          3D

 33 36  0  0  1  0  0  0  0  0999 V2000
    5.7999  -17.2808   24.7677 N   0  0  0  0  0  0  0  0  0  0  0  0
    6.6495  -16.3277   24.1696 C   0  0  1  0  0  0  0  0  0  0  0  0
    7.3919  -15.5238   25.2191 C   0  0  0  0  0  0  0  0  0  0  0  0
    6.5980  -14.5175   25.9117 C   0  0  0  0  0  0  0  0  0  0  0  0
    5.4059  -14.7512   26.5993 C   0  0  0  0  0  0  0  0  0  0  0  0
    4.9590  -13.5828   27.0708 N   0  0  0  0  0  0  0  0  0  0  0  0
    5.7951  -12.5681   26.7310 C   0  0  0  0  0  0  0  0  0  0  0  0
    5.7757  -11.2068   26.9797 C   0  0  0  0  0  0  0  0  0  0  0  0
    6.7945  -10.4072   26.5030 C   0  0  0  0  0  0  0  0  0  0  0  0
    7.8410  -10.9499   25.7759 C   0  0  0  0  0  0  0  0  0  0  0  0
    7.8242  -12.3219   25.5446 C   0  0  0  0  0  0  0  0  0  0  0  0
    6.8297  -13.1569   26.0007 C   0  0  0  0  0  0  0  0  0  0  0  0
    7.5668  -16.8252   23.1171 C   0  0  0  0  0  0  0  0  0  0  0  0
    7.4915  -18.1135   22.9489 O   0  0  0  0  0  0  0  0  0  0  0  0
    8.4363  -16.0516   22.3560 N   0  0  0  0  0  0  0  0  0  0  0  0
    8.4452  -14.5683   22.4253 C   0  0  0  0  0  0  0  0  0  0  0  0
    8.3940  -14.2707   20.9279 C   0  0  0  0  0  0  0  0  0  0  0  0
    9.0923  -15.4035   20.2515 C   0  0  0  0  0  0  0  0  0  0  0  0
    9.4462  -16.3333   21.3836 C   0  0  1  0  0  0  0  0  0  0  0  0
   10.7699  -16.1052   21.9842 C   0  0  0  0  0  0  0  0  0  0  0  0
   11.3102  -14.9797   21.7632 O   0  0  0  0  0  0  0  0  0  0  0  0
   11.4988  -17.0186   22.7758 N   0  0  0  0  0  0  0  0  0  0  0  0
   12.5561  -16.5637   23.6892 C   0  0  1  0  0  0  0  0  0  0  0  0
   12.2648  -16.8377   25.1142 C   0  0  0  0  0  0  0  0  0  0  0  0
   11.2324  -16.0222   25.7526 C   0  0  0  0  0  0  0  0  0  0  0  0
   11.2383  -14.6356   25.6875 C   0  0  0  0  0  0  0  0  0  0  0  0
   10.2343  -13.9541   26.3240 C   0  0  0  0  0  0  0  0  0  0  0  0
    9.2197  -14.6286   27.0247 C   0  0  0  0  0  0  0  0  0  0  0  0
    9.2037  -16.0062   27.0939 C   0  0  0  0  0  0  0  0  0  0  0  0
   10.2192  -16.6769   26.4541 C   0  0  0  0  0  0  0  0  0  0  0  0
   13.8184  -17.3170   23.3081 C   0  0  0  0  0  0  0  0  0  0  0  0
   13.7522  -18.2523   22.4478 O   0  0  0  0  0  0  0  0  0  0  0  0
   15.0550  -17.0555   23.8366 O   0  0  0  0  0  0  0  0  0  0  0  0
  2  1  1  1
  3  2  1  0
  4  3  1  0
  5  4  2  0
  6  5  1  0
  7  6  1  0
  7 12  2  0
  8  9  2  0
  8  7  1  0
  9 10  1  0
 10 11  2  0
 12 11  1  0
 12  4  1  0
 13  2  1  0
 13 14  2  0
 15 13  1  0
 16 15  1  0
 17 18  1  0
 17 16  1  0
 19 18  1  0
 19 15  1  0
 19 20  1  1
 21 20  2  0
 22 20  1  0
 23 22  1  0
 23 24  1  1
 24 25  1  0
 25 26  2  0
 26 27  1  0
 28 27  2  0
 29 28  1  0
 30 29  2  0
 30 25  1  0
 31 33  1  0
 31 23  1  0
 32 31  2  0
M  END
$$$$
