WPF.pdb
     RDKit          3D

 33 36  0  0  1  0  0  0  0  0999 V2000
    5.7458  -18.3436   24.5385 N   0  0  0  0  0  0  0  0  0  0  0  0
    5.9203  -17.3606   23.5429 C   0  0  1  0  0  0  0  0  0  0  0  0
    5.6199  -15.9765   24.0840 C   0  0  0  0  0  0  0  0  0  0  0  0
    6.2451  -15.6561   25.3604 C   0  0  0  0  0  0  0  0  0  0  0  0
    6.8240  -16.5746   26.2378 C   0  0  0  0  0  0  0  0  0  0  0  0
    7.2602  -15.9091   27.3121 N   0  0  0  0  0  0  0  0  0  0  0  0
    7.0003  -14.5808   27.2015 C   0  0  0  0  0  0  0  0  0  0  0  0
    7.2531  -13.4986   28.0262 C   0  0  0  0  0  0  0  0  0  0  0  0
    6.8719  -12.2318   27.6330 C   0  0  0  0  0  0  0  0  0  0  0  0
    6.2370  -12.0270   26.4193 C   0  0  0  0  0  0  0  0  0  0  0  0
    5.9982  -13.1399   25.6188 C   0  0  0  0  0  0  0  0  0  0  0  0
    6.3609  -14.4202   25.9703 C   0  0  0  0  0  0  0  0  0  0  0  0
    7.2040  -17.3875   22.8025 C   0  0  0  0  0  0  0  0  0  0  0  0
    7.5714  -18.5914   22.4718 O   0  0  0  0  0  0  0  0  0  0  0  0
    7.9784  -16.2827   22.4656 N   0  0  0  0  0  0  0  0  0  0  0  0
    7.7103  -14.9294   23.0148 C   0  0  0  0  0  0  0  0  0  0  0  0
    7.7319  -14.1443   21.7046 C   0  0  0  0  0  0  0  0  0  0  0  0
    8.6798  -14.8618   20.8019 C   0  0  0  0  0  0  0  0  0  0  0  0
    9.1011  -16.0640   21.6073 C   0  0  1  0  0  0  0  0  0  0  0  0
   10.3054  -15.8696   22.4299 C   0  0  0  0  0  0  0  0  0  0  0  0
   11.2005  -15.1052   21.9589 O   0  0  0  0  0  0  0  0  0  0  0  0
   10.5639  -16.4558   23.6876 N   0  0  0  0  0  0  0  0  0  0  0  0
   11.8952  -16.3832   24.3052 C   0  0  1  0  0  0  0  0  0  0  0  0
   11.8570  -16.1790   25.7706 C   0  0  0  0  0  0  0  0  0  0  0  0
   11.0867  -15.0386   26.2652 C   0  0  0  0  0  0  0  0  0  0  0  0
   10.9162  -13.8805   25.5190 C   0  0  0  0  0  0  0  0  0  0  0  0
   10.1854  -12.8595   26.0678 C   0  0  0  0  0  0  0  0  0  0  0  0
    9.6172  -12.9702   27.3486 C   0  0  0  0  0  0  0  0  0  0  0  0
    9.7793  -14.1174   28.0973 C   0  0  0  0  0  0  0  0  0  0  0  0
   10.5179  -15.1321   27.5360 C   0  0  0  0  0  0  0  0  0  0  0  0
   12.5801  -17.7098   24.0272 C   0  0  0  0  0  0  0  0  0  0  0  0
   11.9155  -18.6575   23.4988 O   0  0  0  0  0  0  0  0  0  0  0  0
   13.8956  -17.9664   24.3109 O   0  0  0  0  0  0  0  0  0  0  0  0
  2  1  1  1
  3  2  1  0
  4  3  1  0
  5  4  2  0
  6  5  1  0
  7  6  1  0
  7 12  2  0
  8  9  2  0
  8  7  1  0
  9 10  1  0
 10 11  2  0
 12 11  1  0
 12  4  1  0
 13  2  1  0
 13 14  2  0
 15 13  1  0
 16 15  1  0
 17 18  1  0
 17 16  1  0
 19 18  1  0
 19 15  1  0
 19 20  1  1
 21 20  2  0
 22 20  1  0
 23 22  1  0
 23 24  1  1
 24 25  1  0
 25 26  2  0
 26 27  1  0
 28 27  2  0
 29 28  1  0
 30 29  2  0
 30 25  1  0
 31 33  1  0
 31 23  1  0
 32 31  2  0
M  END
$$$$
