WPF.pdb
     RDKit          3D

 33 36  0  0  1  0  0  0  0  0999 V2000
    4.2599  -18.5660   20.2817 N   0  0  0  0  0  0  0  0  0  0  0  0
    5.4949  -18.5985   20.9613 C   0  0  1  0  0  0  0  0  0  0  0  0
    6.5995  -17.9965   20.1149 C   0  0  0  0  0  0  0  0  0  0  0  0
    7.8710  -18.7070   20.1508 C   0  0  0  0  0  0  0  0  0  0  0  0
    8.0627  -20.0516   19.8286 C   0  0  0  0  0  0  0  0  0  0  0  0
    9.3536  -20.3459   20.0134 N   0  0  0  0  0  0  0  0  0  0  0  0
   10.0439  -19.2603   20.4482 C   0  0  0  0  0  0  0  0  0  0  0  0
   11.3741  -19.0555   20.7704 C   0  0  0  0  0  0  0  0  0  0  0  0
   11.7963  -17.8083   21.1839 C   0  0  0  0  0  0  0  0  0  0  0  0
   10.9038  -16.7538   21.2815 C   0  0  0  0  0  0  0  0  0  0  0  0
    9.5745  -16.9993   20.9512 C   0  0  0  0  0  0  0  0  0  0  0  0
    9.1096  -18.2258   20.5343 C   0  0  0  0  0  0  0  0  0  0  0  0
    5.5079  -18.0528   22.3393 C   0  0  0  0  0  0  0  0  0  0  0  0
    4.6771  -17.0638   22.4989 O   0  0  0  0  0  0  0  0  0  0  0  0
    6.2967  -18.5046   23.3916 N   0  0  0  0  0  0  0  0  0  0  0  0
    7.2447  -19.6377   23.2422 C   0  0  0  0  0  0  0  0  0  0  0  0
    6.8260  -20.4472   24.4680 C   0  0  0  0  0  0  0  0  0  0  0  0
    6.3520  -19.4585   25.4811 C   0  0  0  0  0  0  0  0  0  0  0  0
    6.4509  -18.1362   24.7647 C   0  0  1  0  0  0  0  0  0  0  0  0
    7.7319  -17.4325   24.9336 C   0  0  0  0  0  0  0  0  0  0  0  0
    8.7525  -17.9721   24.4094 O   0  0  0  0  0  0  0  0  0  0  0  0
    7.9361  -16.2202   25.6270 N   0  0  0  0  0  0  0  0  0  0  0  0
    9.2189  -15.5069   25.5572 C   0  0  1  0  0  0  0  0  0  0  0  0
    9.0761  -14.0573   25.2949 C   0  0  0  0  0  0  0  0  0  0  0  0
    8.0648  -13.3364   26.0670 C   0  0  0  0  0  0  0  0  0  0  0  0
    8.3655  -12.6849   27.2553 C   0  0  0  0  0  0  0  0  0  0  0  0
    7.3508  -12.0424   27.9151 C   0  0  0  0  0  0  0  0  0  0  0  0
    6.0385  -12.0340   27.4121 C   0  0  0  0  0  0  0  0  0  0  0  0
    5.7297  -12.6769   26.2313 C   0  0  0  0  0  0  0  0  0  0  0  0
    6.7564  -13.3206   25.5819 C   0  0  0  0  0  0  0  0  0  0  0  0
    9.8917  -15.6822   26.9073 C   0  0  0  0  0  0  0  0  0  0  0  0
    9.2242  -16.1566   27.8812 O   0  0  0  0  0  0  0  0  0  0  0  0
   11.1989  -15.3587   27.1590 O   0  0  0  0  0  0  0  0  0  0  0  0
  2  1  1  6
  3  2  1  0
  4  3  1  0
  5  4  2  0
  6  5  1  0
  7  6  1  0
  7 12  2  0
  8  9  2  0
  8  7  1  0
  9 10  1  0
 10 11  2  0
 12 11  1  0
 12  4  1  0
 13  2  1  0
 13 14  2  0
 15 13  1  0
 16 15  1  0
 17 18  1  0
 17 16  1  0
 19 18  1  0
 19 15  1  0
 19 20  1  6
 21 20  2  0
 22 20  1  0
 23 22  1  0
 23 24  1  1
 24 25  1  0
 25 26  2  0
 26 27  1  0
 28 27  2  0
 29 28  1  0
 30 29  2  0
 30 25  1  0
 31 33  1  0
 31 23  1  0
 32 31  2  0
M  END
$$$$
