WPF.pdb
     RDKit          3D

 33 36  0  0  1  0  0  0  0  0999 V2000
    5.7339  -18.5417   23.2104 N   0  0  0  0  0  0  0  0  0  0  0  0
    6.6916  -17.5140   23.3313 C   0  0  1  0  0  0  0  0  0  0  0  0
    6.2398  -16.4611   24.3244 C   0  0  0  0  0  0  0  0  0  0  0  0
    6.6076  -15.0911   23.9921 C   0  0  0  0  0  0  0  0  0  0  0  0
    7.1767  -14.6687   22.7895 C   0  0  0  0  0  0  0  0  0  0  0  0
    7.4004  -13.3533   22.8720 N   0  0  0  0  0  0  0  0  0  0  0  0
    7.0095  -12.8668   24.0780 C   0  0  0  0  0  0  0  0  0  0  0  0
    7.0269  -11.5998   24.6344 C   0  0  0  0  0  0  0  0  0  0  0  0
    6.5404  -11.4037   25.9109 C   0  0  0  0  0  0  0  0  0  0  0  0
    6.0326  -12.4615   26.6467 C   0  0  0  0  0  0  0  0  0  0  0  0
    6.0340  -13.7206   26.0541 C   0  0  0  0  0  0  0  0  0  0  0  0
    6.5084  -13.9621   24.7849 C   0  0  0  0  0  0  0  0  0  0  0  0
    8.0891  -17.9368   23.5862 C   0  0  0  0  0  0  0  0  0  0  0  0
    8.1661  -19.0323   24.2848 O   0  0  0  0  0  0  0  0  0  0  0  0
    9.2355  -17.2798   23.1529 N   0  0  0  0  0  0  0  0  0  0  0  0
    9.2144  -15.8678   22.6938 C   0  0  0  0  0  0  0  0  0  0  0  0
    9.9757  -16.0444   21.3813 C   0  0  0  0  0  0  0  0  0  0  0  0
   10.9212  -17.1796   21.5949 C   0  0  0  0  0  0  0  0  0  0  0  0
   10.6077  -17.6488   22.9924 C   0  0  1  0  0  0  0  0  0  0  0  0
   11.4044  -17.0142   24.0541 C   0  0  0  0  0  0  0  0  0  0  0  0
   11.9949  -15.9328   23.7551 O   0  0  0  0  0  0  0  0  0  0  0  0
   11.5806  -17.4948   25.3695 N   0  0  0  0  0  0  0  0  0  0  0  0
   12.5352  -16.8646   26.2918 C   0  0  1  0  0  0  0  0  0  0  0  0
   12.2937  -15.4187   26.4959 C   0  0  0  0  0  0  0  0  0  0  0  0
   11.1118  -15.0429   27.2707 C   0  0  0  0  0  0  0  0  0  0  0  0
   11.1569  -14.8526   28.6451 C   0  0  0  0  0  0  0  0  0  0  0  0
    9.9968  -14.5100   29.2888 C   0  0  0  0  0  0  0  0  0  0  0  0
    8.7888  -14.3505   28.5883 C   0  0  0  0  0  0  0  0  0  0  0  0
    8.7338  -14.5354   27.2224 C   0  0  0  0  0  0  0  0  0  0  0  0
    9.9042  -14.8827   26.5900 C   0  0  0  0  0  0  0  0  0  0  0  0
   12.3805  -17.5664   27.6296 C   0  0  0  0  0  0  0  0  0  0  0  0
   13.2176  -17.3318   28.5587 O   0  0  0  0  0  0  0  0  0  0  0  0
   11.3790  -18.4563   27.9159 O   0  0  0  0  0  0  0  0  0  0  0  0
  2  1  1  1
  3  2  1  0
  4  3  1  0
  5  4  2  0
  6  5  1  0
  7  6  1  0
  7 12  2  0
  8  9  2  0
  8  7  1  0
  9 10  1  0
 10 11  2  0
 12 11  1  0
 12  4  1  0
 13  2  1  0
 13 14  2  0
 15 13  1  0
 16 15  1  0
 17 18  1  0
 17 16  1  0
 19 18  1  0
 19 15  1  0
 19 20  1  1
 21 20  2  0
 22 20  1  0
 23 22  1  0
 23 24  1  1
 24 25  1  0
 25 26  2  0
 26 27  1  0
 28 27  2  0
 29 28  1  0
 30 29  2  0
 30 25  1  0
 31 33  1  0
 31 23  1  0
 32 31  2  0
M  END
$$$$
