WPF.pdb
     RDKit          3D

 33 36  0  0  1  0  0  0  0  0999 V2000
    5.7647  -18.1959   24.3790 N   0  0  0  0  0  0  0  0  0  0  0  0
    6.5259  -17.0561   24.0487 C   0  0  1  0  0  0  0  0  0  0  0  0
    7.1107  -16.4119   25.2906 C   0  0  0  0  0  0  0  0  0  0  0  0
    6.3280  -15.3204   25.8551 C   0  0  0  0  0  0  0  0  0  0  0  0
    5.0549  -15.4354   26.4158 C   0  0  0  0  0  0  0  0  0  0  0  0
    4.6523  -14.2176   26.7928 N   0  0  0  0  0  0  0  0  0  0  0  0
    5.5961  -13.2830   26.5103 C   0  0  0  0  0  0  0  0  0  0  0  0
    5.6561  -11.9143   26.7059 C   0  0  0  0  0  0  0  0  0  0  0  0
    6.7789  -11.2134   26.3152 C   0  0  0  0  0  0  0  0  0  0  0  0
    7.8516  -11.8630   25.7273 C   0  0  0  0  0  0  0  0  0  0  0  0
    7.7530  -13.2390   25.5454 C   0  0  0  0  0  0  0  0  0  0  0  0
    6.6538  -13.9778   25.9196 C   0  0  0  0  0  0  0  0  0  0  0  0
    7.5507  -17.2267   22.9916 C   0  0  0  0  0  0  0  0  0  0  0  0
    7.6466  -18.4558   22.5746 O   0  0  0  0  0  0  0  0  0  0  0  0
    8.3535  -16.2236   22.4597 N   0  0  0  0  0  0  0  0  0  0  0  0
    8.3223  -14.8293   22.9694 C   0  0  0  0  0  0  0  0  0  0  0  0
    8.1798  -14.1023   21.6336 C   0  0  0  0  0  0  0  0  0  0  0  0
    8.8729  -14.9502   20.6192 C   0  0  0  0  0  0  0  0  0  0  0  0
    9.3162  -16.1578   21.4043 C   0  0  1  0  0  0  0  0  0  0  0  0
   10.6636  -16.0597   21.9870 C   0  0  0  0  0  0  0  0  0  0  0  0
   11.4983  -15.3284   21.3738 O   0  0  0  0  0  0  0  0  0  0  0  0
   11.1189  -16.7048   23.1569 N   0  0  0  0  0  0  0  0  0  0  0  0
   12.4349  -16.3994   23.7349 C   0  0  1  0  0  0  0  0  0  0  0  0
   12.4619  -15.1399   24.5117 C   0  0  0  0  0  0  0  0  0  0  0  0
   11.6151  -15.0723   25.7020 C   0  0  0  0  0  0  0  0  0  0  0  0
   10.2715  -14.7293   25.6366 C   0  0  0  0  0  0  0  0  0  0  0  0
    9.5583  -14.6833   26.8058 C   0  0  0  0  0  0  0  0  0  0  0  0
   10.1581  -14.9751   28.0429 C   0  0  0  0  0  0  0  0  0  0  0  0
   11.4920  -15.3187   28.1184 C   0  0  0  0  0  0  0  0  0  0  0  0
   12.1963  -15.3573   26.9382 C   0  0  0  0  0  0  0  0  0  0  0  0
   12.7782  -17.5440   24.6720 C   0  0  0  0  0  0  0  0  0  0  0  0
   13.9226  -17.5752   25.2272 O   0  0  0  0  0  0  0  0  0  0  0  0
   11.9227  -18.5715   24.9709 O   0  0  0  0  0  0  0  0  0  0  0  0
  2  1  1  1
  3  2  1  0
  4  3  1  0
  5  4  2  0
  6  5  1  0
  7  6  1  0
  7 12  2  0
  8  9  2  0
  8  7  1  0
  9 10  1  0
 10 11  2  0
 12 11  1  0
 12  4  1  0
 13  2  1  0
 13 14  2  0
 15 13  1  0
 16 15  1  0
 17 18  1  0
 17 16  1  0
 19 18  1  0
 19 15  1  0
 19 20  1  1
 21 20  2  0
 22 20  1  0
 23 22  1  0
 23 24  1  1
 24 25  1  0
 25 26  2  0
 26 27  1  0
 28 27  2  0
 29 28  1  0
 30 29  2  0
 30 25  1  0
 31 33  1  0
 31 23  1  0
 32 31  2  0
M  END
$$$$
