WPF.pdb
     RDKit          3D

 33 36  0  0  1  0  0  0  0  0999 V2000
    7.1279  -17.8912   20.5268 N   0  0  0  0  0  0  0  0  0  0  0  0
    7.4512  -17.2815   21.7563 C   0  0  1  0  0  0  0  0  0  0  0  0
    6.3062  -17.4023   22.7430 C   0  0  0  0  0  0  0  0  0  0  0  0
    6.4399  -16.6049   23.9550 C   0  0  0  0  0  0  0  0  0  0  0  0
    6.4040  -17.0953   25.2614 C   0  0  0  0  0  0  0  0  0  0  0  0
    6.5269  -16.0612   26.0998 N   0  0  0  0  0  0  0  0  0  0  0  0
    6.6426  -14.8922   25.4185 C   0  0  0  0  0  0  0  0  0  0  0  0
    6.7947  -13.5770   25.8214 C   0  0  0  0  0  0  0  0  0  0  0  0
    6.8981  -12.5769   24.8760 C   0  0  0  0  0  0  0  0  0  0  0  0
    6.8516  -12.8718   23.5236 C   0  0  0  0  0  0  0  0  0  0  0  0
    6.6956  -14.2053   23.1579 C   0  0  0  0  0  0  0  0  0  0  0  0
    6.5887  -15.2343   24.0655 C   0  0  0  0  0  0  0  0  0  0  0  0
    8.7417  -17.6727   22.3713 C   0  0  0  0  0  0  0  0  0  0  0  0
    8.8777  -18.9622   22.4831 O   0  0  0  0  0  0  0  0  0  0  0  0
    9.7401  -16.8057   22.8015 N   0  0  0  0  0  0  0  0  0  0  0  0
    9.5343  -15.3373   22.8823 C   0  0  0  0  0  0  0  0  0  0  0  0
   10.7932  -14.8905   22.1413 C   0  0  0  0  0  0  0  0  0  0  0  0
   11.8285  -15.9321   22.4086 C   0  0  0  0  0  0  0  0  0  0  0  0
   11.0959  -16.9635   23.2277 C   0  0  1  0  0  0  0  0  0  0  0  0
   11.1690  -16.7666   24.6840 C   0  0  0  0  0  0  0  0  0  0  0  0
   11.9955  -15.9005   25.1016 O   0  0  0  0  0  0  0  0  0  0  0  0
   10.4144  -17.4516   25.6604 N   0  0  0  0  0  0  0  0  0  0  0  0
   10.9038  -17.6015   27.0378 C   0  0  1  0  0  0  0  0  0  0  0  0
   10.0570  -16.9218   28.0436 C   0  0  0  0  0  0  0  0  0  0  0  0
    9.8709  -15.4791   27.8932 C   0  0  0  0  0  0  0  0  0  0  0  0
    8.7325  -14.9357   27.3137 C   0  0  0  0  0  0  0  0  0  0  0  0
    8.6494  -13.5721   27.2070 C   0  0  0  0  0  0  0  0  0  0  0  0
    9.6800  -12.7359   27.6695 C   0  0  0  0  0  0  0  0  0  0  0  0
   10.8144  -13.2659   28.2485 C   0  0  0  0  0  0  0  0  0  0  0  0
   10.8862  -14.6355   28.3456 C   0  0  0  0  0  0  0  0  0  0  0  0
   10.9043  -19.0891   27.3432 C   0  0  0  0  0  0  0  0  0  0  0  0
   11.4839  -19.5109   28.3944 O   0  0  0  0  0  0  0  0  0  0  0  0
   10.3104  -20.0339   26.5485 O   0  0  0  0  0  0  0  0  0  0  0  0
  2  1  1  6
  3  2  1  0
  4  3  1  0
  5  4  2  0
  6  5  1  0
  7  6  1  0
  7 12  2  0
  8  9  2  0
  8  7  1  0
  9 10  1  0
 10 11  2  0
 12 11  1  0
 12  4  1  0
 13  2  1  0
 13 14  2  0
 15 13  1  0
 16 15  1  0
 17 18  1  0
 17 16  1  0
 19 18  1  0
 19 15  1  0
 19 20  1  1
 21 20  2  0
 22 20  1  0
 23 22  1  0
 23 24  1  1
 24 25  1  0
 25 26  2  0
 26 27  1  0
 28 27  2  0
 29 28  1  0
 30 29  2  0
 30 25  1  0
 31 33  1  0
 31 23  1  0
 32 31  2  0
M  END
$$$$
