RYK.pdb
     RDKit          3D

 33 33  0  0  1  0  0  0  0  0999 V2000
    8.0572  -18.2431   15.7323 N   0  0  0  0  0  0  0  0  0  0  0  0
    6.6955  -18.3250   16.1522 C   0  0  0  0  0  0  0  0  0  0  0  0
    5.8989  -18.9940   15.4166 N   0  0  0  0  0  0  0  0  0  0  0  0
    6.2285  -17.6976   17.3295 N   0  0  0  0  0  0  0  0  0  0  0  0
    7.1881  -17.2288   18.3500 C   0  0  0  0  0  0  0  0  0  0  0  0
    7.8552  -18.3883   18.9902 C   0  0  0  0  0  0  0  0  0  0  0  0
    8.8269  -18.0209   20.0495 C   0  0  0  0  0  0  0  0  0  0  0  0
    8.7919  -16.5882   20.4261 C   0  0  2  0  0  0  0  0  0  0  0  0
    9.5391  -15.7753   19.4821 N   0  0  0  0  0  0  0  0  0  0  0  0
    9.4544  -16.4122   21.7737 C   0  0  0  0  0  0  0  0  0  0  0  0
   10.6219  -16.7797   21.9761 O   0  0  0  0  0  0  0  0  0  0  0  0
    4.9059  -19.1104   15.6550 O   0  0  0  0  0  0  0  0  0  0  0  0
   10.6183  -14.5128   30.3142 C   0  0  0  0  0  0  0  0  0  0  0  0
   10.0767  -14.5766   29.0167 C   0  0  0  0  0  0  0  0  0  0  0  0
   10.2831  -13.5639   28.1071 C   0  0  0  0  0  0  0  0  0  0  0  0
    9.7482  -13.6413   26.8452 C   0  0  0  0  0  0  0  0  0  0  0  0
    8.9872  -14.7129   26.4159 C   0  0  0  0  0  0  0  0  0  0  0  0
    8.4350  -14.7469   25.0363 C   0  0  1  0  0  0  0  0  0  0  0  0
    9.2358  -15.5996   24.1357 N   0  0  0  0  0  0  0  0  0  0  0  0
    8.7219  -15.8184   22.8132 C   0  0  0  0  0  0  0  0  0  0  0  0
    9.5804  -16.9039   24.7573 O   0  0  0  0  0  0  0  0  0  0  0  0
    8.6659  -17.7704   24.9713 C   0  0  0  0  0  0  0  0  0  0  0  0
    8.7857  -15.7230   27.3350 C   0  0  0  0  0  0  0  0  0  0  0  0
    9.3205  -15.6559   28.6110 N   0  0  0  0  0  0  0  0  0  0  0  0
   10.8795  -17.2671   25.1404 C   0  0  2  0  0  0  0  0  0  0  0  0
   11.1761  -18.5758   25.8054 C   0  0  0  0  0  0  0  0  0  0  0  0
   12.4391  -19.0326   25.1735 C   0  0  0  0  0  0  0  0  0  0  0  0
   13.1546  -20.2175   25.5842 C   0  0  0  0  0  0  0  0  0  0  0  0
   14.3633  -20.7816   25.0056 C   0  0  0  0  0  0  0  0  0  0  0  0
   15.0068  -22.0028   25.4923 N   0  0  0  0  0  0  0  0  0  0  0  0
   16.2321  -22.4149   24.9211 C   0  0  0  0  0  0  0  0  0  0  0  0
   11.4488  -18.3465   27.2476 O   0  0  0  0  0  0  0  0  0  0  0  0
   10.9793  -19.1766   28.0657 O   0  0  0  0  0  0  0  0  0  0  0  0
  2  3  2  0
  2  1  1  0
  4  2  1  0
  5  4  1  0
  6  5  1  0
  7  6  1  0
  8  7  1  0
  8 10  1  0
  8  9  1  6
 10 19  1  0
 10 11  2  0
 12 13  1  0
 13 23  2  0
 13 14  1  0
 14 15  2  0
 15 16  1  0
 16 17  1  0
 18 17  1  6
 19 18  1  0
 20 18  1  0
 20 24  1  0
 21 20  2  0
 22 16  2  0
 23 22  1  0
 25 26  1  6
 25 31  1  0
 25 24  1  0
 26 27  1  0
 27 28  1  0
 28 29  1  0
 29 30  1  0
 31 33  1  0
 32 31  2  0
M  END
$$$$
