RYK.pdb
     RDKit          3D

 33 33  0  0  1  0  0  0  0  0999 V2000
    9.5238  -13.9870   19.8926 N   0  0  0  0  0  0  0  0  0  0  0  0
    8.2778  -13.8926   19.2029 C   0  0  0  0  0  0  0  0  0  0  0  0
    8.0318  -12.8019   18.5922 N   0  0  0  0  0  0  0  0  0  0  0  0
    7.3412  -14.9511   19.1858 N   0  0  0  0  0  0  0  0  0  0  0  0
    7.0529  -15.7055   20.4227 C   0  0  0  0  0  0  0  0  0  0  0  0
    5.9451  -15.0578   21.1659 C   0  0  0  0  0  0  0  0  0  0  0  0
    5.4831  -15.8195   22.3524 C   0  0  0  0  0  0  0  0  0  0  0  0
    6.5480  -16.6142   23.0082 C   0  0  2  0  0  0  0  0  0  0  0  0
    6.0319  -17.3484   24.1505 N   0  0  0  0  0  0  0  0  0  0  0  0
    7.6129  -15.6793   23.5352 C   0  0  0  0  0  0  0  0  0  0  0  0
    7.6189  -14.4730   23.2454 O   0  0  0  0  0  0  0  0  0  0  0  0
    7.1528  -12.6501   18.0816 O   0  0  0  0  0  0  0  0  0  0  0  0
    9.4952  -18.1914   30.5241 C   0  0  0  0  0  0  0  0  0  0  0  0
    9.5838  -17.3413   29.4059 C   0  0  0  0  0  0  0  0  0  0  0  0
    8.5142  -17.1657   28.5568 C   0  0  0  0  0  0  0  0  0  0  0  0
    8.6168  -16.3327   27.4705 C   0  0  0  0  0  0  0  0  0  0  0  0
    9.7700  -15.6338   27.1655 C   0  0  0  0  0  0  0  0  0  0  0  0
    9.8248  -14.7419   25.9777 C   0  0  1  0  0  0  0  0  0  0  0  0
    9.8204  -15.4995   24.7106 N   0  0  0  0  0  0  0  0  0  0  0  0
    8.6137  -16.1989   24.3706 C   0  0  0  0  0  0  0  0  0  0  0  0
   10.9778  -16.4248   24.6061 O   0  0  0  0  0  0  0  0  0  0  0  0
   10.8445  -17.6530   24.9329 C   0  0  0  0  0  0  0  0  0  0  0  0
   10.8368  -15.8166   28.0224 C   0  0  0  0  0  0  0  0  0  0  0  0
   10.7451  -16.6544   29.1216 N   0  0  0  0  0  0  0  0  0  0  0  0
   12.2495  -16.0370   24.1605 C   0  0  2  0  0  0  0  0  0  0  0  0
   13.3361  -17.0321   23.8922 C   0  0  0  0  0  0  0  0  0  0  0  0
   14.1204  -16.4319   22.7842 C   0  0  0  0  0  0  0  0  0  0  0  0
   15.3132  -17.0313   22.2341 C   0  0  0  0  0  0  0  0  0  0  0  0
   16.1764  -16.5125   21.1855 C   0  0  0  0  0  0  0  0  0  0  0  0
   17.3705  -17.2034   20.6965 N   0  0  0  0  0  0  0  0  0  0  0  0
   18.1584  -16.5977   19.6917 C   0  0  0  0  0  0  0  0  0  0  0  0
   14.2256  -17.1241   25.0784 O   0  0  0  0  0  0  0  0  0  0  0  0
   15.1067  -18.0198   25.0745 O   0  0  0  0  0  0  0  0  0  0  0  0
  2  3  2  0
  2  1  1  0
  4  2  1  0
  5  4  1  0
  6  5  1  0
  7  6  1  0
  8  7  1  0
  8 10  1  0
  8  9  1  1
 10 19  1  0
 10 11  2  0
 12 13  1  0
 13 23  2  0
 13 14  1  0
 14 15  2  0
 15 16  1  0
 16 17  1  0
 18 17  1  6
 19 18  1  0
 20 18  1  0
 20 24  1  0
 21 20  2  0
 22 16  2  0
 23 22  1  0
 25 26  1  1
 25 31  1  0
 25 24  1  0
 26 27  1  0
 27 28  1  0
 28 29  1  0
 29 30  1  0
 31 33  1  0
 32 31  2  0
M  END
$$$$
