RYK.pdb
     RDKit          3D

 33 33  0  0  1  0  0  0  0  0999 V2000
    9.2761  -12.7670   17.8516 N   0  0  0  0  0  0  0  0  0  0  0  0
    8.1721  -13.4482   18.4467 C   0  0  0  0  0  0  0  0  0  0  0  0
    7.5703  -12.8578   19.4019 N   0  0  0  0  0  0  0  0  0  0  0  0
    7.7480  -14.7244   18.0119 N   0  0  0  0  0  0  0  0  0  0  0  0
    8.3620  -15.9424   18.5791 C   0  0  0  0  0  0  0  0  0  0  0  0
    9.7716  -16.0556   18.1323 C   0  0  0  0  0  0  0  0  0  0  0  0
   10.7583  -16.0907   19.2397 C   0  0  0  0  0  0  0  0  0  0  0  0
   10.3379  -16.9206   20.3930 C   0  0  2  0  0  0  0  0  0  0  0  0
    9.0886  -17.6101   20.1204 N   0  0  0  0  0  0  0  0  0  0  0  0
   10.0911  -16.0253   21.5860 C   0  0  0  0  0  0  0  0  0  0  0  0
   10.9722  -15.2699   22.0242 O   0  0  0  0  0  0  0  0  0  0  0  0
    6.7504  -13.2690   19.8656 O   0  0  0  0  0  0  0  0  0  0  0  0
    6.5416  -11.7543   28.3465 C   0  0  0  0  0  0  0  0  0  0  0  0
    6.7184  -12.4424   27.1315 C   0  0  0  0  0  0  0  0  0  0  0  0
    7.5692  -11.9662   26.1594 C   0  0  0  0  0  0  0  0  0  0  0  0
    7.7308  -12.6494   24.9796 C   0  0  0  0  0  0  0  0  0  0  0  0
    7.0676  -13.8293   24.6975 C   0  0  0  0  0  0  0  0  0  0  0  0
    7.2829  -14.5300   23.4044 C   0  0  2  0  0  0  0  0  0  0  0  0
    8.5108  -15.3495   23.4117 N   0  0  0  0  0  0  0  0  0  0  0  0
    8.8319  -16.0579   22.2050 C   0  0  0  0  0  0  0  0  0  0  0  0
    8.5536  -16.2857   24.5642 O   0  0  0  0  0  0  0  0  0  0  0  0
    7.5540  -17.0435   24.8085 C   0  0  0  0  0  0  0  0  0  0  0  0
    6.2168  -14.2984   25.6781 C   0  0  0  0  0  0  0  0  0  0  0  0
    6.0457  -13.6178   26.8723 N   0  0  0  0  0  0  0  0  0  0  0  0
    9.6470  -16.4033   25.4342 C   0  0  1  0  0  0  0  0  0  0  0  0
    9.6310  -17.3291   26.6114 C   0  0  0  0  0  0  0  0  0  0  0  0
   10.3865  -18.5216   26.1529 C   0  0  0  0  0  0  0  0  0  0  0  0
   10.7096  -19.6394   27.0077 C   0  0  0  0  0  0  0  0  0  0  0  0
   11.4343  -20.8520   26.6635 C   0  0  0  0  0  0  0  0  0  0  0  0
   11.7473  -21.9139   27.6209 N   0  0  0  0  0  0  0  0  0  0  0  0
   12.5399  -23.0083   27.2068 C   0  0  0  0  0  0  0  0  0  0  0  0
   10.3893  -16.7162   27.7321 O   0  0  0  0  0  0  0  0  0  0  0  0
   10.3896  -17.3230   28.8324 O   0  0  0  0  0  0  0  0  0  0  0  0
  2  3  2  0
  2  1  1  0
  4  2  1  0
  5  4  1  0
  6  5  1  0
  7  6  1  0
  8  7  1  0
  8 10  1  0
  8  9  1  6
 10 19  1  0
 10 11  2  0
 12 13  1  0
 13 23  2  0
 13 14  1  0
 14 15  2  0
 15 16  1  0
 16 17  1  0
 18 17  1  6
 19 18  1  0
 20 18  1  0
 20 24  1  0
 21 20  2  0
 22 16  2  0
 23 22  1  0
 25 26  1  1
 25 31  1  0
 25 24  1  0
 26 27  1  0
 27 28  1  0
 28 29  1  0
 29 30  1  0
 31 33  1  0
 32 31  2  0
M  END
$$$$
