RYK.pdb
     RDKit          3D

 33 33  0  0  1  0  0  0  0  0999 V2000
    8.4683  -12.6742   16.3956 N   0  0  0  0  0  0  0  0  0  0  0  0
    8.3738  -14.0474   16.0181 C   0  0  0  0  0  0  0  0  0  0  0  0
    8.6170  -14.3344   14.8008 N   0  0  0  0  0  0  0  0  0  0  0  0
    8.0256  -15.0622   16.9383 N   0  0  0  0  0  0  0  0  0  0  0  0
    8.6498  -15.0947   18.2768 C   0  0  0  0  0  0  0  0  0  0  0  0
    7.7574  -14.4479   19.2690 C   0  0  0  0  0  0  0  0  0  0  0  0
    8.3223  -14.3784   20.6391 C   0  0  0  0  0  0  0  0  0  0  0  0
    8.4366  -15.6949   21.3094 C   0  0  2  0  0  0  0  0  0  0  0  0
    7.1579  -16.3834   21.3433 N   0  0  0  0  0  0  0  0  0  0  0  0
    8.8582  -15.4862   22.7463 C   0  0  0  0  0  0  0  0  0  0  0  0
    9.8961  -14.8711   23.0356 O   0  0  0  0  0  0  0  0  0  0  0  0
    8.5876  -15.3011   14.4531 O   0  0  0  0  0  0  0  0  0  0  0  0
    6.5446   -9.8919   26.0605 C   0  0  0  0  0  0  0  0  0  0  0  0
    6.7330  -11.2866   26.0673 C   0  0  0  0  0  0  0  0  0  0  0  0
    7.8833  -11.8486   26.5740 C   0  0  0  0  0  0  0  0  0  0  0  0
    8.0516  -13.2110   26.5736 C   0  0  0  0  0  0  0  0  0  0  0  0
    7.1024  -14.0854   26.0776 C   0  0  0  0  0  0  0  0  0  0  0  0
    7.3351  -15.5532   26.1053 C   0  0  2  0  0  0  0  0  0  0  0  0
    8.3926  -15.9683   25.1625 N   0  0  0  0  0  0  0  0  0  0  0  0
    8.0492  -16.0052   23.7690 C   0  0  0  0  0  0  0  0  0  0  0  0
    9.0196  -17.2566   25.5543 O   0  0  0  0  0  0  0  0  0  0  0  0
    8.3802  -18.3517   25.3964 C   0  0  0  0  0  0  0  0  0  0  0  0
    5.9529  -13.5126   25.5717 C   0  0  0  0  0  0  0  0  0  0  0  0
    5.7718  -12.1393   25.5668 N   0  0  0  0  0  0  0  0  0  0  0  0
   10.3051  -17.3638   26.1041 C   0  0  2  0  0  0  0  0  0  0  0  0
   10.8761  -18.6773   26.5418 C   0  0  0  0  0  0  0  0  0  0  0  0
   12.2499  -18.6877   25.9799 C   0  0  0  0  0  0  0  0  0  0  0  0
   13.2138  -19.7291   26.2465 C   0  0  0  0  0  0  0  0  0  0  0  0
   14.5786  -19.8353   25.7566 C   0  0  0  0  0  0  0  0  0  0  0  0
   15.4885  -20.9262   26.1089 N   0  0  0  0  0  0  0  0  0  0  0  0
   16.7244  -21.0428   25.4333 C   0  0  0  0  0  0  0  0  0  0  0  0
   10.9926  -18.6964   28.0226 O   0  0  0  0  0  0  0  0  0  0  0  0
   10.9296  -17.5947   28.6235 O   0  0  0  0  0  0  0  0  0  0  0  0
  2  3  2  0
  2  1  1  0
  4  2  1  0
  5  4  1  0
  6  5  1  0
  7  6  1  0
  8  7  1  0
  8 10  1  0
  8  9  1  1
 10 19  1  0
 10 11  2  0
 12 13  1  0
 13 23  2  0
 13 14  1  0
 14 15  2  0
 15 16  1  0
 16 17  1  0
 18 17  1  6
 19 18  1  0
 20 18  1  0
 20 24  1  0
 21 20  2  0
 22 16  2  0
 23 22  1  0
 25 26  1  6
 25 31  1  0
 25 24  1  0
 26 27  1  0
 27 28  1  0
 28 29  1  0
 29 30  1  0
 31 33  1  0
 32 31  2  0
M  END
$$$$
