RYK.pdb
     RDKit          3D

 33 33  0  0  1  0  0  0  0  0999 V2000
   12.7757  -19.1234   18.2049 N   0  0  0  0  0  0  0  0  0  0  0  0
   12.5573  -20.5147   18.4361 C   0  0  0  0  0  0  0  0  0  0  0  0
   13.5273  -21.3043   18.1934 N   0  0  0  0  0  0  0  0  0  0  0  0
   11.3252  -21.0176   18.9124 N   0  0  0  0  0  0  0  0  0  0  0  0
   10.1230  -20.1593   18.9077 C   0  0  0  0  0  0  0  0  0  0  0  0
    9.8820  -19.6157   20.2663 C   0  0  0  0  0  0  0  0  0  0  0  0
    8.5910  -18.8993   20.4132 C   0  0  0  0  0  0  0  0  0  0  0  0
    8.6581  -17.4617   20.0604 C   0  0  2  0  0  0  0  0  0  0  0  0
    9.7632  -17.1902   19.1575 N   0  0  0  0  0  0  0  0  0  0  0  0
    8.9093  -16.6536   21.3132 C   0  0  0  0  0  0  0  0  0  0  0  0
    9.9536  -16.7826   21.9705 O   0  0  0  0  0  0  0  0  0  0  0  0
   13.4346  -22.3241   18.2826 O   0  0  0  0  0  0  0  0  0  0  0  0
    7.6171  -11.1992   28.1353 C   0  0  0  0  0  0  0  0  0  0  0  0
    7.4846  -11.8537   26.8963 C   0  0  0  0  0  0  0  0  0  0  0  0
    6.4651  -12.7509   26.6692 C   0  0  0  0  0  0  0  0  0  0  0  0
    6.3495  -13.3809   25.4550 C   0  0  0  0  0  0  0  0  0  0  0  0
    7.2256  -13.1618   24.4080 C   0  0  0  0  0  0  0  0  0  0  0  0
    7.0512  -13.8690   23.1123 C   0  0  1  0  0  0  0  0  0  0  0  0
    8.0114  -14.9783   22.9486 N   0  0  0  0  0  0  0  0  0  0  0  0
    7.9311  -15.7393   21.7339 C   0  0  0  0  0  0  0  0  0  0  0  0
    8.0083  -15.8997   24.1137 O   0  0  0  0  0  0  0  0  0  0  0  0
    7.0148  -16.6796   24.3081 C   0  0  0  0  0  0  0  0  0  0  0  0
    8.2442  -12.2610   24.6456 C   0  0  0  0  0  0  0  0  0  0  0  0
    8.3710  -11.6192   25.8665 N   0  0  0  0  0  0  0  0  0  0  0  0
    9.0503  -15.9795   25.0486 C   0  0  2  0  0  0  0  0  0  0  0  0
    9.0244  -16.9515   26.1876 C   0  0  0  0  0  0  0  0  0  0  0  0
    9.9060  -18.0609   25.7457 C   0  0  0  0  0  0  0  0  0  0  0  0
   10.2174  -19.2083   26.5651 C   0  0  0  0  0  0  0  0  0  0  0  0
   11.0896  -20.3273   26.2476 C   0  0  0  0  0  0  0  0  0  0  0  0
   11.3490  -21.4427   27.1592 N   0  0  0  0  0  0  0  0  0  0  0  0
   11.5872  -22.7305   26.6279 C   0  0  0  0  0  0  0  0  0  0  0  0
    9.6468  -16.3278   27.3836 O   0  0  0  0  0  0  0  0  0  0  0  0
   10.4478  -15.3788   27.1921 O   0  0  0  0  0  0  0  0  0  0  0  0
  2  3  2  0
  2  1  1  0
  4  2  1  0
  5  4  1  0
  6  5  1  0
  7  6  1  0
  8  7  1  0
  8 10  1  0
  8  9  1  6
 10 19  1  0
 10 11  2  0
 12 13  1  0
 13 23  2  0
 13 14  1  0
 14 15  2  0
 15 16  1  0
 16 17  1  0
 18 17  1  6
 19 18  1  0
 20 18  1  0
 20 24  1  0
 21 20  2  0
 22 16  2  0
 23 22  1  0
 25 26  1  6
 25 31  1  0
 25 24  1  0
 26 27  1  0
 27 28  1  0
 28 29  1  0
 29 30  1  0
 31 33  1  0
 32 31  2  0
M  END
$$$$
