RYK.pdb
     RDKit          3D

 33 33  0  0  1  0  0  0  0  0999 V2000
    7.9857  -19.2281   19.7848 N   0  0  0  0  0  0  0  0  0  0  0  0
    8.2347  -19.1490   18.3817 C   0  0  0  0  0  0  0  0  0  0  0  0
    7.8839  -20.1467   17.6712 N   0  0  0  0  0  0  0  0  0  0  0  0
    8.8443  -18.0223   17.7844 N   0  0  0  0  0  0  0  0  0  0  0  0
    9.1080  -16.8102   18.5865 C   0  0  0  0  0  0  0  0  0  0  0  0
    7.8364  -16.1010   18.8680 C   0  0  0  0  0  0  0  0  0  0  0  0
    7.3464  -16.2622   20.2591 C   0  0  0  0  0  0  0  0  0  0  0  0
    7.1533  -14.9823   20.9802 C   0  0  2  0  0  0  0  0  0  0  0  0
    7.6633  -13.8603   20.2111 N   0  0  0  0  0  0  0  0  0  0  0  0
    7.9363  -15.0171   22.2731 C   0  0  0  0  0  0  0  0  0  0  0  0
    9.1260  -14.6686   22.3212 O   0  0  0  0  0  0  0  0  0  0  0  0
    7.9884  -20.1505   16.6488 O   0  0  0  0  0  0  0  0  0  0  0  0
    6.6918   -9.5960   26.7775 C   0  0  0  0  0  0  0  0  0  0  0  0
    6.7885  -10.9830   26.5589 C   0  0  0  0  0  0  0  0  0  0  0  0
    7.8827  -11.6985   26.9906 C   0  0  0  0  0  0  0  0  0  0  0  0
    7.9618  -13.0511   26.7697 C   0  0  0  0  0  0  0  0  0  0  0  0
    6.9741  -13.7650   26.1167 C   0  0  0  0  0  0  0  0  0  0  0  0
    7.1096  -15.2304   25.9076 C   0  0  2  0  0  0  0  0  0  0  0  0
    7.9300  -15.5513   24.7229 N   0  0  0  0  0  0  0  0  0  0  0  0
    7.2924  -15.4565   23.4402 C   0  0  0  0  0  0  0  0  0  0  0  0
    8.6034  -16.8695   24.8472 O   0  0  0  0  0  0  0  0  0  0  0  0
    7.9361  -17.9458   24.6761 C   0  0  0  0  0  0  0  0  0  0  0  0
    5.8814  -13.0389   25.6875 C   0  0  0  0  0  0  0  0  0  0  0  0
    5.7904  -11.6739   25.9047 N   0  0  0  0  0  0  0  0  0  0  0  0
    9.9638  -17.0258   25.1491 C   0  0  1  0  0  0  0  0  0  0  0  0
   10.5679  -18.3677   25.4272 C   0  0  0  0  0  0  0  0  0  0  0  0
   11.8685  -18.3418   24.7124 C   0  0  0  0  0  0  0  0  0  0  0  0
   11.9886  -18.3049   23.2740 C   0  0  0  0  0  0  0  0  0  0  0  0
   13.2015  -18.3477   22.4735 C   0  0  0  0  0  0  0  0  0  0  0  0
   13.2174  -18.2608   21.0125 N   0  0  0  0  0  0  0  0  0  0  0  0
   14.4567  -18.2220   20.3344 C   0  0  0  0  0  0  0  0  0  0  0  0
   10.8523  -18.4899   26.8801 O   0  0  0  0  0  0  0  0  0  0  0  0
   10.7073  -17.4618   27.5879 O   0  0  0  0  0  0  0  0  0  0  0  0
  2  3  2  0
  2  1  1  0
  4  2  1  0
  5  4  1  0
  6  5  1  0
  7  6  1  0
  8  7  1  0
  8 10  1  0
  8  9  1  6
 10 19  1  0
 10 11  2  0
 12 13  1  0
 13 23  2  0
 13 14  1  0
 14 15  2  0
 15 16  1  0
 16 17  1  0
 18 17  1  6
 19 18  1  0
 20 18  1  0
 20 24  1  0
 21 20  2  0
 22 16  2  0
 23 22  1  0
 25 26  1  6
 25 31  1  0
 25 24  1  0
 26 27  1  0
 27 28  1  0
 28 29  1  0
 29 30  1  0
 31 33  1  0
 32 31  2  0
M  END
$$$$
