RYK.pdb
     RDKit          3D

 33 33  0  0  1  0  0  0  0  0999 V2000
    9.6212  -14.0735   16.2429 N   0  0  0  0  0  0  0  0  0  0  0  0
    8.3848  -13.8930   16.9328 C   0  0  0  0  0  0  0  0  0  0  0  0
    8.0571  -12.7000   17.2372 N   0  0  0  0  0  0  0  0  0  0  0  0
    7.5448  -14.9769   17.2749 N   0  0  0  0  0  0  0  0  0  0  0  0
    7.4169  -15.3992   18.6847 C   0  0  0  0  0  0  0  0  0  0  0  0
    7.6744  -14.2488   19.5845 C   0  0  0  0  0  0  0  0  0  0  0  0
    7.3907  -14.5217   21.0150 C   0  0  0  0  0  0  0  0  0  0  0  0
    7.9241  -15.8174   21.4969 C   0  0  2  0  0  0  0  0  0  0  0  0
    6.8913  -16.8388   21.5188 N   0  0  0  0  0  0  0  0  0  0  0  0
    8.4095  -15.6568   22.9197 C   0  0  0  0  0  0  0  0  0  0  0  0
    9.3721  -14.9255   23.1986 O   0  0  0  0  0  0  0  0  0  0  0  0
    7.1642  -12.4812   17.6968 O   0  0  0  0  0  0  0  0  0  0  0  0
    6.5235  -10.0754   26.2462 C   0  0  0  0  0  0  0  0  0  0  0  0
    6.6511  -11.4771   26.2493 C   0  0  0  0  0  0  0  0  0  0  0  0
    5.6529  -12.2852   25.7532 C   0  0  0  0  0  0  0  0  0  0  0  0
    5.7928  -13.6509   25.7632 C   0  0  0  0  0  0  0  0  0  0  0  0
    6.9155  -14.2877   26.2587 C   0  0  0  0  0  0  0  0  0  0  0  0
    7.0161  -15.7706   26.2415 C   0  0  2  0  0  0  0  0  0  0  0  0
    8.0785  -16.2472   25.3340 N   0  0  0  0  0  0  0  0  0  0  0  0
    7.7488  -16.3568   23.9411 C   0  0  0  0  0  0  0  0  0  0  0  0
    8.6878  -17.5185   25.8022 O   0  0  0  0  0  0  0  0  0  0  0  0
    8.0417  -18.6153   25.6898 C   0  0  0  0  0  0  0  0  0  0  0  0
    7.9106  -13.4691   26.7539 C   0  0  0  0  0  0  0  0  0  0  0  0
    7.7807  -12.0900   26.7491 N   0  0  0  0  0  0  0  0  0  0  0  0
    9.9630  -17.6072   26.3786 C   0  0  2  0  0  0  0  0  0  0  0  0
   10.5106  -18.8985   26.9036 C   0  0  0  0  0  0  0  0  0  0  0  0
   11.7791  -19.0915   26.1575 C   0  0  0  0  0  0  0  0  0  0  0  0
   12.6798  -20.1966   26.3862 C   0  0  0  0  0  0  0  0  0  0  0  0
   13.9492  -20.4696   25.7320 C   0  0  0  0  0  0  0  0  0  0  0  0
   14.8090  -21.6067   26.0635 N   0  0  0  0  0  0  0  0  0  0  0  0
   16.0892  -21.7027   25.4723 C   0  0  0  0  0  0  0  0  0  0  0  0
   10.8503  -18.7428   28.3413 O   0  0  0  0  0  0  0  0  0  0  0  0
   10.9320  -17.5737   28.7946 O   0  0  0  0  0  0  0  0  0  0  0  0
  2  3  2  0
  2  1  1  0
  4  2  1  0
  5  4  1  0
  6  5  1  0
  7  6  1  0
  8  7  1  0
  8 10  1  0
  8  9  1  1
 10 19  1  0
 10 11  2  0
 12 13  1  0
 13 23  2  0
 13 14  1  0
 14 15  2  0
 15 16  1  0
 16 17  1  0
 18 17  1  6
 19 18  1  0
 20 18  1  0
 20 24  1  0
 21 20  2  0
 22 16  2  0
 23 22  1  0
 25 26  1  6
 25 31  1  0
 25 24  1  0
 26 27  1  0
 27 28  1  0
 28 29  1  0
 29 30  1  0
 31 33  1  0
 32 31  2  0
M  END
$$$$
