RYK.pdb
     RDKit          3D

 33 33  0  0  1  0  0  0  0  0999 V2000
    7.2728  -13.7283   14.9055 N   0  0  0  0  0  0  0  0  0  0  0  0
    7.6557  -13.3964   16.2399 C   0  0  0  0  0  0  0  0  0  0  0  0
    7.2409  -12.2852   16.7050 N   0  0  0  0  0  0  0  0  0  0  0  0
    8.4610  -14.2485   17.0293 N   0  0  0  0  0  0  0  0  0  0  0  0
    7.8477  -15.3660   17.7757 C   0  0  0  0  0  0  0  0  0  0  0  0
    7.0877  -14.8441   18.9373 C   0  0  0  0  0  0  0  0  0  0  0  0
    6.6122  -15.8931   19.8725 C   0  0  0  0  0  0  0  0  0  0  0  0
    7.6995  -16.5786   20.6097 C   0  0  2  0  0  0  0  0  0  0  0  0
    7.2001  -17.7357   21.3324 N   0  0  0  0  0  0  0  0  0  0  0  0
    8.2731  -15.6339   21.6413 C   0  0  0  0  0  0  0  0  0  0  0  0
    9.0374  -14.7103   21.3219 O   0  0  0  0  0  0  0  0  0  0  0  0
    7.4423  -11.9892   17.6684 O   0  0  0  0  0  0  0  0  0  0  0  0
   10.1839  -14.3877   30.2145 C   0  0  0  0  0  0  0  0  0  0  0  0
    9.5255  -14.4698   28.9732 C   0  0  0  0  0  0  0  0  0  0  0  0
    9.3512  -13.3555   28.1833 C   0  0  0  0  0  0  0  0  0  0  0  0
    8.7070  -13.4523   26.9749 C   0  0  0  0  0  0  0  0  0  0  0  0
    8.2043  -14.6432   26.4844 C   0  0  0  0  0  0  0  0  0  0  0  0
    7.5181  -14.6915   25.1668 C   0  0  1  0  0  0  0  0  0  0  0  0
    8.4456  -15.0212   24.0666 N   0  0  0  0  0  0  0  0  0  0  0  0
    7.9268  -15.8155   22.9891 C   0  0  0  0  0  0  0  0  0  0  0  0
    9.7120  -15.6200   24.5607 O   0  0  0  0  0  0  0  0  0  0  0  0
   10.3865  -15.0268   25.4697 C   0  0  0  0  0  0  0  0  0  0  0  0
    8.3837  -15.7544   27.2836 C   0  0  0  0  0  0  0  0  0  0  0  0
    9.0322  -15.6690   28.5046 N   0  0  0  0  0  0  0  0  0  0  0  0
   10.2405  -16.8293   24.0871 C   0  0  1  0  0  0  0  0  0  0  0  0
   11.5383  -17.3818   24.5908 C   0  0  0  0  0  0  0  0  0  0  0  0
   11.1770  -18.6978   25.1743 C   0  0  0  0  0  0  0  0  0  0  0  0
   10.6761  -18.8651   26.5181 C   0  0  0  0  0  0  0  0  0  0  0  0
   10.4025  -20.1054   27.2258 C   0  0  0  0  0  0  0  0  0  0  0  0
    9.9407  -20.1673   28.6133 N   0  0  0  0  0  0  0  0  0  0  0  0
    9.6284  -21.4219   29.1840 C   0  0  0  0  0  0  0  0  0  0  0  0
   12.4482  -17.6299   23.4431 O   0  0  0  0  0  0  0  0  0  0  0  0
   11.9387  -18.0775   22.3853 O   0  0  0  0  0  0  0  0  0  0  0  0
  2  3  2  0
  2  1  1  0
  4  2  1  0
  5  4  1  0
  6  5  1  0
  7  6  1  0
  8  7  1  0
  8 10  1  0
  8  9  1  1
 10 19  1  0
 10 11  2  0
 12 13  1  0
 13 23  2  0
 13 14  1  0
 14 15  2  0
 15 16  1  0
 16 17  1  0
 18 17  1  6
 19 18  1  0
 20 18  1  0
 20 24  1  0
 21 20  2  0
 22 16  2  0
 23 22  1  0
 25 26  1  1
 25 31  1  0
 25 24  1  0
 26 27  1  0
 27 28  1  0
 28 29  1  0
 29 30  1  0
 31 33  1  0
 32 31  2  0
M  END
$$$$
