RYK.pdb
     RDKit          3D

 33 33  0  0  1  0  0  0  0  0999 V2000
    8.0262  -22.4700   14.6587 N   0  0  0  0  0  0  0  0  0  0  0  0
    8.3871  -23.1085   15.8831 C   0  0  0  0  0  0  0  0  0  0  0  0
    8.5913  -24.3655   15.8458 N   0  0  0  0  0  0  0  0  0  0  0  0
    8.5170  -22.3966   17.0973 N   0  0  0  0  0  0  0  0  0  0  0  0
    8.1112  -20.9781   17.1716 C   0  0  0  0  0  0  0  0  0  0  0  0
    9.2658  -20.1026   16.8559 C   0  0  0  0  0  0  0  0  0  0  0  0
    9.8040  -19.3629   18.0240 C   0  0  0  0  0  0  0  0  0  0  0  0
    8.8993  -18.3066   18.5351 C   0  0  2  0  0  0  0  0  0  0  0  0
    8.6195  -17.3112   17.5147 N   0  0  0  0  0  0  0  0  0  0  0  0
    9.5756  -17.5827   19.6772 C   0  0  0  0  0  0  0  0  0  0  0  0
   10.7398  -17.1647   19.5823 O   0  0  0  0  0  0  0  0  0  0  0  0
    8.8486  -24.9004   16.6850 O   0  0  0  0  0  0  0  0  0  0  0  0
    7.3339  -11.7265   18.3934 C   0  0  0  0  0  0  0  0  0  0  0  0
    7.6358  -12.6595   19.4029 C   0  0  0  0  0  0  0  0  0  0  0  0
    6.6935  -13.5599   19.8470 C   0  0  0  0  0  0  0  0  0  0  0  0
    7.0040  -14.4638   20.8324 C   0  0  0  0  0  0  0  0  0  0  0  0
    8.2501  -14.5281   21.4279 C   0  0  0  0  0  0  0  0  0  0  0  0
    8.5330  -15.5302   22.4887 C   0  0  2  0  0  0  0  0  0  0  0  0
    9.3613  -16.6476   21.9938 N   0  0  0  0  0  0  0  0  0  0  0  0
    8.8605  -17.3850   20.8685 C   0  0  0  0  0  0  0  0  0  0  0  0
    9.7376  -17.5902   23.0784 O   0  0  0  0  0  0  0  0  0  0  0  0
    8.8674  -18.3963   23.5539 C   0  0  0  0  0  0  0  0  0  0  0  0
    9.1877  -13.6214   20.9762 C   0  0  0  0  0  0  0  0  0  0  0  0
    8.8862  -12.7047   19.9825 N   0  0  0  0  0  0  0  0  0  0  0  0
   11.0209  -17.6633   23.6388 C   0  0  2  0  0  0  0  0  0  0  0  0
   11.3640  -18.6463   24.7153 C   0  0  0  0  0  0  0  0  0  0  0  0
   12.7530  -19.0659   24.4024 C   0  0  0  0  0  0  0  0  0  0  0  0
   13.5237  -19.9599   25.2340 C   0  0  0  0  0  0  0  0  0  0  0  0
   14.9185  -20.3430   25.0873 C   0  0  0  0  0  0  0  0  0  0  0  0
   15.6040  -21.2811   25.9773 N   0  0  0  0  0  0  0  0  0  0  0  0
   16.9112  -21.7115   25.6559 C   0  0  0  0  0  0  0  0  0  0  0  0
   11.3858  -17.9528   26.0288 O   0  0  0  0  0  0  0  0  0  0  0  0
   11.3714  -18.6674   27.0622 O   0  0  0  0  0  0  0  0  0  0  0  0
  2  3  2  0
  2  1  1  0
  4  2  1  0
  5  4  1  0
  6  5  1  0
  7  6  1  0
  8  7  1  0
  8 10  1  0
  8  9  1  6
 10 19  1  0
 10 11  2  0
 12 13  1  0
 13 23  2  0
 13 14  1  0
 14 15  2  0
 15 16  1  0
 16 17  1  0
 18 17  1  6
 19 18  1  0
 20 18  1  0
 20 24  1  0
 21 20  2  0
 22 16  2  0
 23 22  1  0
 25 26  1  6
 25 31  1  0
 25 24  1  0
 26 27  1  0
 27 28  1  0
 28 29  1  0
 29 30  1  0
 31 33  1  0
 32 31  2  0
M  END
$$$$
