HCV.pdb
     RDKit          3D

 24 24  0  0  1  0  0  0  0  0999 V2000
    8.2722  -16.5920   19.6536 N   0  0  0  0  0  0  0  0  0  0  0  0
    7.9277  -15.3584   20.2877 C   0  0  1  0  0  0  0  0  0  0  0  0
    6.9526  -14.5557   19.4708 C   0  0  0  0  0  0  0  0  0  0  0  0
    7.5888  -14.2854   18.1580 C   0  0  0  0  0  0  0  0  0  0  0  0
    8.4921  -13.2847   17.8767 C   0  0  0  0  0  0  0  0  0  0  0  0
    8.8364  -13.3674   16.5783 N   0  0  0  0  0  0  0  0  0  0  0  0
    8.1705  -14.3993   16.0308 C   0  0  0  0  0  0  0  0  0  0  0  0
    7.4050  -14.9584   17.0106 N   0  0  0  0  0  0  0  0  0  0  0  0
    7.3966  -15.6112   21.6732 C   0  0  0  0  0  0  0  0  0  0  0  0
    6.2022  -15.3557   21.9306 O   0  0  0  0  0  0  0  0  0  0  0  0
    8.2375  -16.1379   22.6947 N   0  0  0  0  0  0  0  0  0  0  0  0
    7.9293  -16.2692   24.0729 C   0  0  1  0  0  0  0  0  0  0  0  0
    8.3317  -17.5812   24.6746 C   0  0  0  0  0  0  0  0  0  0  0  0
   10.0976  -17.9267   24.4014 S   0  0  0  0  0  0  0  0  0  0  0  0
    8.4331  -15.1630   24.9414 C   0  0  0  0  0  0  0  0  0  0  0  0
    9.5743  -14.6963   24.7355 O   0  0  0  0  0  0  0  0  0  0  0  0
    6.4566  -12.4790   28.3233 C   0  0  0  0  0  0  0  0  0  0  0  0
    7.0938  -12.4178   26.9560 C   0  0  2  0  0  0  0  0  0  0  0  0
    6.0568  -12.4287   25.8512 C   0  0  0  0  0  0  0  0  0  0  0  0
    8.1499  -13.4757   26.7663 C   0  0  2  0  0  0  0  0  0  0  0  0
    7.6641  -14.6105   26.0031 N   0  0  0  0  0  0  0  0  0  0  0  0
    8.5587  -13.9414   28.1106 C   0  0  0  0  0  0  0  0  0  0  0  0
    8.2719  -15.0944   28.4757 O   0  0  0  0  0  0  0  0  0  0  0  0
    9.2529  -13.1096   28.9590 O   0  0  0  0  0  0  0  0  0  0  0  0
  2  1  1  6
  3  2  1  0
  4  3  1  0
  4  5  2  0
  6  5  1  0
  7  8  2  0
  7  6  1  0
  8  4  1  0
  9  2  1  0
 10  9  2  0
 11  9  1  0
 12 11  1  0
 12 15  1  0
 12 13  1  1
 14 13  1  0
 15 21  1  0
 16 15  2  0
 18 17  1  1
 19 18  1  0
 20 18  1  0
 20 22  1  0
 20 21  1  6
 22 23  2  0
 22 24  1  0
M  END
$$$$
