HCV.pdb
     RDKit          3D

 24 24  0  0  1  0  0  0  0  0999 V2000
    8.8326  -15.7210   20.4396 N   0  0  0  0  0  0  0  0  0  0  0  0
    7.8840  -14.8251   21.0226 C   0  0  1  0  0  0  0  0  0  0  0  0
    6.7633  -14.4935   20.0757 C   0  0  0  0  0  0  0  0  0  0  0  0
    7.3718  -13.9251   18.8478 C   0  0  0  0  0  0  0  0  0  0  0  0
    8.3250  -12.9328   18.7906 C   0  0  0  0  0  0  0  0  0  0  0  0
    8.6214  -12.6938   17.4998 N   0  0  0  0  0  0  0  0  0  0  0  0
    7.8762  -13.5136   16.7377 C   0  0  0  0  0  0  0  0  0  0  0  0
    7.1101  -14.2678   17.5761 N   0  0  0  0  0  0  0  0  0  0  0  0
    7.3550  -15.3889   22.3141 C   0  0  0  0  0  0  0  0  0  0  0  0
    6.1426  -15.6695   22.4123 O   0  0  0  0  0  0  0  0  0  0  0  0
    8.2181  -15.6069   23.4257 N   0  0  0  0  0  0  0  0  0  0  0  0
    7.9007  -16.2728   24.6370 C   0  0  1  0  0  0  0  0  0  0  0  0
    7.2682  -17.6191   24.4555 C   0  0  0  0  0  0  0  0  0  0  0  0
    6.9787  -18.4408   26.0534 S   0  0  0  0  0  0  0  0  0  0  0  0
    9.0311  -16.3952   25.6059 C   0  0  0  0  0  0  0  0  0  0  0  0
   10.0739  -16.9891   25.2559 O   0  0  0  0  0  0  0  0  0  0  0  0
    9.0340  -14.6660   29.6897 C   0  0  0  0  0  0  0  0  0  0  0  0
   10.1504  -14.6007   28.6754 C   0  0  2  0  0  0  0  0  0  0  0  0
   10.1489  -13.2865   27.9211 C   0  0  0  0  0  0  0  0  0  0  0  0
   10.1610  -15.7940   27.7552 C   0  0  2  0  0  0  0  0  0  0  0  0
    8.9740  -15.8602   26.9229 N   0  0  0  0  0  0  0  0  0  0  0  0
   10.2218  -17.0069   28.6013 C   0  0  0  0  0  0  0  0  0  0  0  0
    9.2425  -17.7707   28.6528 O   0  0  0  0  0  0  0  0  0  0  0  0
   11.3522  -17.2962   29.3310 O   0  0  0  0  0  0  0  0  0  0  0  0
  2  1  1  6
  3  2  1  0
  4  3  1  0
  4  5  2  0
  6  5  1  0
  7  8  2  0
  7  6  1  0
  8  4  1  0
  9  2  1  0
 10  9  2  0
 11  9  1  0
 12 11  1  0
 12 15  1  0
 12 13  1  6
 14 13  1  0
 15 21  1  0
 16 15  2  0
 18 17  1  6
 19 18  1  0
 20 18  1  0
 20 22  1  0
 20 21  1  1
 22 23  2  0
 22 24  1  0
M  END
$$$$
