HCV.pdb
     RDKit          3D

 24 24  0  0  1  0  0  0  0  0999 V2000
    6.4243  -16.2801   20.0591 N   0  0  0  0  0  0  0  0  0  0  0  0
    7.3054  -15.4246   20.7899 C   0  0  1  0  0  0  0  0  0  0  0  0
    7.1544  -13.9825   20.3896 C   0  0  0  0  0  0  0  0  0  0  0  0
    7.6696  -13.8490   19.0047 C   0  0  0  0  0  0  0  0  0  0  0  0
    8.9585  -14.0900   18.5840 C   0  0  0  0  0  0  0  0  0  0  0  0
    9.0304  -13.8579   17.2603 N   0  0  0  0  0  0  0  0  0  0  0  0
    7.8143  -13.4750   16.8331 C   0  0  0  0  0  0  0  0  0  0  0  0
    6.9831  -13.4724   17.9137 N   0  0  0  0  0  0  0  0  0  0  0  0
    7.1000  -15.6015   22.2705 C   0  0  0  0  0  0  0  0  0  0  0  0
    6.2852  -14.8706   22.8705 O   0  0  0  0  0  0  0  0  0  0  0  0
    7.8221  -16.5911   22.9966 N   0  0  0  0  0  0  0  0  0  0  0  0
    7.7397  -16.8620   24.3863 C   0  0  1  0  0  0  0  0  0  0  0  0
    7.4832  -18.2997   24.7223 C   0  0  0  0  0  0  0  0  0  0  0  0
    7.2183  -18.5303   26.5081 S   0  0  0  0  0  0  0  0  0  0  0  0
    8.8974  -16.3746   25.1950 C   0  0  0  0  0  0  0  0  0  0  0  0
   10.0538  -16.7329   24.8836 O   0  0  0  0  0  0  0  0  0  0  0  0
    8.6000  -14.0538   28.9990 C   0  0  0  0  0  0  0  0  0  0  0  0
    9.6332  -13.8710   27.9135 C   0  0  2  0  0  0  0  0  0  0  0  0
    9.3055  -12.6938   27.0175 C   0  0  0  0  0  0  0  0  0  0  0  0
    9.8790  -15.1376   27.1350 C   0  0  2  0  0  0  0  0  0  0  0  0
    8.7415  -15.5114   26.3150 N   0  0  0  0  0  0  0  0  0  0  0  0
   10.1402  -16.2169   28.1137 C   0  0  0  0  0  0  0  0  0  0  0  0
    9.3021  -17.1215   28.2701 O   0  0  0  0  0  0  0  0  0  0  0  0
   11.3018  -16.2277   28.8514 O   0  0  0  0  0  0  0  0  0  0  0  0
  2  1  1  6
  3  2  1  0
  4  3  1  0
  4  5  2  0
  6  5  1  0
  7  8  2  0
  7  6  1  0
  8  4  1  0
  9  2  1  0
 10  9  2  0
 11  9  1  0
 12 11  1  0
 12 15  1  0
 12 13  1  6
 14 13  1  0
 15 21  1  0
 16 15  2  0
 18 17  1  1
 19 18  1  0
 20 18  1  0
 20 22  1  0
 20 21  1  1
 22 23  2  0
 22 24  1  0
M  END
$$$$
