HCV.pdb
     RDKit          3D

 24 24  0  0  1  0  0  0  0  0999 V2000
    9.9418  -13.7215   20.5504 N   0  0  0  0  0  0  0  0  0  0  0  0
    8.6805  -13.9675   21.1755 C   0  0  1  0  0  0  0  0  0  0  0  0
    8.0524  -15.2478   20.6970 C   0  0  0  0  0  0  0  0  0  0  0  0
    7.7214  -15.0715   19.2615 C   0  0  0  0  0  0  0  0  0  0  0  0
    7.4310  -13.8835   18.6284 C   0  0  0  0  0  0  0  0  0  0  0  0
    7.1851  -14.1361   17.3296 N   0  0  0  0  0  0  0  0  0  0  0  0
    7.3136  -15.4591   17.1262 C   0  0  0  0  0  0  0  0  0  0  0  0
    7.6438  -16.0267   18.3209 N   0  0  0  0  0  0  0  0  0  0  0  0
    8.8274  -13.9615   22.6736 C   0  0  0  0  0  0  0  0  0  0  0  0
    9.9000  -14.3394   23.1884 O   0  0  0  0  0  0  0  0  0  0  0  0
    7.7599  -13.5307   23.5121 N   0  0  0  0  0  0  0  0  0  0  0  0
    7.7565  -13.4705   24.9290 C   0  0  1  0  0  0  0  0  0  0  0  0
    6.4228  -13.1483   25.5314 C   0  0  0  0  0  0  0  0  0  0  0  0
    6.5446  -12.9067   27.3311 S   0  0  0  0  0  0  0  0  0  0  0  0
    8.3199  -14.6725   25.6141 C   0  0  0  0  0  0  0  0  0  0  0  0
    7.9330  -15.8099   25.2684 O   0  0  0  0  0  0  0  0  0  0  0  0
   10.9298  -14.5650   29.1551 C   0  0  0  0  0  0  0  0  0  0  0  0
   11.1659  -15.4665   27.9673 C   0  0  2  0  0  0  0  0  0  0  0  0
   12.2597  -14.9327   27.0648 C   0  0  0  0  0  0  0  0  0  0  0  0
    9.8958  -15.7716   27.2161 C   0  0  2  0  0  0  0  0  0  0  0  0
    9.2875  -14.5803   26.6529 N   0  0  0  0  0  0  0  0  0  0  0  0
    8.9496  -16.3861   28.1743 C   0  0  0  0  0  0  0  0  0  0  0  0
    7.9020  -15.7877   28.4738 O   0  0  0  0  0  0  0  0  0  0  0  0
    9.2193  -17.6130   28.7360 O   0  0  0  0  0  0  0  0  0  0  0  0
  2  1  1  6
  3  2  1  0
  4  3  1  0
  4  5  2  0
  6  5  1  0
  7  8  2  0
  7  6  1  0
  8  4  1  0
  9  2  1  0
 10  9  2  0
 11  9  1  0
 12 11  1  0
 12 15  1  0
 12 13  1  1
 14 13  1  0
 15 21  1  0
 16 15  2  0
 18 17  1  1
 19 18  1  0
 20 18  1  0
 20 22  1  0
 20 21  1  1
 22 23  2  0
 22 24  1  0
M  END
$$$$
