HCV.pdb
     RDKit          3D

 24 24  0  0  1  0  0  0  0  0999 V2000
    8.4333  -18.4445   20.1728 N   0  0  0  0  0  0  0  0  0  0  0  0
    7.8204  -17.1667   19.9887 C   0  0  1  0  0  0  0  0  0  0  0  0
    6.9796  -17.1171   18.7424 C   0  0  0  0  0  0  0  0  0  0  0  0
    7.9041  -17.1118   17.5821 C   0  0  0  0  0  0  0  0  0  0  0  0
    9.2802  -17.0917   17.6320 C   0  0  0  0  0  0  0  0  0  0  0  0
    9.7572  -17.0934   16.3736 N   0  0  0  0  0  0  0  0  0  0  0  0
    8.7126  -17.1141   15.5271 C   0  0  0  0  0  0  0  0  0  0  0  0
    7.5761  -17.1253   16.2800 N   0  0  0  0  0  0  0  0  0  0  0  0
    7.0139  -16.7919   21.2032 C   0  0  0  0  0  0  0  0  0  0  0  0
    5.8134  -16.4762   21.0713 O   0  0  0  0  0  0  0  0  0  0  0  0
    7.6012  -16.7923   22.5005 N   0  0  0  0  0  0  0  0  0  0  0  0
    6.9803  -16.4204   23.7202 C   0  0  1  0  0  0  0  0  0  0  0  0
    6.5463  -17.5752   24.5709 C   0  0  0  0  0  0  0  0  0  0  0  0
    7.9736  -18.5066   25.2094 S   0  0  0  0  0  0  0  0  0  0  0  0
    7.7621  -15.4654   24.5620 C   0  0  0  0  0  0  0  0  0  0  0  0
    9.0110  -15.5157   24.5429 O   0  0  0  0  0  0  0  0  0  0  0  0
    5.9432  -12.4775   27.2380 C   0  0  0  0  0  0  0  0  0  0  0  0
    7.1974  -12.2612   26.4260 C   0  0  2  0  0  0  0  0  0  0  0  0
    6.9195  -11.4761   25.1601 C   0  0  0  0  0  0  0  0  0  0  0  0
    7.9367  -13.5464   26.1571 C   0  0  2  0  0  0  0  0  0  0  0  0
    7.1428  -14.4907   25.3928 N   0  0  0  0  0  0  0  0  0  0  0  0
    8.2698  -14.1497   27.4671 C   0  0  0  0  0  0  0  0  0  0  0  0
    7.7395  -15.2226   27.8029 O   0  0  0  0  0  0  0  0  0  0  0  0
    9.1608  -13.5336   28.3158 O   0  0  0  0  0  0  0  0  0  0  0  0
  2  1  1  1
  3  2  1  0
  4  3  1  0
  4  5  2  0
  6  5  1  0
  7  8  2  0
  7  6  1  0
  8  4  1  0
  9  2  1  0
 10  9  2  0
 11  9  1  0
 12 11  1  0
 12 15  1  0
 12 13  1  1
 14 13  1  0
 15 21  1  0
 16 15  2  0
 18 17  1  6
 19 18  1  0
 20 18  1  0
 20 22  1  0
 20 21  1  6
 22 23  2  0
 22 24  1  0
M  END
$$$$
