HCV.pdb
     RDKit          3D

 24 24  0  0  1  0  0  0  0  0999 V2000
   10.1886  -14.2523   20.7944 N   0  0  0  0  0  0  0  0  0  0  0  0
    8.9129  -14.1056   21.4216 C   0  0  1  0  0  0  0  0  0  0  0  0
    7.8976  -15.0688   20.8703 C   0  0  0  0  0  0  0  0  0  0  0  0
    7.5088  -14.5828   19.5235 C   0  0  0  0  0  0  0  0  0  0  0  0
    7.9899  -13.4597   18.8883 C   0  0  0  0  0  0  0  0  0  0  0  0
    7.3958  -13.3573   17.6850 N   0  0  0  0  0  0  0  0  0  0  0  0
    6.5483  -14.3918   17.5443 C   0  0  0  0  0  0  0  0  0  0  0  0
    6.6246  -15.1408   18.6808 N   0  0  0  0  0  0  0  0  0  0  0  0
    9.0427  -14.2488   22.9144 C   0  0  0  0  0  0  0  0  0  0  0  0
    9.9558  -14.9563   23.3877 O   0  0  0  0  0  0  0  0  0  0  0  0
    8.1386  -13.5886   23.7945 N   0  0  0  0  0  0  0  0  0  0  0  0
    8.1410  -13.6307   25.2122 C   0  0  1  0  0  0  0  0  0  0  0  0
    7.0849  -12.7862   25.8581 C   0  0  0  0  0  0  0  0  0  0  0  0
    7.1586  -12.8988   27.6730 S   0  0  0  0  0  0  0  0  0  0  0  0
    8.0942  -15.0016   25.8039 C   0  0  0  0  0  0  0  0  0  0  0  0
    7.0369  -15.6641   25.7271 O   0  0  0  0  0  0  0  0  0  0  0  0
   11.5796  -17.3885   26.5704 C   0  0  0  0  0  0  0  0  0  0  0  0
   10.1641  -17.8555   26.3306 C   0  0  2  0  0  0  0  0  0  0  0  0
    9.8905  -18.0888   24.8586 C   0  0  0  0  0  0  0  0  0  0  0  0
    9.1440  -16.9496   26.9704 C   0  0  2  0  0  0  0  0  0  0  0  0
    9.2106  -15.5936   26.4573 N   0  0  0  0  0  0  0  0  0  0  0  0
    9.4204  -16.9263   28.4244 C   0  0  0  0  0  0  0  0  0  0  0  0
    9.7482  -15.8592   28.9712 O   0  0  0  0  0  0  0  0  0  0  0  0
    9.3177  -18.0747   29.1755 O   0  0  0  0  0  0  0  0  0  0  0  0
  2  1  1  6
  3  2  1  0
  4  3  1  0
  4  5  2  0
  6  5  1  0
  7  8  2  0
  7  6  1  0
  8  4  1  0
  9  2  1  0
 10  9  2  0
 11  9  1  0
 12 11  1  0
 12 15  1  0
 12 13  1  1
 14 13  1  0
 15 21  1  0
 16 15  2  0
 18 17  1  6
 19 18  1  0
 20 18  1  0
 20 22  1  0
 20 21  1  6
 22 23  2  0
 22 24  1  0
M  END
$$$$
