HCV.pdb
     RDKit          3D

 24 24  0  0  1  0  0  0  0  0999 V2000
    8.2724  -18.4533   20.8057 N   0  0  0  0  0  0  0  0  0  0  0  0
    8.3566  -17.0359   20.9674 C   0  0  1  0  0  0  0  0  0  0  0  0
    7.6000  -16.2987   19.8966 C   0  0  0  0  0  0  0  0  0  0  0  0
    8.2775  -16.5717   18.6052 C   0  0  0  0  0  0  0  0  0  0  0  0
    9.6258  -16.4594   18.3484 C   0  0  0  0  0  0  0  0  0  0  0  0
    9.8491  -16.7928   17.0638 N   0  0  0  0  0  0  0  0  0  0  0  0
    8.6708  -17.1139   16.5010 C   0  0  0  0  0  0  0  0  0  0  0  0
    7.7092  -16.9749   17.4572 N   0  0  0  0  0  0  0  0  0  0  0  0
    7.8844  -16.6355   22.3395 C   0  0  0  0  0  0  0  0  0  0  0  0
    6.9978  -15.7645   22.4554 O   0  0  0  0  0  0  0  0  0  0  0  0
    8.4350  -17.2364   23.5073 N   0  0  0  0  0  0  0  0  0  0  0  0
    8.1271  -16.9237   24.8560 C   0  0  1  0  0  0  0  0  0  0  0  0
    7.2550  -17.9314   25.5412 C   0  0  0  0  0  0  0  0  0  0  0  0
    6.5938  -19.1515   24.3639 S   0  0  0  0  0  0  0  0  0  0  0  0
    9.3087  -16.6358   25.7236 C   0  0  0  0  0  0  0  0  0  0  0  0
   10.3807  -17.2448   25.5172 O   0  0  0  0  0  0  0  0  0  0  0  0
    9.3802  -14.0962   29.4379 C   0  0  0  0  0  0  0  0  0  0  0  0
   10.3693  -14.0948   28.2972 C   0  0  2  0  0  0  0  0  0  0  0  0
   10.1193  -12.9492   27.3374 C   0  0  0  0  0  0  0  0  0  0  0  0
   10.4419  -15.4277   27.5981 C   0  0  2  0  0  0  0  0  0  0  0  0
    9.2686  -15.6895   26.7850 N   0  0  0  0  0  0  0  0  0  0  0  0
   10.5447  -16.4719   28.6421 C   0  0  0  0  0  0  0  0  0  0  0  0
    9.5837  -17.2329   28.8477 O   0  0  0  0  0  0  0  0  0  0  0  0
   11.6941  -16.6074   29.3865 O   0  0  0  0  0  0  0  0  0  0  0  0
  2  1  1  6
  3  2  1  0
  4  3  1  0
  4  5  2  0
  6  5  1  0
  7  8  2  0
  7  6  1  0
  8  4  1  0
  9  2  1  0
 10  9  2  0
 11  9  1  0
 12 11  1  0
 12 15  1  0
 12 13  1  1
 14 13  1  0
 15 21  1  0
 16 15  2  0
 18 17  1  1
 19 18  1  0
 20 18  1  0
 20 22  1  0
 20 21  1  1
 22 23  2  0
 22 24  1  0
M  END
$$$$
