HCV.pdb
     RDKit          3D

 24 24  0  0  1  0  0  0  0  0999 V2000
    9.0686  -17.7837   15.8754 N   0  0  0  0  0  0  0  0  0  0  0  0
    8.1157  -17.4395   16.8832 C   0  0  1  0  0  0  0  0  0  0  0  0
    7.3465  -18.6380   17.3673 C   0  0  0  0  0  0  0  0  0  0  0  0
    6.3978  -19.0214   16.2930 C   0  0  0  0  0  0  0  0  0  0  0  0
    6.2210  -18.3770   15.0888 C   0  0  0  0  0  0  0  0  0  0  0  0
    5.2729  -19.0259   14.3879 N   0  0  0  0  0  0  0  0  0  0  0  0
    4.8451  -20.0678   15.1224 C   0  0  0  0  0  0  0  0  0  0  0  0
    5.5431  -20.0571   16.2934 N   0  0  0  0  0  0  0  0  0  0  0  0
    8.7931  -16.7312   18.0257 C   0  0  0  0  0  0  0  0  0  0  0  0
    9.9098  -17.1265   18.4194 O   0  0  0  0  0  0  0  0  0  0  0  0
    8.1781  -15.6165   18.6638 N   0  0  0  0  0  0  0  0  0  0  0  0
    8.6487  -14.9176   19.8047 C   0  0  1  0  0  0  0  0  0  0  0  0
    7.8569  -13.6933   20.1504 C   0  0  0  0  0  0  0  0  0  0  0  0
    7.4744  -12.7063   18.6699 S   0  0  0  0  0  0  0  0  0  0  0  0
    8.8129  -15.7513   21.0334 C   0  0  0  0  0  0  0  0  0  0  0  0
    7.8071  -16.2880   21.5462 O   0  0  0  0  0  0  0  0  0  0  0  0
   12.4358  -17.7113   22.0663 C   0  0  0  0  0  0  0  0  0  0  0  0
   11.0351  -18.0592   22.5095 C   0  0  2  0  0  0  0  0  0  0  0  0
   10.3546  -19.0002   21.5361 C   0  0  0  0  0  0  0  0  0  0  0  0
   10.2057  -16.8365   22.8054 C   0  0  2  0  0  0  0  0  0  0  0  0
   10.0759  -15.9648   21.6523 N   0  0  0  0  0  0  0  0  0  0  0  0
   10.8806  -16.0946   23.8940 C   0  0  0  0  0  0  0  0  0  0  0  0
   10.8949  -16.5672   25.0436 O   0  0  0  0  0  0  0  0  0  0  0  0
   11.4920  -14.8873   23.6446 O   0  0  0  0  0  0  0  0  0  0  0  0
  2  1  1  6
  3  2  1  0
  4  3  1  0
  4  5  2  0
  6  5  1  0
  7  8  2  0
  7  6  1  0
  8  4  1  0
  9  2  1  0
 10  9  2  0
 11  9  1  0
 12 11  1  0
 12 15  1  0
 12 13  1  1
 14 13  1  0
 15 21  1  0
 16 15  2  0
 18 17  1  6
 19 18  1  0
 20 18  1  0
 20 22  1  0
 20 21  1  6
 22 23  2  0
 22 24  1  0
M  END
$$$$
