HCV.pdb
     RDKit          3D

 24 24  0  0  1  0  0  0  0  0999 V2000
    8.8429  -16.0974   19.5947 N   0  0  0  0  0  0  0  0  0  0  0  0
    8.1241  -15.0059   20.1728 C   0  0  1  0  0  0  0  0  0  0  0  0
    6.9757  -14.5636   19.3079 C   0  0  0  0  0  0  0  0  0  0  0  0
    7.5250  -14.2486   17.9662 C   0  0  0  0  0  0  0  0  0  0  0  0
    8.3313  -13.1803   17.6420 C   0  0  0  0  0  0  0  0  0  0  0  0
    8.6189  -13.2403   16.3286 N   0  0  0  0  0  0  0  0  0  0  0  0
    8.0119  -14.3241   15.8136 C   0  0  0  0  0  0  0  0  0  0  0  0
    7.3409  -14.9385   16.8289 N   0  0  0  0  0  0  0  0  0  0  0  0
    7.6549  -15.3618   21.5581 C   0  0  0  0  0  0  0  0  0  0  0  0
    6.5187  -15.0064   21.9334 O   0  0  0  0  0  0  0  0  0  0  0  0
    8.4891  -16.0983   22.4468 N   0  0  0  0  0  0  0  0  0  0  0  0
    8.2263  -16.4104   23.8051 C   0  0  1  0  0  0  0  0  0  0  0  0
    8.7117  -17.7614   24.2347 C   0  0  0  0  0  0  0  0  0  0  0  0
    8.5443  -17.9897   26.0325 S   0  0  0  0  0  0  0  0  0  0  0  0
    8.6968  -15.3907   24.7904 C   0  0  0  0  0  0  0  0  0  0  0  0
    9.8911  -15.0223   24.7647 O   0  0  0  0  0  0  0  0  0  0  0  0
    5.9988  -13.3662   27.5587 C   0  0  0  0  0  0  0  0  0  0  0  0
    7.2015  -12.7300   26.9045 C   0  0  2  0  0  0  0  0  0  0  0  0
    6.8152  -11.9216   25.6825 C   0  0  0  0  0  0  0  0  0  0  0  0
    8.2930  -13.7276   26.6148 C   0  0  2  0  0  0  0  0  0  0  0  0
    7.8377  -14.8136   25.7664 N   0  0  0  0  0  0  0  0  0  0  0  0
    8.7395  -14.2863   27.9108 C   0  0  0  0  0  0  0  0  0  0  0  0
    9.2868  -13.5444   28.7446 O   0  0  0  0  0  0  0  0  0  0  0  0
    8.5543  -15.6188   28.2003 O   0  0  0  0  0  0  0  0  0  0  0  0
  2  1  1  6
  3  2  1  0
  4  3  1  0
  4  5  2  0
  6  5  1  0
  7  8  2  0
  7  6  1  0
  8  4  1  0
  9  2  1  0
 10  9  2  0
 11  9  1  0
 12 11  1  0
 12 15  1  0
 12 13  1  1
 14 13  1  0
 15 21  1  0
 16 15  2  0
 18 17  1  6
 19 18  1  0
 20 18  1  0
 20 22  1  0
 20 21  1  6
 22 23  2  0
 22 24  1  0
M  END
$$$$
