LLQ.pdb
     RDKit          3D

 26 25  0  0  1  0  0  0  0  0999 V2000
    7.8956  -11.9449   18.8953 C   0  0  0  0  0  0  0  0  0  0  0  0
    7.8947  -13.3339   19.4429 C   0  0  1  0  0  0  0  0  0  0  0  0
    8.4554  -14.3320   18.4439 C   0  0  0  0  0  0  0  0  0  0  0  0
    8.5638  -13.4553   20.7873 C   0  0  0  0  0  0  0  0  0  0  0  0
    8.4830  -14.8428   21.3613 C   0  0  2  0  0  0  0  0  0  0  0  0
    7.1283  -15.2991   21.2655 N   0  0  0  0  0  0  0  0  0  0  0  0
    8.9611  -14.7872   22.7585 C   0  0  0  0  0  0  0  0  0  0  0  0
   10.1749  -14.6182   22.9950 O   0  0  0  0  0  0  0  0  0  0  0  0
    5.8831  -12.4641   26.5650 C   0  0  0  0  0  0  0  0  0  0  0  0
    7.0955  -12.9192   25.7765 C   0  0  1  0  0  0  0  0  0  0  0  0
    8.3137  -12.1424   26.2478 C   0  0  0  0  0  0  0  0  0  0  0  0
    7.3175  -14.3711   26.0760 C   0  0  0  0  0  0  0  0  0  0  0  0
    8.4702  -14.9161   25.2313 C   0  0  2  0  0  0  0  0  0  0  0  0
    8.0615  -14.9230   23.8387 N   0  0  0  0  0  0  0  0  0  0  0  0
    8.7312  -16.3465   25.6039 C   0  0  0  0  0  0  0  0  0  0  0  0
    7.8483  -17.2394   25.5295 O   0  0  0  0  0  0  0  0  0  0  0  0
   13.6436  -19.4983   24.1382 N   0  0  0  0  0  0  0  0  0  0  0  0
   12.5347  -18.9376   23.4704 C   0  0  0  0  0  0  0  0  0  0  0  0
   12.5625  -18.8633   22.2186 O   0  0  0  0  0  0  0  0  0  0  0  0
   11.3382  -18.4324   24.1830 C   0  0  0  0  0  0  0  0  0  0  0  0
   11.4891  -18.6204   25.6624 C   0  0  0  0  0  0  0  0  0  0  0  0
   10.2973  -18.1453   26.4426 C   0  0  2  0  0  0  0  0  0  0  0  0
   10.0230  -16.7495   26.0665 N   0  0  0  0  0  0  0  0  0  0  0  0
   10.5271  -18.1688   27.9045 C   0  0  0  0  0  0  0  0  0  0  0  0
   10.5476  -17.0126   28.6676 O   0  0  0  0  0  0  0  0  0  0  0  0
   10.7117  -19.2620   28.4934 O   0  0  0  0  0  0  0  0  0  0  0  0
  2  1  1  6
  3  2  1  0
  4  5  1  0
  4  2  1  0
  5  6  1  1
  7  8  2  0
  7  5  1  0
 10  9  1  1
 11 10  1  0
 12 10  1  0
 13 12  1  1
 13 14  1  0
 14  7  1  0
 15 16  2  0
 15 13  1  0
 18 17  1  0
 18 19  2  0
 20 21  1  0
 20 18  1  0
 22 21  1  6
 22 23  1  0
 23 15  1  0
 24 22  1  0
 25 24  1  0
 26 24  2  0
M  END
$$$$
