LLQ.pdb
     RDKit          3D

 26 25  0  0  1  0  0  0  0  0999 V2000
    7.6252  -12.3867   18.9451 C   0  0  0  0  0  0  0  0  0  0  0  0
    7.8687  -13.7485   19.5069 C   0  0  1  0  0  0  0  0  0  0  0  0
    8.0346  -14.7872   18.4103 C   0  0  0  0  0  0  0  0  0  0  0  0
    9.0007  -13.8006   20.4997 C   0  0  0  0  0  0  0  0  0  0  0  0
    8.9762  -15.0369   21.3553 C   0  0  2  0  0  0  0  0  0  0  0  0
    7.7194  -15.6984   21.1672 N   0  0  0  0  0  0  0  0  0  0  0  0
    9.1918  -14.6255   22.7581 C   0  0  0  0  0  0  0  0  0  0  0  0
   10.2784  -14.1135   23.0969 O   0  0  0  0  0  0  0  0  0  0  0  0
    7.9292  -12.1171   26.9985 C   0  0  0  0  0  0  0  0  0  0  0  0
    6.9658  -13.2860   26.9333 C   0  0  1  0  0  0  0  0  0  0  0  0
    5.5776  -12.8067   27.3241 C   0  0  0  0  0  0  0  0  0  0  0  0
    6.9178  -13.7605   25.5122 C   0  0  0  0  0  0  0  0  0  0  0  0
    8.2809  -14.3121   25.0915 C   0  0  2  0  0  0  0  0  0  0  0  0
    8.1818  -14.8030   23.7292 N   0  0  0  0  0  0  0  0  0  0  0  0
    8.6266  -15.4972   25.9453 C   0  0  0  0  0  0  0  0  0  0  0  0
    8.5607  -15.4715   27.2012 O   0  0  0  0  0  0  0  0  0  0  0  0
    9.3519  -19.8382   21.7198 N   0  0  0  0  0  0  0  0  0  0  0  0
    9.2712  -20.1097   23.1017 C   0  0  0  0  0  0  0  0  0  0  0  0
    9.6164  -21.2436   23.5119 O   0  0  0  0  0  0  0  0  0  0  0  0
    8.7964  -19.1138   24.0904 C   0  0  0  0  0  0  0  0  0  0  0  0
    9.7435  -19.0306   25.2492 C   0  0  0  0  0  0  0  0  0  0  0  0
    9.4570  -17.8750   26.1642 C   0  0  2  0  0  0  0  0  0  0  0  0
    9.0523  -16.7228   25.3436 N   0  0  0  0  0  0  0  0  0  0  0  0
   10.6425  -17.4610   26.9477 C   0  0  0  0  0  0  0  0  0  0  0  0
   11.0696  -18.1591   28.0655 O   0  0  0  0  0  0  0  0  0  0  0  0
   11.2978  -16.4463   26.6057 O   0  0  0  0  0  0  0  0  0  0  0  0
  2  1  1  6
  3  2  1  0
  4  5  1  0
  4  2  1  0
  5  6  1  1
  7  8  2  0
  7  5  1  0
 10  9  1  6
 11 10  1  0
 12 10  1  0
 13 12  1  1
 13 14  1  0
 14  7  1  0
 15 16  2  0
 15 13  1  0
 18 17  1  0
 18 19  2  0
 20 21  1  0
 20 18  1  0
 22 21  1  6
 22 23  1  0
 23 15  1  0
 24 22  1  0
 25 24  1  0
 26 24  2  0
M  END
$$$$
