LLQ.pdb
     RDKit          3D

 26 25  0  0  1  0  0  0  0  0999 V2000
    7.8616  -11.8043   18.8768 C   0  0  0  0  0  0  0  0  0  0  0  0
    7.8993  -13.1956   19.4172 C   0  0  1  0  0  0  0  0  0  0  0  0
    8.4791  -14.1742   18.4098 C   0  0  0  0  0  0  0  0  0  0  0  0
    8.5794  -13.3067   20.7570 C   0  0  0  0  0  0  0  0  0  0  0  0
    8.4590  -14.6763   21.3660 C   0  0  2  0  0  0  0  0  0  0  0  0
    7.1000  -15.1132   21.2439 N   0  0  0  0  0  0  0  0  0  0  0  0
    8.8985  -14.5899   22.7742 C   0  0  0  0  0  0  0  0  0  0  0  0
   10.0737  -14.2651   23.0409 O   0  0  0  0  0  0  0  0  0  0  0  0
    5.5871  -12.5768   26.4425 C   0  0  0  0  0  0  0  0  0  0  0  0
    6.8783  -12.9397   25.7354 C   0  0  1  0  0  0  0  0  0  0  0  0
    8.0021  -12.0738   26.2802 C   0  0  0  0  0  0  0  0  0  0  0  0
    7.1885  -14.3709   26.0555 C   0  0  0  0  0  0  0  0  0  0  0  0
    8.3847  -14.8506   25.2319 C   0  0  2  0  0  0  0  0  0  0  0  0
    8.0050  -14.8707   23.8313 N   0  0  0  0  0  0  0  0  0  0  0  0
    8.7119  -16.2677   25.6030 C   0  0  0  0  0  0  0  0  0  0  0  0
    7.8868  -17.2093   25.4811 O   0  0  0  0  0  0  0  0  0  0  0  0
   13.0239  -19.9265   23.3285 N   0  0  0  0  0  0  0  0  0  0  0  0
   12.7678  -18.5815   23.6683 C   0  0  0  0  0  0  0  0  0  0  0  0
   13.6392  -17.7191   23.4034 O   0  0  0  0  0  0  0  0  0  0  0  0
   11.5143  -18.1426   24.3247 C   0  0  0  0  0  0  0  0  0  0  0  0
   11.5753  -18.4006   25.8000 C   0  0  0  0  0  0  0  0  0  0  0  0
   10.3310  -17.9764   26.5255 C   0  0  2  0  0  0  0  0  0  0  0  0
   10.0034  -16.6006   26.1194 N   0  0  0  0  0  0  0  0  0  0  0  0
   10.5024  -17.9708   27.9956 C   0  0  0  0  0  0  0  0  0  0  0  0
   10.6770  -19.1368   28.7232 O   0  0  0  0  0  0  0  0  0  0  0  0
   10.4925  -16.8844   28.6247 O   0  0  0  0  0  0  0  0  0  0  0  0
  2  1  1  6
  3  2  1  0
  4  5  1  0
  4  2  1  0
  5  6  1  1
  7  8  2  0
  7  5  1  0
 10  9  1  1
 11 10  1  0
 12 10  1  0
 13 12  1  1
 13 14  1  0
 14  7  1  0
 15 16  2  0
 15 13  1  0
 18 17  1  0
 18 19  2  0
 20 21  1  0
 20 18  1  0
 22 21  1  6
 22 23  1  0
 23 15  1  0
 24 22  1  0
 25 24  1  0
 26 24  2  0
M  END
$$$$
