LLQ.pdb
     RDKit          3D

 26 25  0  0  1  0  0  0  0  0999 V2000
    6.0797  -11.8265   26.5036 C   0  0  0  0  0  0  0  0  0  0  0  0
    7.1488  -12.8408   26.2639 C   0  0  1  0  0  0  0  0  0  0  0  0
    8.3705  -12.5849   27.1303 C   0  0  0  0  0  0  0  0  0  0  0  0
    6.6704  -14.2645   26.3817 C   0  0  0  0  0  0  0  0  0  0  0  0
    7.6328  -15.2590   25.7934 C   0  0  2  0  0  0  0  0  0  0  0  0
    8.9659  -14.8663   26.1416 N   0  0  0  0  0  0  0  0  0  0  0  0
    7.4188  -15.2914   24.3317 C   0  0  0  0  0  0  0  0  0  0  0  0
    6.3771  -15.7972   23.8659 O   0  0  0  0  0  0  0  0  0  0  0  0
    6.9825  -13.6998   19.6196 C   0  0  0  0  0  0  0  0  0  0  0  0
    8.4630  -13.5379   19.9036 C   0  0  1  0  0  0  0  0  0  0  0  0
    8.9352  -12.2109   19.3330 C   0  0  0  0  0  0  0  0  0  0  0  0
    8.6421  -13.5015   21.3915 C   0  0  0  0  0  0  0  0  0  0  0  0
    8.2872  -14.8586   22.0012 C   0  0  2  0  0  0  0  0  0  0  0  0
    8.3798  -14.7560   23.4460 N   0  0  0  0  0  0  0  0  0  0  0  0
    9.3065  -15.8776   21.5822 C   0  0  0  0  0  0  0  0  0  0  0  0
    9.3270  -16.3838   20.4308 O   0  0  0  0  0  0  0  0  0  0  0  0
   14.4659  -13.9772   20.0965 N   0  0  0  0  0  0  0  0  0  0  0  0
   13.5062  -14.8306   19.5127 C   0  0  0  0  0  0  0  0  0  0  0  0
   13.0280  -14.5207   18.3953 O   0  0  0  0  0  0  0  0  0  0  0  0
   13.0382  -16.0774   20.1617 C   0  0  0  0  0  0  0  0  0  0  0  0
   12.4392  -15.7790   21.5029 C   0  0  0  0  0  0  0  0  0  0  0  0
   11.5789  -16.8928   22.0264 C   0  0  2  0  0  0  0  0  0  0  0  0
   10.3111  -16.3161   22.5008 N   0  0  0  0  0  0  0  0  0  0  0  0
   12.1955  -17.5989   23.1718 C   0  0  0  0  0  0  0  0  0  0  0  0
   13.3957  -18.2817   23.0591 O   0  0  0  0  0  0  0  0  0  0  0  0
   11.6292  -17.5918   24.2922 O   0  0  0  0  0  0  0  0  0  0  0  0
  2  1  1  1
  3  2  1  0
  4  5  1  0
  4  2  1  0
  5  6  1  6
  7  8  2  0
  7  5  1  0
 10  9  1  1
 11 10  1  0
 12 10  1  0
 13 12  1  6
 13 14  1  0
 14  7  1  0
 15 16  2  0
 15 13  1  0
 18 17  1  0
 18 19  2  0
 20 21  1  0
 20 18  1  0
 22 21  1  1
 22 23  1  0
 23 15  1  0
 24 22  1  0
 25 24  1  0
 26 24  2  0
M  END
$$$$
