LLQ.pdb
     RDKit          3D

 26 25  0  0  1  0  0  0  0  0999 V2000
    7.0500  -19.0343   19.6510 C   0  0  0  0  0  0  0  0  0  0  0  0
    7.2903  -17.5642   19.7521 C   0  0  1  0  0  0  0  0  0  0  0  0
    6.0405  -16.7664   19.4200 C   0  0  0  0  0  0  0  0  0  0  0  0
    7.8909  -17.1376   21.0664 C   0  0  0  0  0  0  0  0  0  0  0  0
    7.9883  -15.6440   21.2113 C   0  0  2  0  0  0  0  0  0  0  0  0
    8.7993  -15.1332   20.1464 N   0  0  0  0  0  0  0  0  0  0  0  0
    8.5574  -15.3509   22.5431 C   0  0  0  0  0  0  0  0  0  0  0  0
    9.7902  -15.4248   22.7235 O   0  0  0  0  0  0  0  0  0  0  0  0
    5.7370  -12.3254   26.4549 C   0  0  0  0  0  0  0  0  0  0  0  0
    6.9170  -12.8024   25.6310 C   0  0  1  0  0  0  0  0  0  0  0  0
    8.1811  -12.1288   26.1389 C   0  0  0  0  0  0  0  0  0  0  0  0
    7.0537  -14.2804   25.8407 C   0  0  0  0  0  0  0  0  0  0  0  0
    8.1963  -14.8332   24.9874 C   0  0  2  0  0  0  0  0  0  0  0  0
    7.7242  -14.9858   23.6235 N   0  0  0  0  0  0  0  0  0  0  0  0
    8.5594  -16.2083   25.4669 C   0  0  0  0  0  0  0  0  0  0  0  0
    7.7205  -17.1419   25.5501 O   0  0  0  0  0  0  0  0  0  0  0  0
   13.4145  -18.9817   23.3285 N   0  0  0  0  0  0  0  0  0  0  0  0
   12.9395  -19.9424   24.2458 C   0  0  0  0  0  0  0  0  0  0  0  0
   13.3715  -21.1169   24.1626 O   0  0  0  0  0  0  0  0  0  0  0  0
   11.9521  -19.6247   25.3036 C   0  0  0  0  0  0  0  0  0  0  0  0
   11.3610  -18.2655   25.0798 C   0  0  0  0  0  0  0  0  0  0  0  0
   10.3327  -17.8923   26.1084 C   0  0  2  0  0  0  0  0  0  0  0  0
    9.9031  -16.5082   25.8539 N   0  0  0  0  0  0  0  0  0  0  0  0
   10.8642  -17.9400   27.4889 C   0  0  0  0  0  0  0  0  0  0  0  0
   11.1279  -19.1353   28.1379 O   0  0  0  0  0  0  0  0  0  0  0  0
   11.0912  -16.8736   28.1114 O   0  0  0  0  0  0  0  0  0  0  0  0
  2  1  1  1
  3  2  1  0
  4  5  1  0
  4  2  1  0
  5  6  1  6
  7  8  2  0
  7  5  1  0
 10  9  1  1
 11 10  1  0
 12 10  1  0
 13 12  1  1
 13 14  1  0
 14  7  1  0
 15 16  2  0
 15 13  1  0
 18 17  1  0
 18 19  2  0
 20 21  1  0
 20 18  1  0
 22 21  1  6
 22 23  1  0
 23 15  1  0
 24 22  1  0
 25 24  1  0
 26 24  2  0
M  END
$$$$
