GVR.pdb
     RDKit          3D

 23 22  0  0  1  0  0  0  0  0999 V2000
    5.3851  -18.4594   21.3170 N   0  0  0  0  0  0  0  0  0  0  0  0
    4.9937  -17.7662   22.5216 C   0  0  0  0  0  0  0  0  0  0  0  0
    6.2314  -17.1687   23.1336 C   0  0  0  0  0  0  0  0  0  0  0  0
    7.3207  -17.7872   23.1223 O   0  0  0  0  0  0  0  0  0  0  0  0
    8.4499  -13.2840   25.3479 C   0  0  0  0  0  0  0  0  0  0  0  0
    7.2180  -13.9186   24.8095 C   0  0  2  0  0  0  0  0  0  0  0  0
    6.0558  -13.6193   25.7309 C   0  0  0  0  0  0  0  0  0  0  0  0
    7.2841  -15.3679   24.5100 C   0  0  2  0  0  0  0  0  0  0  0  0
    6.1957  -15.8782   23.7456 N   0  0  0  0  0  0  0  0  0  0  0  0
    7.7256  -16.2153   25.6389 C   0  0  0  0  0  0  0  0  0  0  0  0
    6.8604  -16.5788   26.4650 O   0  0  0  0  0  0  0  0  0  0  0  0
   10.3535  -21.4378   30.7389 N   0  0  0  0  0  0  0  0  0  0  0  0
   11.1262  -21.5722   29.5472 C   0  0  0  0  0  0  0  0  0  0  0  0
   12.3652  -21.2026   29.5462 N   0  0  0  0  0  0  0  0  0  0  0  0
   10.6018  -22.0957   28.3438 N   0  0  0  0  0  0  0  0  0  0  0  0
   10.3321  -21.2305   27.2450 C   0  0  0  0  0  0  0  0  0  0  0  0
   10.0397  -19.8101   27.6440 C   0  0  0  0  0  0  0  0  0  0  0  0
    9.7227  -18.9070   26.4819 C   0  0  0  0  0  0  0  0  0  0  0  0
    9.4429  -17.4947   26.9189 C   0  0  2  0  0  0  0  0  0  0  0  0
    9.0659  -16.6235   25.8244 N   0  0  0  0  0  0  0  0  0  0  0  0
   10.6808  -16.9892   27.6101 C   0  0  0  0  0  0  0  0  0  0  0  0
   10.9114  -17.2320   28.9485 O   0  0  0  0  0  0  0  0  0  0  0  0
   11.5235  -16.3311   26.9564 O   0  0  0  0  0  0  0  0  0  0  0  0
  2  3  1  0
  2  1  1  0
  3  9  1  0
  4  3  2  0
  6  5  1  1
  6  7  1  0
  6  8  1  0
  8 10  1  0
  8  9  1  1
 10 11  2  0
 10 20  1  0
 13 12  1  0
 14 13  2  0
 15 13  1  0
 16 15  1  0
 17 16  1  0
 19 18  1  6
 18 17  1  0
 19 21  1  0
 20 19  1  0
 21 23  2  0
 21 22  1  0
M  END
$$$$
