GVR.pdb
     RDKit          3D

 23 22  0  0  1  0  0  0  0  0999 V2000
    7.1417  -14.6618   20.6368 N   0  0  0  0  0  0  0  0  0  0  0  0
    6.4295  -14.3783   21.8603 C   0  0  0  0  0  0  0  0  0  0  0  0
    7.4384  -14.2945   22.9733 C   0  0  0  0  0  0  0  0  0  0  0  0
    8.6386  -14.5974   22.7812 O   0  0  0  0  0  0  0  0  0  0  0  0
    6.4764  -12.8978   27.1919 C   0  0  0  0  0  0  0  0  0  0  0  0
    7.6940  -12.7278   26.3560 C   0  0  2  0  0  0  0  0  0  0  0  0
    7.6606  -11.3688   25.6917 C   0  0  0  0  0  0  0  0  0  0  0  0
    7.9788  -13.7865   25.3598 C   0  0  2  0  0  0  0  0  0  0  0  0
    7.0523  -13.8673   24.2807 N   0  0  0  0  0  0  0  0  0  0  0  0
    8.4056  -15.0808   25.9344 C   0  0  0  0  0  0  0  0  0  0  0  0
    7.5134  -15.8691   26.3158 O   0  0  0  0  0  0  0  0  0  0  0  0
   10.7019  -16.5341   20.9591 N   0  0  0  0  0  0  0  0  0  0  0  0
   10.6735  -17.9278   21.2627 C   0  0  0  0  0  0  0  0  0  0  0  0
    9.9264  -18.7173   20.5625 N   0  0  0  0  0  0  0  0  0  0  0  0
   11.4302  -18.5042   22.3079 N   0  0  0  0  0  0  0  0  0  0  0  0
   11.7791  -17.7285   23.4503 C   0  0  0  0  0  0  0  0  0  0  0  0
   11.1263  -18.1904   24.7242 C   0  0  0  0  0  0  0  0  0  0  0  0
   11.3971  -17.2946   25.9035 C   0  0  0  0  0  0  0  0  0  0  0  0
   10.1295  -16.7824   26.5317 C   0  0  2  0  0  0  0  0  0  0  0  0
    9.7605  -15.4587   26.0730 N   0  0  0  0  0  0  0  0  0  0  0  0
   10.3333  -16.8002   28.0230 C   0  0  0  0  0  0  0  0  0  0  0  0
   10.2251  -15.6524   28.7809 O   0  0  0  0  0  0  0  0  0  0  0  0
   10.6088  -17.8822   28.5921 O   0  0  0  0  0  0  0  0  0  0  0  0
  2  3  1  0
  2  1  1  0
  3  9  1  0
  4  3  2  0
  6  5  1  6
  6  7  1  0
  6  8  1  0
  8 10  1  0
  8  9  1  1
 10 11  2  0
 10 20  1  0
 13 12  1  0
 14 13  2  0
 15 13  1  0
 16 15  1  0
 17 16  1  0
 19 18  1  6
 18 17  1  0
 19 21  1  0
 20 19  1  0
 21 23  2  0
 21 22  1  0
M  END
$$$$
