GVR.pdb
     RDKit          3D

 23 22  0  0  1  0  0  0  0  0999 V2000
    7.0708  -18.4729   18.2094 N   0  0  0  0  0  0  0  0  0  0  0  0
    6.4521  -17.2564   18.6803 C   0  0  0  0  0  0  0  0  0  0  0  0
    7.4258  -16.5678   19.5975 C   0  0  0  0  0  0  0  0  0  0  0  0
    8.5571  -17.0564   19.8227 O   0  0  0  0  0  0  0  0  0  0  0  0
    6.8984  -12.4722   21.7407 C   0  0  0  0  0  0  0  0  0  0  0  0
    8.0061  -13.2388   21.1118 C   0  0  2  0  0  0  0  0  0  0  0  0
    8.1685  -12.7971   19.6737 C   0  0  0  0  0  0  0  0  0  0  0  0
    7.9343  -14.7160   21.1968 C   0  0  2  0  0  0  0  0  0  0  0  0
    7.0841  -15.3369   20.2371 N   0  0  0  0  0  0  0  0  0  0  0  0
    7.8479  -15.2551   22.5714 C   0  0  0  0  0  0  0  0  0  0  0  0
    6.7176  -15.3118   23.1027 O   0  0  0  0  0  0  0  0  0  0  0  0
    6.0474  -22.1891   25.8569 N   0  0  0  0  0  0  0  0  0  0  0  0
    6.5478  -21.5026   27.0030 C   0  0  0  0  0  0  0  0  0  0  0  0
    6.2537  -21.9371   28.1847 N   0  0  0  0  0  0  0  0  0  0  0  0
    7.3618  -20.3506   26.9167 N   0  0  0  0  0  0  0  0  0  0  0  0
    7.6156  -19.7472   25.6517 C   0  0  0  0  0  0  0  0  0  0  0  0
    8.6102  -18.6201   25.7016 C   0  0  0  0  0  0  0  0  0  0  0  0
    8.7817  -17.9044   24.3882 C   0  0  0  0  0  0  0  0  0  0  0  0
    8.8234  -16.4098   24.5560 C   0  0  2  0  0  0  0  0  0  0  0  0
    8.9730  -15.6994   23.3024 N   0  0  0  0  0  0  0  0  0  0  0  0
    9.9603  -16.0988   25.4922 C   0  0  0  0  0  0  0  0  0  0  0  0
    9.9136  -16.4466   26.8266 O   0  0  0  0  0  0  0  0  0  0  0  0
   10.9746  -15.5090   25.0517 O   0  0  0  0  0  0  0  0  0  0  0  0
  2  3  1  0
  2  1  1  0
  3  9  1  0
  4  3  2  0
  6  5  1  6
  6  7  1  0
  6  8  1  0
  8 10  1  0
  8  9  1  6
 10 11  2  0
 10 20  1  0
 13 12  1  0
 14 13  2  0
 15 13  1  0
 16 15  1  0
 17 16  1  0
 19 18  1  6
 18 17  1  0
 19 21  1  0
 20 19  1  0
 21 23  2  0
 21 22  1  0
M  END
$$$$
