GVR.pdb
     RDKit          3D

 23 22  0  0  1  0  0  0  0  0999 V2000
    5.1729  -18.6223   17.8754 N   0  0  0  0  0  0  0  0  0  0  0  0
    4.9800  -17.6015   18.8781 C   0  0  0  0  0  0  0  0  0  0  0  0
    6.3214  -16.9901   19.1789 C   0  0  0  0  0  0  0  0  0  0  0  0
    7.3810  -17.5368   18.7950 O   0  0  0  0  0  0  0  0  0  0  0  0
    8.9276  -12.9785   20.5011 C   0  0  0  0  0  0  0  0  0  0  0  0
    7.6255  -13.6904   20.4114 C   0  0  2  0  0  0  0  0  0  0  0  0
    6.7840  -13.3512   21.6223 C   0  0  0  0  0  0  0  0  0  0  0  0
    7.6737  -15.1567   20.2061 C   0  0  2  0  0  0  0  0  0  0  0  0
    6.4211  -15.7683   19.9124 N   0  0  0  0  0  0  0  0  0  0  0  0
    8.5349  -15.8889   21.1599 C   0  0  0  0  0  0  0  0  0  0  0  0
    8.0216  -16.2618   22.2372 O   0  0  0  0  0  0  0  0  0  0  0  0
   14.7606  -19.6208   24.0090 N   0  0  0  0  0  0  0  0  0  0  0  0
   14.4508  -20.7981   23.2653 C   0  0  0  0  0  0  0  0  0  0  0  0
   14.7132  -21.9587   23.7711 N   0  0  0  0  0  0  0  0  0  0  0  0
   13.8629  -20.7654   21.9805 N   0  0  0  0  0  0  0  0  0  0  0  0
   13.5684  -19.5176   21.3602 C   0  0  0  0  0  0  0  0  0  0  0  0
   12.4505  -18.7572   22.0193 C   0  0  0  0  0  0  0  0  0  0  0  0
   11.7515  -17.7900   21.1012 C   0  0  0  0  0  0  0  0  0  0  0  0
   10.6590  -17.0291   21.8019 C   0  0  2  0  0  0  0  0  0  0  0  0
    9.8958  -16.1782   20.9117 N   0  0  0  0  0  0  0  0  0  0  0  0
   11.3085  -16.2231   22.8947 C   0  0  0  0  0  0  0  0  0  0  0  0
   11.5213  -16.7498   24.1521 O   0  0  0  0  0  0  0  0  0  0  0  0
   11.6648  -15.0448   22.6596 O   0  0  0  0  0  0  0  0  0  0  0  0
  2  3  1  0
  2  1  1  0
  3  9  1  0
  4  3  2  0
  6  5  1  1
  6  7  1  0
  6  8  1  0
  8 10  1  0
  8  9  1  1
 10 11  2  0
 10 20  1  0
 13 12  1  0
 14 13  2  0
 15 13  1  0
 16 15  1  0
 17 16  1  0
 19 18  1  6
 18 17  1  0
 19 21  1  0
 20 19  1  0
 21 23  2  0
 21 22  1  0
M  END
$$$$
