GVR.pdb
     RDKit          3D

 23 22  0  0  1  0  0  0  0  0999 V2000
    4.5819  -18.5090   19.4265 N   0  0  0  0  0  0  0  0  0  0  0  0
    4.7152  -17.4634   20.4132 C   0  0  0  0  0  0  0  0  0  0  0  0
    6.0820  -16.8540   20.2588 C   0  0  0  0  0  0  0  0  0  0  0  0
    6.8442  -17.2046   19.3286 O   0  0  0  0  0  0  0  0  0  0  0  0
    7.5705  -13.0882   22.2385 C   0  0  0  0  0  0  0  0  0  0  0  0
    7.9666  -13.8626   21.0329 C   0  0  2  0  0  0  0  0  0  0  0  0
    7.1977  -13.3522   19.8339 C   0  0  0  0  0  0  0  0  0  0  0  0
    7.8723  -15.3384   21.1210 C   0  0  2  0  0  0  0  0  0  0  0  0
    6.5470  -15.8583   21.1718 N   0  0  0  0  0  0  0  0  0  0  0  0
    8.8422  -15.9683   22.0430 C   0  0  0  0  0  0  0  0  0  0  0  0
    8.5405  -16.0216   23.2551 O   0  0  0  0  0  0  0  0  0  0  0  0
   10.3696  -20.6383   17.3995 N   0  0  0  0  0  0  0  0  0  0  0  0
   11.5913  -20.1914   17.9852 C   0  0  0  0  0  0  0  0  0  0  0  0
   12.7150  -20.6628   17.5529 N   0  0  0  0  0  0  0  0  0  0  0  0
   11.6423  -19.2447   19.0332 N   0  0  0  0  0  0  0  0  0  0  0  0
   10.7625  -19.3625   20.1470 C   0  0  0  0  0  0  0  0  0  0  0  0
   11.4607  -19.3615   21.4792 C   0  0  0  0  0  0  0  0  0  0  0  0
   12.0091  -18.0164   21.8752 C   0  0  0  0  0  0  0  0  0  0  0  0
   10.9754  -17.1576   22.5517 C   0  0  2  0  0  0  0  0  0  0  0  0
   10.0806  -16.5020   21.6199 N   0  0  0  0  0  0  0  0  0  0  0  0
   11.7143  -16.1500   23.3910 C   0  0  0  0  0  0  0  0  0  0  0  0
   12.4530  -16.5298   24.4927 O   0  0  0  0  0  0  0  0  0  0  0  0
   11.6582  -14.9362   23.0842 O   0  0  0  0  0  0  0  0  0  0  0  0
  2  3  1  0
  2  1  1  0
  3  9  1  0
  4  3  2  0
  6  5  1  1
  6  7  1  0
  6  8  1  0
  8 10  1  0
  8  9  1  1
 10 11  2  0
 10 20  1  0
 13 12  1  0
 14 13  2  0
 15 13  1  0
 16 15  1  0
 17 16  1  0
 19 18  1  6
 18 17  1  0
 19 21  1  0
 20 19  1  0
 21 23  2  0
 21 22  1  0
M  END
$$$$
