GVR.pdb
     RDKit          3D

 23 22  0  0  1  0  0  0  0  0999 V2000
    8.6317  -16.3355   15.2832 N   0  0  0  0  0  0  0  0  0  0  0  0
    7.7573  -16.2234   16.4266 C   0  0  0  0  0  0  0  0  0  0  0  0
    8.5756  -15.7266   17.5872 C   0  0  0  0  0  0  0  0  0  0  0  0
    9.7781  -16.0529   17.7162 O   0  0  0  0  0  0  0  0  0  0  0  0
    7.2763  -13.5980   21.6742 C   0  0  0  0  0  0  0  0  0  0  0  0
    8.1556  -13.3569   20.4999 C   0  0  2  0  0  0  0  0  0  0  0  0
    7.4575  -12.4251   19.5335 C   0  0  0  0  0  0  0  0  0  0  0  0
    8.6716  -14.5504   19.7901 C   0  0  2  0  0  0  0  0  0  0  0  0
    8.0007  -14.8688   18.5744 N   0  0  0  0  0  0  0  0  0  0  0  0
    8.9941  -15.7002   20.6627 C   0  0  0  0  0  0  0  0  0  0  0  0
    8.1034  -16.5585   20.8449 O   0  0  0  0  0  0  0  0  0  0  0  0
   15.5791  -18.4888   20.5347 N   0  0  0  0  0  0  0  0  0  0  0  0
   14.6538  -19.4889   20.1118 C   0  0  0  0  0  0  0  0  0  0  0  0
   14.6888  -19.9140   18.8913 N   0  0  0  0  0  0  0  0  0  0  0  0
   13.6809  -20.0505   20.9694 N   0  0  0  0  0  0  0  0  0  0  0  0
   13.4905  -19.5221   22.2782 C   0  0  0  0  0  0  0  0  0  0  0  0
   12.1249  -18.9344   22.5065 C   0  0  0  0  0  0  0  0  0  0  0  0
   11.8911  -17.6411   21.7720 C   0  0  0  0  0  0  0  0  0  0  0  0
   10.5432  -17.0478   22.0799 C   0  0  2  0  0  0  0  0  0  0  0  0
   10.2473  -15.8669   21.2945 N   0  0  0  0  0  0  0  0  0  0  0  0
   10.5197  -16.7370   23.5525 C   0  0  0  0  0  0  0  0  0  0  0  0
   10.5999  -17.7340   24.5029 O   0  0  0  0  0  0  0  0  0  0  0  0
   10.4244  -15.5448   23.9270 O   0  0  0  0  0  0  0  0  0  0  0  0
  2  3  1  0
  2  1  1  0
  3  9  1  0
  4  3  2  0
  6  5  1  1
  6  7  1  0
  6  8  1  0
  8 10  1  0
  8  9  1  6
 10 11  2  0
 10 20  1  0
 13 12  1  0
 14 13  2  0
 15 13  1  0
 16 15  1  0
 17 16  1  0
 19 18  1  6
 18 17  1  0
 19 21  1  0
 20 19  1  0
 21 23  2  0
 21 22  1  0
M  END
$$$$
