WEH.pdb
     RDKit          3D

 34 36  0  0  1  0  0  0  0  0999 V2000
    7.1629  -17.7636   20.8528 N   0  0  0  0  0  0  0  0  0  0  0  0
    7.7387  -16.7925   21.7356 C   0  0  1  0  0  0  0  0  0  0  0  0
    6.7049  -16.2568   22.7065 C   0  0  0  0  0  0  0  0  0  0  0  0
    7.0064  -14.7891   22.8439 C   0  0  0  0  0  0  0  0  0  0  0  0
    7.3068  -13.9038   21.8148 C   0  0  0  0  0  0  0  0  0  0  0  0
    7.5196  -12.6855   22.3046 N   0  0  0  0  0  0  0  0  0  0  0  0
    7.3672  -12.7438   23.6314 C   0  0  0  0  0  0  0  0  0  0  0  0
    7.4732  -11.7829   24.6066 C   0  0  0  0  0  0  0  0  0  0  0  0
    7.2710  -12.0697   25.9401 C   0  0  0  0  0  0  0  0  0  0  0  0
    6.9538  -13.3567   26.3004 C   0  0  0  0  0  0  0  0  0  0  0  0
    6.8433  -14.3414   25.3184 C   0  0  0  0  0  0  0  0  0  0  0  0
    7.0474  -14.0391   23.9993 C   0  0  0  0  0  0  0  0  0  0  0  0
    8.9325  -17.3354   22.3888 C   0  0  0  0  0  0  0  0  0  0  0  0
    8.7960  -18.2408   23.2518 O   0  0  0  0  0  0  0  0  0  0  0  0
   10.2580  -16.9189   22.1259 N   0  0  0  0  0  0  0  0  0  0  0  0
   11.4011  -17.4936   22.8478 C   0  0  1  0  0  0  0  0  0  0  0  0
   12.6338  -17.1791   22.0824 C   0  0  0  0  0  0  0  0  0  0  0  0
   12.8362  -18.1895   20.9904 C   0  0  0  0  0  0  0  0  0  0  0  0
   14.1718  -18.1885   20.3956 C   0  0  0  0  0  0  0  0  0  0  0  0
   14.3950  -17.9749   19.1903 O   0  0  0  0  0  0  0  0  0  0  0  0
   11.4401  -16.9813   24.2458 C   0  0  0  0  0  0  0  0  0  0  0  0
   11.2978  -15.7505   24.4116 O   0  0  0  0  0  0  0  0  0  0  0  0
   15.2874  -18.4372   21.1919 O   0  0  0  0  0  0  0  0  0  0  0  0
   11.6253  -17.7972   25.3677 N   0  0  0  0  0  0  0  0  0  0  0  0
   11.7753  -17.1884   26.7212 C   0  0  1  0  0  0  0  0  0  0  0  0
   10.5879  -16.3281   26.9217 C   0  0  0  0  0  0  0  0  0  0  0  0
   10.4112  -15.7334   28.2567 C   0  0  0  0  0  0  0  0  0  0  0  0
   11.0593  -15.9805   29.4402 C   0  0  0  0  0  0  0  0  0  0  0  0
   10.6111  -15.1583   30.4147 N   0  0  0  0  0  0  0  0  0  0  0  0
    9.6788  -14.3945   29.8314 C   0  0  0  0  0  0  0  0  0  0  0  0
    9.5421  -14.7147   28.5567 N   0  0  0  0  0  0  0  0  0  0  0  0
   11.8112  -18.3639   27.6348 C   0  0  0  0  0  0  0  0  0  0  0  0
   12.0432  -19.6352   27.0966 O   0  0  0  0  0  0  0  0  0  0  0  0
   11.6488  -18.3104   28.8644 O   0  0  0  0  0  0  0  0  0  0  0  0
  2  1  1  1
  2  3  1  0
  4  3  1  0
  5  4  2  0
  6  5  1  0
  7  6  1  0
  7 12  2  0
  8  7  1  0
  9  8  2  0
  9 10  1  0
 10 11  2  0
 11 12  1  0
 12  4  1  0
 13 14  2  0
 13  2  1  0
 15 13  1  0
 16 15  1  0
 17 18  1  0
 16 17  1  6
 19 18  1  0
 20 19  2  0
 21 16  1  0
 21 24  1  0
 22 21  2  0
 23 19  1  0
 25 24  1  0
 25 32  1  0
 26 27  1  0
 25 26  1  1
 27 31  1  0
 28 27  2  0
 28 29  1  0
 29 30  1  0
 31 30  2  0
 32 34  2  0
 32 33  1  0
M  END
$$$$
