WEH.pdb
     RDKit          3D

 34 36  0  0  1  0  0  0  0  0999 V2000
    6.6200  -17.1181   23.4918 N   0  0  0  0  0  0  0  0  0  0  0  0
    7.9182  -16.5360   23.6640 C   0  0  1  0  0  0  0  0  0  0  0  0
    8.1996  -16.2530   25.1266 C   0  0  0  0  0  0  0  0  0  0  0  0
    7.2253  -15.1766   25.5215 C   0  0  0  0  0  0  0  0  0  0  0  0
    5.9471  -15.3623   26.0361 C   0  0  0  0  0  0  0  0  0  0  0  0
    5.3702  -14.1865   26.2683 N   0  0  0  0  0  0  0  0  0  0  0  0
    6.2352  -13.2287   25.9200 C   0  0  0  0  0  0  0  0  0  0  0  0
    6.1453  -11.8589   25.9558 C   0  0  0  0  0  0  0  0  0  0  0  0
    7.1793  -11.0476   25.5390 C   0  0  0  0  0  0  0  0  0  0  0  0
    8.3331  -11.6304   25.0745 C   0  0  0  0  0  0  0  0  0  0  0  0
    8.4361  -13.0211   25.0335 C   0  0  0  0  0  0  0  0  0  0  0  0
    7.3997  -13.8114   25.4512 C   0  0  0  0  0  0  0  0  0  0  0  0
    8.9417  -17.3617   23.0178 C   0  0  0  0  0  0  0  0  0  0  0  0
    9.0109  -18.5840   23.3081 O   0  0  0  0  0  0  0  0  0  0  0  0
    9.8817  -16.8910   22.0721 N   0  0  0  0  0  0  0  0  0  0  0  0
   11.2298  -17.4667   21.9770 C   0  0  1  0  0  0  0  0  0  0  0  0
   11.9843  -16.7044   20.9505 C   0  0  0  0  0  0  0  0  0  0  0  0
   12.4977  -17.6346   19.8895 C   0  0  0  0  0  0  0  0  0  0  0  0
   13.2094  -16.9792   18.7932 C   0  0  0  0  0  0  0  0  0  0  0  0
   13.1353  -15.7618   18.5470 O   0  0  0  0  0  0  0  0  0  0  0  0
   11.8921  -17.4551   23.3110 C   0  0  0  0  0  0  0  0  0  0  0  0
   11.7476  -16.4330   24.0160 O   0  0  0  0  0  0  0  0  0  0  0  0
   14.0292  -17.7272   17.9514 O   0  0  0  0  0  0  0  0  0  0  0  0
   12.6573  -18.5162   23.8082 N   0  0  0  0  0  0  0  0  0  0  0  0
   13.2509  -18.4371   25.1744 C   0  0  1  0  0  0  0  0  0  0  0  0
   12.5712  -19.4748   25.9814 C   0  0  0  0  0  0  0  0  0  0  0  0
   11.3534  -19.0696   26.7025 C   0  0  0  0  0  0  0  0  0  0  0  0
   10.8559  -17.8241   26.9911 C   0  0  0  0  0  0  0  0  0  0  0  0
    9.6689  -17.9167   27.6304 N   0  0  0  0  0  0  0  0  0  0  0  0
    9.4273  -19.2292   27.7385 C   0  0  0  0  0  0  0  0  0  0  0  0
   10.4075  -19.9314   27.1979 N   0  0  0  0  0  0  0  0  0  0  0  0
   14.6954  -18.7199   24.9484 C   0  0  0  0  0  0  0  0  0  0  0  0
   15.1496  -18.9305   23.6409 O   0  0  0  0  0  0  0  0  0  0  0  0
   15.5527  -18.7863   25.8438 O   0  0  0  0  0  0  0  0  0  0  0  0
  2  1  1  1
  2  3  1  0
  4  3  1  0
  5  4  2  0
  6  5  1  0
  7  6  1  0
  7 12  2  0
  8  7  1  0
  9  8  2  0
  9 10  1  0
 10 11  2  0
 11 12  1  0
 12  4  1  0
 13 14  2  0
 13  2  1  0
 15 13  1  0
 16 15  1  0
 17 18  1  0
 16 17  1  6
 19 18  1  0
 20 19  2  0
 21 16  1  0
 21 24  1  0
 22 21  2  0
 23 19  1  0
 25 24  1  0
 25 32  1  0
 26 27  1  0
 25 26  1  1
 27 31  1  0
 28 27  2  0
 28 29  1  0
 29 30  1  0
 31 30  2  0
 32 34  2  0
 32 33  1  0
M  END
$$$$
