WEH.pdb
     RDKit          3D

 34 36  0  0  1  0  0  0  0  0999 V2000
    6.4043  -17.3652   24.9162 N   0  0  0  0  0  0  0  0  0  0  0  0
    7.5838  -16.6125   24.6064 C   0  0  1  0  0  0  0  0  0  0  0  0
    8.0250  -15.7769   25.7920 C   0  0  0  0  0  0  0  0  0  0  0  0
    7.0518  -14.6314   25.8595 C   0  0  0  0  0  0  0  0  0  0  0  0
    5.9059  -14.5611   26.6437 C   0  0  0  0  0  0  0  0  0  0  0  0
    5.2851  -13.4013   26.4470 N   0  0  0  0  0  0  0  0  0  0  0  0
    5.9922  -12.7035   25.5524 C   0  0  0  0  0  0  0  0  0  0  0  0
    5.7978  -11.4603   25.0027 C   0  0  0  0  0  0  0  0  0  0  0  0
    6.6705  -10.9253   24.0788 C   0  0  0  0  0  0  0  0  0  0  0  0
    7.7666  -11.6608   23.6991 C   0  0  0  0  0  0  0  0  0  0  0  0
    7.9745  -12.9252   24.2508 C   0  0  0  0  0  0  0  0  0  0  0  0
    7.0981  -13.4410   25.1667 C   0  0  0  0  0  0  0  0  0  0  0  0
    8.6328  -17.4923   24.0847 C   0  0  0  0  0  0  0  0  0  0  0  0
    8.8316  -18.6015   24.6446 O   0  0  0  0  0  0  0  0  0  0  0  0
    9.4616  -17.1946   22.9783 N   0  0  0  0  0  0  0  0  0  0  0  0
   10.6963  -17.9470   22.7192 C   0  0  1  0  0  0  0  0  0  0  0  0
   11.0225  -17.8132   21.2769 C   0  0  0  0  0  0  0  0  0  0  0  0
   12.4857  -17.5249   21.1024 C   0  0  0  0  0  0  0  0  0  0  0  0
   12.9150  -17.3567   19.7149 C   0  0  0  0  0  0  0  0  0  0  0  0
   13.4102  -18.2668   19.0261 O   0  0  0  0  0  0  0  0  0  0  0  0
   11.7906  -17.4666   23.6080 C   0  0  0  0  0  0  0  0  0  0  0  0
   12.2679  -16.3354   23.3728 O   0  0  0  0  0  0  0  0  0  0  0  0
   12.7784  -16.1190   19.0905 O   0  0  0  0  0  0  0  0  0  0  0  0
   12.3042  -18.2074   24.6785 N   0  0  0  0  0  0  0  0  0  0  0  0
   12.4281  -17.5865   26.0291 C   0  0  1  0  0  0  0  0  0  0  0  0
   11.0794  -17.0892   26.3811 C   0  0  0  0  0  0  0  0  0  0  0  0
   10.9425  -16.3789   27.6632 C   0  0  0  0  0  0  0  0  0  0  0  0
   11.8717  -16.0872   28.6293 C   0  0  0  0  0  0  0  0  0  0  0  0
   11.3174  -15.3631   29.6267 N   0  0  0  0  0  0  0  0  0  0  0  0
   10.0350  -15.2032   29.2766 C   0  0  0  0  0  0  0  0  0  0  0  0
    9.7885  -15.7940   28.1205 N   0  0  0  0  0  0  0  0  0  0  0  0
   12.8850  -18.7098   26.8934 C   0  0  0  0  0  0  0  0  0  0  0  0
   13.5911  -18.4198   28.0670 O   0  0  0  0  0  0  0  0  0  0  0  0
   12.6877  -19.9122   26.6553 O   0  0  0  0  0  0  0  0  0  0  0  0
  2  1  1  1
  2  3  1  0
  4  3  1  0
  5  4  2  0
  6  5  1  0
  7  6  1  0
  7 12  2  0
  8  7  1  0
  9  8  2  0
  9 10  1  0
 10 11  2  0
 11 12  1  0
 12  4  1  0
 13 14  2  0
 13  2  1  0
 15 13  1  0
 16 15  1  0
 17 18  1  0
 16 17  1  6
 19 18  1  0
 20 19  2  0
 21 16  1  0
 21 24  1  0
 22 21  2  0
 23 19  1  0
 25 24  1  0
 25 32  1  0
 26 27  1  0
 25 26  1  1
 27 31  1  0
 28 27  2  0
 28 29  1  0
 29 30  1  0
 31 30  2  0
 32 34  2  0
 32 33  1  0
M  END
$$$$
