WEH.pdb
     RDKit          3D

 34 36  0  0  1  0  0  0  0  0999 V2000
    6.5091  -17.5725   24.1019 N   0  0  0  0  0  0  0  0  0  0  0  0
    7.6909  -16.8129   23.8189 C   0  0  1  0  0  0  0  0  0  0  0  0
    8.2944  -16.2486   25.0901 C   0  0  0  0  0  0  0  0  0  0  0  0
    7.3381  -15.1812   25.5484 C   0  0  0  0  0  0  0  0  0  0  0  0
    6.1011  -15.3787   26.1515 C   0  0  0  0  0  0  0  0  0  0  0  0
    5.5288  -14.2082   26.4196 N   0  0  0  0  0  0  0  0  0  0  0  0
    6.3568  -13.2425   26.0089 C   0  0  0  0  0  0  0  0  0  0  0  0
    6.2546  -11.8736   26.0466 C   0  0  0  0  0  0  0  0  0  0  0  0
    7.2481  -11.0529   25.5562 C   0  0  0  0  0  0  0  0  0  0  0  0
    8.3731  -11.6251   25.0142 C   0  0  0  0  0  0  0  0  0  0  0  0
    8.4882  -13.0148   24.9705 C   0  0  0  0  0  0  0  0  0  0  0  0
    7.4922  -13.8145   25.4619 C   0  0  0  0  0  0  0  0  0  0  0  0
    8.6323  -17.6043   23.0225 C   0  0  0  0  0  0  0  0  0  0  0  0
    8.8891  -18.7838   23.3776 O   0  0  0  0  0  0  0  0  0  0  0  0
    9.2934  -17.1449   21.8600 N   0  0  0  0  0  0  0  0  0  0  0  0
   10.5602  -17.7384   21.4116 C   0  0  1  0  0  0  0  0  0  0  0  0
   10.8436  -17.2381   20.0428 C   0  0  0  0  0  0  0  0  0  0  0  0
   12.0504  -17.9310   19.4787 C   0  0  0  0  0  0  0  0  0  0  0  0
   12.4015  -17.5358   18.1156 C   0  0  0  0  0  0  0  0  0  0  0  0
   12.0871  -16.4451   17.6061 O   0  0  0  0  0  0  0  0  0  0  0  0
   11.6483  -17.4267   22.3797 C   0  0  0  0  0  0  0  0  0  0  0  0
   11.7443  -16.2451   22.7763 O   0  0  0  0  0  0  0  0  0  0  0  0
   13.1309  -18.4039   17.3064 O   0  0  0  0  0  0  0  0  0  0  0  0
   12.5559  -18.3769   22.8613 N   0  0  0  0  0  0  0  0  0  0  0  0
   13.5915  -17.9856   23.8610 C   0  0  1  0  0  0  0  0  0  0  0  0
   13.8039  -19.1702   24.7221 C   0  0  0  0  0  0  0  0  0  0  0  0
   12.8328  -19.3912   25.8061 C   0  0  0  0  0  0  0  0  0  0  0  0
   11.8122  -18.6003   26.2695 C   0  0  0  0  0  0  0  0  0  0  0  0
   11.1290  -19.2246   27.2543 N   0  0  0  0  0  0  0  0  0  0  0  0
   11.7292  -20.4123   27.4025 C   0  0  0  0  0  0  0  0  0  0  0  0
   12.7385  -20.5349   26.5585 N   0  0  0  0  0  0  0  0  0  0  0  0
   14.7768  -17.6450   23.0262 C   0  0  0  0  0  0  0  0  0  0  0  0
   15.9455  -17.2004   23.6558 O   0  0  0  0  0  0  0  0  0  0  0  0
   14.8174  -17.7241   21.7879 O   0  0  0  0  0  0  0  0  0  0  0  0
  2  1  1  1
  2  3  1  0
  4  3  1  0
  5  4  2  0
  6  5  1  0
  7  6  1  0
  7 12  2  0
  8  7  1  0
  9  8  2  0
  9 10  1  0
 10 11  2  0
 11 12  1  0
 12  4  1  0
 13 14  2  0
 13  2  1  0
 15 13  1  0
 16 15  1  0
 17 18  1  0
 16 17  1  6
 19 18  1  0
 20 19  2  0
 21 16  1  0
 21 24  1  0
 22 21  2  0
 23 19  1  0
 25 24  1  0
 25 32  1  0
 26 27  1  0
 25 26  1  1
 27 31  1  0
 28 27  2  0
 28 29  1  0
 29 30  1  0
 31 30  2  0
 32 34  2  0
 32 33  1  0
M  END
$$$$
