WEH.pdb
     RDKit          3D

 34 36  0  0  1  0  0  0  0  0999 V2000
    6.4004  -17.5316   24.7147 N   0  0  0  0  0  0  0  0  0  0  0  0
    7.4627  -16.5743   24.6203 C   0  0  1  0  0  0  0  0  0  0  0  0
    7.7115  -15.9017   25.9560 C   0  0  0  0  0  0  0  0  0  0  0  0
    6.7835  -14.7177   25.9878 C   0  0  0  0  0  0  0  0  0  0  0  0
    5.5581  -14.6410   26.6399 C   0  0  0  0  0  0  0  0  0  0  0  0
    5.0111  -13.4434   26.4504 N   0  0  0  0  0  0  0  0  0  0  0  0
    5.8447  -12.7269   25.6895 C   0  0  0  0  0  0  0  0  0  0  0  0
    5.7653  -11.4449   25.2040 C   0  0  0  0  0  0  0  0  0  0  0  0
    6.7600  -10.8968   24.4221 C   0  0  0  0  0  0  0  0  0  0  0  0
    7.8625  -11.6589   24.1217 C   0  0  0  0  0  0  0  0  0  0  0  0
    7.9543  -12.9628   24.6094 C   0  0  0  0  0  0  0  0  0  0  0  0
    6.9575  -13.4911   25.3842 C   0  0  0  0  0  0  0  0  0  0  0  0
    8.6593  -17.1897   24.0404 C   0  0  0  0  0  0  0  0  0  0  0  0
    9.0460  -18.3030   24.4809 O   0  0  0  0  0  0  0  0  0  0  0  0
    9.4361  -16.6257   23.0021 N   0  0  0  0  0  0  0  0  0  0  0  0
   10.7938  -17.1053   22.7114 C   0  0  1  0  0  0  0  0  0  0  0  0
   11.1204  -16.7404   21.3098 C   0  0  0  0  0  0  0  0  0  0  0  0
    9.9482  -17.0240   20.4153 C   0  0  0  0  0  0  0  0  0  0  0  0
   10.1457  -16.6583   19.0135 C   0  0  0  0  0  0  0  0  0  0  0  0
   10.3533  -15.4958   18.6218 O   0  0  0  0  0  0  0  0  0  0  0  0
   11.7613  -16.5467   23.6964 C   0  0  0  0  0  0  0  0  0  0  0  0
   11.4066  -15.5365   24.3417 O   0  0  0  0  0  0  0  0  0  0  0  0
   10.1063  -17.6409   18.0269 O   0  0  0  0  0  0  0  0  0  0  0  0
   13.0299  -17.0884   23.9328 N   0  0  0  0  0  0  0  0  0  0  0  0
   13.7321  -16.8191   25.2210 C   0  0  1  0  0  0  0  0  0  0  0  0
   12.9298  -17.4787   26.2752 C   0  0  0  0  0  0  0  0  0  0  0  0
   12.0216  -16.6238   27.0571 C   0  0  0  0  0  0  0  0  0  0  0  0
   11.6014  -15.3350   26.8464 C   0  0  0  0  0  0  0  0  0  0  0  0
   10.7153  -14.9571   27.7943 N   0  0  0  0  0  0  0  0  0  0  0  0
   10.5836  -16.0194   28.5985 C   0  0  0  0  0  0  0  0  0  0  0  0
   11.3449  -17.0169   28.1843 N   0  0  0  0  0  0  0  0  0  0  0  0
   15.0728  -17.4381   25.0281 C   0  0  0  0  0  0  0  0  0  0  0  0
   16.0552  -17.2488   26.0074 O   0  0  0  0  0  0  0  0  0  0  0  0
   15.4012  -18.1252   24.0478 O   0  0  0  0  0  0  0  0  0  0  0  0
  2  1  1  1
  2  3  1  0
  4  3  1  0
  5  4  2  0
  6  5  1  0
  7  6  1  0
  7 12  2  0
  8  7  1  0
  9  8  2  0
  9 10  1  0
 10 11  2  0
 11 12  1  0
 12  4  1  0
 13 14  2  0
 13  2  1  0
 15 13  1  0
 16 15  1  0
 17 18  1  0
 16 17  1  6
 19 18  1  0
 20 19  2  0
 21 16  1  0
 21 24  1  0
 22 21  2  0
 23 19  1  0
 25 24  1  0
 25 32  1  0
 26 27  1  0
 25 26  1  1
 27 31  1  0
 28 27  2  0
 28 29  1  0
 29 30  1  0
 31 30  2  0
 32 34  2  0
 32 33  1  0
M  END
$$$$
