WEH.pdb
     RDKit          3D

 34 36  0  0  1  0  0  0  0  0999 V2000
   10.5091  -16.3763   16.9433 N   0  0  0  0  0  0  0  0  0  0  0  0
   10.9192  -15.6346   18.0989 C   0  0  1  0  0  0  0  0  0  0  0  0
   10.0712  -15.9896   19.3044 C   0  0  0  0  0  0  0  0  0  0  0  0
    8.8180  -15.1681   19.1690 C   0  0  0  0  0  0  0  0  0  0  0  0
    7.5656  -15.6239   18.7732 C   0  0  0  0  0  0  0  0  0  0  0  0
    6.6930  -14.6200   18.7644 N   0  0  0  0  0  0  0  0  0  0  0  0
    7.3376  -13.5123   19.1445 C   0  0  0  0  0  0  0  0  0  0  0  0
    6.9124  -12.2162   19.3030 C   0  0  0  0  0  0  0  0  0  0  0  0
    7.7647  -11.2124   19.7120 C   0  0  0  0  0  0  0  0  0  0  0  0
    9.0782  -11.5216   19.9680 C   0  0  0  0  0  0  0  0  0  0  0  0
    9.5218  -12.8350   19.8106 C   0  0  0  0  0  0  0  0  0  0  0  0
    8.6621  -13.8191   19.4037 C   0  0  0  0  0  0  0  0  0  0  0  0
   12.3582  -15.7910   18.3261 C   0  0  0  0  0  0  0  0  0  0  0  0
   12.8505  -16.9489   18.3388 O   0  0  0  0  0  0  0  0  0  0  0  0
   13.2638  -14.7258   18.5374 N   0  0  0  0  0  0  0  0  0  0  0  0
   14.6626  -14.9701   18.9140 C   0  0  1  0  0  0  0  0  0  0  0  0
   15.4762  -13.8272   18.4282 C   0  0  0  0  0  0  0  0  0  0  0  0
   15.9267  -14.0759   17.0176 C   0  0  0  0  0  0  0  0  0  0  0  0
   17.3551  -13.8675   16.7856 C   0  0  0  0  0  0  0  0  0  0  0  0
   18.0793  -14.6599   16.1567 O   0  0  0  0  0  0  0  0  0  0  0  0
   14.7734  -15.1770   20.3848 C   0  0  0  0  0  0  0  0  0  0  0  0
   14.2482  -14.3195   21.1274 O   0  0  0  0  0  0  0  0  0  0  0  0
   17.9804  -12.7260   17.2822 O   0  0  0  0  0  0  0  0  0  0  0  0
   15.4266  -16.2680   20.9692 N   0  0  0  0  0  0  0  0  0  0  0  0
   15.5274  -16.3744   22.4537 C   0  0  1  0  0  0  0  0  0  0  0  0
   14.8710  -17.6484   22.8226 C   0  0  0  0  0  0  0  0  0  0  0  0
   13.4028  -17.6378   22.9283 C   0  0  0  0  0  0  0  0  0  0  0  0
   12.5177  -16.5924   23.0041 C   0  0  0  0  0  0  0  0  0  0  0  0
   11.2436  -17.0421   23.0333 N   0  0  0  0  0  0  0  0  0  0  0  0
   11.3385  -18.3763   22.9740 C   0  0  0  0  0  0  0  0  0  0  0  0
   12.6035  -18.7531   22.9113 N   0  0  0  0  0  0  0  0  0  0  0  0
   16.9946  -16.3731   22.7087 C   0  0  0  0  0  0  0  0  0  0  0  0
   17.4539  -16.3700   24.0312 O   0  0  0  0  0  0  0  0  0  0  0  0
   17.8670  -16.3746   21.8255 O   0  0  0  0  0  0  0  0  0  0  0  0
  2  1  1  6
  2  3  1  0
  4  3  1  0
  5  4  2  0
  6  5  1  0
  7  6  1  0
  7 12  2  0
  8  7  1  0
  9  8  2  0
  9 10  1  0
 10 11  2  0
 11 12  1  0
 12  4  1  0
 13 14  2  0
 13  2  1  0
 15 13  1  0
 16 15  1  0
 17 18  1  0
 16 17  1  1
 19 18  1  0
 20 19  2  0
 21 16  1  0
 21 24  1  0
 22 21  2  0
 23 19  1  0
 25 24  1  0
 25 32  1  0
 26 27  1  0
 25 26  1  6
 27 31  1  0
 28 27  2  0
 28 29  1  0
 29 30  1  0
 31 30  2  0
 32 34  2  0
 32 33  1  0
M  END
$$$$
