WEH.pdb
     RDKit          3D

 34 36  0  0  1  0  0  0  0  0999 V2000
    6.4198  -17.8506   24.5437 N   0  0  0  0  0  0  0  0  0  0  0  0
    7.5322  -16.9834   24.2904 C   0  0  1  0  0  0  0  0  0  0  0  0
    7.9757  -16.2803   25.5582 C   0  0  0  0  0  0  0  0  0  0  0  0
    7.0210  -15.1308   25.7342 C   0  0  0  0  0  0  0  0  0  0  0  0
    5.7666  -15.1779   26.3320 C   0  0  0  0  0  0  0  0  0  0  0  0
    5.2018  -13.9738   26.3100 N   0  0  0  0  0  0  0  0  0  0  0  0
    6.0516  -13.1323   25.7126 C   0  0  0  0  0  0  0  0  0  0  0  0
    5.9649  -11.7905   25.4339 C   0  0  0  0  0  0  0  0  0  0  0  0
    6.9804  -11.1095   24.7966 C   0  0  0  0  0  0  0  0  0  0  0  0
    8.1118  -11.7970   24.4309 C   0  0  0  0  0  0  0  0  0  0  0  0
    8.2114  -13.1605   24.7088 C   0  0  0  0  0  0  0  0  0  0  0  0
    7.1936  -13.8209   25.3422 C   0  0  0  0  0  0  0  0  0  0  0  0
    8.6091  -17.7123   23.6153 C   0  0  0  0  0  0  0  0  0  0  0  0
    8.9073  -18.8671   24.0159 O   0  0  0  0  0  0  0  0  0  0  0  0
    9.3606  -17.2170   22.5247 N   0  0  0  0  0  0  0  0  0  0  0  0
   10.7572  -17.6181   22.3091 C   0  0  1  0  0  0  0  0  0  0  0  0
   11.2097  -17.0353   21.0207 C   0  0  0  0  0  0  0  0  0  0  0  0
   12.6494  -17.3828   20.7734 C   0  0  0  0  0  0  0  0  0  0  0  0
   13.1609  -16.9765   19.4653 C   0  0  0  0  0  0  0  0  0  0  0  0
   12.4871  -16.9962   18.4196 O   0  0  0  0  0  0  0  0  0  0  0  0
   11.5998  -17.1978   23.4631 C   0  0  0  0  0  0  0  0  0  0  0  0
   12.0923  -16.0494   23.4277 O   0  0  0  0  0  0  0  0  0  0  0  0
   14.4761  -16.5349   19.3402 O   0  0  0  0  0  0  0  0  0  0  0  0
   11.8641  -18.0124   24.5700 N   0  0  0  0  0  0  0  0  0  0  0  0
   12.0983  -17.4027   25.9110 C   0  0  1  0  0  0  0  0  0  0  0  0
   10.9719  -16.4716   26.1445 C   0  0  0  0  0  0  0  0  0  0  0  0
   10.9005  -15.8270   27.4660 C   0  0  0  0  0  0  0  0  0  0  0  0
   11.7008  -15.9606   28.5722 C   0  0  0  0  0  0  0  0  0  0  0  0
   11.2992  -15.1297   29.5595 N   0  0  0  0  0  0  0  0  0  0  0  0
   10.2426  -14.4748   29.0621 C   0  0  0  0  0  0  0  0  0  0  0  0
    9.9871  -14.8687   27.8270 N   0  0  0  0  0  0  0  0  0  0  0  0
   12.0972  -18.5708   26.8348 C   0  0  0  0  0  0  0  0  0  0  0  0
   11.6101  -19.7999   26.3745 O   0  0  0  0  0  0  0  0  0  0  0  0
   12.5020  -18.5462   28.0081 O   0  0  0  0  0  0  0  0  0  0  0  0
  2  1  1  1
  2  3  1  0
  4  3  1  0
  5  4  2  0
  6  5  1  0
  7  6  1  0
  7 12  2  0
  8  7  1  0
  9  8  2  0
  9 10  1  0
 10 11  2  0
 11 12  1  0
 12  4  1  0
 13 14  2  0
 13  2  1  0
 15 13  1  0
 16 15  1  0
 17 18  1  0
 16 17  1  6
 19 18  1  0
 20 19  2  0
 21 16  1  0
 21 24  1  0
 22 21  2  0
 23 19  1  0
 25 24  1  0
 25 32  1  0
 26 27  1  0
 25 26  1  1
 27 31  1  0
 28 27  2  0
 28 29  1  0
 29 30  1  0
 31 30  2  0
 32 34  2  0
 32 33  1  0
M  END
$$$$
