MQY.pdb
     RDKit          3D

 30 30  0  0  1  0  0  0  0  0999 V2000
   26.5151  -16.1421  -14.7127 C   0  0  0  0  0  0  0  0  0  0  0  0
   27.7127  -16.7479  -15.9214 S   0  0  0  0  0  0  0  0  0  0  0  0
   26.9926  -18.0057  -16.9898 C   0  0  0  0  0  0  0  0  0  0  0  0
   26.1330  -18.9778  -16.2643 C   0  0  0  0  0  0  0  0  0  0  0  0
   26.9205  -20.0406  -15.5464 C   0  0  2  0  0  0  0  0  0  0  0  0
   27.5246  -20.8578  -16.6142 N   0  0  0  0  0  0  0  0  0  0  0  0
   26.0957  -20.8506  -14.6694 C   0  0  0  0  0  0  0  0  0  0  0  0
   25.3208  -21.7229  -15.1898 O   0  0  0  0  0  0  0  0  0  0  0  0
   27.4680  -21.5756   -8.9372 N   0  0  0  0  0  0  0  0  0  0  0  0
   26.4814  -20.5648   -9.0618 C   0  0  0  0  0  0  0  0  0  0  0  0
   26.1073  -19.8357   -8.1090 O   0  0  0  0  0  0  0  0  0  0  0  0
   25.8667  -20.3717  -10.4022 C   0  0  0  0  0  0  0  0  0  0  0  0
   25.7130  -21.7165  -11.1093 C   0  0  0  0  0  0  0  0  0  0  0  0
   25.0937  -21.4332  -12.4862 C   0  0  2  0  0  0  0  0  0  0  0  0
   26.0961  -20.7398  -13.2384 N   0  0  0  0  0  0  0  0  0  0  0  0
   23.8127  -20.7404  -12.3523 C   0  0  0  0  0  0  0  0  0  0  0  0
   23.7929  -19.4831  -12.3333 O   0  0  0  0  0  0  0  0  0  0  0  0
   17.0835  -19.2698  -17.3991 O   0  0  0  0  0  0  0  0  0  0  0  0
   18.2095  -19.6087  -16.6513 C   0  0  0  0  0  0  0  0  0  0  0  0
   19.0153  -18.6391  -16.0976 C   0  0  0  0  0  0  0  0  0  0  0  0
   20.1391  -18.9524  -15.3509 C   0  0  0  0  0  0  0  0  0  0  0  0
   20.4490  -20.2825  -15.1639 C   0  0  0  0  0  0  0  0  0  0  0  0
   21.6270  -20.7055  -14.3901 C   0  0  0  0  0  0  0  0  0  0  0  0
   21.3582  -20.9344  -12.9262 C   0  0  2  0  0  0  0  0  0  0  0  0
   22.5611  -21.3864  -12.2394 N   0  0  0  0  0  0  0  0  0  0  0  0
   20.2047  -21.7875  -12.6399 C   0  0  0  0  0  0  0  0  0  0  0  0
   18.9490  -21.3251  -12.3250 O   0  0  0  0  0  0  0  0  0  0  0  0
   19.6335  -21.2400  -15.7238 C   0  0  0  0  0  0  0  0  0  0  0  0
   18.5166  -20.9380  -16.4660 C   0  0  0  0  0  0  0  0  0  0  0  0
   20.3291  -23.0607  -12.6733 O   0  0  0  0  0  0  0  0  0  0  0  0
  1  2  1  0
  2  3  1  0
  3  4  1  0
  5  4  1  0
  5  6  1  6
  7  5  1  0
  8  7  2  0
 10  9  1  0
 10 12  1  0
 11 10  2  0
 13 12  1  0
 14 13  1  1
 14 15  1  0
 15  7  1  0
 16 25  1  0
 16 14  1  0
 17 16  2  0
 18 19  1  0
 19 29  2  0
 19 20  1  0
 20 21  2  0
 21 22  1  0
 22 23  1  0
 24 23  1  6
 24 25  1  0
 26 24  1  0
 26 27  1  0
 28 22  2  0
 29 28  1  0
 30 26  2  0
M  END
$$$$
