MQY.pdb
     RDKit          3D

 30 30  0  0  1  0  0  0  0  0999 V2000
   26.3696  -17.1096  -20.9538 C   0  0  0  0  0  0  0  0  0  0  0  0
   25.1140  -17.5008  -22.1918 S   0  0  0  0  0  0  0  0  0  0  0  0
   23.5203  -17.8458  -21.4282 C   0  0  0  0  0  0  0  0  0  0  0  0
   23.6066  -18.1005  -19.9661 C   0  0  0  0  0  0  0  0  0  0  0  0
   22.2776  -18.4407  -19.3471 C   0  0  2  0  0  0  0  0  0  0  0  0
   21.7712  -17.1681  -18.8020 N   0  0  0  0  0  0  0  0  0  0  0  0
   22.3863  -19.4490  -18.3094 C   0  0  0  0  0  0  0  0  0  0  0  0
   22.8740  -19.1134  -17.1772 O   0  0  0  0  0  0  0  0  0  0  0  0
   19.6405  -21.7927  -14.7710 N   0  0  0  0  0  0  0  0  0  0  0  0
   20.4134  -22.9799  -14.7111 C   0  0  0  0  0  0  0  0  0  0  0  0
   20.5198  -23.6902  -13.6797 O   0  0  0  0  0  0  0  0  0  0  0  0
   21.1306  -23.3914  -15.9473 C   0  0  0  0  0  0  0  0  0  0  0  0
   20.8765  -22.3811  -17.0639 C   0  0  0  0  0  0  0  0  0  0  0  0
   22.2314  -21.7484  -17.4157 C   0  0  2  0  0  0  0  0  0  0  0  0
   21.9725  -20.8140  -18.4698 N   0  0  0  0  0  0  0  0  0  0  0  0
   23.2282  -22.7762  -17.7135 C   0  0  0  0  0  0  0  0  0  0  0  0
   23.2471  -23.3016  -18.8560 O   0  0  0  0  0  0  0  0  0  0  0  0
   30.3836  -27.9897  -17.2595 O   0  0  0  0  0  0  0  0  0  0  0  0
   29.3678  -27.0818  -16.9664 C   0  0  0  0  0  0  0  0  0  0  0  0
   28.3136  -27.4305  -16.1522 C   0  0  0  0  0  0  0  0  0  0  0  0
   27.2931  -26.5450  -15.8472 C   0  0  0  0  0  0  0  0  0  0  0  0
   27.3474  -25.2763  -16.3833 C   0  0  0  0  0  0  0  0  0  0  0  0
   26.3035  -24.2739  -16.1172 C   0  0  0  0  0  0  0  0  0  0  0  0
   25.1749  -24.2739  -17.1140 C   0  0  2  0  0  0  0  0  0  0  0  0
   24.1988  -23.2397  -16.7970 N   0  0  0  0  0  0  0  0  0  0  0  0
   24.5478  -25.5777  -17.3313 C   0  0  0  0  0  0  0  0  0  0  0  0
   24.8581  -26.4328  -18.3620 O   0  0  0  0  0  0  0  0  0  0  0  0
   28.4079  -24.9428  -17.1954 C   0  0  0  0  0  0  0  0  0  0  0  0
   29.4246  -25.8152  -17.5032 C   0  0  0  0  0  0  0  0  0  0  0  0
   23.6403  -25.9907  -16.5289 O   0  0  0  0  0  0  0  0  0  0  0  0
  1  2  1  0
  2  3  1  0
  3  4  1  0
  5  4  1  0
  5  6  1  1
  7  5  1  0
  8  7  2  0
 10  9  1  0
 10 12  1  0
 11 10  2  0
 13 12  1  0
 14 13  1  6
 14 15  1  0
 15  7  1  0
 16 25  1  0
 16 14  1  0
 17 16  2  0
 18 19  1  0
 19 29  2  0
 19 20  1  0
 20 21  2  0
 21 22  1  0
 22 23  1  0
 24 23  1  1
 24 25  1  0
 26 24  1  0
 26 27  1  0
 28 22  2  0
 29 28  1  0
 30 26  2  0
M  END
$$$$
