MQY.pdb
     RDKit          3D

 30 30  0  0  1  0  0  0  0  0999 V2000
   24.4515  -24.8316  -18.7621 C   0  0  0  0  0  0  0  0  0  0  0  0
   26.0189  -24.2299  -19.4280 S   0  0  0  0  0  0  0  0  0  0  0  0
   26.8471  -23.1272  -18.2703 C   0  0  0  0  0  0  0  0  0  0  0  0
   26.3393  -23.2405  -16.8777 C   0  0  0  0  0  0  0  0  0  0  0  0
   25.8888  -21.9237  -16.3050 C   0  0  2  0  0  0  0  0  0  0  0  0
   27.1146  -21.1116  -16.1995 N   0  0  0  0  0  0  0  0  0  0  0  0
   25.2428  -22.0676  -15.0137 C   0  0  0  0  0  0  0  0  0  0  0  0
   24.1851  -22.7797  -14.9336 O   0  0  0  0  0  0  0  0  0  0  0  0
   27.1335  -20.5069   -9.2188 N   0  0  0  0  0  0  0  0  0  0  0  0
   25.7820  -20.8741   -8.9976 C   0  0  0  0  0  0  0  0  0  0  0  0
   25.2619  -20.9616   -7.8568 O   0  0  0  0  0  0  0  0  0  0  0  0
   24.9493  -21.1683  -10.1943 C   0  0  0  0  0  0  0  0  0  0  0  0
   25.8079  -21.1246  -11.4564 C   0  0  0  0  0  0  0  0  0  0  0  0
   24.8941  -21.4906  -12.6357 C   0  0  2  0  0  0  0  0  0  0  0  0
   25.7213  -21.4604  -13.8044 N   0  0  0  0  0  0  0  0  0  0  0  0
   23.7155  -20.6255  -12.6736 C   0  0  0  0  0  0  0  0  0  0  0  0
   23.8695  -19.3776  -12.6981 O   0  0  0  0  0  0  0  0  0  0  0  0
   17.8070  -17.7106  -18.0341 O   0  0  0  0  0  0  0  0  0  0  0  0
   18.7760  -18.3483  -17.2619 C   0  0  0  0  0  0  0  0  0  0  0  0
   18.9935  -19.7037  -17.3685 C   0  0  0  0  0  0  0  0  0  0  0  0
   19.9508  -20.3588  -16.6114 C   0  0  0  0  0  0  0  0  0  0  0  0
   20.7032  -19.6169  -15.7261 C   0  0  0  0  0  0  0  0  0  0  0  0
   21.7370  -20.2315  -14.8784 C   0  0  0  0  0  0  0  0  0  0  0  0
   21.3155  -20.4561  -13.4503 C   0  0  2  0  0  0  0  0  0  0  0  0
   22.3811  -21.0904  -12.6854 N   0  0  0  0  0  0  0  0  0  0  0  0
   20.0346  -21.1442  -13.2892 C   0  0  0  0  0  0  0  0  0  0  0  0
   18.8514  -20.5272  -12.9588 O   0  0  0  0  0  0  0  0  0  0  0  0
   20.4739  -18.2627  -15.6311 C   0  0  0  0  0  0  0  0  0  0  0  0
   19.5261  -17.6049  -16.3785 C   0  0  0  0  0  0  0  0  0  0  0  0
   19.9654  -22.4109  -13.4582 O   0  0  0  0  0  0  0  0  0  0  0  0
  1  2  1  0
  2  3  1  0
  3  4  1  0
  5  4  1  0
  5  6  1  1
  7  5  1  0
  8  7  2  0
 10  9  1  0
 10 12  1  0
 11 10  2  0
 13 12  1  0
 14 13  1  1
 14 15  1  0
 15  7  1  0
 16 25  1  0
 16 14  1  0
 17 16  2  0
 18 19  1  0
 19 29  2  0
 19 20  1  0
 20 21  2  0
 21 22  1  0
 22 23  1  0
 24 23  1  6
 24 25  1  0
 26 24  1  0
 26 27  1  0
 28 22  2  0
 29 28  1  0
 30 26  2  0
M  END
$$$$
