MQY.pdb
     RDKit          3D

 30 30  0  0  1  0  0  0  0  0999 V2000
   26.2297  -19.6784   -7.4115 C   0  0  0  0  0  0  0  0  0  0  0  0
   27.6491  -20.5992   -8.0438 S   0  0  0  0  0  0  0  0  0  0  0  0
   27.3248  -21.2654   -9.6849 C   0  0  0  0  0  0  0  0  0  0  0  0
   26.3506  -20.4613  -10.4688 C   0  0  0  0  0  0  0  0  0  0  0  0
   26.1194  -21.0014  -11.8543 C   0  0  2  0  0  0  0  0  0  0  0  0
   27.4554  -21.3869  -12.3438 N   0  0  0  0  0  0  0  0  0  0  0  0
   25.4981  -20.0308  -12.7360 C   0  0  0  0  0  0  0  0  0  0  0  0
   24.3291  -19.6025  -12.4495 O   0  0  0  0  0  0  0  0  0  0  0  0
   28.3222  -16.5223  -16.9751 N   0  0  0  0  0  0  0  0  0  0  0  0
   28.2626  -17.9293  -17.1398 C   0  0  0  0  0  0  0  0  0  0  0  0
   28.9925  -18.5684  -17.9388 O   0  0  0  0  0  0  0  0  0  0  0  0
   27.2754  -18.6728  -16.3124 C   0  0  0  0  0  0  0  0  0  0  0  0
   26.5074  -17.7058  -15.4141 C   0  0  0  0  0  0  0  0  0  0  0  0
   25.4247  -18.5236  -14.6938 C   0  0  2  0  0  0  0  0  0  0  0  0
   26.1189  -19.5090  -13.9203 N   0  0  0  0  0  0  0  0  0  0  0  0
   24.4420  -19.0438  -15.6438 C   0  0  0  0  0  0  0  0  0  0  0  0
   24.7462  -20.0273  -16.3662 O   0  0  0  0  0  0  0  0  0  0  0  0
   17.7626  -21.9428  -11.2984 O   0  0  0  0  0  0  0  0  0  0  0  0
   18.8414  -21.3101  -11.9130 C   0  0  0  0  0  0  0  0  0  0  0  0
   19.8874  -22.0349  -12.4386 C   0  0  0  0  0  0  0  0  0  0  0  0
   20.9697  -21.4277  -13.0539 C   0  0  0  0  0  0  0  0  0  0  0  0
   20.9871  -20.0518  -13.1355 C   0  0  0  0  0  0  0  0  0  0  0  0
   22.0996  -19.3238  -13.7662 C   0  0  0  0  0  0  0  0  0  0  0  0
   21.9458  -19.1206  -15.2503 C   0  0  2  0  0  0  0  0  0  0  0  0
   23.1428  -18.5170  -15.8210 N   0  0  0  0  0  0  0  0  0  0  0  0
   20.7274  -18.4166  -15.6506 C   0  0  0  0  0  0  0  0  0  0  0  0
   20.4628  -17.0952  -15.3796 O   0  0  0  0  0  0  0  0  0  0  0  0
   19.9339  -19.3412  -12.6053 C   0  0  0  0  0  0  0  0  0  0  0  0
   18.8561  -19.9356  -11.9932 C   0  0  0  0  0  0  0  0  0  0  0  0
   19.8163  -19.0375  -16.3004 O   0  0  0  0  0  0  0  0  0  0  0  0
  1  2  1  0
  2  3  1  0
  3  4  1  0
  5  4  1  0
  5  6  1  6
  7  5  1  0
  8  7  2  0
 10  9  1  0
 10 12  1  0
 11 10  2  0
 13 12  1  0
 14 13  1  6
 14 15  1  0
 15  7  1  0
 16 25  1  0
 16 14  1  0
 17 16  2  0
 18 19  1  0
 19 29  2  0
 19 20  1  0
 20 21  2  0
 21 22  1  0
 22 23  1  0
 24 23  1  1
 24 25  1  0
 26 24  1  0
 26 27  1  0
 28 22  2  0
 29 28  1  0
 30 26  2  0
M  END
$$$$
