MQY.pdb
     RDKit          3D

 30 30  0  0  1  0  0  0  0  0999 V2000
   27.8856  -16.7892  -15.6133 C   0  0  0  0  0  0  0  0  0  0  0  0
   28.6109  -17.0062  -17.2531 S   0  0  0  0  0  0  0  0  0  0  0  0
   27.3793  -16.8034  -18.5509 C   0  0  0  0  0  0  0  0  0  0  0  0
   26.1447  -17.6004  -18.3258 C   0  0  0  0  0  0  0  0  0  0  0  0
   26.4009  -19.0824  -18.2716 C   0  0  2  0  0  0  0  0  0  0  0  0
   26.7683  -19.4589  -19.6487 N   0  0  0  0  0  0  0  0  0  0  0  0
   25.2465  -19.8326  -17.8133 C   0  0  0  0  0  0  0  0  0  0  0  0
   24.1603  -19.7546  -18.4813 O   0  0  0  0  0  0  0  0  0  0  0  0
   24.8326  -25.1186  -14.6658 N   0  0  0  0  0  0  0  0  0  0  0  0
   23.4795  -24.6975  -14.6191 C   0  0  0  0  0  0  0  0  0  0  0  0
   22.5515  -25.3891  -14.1292 O   0  0  0  0  0  0  0  0  0  0  0  0
   23.1602  -23.3601  -15.1860 C   0  0  0  0  0  0  0  0  0  0  0  0
   24.4441  -22.6425  -15.5964 C   0  0  0  0  0  0  0  0  0  0  0  0
   24.0289  -21.3207  -16.2601 C   0  0  2  0  0  0  0  0  0  0  0  0
   25.2448  -20.6712  -16.6484 N   0  0  0  0  0  0  0  0  0  0  0  0
   23.1518  -20.5466  -15.3825 C   0  0  0  0  0  0  0  0  0  0  0  0
   23.6462  -19.9436  -14.3958 O   0  0  0  0  0  0  0  0  0  0  0  0
   16.6998  -15.1092  -12.9581 O   0  0  0  0  0  0  0  0  0  0  0  0
   17.7535  -15.8617  -13.4734 C   0  0  0  0  0  0  0  0  0  0  0  0
   18.9918  -15.8595  -12.8713 C   0  0  0  0  0  0  0  0  0  0  0  0
   20.0533  -16.5994  -13.3655 C   0  0  0  0  0  0  0  0  0  0  0  0
   19.8492  -17.3582  -14.4981 C   0  0  0  0  0  0  0  0  0  0  0  0
   20.9222  -18.1693  -15.0949 C   0  0  0  0  0  0  0  0  0  0  0  0
   20.9062  -19.6180  -14.6843 C   0  0  2  0  0  0  0  0  0  0  0  0
   21.7556  -20.4172  -15.5578 N   0  0  0  0  0  0  0  0  0  0  0  0
   19.5719  -20.1976  -14.5296 C   0  0  0  0  0  0  0  0  0  0  0  0
   18.8146  -20.1226  -13.3848 O   0  0  0  0  0  0  0  0  0  0  0  0
   18.6055  -17.3499  -15.0885 C   0  0  0  0  0  0  0  0  0  0  0  0
   17.5468  -16.6187  -14.6047 C   0  0  0  0  0  0  0  0  0  0  0  0
   19.0336  -20.8286  -15.5042 O   0  0  0  0  0  0  0  0  0  0  0  0
  1  2  1  0
  2  3  1  0
  3  4  1  0
  5  4  1  0
  5  6  1  6
  7  5  1  0
  8  7  2  0
 10  9  1  0
 10 12  1  0
 11 10  2  0
 13 12  1  0
 14 13  1  1
 14 15  1  0
 15  7  1  0
 16 25  1  0
 16 14  1  0
 17 16  2  0
 18 19  1  0
 19 29  2  0
 19 20  1  0
 20 21  2  0
 21 22  1  0
 22 23  1  0
 24 23  1  6
 24 25  1  0
 26 24  1  0
 26 27  1  0
 28 22  2  0
 29 28  1  0
 30 26  2  0
M  END
$$$$
