MQY.pdb
     RDKit          3D

 30 30  0  0  1  0  0  0  0  0999 V2000
   24.1146  -14.2131  -21.5802 C   0  0  0  0  0  0  0  0  0  0  0  0
   23.5357  -12.8070  -20.6056 S   0  0  0  0  0  0  0  0  0  0  0  0
   21.7448  -12.8259  -20.4203 C   0  0  0  0  0  0  0  0  0  0  0  0
   21.2089  -11.6282  -19.7213 C   0  0  0  0  0  0  0  0  0  0  0  0
   21.9002  -11.3496  -18.4139 C   0  0  2  0  0  0  0  0  0  0  0  0
   21.6971  -12.5656  -17.6056 N   0  0  0  0  0  0  0  0  0  0  0  0
   21.3712  -10.1782  -17.7406 C   0  0  0  0  0  0  0  0  0  0  0  0
   21.3832   -9.0593  -18.3570 O   0  0  0  0  0  0  0  0  0  0  0  0
   17.5288   -9.8843  -12.8629 N   0  0  0  0  0  0  0  0  0  0  0  0
   17.2020  -10.3157  -14.1735 C   0  0  0  0  0  0  0  0  0  0  0  0
   16.1495  -10.9405  -14.4587 O   0  0  0  0  0  0  0  0  0  0  0  0
   18.1707  -10.0020  -15.2575 C   0  0  0  0  0  0  0  0  0  0  0  0
   19.4352   -9.3798  -14.6693 C   0  0  0  0  0  0  0  0  0  0  0  0
   20.3287   -8.9733  -15.8509 C   0  0  2  0  0  0  0  0  0  0  0  0
   20.8237  -10.1936  -16.4139 N   0  0  0  0  0  0  0  0  0  0  0  0
   21.3481   -8.0125  -15.4307 C   0  0  0  0  0  0  0  0  0  0  0  0
   22.5084   -8.4218  -15.1701 O   0  0  0  0  0  0  0  0  0  0  0  0
   27.1315   -1.9280  -17.0932 O   0  0  0  0  0  0  0  0  0  0  0  0
   26.1262   -2.8808  -16.9401 C   0  0  0  0  0  0  0  0  0  0  0  0
   24.8102   -2.5086  -16.7802 C   0  0  0  0  0  0  0  0  0  0  0  0
   23.7946   -3.4378  -16.6263 C   0  0  0  0  0  0  0  0  0  0  0  0
   24.1266   -4.7757  -16.6354 C   0  0  0  0  0  0  0  0  0  0  0  0
   23.1131   -5.8299  -16.4724 C   0  0  0  0  0  0  0  0  0  0  0  0
   22.2020   -5.6370  -15.2891 C   0  0  2  0  0  0  0  0  0  0  0  0
   21.1297   -6.6235  -15.2900 N   0  0  0  0  0  0  0  0  0  0  0  0
   21.6989   -4.2740  -15.1174 C   0  0  0  0  0  0  0  0  0  0  0  0
   22.3452   -3.2845  -14.4154 O   0  0  0  0  0  0  0  0  0  0  0  0
   25.4467   -5.1318  -16.7963 C   0  0  0  0  0  0  0  0  0  0  0  0
   26.4607   -4.2164  -16.9496 C   0  0  0  0  0  0  0  0  0  0  0  0
   20.5811   -3.9360  -15.6409 O   0  0  0  0  0  0  0  0  0  0  0  0
  1  2  1  0
  2  3  1  0
  3  4  1  0
  5  4  1  0
  5  6  1  1
  7  5  1  0
  8  7  2  0
 10  9  1  0
 10 12  1  0
 11 10  2  0
 13 12  1  0
 14 13  1  1
 14 15  1  0
 15  7  1  0
 16 25  1  0
 16 14  1  0
 17 16  2  0
 18 19  1  0
 19 29  2  0
 19 20  1  0
 20 21  2  0
 21 22  1  0
 22 23  1  0
 24 23  1  6
 24 25  1  0
 26 24  1  0
 26 27  1  0
 28 22  2  0
 29 28  1  0
 30 26  2  0
M  END
$$$$
