MQY.pdb
     RDKit          3D

 30 30  0  0  1  0  0  0  0  0999 V2000
   22.7728  -12.7791  -22.7744 C   0  0  0  0  0  0  0  0  0  0  0  0
   22.0550  -14.1726  -21.8772 S   0  0  0  0  0  0  0  0  0  0  0  0
   23.1650  -14.7715  -20.5921 C   0  0  0  0  0  0  0  0  0  0  0  0
   24.0511  -13.7155  -20.0354 C   0  0  0  0  0  0  0  0  0  0  0  0
   23.7207  -13.3585  -18.6112 C   0  0  2  0  0  0  0  0  0  0  0  0
   22.8433  -14.4441  -18.1371 N   0  0  0  0  0  0  0  0  0  0  0  0
   23.0671  -12.0682  -18.4958 C   0  0  0  0  0  0  0  0  0  0  0  0
   23.7182  -11.0197  -18.8256 O   0  0  0  0  0  0  0  0  0  0  0  0
   19.0636   -8.9522  -21.4545 N   0  0  0  0  0  0  0  0  0  0  0  0
   18.6373   -9.7451  -20.3590 C   0  0  0  0  0  0  0  0  0  0  0  0
   17.5205   -9.6142  -19.7977 O   0  0  0  0  0  0  0  0  0  0  0  0
   19.5776  -10.7840  -19.8607 C   0  0  0  0  0  0  0  0  0  0  0  0
   19.6788  -10.7154  -18.3385 C   0  0  0  0  0  0  0  0  0  0  0  0
   21.1682  -10.5680  -17.9924 C   0  0  2  0  0  0  0  0  0  0  0  0
   21.7195  -11.8892  -18.0353 N   0  0  0  0  0  0  0  0  0  0  0  0
   21.3444   -9.8510  -16.7300 C   0  0  0  0  0  0  0  0  0  0  0  0
   20.8444  -10.3259  -15.6783 O   0  0  0  0  0  0  0  0  0  0  0  0
   27.8272  -10.4545  -17.2561 O   0  0  0  0  0  0  0  0  0  0  0  0
   26.7020   -9.9877  -16.5795 C   0  0  0  0  0  0  0  0  0  0  0  0
   26.1814   -8.7396  -16.8390 C   0  0  0  0  0  0  0  0  0  0  0  0
   25.0642   -8.2549  -16.1791 C   0  0  0  0  0  0  0  0  0  0  0  0
   24.4640   -9.0590  -15.2339 C   0  0  0  0  0  0  0  0  0  0  0  0
   23.2775   -8.6221  -14.4811 C   0  0  0  0  0  0  0  0  0  0  0  0
   22.2248   -7.9465  -15.3194 C   0  0  2  0  0  0  0  0  0  0  0  0
   22.0502   -8.6346  -16.5918 N   0  0  0  0  0  0  0  0  0  0  0  0
   22.4084   -6.5053  -15.4912 C   0  0  0  0  0  0  0  0  0  0  0  0
   22.4745   -5.5971  -14.4613 O   0  0  0  0  0  0  0  0  0  0  0  0
   24.9963  -10.3041  -14.9858 C   0  0  0  0  0  0  0  0  0  0  0  0
   26.1044  -10.7929  -15.6360 C   0  0  0  0  0  0  0  0  0  0  0  0
   22.5191   -6.0120  -16.6669 O   0  0  0  0  0  0  0  0  0  0  0  0
  1  2  1  0
  2  3  1  0
  3  4  1  0
  5  4  1  0
  5  6  1  6
  7  5  1  0
  8  7  2  0
 10  9  1  0
 10 12  1  0
 11 10  2  0
 13 12  1  0
 14 13  1  1
 14 15  1  0
 15  7  1  0
 16 25  1  0
 16 14  1  0
 17 16  2  0
 18 19  1  0
 19 29  2  0
 19 20  1  0
 20 21  2  0
 21 22  1  0
 22 23  1  0
 24 23  1  6
 24 25  1  0
 26 24  1  0
 26 27  1  0
 28 22  2  0
 29 28  1  0
 30 26  2  0
M  END
$$$$
