MQY.pdb
     RDKit          3D

 30 30  0  0  1  0  0  0  0  0999 V2000
   27.1946  -18.0223   -5.4569 C   0  0  0  0  0  0  0  0  0  0  0  0
   28.4291  -19.3398   -5.4096 S   0  0  0  0  0  0  0  0  0  0  0  0
   28.2166  -20.4918   -6.7770 C   0  0  0  0  0  0  0  0  0  0  0  0
   27.4621  -19.9187   -7.9227 C   0  0  0  0  0  0  0  0  0  0  0  0
   27.2519  -20.9026   -9.0420 C   0  0  2  0  0  0  0  0  0  0  0  0
   28.6076  -21.2803   -9.4806 N   0  0  0  0  0  0  0  0  0  0  0  0
   26.4824  -20.3452  -10.1387 C   0  0  0  0  0  0  0  0  0  0  0  0
   27.0698  -19.5717  -10.9686 O   0  0  0  0  0  0  0  0  0  0  0  0
   27.2320  -22.0997  -14.2258 N   0  0  0  0  0  0  0  0  0  0  0  0
   25.9444  -21.9610  -14.8032 C   0  0  0  0  0  0  0  0  0  0  0  0
   25.7248  -22.0256  -16.0389 O   0  0  0  0  0  0  0  0  0  0  0  0
   24.8030  -21.7265  -13.8790 C   0  0  0  0  0  0  0  0  0  0  0  0
   25.2844  -21.7559  -12.4301 C   0  0  0  0  0  0  0  0  0  0  0  0
   24.5824  -20.6018  -11.6988 C   0  0  2  0  0  0  0  0  0  0  0  0
   25.0895  -20.6123  -10.3594 N   0  0  0  0  0  0  0  0  0  0  0  0
   23.1292  -20.7083  -11.8246 C   0  0  0  0  0  0  0  0  0  0  0  0
   22.5290  -21.6477  -11.2424 O   0  0  0  0  0  0  0  0  0  0  0  0
   21.8845  -18.1389  -18.6709 O   0  0  0  0  0  0  0  0  0  0  0  0
   21.4770  -18.2826  -17.3460 C   0  0  0  0  0  0  0  0  0  0  0  0
   20.3269  -18.9680  -17.0246 C   0  0  0  0  0  0  0  0  0  0  0  0
   19.9025  -19.1235  -15.7153 C   0  0  0  0  0  0  0  0  0  0  0  0
   20.6665  -18.5686  -14.7110 C   0  0  0  0  0  0  0  0  0  0  0  0
   20.2876  -18.6798  -13.2935 C   0  0  0  0  0  0  0  0  0  0  0  0
   20.8668  -19.8777  -12.5885 C   0  0  2  0  0  0  0  0  0  0  0  0
   22.3224  -19.8172  -12.5675 N   0  0  0  0  0  0  0  0  0  0  0  0
   20.3742  -21.1693  -13.0673 C   0  0  0  0  0  0  0  0  0  0  0  0
   21.1325  -22.0920  -13.7480 O   0  0  0  0  0  0  0  0  0  0  0  0
   21.8137  -17.8863  -15.0484 C   0  0  0  0  0  0  0  0  0  0  0  0
   22.2420  -17.7274  -16.3449 C   0  0  0  0  0  0  0  0  0  0  0  0
   19.1566  -21.5043  -12.8597 O   0  0  0  0  0  0  0  0  0  0  0  0
  1  2  1  0
  2  3  1  0
  3  4  1  0
  5  4  1  0
  5  6  1  6
  7  5  1  0
  8  7  2  0
 10  9  1  0
 10 12  1  0
 11 10  2  0
 13 12  1  0
 14 13  1  6
 14 15  1  0
 15  7  1  0
 16 25  1  0
 16 14  1  0
 17 16  2  0
 18 19  1  0
 19 29  2  0
 19 20  1  0
 20 21  2  0
 21 22  1  0
 22 23  1  0
 24 23  1  6
 24 25  1  0
 26 24  1  0
 26 27  1  0
 28 22  2  0
 29 28  1  0
 30 26  2  0
M  END
$$$$
