MTH.pdb
     RDKit          3D

 26 26  0  0  1  0  0  0  0  0999 V2000
   20.3912  -16.1574  -17.7706 C   0  0  0  0  0  0  0  0  0  0  0  0
   21.6284  -17.4699  -17.4715 S   0  0  0  0  0  0  0  0  0  0  0  0
   23.2698  -16.7367  -17.2300 C   0  0  0  0  0  0  0  0  0  0  0  0
   23.0926  -15.3881  -16.5932 C   0  0  0  0  0  0  0  0  0  0  0  0
   24.3681  -14.6201  -16.4227 C   0  0  2  0  0  0  0  0  0  0  0  0
   25.3577  -15.5643  -15.8802 N   0  0  0  0  0  0  0  0  0  0  0  0
   24.2495  -13.4449  -15.5253 C   0  0  0  0  0  0  0  0  0  0  0  0
   24.3030  -13.5487  -14.2969 O   0  0  0  0  0  0  0  0  0  0  0  0
   26.2742  -10.7648  -14.6356 C   0  0  0  0  0  0  0  0  0  0  0  0
   25.0996  -10.0642  -15.2852 C   0  0  1  0  0  0  0  0  0  0  0  0
   25.4271   -9.5785  -16.5497 O   0  0  0  0  0  0  0  0  0  0  0  0
   23.8711  -10.9398  -15.3170 C   0  0  2  0  0  0  0  0  0  0  0  0
   24.0676  -12.1458  -16.0791 N   0  0  0  0  0  0  0  0  0  0  0  0
   22.7105  -10.1536  -15.7901 C   0  0  0  0  0  0  0  0  0  0  0  0
   22.3117  -10.1447  -16.9727 O   0  0  0  0  0  0  0  0  0  0  0  0
   22.0068   -9.3616  -14.8433 N   0  0  0  0  0  0  0  0  0  0  0  0
   20.8919   -8.5566  -15.3001 C   0  0  1  0  0  0  0  0  0  0  0  0
   19.6046   -8.8378  -14.6030 C   0  0  0  0  0  0  0  0  0  0  0  0
   18.5457   -7.8659  -14.9788 C   0  0  0  0  0  0  0  0  0  0  0  0
   18.6435   -6.8326  -15.9100 C   0  0  0  0  0  0  0  0  0  0  0  0
   17.4988   -6.1697  -15.9826 N   0  0  0  0  0  0  0  0  0  0  0  0
   16.6554   -6.7556  -15.1120 C   0  0  0  0  0  0  0  0  0  0  0  0
   17.2873   -7.7801  -14.5056 N   0  0  0  0  0  0  0  0  0  0  0  0
   21.2497   -7.1207  -15.0338 C   0  0  0  0  0  0  0  0  0  0  0  0
   20.6442   -6.0865  -15.7461 O   0  0  0  0  0  0  0  0  0  0  0  0
   22.1008   -6.7958  -14.1667 O   0  0  0  0  0  0  0  0  0  0  0  0
  1  2  1  0
  3  2  1  0
  4  5  1  0
  4  3  1  0
  5  6  1  1
  5  7  1  0
  7  8  2  0
 10  9  1  6
 10 12  1  0
 10 11  1  0
 13  7  1  0
 12 13  1  6
 14 12  1  0
 14 16  1  0
 15 14  2  0
 16 17  1  0
 17 24  1  0
 17 18  1  1
 19 18  1  0
 20 19  2  0
 21 22  1  0
 21 20  1  0
 22 23  2  0
 23 19  1  0
 24 26  2  0
 24 25  1  0
M  END
$$$$
