MTH.pdb
     RDKit          3D

 26 26  0  0  1  0  0  0  0  0999 V2000
   19.4037  -17.9561  -17.5741 C   0  0  0  0  0  0  0  0  0  0  0  0
   17.6313  -17.7973  -17.9933 S   0  0  0  0  0  0  0  0  0  0  0  0
   17.0159  -16.1656  -17.4942 C   0  0  0  0  0  0  0  0  0  0  0  0
   17.8379  -15.1202  -18.1921 C   0  0  0  0  0  0  0  0  0  0  0  0
   18.8353  -14.4357  -17.3076 C   0  0  2  0  0  0  0  0  0  0  0  0
   18.3752  -14.6334  -15.9240 N   0  0  0  0  0  0  0  0  0  0  0  0
   18.9920  -12.9867  -17.5833 C   0  0  0  0  0  0  0  0  0  0  0  0
   19.3773  -12.5642  -18.6768 O   0  0  0  0  0  0  0  0  0  0  0  0
   16.8685  -10.3615  -18.3275 C   0  0  0  0  0  0  0  0  0  0  0  0
   17.4277   -9.9715  -16.9755 C   0  0  1  0  0  0  0  0  0  0  0  0
   16.5223  -10.2369  -15.9498 O   0  0  0  0  0  0  0  0  0  0  0  0
   18.7728  -10.6057  -16.7200 C   0  0  2  0  0  0  0  0  0  0  0  0
   18.6933  -12.0354  -16.5668 N   0  0  0  0  0  0  0  0  0  0  0  0
   19.4232   -9.9476  -15.5654 C   0  0  0  0  0  0  0  0  0  0  0  0
   19.4894  -10.4500  -14.4249 O   0  0  0  0  0  0  0  0  0  0  0  0
   20.0077   -8.6682  -15.7653 N   0  0  0  0  0  0  0  0  0  0  0  0
   20.6775   -8.0267  -14.6518 C   0  0  1  0  0  0  0  0  0  0  0  0
   21.9282   -8.7081  -14.2119 C   0  0  0  0  0  0  0  0  0  0  0  0
   22.8449   -8.9750  -15.3502 C   0  0  0  0  0  0  0  0  0  0  0  0
   22.6445   -8.6401  -16.6888 C   0  0  0  0  0  0  0  0  0  0  0  0
   23.6755   -9.0358  -17.4207 N   0  0  0  0  0  0  0  0  0  0  0  0
   24.5457   -9.6242  -16.5788 C   0  0  0  0  0  0  0  0  0  0  0  0
   24.0445   -9.5876  -15.3282 N   0  0  0  0  0  0  0  0  0  0  0  0
   21.0482   -6.6410  -15.1024 C   0  0  0  0  0  0  0  0  0  0  0  0
   20.8586   -6.2419  -16.4247 O   0  0  0  0  0  0  0  0  0  0  0  0
   21.5396   -5.7931  -14.3142 O   0  0  0  0  0  0  0  0  0  0  0  0
  1  2  1  0
  3  2  1  0
  4  5  1  0
  4  3  1  0
  5  6  1  1
  5  7  1  0
  7  8  2  0
 10  9  1  6
 10 12  1  0
 10 11  1  0
 13  7  1  0
 12 13  1  1
 14 12  1  0
 14 16  1  0
 15 14  2  0
 16 17  1  0
 17 24  1  0
 17 18  1  6
 19 18  1  0
 20 19  2  0
 21 22  1  0
 21 20  1  0
 22 23  2  0
 23 19  1  0
 24 26  2  0
 24 25  1  0
M  END
$$$$
