MTH.pdb
     RDKit          3D

 26 26  0  0  1  0  0  0  0  0999 V2000
   19.9657  -15.4672  -18.6764 C   0  0  0  0  0  0  0  0  0  0  0  0
   21.4361  -15.9665  -19.6413 S   0  0  0  0  0  0  0  0  0  0  0  0
   22.1728  -14.5194  -20.4496 C   0  0  0  0  0  0  0  0  0  0  0  0
   21.9352  -13.3215  -19.5753 C   0  0  0  0  0  0  0  0  0  0  0  0
   22.4284  -12.0320  -20.1579 C   0  0  2  0  0  0  0  0  0  0  0  0
   23.7294  -12.3227  -20.7807 N   0  0  0  0  0  0  0  0  0  0  0  0
   22.5787  -10.9399  -19.1653 C   0  0  0  0  0  0  0  0  0  0  0  0
   23.5888  -10.8223  -18.4664 O   0  0  0  0  0  0  0  0  0  0  0  0
   22.6530   -7.3671  -19.8154 C   0  0  0  0  0  0  0  0  0  0  0  0
   21.5074   -7.5357  -18.8398 C   0  0  1  0  0  0  0  0  0  0  0  0
   20.2734   -7.3521  -19.4607 O   0  0  0  0  0  0  0  0  0  0  0  0
   21.5817   -8.8537  -18.1089 C   0  0  2  0  0  0  0  0  0  0  0  0
   21.5352   -9.9857  -18.9978 N   0  0  0  0  0  0  0  0  0  0  0  0
   20.5309   -8.9069  -17.0687 C   0  0  0  0  0  0  0  0  0  0  0  0
   19.6279   -9.7678  -17.0353 O   0  0  0  0  0  0  0  0  0  0  0  0
   20.5498   -7.9206  -16.0462 N   0  0  0  0  0  0  0  0  0  0  0  0
   19.5569   -7.9901  -14.9929 C   0  0  1  0  0  0  0  0  0  0  0  0
   19.6858   -9.1801  -14.1046 C   0  0  0  0  0  0  0  0  0  0  0  0
   18.6738   -9.1734  -13.0168 C   0  0  0  0  0  0  0  0  0  0  0  0
   17.6878   -8.2138  -12.7904 C   0  0  0  0  0  0  0  0  0  0  0  0
   16.9667   -8.5380  -11.7273 N   0  0  0  0  0  0  0  0  0  0  0  0
   17.4681   -9.6955  -11.2569 C   0  0  0  0  0  0  0  0  0  0  0  0
   18.4991  -10.0795  -12.0355 N   0  0  0  0  0  0  0  0  0  0  0  0
   19.7352   -6.7643  -14.1407 C   0  0  0  0  0  0  0  0  0  0  0  0
   18.6801   -6.2573  -13.3835 O   0  0  0  0  0  0  0  0  0  0  0  0
   20.8315   -6.1515  -14.0758 O   0  0  0  0  0  0  0  0  0  0  0  0
  1  2  1  0
  3  2  1  0
  4  5  1  0
  4  3  1  0
  5  6  1  1
  5  7  1  0
  7  8  2  0
 10  9  1  6
 10 12  1  0
 10 11  1  0
 13  7  1  0
 12 13  1  6
 14 12  1  0
 14 16  1  0
 15 14  2  0
 16 17  1  0
 17 24  1  0
 17 18  1  1
 19 18  1  0
 20 19  2  0
 21 22  1  0
 21 20  1  0
 22 23  2  0
 23 19  1  0
 24 26  2  0
 24 25  1  0
M  END
$$$$
