MTH.pdb
     RDKit          3D

 26 26  0  0  1  0  0  0  0  0999 V2000
   29.4893  -15.2147  -16.1766 C   0  0  0  0  0  0  0  0  0  0  0  0
   28.7710  -13.6070  -15.6848 S   0  0  0  0  0  0  0  0  0  0  0  0
   28.3762  -12.6235  -17.1569 C   0  0  0  0  0  0  0  0  0  0  0  0
   27.8204  -11.3036  -16.7046 C   0  0  0  0  0  0  0  0  0  0  0  0
   27.4625  -10.3748  -17.8249 C   0  0  2  0  0  0  0  0  0  0  0  0
   28.7228  -10.0234  -18.4982 N   0  0  0  0  0  0  0  0  0  0  0  0
   26.7656   -9.1410  -17.3864 C   0  0  0  0  0  0  0  0  0  0  0  0
   27.3468   -8.2405  -16.7749 O   0  0  0  0  0  0  0  0  0  0  0  0
   25.6411   -6.2445  -18.9070 C   0  0  0  0  0  0  0  0  0  0  0  0
   24.3514   -6.8712  -18.4204 C   0  0  1  0  0  0  0  0  0  0  0  0
   23.6432   -7.4638  -19.4640 O   0  0  0  0  0  0  0  0  0  0  0  0
   24.5889   -7.8320  -17.2814 C   0  0  2  0  0  0  0  0  0  0  0  0
   25.3807   -8.9703  -17.6702 N   0  0  0  0  0  0  0  0  0  0  0  0
   23.2946   -8.2214  -16.6795 C   0  0  0  0  0  0  0  0  0  0  0  0
   22.7727   -9.3463  -16.8195 O   0  0  0  0  0  0  0  0  0  0  0  0
   22.6040   -7.2590  -15.8949 N   0  0  0  0  0  0  0  0  0  0  0  0
   21.3712   -7.6488  -15.2406 C   0  0  1  0  0  0  0  0  0  0  0  0
   21.5436   -8.1252  -13.8387 C   0  0  0  0  0  0  0  0  0  0  0  0
   20.2452   -8.4762  -13.2078 C   0  0  0  0  0  0  0  0  0  0  0  0
   18.9838   -8.4399  -13.8012 C   0  0  0  0  0  0  0  0  0  0  0  0
   18.0571   -8.8205  -12.9342 N   0  0  0  0  0  0  0  0  0  0  0  0
   18.6958   -9.1046  -11.7836 C   0  0  0  0  0  0  0  0  0  0  0  0
   20.0172   -8.8968  -11.9485 N   0  0  0  0  0  0  0  0  0  0  0  0
   20.4908   -6.4305  -15.2024 C   0  0  0  0  0  0  0  0  0  0  0  0
   19.1025   -6.5466  -15.2546 O   0  0  0  0  0  0  0  0  0  0  0  0
   20.9647   -5.2682  -15.1226 O   0  0  0  0  0  0  0  0  0  0  0  0
  1  2  1  0
  3  2  1  0
  4  5  1  0
  4  3  1  0
  5  6  1  1
  5  7  1  0
  7  8  2  0
 10  9  1  6
 10 12  1  0
 10 11  1  0
 13  7  1  0
 12 13  1  6
 14 12  1  0
 14 16  1  0
 15 14  2  0
 16 17  1  0
 17 24  1  0
 17 18  1  1
 19 18  1  0
 20 19  2  0
 21 22  1  0
 21 20  1  0
 22 23  2  0
 23 19  1  0
 24 26  2  0
 24 25  1  0
M  END
$$$$
