MTH.pdb
     RDKit          3D

 26 26  0  0  1  0  0  0  0  0999 V2000
   21.1498  -17.5291  -13.9413 C   0  0  0  0  0  0  0  0  0  0  0  0
   21.1020  -18.1169  -15.6718 S   0  0  0  0  0  0  0  0  0  0  0  0
   19.7623  -17.2918  -16.5743 C   0  0  0  0  0  0  0  0  0  0  0  0
   20.0302  -15.8140  -16.5647 C   0  0  0  0  0  0  0  0  0  0  0  0
   18.9436  -14.9917  -17.1880 C   0  0  2  0  0  0  0  0  0  0  0  0
   18.4069  -15.7830  -18.3065 N   0  0  0  0  0  0  0  0  0  0  0  0
   19.3961  -13.6676  -17.6804 C   0  0  0  0  0  0  0  0  0  0  0  0
   19.4241  -13.3883  -18.8820 O   0  0  0  0  0  0  0  0  0  0  0  0
   18.4606  -11.1478  -18.9454 C   0  0  0  0  0  0  0  0  0  0  0  0
   18.9469  -10.5541  -17.6401 C   0  0  1  0  0  0  0  0  0  0  0  0
   17.9156  -10.4480  -16.7089 O   0  0  0  0  0  0  0  0  0  0  0  0
   20.1318  -11.3076  -17.0875 C   0  0  2  0  0  0  0  0  0  0  0  0
   19.8160  -12.6721  -16.7529 N   0  0  0  0  0  0  0  0  0  0  0  0
   20.7078  -10.5632  -15.9460 C   0  0  0  0  0  0  0  0  0  0  0  0
   20.3900  -10.7605  -14.7553 O   0  0  0  0  0  0  0  0  0  0  0  0
   21.6807   -9.5646  -16.2197 N   0  0  0  0  0  0  0  0  0  0  0  0
   22.2651   -8.8388  -15.1098 C   0  0  1  0  0  0  0  0  0  0  0  0
   23.6839   -8.4328  -15.3202 C   0  0  0  0  0  0  0  0  0  0  0  0
   24.6082   -9.5945  -15.2637 C   0  0  0  0  0  0  0  0  0  0  0  0
   24.2834  -10.9142  -14.9516 C   0  0  0  0  0  0  0  0  0  0  0  0
   25.3653  -11.6773  -15.0000 N   0  0  0  0  0  0  0  0  0  0  0  0
   26.3914  -10.8744  -15.3391 C   0  0  0  0  0  0  0  0  0  0  0  0
   25.9345   -9.6165  -15.4984 N   0  0  0  0  0  0  0  0  0  0  0  0
   21.4546   -7.5852  -14.9304 C   0  0  0  0  0  0  0  0  0  0  0  0
   21.5357   -6.8406  -13.7545 O   0  0  0  0  0  0  0  0  0  0  0  0
   20.6779   -7.1602  -15.8236 O   0  0  0  0  0  0  0  0  0  0  0  0
  1  2  1  0
  3  2  1  0
  4  5  1  0
  4  3  1  0
  5  6  1  6
  5  7  1  0
  7  8  2  0
 10  9  1  6
 10 12  1  0
 10 11  1  0
 13  7  1  0
 12 13  1  1
 14 12  1  0
 14 16  1  0
 15 14  2  0
 16 17  1  0
 17 24  1  0
 17 18  1  6
 19 18  1  0
 20 19  2  0
 21 22  1  0
 21 20  1  0
 22 23  2  0
 23 19  1  0
 24 26  2  0
 24 25  1  0
M  END
$$$$
