MTH.pdb
     RDKit          3D

 26 26  0  0  1  0  0  0  0  0999 V2000
   26.8167  -18.8273  -17.5161 C   0  0  0  0  0  0  0  0  0  0  0  0
   27.5085  -18.8722  -15.8244 S   0  0  0  0  0  0  0  0  0  0  0  0
   26.5832  -17.7486  -14.7420 C   0  0  0  0  0  0  0  0  0  0  0  0
   25.6527  -18.5709  -13.8971 C   0  0  0  0  0  0  0  0  0  0  0  0
   24.5918  -19.2873  -14.6761 C   0  0  2  0  0  0  0  0  0  0  0  0
   23.8220  -18.2539  -15.3866 N   0  0  0  0  0  0  0  0  0  0  0  0
   23.6808  -20.1081  -13.8413 C   0  0  0  0  0  0  0  0  0  0  0  0
   24.0936  -21.0229  -13.1234 O   0  0  0  0  0  0  0  0  0  0  0  0
   21.6057  -19.4466  -10.9392 C   0  0  0  0  0  0  0  0  0  0  0  0
   20.6292  -19.8101  -12.0379 C   0  0  1  0  0  0  0  0  0  0  0  0
   19.9719  -18.6855  -12.5329 O   0  0  0  0  0  0  0  0  0  0  0  0
   21.2902  -20.6071  -13.1355 C   0  0  2  0  0  0  0  0  0  0  0  0
   22.2808  -19.8483  -13.8542 N   0  0  0  0  0  0  0  0  0  0  0  0
   20.2576  -21.1788  -14.0277 C   0  0  0  0  0  0  0  0  0  0  0  0
   20.0434  -20.7783  -15.1901 O   0  0  0  0  0  0  0  0  0  0  0  0
   19.4621  -22.2473  -13.5335 N   0  0  0  0  0  0  0  0  0  0  0  0
   18.4392  -22.8093  -14.3925 C   0  0  1  0  0  0  0  0  0  0  0  0
   17.8295  -24.0688  -13.8790 C   0  0  0  0  0  0  0  0  0  0  0  0
   16.8654  -24.6537  -14.8462 C   0  0  0  0  0  0  0  0  0  0  0  0
   16.9953  -24.7120  -16.2334 C   0  0  0  0  0  0  0  0  0  0  0  0
   15.9389  -25.3054  -16.7692 N   0  0  0  0  0  0  0  0  0  0  0  0
   15.1215  -25.6350  -15.7515 C   0  0  0  0  0  0  0  0  0  0  0  0
   15.6807  -25.2416  -14.5900 N   0  0  0  0  0  0  0  0  0  0  0  0
   17.3446  -21.7841  -14.4994 C   0  0  0  0  0  0  0  0  0  0  0  0
   16.6307  -21.6178  -15.6853 O   0  0  0  0  0  0  0  0  0  0  0  0
   17.0304  -21.0416  -13.5341 O   0  0  0  0  0  0  0  0  0  0  0  0
  1  2  1  0
  3  2  1  0
  4  5  1  0
  4  3  1  0
  5  6  1  1
  5  7  1  0
  7  8  2  0
 10  9  1  1
 10 12  1  0
 10 11  1  0
 13  7  1  0
 12 13  1  6
 14 12  1  0
 14 16  1  0
 15 14  2  0
 16 17  1  0
 17 24  1  0
 17 18  1  1
 19 18  1  0
 20 19  2  0
 21 22  1  0
 21 20  1  0
 22 23  2  0
 23 19  1  0
 24 26  2  0
 24 25  1  0
M  END
$$$$
