QPE.pdb
     RDKit          3D

 26 26  0  0  1  0  0  0  0  0999 V2000
    5.6382  -17.6263   23.1484 N   0  0  0  0  0  0  0  0  0  0  0  0
    6.5887  -17.6264   22.0863 C   0  0  0  0  0  0  0  0  0  0  0  0
    7.2775  -18.6675   21.9712 O   0  0  0  0  0  0  0  0  0  0  0  0
    6.7715  -16.5077   21.1725 C   0  0  0  0  0  0  0  0  0  0  0  0
    6.1654  -15.2035   21.5239 C   0  0  0  0  0  0  0  0  0  0  0  0
    7.0815  -14.0285   21.6182 C   0  0  2  0  0  0  0  0  0  0  0  0
    7.7568  -13.8311   20.3494 N   0  0  0  0  0  0  0  0  0  0  0  0
    8.0236  -14.0421   22.7358 C   0  0  0  0  0  0  0  0  0  0  0  0
    9.2695  -14.1476   22.4221 O   0  0  0  0  0  0  0  0  0  0  0  0
    7.6776  -13.9482   24.0881 N   0  0  0  0  0  0  0  0  0  0  0  0
    6.2894  -13.8178   24.5659 C   0  0  0  0  0  0  0  0  0  0  0  0
    6.4545  -12.7503   25.6254 C   0  0  0  0  0  0  0  0  0  0  0  0
    7.7837  -13.1125   26.2577 C   0  0  0  0  0  0  0  0  0  0  0  0
    8.5116  -13.9850   25.2469 C   0  0  1  0  0  0  0  0  0  0  0  0
    8.6908  -15.3709   25.7702 C   0  0  0  0  0  0  0  0  0  0  0  0
    7.6866  -16.1309   25.8046 O   0  0  0  0  0  0  0  0  0  0  0  0
    9.9163  -15.8720   26.2249 N   0  0  0  0  0  0  0  0  0  0  0  0
   10.1457  -17.3291   26.4926 C   0  0  1  0  0  0  0  0  0  0  0  0
   11.4171  -17.6555   25.7923 C   0  0  0  0  0  0  0  0  0  0  0  0
   11.5325  -17.5705   24.3384 C   0  0  0  0  0  0  0  0  0  0  0  0
   12.8623  -17.7757   23.7614 C   0  0  0  0  0  0  0  0  0  0  0  0
   13.8754  -17.8158   24.5180 O   0  0  0  0  0  0  0  0  0  0  0  0
   10.2535  -17.4135   27.9463 C   0  0  0  0  0  0  0  0  0  0  0  0
   10.3032  -18.6448   28.5848 O   0  0  0  0  0  0  0  0  0  0  0  0
   13.0663  -17.9333   22.3997 O   0  0  0  0  0  0  0  0  0  0  0  0
   10.3053  -16.4098   28.6756 O   0  0  0  0  0  0  0  0  0  0  0  0
  2  1  1  0
  3  2  2  0
  4  2  1  0
  5  6  1  0
  5  4  1  0
  6  8  1  0
  6  7  1  6
  8 10  1  0
  9  8  2  0
 10 11  1  0
 10 14  1  0
 11 12  1  0
 12 13  1  0
 14 13  1  0
 14 15  1  1
 15 16  2  0
 17 15  1  0
 18 17  1  0
 18 19  1  6
 20 21  1  0
 20 19  1  0
 21 25  1  0
 22 21  2  0
 23 18  1  0
 24 23  1  0
 26 23  2  0
M  END
$$$$
