QPE.pdb
     RDKit          3D

 26 26  0  0  1  0  0  0  0  0999 V2000
    6.9163  -18.4452   18.3525 N   0  0  0  0  0  0  0  0  0  0  0  0
    8.0119  -18.6972   17.4761 C   0  0  0  0  0  0  0  0  0  0  0  0
    8.6784  -19.7306   17.7197 O   0  0  0  0  0  0  0  0  0  0  0  0
    8.3603  -17.8326   16.3576 C   0  0  0  0  0  0  0  0  0  0  0  0
    7.6274  -16.5562   16.1976 C   0  0  0  0  0  0  0  0  0  0  0  0
    8.4406  -15.3290   15.9487 C   0  0  2  0  0  0  0  0  0  0  0  0
    9.2087  -15.4900   14.7284 N   0  0  0  0  0  0  0  0  0  0  0  0
    9.2783  -14.8825   17.0602 C   0  0  0  0  0  0  0  0  0  0  0  0
   10.5500  -15.0190   16.8984 O   0  0  0  0  0  0  0  0  0  0  0  0
    8.8096  -14.3287   18.2563 N   0  0  0  0  0  0  0  0  0  0  0  0
    7.3845  -14.2865   18.6302 C   0  0  0  0  0  0  0  0  0  0  0  0
    7.2755  -12.8766   19.1686 C   0  0  0  0  0  0  0  0  0  0  0  0
    8.5895  -12.6989   19.9031 C   0  0  0  0  0  0  0  0  0  0  0  0
    9.5378  -13.7444   19.3370 C   0  0  1  0  0  0  0  0  0  0  0  0
    9.9071  -14.7483   20.3775 C   0  0  0  0  0  0  0  0  0  0  0  0
    9.1527  -15.7439   20.5412 O   0  0  0  0  0  0  0  0  0  0  0  0
   11.0480  -14.6427   21.1817 N   0  0  0  0  0  0  0  0  0  0  0  0
   11.6432  -15.8161   21.9001 C   0  0  1  0  0  0  0  0  0  0  0  0
   13.1068  -15.5500   21.9293 C   0  0  0  0  0  0  0  0  0  0  0  0
   14.0234  -16.4005   22.6847 C   0  0  0  0  0  0  0  0  0  0  0  0
   15.4453  -16.0549   22.6390 C   0  0  0  0  0  0  0  0  0  0  0  0
   15.8424  -15.1317   21.8707 O   0  0  0  0  0  0  0  0  0  0  0  0
   11.0266  -15.7766   23.2230 C   0  0  0  0  0  0  0  0  0  0  0  0
   10.2774  -14.6797   23.6253 O   0  0  0  0  0  0  0  0  0  0  0  0
   16.3938  -16.7026   23.4147 O   0  0  0  0  0  0  0  0  0  0  0  0
   11.1363  -16.7023   24.0435 O   0  0  0  0  0  0  0  0  0  0  0  0
  2  1  1  0
  3  2  2  0
  4  2  1  0
  5  6  1  0
  5  4  1  0
  6  8  1  0
  6  7  1  6
  8 10  1  0
  9  8  2  0
 10 11  1  0
 10 14  1  0
 11 12  1  0
 12 13  1  0
 14 13  1  0
 14 15  1  1
 15 16  2  0
 17 15  1  0
 18 17  1  0
 18 19  1  1
 20 21  1  0
 20 19  1  0
 21 25  1  0
 22 21  2  0
 23 18  1  0
 24 23  1  0
 26 23  2  0
M  END
$$$$
