QPE.pdb
     RDKit          3D

 26 26  0  0  1  0  0  0  0  0999 V2000
    5.8461  -18.9036   17.3749 N   0  0  0  0  0  0  0  0  0  0  0  0
    7.2525  -18.9491   17.6021 C   0  0  0  0  0  0  0  0  0  0  0  0
    7.6810  -19.9852   18.1627 O   0  0  0  0  0  0  0  0  0  0  0  0
    8.1628  -17.8799   17.2168 C   0  0  0  0  0  0  0  0  0  0  0  0
    7.6071  -16.6965   16.5220 C   0  0  0  0  0  0  0  0  0  0  0  0
    8.5271  -15.5421   16.2986 C   0  0  2  0  0  0  0  0  0  0  0  0
    9.3820  -15.8110   15.1577 N   0  0  0  0  0  0  0  0  0  0  0  0
    9.2982  -15.1065   17.4615 C   0  0  0  0  0  0  0  0  0  0  0  0
   10.5705  -15.3052   17.4013 O   0  0  0  0  0  0  0  0  0  0  0  0
    8.7668  -14.5016   18.6055 N   0  0  0  0  0  0  0  0  0  0  0  0
    7.3215  -14.4000   18.8757 C   0  0  0  0  0  0  0  0  0  0  0  0
    7.2256  -12.9717   19.3660 C   0  0  0  0  0  0  0  0  0  0  0  0
    8.4902  -12.8166   20.1871 C   0  0  0  0  0  0  0  0  0  0  0  0
    9.4378  -13.9102   19.7189 C   0  0  1  0  0  0  0  0  0  0  0  0
    9.6969  -14.8944   20.8102 C   0  0  0  0  0  0  0  0  0  0  0  0
    8.9086  -15.8691   20.9349 O   0  0  0  0  0  0  0  0  0  0  0  0
   10.7701  -14.7923   21.7032 N   0  0  0  0  0  0  0  0  0  0  0  0
   11.2271  -15.9390   22.5538 C   0  0  1  0  0  0  0  0  0  0  0  0
   12.6873  -15.7237   22.7411 C   0  0  0  0  0  0  0  0  0  0  0  0
   13.4677  -16.5406   23.6673 C   0  0  0  0  0  0  0  0  0  0  0  0
   14.8959  -16.2399   23.7817 C   0  0  0  0  0  0  0  0  0  0  0  0
   15.4125  -15.3556   23.0391 O   0  0  0  0  0  0  0  0  0  0  0  0
   10.4629  -15.7953   23.7896 C   0  0  0  0  0  0  0  0  0  0  0  0
   10.3774  -16.8410   24.6980 O   0  0  0  0  0  0  0  0  0  0  0  0
   15.7232  -16.8894   24.6843 O   0  0  0  0  0  0  0  0  0  0  0  0
    9.8601  -14.7517   24.0892 O   0  0  0  0  0  0  0  0  0  0  0  0
  2  1  1  0
  3  2  2  0
  4  2  1  0
  5  6  1  0
  5  4  1  0
  6  8  1  0
  6  7  1  6
  8 10  1  0
  9  8  2  0
 10 11  1  0
 10 14  1  0
 11 12  1  0
 12 13  1  0
 14 13  1  0
 14 15  1  1
 15 16  2  0
 17 15  1  0
 18 17  1  0
 18 19  1  1
 20 21  1  0
 20 19  1  0
 21 25  1  0
 22 21  2  0
 23 18  1  0
 24 23  1  0
 26 23  2  0
M  END
$$$$
