QPE.pdb
     RDKit          3D

 26 26  0  0  1  0  0  0  0  0999 V2000
    8.1046  -19.7657   15.8838 N   0  0  0  0  0  0  0  0  0  0  0  0
    7.2050  -18.9629   15.1236 C   0  0  0  0  0  0  0  0  0  0  0  0
    6.5180  -19.5725   14.2704 O   0  0  0  0  0  0  0  0  0  0  0  0
    7.0648  -17.5248   15.3032 C   0  0  0  0  0  0  0  0  0  0  0  0
    7.8320  -16.8713   16.3878 C   0  0  0  0  0  0  0  0  0  0  0  0
    8.5227  -15.5894   16.0583 C   0  0  2  0  0  0  0  0  0  0  0  0
    9.2517  -15.7324   14.8121 N   0  0  0  0  0  0  0  0  0  0  0  0
    9.3624  -15.0273   17.1146 C   0  0  0  0  0  0  0  0  0  0  0  0
   10.6351  -15.1055   16.9251 O   0  0  0  0  0  0  0  0  0  0  0  0
    8.8942  -14.4230   18.2863 N   0  0  0  0  0  0  0  0  0  0  0  0
    7.4707  -14.3776   18.6658 C   0  0  0  0  0  0  0  0  0  0  0  0
    7.3500  -12.9453   19.1385 C   0  0  0  0  0  0  0  0  0  0  0  0
    8.6659  -12.7205   19.8566 C   0  0  0  0  0  0  0  0  0  0  0  0
    9.6218  -13.7818   19.3345 C   0  0  1  0  0  0  0  0  0  0  0  0
   10.0067  -14.7323   20.4186 C   0  0  0  0  0  0  0  0  0  0  0  0
    9.2594  -15.7228   20.6375 O   0  0  0  0  0  0  0  0  0  0  0  0
   11.1546  -14.5822   21.2054 N   0  0  0  0  0  0  0  0  0  0  0  0
   11.7644  -15.7170   21.9721 C   0  0  1  0  0  0  0  0  0  0  0  0
   13.1996  -15.3549   22.1229 C   0  0  0  0  0  0  0  0  0  0  0  0
   14.1198  -16.1841   22.8974 C   0  0  0  0  0  0  0  0  0  0  0  0
   15.5089  -15.7314   22.9903 C   0  0  0  0  0  0  0  0  0  0  0  0
   15.9066  -14.7735   22.2661 O   0  0  0  0  0  0  0  0  0  0  0  0
   11.0385  -15.7244   23.2390 C   0  0  0  0  0  0  0  0  0  0  0  0
   11.1203  -16.8109   24.0986 O   0  0  0  0  0  0  0  0  0  0  0  0
   16.4250  -16.3128   23.8527 O   0  0  0  0  0  0  0  0  0  0  0  0
   10.3231  -14.7791   23.6090 O   0  0  0  0  0  0  0  0  0  0  0  0
  2  1  1  0
  3  2  2  0
  4  2  1  0
  5  6  1  0
  5  4  1  0
  6  8  1  0
  6  7  1  6
  8 10  1  0
  9  8  2  0
 10 11  1  0
 10 14  1  0
 11 12  1  0
 12 13  1  0
 14 13  1  0
 14 15  1  1
 15 16  2  0
 17 15  1  0
 18 17  1  0
 18 19  1  1
 20 21  1  0
 20 19  1  0
 21 25  1  0
 22 21  2  0
 23 18  1  0
 24 23  1  0
 26 23  2  0
M  END
$$$$
