QPE.pdb
     RDKit          3D

 26 26  0  0  1  0  0  0  0  0999 V2000
    5.0289  -18.0569   21.4857 N   0  0  0  0  0  0  0  0  0  0  0  0
    6.1868  -18.0307   22.3165 C   0  0  0  0  0  0  0  0  0  0  0  0
    6.7657  -19.1305   22.4799 O   0  0  0  0  0  0  0  0  0  0  0  0
    6.6946  -16.8207   22.9476 C   0  0  0  0  0  0  0  0  0  0  0  0
    6.0628  -15.5269   22.6030 C   0  0  0  0  0  0  0  0  0  0  0  0
    6.9595  -14.3389   22.4872 C   0  0  2  0  0  0  0  0  0  0  0  0
    7.6315  -14.3562   21.2015 N   0  0  0  0  0  0  0  0  0  0  0  0
    7.9017  -14.1412   23.5872 C   0  0  0  0  0  0  0  0  0  0  0  0
    9.1416  -14.3653   23.3151 O   0  0  0  0  0  0  0  0  0  0  0  0
    7.5617  -13.7332   24.8815 N   0  0  0  0  0  0  0  0  0  0  0  0
    6.1720  -13.5776   25.3472 C   0  0  0  0  0  0  0  0  0  0  0  0
    6.2717  -12.2697   26.1014 C   0  0  0  0  0  0  0  0  0  0  0  0
    7.6283  -12.3740   26.7696 C   0  0  0  0  0  0  0  0  0  0  0  0
    8.4063  -13.4232   25.9906 C   0  0  1  0  0  0  0  0  0  0  0  0
    8.6860  -14.6185   26.8392 C   0  0  0  0  0  0  0  0  0  0  0  0
    7.7519  -15.4395   27.0409 O   0  0  0  0  0  0  0  0  0  0  0  0
    9.9318  -14.8764   27.4230 N   0  0  0  0  0  0  0  0  0  0  0  0
   10.3684  -16.2534   27.8236 C   0  0  1  0  0  0  0  0  0  0  0  0
   11.6711  -16.4616   27.1357 C   0  0  0  0  0  0  0  0  0  0  0  0
   12.4787  -17.6556   27.3733 C   0  0  0  0  0  0  0  0  0  0  0  0
   13.7458  -17.7595   26.6474 C   0  0  0  0  0  0  0  0  0  0  0  0
   14.2440  -16.7314   26.1042 O   0  0  0  0  0  0  0  0  0  0  0  0
   10.4921  -16.1814   29.2767 C   0  0  0  0  0  0  0  0  0  0  0  0
   10.7208  -17.3256   30.0281 O   0  0  0  0  0  0  0  0  0  0  0  0
   14.4389  -18.9536   26.5275 O   0  0  0  0  0  0  0  0  0  0  0  0
   10.4012  -15.1151   29.9067 O   0  0  0  0  0  0  0  0  0  0  0  0
  2  1  1  0
  3  2  2  0
  4  2  1  0
  5  6  1  0
  5  4  1  0
  6  8  1  0
  6  7  1  6
  8 10  1  0
  9  8  2  0
 10 11  1  0
 10 14  1  0
 11 12  1  0
 12 13  1  0
 14 13  1  0
 14 15  1  1
 15 16  2  0
 17 15  1  0
 18 17  1  0
 18 19  1  6
 20 21  1  0
 20 19  1  0
 21 25  1  0
 22 21  2  0
 23 18  1  0
 24 23  1  0
 26 23  2  0
M  END
$$$$
