QPE.pdb
     RDKit          3D

 26 26  0  0  1  0  0  0  0  0999 V2000
    6.2636  -18.7193   20.8374 N   0  0  0  0  0  0  0  0  0  0  0  0
    7.2556  -19.3245   20.0119 C   0  0  0  0  0  0  0  0  0  0  0  0
    7.9168  -20.2482   20.5422 O   0  0  0  0  0  0  0  0  0  0  0  0
    7.5084  -18.9229   18.6354 C   0  0  0  0  0  0  0  0  0  0  0  0
    6.7747  -17.7561   18.0949 C   0  0  0  0  0  0  0  0  0  0  0  0
    7.5899  -16.6279   17.5549 C   0  0  2  0  0  0  0  0  0  0  0  0
    8.2258  -17.0327   16.3153 N   0  0  0  0  0  0  0  0  0  0  0  0
    8.5473  -16.0308   18.4841 C   0  0  0  0  0  0  0  0  0  0  0  0
    9.7920  -16.2486   18.2289 O   0  0  0  0  0  0  0  0  0  0  0  0
    8.2169  -15.2565   19.6014 N   0  0  0  0  0  0  0  0  0  0  0  0
    6.8340  -15.0474   20.0666 C   0  0  0  0  0  0  0  0  0  0  0  0
    6.8583  -13.5646   20.3671 C   0  0  0  0  0  0  0  0  0  0  0  0
    8.2383  -13.3689   20.9628 C   0  0  0  0  0  0  0  0  0  0  0  0
    9.0688  -14.5606   20.5122 C   0  0  1  0  0  0  0  0  0  0  0  0
    9.4623  -15.4069   21.6765 C   0  0  0  0  0  0  0  0  0  0  0  0
    8.6673  -16.3076   22.0560 O   0  0  0  0  0  0  0  0  0  0  0  0
   10.6688  -15.2535   22.3697 N   0  0  0  0  0  0  0  0  0  0  0  0
   11.3559  -16.3929   23.0604 C   0  0  1  0  0  0  0  0  0  0  0  0
   12.8077  -16.0798   22.9721 C   0  0  0  0  0  0  0  0  0  0  0  0
   13.8068  -16.8831   23.6725 C   0  0  0  0  0  0  0  0  0  0  0  0
   15.2035  -16.4598   23.5574 C   0  0  0  0  0  0  0  0  0  0  0  0
   15.5025  -15.4757   22.8209 O   0  0  0  0  0  0  0  0  0  0  0  0
   10.8411  -16.3468   24.4260 C   0  0  0  0  0  0  0  0  0  0  0  0
   11.0019  -17.4267   25.2829 O   0  0  0  0  0  0  0  0  0  0  0  0
   16.2325  -17.0976   24.2323 O   0  0  0  0  0  0  0  0  0  0  0  0
   10.2438  -15.3600   24.8860 O   0  0  0  0  0  0  0  0  0  0  0  0
  2  1  1  0
  3  2  2  0
  4  2  1  0
  5  6  1  0
  5  4  1  0
  6  8  1  0
  6  7  1  6
  8 10  1  0
  9  8  2  0
 10 11  1  0
 10 14  1  0
 11 12  1  0
 12 13  1  0
 14 13  1  0
 14 15  1  1
 15 16  2  0
 17 15  1  0
 18 17  1  0
 18 19  1  1
 20 21  1  0
 20 19  1  0
 21 25  1  0
 22 21  2  0
 23 18  1  0
 24 23  1  0
 26 23  2  0
M  END
$$$$
