QPE.pdb
     RDKit          3D

 26 26  0  0  1  0  0  0  0  0999 V2000
   10.9517  -13.9200   27.8514 N   0  0  0  0  0  0  0  0  0  0  0  0
    9.6050  -14.2142   28.2140 C   0  0  0  0  0  0  0  0  0  0  0  0
    9.4580  -15.0803   29.1083 O   0  0  0  0  0  0  0  0  0  0  0  0
    8.4506  -13.5663   27.6077 C   0  0  0  0  0  0  0  0  0  0  0  0
    8.1896  -13.7933   26.1682 C   0  0  0  0  0  0  0  0  0  0  0  0
    7.1404  -14.7949   25.8145 C   0  0  2  0  0  0  0  0  0  0  0  0
    6.8294  -15.6085   26.9748 N   0  0  0  0  0  0  0  0  0  0  0  0
    7.4131  -15.6154   24.6359 C   0  0  0  0  0  0  0  0  0  0  0  0
    7.4296  -16.8901   24.8276 O   0  0  0  0  0  0  0  0  0  0  0  0
    7.6488  -15.1275   23.3462 N   0  0  0  0  0  0  0  0  0  0  0  0
    7.5996  -13.6967   22.9956 C   0  0  0  0  0  0  0  0  0  0  0  0
    6.8353  -13.7518   21.6909 C   0  0  0  0  0  0  0  0  0  0  0  0
    7.3836  -15.0046   21.0371 C   0  0  0  0  0  0  0  0  0  0  0  0
    7.9983  -15.8330   22.1547 C   0  0  1  0  0  0  0  0  0  0  0  0
    9.4757  -15.9505   21.9804 C   0  0  0  0  0  0  0  0  0  0  0  0
   10.1876  -14.9390   22.2200 O   0  0  0  0  0  0  0  0  0  0  0  0
   10.1131  -17.1255   21.5651 N   0  0  0  0  0  0  0  0  0  0  0  0
   11.5314  -17.4485   21.9278 C   0  0  1  0  0  0  0  0  0  0  0  0
   11.4349  -18.3070   23.1391 C   0  0  0  0  0  0  0  0  0  0  0  0
   12.6181  -18.9198   23.7379 C   0  0  0  0  0  0  0  0  0  0  0  0
   12.4080  -19.7702   24.9109 C   0  0  0  0  0  0  0  0  0  0  0  0
   12.1835  -19.2411   26.0377 O   0  0  0  0  0  0  0  0  0  0  0  0
   12.0466  -18.1590   20.7609 C   0  0  0  0  0  0  0  0  0  0  0  0
   13.3966  -18.1164   20.4418 O   0  0  0  0  0  0  0  0  0  0  0  0
   12.4417  -21.1541   24.8423 O   0  0  0  0  0  0  0  0  0  0  0  0
   11.3207  -18.8260   20.0057 O   0  0  0  0  0  0  0  0  0  0  0  0
  2  1  1  0
  3  2  2  0
  4  2  1  0
  5  6  1  0
  5  4  1  0
  6  8  1  0
  6  7  1  1
  8 10  1  0
  9  8  2  0
 10 11  1  0
 10 14  1  0
 11 12  1  0
 12 13  1  0
 14 13  1  0
 14 15  1  6
 15 16  2  0
 17 15  1  0
 18 17  1  0
 18 19  1  1
 20 21  1  0
 20 19  1  0
 21 25  1  0
 22 21  2  0
 23 18  1  0
 24 23  1  0
 26 23  2  0
M  END
$$$$
