QPE.pdb
     RDKit          3D

 26 26  0  0  1  0  0  0  0  0999 V2000
    7.3328  -19.3459   18.7894 N   0  0  0  0  0  0  0  0  0  0  0  0
    7.5953  -18.9931   17.4336 C   0  0  0  0  0  0  0  0  0  0  0  0
    7.1618  -19.7905   16.5689 O   0  0  0  0  0  0  0  0  0  0  0  0
    8.3146  -17.7891   17.0423 C   0  0  0  0  0  0  0  0  0  0  0  0
    7.5348  -16.6272   16.5588 C   0  0  0  0  0  0  0  0  0  0  0  0
    8.2843  -15.3621   16.3005 C   0  0  2  0  0  0  0  0  0  0  0  0
    9.0583  -15.4921   15.0803 N   0  0  0  0  0  0  0  0  0  0  0  0
    9.0995  -14.8661   17.4078 C   0  0  0  0  0  0  0  0  0  0  0  0
   10.3761  -14.9577   17.2537 O   0  0  0  0  0  0  0  0  0  0  0  0
    8.6048  -14.3103   18.5924 N   0  0  0  0  0  0  0  0  0  0  0  0
    7.1677  -14.1508   18.8786 C   0  0  0  0  0  0  0  0  0  0  0  0
    7.1491  -12.7546   19.4615 C   0  0  0  0  0  0  0  0  0  0  0  0
    8.4230  -12.7201   20.2822 C   0  0  0  0  0  0  0  0  0  0  0  0
    9.3099  -13.8289   19.7373 C   0  0  1  0  0  0  0  0  0  0  0  0
    9.5203  -14.8946   20.7605 C   0  0  0  0  0  0  0  0  0  0  0  0
    8.6926  -15.8429   20.8141 O   0  0  0  0  0  0  0  0  0  0  0  0
   10.5893  -14.8969   21.6642 N   0  0  0  0  0  0  0  0  0  0  0  0
   10.9987  -16.1186   22.4305 C   0  0  1  0  0  0  0  0  0  0  0  0
   12.4759  -16.0100   22.5711 C   0  0  0  0  0  0  0  0  0  0  0  0
   13.2351  -16.9417   23.4016 C   0  0  0  0  0  0  0  0  0  0  0  0
   14.6838  -16.7430   23.4739 C   0  0  0  0  0  0  0  0  0  0  0  0
   15.2143  -15.7665   22.8696 O   0  0  0  0  0  0  0  0  0  0  0  0
   10.2910  -15.9978   23.7020 C   0  0  0  0  0  0  0  0  0  0  0  0
   10.1707  -17.0864   24.5545 O   0  0  0  0  0  0  0  0  0  0  0  0
   15.5162  -17.5895   24.1890 O   0  0  0  0  0  0  0  0  0  0  0  0
    9.7689  -14.9372   24.0822 O   0  0  0  0  0  0  0  0  0  0  0  0
  2  1  1  0
  3  2  2  0
  4  2  1  0
  5  6  1  0
  5  4  1  0
  6  8  1  0
  6  7  1  6
  8 10  1  0
  9  8  2  0
 10 11  1  0
 10 14  1  0
 11 12  1  0
 12 13  1  0
 14 13  1  0
 14 15  1  1
 15 16  2  0
 17 15  1  0
 18 17  1  0
 18 19  1  1
 20 21  1  0
 20 19  1  0
 21 25  1  0
 22 21  2  0
 23 18  1  0
 24 23  1  0
 26 23  2  0
M  END
$$$$
