QPE.pdb
     RDKit          3D

 26 26  0  0  1  0  0  0  0  0999 V2000
    5.2248  -18.9304   23.5272 N   0  0  0  0  0  0  0  0  0  0  0  0
    6.4195  -18.1581   23.6168 C   0  0  0  0  0  0  0  0  0  0  0  0
    7.1617  -18.4134   24.5943 O   0  0  0  0  0  0  0  0  0  0  0  0
    6.7871  -17.1332   22.6502 C   0  0  0  0  0  0  0  0  0  0  0  0
    6.0014  -15.8787   22.6189 C   0  0  0  0  0  0  0  0  0  0  0  0
    6.7557  -14.6058   22.4196 C   0  0  2  0  0  0  0  0  0  0  0  0
    7.3384  -14.5850   21.0912 N   0  0  0  0  0  0  0  0  0  0  0  0
    7.7423  -14.2812   23.4482 C   0  0  0  0  0  0  0  0  0  0  0  0
    8.9782  -14.3722   23.0931 O   0  0  0  0  0  0  0  0  0  0  0  0
    7.4475  -13.8859   24.7574 N   0  0  0  0  0  0  0  0  0  0  0  0
    6.0842  -13.8770   25.3174 C   0  0  0  0  0  0  0  0  0  0  0  0
    6.0863  -12.5500   26.0446 C   0  0  0  0  0  0  0  0  0  0  0  0
    7.4884  -12.4871   26.6171 C   0  0  0  0  0  0  0  0  0  0  0  0
    8.3253  -13.4592   25.8000 C   0  0  1  0  0  0  0  0  0  0  0  0
    8.7959  -14.5968   26.6432 C   0  0  0  0  0  0  0  0  0  0  0  0
    7.9551  -15.4655   26.9974 O   0  0  0  0  0  0  0  0  0  0  0  0
   10.1229  -14.7504   27.0616 N   0  0  0  0  0  0  0  0  0  0  0  0
   10.8084  -16.0829   27.1063 C   0  0  1  0  0  0  0  0  0  0  0  0
   12.1287  -15.8605   26.4576 C   0  0  0  0  0  0  0  0  0  0  0  0
   13.1805  -16.8736   26.4980 C   0  0  0  0  0  0  0  0  0  0  0  0
   14.4563  -16.5366   25.8639 C   0  0  0  0  0  0  0  0  0  0  0  0
   14.5839  -15.4336   25.2577 O   0  0  0  0  0  0  0  0  0  0  0  0
   10.9129  -16.3843   28.5311 C   0  0  0  0  0  0  0  0  0  0  0  0
   11.3083  -17.6422   28.9642 O   0  0  0  0  0  0  0  0  0  0  0  0
   15.5520  -17.3846   25.8997 O   0  0  0  0  0  0  0  0  0  0  0  0
   10.6590  -15.5497   29.4149 O   0  0  0  0  0  0  0  0  0  0  0  0
  2  1  1  0
  3  2  2  0
  4  2  1  0
  5  6  1  0
  5  4  1  0
  6  8  1  0
  6  7  1  6
  8 10  1  0
  9  8  2  0
 10 11  1  0
 10 14  1  0
 11 12  1  0
 12 13  1  0
 14 13  1  0
 14 15  1  1
 15 16  2  0
 17 15  1  0
 18 17  1  0
 18 19  1  1
 20 21  1  0
 20 19  1  0
 21 25  1  0
 22 21  2  0
 23 18  1  0
 24 23  1  0
 26 23  2  0
M  END
$$$$
