QPE.pdb
     RDKit          3D

 26 26  0  0  1  0  0  0  0  0999 V2000
    4.9402  -18.5267   23.1100 N   0  0  0  0  0  0  0  0  0  0  0  0
    6.3421  -18.3767   22.9002 C   0  0  0  0  0  0  0  0  0  0  0  0
    7.0203  -19.4283   22.9760 O   0  0  0  0  0  0  0  0  0  0  0  0
    6.9782  -17.0994   22.6104 C   0  0  0  0  0  0  0  0  0  0  0  0
    6.1303  -15.8875   22.5466 C   0  0  0  0  0  0  0  0  0  0  0  0
    6.8221  -14.5808   22.3393 C   0  0  2  0  0  0  0  0  0  0  0  0
    7.4495  -14.5611   21.0313 N   0  0  0  0  0  0  0  0  0  0  0  0
    7.7530  -14.1778   23.3917 C   0  0  0  0  0  0  0  0  0  0  0  0
    9.0042  -14.2190   23.0842 O   0  0  0  0  0  0  0  0  0  0  0  0
    7.3911  -13.7582   24.6763 N   0  0  0  0  0  0  0  0  0  0  0  0
    5.9974  -13.7060   25.1530 C   0  0  0  0  0  0  0  0  0  0  0  0
    5.9919  -12.3704   25.8641 C   0  0  0  0  0  0  0  0  0  0  0  0
    7.3584  -12.3373   26.5194 C   0  0  0  0  0  0  0  0  0  0  0  0
    8.2160  -13.3415   25.7651 C   0  0  1  0  0  0  0  0  0  0  0  0
    8.6042  -14.4803   26.6478 C   0  0  0  0  0  0  0  0  0  0  0  0
    7.7528  -15.3826   26.8677 O   0  0  0  0  0  0  0  0  0  0  0  0
    9.8647  -14.5997   27.2447 N   0  0  0  0  0  0  0  0  0  0  0  0
   10.5419  -15.9216   27.4483 C   0  0  1  0  0  0  0  0  0  0  0  0
   11.8813  -15.7711   26.8184 C   0  0  0  0  0  0  0  0  0  0  0  0
   12.9124  -16.7962   26.9607 C   0  0  0  0  0  0  0  0  0  0  0  0
   14.2206  -16.5136   26.3674 C   0  0  0  0  0  0  0  0  0  0  0  0
   14.4084  -15.4250   25.7510 O   0  0  0  0  0  0  0  0  0  0  0  0
   10.6041  -16.0725   28.8993 C   0  0  0  0  0  0  0  0  0  0  0  0
   10.9576  -17.2857   29.4731 O   0  0  0  0  0  0  0  0  0  0  0  0
   15.2836  -17.3990   26.4533 O   0  0  0  0  0  0  0  0  0  0  0  0
   10.3494  -15.1434   29.6829 O   0  0  0  0  0  0  0  0  0  0  0  0
  2  1  1  0
  3  2  2  0
  4  2  1  0
  5  6  1  0
  5  4  1  0
  6  8  1  0
  6  7  1  6
  8 10  1  0
  9  8  2  0
 10 11  1  0
 10 14  1  0
 11 12  1  0
 12 13  1  0
 14 13  1  0
 14 15  1  1
 15 16  2  0
 17 15  1  0
 18 17  1  0
 18 19  1  1
 20 21  1  0
 20 19  1  0
 21 25  1  0
 22 21  2  0
 23 18  1  0
 24 23  1  0
 26 23  2  0
M  END
$$$$
