QPE.pdb
     RDKit          3D

 26 26  0  0  1  0  0  0  0  0999 V2000
    7.0475  -18.4790   23.0064 N   0  0  0  0  0  0  0  0  0  0  0  0
    6.0724  -17.6343   23.6124 C   0  0  0  0  0  0  0  0  0  0  0  0
    5.4807  -18.1121   24.6090 O   0  0  0  0  0  0  0  0  0  0  0  0
    5.7611  -16.2952   23.1328 C   0  0  0  0  0  0  0  0  0  0  0  0
    6.5386  -15.7552   21.9944 C   0  0  0  0  0  0  0  0  0  0  0  0
    7.2512  -14.4607   22.2076 C   0  0  2  0  0  0  0  0  0  0  0  0
    7.9416  -14.0758   20.9911 N   0  0  0  0  0  0  0  0  0  0  0  0
    8.1333  -14.4023   23.3717 C   0  0  0  0  0  0  0  0  0  0  0  0
    9.3584  -14.7485   23.1691 O   0  0  0  0  0  0  0  0  0  0  0  0
    7.7523  -14.0043   24.6577 N   0  0  0  0  0  0  0  0  0  0  0  0
    6.3667  -13.6634   25.0271 C   0  0  0  0  0  0  0  0  0  0  0  0
    6.5939  -12.4186   25.8569 C   0  0  0  0  0  0  0  0  0  0  0  0
    7.8621  -12.7528   26.6169 C   0  0  0  0  0  0  0  0  0  0  0  0
    8.5400  -13.8718   25.8415 C   0  0  1  0  0  0  0  0  0  0  0  0
    8.5732  -15.1308   26.6419 C   0  0  0  0  0  0  0  0  0  0  0  0
    7.5226  -15.8228   26.7105 O   0  0  0  0  0  0  0  0  0  0  0  0
    9.7103  -15.5844   27.3206 N   0  0  0  0  0  0  0  0  0  0  0  0
   10.0768  -17.0356   27.4060 C   0  0  1  0  0  0  0  0  0  0  0  0
   11.2079  -17.2054   26.4546 C   0  0  0  0  0  0  0  0  0  0  0  0
   11.9799  -18.4444   26.3983 C   0  0  0  0  0  0  0  0  0  0  0  0
   13.0991  -18.4911   25.4557 C   0  0  0  0  0  0  0  0  0  0  0  0
   13.8564  -19.5040   25.4301 O   0  0  0  0  0  0  0  0  0  0  0  0
   10.4667  -17.2251   28.8003 C   0  0  0  0  0  0  0  0  0  0  0  0
   10.5692  -18.4985   29.3427 O   0  0  0  0  0  0  0  0  0  0  0  0
   13.3711  -17.4587   24.5718 O   0  0  0  0  0  0  0  0  0  0  0  0
   10.7222  -16.2776   29.5613 O   0  0  0  0  0  0  0  0  0  0  0  0
  2  1  1  0
  3  2  2  0
  4  2  1  0
  5  6  1  0
  5  4  1  0
  6  8  1  0
  6  7  1  6
  8 10  1  0
  9  8  2  0
 10 11  1  0
 10 14  1  0
 11 12  1  0
 12 13  1  0
 14 13  1  0
 14 15  1  1
 15 16  2  0
 17 15  1  0
 18 17  1  0
 18 19  1  6
 20 21  1  0
 20 19  1  0
 21 25  1  0
 22 21  2  0
 23 18  1  0
 24 23  1  0
 26 23  2  0
M  END
$$$$
