QPE.pdb
     RDKit          3D

 26 26  0  0  1  0  0  0  0  0999 V2000
    6.5635  -19.1352   23.8697 N   0  0  0  0  0  0  0  0  0  0  0  0
    5.9405  -18.0510   23.1856 C   0  0  0  0  0  0  0  0  0  0  0  0
    4.6882  -18.0840   23.1377 O   0  0  0  0  0  0  0  0  0  0  0  0
    6.6806  -16.9567   22.5734 C   0  0  0  0  0  0  0  0  0  0  0  0
    6.0415  -15.6229   22.5072 C   0  0  0  0  0  0  0  0  0  0  0  0
    6.9424  -14.4408   22.3655 C   0  0  2  0  0  0  0  0  0  0  0  0
    7.5940  -14.4744   21.0697 N   0  0  0  0  0  0  0  0  0  0  0  0
    7.9027  -14.2371   23.4486 C   0  0  0  0  0  0  0  0  0  0  0  0
    9.1439  -14.3975   23.1396 O   0  0  0  0  0  0  0  0  0  0  0  0
    7.5783  -13.8862   24.7634 N   0  0  0  0  0  0  0  0  0  0  0  0
    6.2049  -13.9129   25.2977 C   0  0  0  0  0  0  0  0  0  0  0  0
    6.1749  -12.6090   26.0648 C   0  0  0  0  0  0  0  0  0  0  0  0
    7.5652  -12.5447   26.6653 C   0  0  0  0  0  0  0  0  0  0  0  0
    8.4306  -13.4798   25.8349 C   0  0  1  0  0  0  0  0  0  0  0  0
    8.9017  -14.6364   26.6518 C   0  0  0  0  0  0  0  0  0  0  0  0
    8.0851  -15.5624   26.9026 O   0  0  0  0  0  0  0  0  0  0  0  0
   10.2034  -14.7473   27.1544 N   0  0  0  0  0  0  0  0  0  0  0  0
   10.9029  -16.0646   27.3060 C   0  0  1  0  0  0  0  0  0  0  0  0
   12.2198  -15.8823   26.6381 C   0  0  0  0  0  0  0  0  0  0  0  0
   13.2513  -16.9157   26.6874 C   0  0  0  0  0  0  0  0  0  0  0  0
   14.5195  -16.6252   26.0161 C   0  0  0  0  0  0  0  0  0  0  0  0
   14.6633  -15.5350   25.3908 O   0  0  0  0  0  0  0  0  0  0  0  0
   11.0128  -16.2475   28.7505 C   0  0  0  0  0  0  0  0  0  0  0  0
   11.4200  -17.4623   29.2840 O   0  0  0  0  0  0  0  0  0  0  0  0
   15.5906  -17.5046   26.0362 O   0  0  0  0  0  0  0  0  0  0  0  0
   10.7532  -15.3456   29.5637 O   0  0  0  0  0  0  0  0  0  0  0  0
  2  1  1  0
  3  2  2  0
  4  2  1  0
  5  6  1  0
  5  4  1  0
  6  8  1  0
  6  7  1  6
  8 10  1  0
  9  8  2  0
 10 11  1  0
 10 14  1  0
 11 12  1  0
 12 13  1  0
 14 13  1  0
 14 15  1  1
 15 16  2  0
 17 15  1  0
 18 17  1  0
 18 19  1  6
 20 21  1  0
 20 19  1  0
 21 25  1  0
 22 21  2  0
 23 18  1  0
 24 23  1  0
 26 23  2  0
M  END
$$$$
