QPE.pdb
     RDKit          3D

 26 26  0  0  1  0  0  0  0  0999 V2000
    6.6127  -18.3765   20.5986 N   0  0  0  0  0  0  0  0  0  0  0  0
    6.0789  -17.0691   20.7924 C   0  0  0  0  0  0  0  0  0  0  0  0
    4.8298  -16.9769   20.7404 O   0  0  0  0  0  0  0  0  0  0  0  0
    6.9028  -15.8945   21.0408 C   0  0  0  0  0  0  0  0  0  0  0  0
    6.2296  -14.6171   21.3680 C   0  0  0  0  0  0  0  0  0  0  0  0
    7.1020  -13.4448   21.6739 C   0  0  2  0  0  0  0  0  0  0  0  0
    7.8433  -13.0632   20.4866 N   0  0  0  0  0  0  0  0  0  0  0  0
    7.9775  -13.5870   22.8357 C   0  0  0  0  0  0  0  0  0  0  0  0
    9.2301  -13.7547   22.5809 O   0  0  0  0  0  0  0  0  0  0  0  0
    7.5631  -13.5522   24.1714 N   0  0  0  0  0  0  0  0  0  0  0  0
    6.1514  -13.4534   24.5833 C   0  0  0  0  0  0  0  0  0  0  0  0
    6.2519  -12.4293   25.6926 C   0  0  0  0  0  0  0  0  0  0  0  0
    7.5514  -12.8061   26.3760 C   0  0  0  0  0  0  0  0  0  0  0  0
    8.3383  -13.6298   25.3684 C   0  0  1  0  0  0  0  0  0  0  0  0
    8.5056  -15.0347   25.8429 C   0  0  0  0  0  0  0  0  0  0  0  0
    7.5643  -15.8482   25.6446 O   0  0  0  0  0  0  0  0  0  0  0  0
    9.6537  -15.4971   26.4968 N   0  0  0  0  0  0  0  0  0  0  0  0
   10.1748  -16.8925   26.3277 C   0  0  1  0  0  0  0  0  0  0  0  0
   11.4505  -16.7408   25.5773 C   0  0  0  0  0  0  0  0  0  0  0  0
   12.3770  -17.8579   25.4111 C   0  0  0  0  0  0  0  0  0  0  0  0
   13.6298  -17.5863   24.7039 C   0  0  0  0  0  0  0  0  0  0  0  0
   13.9008  -16.4061   24.3380 O   0  0  0  0  0  0  0  0  0  0  0  0
   10.3664  -17.3713   27.6938 C   0  0  0  0  0  0  0  0  0  0  0  0
   10.5239  -18.7249   27.9569 O   0  0  0  0  0  0  0  0  0  0  0  0
   14.5509  -18.5803   24.4134 O   0  0  0  0  0  0  0  0  0  0  0  0
   10.3980  -16.6100   28.6744 O   0  0  0  0  0  0  0  0  0  0  0  0
  2  1  1  0
  3  2  2  0
  4  2  1  0
  5  6  1  0
  5  4  1  0
  6  8  1  0
  6  7  1  6
  8 10  1  0
  9  8  2  0
 10 11  1  0
 10 14  1  0
 11 12  1  0
 12 13  1  0
 14 13  1  0
 14 15  1  1
 15 16  2  0
 17 15  1  0
 18 17  1  0
 18 19  1  6
 20 21  1  0
 20 19  1  0
 21 25  1  0
 22 21  2  0
 23 18  1  0
 24 23  1  0
 26 23  2  0
M  END
$$$$
