FEN.pdb
     RDKit          3D

 29 29  0  0  1  0  0  0  0  0999 V2000
    6.6379  -15.8635   20.9044 N   0  0  0  0  0  0  0  0  0  0  0  0
    7.2125  -15.2041   22.0330 C   0  0  1  0  0  0  0  0  0  0  0  0
    6.1827  -14.4350   22.8132 C   0  0  0  0  0  0  0  0  0  0  0  0
    6.8551  -13.7246   23.9341 C   0  0  0  0  0  0  0  0  0  0  0  0
    7.6147  -12.5931   23.7280 C   0  0  0  0  0  0  0  0  0  0  0  0
    8.2373  -11.9404   24.7900 C   0  0  0  0  0  0  0  0  0  0  0  0
    8.1200  -12.3971   26.0862 C   0  0  0  0  0  0  0  0  0  0  0  0
    7.3584  -13.5315   26.2921 C   0  0  0  0  0  0  0  0  0  0  0  0
    6.7399  -14.1804   25.2383 C   0  0  0  0  0  0  0  0  0  0  0  0
    7.9886  -16.1195   22.9106 C   0  0  0  0  0  0  0  0  0  0  0  0
    7.3965  -17.1491   23.3370 O   0  0  0  0  0  0  0  0  0  0  0  0
    9.3364  -15.8692   23.2676 N   0  0  0  0  0  0  0  0  0  0  0  0
   10.1422  -16.8518   23.9193 C   0  0  1  0  0  0  0  0  0  0  0  0
   11.1161  -17.5707   23.0557 C   0  0  0  0  0  0  0  0  0  0  0  0
   12.1305  -16.7472   22.3530 C   0  0  0  0  0  0  0  0  0  0  0  0
   13.0439  -17.4452   21.4588 C   0  0  0  0  0  0  0  0  0  0  0  0
   14.1707  -17.8100   21.8628 O   0  0  0  0  0  0  0  0  0  0  0  0
   10.7706  -16.3571   25.1905 C   0  0  0  0  0  0  0  0  0  0  0  0
   11.5782  -15.3979   25.0987 O   0  0  0  0  0  0  0  0  0  0  0  0
   12.6960  -17.7228   20.1489 O   0  0  0  0  0  0  0  0  0  0  0  0
    9.9379  -14.5709   27.4188 N   0  0  0  0  0  0  0  0  0  0  0  0
   10.0225  -15.2814   28.6392 C   0  0  0  0  0  0  0  0  0  0  0  0
    9.3354  -14.8531   29.5989 O   0  0  0  0  0  0  0  0  0  0  0  0
   10.8595  -16.4755   28.8395 C   0  0  0  0  0  0  0  0  0  0  0  0
   11.4834  -16.8875   27.5511 C   0  0  2  0  0  0  0  0  0  0  0  0
   10.5108  -16.9011   26.4570 N   0  0  0  0  0  0  0  0  0  0  0  0
   12.1070  -18.2026   27.6474 C   0  0  0  0  0  0  0  0  0  0  0  0
   11.7122  -19.1692   26.9084 O   0  0  0  0  0  0  0  0  0  0  0  0
   13.1415  -18.4860   28.5199 O   0  0  0  0  0  0  0  0  0  0  0  0
  2  1  1  6
  2  3  1  0
  2 10  1  0
  3  4  1  0
  4  5  2  0
  5  6  1  0
  7  6  2  0
  8  7  1  0
  9  4  1  0
  9  8  2  0
 10 11  2  0
 10 12  1  0
 12 13  1  0
 13 18  1  0
 13 14  1  6
 14 15  1  0
 15 16  1  0
 16 20  1  0
 17 16  2  0
 18 26  1  0
 19 18  2  0
 21 22  1  0
 22 24  1  0
 23 22  2  0
 25 24  1  1
 25 27  1  0
 26 25  1  0
 27 28  2  0
 27 29  1  0
M  END
$$$$
