FEN.pdb
     RDKit          3D

 29 29  0  0  1  0  0  0  0  0999 V2000
    6.1169  -16.3600   25.9363 N   0  0  0  0  0  0  0  0  0  0  0  0
    6.5574  -16.2080   24.5867 C   0  0  1  0  0  0  0  0  0  0  0  0
    6.8661  -14.7734   24.2592 C   0  0  0  0  0  0  0  0  0  0  0  0
    7.4629  -14.1210   25.4556 C   0  0  0  0  0  0  0  0  0  0  0  0
    6.6898  -13.4648   26.3892 C   0  0  0  0  0  0  0  0  0  0  0  0
    7.2659  -12.8596   27.5042 C   0  0  0  0  0  0  0  0  0  0  0  0
    8.6280  -12.8918   27.7196 C   0  0  0  0  0  0  0  0  0  0  0  0
    9.4024  -13.5498   26.7833 C   0  0  0  0  0  0  0  0  0  0  0  0
    8.8313  -14.1510   25.6758 C   0  0  0  0  0  0  0  0  0  0  0  0
    7.6935  -17.1022   24.2398 C   0  0  0  0  0  0  0  0  0  0  0  0
    7.9254  -18.0682   25.0180 O   0  0  0  0  0  0  0  0  0  0  0  0
    8.4964  -16.9001   23.0905 N   0  0  0  0  0  0  0  0  0  0  0  0
    9.4716  -17.8551   22.6704 C   0  0  1  0  0  0  0  0  0  0  0  0
    9.9137  -17.7529   21.2543 C   0  0  0  0  0  0  0  0  0  0  0  0
   10.8621  -18.7848   20.7677 C   0  0  0  0  0  0  0  0  0  0  0  0
   11.2569  -18.7115   19.3678 C   0  0  0  0  0  0  0  0  0  0  0  0
   12.4662  -18.6425   19.0534 O   0  0  0  0  0  0  0  0  0  0  0  0
   10.6307  -17.9771   23.6176 C   0  0  0  0  0  0  0  0  0  0  0  0
   11.2882  -19.0483   23.5886 O   0  0  0  0  0  0  0  0  0  0  0  0
   10.3156  -18.7160   18.3539 O   0  0  0  0  0  0  0  0  0  0  0  0
   13.5070  -15.2186   22.8678 N   0  0  0  0  0  0  0  0  0  0  0  0
   13.7831  -16.0835   23.9527 C   0  0  0  0  0  0  0  0  0  0  0  0
   14.6447  -16.9776   23.7662 O   0  0  0  0  0  0  0  0  0  0  0  0
   13.1245  -15.9918   25.2660 C   0  0  0  0  0  0  0  0  0  0  0  0
   12.1521  -17.1080   25.4319 C   0  0  2  0  0  0  0  0  0  0  0  0
   11.0131  -16.9753   24.5218 N   0  0  0  0  0  0  0  0  0  0  0  0
   11.6570  -17.1960   26.8011 C   0  0  0  0  0  0  0  0  0  0  0  0
   12.4690  -17.2527   27.7878 O   0  0  0  0  0  0  0  0  0  0  0  0
   10.3113  -17.2217   27.1175 O   0  0  0  0  0  0  0  0  0  0  0  0
  2  1  1  1
  2  3  1  0
  2 10  1  0
  3  4  1  0
  4  5  2  0
  5  6  1  0
  7  6  2  0
  8  7  1  0
  9  4  1  0
  9  8  2  0
 10 11  2  0
 10 12  1  0
 12 13  1  0
 13 18  1  0
 13 14  1  6
 14 15  1  0
 15 16  1  0
 16 20  1  0
 17 16  2  0
 18 26  1  0
 19 18  2  0
 21 22  1  0
 22 24  1  0
 23 22  2  0
 25 24  1  1
 25 27  1  0
 26 25  1  0
 27 28  2  0
 27 29  1  0
M  END
$$$$
