FEN.pdb
     RDKit          3D

 29 29  0  0  1  0  0  0  0  0999 V2000
    8.5181  -17.2039   21.1129 N   0  0  0  0  0  0  0  0  0  0  0  0
    9.6844  -16.3901   20.9858 C   0  0  1  0  0  0  0  0  0  0  0  0
    9.5469  -15.0970   21.7408 C   0  0  0  0  0  0  0  0  0  0  0  0
    8.5394  -14.2419   21.0575 C   0  0  0  0  0  0  0  0  0  0  0  0
    7.2228  -14.2018   21.4633 C   0  0  0  0  0  0  0  0  0  0  0  0
    6.2926  -13.3946   20.8116 C   0  0  0  0  0  0  0  0  0  0  0  0
    6.6489  -12.6054   19.7378 C   0  0  0  0  0  0  0  0  0  0  0  0
    7.9690  -12.6461   19.3317 C   0  0  0  0  0  0  0  0  0  0  0  0
    8.8933  -13.4473   19.9780 C   0  0  0  0  0  0  0  0  0  0  0  0
   10.9363  -17.1038   21.3519 C   0  0  0  0  0  0  0  0  0  0  0  0
   10.8664  -17.9475   22.2876 O   0  0  0  0  0  0  0  0  0  0  0  0
   12.1677  -16.8649   20.6938 N   0  0  0  0  0  0  0  0  0  0  0  0
   13.3728  -17.5281   21.0778 C   0  0  1  0  0  0  0  0  0  0  0  0
   13.8902  -18.5418   20.1208 C   0  0  0  0  0  0  0  0  0  0  0  0
   13.0164  -18.8956   18.9753 C   0  0  0  0  0  0  0  0  0  0  0  0
   13.6489  -18.9912   17.6669 C   0  0  0  0  0  0  0  0  0  0  0  0
   14.2348  -20.0417   17.3218 O   0  0  0  0  0  0  0  0  0  0  0  0
   14.4476  -16.5869   21.5410 C   0  0  0  0  0  0  0  0  0  0  0  0
   15.4891  -16.5122   20.8408 O   0  0  0  0  0  0  0  0  0  0  0  0
   13.6208  -17.9336   16.7755 O   0  0  0  0  0  0  0  0  0  0  0  0
   13.8737  -18.7938   26.6024 N   0  0  0  0  0  0  0  0  0  0  0  0
   14.6179  -17.9588   25.7362 C   0  0  0  0  0  0  0  0  0  0  0  0
   15.7336  -17.5567   26.1486 O   0  0  0  0  0  0  0  0  0  0  0  0
   14.1607  -17.5437   24.4001 C   0  0  0  0  0  0  0  0  0  0  0  0
   14.7995  -16.2539   24.0163 C   0  0  2  0  0  0  0  0  0  0  0  0
   14.3547  -15.7991   22.6978 N   0  0  0  0  0  0  0  0  0  0  0  0
   16.2550  -16.3484   24.0190 C   0  0  0  0  0  0  0  0  0  0  0  0
   16.9608  -15.5506   24.7272 O   0  0  0  0  0  0  0  0  0  0  0  0
   16.9526  -17.2835   23.2769 O   0  0  0  0  0  0  0  0  0  0  0  0
  2  1  1  1
  2  3  1  0
  2 10  1  0
  3  4  1  0
  4  5  2  0
  5  6  1  0
  7  6  2  0
  8  7  1  0
  9  4  1  0
  9  8  2  0
 10 11  2  0
 10 12  1  0
 12 13  1  0
 13 18  1  0
 13 14  1  6
 14 15  1  0
 15 16  1  0
 16 20  1  0
 17 16  2  0
 18 26  1  0
 19 18  2  0
 21 22  1  0
 22 24  1  0
 23 22  2  0
 25 24  1  6
 25 27  1  0
 26 25  1  0
 27 28  2  0
 27 29  1  0
M  END
$$$$
