FEN.pdb
     RDKit          3D

 29 29  0  0  1  0  0  0  0  0999 V2000
    6.0988  -16.4915   24.4889 N   0  0  0  0  0  0  0  0  0  0  0  0
    7.3625  -15.8272   24.4655 C   0  0  1  0  0  0  0  0  0  0  0  0
    7.6585  -15.1459   25.7728 C   0  0  0  0  0  0  0  0  0  0  0  0
    7.0589  -13.7845   25.7562 C   0  0  0  0  0  0  0  0  0  0  0  0
    5.8717  -13.5036   26.3975 C   0  0  0  0  0  0  0  0  0  0  0  0
    5.3248  -12.2224   26.3717 C   0  0  0  0  0  0  0  0  0  0  0  0
    5.9459  -11.1860   25.7064 C   0  0  0  0  0  0  0  0  0  0  0  0
    7.1361  -11.4683   25.0638 C   0  0  0  0  0  0  0  0  0  0  0  0
    7.6799  -12.7401   25.0887 C   0  0  0  0  0  0  0  0  0  0  0  0
    8.4802  -16.7146   24.0487 C   0  0  0  0  0  0  0  0  0  0  0  0
    8.4383  -17.9151   24.4353 O   0  0  0  0  0  0  0  0  0  0  0  0
    9.5579  -16.2563   23.2517 N   0  0  0  0  0  0  0  0  0  0  0  0
   10.8105  -16.9407   23.2060 C   0  0  1  0  0  0  0  0  0  0  0  0
   11.7970  -16.4258   22.2196 C   0  0  0  0  0  0  0  0  0  0  0  0
   11.4122  -16.4837   20.7879 C   0  0  0  0  0  0  0  0  0  0  0  0
   11.7834  -17.6844   20.0521 C   0  0  0  0  0  0  0  0  0  0  0  0
   10.9029  -18.4107   19.5392 O   0  0  0  0  0  0  0  0  0  0  0  0
   11.4227  -17.1511   24.5612 C   0  0  0  0  0  0  0  0  0  0  0  0
   12.4794  -17.8300   24.6171 O   0  0  0  0  0  0  0  0  0  0  0  0
   13.1079  -18.0539   19.9000 O   0  0  0  0  0  0  0  0  0  0  0  0
   12.0389  -15.7916   30.2427 N   0  0  0  0  0  0  0  0  0  0  0  0
   11.2159  -16.6475   29.4736 C   0  0  0  0  0  0  0  0  0  0  0  0
   10.9587  -17.7782   29.9554 O   0  0  0  0  0  0  0  0  0  0  0  0
   10.6553  -16.2885   28.1608 C   0  0  0  0  0  0  0  0  0  0  0  0
   11.4601  -16.9087   27.0715 C   0  0  2  0  0  0  0  0  0  0  0  0
   10.8857  -16.6402   25.7520 N   0  0  0  0  0  0  0  0  0  0  0  0
   11.5894  -18.3509   27.2475 C   0  0  0  0  0  0  0  0  0  0  0  0
   10.6493  -19.1404   26.8886 O   0  0  0  0  0  0  0  0  0  0  0  0
   12.7087  -18.9473   27.7984 O   0  0  0  0  0  0  0  0  0  0  0  0
  2  1  1  1
  2  3  1  0
  2 10  1  0
  3  4  1  0
  4  5  2  0
  5  6  1  0
  7  6  2  0
  8  7  1  0
  9  4  1  0
  9  8  2  0
 10 11  2  0
 10 12  1  0
 12 13  1  0
 13 18  1  0
 13 14  1  6
 14 15  1  0
 15 16  1  0
 16 20  1  0
 17 16  2  0
 18 26  1  0
 19 18  2  0
 21 22  1  0
 22 24  1  0
 23 22  2  0
 25 24  1  1
 25 27  1  0
 26 25  1  0
 27 28  2  0
 27 29  1  0
M  END
$$$$
