FEN.pdb
     RDKit          3D

 29 29  0  0  1  0  0  0  0  0999 V2000
    5.8849  -16.4937   22.3279 N   0  0  0  0  0  0  0  0  0  0  0  0
    6.6967  -15.6837   23.1784 C   0  0  1  0  0  0  0  0  0  0  0  0
    5.9261  -15.1744   24.3649 C   0  0  0  0  0  0  0  0  0  0  0  0
    6.7899  -14.2441   25.1405 C   0  0  0  0  0  0  0  0  0  0  0  0
    7.0096  -12.9453   24.7350 C   0  0  0  0  0  0  0  0  0  0  0  0
    7.8216  -12.0876   25.4743 C   0  0  0  0  0  0  0  0  0  0  0  0
    8.4367  -12.5006   26.6378 C   0  0  0  0  0  0  0  0  0  0  0  0
    8.2159  -13.8028   27.0437 C   0  0  0  0  0  0  0  0  0  0  0  0
    7.4100  -14.6552   26.3103 C   0  0  0  0  0  0  0  0  0  0  0  0
    7.9561  -16.3552   23.5948 C   0  0  0  0  0  0  0  0  0  0  0  0
    7.8501  -17.4700   24.1766 O   0  0  0  0  0  0  0  0  0  0  0  0
    9.2331  -15.7888   23.3601 N   0  0  0  0  0  0  0  0  0  0  0  0
   10.4392  -16.5165   23.5952 C   0  0  1  0  0  0  0  0  0  0  0  0
   11.5598  -16.2376   22.6584 C   0  0  0  0  0  0  0  0  0  0  0  0
   12.8220  -16.9867   22.8747 C   0  0  0  0  0  0  0  0  0  0  0  0
   13.9053  -16.7417   21.9326 C   0  0  0  0  0  0  0  0  0  0  0  0
   14.7994  -17.5997   21.7582 O   0  0  0  0  0  0  0  0  0  0  0  0
   10.8810  -16.4872   25.0303 C   0  0  0  0  0  0  0  0  0  0  0  0
   11.1371  -15.3630   25.5316 O   0  0  0  0  0  0  0  0  0  0  0  0
   13.9772  -15.5644   21.2096 O   0  0  0  0  0  0  0  0  0  0  0  0
   11.1431  -16.8307   30.4245 N   0  0  0  0  0  0  0  0  0  0  0  0
   10.8597  -17.9037   29.5473 C   0  0  0  0  0  0  0  0  0  0  0  0
   11.0636  -19.0648   29.9797 O   0  0  0  0  0  0  0  0  0  0  0  0
   10.3474  -17.7335   28.1779 C   0  0  0  0  0  0  0  0  0  0  0  0
   11.4791  -17.5854   27.2208 C   0  0  2  0  0  0  0  0  0  0  0  0
   11.0235  -17.6305   25.8303 N   0  0  0  0  0  0  0  0  0  0  0  0
   12.4952  -18.6127   27.4202 C   0  0  0  0  0  0  0  0  0  0  0  0
   12.5939  -19.6003   26.6133 O   0  0  0  0  0  0  0  0  0  0  0  0
   13.3984  -18.5887   28.4668 O   0  0  0  0  0  0  0  0  0  0  0  0
  2  1  1  1
  2  3  1  0
  2 10  1  0
  3  4  1  0
  4  5  2  0
  5  6  1  0
  7  6  2  0
  8  7  1  0
  9  4  1  0
  9  8  2  0
 10 11  2  0
 10 12  1  0
 12 13  1  0
 13 18  1  0
 13 14  1  6
 14 15  1  0
 15 16  1  0
 16 20  1  0
 17 16  2  0
 18 26  1  0
 19 18  2  0
 21 22  1  0
 22 24  1  0
 23 22  2  0
 25 24  1  1
 25 27  1  0
 26 25  1  0
 27 28  2  0
 27 29  1  0
M  END
$$$$
