FEN.pdb
     RDKit          3D

 29 29  0  0  1  0  0  0  0  0999 V2000
    6.3861  -16.5937   25.2979 N   0  0  0  0  0  0  0  0  0  0  0  0
    7.4647  -15.8639   24.7126 C   0  0  1  0  0  0  0  0  0  0  0  0
    8.1356  -14.9630   25.7121 C   0  0  0  0  0  0  0  0  0  0  0  0
    7.3550  -13.7019   25.8281 C   0  0  0  0  0  0  0  0  0  0  0  0
    6.3164  -13.5679   26.7243 C   0  0  0  0  0  0  0  0  0  0  0  0
    5.5962  -12.3789   26.8195 C   0  0  0  0  0  0  0  0  0  0  0  0
    5.8911  -11.2910   26.0244 C   0  0  0  0  0  0  0  0  0  0  0  0
    6.9324  -11.4261   25.1262 C   0  0  0  0  0  0  0  0  0  0  0  0
    7.6481  -12.6062   25.0309 C   0  0  0  0  0  0  0  0  0  0  0  0
    8.4492  -16.7350   24.0181 C   0  0  0  0  0  0  0  0  0  0  0  0
    8.7762  -17.8090   24.5943 O   0  0  0  0  0  0  0  0  0  0  0  0
    9.0108  -16.3965   22.7624 N   0  0  0  0  0  0  0  0  0  0  0  0
   10.1985  -17.0193   22.2714 C   0  0  1  0  0  0  0  0  0  0  0  0
   10.5013  -16.7979   20.8325 C   0  0  0  0  0  0  0  0  0  0  0  0
    9.5304  -17.3361   19.8483 C   0  0  0  0  0  0  0  0  0  0  0  0
   10.0735  -17.8545   18.6003 C   0  0  0  0  0  0  0  0  0  0  0  0
   10.6492  -17.0900   17.7940 O   0  0  0  0  0  0  0  0  0  0  0  0
   11.3976  -16.7843   23.1447 C   0  0  0  0  0  0  0  0  0  0  0  0
   11.3016  -15.8947   24.0279 O   0  0  0  0  0  0  0  0  0  0  0  0
    9.9697  -19.1946   18.2726 O   0  0  0  0  0  0  0  0  0  0  0  0
   12.7354  -19.7535   27.3177 N   0  0  0  0  0  0  0  0  0  0  0  0
   12.4169  -18.7822   26.3397 C   0  0  0  0  0  0  0  0  0  0  0  0
   12.1623  -17.6223   26.7475 O   0  0  0  0  0  0  0  0  0  0  0  0
   12.3690  -19.0554   24.8941 C   0  0  0  0  0  0  0  0  0  0  0  0
   13.2749  -18.1244   24.1651 C   0  0  2  0  0  0  0  0  0  0  0  0
   12.6029  -17.4921   23.0285 N   0  0  0  0  0  0  0  0  0  0  0  0
   14.4768  -18.8000   23.6890 C   0  0  0  0  0  0  0  0  0  0  0  0
   14.4122  -19.6638   22.7479 O   0  0  0  0  0  0  0  0  0  0  0  0
   15.7353  -18.5577   24.2080 O   0  0  0  0  0  0  0  0  0  0  0  0
  2  1  1  1
  2  3  1  0
  2 10  1  0
  3  4  1  0
  4  5  2  0
  5  6  1  0
  7  6  2  0
  8  7  1  0
  9  4  1  0
  9  8  2  0
 10 11  2  0
 10 12  1  0
 12 13  1  0
 13 18  1  0
 13 14  1  6
 14 15  1  0
 15 16  1  0
 16 20  1  0
 17 16  2  0
 18 26  1  0
 19 18  2  0
 21 22  1  0
 22 24  1  0
 23 22  2  0
 25 24  1  6
 25 27  1  0
 26 25  1  0
 27 28  2  0
 27 29  1  0
M  END
$$$$
