FEN.pdb
     RDKit          3D

 29 29  0  0  1  0  0  0  0  0999 V2000
    6.2838  -16.6940   25.4761 N   0  0  0  0  0  0  0  0  0  0  0  0
    7.4073  -16.0102   24.9205 C   0  0  1  0  0  0  0  0  0  0  0  0
    8.0959  -15.1479   25.9418 C   0  0  0  0  0  0  0  0  0  0  0  0
    7.4514  -13.8072   25.9576 C   0  0  0  0  0  0  0  0  0  0  0  0
    7.7985  -12.8215   25.0588 C   0  0  0  0  0  0  0  0  0  0  0  0
    7.1840  -11.5714   25.0880 C   0  0  0  0  0  0  0  0  0  0  0  0
    6.2067  -11.2693   26.0134 C   0  0  0  0  0  0  0  0  0  0  0  0
    5.8592  -12.2579   26.9140 C   0  0  0  0  0  0  0  0  0  0  0  0
    6.4689  -13.4994   26.8859 C   0  0  0  0  0  0  0  0  0  0  0  0
    8.3665  -16.9206   24.2410 C   0  0  0  0  0  0  0  0  0  0  0  0
    8.6199  -18.0189   24.8084 O   0  0  0  0  0  0  0  0  0  0  0  0
    8.9831  -16.5924   23.0087 N   0  0  0  0  0  0  0  0  0  0  0  0
   10.0564  -17.3650   22.4695 C   0  0  1  0  0  0  0  0  0  0  0  0
   10.3489  -17.1535   21.0270 C   0  0  0  0  0  0  0  0  0  0  0  0
   11.4312  -17.9746   20.4308 C   0  0  0  0  0  0  0  0  0  0  0  0
   11.6606  -17.8272   19.0002 C   0  0  0  0  0  0  0  0  0  0  0  0
   12.8146  -17.6237   18.5613 O   0  0  0  0  0  0  0  0  0  0  0  0
   11.2998  -17.3236   23.3109 C   0  0  0  0  0  0  0  0  0  0  0  0
   11.8689  -16.2104   23.4436 O   0  0  0  0  0  0  0  0  0  0  0  0
   10.6192  -17.9071   18.0929 O   0  0  0  0  0  0  0  0  0  0  0  0
   10.8063  -20.5066   26.4830 N   0  0  0  0  0  0  0  0  0  0  0  0
   12.0403  -20.3166   25.8178 C   0  0  0  0  0  0  0  0  0  0  0  0
   12.3919  -21.2030   25.0009 O   0  0  0  0  0  0  0  0  0  0  0  0
   12.9187  -19.1547   26.0299 C   0  0  0  0  0  0  0  0  0  0  0  0
   13.0678  -18.3855   24.7629 C   0  0  2  0  0  0  0  0  0  0  0  0
   11.8543  -18.4445   23.9462 N   0  0  0  0  0  0  0  0  0  0  0  0
   14.1962  -18.8608   23.9702 C   0  0  0  0  0  0  0  0  0  0  0  0
   15.3961  -18.7194   24.3901 O   0  0  0  0  0  0  0  0  0  0  0  0
   14.0493  -19.4821   22.7437 O   0  0  0  0  0  0  0  0  0  0  0  0
  2  1  1  1
  2  3  1  0
  2 10  1  0
  3  4  1  0
  4  5  2  0
  5  6  1  0
  7  6  2  0
  8  7  1  0
  9  4  1  0
  9  8  2  0
 10 11  2  0
 10 12  1  0
 12 13  1  0
 13 18  1  0
 13 14  1  6
 14 15  1  0
 15 16  1  0
 16 20  1  0
 17 16  2  0
 18 26  1  0
 19 18  2  0
 21 22  1  0
 22 24  1  0
 23 22  2  0
 25 24  1  1
 25 27  1  0
 26 25  1  0
 27 28  2  0
 27 29  1  0
M  END
$$$$
