FEN.pdb
     RDKit          3D

 29 29  0  0  1  0  0  0  0  0999 V2000
    5.7874  -17.2120   24.3282 N   0  0  0  0  0  0  0  0  0  0  0  0
    6.9812  -16.4864   24.6232 C   0  0  1  0  0  0  0  0  0  0  0  0
    6.9125  -15.8246   25.9716 C   0  0  0  0  0  0  0  0  0  0  0  0
    6.7831  -14.3545   25.7836 C   0  0  0  0  0  0  0  0  0  0  0  0
    7.7699  -13.6083   25.1759 C   0  0  0  0  0  0  0  0  0  0  0  0
    7.6317  -12.2321   25.0079 C   0  0  0  0  0  0  0  0  0  0  0  0
    6.5065  -11.5617   25.4406 C   0  0  0  0  0  0  0  0  0  0  0  0
    5.5177  -12.3104   26.0496 C   0  0  0  0  0  0  0  0  0  0  0  0
    5.6540  -13.6769   26.2170 C   0  0  0  0  0  0  0  0  0  0  0  0
    8.2126  -17.3075   24.4819 C   0  0  0  0  0  0  0  0  0  0  0  0
    8.1118  -18.5432   24.7169 O   0  0  0  0  0  0  0  0  0  0  0  0
    9.4581  -16.7503   24.1011 N   0  0  0  0  0  0  0  0  0  0  0  0
   10.6745  -17.4952   24.1727 C   0  0  1  0  0  0  0  0  0  0  0  0
   11.7170  -17.1348   23.1755 C   0  0  0  0  0  0  0  0  0  0  0  0
   11.2804  -16.9923   21.7648 C   0  0  0  0  0  0  0  0  0  0  0  0
   12.2879  -16.5721   20.8007 C   0  0  0  0  0  0  0  0  0  0  0  0
   12.9352  -17.4224   20.1496 O   0  0  0  0  0  0  0  0  0  0  0  0
   11.2316  -17.5914   25.5641 C   0  0  0  0  0  0  0  0  0  0  0  0
   12.3271  -18.1918   25.7058 O   0  0  0  0  0  0  0  0  0  0  0  0
   12.5564  -15.2333   20.5785 O   0  0  0  0  0  0  0  0  0  0  0  0
    9.6400  -13.8459   28.2263 N   0  0  0  0  0  0  0  0  0  0  0  0
   10.7108  -14.7683   28.2893 C   0  0  0  0  0  0  0  0  0  0  0  0
   11.7922  -14.4268   27.7502 O   0  0  0  0  0  0  0  0  0  0  0  0
   10.6251  -16.0847   28.9423 C   0  0  0  0  0  0  0  0  0  0  0  0
   11.1731  -17.1399   28.0449 C   0  0  2  0  0  0  0  0  0  0  0  0
   10.6037  -17.0570   26.6988 N   0  0  0  0  0  0  0  0  0  0  0  0
   10.9400  -18.4780   28.5766 C   0  0  0  0  0  0  0  0  0  0  0  0
   11.3722  -18.8058   29.7350 O   0  0  0  0  0  0  0  0  0  0  0  0
   10.2524  -19.4570   27.8835 O   0  0  0  0  0  0  0  0  0  0  0  0
  2  1  1  1
  2  3  1  0
  2 10  1  0
  3  4  1  0
  4  5  2  0
  5  6  1  0
  7  6  2  0
  8  7  1  0
  9  4  1  0
  9  8  2  0
 10 11  2  0
 10 12  1  0
 12 13  1  0
 13 18  1  0
 13 14  1  6
 14 15  1  0
 15 16  1  0
 16 20  1  0
 17 16  2  0
 18 26  1  0
 19 18  2  0
 21 22  1  0
 22 24  1  0
 23 22  2  0
 25 24  1  1
 25 27  1  0
 26 25  1  0
 27 28  2  0
 27 29  1  0
M  END
$$$$
