FEN.pdb
     RDKit          3D

 29 29  0  0  1  0  0  0  0  0999 V2000
    5.9071  -16.6504   25.2257 N   0  0  0  0  0  0  0  0  0  0  0  0
    7.1798  -16.0704   24.9388 C   0  0  1  0  0  0  0  0  0  0  0  0
    7.6042  -15.1010   26.0070 C   0  0  0  0  0  0  0  0  0  0  0  0
    6.9240  -13.7981   25.7767 C   0  0  0  0  0  0  0  0  0  0  0  0
    7.4683  -12.8257   24.9656 C   0  0  0  0  0  0  0  0  0  0  0  0
    6.8170  -11.6111   24.7610 C   0  0  0  0  0  0  0  0  0  0  0  0
    5.6056  -11.3322   25.3589 C   0  0  0  0  0  0  0  0  0  0  0  0
    5.0606  -12.3075   26.1719 C   0  0  0  0  0  0  0  0  0  0  0  0
    5.7066  -13.5138   26.3758 C   0  0  0  0  0  0  0  0  0  0  0  0
    8.2353  -17.0829   24.6720 C   0  0  0  0  0  0  0  0  0  0  0  0
    8.0188  -18.2604   25.0708 O   0  0  0  0  0  0  0  0  0  0  0  0
    9.4415  -16.7648   24.0007 N   0  0  0  0  0  0  0  0  0  0  0  0
   10.5651  -17.6463   24.0038 C   0  0  1  0  0  0  0  0  0  0  0  0
   11.5046  -17.5059   22.8599 C   0  0  0  0  0  0  0  0  0  0  0  0
   12.3084  -16.2605   22.7962 C   0  0  0  0  0  0  0  0  0  0  0  0
   13.1687  -16.0882   21.6338 C   0  0  0  0  0  0  0  0  0  0  0  0
   14.2457  -15.4583   21.7306 O   0  0  0  0  0  0  0  0  0  0  0  0
   11.2822  -17.6906   25.3227 C   0  0  0  0  0  0  0  0  0  0  0  0
   12.4836  -18.0610   25.3132 O   0  0  0  0  0  0  0  0  0  0  0  0
   12.8239  -16.6107   20.4001 O   0  0  0  0  0  0  0  0  0  0  0  0
   12.1778  -15.0231   26.9617 N   0  0  0  0  0  0  0  0  0  0  0  0
   11.5456  -15.1448   28.2214 C   0  0  0  0  0  0  0  0  0  0  0  0
   11.3969  -14.0928   28.8906 O   0  0  0  0  0  0  0  0  0  0  0  0
   11.0616  -16.4181   28.7791 C   0  0  0  0  0  0  0  0  0  0  0  0
   11.3560  -17.5356   27.8391 C   0  0  2  0  0  0  0  0  0  0  0  0
   10.6918  -17.3480   26.5481 N   0  0  0  0  0  0  0  0  0  0  0  0
   10.9616  -18.8265   28.3919 C   0  0  0  0  0  0  0  0  0  0  0  0
   11.5058  -19.2746   29.4593 O   0  0  0  0  0  0  0  0  0  0  0  0
    9.9968  -19.6320   27.8157 O   0  0  0  0  0  0  0  0  0  0  0  0
  2  1  1  1
  2  3  1  0
  2 10  1  0
  3  4  1  0
  4  5  2  0
  5  6  1  0
  7  6  2  0
  8  7  1  0
  9  4  1  0
  9  8  2  0
 10 11  2  0
 10 12  1  0
 12 13  1  0
 13 18  1  0
 13 14  1  6
 14 15  1  0
 15 16  1  0
 16 20  1  0
 17 16  2  0
 18 26  1  0
 19 18  2  0
 21 22  1  0
 22 24  1  0
 23 22  2  0
 25 24  1  1
 25 27  1  0
 26 25  1  0
 27 28  2  0
 27 29  1  0
M  END
$$$$
