FEN.pdb
     RDKit          3D

 29 29  0  0  1  0  0  0  0  0999 V2000
    5.9194  -16.3089   25.6526 N   0  0  0  0  0  0  0  0  0  0  0  0
    7.1463  -15.8365   25.0956 C   0  0  1  0  0  0  0  0  0  0  0  0
    7.8849  -14.9419   26.0520 C   0  0  0  0  0  0  0  0  0  0  0  0
    7.1725  -13.6392   26.1452 C   0  0  0  0  0  0  0  0  0  0  0  0
    6.2324  -13.3913   27.1222 C   0  0  0  0  0  0  0  0  0  0  0  0
    5.5750  -12.1650   27.1945 C   0  0  0  0  0  0  0  0  0  0  0  0
    5.8364  -11.1520   26.2954 C   0  0  0  0  0  0  0  0  0  0  0  0
    6.7789  -11.4012   25.3163 C   0  0  0  0  0  0  0  0  0  0  0  0
    7.4322  -12.6186   25.2435 C   0  0  0  0  0  0  0  0  0  0  0  0
    8.0171  -16.9308   24.5909 C   0  0  0  0  0  0  0  0  0  0  0  0
    8.1184  -17.9644   25.3079 O   0  0  0  0  0  0  0  0  0  0  0  0
    8.7142  -16.8417   23.3609 N   0  0  0  0  0  0  0  0  0  0  0  0
    9.7072  -17.7956   22.9824 C   0  0  1  0  0  0  0  0  0  0  0  0
   10.1635  -17.7327   21.5685 C   0  0  0  0  0  0  0  0  0  0  0  0
   10.6700  -16.4264   21.0807 C   0  0  0  0  0  0  0  0  0  0  0  0
   11.0835  -16.3573   19.6860 C   0  0  0  0  0  0  0  0  0  0  0  0
   11.7162  -15.3646   19.2613 O   0  0  0  0  0  0  0  0  0  0  0  0
   10.8575  -17.8702   23.9452 C   0  0  0  0  0  0  0  0  0  0  0  0
   11.5194  -16.8182   24.1347 O   0  0  0  0  0  0  0  0  0  0  0  0
   10.7918  -17.3772   18.7980 O   0  0  0  0  0  0  0  0  0  0  0  0
   10.3655  -18.3400   27.3959 N   0  0  0  0  0  0  0  0  0  0  0  0
   11.0094  -19.5907   27.5456 C   0  0  0  0  0  0  0  0  0  0  0  0
   10.6173  -20.3270   28.4840 O   0  0  0  0  0  0  0  0  0  0  0  0
   12.0963  -20.0658   26.6740 C   0  0  0  0  0  0  0  0  0  0  0  0
   12.3444  -19.0846   25.5811 C   0  0  2  0  0  0  0  0  0  0  0  0
   11.2297  -19.0343   24.6334 N   0  0  0  0  0  0  0  0  0  0  0  0
   13.5724  -19.3838   24.8529 C   0  0  0  0  0  0  0  0  0  0  0  0
   13.5321  -19.7749   23.6357 O   0  0  0  0  0  0  0  0  0  0  0  0
   14.8308  -19.2664   25.4137 O   0  0  0  0  0  0  0  0  0  0  0  0
  2  1  1  1
  2  3  1  0
  2 10  1  0
  3  4  1  0
  4  5  2  0
  5  6  1  0
  7  6  2  0
  8  7  1  0
  9  4  1  0
  9  8  2  0
 10 11  2  0
 10 12  1  0
 12 13  1  0
 13 18  1  0
 13 14  1  6
 14 15  1  0
 15 16  1  0
 16 20  1  0
 17 16  2  0
 18 26  1  0
 19 18  2  0
 21 22  1  0
 22 24  1  0
 23 22  2  0
 25 24  1  1
 25 27  1  0
 26 25  1  0
 27 28  2  0
 27 29  1  0
M  END
$$$$
