SLV.pdb
     RDKit          3D

 22 21  0  0  1  0  0  0  0  0999 V2000
   20.2700   -8.2234  -21.6621 O   0  0  0  0  0  0  0  0  0  0  0  0
   19.9595   -7.9587  -20.3367 C   0  0  0  0  0  0  0  0  0  0  0  0
   19.7738   -9.2859  -19.6282 C   0  0  2  0  0  0  0  0  0  0  0  0
   18.5816   -9.9348  -20.0832 N   0  0  0  0  0  0  0  0  0  0  0  0
   19.7287   -9.1028  -18.1476 C   0  0  0  0  0  0  0  0  0  0  0  0
   18.6472   -8.9478  -17.5370 O   0  0  0  0  0  0  0  0  0  0  0  0
   23.6134  -10.5272  -13.8253 C   0  0  0  0  0  0  0  0  0  0  0  0
   22.5172   -9.4590  -14.0506 C   0  0  2  0  0  0  0  0  0  0  0  0
   21.5300   -9.6605  -12.9543 C   0  0  0  0  0  0  0  0  0  0  0  0
   22.0155   -9.6946  -15.4213 C   0  0  0  0  0  0  0  0  0  0  0  0
   20.9765   -8.7780  -15.9599 C   0  0  2  0  0  0  0  0  0  0  0  0
   20.9208   -9.1025  -17.4094 N   0  0  0  0  0  0  0  0  0  0  0  0
   21.3704   -7.3794  -15.8208 C   0  0  0  0  0  0  0  0  0  0  0  0
   22.3616   -6.9346  -16.5097 O   0  0  0  0  0  0  0  0  0  0  0  0
   20.4718   -2.6866  -14.7757 C   0  0  0  0  0  0  0  0  0  0  0  0
   20.0276   -4.0624  -15.1518 C   0  0  1  0  0  0  0  0  0  0  0  0
   19.3623   -4.1633  -16.4791 C   0  0  0  0  0  0  0  0  0  0  0  0
   21.1960   -5.0106  -14.9946 C   0  0  2  0  0  0  0  0  0  0  0  0
   20.7739   -6.3941  -14.9889 N   0  0  0  0  0  0  0  0  0  0  0  0
   21.9821   -4.7362  -13.7905 C   0  0  0  0  0  0  0  0  0  0  0  0
   22.8194   -3.7772  -13.8312 O   0  0  0  0  0  0  0  0  0  0  0  0
   21.8575   -5.4628  -12.6244 O   0  0  0  0  0  0  0  0  0  0  0  0
  2  3  1  0
  2  1  1  0
  3  4  1  6
  5  3  1  0
  6  5  2  0
  8  7  1  1
  8 10  1  0
  9  8  1  0
 11 10  1  1
 11 13  1  0
 11 12  1  0
 12  5  1  0
 13 19  1  0
 14 13  2  0
 16 17  1  6
 16 15  1  0
 18 16  1  0
 18 20  1  0
 18 19  1  1
 20 21  2  0
 20 22  1  0
M  END
$$$$
