SLV.pdb
     RDKit          3D

 22 21  0  0  1  0  0  0  0  0999 V2000
   20.4471  -37.3105   -5.7736 O   0  0  0  0  0  0  0  0  0  0  0  0
   20.0341  -36.1478   -6.4065 C   0  0  0  0  0  0  0  0  0  0  0  0
   20.9587  -35.9049   -7.5829 C   0  0  2  0  0  0  0  0  0  0  0  0
   20.8305  -36.9555   -8.5469 N   0  0  0  0  0  0  0  0  0  0  0  0
   22.3776  -35.7855   -7.1354 C   0  0  0  0  0  0  0  0  0  0  0  0
   23.1017  -36.7929   -6.9701 O   0  0  0  0  0  0  0  0  0  0  0  0
   26.3164  -33.7063   -8.7558 C   0  0  0  0  0  0  0  0  0  0  0  0
   24.9769  -32.9555   -8.5673 C   0  0  2  0  0  0  0  0  0  0  0  0
   25.1929  -31.5997   -9.1439 C   0  0  0  0  0  0  0  0  0  0  0  0
   24.7016  -33.0024   -7.1154 C   0  0  0  0  0  0  0  0  0  0  0  0
   24.3471  -34.3111   -6.5061 C   0  0  2  0  0  0  0  0  0  0  0  0
   22.9263  -34.5186   -6.8904 N   0  0  0  0  0  0  0  0  0  0  0  0
   24.4228  -34.2630   -5.0493 C   0  0  0  0  0  0  0  0  0  0  0  0
   23.6488  -33.4614   -4.4063 O   0  0  0  0  0  0  0  0  0  0  0  0
   25.7223  -37.3990   -2.7816 C   0  0  0  0  0  0  0  0  0  0  0  0
   24.7699  -36.3891   -2.2299 C   0  0  1  0  0  0  0  0  0  0  0  0
   24.6143  -36.4197   -0.7502 C   0  0  0  0  0  0  0  0  0  0  0  0
   25.1451  -35.0242   -2.7639 C   0  0  2  0  0  0  0  0  0  0  0  0
   25.2755  -35.0230   -4.2044 N   0  0  0  0  0  0  0  0  0  0  0  0
   26.3755  -34.5064   -2.1630 C   0  0  0  0  0  0  0  0  0  0  0  0
   27.4667  -34.6785   -2.7972 O   0  0  0  0  0  0  0  0  0  0  0  0
   26.4059  -33.8462   -0.9519 O   0  0  0  0  0  0  0  0  0  0  0  0
  2  3  1  0
  2  1  1  0
  3  4  1  6
  5  3  1  0
  6  5  2  0
  8  7  1  1
  8 10  1  0
  9  8  1  0
 11 10  1  6
 11 13  1  0
 11 12  1  0
 12  5  1  0
 13 19  1  0
 14 13  2  0
 16 17  1  1
 16 15  1  0
 18 16  1  0
 18 20  1  0
 18 19  1  6
 20 21  2  0
 20 22  1  0
M  END
$$$$
