SLV.pdb
     RDKit          3D

 22 21  0  0  1  0  0  0  0  0999 V2000
   27.8189  -23.8486  -16.0578 O   0  0  0  0  0  0  0  0  0  0  0  0
   27.1415  -24.8363  -16.7569 C   0  0  0  0  0  0  0  0  0  0  0  0
   28.1124  -25.9707  -17.0180 C   0  0  2  0  0  0  0  0  0  0  0  0
   29.1242  -25.5617  -17.9444 N   0  0  0  0  0  0  0  0  0  0  0  0
   27.4016  -27.1791  -17.5304 C   0  0  0  0  0  0  0  0  0  0  0  0
   27.1438  -27.3237  -18.7466 O   0  0  0  0  0  0  0  0  0  0  0  0
   27.9328  -31.6108  -18.0929 C   0  0  0  0  0  0  0  0  0  0  0  0
   28.1558  -31.0349  -16.6743 C   0  0  2  0  0  0  0  0  0  0  0  0
   28.6790  -32.1664  -15.8601 C   0  0  0  0  0  0  0  0  0  0  0  0
   26.8435  -30.4947  -16.2594 C   0  0  0  0  0  0  0  0  0  0  0  0
   26.2489  -29.3923  -17.0602 C   0  0  2  0  0  0  0  0  0  0  0  0
   27.0068  -28.1855  -16.6375 N   0  0  0  0  0  0  0  0  0  0  0  0
   24.8424  -29.1865  -16.7287 C   0  0  0  0  0  0  0  0  0  0  0  0
   24.5246  -28.8275  -15.5348 O   0  0  0  0  0  0  0  0  0  0  0  0
   22.5326  -26.6665  -17.9694 C   0  0  0  0  0  0  0  0  0  0  0  0
   21.7682  -27.9423  -18.1083 C   0  0  1  0  0  0  0  0  0  0  0  0
   21.6013  -28.4218  -19.5072 C   0  0  0  0  0  0  0  0  0  0  0  0
   22.3791  -28.9777  -17.1898 C   0  0  2  0  0  0  0  0  0  0  0  0
   23.7227  -29.3325  -17.5910 N   0  0  0  0  0  0  0  0  0  0  0  0
   21.5640  -30.1898  -17.0914 C   0  0  0  0  0  0  0  0  0  0  0  0
   21.9354  -31.2130  -17.7529 O   0  0  0  0  0  0  0  0  0  0  0  0
   20.4224  -30.2729  -16.3212 O   0  0  0  0  0  0  0  0  0  0  0  0
  2  3  1  0
  2  1  1  0
  3  4  1  6
  5  3  1  0
  6  5  2  0
  8  7  1  6
  8 10  1  0
  9  8  1  0
 11 10  1  1
 11 13  1  0
 11 12  1  0
 12  5  1  0
 13 19  1  0
 14 13  2  0
 16 17  1  6
 16 15  1  0
 18 16  1  0
 18 20  1  0
 18 19  1  6
 20 21  2  0
 20 22  1  0
M  END
$$$$
