SLV.pdb
     RDKit          3D

 22 21  0  0  1  0  0  0  0  0999 V2000
   20.1727   -4.7804  -14.9799 O   0  0  0  0  0  0  0  0  0  0  0  0
   20.5727   -5.7682  -15.8673 C   0  0  0  0  0  0  0  0  0  0  0  0
   22.0875   -5.7582  -15.9227 C   0  0  2  0  0  0  0  0  0  0  0  0
   22.5576   -4.5752  -16.5777 N   0  0  0  0  0  0  0  0  0  0  0  0
   22.6078   -6.9733  -16.6161 C   0  0  0  0  0  0  0  0  0  0  0  0
   22.7625   -7.0061  -17.8577 O   0  0  0  0  0  0  0  0  0  0  0  0
   25.9922  -10.7650  -17.0989 C   0  0  0  0  0  0  0  0  0  0  0  0
   25.8154   -9.8540  -15.8610 C   0  0  2  0  0  0  0  0  0  0  0  0
   26.7552  -10.3849  -14.8353 C   0  0  0  0  0  0  0  0  0  0  0  0
   24.3788   -9.9297  -15.5199 C   0  0  0  0  0  0  0  0  0  0  0  0
   23.3933   -9.3849  -16.4904 C   0  0  2  0  0  0  0  0  0  0  0  0
   22.9354   -8.1142  -15.8697 N   0  0  0  0  0  0  0  0  0  0  0  0
   22.2376  -10.2649  -16.6329 C   0  0  0  0  0  0  0  0  0  0  0  0
   21.4986  -10.5022  -15.6068 O   0  0  0  0  0  0  0  0  0  0  0  0
   18.6655  -12.3225  -19.2865 C   0  0  0  0  0  0  0  0  0  0  0  0
   19.7720  -11.3299  -19.1389 C   0  0  1  0  0  0  0  0  0  0  0  0
   19.3502   -9.9057  -19.2292 C   0  0  0  0  0  0  0  0  0  0  0  0
   20.5440  -11.6464  -17.8768 C   0  0  2  0  0  0  0  0  0  0  0  0
   21.7951  -10.9236  -17.8114 N   0  0  0  0  0  0  0  0  0  0  0  0
   20.8006  -13.0793  -17.7216 C   0  0  0  0  0  0  0  0  0  0  0  0
   21.9051  -13.5378  -18.1599 O   0  0  0  0  0  0  0  0  0  0  0  0
   19.9081  -13.9472  -17.1269 O   0  0  0  0  0  0  0  0  0  0  0  0
  2  3  1  0
  2  1  1  0
  3  4  1  6
  5  3  1  0
  6  5  2  0
  8  7  1  6
  8 10  1  0
  9  8  1  0
 11 10  1  1
 11 13  1  0
 11 12  1  0
 12  5  1  0
 13 19  1  0
 14 13  2  0
 16 17  1  1
 16 15  1  0
 18 16  1  0
 18 20  1  0
 18 19  1  6
 20 21  2  0
 20 22  1  0
M  END
$$$$
