SLV.pdb
     RDKit          3D

 22 21  0  0  1  0  0  0  0  0999 V2000
   27.0993  -18.9196  -15.6412 O   0  0  0  0  0  0  0  0  0  0  0  0
   28.3147  -19.0035  -14.9787 C   0  0  0  0  0  0  0  0  0  0  0  0
   28.5409  -20.4546  -14.6034 C   0  0  2  0  0  0  0  0  0  0  0  0
   28.6529  -21.2650  -15.7783 N   0  0  0  0  0  0  0  0  0  0  0  0
   27.4416  -20.9614  -13.7300 C   0  0  0  0  0  0  0  0  0  0  0  0
   26.6493  -21.8489  -14.1187 O   0  0  0  0  0  0  0  0  0  0  0  0
   26.1507  -19.4430   -7.9814 C   0  0  0  0  0  0  0  0  0  0  0  0
   25.5518  -20.2976   -9.1236 C   0  0  2  0  0  0  0  0  0  0  0  0
   25.3317  -21.6495   -8.5395 C   0  0  0  0  0  0  0  0  0  0  0  0
   26.5345  -20.2236  -10.2258 C   0  0  0  0  0  0  0  0  0  0  0  0
   26.1890  -20.8613  -11.5234 C   0  0  2  0  0  0  0  0  0  0  0  0
   27.2810  -20.4386  -12.4389 N   0  0  0  0  0  0  0  0  0  0  0  0
   24.9277  -20.3520  -12.0527 C   0  0  0  0  0  0  0  0  0  0  0  0
   24.8053  -19.0916  -12.2800 O   0  0  0  0  0  0  0  0  0  0  0  0
   23.5308  -20.4123  -15.2136 C   0  0  0  0  0  0  0  0  0  0  0  0
   22.3901  -20.9262  -14.3975 C   0  0  1  0  0  0  0  0  0  0  0  0
   22.1234  -22.3829  -14.5436 C   0  0  0  0  0  0  0  0  0  0  0  0
   22.5869  -20.4952  -12.9608 C   0  0  2  0  0  0  0  0  0  0  0  0
   23.7613  -21.0986  -12.3702 N   0  0  0  0  0  0  0  0  0  0  0  0
   21.4196  -20.7816  -12.1251 C   0  0  0  0  0  0  0  0  0  0  0  0
   21.5228  -21.7043  -11.2531 O   0  0  0  0  0  0  0  0  0  0  0  0
   20.2238  -20.1028  -12.2383 O   0  0  0  0  0  0  0  0  0  0  0  0
  2  3  1  0
  2  1  1  0
  3  4  1  6
  5  3  1  0
  6  5  2  0
  8  7  1  1
  8 10  1  0
  9  8  1  0
 11 10  1  1
 11 13  1  0
 11 12  1  0
 12  5  1  0
 13 19  1  0
 14 13  2  0
 16 17  1  1
 16 15  1  0
 18 16  1  0
 18 20  1  0
 18 19  1  1
 20 21  2  0
 20 22  1  0
M  END
$$$$
