SLV.pdb
     RDKit          3D

 22 21  0  0  1  0  0  0  0  0999 V2000
   15.5821   -8.2902  -18.5724 O   0  0  0  0  0  0  0  0  0  0  0  0
   16.3757   -7.8428  -17.5269 C   0  0  0  0  0  0  0  0  0  0  0  0
   16.7149   -9.0366  -16.6564 C   0  0  2  0  0  0  0  0  0  0  0  0
   15.5367   -9.5461  -16.0226 N   0  0  0  0  0  0  0  0  0  0  0  0
   17.7393   -8.6801  -15.6311 C   0  0  0  0  0  0  0  0  0  0  0  0
   17.4282   -8.1081  -14.5622 O   0  0  0  0  0  0  0  0  0  0  0  0
   23.4347  -10.5711  -14.9993 C   0  0  0  0  0  0  0  0  0  0  0  0
   22.5367   -9.4273  -14.4712 C   0  0  2  0  0  0  0  0  0  0  0  0
   22.5389   -9.5680  -12.9888 C   0  0  0  0  0  0  0  0  0  0  0  0
   21.2292   -9.6166  -15.1349 C   0  0  0  0  0  0  0  0  0  0  0  0
   20.1788   -8.5843  -14.9323 C   0  0  2  0  0  0  0  0  0  0  0  0
   19.0883   -8.9881  -15.8582 N   0  0  0  0  0  0  0  0  0  0  0  0
   20.6453   -7.2591  -15.3280 C   0  0  0  0  0  0  0  0  0  0  0  0
   21.1201   -7.0879  -16.5114 O   0  0  0  0  0  0  0  0  0  0  0  0
   19.2825   -4.1014  -16.3416 C   0  0  0  0  0  0  0  0  0  0  0  0
   20.1479   -3.7544  -15.1746 C   0  0  1  0  0  0  0  0  0  0  0  0
   19.4112   -3.4623  -13.9150 C   0  0  0  0  0  0  0  0  0  0  0  0
   21.2030   -4.8269  -15.0156 C   0  0  2  0  0  0  0  0  0  0  0  0
   20.6413   -6.0738  -14.5446 N   0  0  0  0  0  0  0  0  0  0  0  0
   22.2903   -4.4156  -14.1257 C   0  0  0  0  0  0  0  0  0  0  0  0
   23.0877   -3.5117  -14.5375 O   0  0  0  0  0  0  0  0  0  0  0  0
   22.4879   -4.9578  -12.8726 O   0  0  0  0  0  0  0  0  0  0  0  0
  2  3  1  0
  2  1  1  0
  3  4  1  1
  5  3  1  0
  6  5  2  0
  8  7  1  6
  8 10  1  0
  9  8  1  0
 11 10  1  6
 11 13  1  0
 11 12  1  0
 12  5  1  0
 13 19  1  0
 14 13  2  0
 16 17  1  1
 16 15  1  0
 18 16  1  0
 18 20  1  0
 18 19  1  1
 20 21  2  0
 20 22  1  0
M  END
$$$$
