RCV.pdb
     RDKit          3D

 25 24  0  0  1  0  0  0  0  0999 V2000
    8.5219  -12.7487   15.7244 N   0  0  0  0  0  0  0  0  0  0  0  0
    7.9686  -14.0472   15.8354 C   0  0  0  0  0  0  0  0  0  0  0  0
    7.0108  -14.3752   15.0122 N   0  0  0  0  0  0  0  0  0  0  0  0
    8.4056  -14.9859   16.7839 N   0  0  0  0  0  0  0  0  0  0  0  0
    9.4571  -14.6498   17.7462 C   0  0  0  0  0  0  0  0  0  0  0  0
    9.8066  -15.8838   18.5220 C   0  0  0  0  0  0  0  0  0  0  0  0
   10.1930  -15.6424   19.9367 C   0  0  0  0  0  0  0  0  0  0  0  0
    9.5427  -16.4924   20.9685 C   0  0  2  0  0  0  0  0  0  0  0  0
    8.1749  -16.8648   20.6827 N   0  0  0  0  0  0  0  0  0  0  0  0
    9.5863  -15.6953   22.2523 C   0  0  0  0  0  0  0  0  0  0  0  0
   10.5050  -14.8779   22.4995 O   0  0  0  0  0  0  0  0  0  0  0  0
    6.5787  -15.3073   14.9893 N   0  0  0  0  0  0  0  0  0  0  0  0
    8.5799  -15.8418   23.2358 C   0  0  1  0  0  0  0  0  0  0  0  0
    8.5377  -15.0551   24.4676 C   0  0  0  0  0  0  0  0  0  0  0  0
    7.0730  -14.8830   24.8793 S   0  0  0  0  0  0  0  0  0  0  0  0
    6.5016  -13.2668   24.3450 C   0  0  0  0  0  0  0  0  0  0  0  0
    9.3860  -15.6371   25.5007 O   0  0  0  0  0  0  0  0  0  0  0  0
   10.0310  -16.7056   25.2145 C   0  0  0  0  0  0  0  0  0  0  0  0
   10.5038  -13.5693   28.8025 C   0  0  1  0  0  0  0  0  0  0  0  0
   10.2699  -15.0500   29.0841 C   0  0  0  0  0  0  0  0  0  0  0  0
   11.2116  -15.5532   30.1522 C   0  0  2  0  0  0  0  0  0  0  0  0
   10.3792  -15.8475   27.8044 N   0  0  0  0  0  0  0  0  0  0  0  0
    9.5817  -15.1466   26.8014 C   0  0  0  0  0  0  0  0  0  0  0  0
    9.9130  -17.2491   27.9653 O   0  0  0  0  0  0  0  0  0  0  0  0
   10.8481  -18.2434   28.2736 O   0  0  0  0  0  0  0  0  0  0  0  0
  2  1  1  0
  3  2  2  0
  4  2  1  0
  5  6  1  0
  5  4  1  0
  7  6  1  0
  8  7  1  0
  8 10  1  0
  8  9  1  6
 10 12  1  0
 10 11  2  0
 12 13  1  0
 13 14  1  6
 14 15  1  0
 16 17  2  0
 16 13  1  0
 19 18  1  1
 19 21  1  0
 19 20  1  0
 21 22  1  6
 22 16  1  0
 23 21  1  0
 24 23  1  0
 25 23  2  0
M  END
$$$$
