RCV.pdb
     RDKit          3D

 25 24  0  0  1  0  0  0  0  0999 V2000
    8.9527  -20.4454   22.4862 N   0  0  0  0  0  0  0  0  0  0  0  0
    9.7308  -20.6564   21.3224 C   0  0  0  0  0  0  0  0  0  0  0  0
    9.7241  -21.8483   20.7914 N   0  0  0  0  0  0  0  0  0  0  0  0
   10.4993  -19.6456   20.7228 N   0  0  0  0  0  0  0  0  0  0  0  0
   10.5323  -18.2929   21.2830 C   0  0  0  0  0  0  0  0  0  0  0  0
    9.8264  -17.3675   20.3386 C   0  0  0  0  0  0  0  0  0  0  0  0
    9.7909  -15.9453   20.7689 C   0  0  0  0  0  0  0  0  0  0  0  0
    8.4540  -15.3566   21.0443 C   0  0  2  0  0  0  0  0  0  0  0  0
    7.9911  -14.4008   20.0626 N   0  0  0  0  0  0  0  0  0  0  0  0
    8.5678  -14.6766   22.3896 C   0  0  0  0  0  0  0  0  0  0  0  0
    9.3043  -13.6780   22.5726 O   0  0  0  0  0  0  0  0  0  0  0  0
   10.2956  -22.1086   19.9778 N   0  0  0  0  0  0  0  0  0  0  0  0
    7.8384  -15.1457   23.5075 C   0  0  2  0  0  0  0  0  0  0  0  0
    7.8323  -14.4717   24.8051 C   0  0  0  0  0  0  0  0  0  0  0  0
    6.4128  -14.5369   25.3752 S   0  0  0  0  0  0  0  0  0  0  0  0
    6.3145  -13.4779   26.8219 C   0  0  0  0  0  0  0  0  0  0  0  0
    8.8586  -15.0102   25.6897 O   0  0  0  0  0  0  0  0  0  0  0  0
    9.3644  -16.1494   25.3967 C   0  0  0  0  0  0  0  0  0  0  0  0
   10.5427  -12.7725   28.6813 C   0  0  1  0  0  0  0  0  0  0  0  0
   10.3716  -14.2523   29.0096 C   0  0  0  0  0  0  0  0  0  0  0  0
   11.4542  -14.7268   29.9495 C   0  0  2  0  0  0  0  0  0  0  0  0
   10.3233  -15.0661   27.7364 N   0  0  0  0  0  0  0  0  0  0  0  0
    9.3677  -14.4066   26.8503 C   0  0  0  0  0  0  0  0  0  0  0  0
    9.9317  -16.4790   27.9784 O   0  0  0  0  0  0  0  0  0  0  0  0
   10.9328  -17.4501   28.0907 O   0  0  0  0  0  0  0  0  0  0  0  0
  2  1  1  0
  3  2  2  0
  4  2  1  0
  5  6  1  0
  5  4  1  0
  7  6  1  0
  8  7  1  0
  8 10  1  0
  8  9  1  6
 10 12  1  0
 10 11  2  0
 12 13  1  0
 13 14  1  6
 14 15  1  0
 16 17  2  0
 16 13  1  0
 19 18  1  1
 19 21  1  0
 19 20  1  0
 21 22  1  6
 22 16  1  0
 23 21  1  0
 24 23  1  0
 25 23  2  0
M  END
$$$$
