RCV.pdb
     RDKit          3D

 25 24  0  0  1  0  0  0  0  0999 V2000
    8.6169  -19.2887   19.8290 N   0  0  0  0  0  0  0  0  0  0  0  0
   10.0038  -19.0066   19.7910 C   0  0  0  0  0  0  0  0  0  0  0  0
   10.6657  -19.3409   18.7173 N   0  0  0  0  0  0  0  0  0  0  0  0
   10.6872  -18.3870   20.8498 N   0  0  0  0  0  0  0  0  0  0  0  0
   10.5798  -16.9436   21.0727 C   0  0  0  0  0  0  0  0  0  0  0  0
    9.4879  -16.4054   20.1983 C   0  0  0  0  0  0  0  0  0  0  0  0
    9.2362  -14.9475   20.3411 C   0  0  0  0  0  0  0  0  0  0  0  0
    7.8651  -14.5353   20.7413 C   0  0  2  0  0  0  0  0  0  0  0  0
    7.2492  -13.5441   19.8871 N   0  0  0  0  0  0  0  0  0  0  0  0
    7.9894  -13.9808   22.1421 C   0  0  0  0  0  0  0  0  0  0  0  0
    8.4481  -12.8355   22.3683 O   0  0  0  0  0  0  0  0  0  0  0  0
   11.6664  -19.1474   18.5863 N   0  0  0  0  0  0  0  0  0  0  0  0
    7.5875  -14.7412   23.2654 C   0  0  2  0  0  0  0  0  0  0  0  0
    7.5931  -14.2223   24.6325 C   0  0  0  0  0  0  0  0  0  0  0  0
    6.1607  -14.2689   25.1713 S   0  0  0  0  0  0  0  0  0  0  0  0
    6.1115  -13.4565   26.7719 C   0  0  0  0  0  0  0  0  0  0  0  0
    8.5685  -14.9190   25.4625 O   0  0  0  0  0  0  0  0  0  0  0  0
    9.0491  -16.0219   25.0242 C   0  0  0  0  0  0  0  0  0  0  0  0
    9.2221  -14.3187   29.6176 C   0  0  1  0  0  0  0  0  0  0  0  0
   10.4144  -14.4202   28.6717 C   0  0  0  0  0  0  0  0  0  0  0  0
   10.9155  -13.0495   28.2835 C   0  0  1  0  0  0  0  0  0  0  0  0
   10.0535  -15.2589   27.4667 N   0  0  0  0  0  0  0  0  0  0  0  0
    9.0526  -14.5071   26.7141 C   0  0  0  0  0  0  0  0  0  0  0  0
    9.5357  -16.6004   27.8412 O   0  0  0  0  0  0  0  0  0  0  0  0
   10.4306  -17.5625   28.3221 O   0  0  0  0  0  0  0  0  0  0  0  0
  2  1  1  0
  3  2  2  0
  4  2  1  0
  5  6  1  0
  5  4  1  0
  7  6  1  0
  8  7  1  0
  8 10  1  0
  8  9  1  6
 10 12  1  0
 10 11  2  0
 12 13  1  0
 13 14  1  6
 14 15  1  0
 16 17  2  0
 16 13  1  0
 19 18  1  1
 19 21  1  0
 19 20  1  0
 21 22  1  6
 22 16  1  0
 23 21  1  0
 24 23  1  0
 25 23  2  0
M  END
$$$$
