RCV.pdb
     RDKit          3D

 25 24  0  0  1  0  0  0  0  0999 V2000
    7.4483  -14.6218   14.8910 N   0  0  0  0  0  0  0  0  0  0  0  0
    8.2094  -14.0471   15.9373 C   0  0  0  0  0  0  0  0  0  0  0  0
    7.9734  -12.8028   16.2517 N   0  0  0  0  0  0  0  0  0  0  0  0
    9.1956  -14.7548   16.6432 N   0  0  0  0  0  0  0  0  0  0  0  0
    8.8405  -15.6153   17.7737 C   0  0  0  0  0  0  0  0  0  0  0  0
    8.1916  -14.7727   18.8299 C   0  0  0  0  0  0  0  0  0  0  0  0
    8.9649  -14.6517   20.0934 C   0  0  0  0  0  0  0  0  0  0  0  0
    8.6911  -15.6595   21.1515 C   0  0  2  0  0  0  0  0  0  0  0  0
    7.4015  -16.3078   21.0614 N   0  0  0  0  0  0  0  0  0  0  0  0
    8.7884  -14.9197   22.4661 C   0  0  0  0  0  0  0  0  0  0  0  0
    9.7695  -14.1921   22.7515 O   0  0  0  0  0  0  0  0  0  0  0  0
    8.5104  -12.2863   16.9595 N   0  0  0  0  0  0  0  0  0  0  0  0
    7.7639  -15.0200   23.4367 C   0  0  1  0  0  0  0  0  0  0  0  0
    7.8534  -14.4190   24.7666 C   0  0  0  0  0  0  0  0  0  0  0  0
    6.4329  -14.2252   25.3043 S   0  0  0  0  0  0  0  0  0  0  0  0
    6.5111  -13.3045   26.8439 C   0  0  0  0  0  0  0  0  0  0  0  0
    8.7254  -15.1920   25.6429 O   0  0  0  0  0  0  0  0  0  0  0  0
    9.0217  -16.3868   25.2905 C   0  0  0  0  0  0  0  0  0  0  0  0
   11.0041  -13.4592   28.5765 C   0  0  1  0  0  0  0  0  0  0  0  0
   10.4556  -14.8363   28.9358 C   0  0  0  0  0  0  0  0  0  0  0  0
   11.4062  -15.5769   29.8461 C   0  0  2  0  0  0  0  0  0  0  0  0
   10.1432  -15.6168   27.6793 N   0  0  0  0  0  0  0  0  0  0  0  0
    9.2911  -14.7643   26.8543 C   0  0  0  0  0  0  0  0  0  0  0  0
    9.4754  -16.9130   27.9654 O   0  0  0  0  0  0  0  0  0  0  0  0
   10.2600  -18.0627   28.1085 O   0  0  0  0  0  0  0  0  0  0  0  0
  2  1  1  0
  3  2  2  0
  4  2  1  0
  5  6  1  0
  5  4  1  0
  7  6  1  0
  8  7  1  0
  8 10  1  0
  8  9  1  6
 10 12  1  0
 10 11  2  0
 12 13  1  0
 13 14  1  1
 14 15  1  0
 16 17  2  0
 16 13  1  0
 19 18  1  1
 19 21  1  0
 19 20  1  0
 21 22  1  6
 22 16  1  0
 23 21  1  0
 24 23  1  0
 25 23  2  0
M  END
$$$$
