RCV.pdb
     RDKit          3D

 25 24  0  0  1  0  0  0  0  0999 V2000
    6.8305  -12.4412   19.4886 N   0  0  0  0  0  0  0  0  0  0  0  0
    7.3544  -13.4236   18.6140 C   0  0  0  0  0  0  0  0  0  0  0  0
    8.4453  -13.1373   17.9576 N   0  0  0  0  0  0  0  0  0  0  0  0
    6.7548  -14.6797   18.4280 N   0  0  0  0  0  0  0  0  0  0  0  0
    7.0437  -15.7931   19.3344 C   0  0  0  0  0  0  0  0  0  0  0  0
    6.6133  -15.4072   20.7173 C   0  0  0  0  0  0  0  0  0  0  0  0
    7.5643  -15.7859   21.7949 C   0  0  0  0  0  0  0  0  0  0  0  0
    8.8298  -15.0107   21.8814 C   0  0  2  0  0  0  0  0  0  0  0  0
    9.9020  -15.4917   21.0385 N   0  0  0  0  0  0  0  0  0  0  0  0
    9.2618  -15.0793   23.3284 C   0  0  0  0  0  0  0  0  0  0  0  0
   10.1668  -15.8550   23.7188 O   0  0  0  0  0  0  0  0  0  0  0  0
    8.7971  -13.6992   17.1723 N   0  0  0  0  0  0  0  0  0  0  0  0
    8.6551  -14.2605   24.3099 C   0  0  1  0  0  0  0  0  0  0  0  0
    9.1105  -14.1958   25.6978 C   0  0  0  0  0  0  0  0  0  0  0  0
    8.2675  -13.1506   26.4333 S   0  0  0  0  0  0  0  0  0  0  0  0
    6.5377  -13.6227   26.3386 C   0  0  0  0  0  0  0  0  0  0  0  0
    9.1083  -15.5138   26.3211 O   0  0  0  0  0  0  0  0  0  0  0  0
    8.1352  -16.3017   26.0528 C   0  0  0  0  0  0  0  0  0  0  0  0
   12.3741  -17.7139   27.2614 C   0  0  1  0  0  0  0  0  0  0  0  0
   10.9548  -18.2439   27.0839 C   0  0  0  0  0  0  0  0  0  0  0  0
   10.6141  -18.3990   25.6208 C   0  0  1  0  0  0  0  0  0  0  0  0
    9.9715  -17.3527   27.8081 N   0  0  0  0  0  0  0  0  0  0  0  0
   10.0747  -16.0290   27.1994 C   0  0  0  0  0  0  0  0  0  0  0  0
   10.2339  -17.2845   29.2690 O   0  0  0  0  0  0  0  0  0  0  0  0
   10.0879  -18.4439   30.0388 O   0  0  0  0  0  0  0  0  0  0  0  0
  2  1  1  0
  3  2  2  0
  4  2  1  0
  5  6  1  0
  5  4  1  0
  7  6  1  0
  8  7  1  0
  8 10  1  0
  8  9  1  6
 10 12  1  0
 10 11  2  0
 12 13  1  0
 13 14  1  1
 14 15  1  0
 16 17  2  0
 16 13  1  0
 19 18  1  1
 19 21  1  0
 19 20  1  0
 21 22  1  6
 22 16  1  0
 23 21  1  0
 24 23  1  0
 25 23  2  0
M  END
$$$$
