RCV.pdb
     RDKit          3D

 25 24  0  0  1  0  0  0  0  0999 V2000
    6.8915  -20.0685   17.0197 N   0  0  0  0  0  0  0  0  0  0  0  0
    5.9408  -19.1885   17.5909 C   0  0  0  0  0  0  0  0  0  0  0  0
    4.6843  -19.5380   17.5515 N   0  0  0  0  0  0  0  0  0  0  0  0
    6.2923  -17.9693   18.1926 N   0  0  0  0  0  0  0  0  0  0  0  0
    7.1536  -17.9351   19.3765 C   0  0  0  0  0  0  0  0  0  0  0  0
    8.5832  -17.9845   18.9287 C   0  0  0  0  0  0  0  0  0  0  0  0
    9.4681  -16.9673   19.5542 C   0  0  0  0  0  0  0  0  0  0  0  0
   10.5696  -17.4698   20.4169 C   0  0  2  0  0  0  0  0  0  0  0  0
   11.1868  -18.6987   19.9693 N   0  0  0  0  0  0  0  0  0  0  0  0
    9.9622  -17.6843   21.7845 C   0  0  0  0  0  0  0  0  0  0  0  0
    9.5449  -18.8055   22.1612 O   0  0  0  0  0  0  0  0  0  0  0  0
    3.9277  -18.9771   17.9628 N   0  0  0  0  0  0  0  0  0  0  0  0
    9.8403  -16.6157   22.7037 C   0  0  1  0  0  0  0  0  0  0  0  0
    9.3640  -16.7845   24.0758 C   0  0  0  0  0  0  0  0  0  0  0  0
   10.2076  -17.8709   24.7483 S   0  0  0  0  0  0  0  0  0  0  0  0
    9.8532  -17.8804   26.5086 C   0  0  0  0  0  0  0  0  0  0  0  0
    9.3412  -15.5146   24.7918 O   0  0  0  0  0  0  0  0  0  0  0  0
   10.3490  -14.7354   24.6616 C   0  0  0  0  0  0  0  0  0  0  0  0
    7.1616  -12.7481   24.2852 C   0  0  1  0  0  0  0  0  0  0  0  0
    7.1047  -12.9890   25.7903 C   0  0  0  0  0  0  0  0  0  0  0  0
    6.8948  -11.6938   26.5381 C   0  0  2  0  0  0  0  0  0  0  0  0
    8.3472  -13.7182   26.2486 N   0  0  0  0  0  0  0  0  0  0  0  0
    8.3160  -15.0381   25.6238 C   0  0  0  0  0  0  0  0  0  0  0  0
    8.4255  -13.8354   27.7278 O   0  0  0  0  0  0  0  0  0  0  0  0
    8.8953  -12.7462   28.4702 O   0  0  0  0  0  0  0  0  0  0  0  0
  2  1  1  0
  3  2  2  0
  4  2  1  0
  5  6  1  0
  5  4  1  0
  7  6  1  0
  8  7  1  0
  8 10  1  0
  8  9  1  6
 10 12  1  0
 10 11  2  0
 12 13  1  0
 13 14  1  1
 14 15  1  0
 16 17  2  0
 16 13  1  0
 19 18  1  6
 19 21  1  0
 19 20  1  0
 21 22  1  6
 22 16  1  0
 23 21  1  0
 24 23  1  0
 25 23  2  0
M  END
$$$$
