RCV.pdb
     RDKit          3D

 25 24  0  0  1  0  0  0  0  0999 V2000
    8.5149  -19.7592   19.1742 N   0  0  0  0  0  0  0  0  0  0  0  0
    7.9915  -18.6625   18.4476 C   0  0  0  0  0  0  0  0  0  0  0  0
    7.8965  -18.7785   17.1514 N   0  0  0  0  0  0  0  0  0  0  0  0
    7.5739  -17.4694   19.0593 N   0  0  0  0  0  0  0  0  0  0  0  0
    7.5465  -17.3411   20.5178 C   0  0  0  0  0  0  0  0  0  0  0  0
    8.7112  -16.5000   20.9452 C   0  0  0  0  0  0  0  0  0  0  0  0
    8.7314  -15.1273   20.3756 C   0  0  0  0  0  0  0  0  0  0  0  0
    7.6394  -14.2080   20.7910 C   0  0  2  0  0  0  0  0  0  0  0  0
    7.4475  -13.0581   19.9352 N   0  0  0  0  0  0  0  0  0  0  0  0
    7.9958  -13.7411   22.1839 C   0  0  0  0  0  0  0  0  0  0  0  0
    8.9330  -12.9356   22.3985 O   0  0  0  0  0  0  0  0  0  0  0  0
    7.4880  -18.0547   16.5469 N   0  0  0  0  0  0  0  0  0  0  0  0
    7.2766  -14.1996   23.3127 C   0  0  2  0  0  0  0  0  0  0  0  0
    7.5456  -13.7470   24.6768 C   0  0  0  0  0  0  0  0  0  0  0  0
    6.2058  -13.5052   25.3772 S   0  0  0  0  0  0  0  0  0  0  0  0
    6.5146  -12.8451   27.0183 C   0  0  0  0  0  0  0  0  0  0  0  0
    8.4310  -14.6684   25.3789 O   0  0  0  0  0  0  0  0  0  0  0  0
    8.4992  -15.8744   24.9539 C   0  0  0  0  0  0  0  0  0  0  0  0
   11.0117  -13.3901   28.3239 C   0  0  1  0  0  0  0  0  0  0  0  0
   10.4519  -14.7980   28.5003 C   0  0  0  0  0  0  0  0  0  0  0  0
   11.4284  -15.6797   29.2417 C   0  0  2  0  0  0  0  0  0  0  0  0
   10.0648  -15.3767   27.1583 N   0  0  0  0  0  0  0  0  0  0  0  0
    9.2365  -14.3759   26.4907 C   0  0  0  0  0  0  0  0  0  0  0  0
    9.3378  -16.6667   27.2829 O   0  0  0  0  0  0  0  0  0  0  0  0
   10.0719  -17.8573   27.3237 O   0  0  0  0  0  0  0  0  0  0  0  0
  2  1  1  0
  3  2  2  0
  4  2  1  0
  5  6  1  0
  5  4  1  0
  7  6  1  0
  8  7  1  0
  8 10  1  0
  8  9  1  6
 10 12  1  0
 10 11  2  0
 12 13  1  0
 13 14  1  6
 14 15  1  0
 16 17  2  0
 16 13  1  0
 19 18  1  1
 19 21  1  0
 19 20  1  0
 21 22  1  6
 22 16  1  0
 23 21  1  0
 24 23  1  0
 25 23  2  0
M  END
$$$$
