RCV.pdb
     RDKit          3D

 25 24  0  0  1  0  0  0  0  0999 V2000
    8.7226  -12.9944   17.4727 N   0  0  0  0  0  0  0  0  0  0  0  0
    8.2451  -12.8665   18.7995 C   0  0  0  0  0  0  0  0  0  0  0  0
    8.8772  -12.0527   19.6000 N   0  0  0  0  0  0  0  0  0  0  0  0
    7.1304  -13.5710   19.2821 N   0  0  0  0  0  0  0  0  0  0  0  0
    7.2962  -14.7357   20.1543 C   0  0  0  0  0  0  0  0  0  0  0  0
    7.5373  -15.9425   19.2988 C   0  0  0  0  0  0  0  0  0  0  0  0
    6.7798  -17.1555   19.7038 C   0  0  0  0  0  0  0  0  0  0  0  0
    7.4191  -18.0468   20.7072 C   0  0  2  0  0  0  0  0  0  0  0  0
    7.2398  -19.4624   20.4720 N   0  0  0  0  0  0  0  0  0  0  0  0
    6.8073  -17.6796   22.0398 C   0  0  0  0  0  0  0  0  0  0  0  0
    5.5711  -17.5273   22.1874 O   0  0  0  0  0  0  0  0  0  0  0  0
    8.6535  -11.9535   20.5982 N   0  0  0  0  0  0  0  0  0  0  0  0
    7.6153  -17.4920   23.1860 C   0  0  2  0  0  0  0  0  0  0  0  0
    7.0786  -17.1453   24.5012 C   0  0  0  0  0  0  0  0  0  0  0  0
    7.1939  -18.3738   25.4077 S   0  0  0  0  0  0  0  0  0  0  0  0
    8.9002  -18.5507   25.9384 C   0  0  0  0  0  0  0  0  0  0  0  0
    7.7112  -15.9452   25.0351 O   0  0  0  0  0  0  0  0  0  0  0  0
    8.8433  -15.5975   24.5480 C   0  0  0  0  0  0  0  0  0  0  0  0
    6.0097  -12.5229   25.7962 C   0  0  1  0  0  0  0  0  0  0  0  0
    6.8776  -12.9383   26.9798 C   0  0  0  0  0  0  0  0  0  0  0  0
    7.4876  -11.7321   27.6533 C   0  0  2  0  0  0  0  0  0  0  0  0
    7.9244  -13.9340   26.5342 N   0  0  0  0  0  0  0  0  0  0  0  0
    7.2075  -15.1080   26.0431 C   0  0  0  0  0  0  0  0  0  0  0  0
    8.8594  -14.3048   27.6279 O   0  0  0  0  0  0  0  0  0  0  0  0
    9.8830  -13.4161   27.9751 O   0  0  0  0  0  0  0  0  0  0  0  0
  2  1  1  0
  3  2  2  0
  4  2  1  0
  5  6  1  0
  5  4  1  0
  7  6  1  0
  8  7  1  0
  8 10  1  0
  8  9  1  6
 10 12  1  0
 10 11  2  0
 12 13  1  0
 13 14  1  6
 14 15  1  0
 16 17  2  0
 16 13  1  0
 19 18  1  1
 19 21  1  0
 19 20  1  0
 21 22  1  6
 22 16  1  0
 23 21  1  0
 24 23  1  0
 25 23  2  0
M  END
$$$$
