RCV.pdb
     RDKit          3D

 25 24  0  0  1  0  0  0  0  0999 V2000
    7.5039  -13.0200   15.9443 N   0  0  0  0  0  0  0  0  0  0  0  0
    7.9260  -14.3652   15.8149 C   0  0  0  0  0  0  0  0  0  0  0  0
    7.2916  -15.1251   14.9646 N   0  0  0  0  0  0  0  0  0  0  0  0
    8.9887  -14.9076   16.5553 N   0  0  0  0  0  0  0  0  0  0  0  0
    9.1752  -14.5642   17.9666 C   0  0  0  0  0  0  0  0  0  0  0  0
    7.8272  -14.3728   18.5936 C   0  0  0  0  0  0  0  0  0  0  0  0
    7.8555  -14.0126   20.0353 C   0  0  0  0  0  0  0  0  0  0  0  0
    8.4369  -15.0122   20.9695 C   0  0  2  0  0  0  0  0  0  0  0  0
    7.7461  -16.2819   21.0161 N   0  0  0  0  0  0  0  0  0  0  0  0
    8.4007  -14.3725   22.3387 C   0  0  0  0  0  0  0  0  0  0  0  0
    8.8375  -13.2152   22.5465 O   0  0  0  0  0  0  0  0  0  0  0  0
    7.5270  -16.1123   14.8028 N   0  0  0  0  0  0  0  0  0  0  0  0
    7.8656  -15.0626   23.4518 C   0  0  1  0  0  0  0  0  0  0  0  0
    7.8390  -14.5094   24.8051 C   0  0  0  0  0  0  0  0  0  0  0  0
    6.4059  -14.6033   25.3358 S   0  0  0  0  0  0  0  0  0  0  0  0
    6.3056  -13.7363   26.9050 C   0  0  0  0  0  0  0  0  0  0  0  0
    8.8368  -15.1425   25.6590 O   0  0  0  0  0  0  0  0  0  0  0  0
    9.0330  -16.4002   25.5201 C   0  0  0  0  0  0  0  0  0  0  0  0
   10.7856  -12.9720   28.5111 C   0  0  1  0  0  0  0  0  0  0  0  0
   10.5618  -14.4468   28.8298 C   0  0  0  0  0  0  0  0  0  0  0  0
   11.6219  -14.9636   29.7731 C   0  0  2  0  0  0  0  0  0  0  0  0
   10.4932  -15.2514   27.5517 N   0  0  0  0  0  0  0  0  0  0  0  0
    9.6258  -14.5149   26.6359 C   0  0  0  0  0  0  0  0  0  0  0  0
    9.9807  -16.6285   27.7726 O   0  0  0  0  0  0  0  0  0  0  0  0
   10.8941  -17.6622   28.0073 O   0  0  0  0  0  0  0  0  0  0  0  0
  2  1  1  0
  3  2  2  0
  4  2  1  0
  5  6  1  0
  5  4  1  0
  7  6  1  0
  8  7  1  0
  8 10  1  0
  8  9  1  1
 10 12  1  0
 10 11  2  0
 12 13  1  0
 13 14  1  6
 14 15  1  0
 16 17  2  0
 16 13  1  0
 19 18  1  1
 19 21  1  0
 19 20  1  0
 21 22  1  6
 22 16  1  0
 23 21  1  0
 24 23  1  0
 25 23  2  0
M  END
$$$$
