RCV.pdb
     RDKit          3D

 25 24  0  0  1  0  0  0  0  0999 V2000
    8.5153  -19.3425   17.9881 N   0  0  0  0  0  0  0  0  0  0  0  0
    9.2306  -18.4629   17.1399 C   0  0  0  0  0  0  0  0  0  0  0  0
   10.1618  -18.9705   16.3797 N   0  0  0  0  0  0  0  0  0  0  0  0
    8.9797  -17.0824   17.0837 N   0  0  0  0  0  0  0  0  0  0  0  0
    8.3745  -16.3807   18.2177 C   0  0  0  0  0  0  0  0  0  0  0  0
    9.4124  -16.2163   19.2865 C   0  0  0  0  0  0  0  0  0  0  0  0
    9.1914  -15.0636   20.1984 C   0  0  0  0  0  0  0  0  0  0  0  0
    7.7895  -14.7863   20.6081 C   0  0  2  0  0  0  0  0  0  0  0  0
    7.0450  -13.9339   19.7078 N   0  0  0  0  0  0  0  0  0  0  0  0
    7.8755  -14.1264   21.9654 C   0  0  0  0  0  0  0  0  0  0  0  0
    7.7480  -12.8875   22.1146 O   0  0  0  0  0  0  0  0  0  0  0  0
   10.7680  -18.4043   15.7729 N   0  0  0  0  0  0  0  0  0  0  0  0
    8.1051  -14.8901   23.1341 C   0  0  2  0  0  0  0  0  0  0  0  0
    8.0241  -14.3377   24.4855 C   0  0  0  0  0  0  0  0  0  0  0  0
    6.5576  -14.3534   24.9252 S   0  0  0  0  0  0  0  0  0  0  0  0
    6.3141  -15.6883   26.1013 C   0  0  0  0  0  0  0  0  0  0  0  0
    8.9304  -15.0254   25.3973 O   0  0  0  0  0  0  0  0  0  0  0  0
    9.4176  -16.1490   25.0233 C   0  0  0  0  0  0  0  0  0  0  0  0
   10.3430  -13.1838   28.7703 C   0  0  1  0  0  0  0  0  0  0  0  0
   10.2344  -14.7016   28.8745 C   0  0  0  0  0  0  0  0  0  0  0  0
   11.2967  -15.2585   29.7923 C   0  0  2  0  0  0  0  0  0  0  0  0
   10.2861  -15.3235   27.4975 N   0  0  0  0  0  0  0  0  0  0  0  0
    9.3402  -14.5844   26.6653 C   0  0  0  0  0  0  0  0  0  0  0  0
    9.9557  -16.7721   27.5141 O   0  0  0  0  0  0  0  0  0  0  0  0
   10.9959  -17.7036   27.6042 O   0  0  0  0  0  0  0  0  0  0  0  0
  2  1  1  0
  3  2  2  0
  4  2  1  0
  5  6  1  0
  5  4  1  0
  7  6  1  0
  8  7  1  0
  8 10  1  0
  8  9  1  6
 10 12  1  0
 10 11  2  0
 12 13  1  0
 13 14  1  6
 14 15  1  0
 16 17  2  0
 16 13  1  0
 19 18  1  1
 19 21  1  0
 19 20  1  0
 21 22  1  6
 22 16  1  0
 23 21  1  0
 24 23  1  0
 25 23  2  0
M  END
$$$$
