LRT.pdb
     RDKit          3D

 27 26  0  0  1  0  0  0  0  0999 V2000
    6.5506  -12.7137   19.3369 C   0  0  0  0  0  0  0  0  0  0  0  0
    7.8117  -13.5442   19.4930 C   0  0  1  0  0  0  0  0  0  0  0  0
    8.9711  -12.5533   19.2628 C   0  0  0  0  0  0  0  0  0  0  0  0
    7.9691  -14.0837   20.8723 C   0  0  0  0  0  0  0  0  0  0  0  0
    9.2871  -14.8072   21.1020 C   0  0  2  0  0  0  0  0  0  0  0  0
    9.3181  -15.8704   20.0665 N   0  0  0  0  0  0  0  0  0  0  0  0
    9.3425  -15.5141   22.3987 C   0  0  0  0  0  0  0  0  0  0  0  0
    8.3074  -15.5433   23.1088 O   0  0  0  0  0  0  0  0  0  0  0  0
   12.3252  -21.3786   22.7391 N   0  0  0  0  0  0  0  0  0  0  0  0
   11.8422  -21.8743   23.9634 C   0  0  0  0  0  0  0  0  0  0  0  0
   11.1874  -22.9693   24.0177 N   0  0  0  0  0  0  0  0  0  0  0  0
   12.0799  -21.1549   25.1664 N   0  0  0  0  0  0  0  0  0  0  0  0
   12.7587  -19.8782   25.1678 C   0  0  0  0  0  0  0  0  0  0  0  0
   11.7386  -18.7765   25.2483 C   0  0  0  0  0  0  0  0  0  0  0  0
   11.6214  -17.9711   23.9919 C   0  0  0  0  0  0  0  0  0  0  0  0
   10.5557  -16.9152   24.1330 C   0  0  2  0  0  0  0  0  0  0  0  0
   10.5064  -16.1668   22.8848 N   0  0  0  0  0  0  0  0  0  0  0  0
   10.8174  -16.0241   25.2883 C   0  0  0  0  0  0  0  0  0  0  0  0
   11.9530  -15.5137   25.4061 O   0  0  0  0  0  0  0  0  0  0  0  0
   10.9218  -23.4052   24.9190 C   0  0  0  0  0  0  0  0  0  0  0  0
    8.6491  -13.0726   26.6575 C   0  0  2  0  0  0  0  0  0  0  0  0
    8.9228  -14.0220   27.7917 O   0  0  0  0  0  0  0  0  0  0  0  0
    7.8133  -14.8795   27.8840 C   0  0  2  0  0  0  0  0  0  0  0  0
   10.1095  -14.8805   27.4152 N   0  0  0  0  0  0  0  0  0  0  0  0
    9.8387  -15.7227   26.2678 C   0  0  0  0  0  0  0  0  0  0  0  0
   10.5784  -15.6915   28.5624 O   0  0  0  0  0  0  0  0  0  0  0  0
   10.9658  -15.1038   29.6033 O   0  0  0  0  0  0  0  0  0  0  0  0
  2  1  1  1
  3  2  1  0
  4  2  1  0
  5  4  1  0
  5  6  1  6
  7  5  1  0
  7  8  2  0
  9 10  1  0
 10 12  1  0
 11 10  2  0
 12 13  1  0
 13 14  1  0
 14 15  1  0
 16 17  1  0
 16 15  1  6
 17  7  1  0
 18 16  1  0
 19 18  2  0
 21 20  1  1
 21 23  1  0
 22 21  1  0
 23 24  1  1
 24 18  1  0
 25 23  1  0
 25 27  1  0
 26 25  2  0
M  END
$$$$
