LRT.pdb
     RDKit          3D

 27 26  0  0  1  0  0  0  0  0999 V2000
    7.3020  -11.8159   28.1585 C   0  0  0  0  0  0  0  0  0  0  0  0
    6.4275  -12.7530   27.3450 C   0  0  1  0  0  0  0  0  0  0  0  0
    5.5250  -11.8256   26.5055 C   0  0  0  0  0  0  0  0  0  0  0  0
    7.2158  -13.5760   26.3861 C   0  0  0  0  0  0  0  0  0  0  0  0
    6.3677  -14.5108   25.5374 C   0  0  2  0  0  0  0  0  0  0  0  0
    5.7119  -15.4152   26.5149 N   0  0  0  0  0  0  0  0  0  0  0  0
    7.1716  -15.3886   24.6614 C   0  0  0  0  0  0  0  0  0  0  0  0
    7.8177  -16.3283   25.1867 O   0  0  0  0  0  0  0  0  0  0  0  0
    8.0286  -12.4520   18.6439 N   0  0  0  0  0  0  0  0  0  0  0  0
    8.5009  -13.4936   17.8255 C   0  0  0  0  0  0  0  0  0  0  0  0
    8.2843  -13.4915   16.5670 N   0  0  0  0  0  0  0  0  0  0  0  0
    9.2319  -14.5714   18.3956 N   0  0  0  0  0  0  0  0  0  0  0  0
    8.6354  -15.8732   18.5966 C   0  0  0  0  0  0  0  0  0  0  0  0
    8.8095  -16.2797   20.0338 C   0  0  0  0  0  0  0  0  0  0  0  0
    8.0009  -15.4629   20.9930 C   0  0  0  0  0  0  0  0  0  0  0  0
    8.1569  -15.9825   22.3987 C   0  0  2  0  0  0  0  0  0  0  0  0
    7.2501  -15.2278   23.2525 N   0  0  0  0  0  0  0  0  0  0  0  0
    9.5584  -15.8756   22.8697 C   0  0  0  0  0  0  0  0  0  0  0  0
   10.0347  -14.7385   23.0799 O   0  0  0  0  0  0  0  0  0  0  0  0
    8.5156  -14.3054   15.9695 C   0  0  0  0  0  0  0  0  0  0  0  0
   11.4425  -16.9539   25.9156 C   0  0  2  0  0  0  0  0  0  0  0  0
   12.0723  -17.6739   24.7548 O   0  0  0  0  0  0  0  0  0  0  0  0
   11.4136  -18.9094   24.6339 C   0  0  2  0  0  0  0  0  0  0  0  0
   11.7734  -16.8933   23.4944 N   0  0  0  0  0  0  0  0  0  0  0  0
   10.3856  -17.0042   23.0934 C   0  0  0  0  0  0  0  0  0  0  0  0
   12.6731  -17.2875   22.3858 O   0  0  0  0  0  0  0  0  0  0  0  0
   12.1703  -17.7491   21.3309 O   0  0  0  0  0  0  0  0  0  0  0  0
  2  1  1  6
  3  2  1  0
  4  2  1  0
  5  4  1  0
  5  6  1  1
  7  5  1  0
  7  8  2  0
  9 10  1  0
 10 12  1  0
 11 10  2  0
 12 13  1  0
 13 14  1  0
 14 15  1  0
 16 17  1  0
 16 15  1  6
 17  7  1  0
 18 16  1  0
 19 18  2  0
 21 20  1  1
 21 23  1  0
 22 21  1  0
 23 24  1  6
 24 18  1  0
 25 23  1  0
 25 27  1  0
 26 25  2  0
M  END
$$$$
