LRT.pdb
     RDKit          3D

 27 26  0  0  1  0  0  0  0  0999 V2000
    6.5452  -13.0085   18.8457 C   0  0  0  0  0  0  0  0  0  0  0  0
    7.9147  -13.4624   19.3181 C   0  0  1  0  0  0  0  0  0  0  0  0
    8.7607  -12.1742   19.3802 C   0  0  0  0  0  0  0  0  0  0  0  0
    7.8816  -14.0270   20.6959 C   0  0  0  0  0  0  0  0  0  0  0  0
    9.2580  -14.3254   21.2704 C   0  0  2  0  0  0  0  0  0  0  0  0
    9.8494  -15.3152   20.3355 N   0  0  0  0  0  0  0  0  0  0  0  0
    9.2043  -15.0020   22.5833 C   0  0  0  0  0  0  0  0  0  0  0  0
    8.5465  -14.4635   23.5073 O   0  0  0  0  0  0  0  0  0  0  0  0
   11.1357  -19.7548   19.7782 N   0  0  0  0  0  0  0  0  0  0  0  0
   10.0760  -20.6309   20.0738 C   0  0  0  0  0  0  0  0  0  0  0  0
    9.3485  -21.1205   19.1456 N   0  0  0  0  0  0  0  0  0  0  0  0
    9.8000  -20.9849   21.4228 N   0  0  0  0  0  0  0  0  0  0  0  0
   10.4756  -20.3464   22.5303 C   0  0  0  0  0  0  0  0  0  0  0  0
    9.8668  -18.9919   22.7657 C   0  0  0  0  0  0  0  0  0  0  0  0
   10.4245  -18.2797   23.9585 C   0  0  0  0  0  0  0  0  0  0  0  0
    9.7698  -16.9335   24.1300 C   0  0  2  0  0  0  0  0  0  0  0  0
    9.8562  -16.2340   22.8557 N   0  0  0  0  0  0  0  0  0  0  0  0
   10.4014  -16.1523   25.2201 C   0  0  0  0  0  0  0  0  0  0  0  0
   11.5120  -15.6179   25.0083 O   0  0  0  0  0  0  0  0  0  0  0  0
    8.5771  -21.7825   19.3450 C   0  0  0  0  0  0  0  0  0  0  0  0
    9.5007  -13.0781   26.8029 C   0  0  2  0  0  0  0  0  0  0  0  0
    9.5836  -14.0253   27.9685 O   0  0  0  0  0  0  0  0  0  0  0  0
    8.2831  -14.5059   28.1980 C   0  0  2  0  0  0  0  0  0  0  0  0
   10.4227  -15.2135   27.5547 N   0  0  0  0  0  0  0  0  0  0  0  0
    9.8042  -15.9825   26.4939 C   0  0  0  0  0  0  0  0  0  0  0  0
   10.7444  -16.0800   28.7120 O   0  0  0  0  0  0  0  0  0  0  0  0
   10.3999  -17.2880   28.6802 O   0  0  0  0  0  0  0  0  0  0  0  0
  2  1  1  1
  3  2  1  0
  4  2  1  0
  5  4  1  0
  5  6  1  6
  7  5  1  0
  7  8  2  0
  9 10  1  0
 10 12  1  0
 11 10  2  0
 12 13  1  0
 13 14  1  0
 14 15  1  0
 16 17  1  0
 16 15  1  6
 17  7  1  0
 18 16  1  0
 19 18  2  0
 21 20  1  1
 21 23  1  0
 22 21  1  0
 23 24  1  1
 24 18  1  0
 25 23  1  0
 25 27  1  0
 26 25  2  0
M  END
$$$$
