LRT.pdb
     RDKit          3D

 27 26  0  0  1  0  0  0  0  0999 V2000
    7.6547  -11.5387   20.2591 C   0  0  0  0  0  0  0  0  0  0  0  0
    7.4995  -12.8935   19.5919 C   0  0  1  0  0  0  0  0  0  0  0  0
    7.9947  -12.6836   18.1463 C   0  0  0  0  0  0  0  0  0  0  0  0
    8.3747  -13.9314   20.2043 C   0  0  0  0  0  0  0  0  0  0  0  0
    8.1322  -15.3337   19.6674 C   0  0  2  0  0  0  0  0  0  0  0  0
    6.7073  -15.6133   19.9756 N   0  0  0  0  0  0  0  0  0  0  0  0
    8.9043  -16.3706   20.3837 C   0  0  0  0  0  0  0  0  0  0  0  0
    8.4731  -16.7806   21.4893 O   0  0  0  0  0  0  0  0  0  0  0  0
   13.0966  -22.4316   21.4446 N   0  0  0  0  0  0  0  0  0  0  0  0
   14.3242  -22.1435   20.8218 C   0  0  0  0  0  0  0  0  0  0  0  0
   15.4049  -22.7045   21.2066 N   0  0  0  0  0  0  0  0  0  0  0  0
   14.3765  -21.2153   19.7463 N   0  0  0  0  0  0  0  0  0  0  0  0
   13.1932  -20.5328   19.2723 C   0  0  0  0  0  0  0  0  0  0  0  0
   12.7783  -19.5020   20.2854 C   0  0  0  0  0  0  0  0  0  0  0  0
   12.0307  -18.3461   19.6972 C   0  0  0  0  0  0  0  0  0  0  0  0
   10.8903  -17.9373   20.5933 C   0  0  2  0  0  0  0  0  0  0  0  0
   10.1099  -16.9321   19.8855 N   0  0  0  0  0  0  0  0  0  0  0  0
   11.3749  -17.4266   21.8978 C   0  0  0  0  0  0  0  0  0  0  0  0
   12.1908  -16.4789   21.9044 O   0  0  0  0  0  0  0  0  0  0  0  0
   16.3239  -22.4663   20.7924 C   0  0  0  0  0  0  0  0  0  0  0  0
    9.6178  -15.7735   24.6103 C   0  0  2  0  0  0  0  0  0  0  0  0
   10.2496  -16.9654   25.2757 O   0  0  0  0  0  0  0  0  0  0  0  0
    9.2912  -17.9931   25.2690 C   0  0  2  0  0  0  0  0  0  0  0  0
   11.4005  -17.4344   24.4140 N   0  0  0  0  0  0  0  0  0  0  0  0
   10.9558  -17.9632   23.1406 C   0  0  0  0  0  0  0  0  0  0  0  0
   12.2445  -18.4214   25.1262 O   0  0  0  0  0  0  0  0  0  0  0  0
   12.8511  -18.0630   26.1666 O   0  0  0  0  0  0  0  0  0  0  0  0
  2  1  1  1
  3  2  1  0
  4  2  1  0
  5  4  1  0
  5  6  1  1
  7  5  1  0
  7  8  2  0
  9 10  1  0
 10 12  1  0
 11 10  2  0
 12 13  1  0
 13 14  1  0
 14 15  1  0
 16 17  1  0
 16 15  1  6
 17  7  1  0
 18 16  1  0
 19 18  2  0
 21 20  1  1
 21 23  1  0
 22 21  1  0
 23 24  1  1
 24 18  1  0
 25 23  1  0
 25 27  1  0
 26 25  2  0
M  END
$$$$
