LRT.pdb
     RDKit          3D

 27 26  0  0  1  0  0  0  0  0999 V2000
    6.6331  -13.5268   17.4240 C   0  0  0  0  0  0  0  0  0  0  0  0
    7.8533  -13.7045   18.3095 C   0  0  1  0  0  0  0  0  0  0  0  0
    8.5374  -12.3221   18.3256 C   0  0  0  0  0  0  0  0  0  0  0  0
    7.4908  -14.0259   19.7179 C   0  0  0  0  0  0  0  0  0  0  0  0
    8.6620  -13.9522   20.6856 C   0  0  2  0  0  0  0  0  0  0  0  0
    9.7326  -14.7542   20.0421 N   0  0  0  0  0  0  0  0  0  0  0  0
    8.3898  -14.6168   21.9773 C   0  0  0  0  0  0  0  0  0  0  0  0
    7.3307  -14.3285   22.5869 O   0  0  0  0  0  0  0  0  0  0  0  0
   12.5482  -18.7482   21.5904 N   0  0  0  0  0  0  0  0  0  0  0  0
   11.5867  -19.5000   20.8918 C   0  0  0  0  0  0  0  0  0  0  0  0
   11.7005  -19.7111   19.6376 N   0  0  0  0  0  0  0  0  0  0  0  0
   10.4660  -20.0389   21.5808 N   0  0  0  0  0  0  0  0  0  0  0  0
   10.2085  -19.7336   22.9705 C   0  0  0  0  0  0  0  0  0  0  0  0
    9.3317  -18.5150   23.0543 C   0  0  0  0  0  0  0  0  0  0  0  0
    9.8846  -17.4342   23.9303 C   0  0  0  0  0  0  0  0  0  0  0  0
    9.0259  -16.1981   23.8582 C   0  0  2  0  0  0  0  0  0  0  0  0
    9.2632  -15.5692   22.5664 N   0  0  0  0  0  0  0  0  0  0  0  0
    9.3128  -15.2662   24.9747 C   0  0  0  0  0  0  0  0  0  0  0  0
   10.4509  -14.7531   25.0493 O   0  0  0  0  0  0  0  0  0  0  0  0
   11.0171  -20.2872   19.1142 C   0  0  0  0  0  0  0  0  0  0  0  0
    7.5360  -12.0952   26.0604 C   0  0  2  0  0  0  0  0  0  0  0  0
    7.5580  -12.9979   27.2634 O   0  0  0  0  0  0  0  0  0  0  0  0
    6.3362  -13.6921   27.2760 C   0  0  2  0  0  0  0  0  0  0  0  0
    8.6454  -14.0294   27.0621 N   0  0  0  0  0  0  0  0  0  0  0  0
    8.3557  -14.9286   25.9636 C   0  0  0  0  0  0  0  0  0  0  0  0
    8.9103  -14.7886   28.3060 O   0  0  0  0  0  0  0  0  0  0  0  0
    8.7917  -16.0394   28.2905 O   0  0  0  0  0  0  0  0  0  0  0  0
  2  1  1  6
  3  2  1  0
  4  2  1  0
  5  4  1  0
  5  6  1  6
  7  5  1  0
  7  8  2  0
  9 10  1  0
 10 12  1  0
 11 10  2  0
 12 13  1  0
 13 14  1  0
 14 15  1  0
 16 17  1  0
 16 15  1  1
 17  7  1  0
 18 16  1  0
 19 18  2  0
 21 20  1  1
 21 23  1  0
 22 21  1  0
 23 24  1  1
 24 18  1  0
 25 23  1  0
 25 27  1  0
 26 25  2  0
M  END
$$$$
