YKC.pdb
     RDKit          3D

 28 28  0  0  1  0  0  0  0  0999 V2000
   15.4576  -20.8804  -17.3201 O   0  0  0  0  0  0  0  0  0  0  0  0
   16.7217  -20.2908  -17.2628 C   0  0  0  0  0  0  0  0  0  0  0  0
   17.8673  -21.0229  -17.4791 C   0  0  0  0  0  0  0  0  0  0  0  0
   19.1369  -20.4384  -17.4232 C   0  0  0  0  0  0  0  0  0  0  0  0
   19.2599  -19.1023  -17.1467 C   0  0  0  0  0  0  0  0  0  0  0  0
   20.5802  -18.4694  -17.0832 C   0  0  0  0  0  0  0  0  0  0  0  0
   21.5100  -19.1535  -16.0983 C   0  0  2  0  0  0  0  0  0  0  0  0
   20.9617  -18.9269  -14.7772 N   0  0  0  0  0  0  0  0  0  0  0  0
   22.8392  -18.4558  -16.2344 C   0  0  0  0  0  0  0  0  0  0  0  0
   23.0582  -17.3451  -15.6741 O   0  0  0  0  0  0  0  0  0  0  0  0
   18.1182  -18.3649  -16.9294 C   0  0  0  0  0  0  0  0  0  0  0  0
   16.8517  -18.9526  -16.9862 C   0  0  0  0  0  0  0  0  0  0  0  0
   23.8911  -19.0233  -16.9973 N   0  0  0  0  0  0  0  0  0  0  0  0
   25.1930  -18.3840  -17.1564 C   0  0  1  0  0  0  0  0  0  0  0  0
   26.2251  -19.2785  -16.5080 C   0  0  0  0  0  0  0  0  0  0  0  0
   26.4033  -20.5682  -17.2816 C   0  0  0  0  0  0  0  0  0  0  0  0
   27.4419  -21.4431  -16.6187 C   0  0  0  0  0  0  0  0  0  0  0  0
   27.6393  -22.7011  -17.4360 C   0  0  0  0  0  0  0  0  0  0  0  0
   28.6031  -23.5641  -16.7951 N   0  0  0  0  0  0  0  0  0  0  0  0
   25.5135  -18.1286  -18.5649 C   0  0  0  0  0  0  0  0  0  0  0  0
   25.0062  -18.8629  -19.4491 O   0  0  0  0  0  0  0  0  0  0  0  0
   26.3849  -17.0660  -18.9199 N   0  0  0  0  0  0  0  0  0  0  0  0
   26.6898  -16.8976  -20.3330 C   0  0  1  0  0  0  0  0  0  0  0  0
   25.5212  -16.1241  -20.9364 C   0  0  0  0  0  0  0  0  0  0  0  0
   25.9587  -15.6924  -22.6330 S   0  0  0  0  0  0  0  0  0  0  0  0
   27.9124  -16.0604  -20.4738 C   0  0  0  0  0  0  0  0  0  0  0  0
   28.2167  -15.2480  -19.5732 O   0  0  0  0  0  0  0  0  0  0  0  0
   28.7527  -16.1333  -21.5747 O   0  0  0  0  0  0  0  0  0  0  0  0
  2  1  1  0
  3  2  2  0
  4  3  1  0
  5  4  2  0
  5 11  1  0
  6  5  1  0
  7  6  1  0
  7  8  1  1
  9  7  1  0
 10  9  2  0
 11 12  2  0
 12  2  1  0
 13  9  1  0
 14 15  1  6
 14 13  1  0
 16 17  1  0
 16 15  1  0
 18 17  1  0
 19 18  1  0
 20 14  1  0
 21 20  2  0
 22 20  1  0
 23 22  1  0
 24 25  1  0
 23 24  1  6
 26 23  1  0
 26 28  1  0
 27 26  2  0
M  END
$$$$
