YKC.pdb
     RDKit          3D

 28 28  0  0  1  0  0  0  0  0999 V2000
   30.9689  -13.2098  -16.7939 O   0  0  0  0  0  0  0  0  0  0  0  0
   29.7132  -12.6032  -16.8567 C   0  0  0  0  0  0  0  0  0  0  0  0
   29.0052  -12.2955  -15.7169 C   0  0  0  0  0  0  0  0  0  0  0  0
   27.7466  -11.6877  -15.7726 C   0  0  0  0  0  0  0  0  0  0  0  0
   27.1901  -11.3842  -16.9871 C   0  0  0  0  0  0  0  0  0  0  0  0
   25.8727  -10.7473  -17.0689 C   0  0  0  0  0  0  0  0  0  0  0  0
   24.7348  -11.7503  -17.0291 C   0  0  2  0  0  0  0  0  0  0  0  0
   24.9111  -12.6299  -18.1660 N   0  0  0  0  0  0  0  0  0  0  0  0
   23.4705  -10.9449  -17.1881 C   0  0  0  0  0  0  0  0  0  0  0  0
   23.1127  -10.5001  -18.3148 O   0  0  0  0  0  0  0  0  0  0  0  0
   27.8931  -11.6894  -18.1305 C   0  0  0  0  0  0  0  0  0  0  0  0
   29.1502  -12.2966  -18.0704 C   0  0  0  0  0  0  0  0  0  0  0  0
   22.6382  -10.6586  -16.0763 N   0  0  0  0  0  0  0  0  0  0  0  0
   21.3596   -9.9662  -16.1972 C   0  0  1  0  0  0  0  0  0  0  0  0
   20.3259  -10.7793  -15.4517 C   0  0  0  0  0  0  0  0  0  0  0  0
   18.9560  -10.1387  -15.5310 C   0  0  0  0  0  0  0  0  0  0  0  0
   17.9101  -11.0513  -14.9338 C   0  0  0  0  0  0  0  0  0  0  0  0
   16.5352  -10.4625  -15.1625 C   0  0  0  0  0  0  0  0  0  0  0  0
   15.5243  -11.3277  -14.6023 N   0  0  0  0  0  0  0  0  0  0  0  0
   21.4272   -8.5910  -15.6914 C   0  0  0  0  0  0  0  0  0  0  0  0
   21.9798   -8.3744  -14.5841 O   0  0  0  0  0  0  0  0  0  0  0  0
   20.8750   -7.5226  -16.4452 N   0  0  0  0  0  0  0  0  0  0  0  0
   20.9327   -6.1923  -15.8574 C   0  0  1  0  0  0  0  0  0  0  0  0
   21.2894   -5.2358  -16.9914 C   0  0  0  0  0  0  0  0  0  0  0  0
   21.2461   -3.5558  -16.3342 S   0  0  0  0  0  0  0  0  0  0  0  0
   19.5822   -5.8202  -15.3543 C   0  0  0  0  0  0  0  0  0  0  0  0
   18.5626   -6.2981  -15.8982 O   0  0  0  0  0  0  0  0  0  0  0  0
   19.3875   -4.9522  -14.2903 O   0  0  0  0  0  0  0  0  0  0  0  0
  2  1  1  0
  3  2  2  0
  4  3  1  0
  5  4  2  0
  5 11  1  0
  6  5  1  0
  7  6  1  0
  7  8  1  6
  9  7  1  0
 10  9  2  0
 11 12  2  0
 12  2  1  0
 13  9  1  0
 14 15  1  1
 14 13  1  0
 16 17  1  0
 16 15  1  0
 18 17  1  0
 19 18  1  0
 20 14  1  0
 21 20  2  0
 22 20  1  0
 23 22  1  0
 24 25  1  0
 23 24  1  6
 26 23  1  0
 26 28  1  0
 27 26  2  0
M  END
$$$$
