YKC.pdb
     RDKit          3D

 28 28  0  0  1  0  0  0  0  0999 V2000
   20.9519  -19.1867  -13.8968 O   0  0  0  0  0  0  0  0  0  0  0  0
   20.9171  -17.8572  -14.3212 C   0  0  0  0  0  0  0  0  0  0  0  0
   21.9556  -17.3024  -15.0346 C   0  0  0  0  0  0  0  0  0  0  0  0
   21.9271  -15.9711  -15.4628 C   0  0  0  0  0  0  0  0  0  0  0  0
   20.8432  -15.1853  -15.1722 C   0  0  0  0  0  0  0  0  0  0  0  0
   20.7923  -13.7879  -15.6109 C   0  0  0  0  0  0  0  0  0  0  0  0
   19.9683  -13.6003  -16.8712 C   0  0  2  0  0  0  0  0  0  0  0  0
   20.7607  -14.1114  -17.9704 N   0  0  0  0  0  0  0  0  0  0  0  0
   19.7755  -12.1126  -17.0192 C   0  0  0  0  0  0  0  0  0  0  0  0
   20.6411  -11.3919  -17.5909 O   0  0  0  0  0  0  0  0  0  0  0  0
   19.8016  -15.7342  -14.4592 C   0  0  0  0  0  0  0  0  0  0  0  0
   19.8340  -17.0647  -14.0332 C   0  0  0  0  0  0  0  0  0  0  0  0
   18.6137  -11.4701  -16.5209 N   0  0  0  0  0  0  0  0  0  0  0  0
   18.3700  -10.0393  -16.6702 C   0  0  1  0  0  0  0  0  0  0  0  0
   16.8827   -9.8102  -16.5249 C   0  0  0  0  0  0  0  0  0  0  0  0
   16.5197   -8.3609  -16.7715 C   0  0  0  0  0  0  0  0  0  0  0  0
   15.0311   -8.1544  -16.6137 C   0  0  0  0  0  0  0  0  0  0  0  0
   14.6800   -6.7233  -16.9574 C   0  0  0  0  0  0  0  0  0  0  0  0
   13.3015   -6.4554  -16.6221 N   0  0  0  0  0  0  0  0  0  0  0  0
   19.1322   -9.2458  -15.7001 C   0  0  0  0  0  0  0  0  0  0  0  0
   19.2030   -9.6409  -14.5096 O   0  0  0  0  0  0  0  0  0  0  0  0
   19.7794   -8.0491  -16.1045 N   0  0  0  0  0  0  0  0  0  0  0  0
   20.5062   -7.3069  -15.0850 C   0  0  1  0  0  0  0  0  0  0  0  0
   21.9156   -7.0947  -15.6297 C   0  0  0  0  0  0  0  0  0  0  0  0
   22.7591   -5.9249  -14.5451 S   0  0  0  0  0  0  0  0  0  0  0  0
   19.8776   -5.9689  -14.9118 C   0  0  0  0  0  0  0  0  0  0  0  0
   19.2385   -5.4553  -15.8558 O   0  0  0  0  0  0  0  0  0  0  0  0
   19.9637   -5.2431  -13.7331 O   0  0  0  0  0  0  0  0  0  0  0  0
  2  1  1  0
  3  2  2  0
  4  3  1  0
  5  4  2  0
  5 11  1  0
  6  5  1  0
  7  6  1  0
  7  8  1  6
  9  7  1  0
 10  9  2  0
 11 12  2  0
 12  2  1  0
 13  9  1  0
 14 15  1  1
 14 13  1  0
 16 17  1  0
 16 15  1  0
 18 17  1  0
 19 18  1  0
 20 14  1  0
 21 20  2  0
 22 20  1  0
 23 22  1  0
 24 25  1  0
 23 24  1  6
 26 23  1  0
 26 28  1  0
 27 26  2  0
M  END
$$$$
