YKC.pdb
     RDKit          3D

 28 28  0  0  1  0  0  0  0  0999 V2000
   27.3001  -19.1079   -5.9936 O   0  0  0  0  0  0  0  0  0  0  0  0
   27.1980  -19.4179   -7.3509 C   0  0  0  0  0  0  0  0  0  0  0  0
   27.8437  -20.5074   -7.8905 C   0  0  0  0  0  0  0  0  0  0  0  0
   27.7456  -20.8236   -9.2495 C   0  0  0  0  0  0  0  0  0  0  0  0
   26.9902  -20.0373  -10.0789 C   0  0  0  0  0  0  0  0  0  0  0  0
   26.8736  -20.3501  -11.5059 C   0  0  0  0  0  0  0  0  0  0  0  0
   25.4571  -20.7132  -11.9112 C   0  0  2  0  0  0  0  0  0  0  0  0
   25.1608  -21.9922  -11.2998 N   0  0  0  0  0  0  0  0  0  0  0  0
   25.4805  -20.8493  -13.4122 C   0  0  0  0  0  0  0  0  0  0  0  0
   25.7323  -21.9556  -13.9674 O   0  0  0  0  0  0  0  0  0  0  0  0
   26.3421  -18.9465   -9.5454 C   0  0  0  0  0  0  0  0  0  0  0  0
   26.4427  -18.6340   -8.1871 C   0  0  0  0  0  0  0  0  0  0  0  0
   25.2203  -19.7382  -14.2539 N   0  0  0  0  0  0  0  0  0  0  0  0
   25.0906  -19.8510  -15.7028 C   0  0  1  0  0  0  0  0  0  0  0  0
   24.2980  -18.6578  -16.1862 C   0  0  0  0  0  0  0  0  0  0  0  0
   22.8076  -18.9093  -16.0924 C   0  0  0  0  0  0  0  0  0  0  0  0
   22.0377  -17.7530  -16.6873 C   0  0  0  0  0  0  0  0  0  0  0  0
   20.5538  -18.0357  -16.6009 C   0  0  0  0  0  0  0  0  0  0  0  0
   19.8066  -16.9596  -17.2073 N   0  0  0  0  0  0  0  0  0  0  0  0
   26.3951  -19.9336  -16.3685 C   0  0  0  0  0  0  0  0  0  0  0  0
   27.2746  -19.0788  -16.0960 O   0  0  0  0  0  0  0  0  0  0  0  0
   26.6565  -20.9661  -17.3066 N   0  0  0  0  0  0  0  0  0  0  0  0
   27.9824  -21.0027  -17.9058 C   0  0  1  0  0  0  0  0  0  0  0  0
   28.5823  -22.3575  -17.5412 C   0  0  0  0  0  0  0  0  0  0  0  0
   30.1840  -22.4934  -18.3609 S   0  0  0  0  0  0  0  0  0  0  0  0
   27.8520  -20.9452  -19.3874 C   0  0  0  0  0  0  0  0  0  0  0  0
   26.8236  -21.3944  -19.9390 O   0  0  0  0  0  0  0  0  0  0  0  0
   28.8314  -20.4082  -20.2095 O   0  0  0  0  0  0  0  0  0  0  0  0
  2  1  1  0
  3  2  2  0
  4  3  1  0
  5  4  2  0
  5 11  1  0
  6  5  1  0
  7  6  1  0
  7  8  1  1
  9  7  1  0
 10  9  2  0
 11 12  2  0
 12  2  1  0
 13  9  1  0
 14 15  1  6
 14 13  1  0
 16 17  1  0
 16 15  1  0
 18 17  1  0
 19 18  1  0
 20 14  1  0
 21 20  2  0
 22 20  1  0
 23 22  1  0
 24 25  1  0
 23 24  1  6
 26 23  1  0
 26 28  1  0
 27 26  2  0
M  END
$$$$
