GMT.pdb
     RDKit          3D

 20 19  0  0  1  0  0  0  0  0999 V2000
    5.0864  -17.9904   20.4090 N   0  0  0  0  0  0  0  0  0  0  0  0
    4.9186  -17.8649   21.8268 C   0  0  0  0  0  0  0  0  0  0  0  0
    6.0057  -17.0195   22.3760 C   0  0  0  0  0  0  0  0  0  0  0  0
    7.0443  -16.8259   21.6937 O   0  0  0  0  0  0  0  0  0  0  0  0
    8.0061  -11.4119   27.4856 C   0  0  0  0  0  0  0  0  0  0  0  0
    6.6896  -12.5738   27.0120 S   0  0  0  0  0  0  0  0  0  0  0  0
    7.3219  -13.7257   25.7879 C   0  0  0  0  0  0  0  0  0  0  0  0
    6.2495  -14.6749   25.2777 C   0  0  0  0  0  0  0  0  0  0  0  0
    6.8729  -15.6243   24.2826 C   0  0  2  0  0  0  0  0  0  0  0  0
    5.8578  -16.4384   23.6705 N   0  0  0  0  0  0  0  0  0  0  0  0
    7.8777  -16.5192   24.9666 C   0  0  0  0  0  0  0  0  0  0  0  0
    7.5089  -17.3365   25.8431 O   0  0  0  0  0  0  0  0  0  0  0  0
   10.9162  -17.9755   22.7105 C   0  0  0  0  0  0  0  0  0  0  0  0
   11.4159  -17.4972   24.0479 C   0  0  1  0  0  0  0  0  0  0  0  0
   12.2200  -16.3787   23.9509 O   0  0  0  0  0  0  0  0  0  0  0  0
   10.2920  -17.3406   25.0182 C   0  0  2  0  0  0  0  0  0  0  0  0
    9.2525  -16.4524   24.6319 N   0  0  0  0  0  0  0  0  0  0  0  0
   10.7809  -17.1954   26.4158 C   0  0  0  0  0  0  0  0  0  0  0  0
   10.4369  -16.1977   27.0900 O   0  0  0  0  0  0  0  0  0  0  0  0
   11.6038  -18.1335   26.9732 O   0  0  0  0  0  0  0  0  0  0  0  0
  2  3  1  0
  2  1  1  0
  3 10  1  0
  4  3  2  0
  5  6  1  0
  7  6  1  0
  8  7  1  0
  9  8  1  1
  9 11  1  0
 10  9  1  0
 11 17  1  0
 11 12  2  0
 14 16  1  0
 14 13  1  6
 15 14  1  0
 16 18  1  0
 16 17  1  6
 18 20  1  0
 19 18  2  0
M  END
$$$$
