GMT.pdb
     RDKit          3D

 20 19  0  0  1  0  0  0  0  0999 V2000
    5.5401  -19.2307   21.1817 N   0  0  0  0  0  0  0  0  0  0  0  0
    5.3767  -18.8623   22.5571 C   0  0  0  0  0  0  0  0  0  0  0  0
    6.3714  -17.8200   22.9067 C   0  0  0  0  0  0  0  0  0  0  0  0
    7.3683  -17.6405   22.1613 O   0  0  0  0  0  0  0  0  0  0  0  0
    7.8808  -11.3193   27.0586 C   0  0  0  0  0  0  0  0  0  0  0  0
    6.6612  -12.6335   26.7534 S   0  0  0  0  0  0  0  0  0  0  0  0
    7.4147  -13.9293   25.7645 C   0  0  0  0  0  0  0  0  0  0  0  0
    6.4398  -15.0491   25.4373 C   0  0  0  0  0  0  0  0  0  0  0  0
    7.1175  -16.0295   24.5102 C   0  0  2  0  0  0  0  0  0  0  0  0
    6.1833  -17.0361   24.0837 N   0  0  0  0  0  0  0  0  0  0  0  0
    8.2786  -16.6967   25.2068 C   0  0  0  0  0  0  0  0  0  0  0  0
    8.0815  -17.4657   26.1774 O   0  0  0  0  0  0  0  0  0  0  0  0
   13.1506  -17.7772   24.7151 C   0  0  0  0  0  0  0  0  0  0  0  0
   11.9896  -16.9192   24.2872 C   0  0  1  0  0  0  0  0  0  0  0  0
   11.7609  -16.9667   22.9262 O   0  0  0  0  0  0  0  0  0  0  0  0
   10.7752  -17.2092   25.1059 C   0  0  2  0  0  0  0  0  0  0  0  0
    9.6088  -16.4672   24.7778 N   0  0  0  0  0  0  0  0  0  0  0  0
   11.0932  -17.3068   26.5560 C   0  0  0  0  0  0  0  0  0  0  0  0
   11.6792  -18.3238   26.9927 O   0  0  0  0  0  0  0  0  0  0  0  0
   10.7514  -16.3039   27.4192 O   0  0  0  0  0  0  0  0  0  0  0  0
  2  3  1  0
  2  1  1  0
  3 10  1  0
  4  3  2  0
  5  6  1  0
  7  6  1  0
  8  7  1  0
  9  8  1  1
  9 11  1  0
 10  9  1  0
 11 17  1  0
 11 12  2  0
 14 16  1  0
 14 13  1  6
 15 14  1  0
 16 18  1  0
 16 17  1  1
 18 20  1  0
 19 18  2  0
M  END
$$$$
