GMT.pdb
     RDKit          3D

 20 19  0  0  1  0  0  0  0  0999 V2000
    5.7558  -18.5424   20.4443 N   0  0  0  0  0  0  0  0  0  0  0  0
    5.4551  -18.2388   21.8124 C   0  0  0  0  0  0  0  0  0  0  0  0
    6.4181  -17.2290   22.3133 C   0  0  0  0  0  0  0  0  0  0  0  0
    7.4276  -16.9394   21.6214 O   0  0  0  0  0  0  0  0  0  0  0  0
    7.8569  -11.5172   27.5556 C   0  0  0  0  0  0  0  0  0  0  0  0
    6.6152  -12.6968   26.9438 S   0  0  0  0  0  0  0  0  0  0  0  0
    7.3828  -13.8141   25.7658 C   0  0  0  0  0  0  0  0  0  0  0  0
    6.3974  -14.8232   25.1981 C   0  0  0  0  0  0  0  0  0  0  0  0
    7.1032  -15.6617   24.1594 C   0  0  2  0  0  0  0  0  0  0  0  0
    6.1857  -16.6009   23.5730 N   0  0  0  0  0  0  0  0  0  0  0  0
    8.2515  -16.4168   24.7835 C   0  0  0  0  0  0  0  0  0  0  0  0
    8.0377  -17.2969   25.6506 O   0  0  0  0  0  0  0  0  0  0  0  0
   13.0651  -17.5925   24.1382 C   0  0  0  0  0  0  0  0  0  0  0  0
   11.9414  -16.6403   23.8256 C   0  0  1  0  0  0  0  0  0  0  0  0
   11.6439  -16.5860   22.4782 O   0  0  0  0  0  0  0  0  0  0  0  0
   10.7524  -16.9088   24.6878 C   0  0  2  0  0  0  0  0  0  0  0  0
    9.5884  -16.1459   24.4020 N   0  0  0  0  0  0  0  0  0  0  0  0
   11.1210  -17.0127   26.1254 C   0  0  0  0  0  0  0  0  0  0  0  0
   10.8606  -16.0637   26.9000 O   0  0  0  0  0  0  0  0  0  0  0  0
   11.7437  -18.1276   26.6122 O   0  0  0  0  0  0  0  0  0  0  0  0
  2  3  1  0
  2  1  1  0
  3 10  1  0
  4  3  2  0
  5  6  1  0
  7  6  1  0
  8  7  1  0
  9  8  1  1
  9 11  1  0
 10  9  1  0
 11 17  1  0
 11 12  2  0
 14 16  1  0
 14 13  1  6
 15 14  1  0
 16 18  1  0
 16 17  1  1
 18 20  1  0
 19 18  2  0
M  END
$$$$
