GMT.pdb
     RDKit          3D

 20 19  0  0  1  0  0  0  0  0999 V2000
    4.8409  -19.1012   22.7628 N   0  0  0  0  0  0  0  0  0  0  0  0
    5.0834  -18.4197   24.0002 C   0  0  0  0  0  0  0  0  0  0  0  0
    6.1680  -17.4273   23.8085 C   0  0  0  0  0  0  0  0  0  0  0  0
    6.8093  -17.4120   22.7268 O   0  0  0  0  0  0  0  0  0  0  0  0
    7.6327  -11.4325   26.8459 C   0  0  0  0  0  0  0  0  0  0  0  0
    6.0277  -12.2378   26.5582 S   0  0  0  0  0  0  0  0  0  0  0  0
    6.2477  -13.6242   25.4381 C   0  0  0  0  0  0  0  0  0  0  0  0
    7.4186  -14.5090   25.8348 C   0  0  0  0  0  0  0  0  0  0  0  0
    7.5812  -15.5952   24.7986 C   0  0  2  0  0  0  0  0  0  0  0  0
    6.4685  -16.5044   24.8541 N   0  0  0  0  0  0  0  0  0  0  0  0
    8.8588  -16.3631   25.0366 C   0  0  0  0  0  0  0  0  0  0  0  0
    8.9729  -17.1149   26.0336 O   0  0  0  0  0  0  0  0  0  0  0  0
   12.2631  -15.5433   22.4705 C   0  0  0  0  0  0  0  0  0  0  0  0
   11.9311  -16.9633   22.8454 C   0  0  1  0  0  0  0  0  0  0  0  0
   13.0374  -17.7898   22.8478 O   0  0  0  0  0  0  0  0  0  0  0  0
   11.1454  -17.0157   24.1139 C   0  0  2  0  0  0  0  0  0  0  0  0
    9.9495  -16.2490   24.1401 N   0  0  0  0  0  0  0  0  0  0  0  0
   12.0179  -16.8948   25.3129 C   0  0  0  0  0  0  0  0  0  0  0  0
   11.8294  -15.9575   26.1219 O   0  0  0  0  0  0  0  0  0  0  0  0
   13.0249  -17.7898   25.5421 O   0  0  0  0  0  0  0  0  0  0  0  0
  2  3  1  0
  2  1  1  0
  3 10  1  0
  4  3  2  0
  5  6  1  0
  7  6  1  0
  8  7  1  0
  9  8  1  1
  9 11  1  0
 10  9  1  0
 11 17  1  0
 11 12  2  0
 14 16  1  0
 14 13  1  1
 15 14  1  0
 16 18  1  0
 16 17  1  6
 18 20  1  0
 19 18  2  0
M  END
$$$$
