GMT.pdb
     RDKit          3D

 20 19  0  0  1  0  0  0  0  0999 V2000
    5.2676  -18.8936   21.3900 N   0  0  0  0  0  0  0  0  0  0  0  0
    5.1463  -18.4784   22.7564 C   0  0  0  0  0  0  0  0  0  0  0  0
    6.2050  -17.4869   23.0631 C   0  0  0  0  0  0  0  0  0  0  0  0
    7.1895  -17.3727   22.2888 O   0  0  0  0  0  0  0  0  0  0  0  0
    6.0350  -11.1961   26.0866 C   0  0  0  0  0  0  0  0  0  0  0  0
    7.0019  -12.4180   27.0247 S   0  0  0  0  0  0  0  0  0  0  0  0
    7.5976  -13.6923   25.9083 C   0  0  0  0  0  0  0  0  0  0  0  0
    6.5413  -14.7460   25.6160 C   0  0  0  0  0  0  0  0  0  0  0  0
    7.1114  -15.7503   24.6431 C   0  0  2  0  0  0  0  0  0  0  0  0
    6.0916  -16.6770   24.2320 N   0  0  0  0  0  0  0  0  0  0  0  0
    8.2461  -16.5151   25.2801 C   0  0  0  0  0  0  0  0  0  0  0  0
    8.0451  -17.2239   26.2947 O   0  0  0  0  0  0  0  0  0  0  0  0
   12.3687  -15.7776   24.0266 C   0  0  0  0  0  0  0  0  0  0  0  0
   11.8355  -17.1818   24.1321 C   0  0  1  0  0  0  0  0  0  0  0  0
   12.8213  -18.1108   24.4005 O   0  0  0  0  0  0  0  0  0  0  0  0
   10.6801  -17.2497   25.0754 C   0  0  2  0  0  0  0  0  0  0  0  0
    9.5557  -16.4466   24.7447 N   0  0  0  0  0  0  0  0  0  0  0  0
   11.1190  -17.1949   26.4959 C   0  0  0  0  0  0  0  0  0  0  0  0
   11.8171  -18.1238   26.9629 O   0  0  0  0  0  0  0  0  0  0  0  0
   10.7676  -16.1470   27.2998 O   0  0  0  0  0  0  0  0  0  0  0  0
  2  3  1  0
  2  1  1  0
  3 10  1  0
  4  3  2  0
  5  6  1  0
  7  6  1  0
  8  7  1  0
  9  8  1  1
  9 11  1  0
 10  9  1  0
 11 17  1  0
 11 12  2  0
 14 16  1  0
 14 13  1  1
 15 14  1  0
 16 18  1  0
 16 17  1  6
 18 20  1  0
 19 18  2  0
M  END
$$$$
