GMT.pdb
     RDKit          3D

 20 19  0  0  1  0  0  0  0  0999 V2000
    7.5347  -15.4596   19.1321 N   0  0  0  0  0  0  0  0  0  0  0  0
    6.8085  -15.5590   20.3637 C   0  0  0  0  0  0  0  0  0  0  0  0
    7.7203  -15.2653   21.4952 C   0  0  0  0  0  0  0  0  0  0  0  0
    8.9518  -15.4889   21.3722 O   0  0  0  0  0  0  0  0  0  0  0  0
    5.7018  -11.7675   26.6621 C   0  0  0  0  0  0  0  0  0  0  0  0
    7.4570  -11.9887   27.0839 S   0  0  0  0  0  0  0  0  0  0  0  0
    8.2004  -13.1644   25.9481 C   0  0  0  0  0  0  0  0  0  0  0  0
    7.2701  -13.5304   24.8027 C   0  0  0  0  0  0  0  0  0  0  0  0
    7.9961  -14.4657   23.8655 C   0  0  2  0  0  0  0  0  0  0  0  0
    7.1874  -14.7338   22.7071 N   0  0  0  0  0  0  0  0  0  0  0  0
    8.3107  -15.7682   24.5605 C   0  0  0  0  0  0  0  0  0  0  0  0
    7.3867  -16.5256   24.9409 O   0  0  0  0  0  0  0  0  0  0  0  0
   10.5106  -18.4690   23.1070 C   0  0  0  0  0  0  0  0  0  0  0  0
   11.1097  -18.1240   24.4446 C   0  0  1  0  0  0  0  0  0  0  0  0
   12.3285  -17.4836   24.3370 O   0  0  0  0  0  0  0  0  0  0  0  0
   10.1282  -17.3965   25.3028 C   0  0  2  0  0  0  0  0  0  0  0  0
    9.6521  -16.1579   24.7951 N   0  0  0  0  0  0  0  0  0  0  0  0
   10.5353  -17.3956   26.7338 C   0  0  0  0  0  0  0  0  0  0  0  0
   10.7147  -16.3058   27.3242 O   0  0  0  0  0  0  0  0  0  0  0  0
   10.7203  -18.5674   27.4123 O   0  0  0  0  0  0  0  0  0  0  0  0
  2  3  1  0
  2  1  1  0
  3 10  1  0
  4  3  2  0
  5  6  1  0
  7  6  1  0
  8  7  1  0
  9  8  1  1
  9 11  1  0
 10  9  1  0
 11 17  1  0
 11 12  2  0
 14 16  1  0
 14 13  1  6
 15 14  1  0
 16 18  1  0
 16 17  1  6
 18 20  1  0
 19 18  2  0
M  END
$$$$
