GMT.pdb
     RDKit          3D

 20 19  0  0  1  0  0  0  0  0999 V2000
    5.0093  -19.1271   21.3217 N   0  0  0  0  0  0  0  0  0  0  0  0
    4.9919  -18.8289   22.7235 C   0  0  0  0  0  0  0  0  0  0  0  0
    6.0268  -17.8096   23.0204 C   0  0  0  0  0  0  0  0  0  0  0  0
    7.0043  -17.6742   22.2408 O   0  0  0  0  0  0  0  0  0  0  0  0
    8.0078  -11.3650   27.0410 C   0  0  0  0  0  0  0  0  0  0  0  0
    6.7231  -12.6346   26.8279 S   0  0  0  0  0  0  0  0  0  0  0  0
    7.3645  -13.9680   25.8103 C   0  0  0  0  0  0  0  0  0  0  0  0
    6.3289  -15.0515   25.5554 C   0  0  0  0  0  0  0  0  0  0  0  0
    6.9153  -16.0732   24.6108 C   0  0  2  0  0  0  0  0  0  0  0  0
    5.8988  -16.9976   24.1864 N   0  0  0  0  0  0  0  0  0  0  0  0
    8.0273  -16.8382   25.2867 C   0  0  0  0  0  0  0  0  0  0  0  0
    7.7891  -17.5569   26.2861 O   0  0  0  0  0  0  0  0  0  0  0  0
   11.1482  -18.1940   22.9428 C   0  0  0  0  0  0  0  0  0  0  0  0
   11.6121  -17.6062   24.2491 C   0  0  1  0  0  0  0  0  0  0  0  0
   12.3051  -16.4226   24.0883 O   0  0  0  0  0  0  0  0  0  0  0  0
   10.4872  -17.5100   25.2261 C   0  0  2  0  0  0  0  0  0  0  0  0
    9.3572  -16.7585   24.8055 N   0  0  0  0  0  0  0  0  0  0  0  0
   10.9716  -17.2329   26.6052 C   0  0  0  0  0  0  0  0  0  0  0  0
   10.5625  -16.2159   27.2109 O   0  0  0  0  0  0  0  0  0  0  0  0
   11.8599  -18.0704   27.2194 O   0  0  0  0  0  0  0  0  0  0  0  0
  2  3  1  0
  2  1  1  0
  3 10  1  0
  4  3  2  0
  5  6  1  0
  7  6  1  0
  8  7  1  0
  9  8  1  1
  9 11  1  0
 10  9  1  0
 11 17  1  0
 11 12  2  0
 14 16  1  0
 14 13  1  6
 15 14  1  0
 16 18  1  0
 16 17  1  6
 18 20  1  0
 19 18  2  0
M  END
$$$$
