HIG.pdb
     RDKit          3D

 23 23  0  0  1  0  0  0  0  0999 V2000
   21.5393  -15.1354  -16.0082 N   0  0  0  0  0  0  0  0  0  0  0  0
   22.0497  -13.9830  -16.7263 C   0  0  1  0  0  0  0  0  0  0  0  0
   20.8820  -13.3398  -17.4308 C   0  0  0  0  0  0  0  0  0  0  0  0
   20.3608  -14.3176  -18.4131 C   0  0  0  0  0  0  0  0  0  0  0  0
   20.2574  -15.6767  -18.2204 C   0  0  0  0  0  0  0  0  0  0  0  0
   19.7330  -16.2463  -19.3466 N   0  0  0  0  0  0  0  0  0  0  0  0
   19.5157  -15.2587  -20.2206 C   0  0  0  0  0  0  0  0  0  0  0  0
   19.8975  -14.0911  -19.6511 N   0  0  0  0  0  0  0  0  0  0  0  0
   22.8015  -13.0678  -15.8660 C   0  0  0  0  0  0  0  0  0  0  0  0
   22.4088  -12.8523  -14.6895 O   0  0  0  0  0  0  0  0  0  0  0  0
   28.1815  -13.0179  -15.8767 C   0  0  0  0  0  0  0  0  0  0  0  0
   26.7560  -12.9719  -15.4033 C   0  0  0  0  0  0  0  0  0  0  0  0
   26.2156  -11.5951  -15.6227 C   0  0  2  0  0  0  0  0  0  0  0  0
   26.9516  -10.5297  -14.8492 C   0  0  0  0  0  0  0  0  0  0  0  0
   24.7203  -11.4978  -15.4061 C   0  0  2  0  0  0  0  0  0  0  0  0
   23.9782  -12.3808  -16.2671 N   0  0  0  0  0  0  0  0  0  0  0  0
   24.2409  -10.1078  -15.6052 C   0  0  0  0  0  0  0  0  0  0  0  0
   24.7347   -9.1882  -14.9073 O   0  0  0  0  0  0  0  0  0  0  0  0
   23.2332   -9.7868  -16.5688 N   0  0  0  0  0  0  0  0  0  0  0  0
   22.8667   -8.4155  -16.7288 C   0  0  0  0  0  0  0  0  0  0  0  0
   21.8255   -7.9978  -15.7690 C   0  0  0  0  0  0  0  0  0  0  0  0
   21.3930   -6.6842  -15.7040 O   0  0  0  0  0  0  0  0  0  0  0  0
   21.3189   -8.8433  -14.9951 O   0  0  0  0  0  0  0  0  0  0  0  0
  2  1  1  1
  3  2  1  0
  4  8  1  0
  4  3  1  0
  5  4  2  0
  6  5  1  0
  6  7  1  0
  7  8  2  0
  9  2  1  0
 10  9  2  0
 11 12  1  0
 13 12  1  0
 13 14  1  1
 15 13  1  0
 15 16  1  6
 16  9  1  0
 17 18  2  0
 17 15  1  0
 19 17  1  0
 20 19  1  0
 21 20  1  0
 22 21  1  0
 23 21  2  0
M  END
$$$$
