HIG.pdb
     RDKit          3D

 23 23  0  0  1  0  0  0  0  0999 V2000
   20.4335  -20.7110  -13.9451 N   0  0  0  0  0  0  0  0  0  0  0  0
   21.7454  -21.0255  -14.4779 C   0  0  1  0  0  0  0  0  0  0  0  0
   21.7508  -20.6154  -15.9289 C   0  0  0  0  0  0  0  0  0  0  0  0
   20.9851  -21.6342  -16.6828 C   0  0  0  0  0  0  0  0  0  0  0  0
   19.6240  -21.8302  -16.6187 C   0  0  0  0  0  0  0  0  0  0  0  0
   19.2835  -22.8575  -17.4532 N   0  0  0  0  0  0  0  0  0  0  0  0
   20.4122  -23.2900  -18.0234 C   0  0  0  0  0  0  0  0  0  0  0  0
   21.4415  -22.5460  -17.5539 N   0  0  0  0  0  0  0  0  0  0  0  0
   22.8312  -20.4386  -13.6910 C   0  0  0  0  0  0  0  0  0  0  0  0
   22.6568  -19.3344  -13.1122 O   0  0  0  0  0  0  0  0  0  0  0  0
   25.4949  -20.1518   -9.3496 C   0  0  0  0  0  0  0  0  0  0  0  0
   26.3219  -20.7172  -10.4698 C   0  0  0  0  0  0  0  0  0  0  0  0
   25.4131  -21.3629  -11.4663 C   0  0  2  0  0  0  0  0  0  0  0  0
   25.8533  -22.7469  -11.8735 C   0  0  0  0  0  0  0  0  0  0  0  0
   25.1389  -20.4950  -12.6763 C   0  0  2  0  0  0  0  0  0  0  0  0
   24.1087  -21.0364  -13.5231 N   0  0  0  0  0  0  0  0  0  0  0  0
   26.3707  -20.2914  -13.4780 C   0  0  0  0  0  0  0  0  0  0  0  0
   26.9380  -21.2899  -13.9856 O   0  0  0  0  0  0  0  0  0  0  0  0
   26.9290  -18.9910  -13.6882 N   0  0  0  0  0  0  0  0  0  0  0  0
   28.1524  -18.8934  -14.4191 C   0  0  0  0  0  0  0  0  0  0  0  0
   27.9298  -18.5930  -15.8474 C   0  0  0  0  0  0  0  0  0  0  0  0
   28.4289  -17.4383  -16.4256 O   0  0  0  0  0  0  0  0  0  0  0  0
   27.2772  -19.3945  -16.5563 O   0  0  0  0  0  0  0  0  0  0  0  0
  2  1  1  1
  3  2  1  0
  4  8  1  0
  4  3  1  0
  5  4  2  0
  6  5  1  0
  6  7  1  0
  7  8  2  0
  9  2  1  0
 10  9  2  0
 11 12  1  0
 13 12  1  0
 13 14  1  6
 15 13  1  0
 15 16  1  6
 16  9  1  0
 17 18  2  0
 17 15  1  0
 19 17  1  0
 20 19  1  0
 21 20  1  0
 22 21  1  0
 23 21  2  0
M  END
$$$$
