HIG.pdb
     RDKit          3D

 23 23  0  0  1  0  0  0  0  0999 V2000
   29.2438  -23.7467  -16.6840 N   0  0  0  0  0  0  0  0  0  0  0  0
   27.9540  -23.2862  -17.1616 C   0  0  1  0  0  0  0  0  0  0  0  0
   27.1730  -24.5030  -17.5892 C   0  0  0  0  0  0  0  0  0  0  0  0
   27.8129  -25.0355  -18.8138 C   0  0  0  0  0  0  0  0  0  0  0  0
   27.9173  -24.3790  -20.0193 C   0  0  0  0  0  0  0  0  0  0  0  0
   28.5692  -25.1856  -20.9093 N   0  0  0  0  0  0  0  0  0  0  0  0
   28.8632  -26.3204  -20.2674 C   0  0  0  0  0  0  0  0  0  0  0  0
   28.4032  -26.2256  -18.9974 N   0  0  0  0  0  0  0  0  0  0  0  0
   27.2569  -22.4457  -16.1868 C   0  0  0  0  0  0  0  0  0  0  0  0
   27.1980  -22.8047  -14.9816 O   0  0  0  0  0  0  0  0  0  0  0  0
   28.6906  -17.8869  -16.4552 C   0  0  0  0  0  0  0  0  0  0  0  0
   28.1575  -18.9281  -15.5118 C   0  0  0  0  0  0  0  0  0  0  0  0
   26.6643  -18.9353  -15.5898 C   0  0  2  0  0  0  0  0  0  0  0  0
   26.0059  -18.0046  -14.6022 C   0  0  0  0  0  0  0  0  0  0  0  0
   26.0681  -20.3251  -15.5172 C   0  0  2  0  0  0  0  0  0  0  0  0
   26.6205  -21.2159  -16.5036 N   0  0  0  0  0  0  0  0  0  0  0  0
   24.5930  -20.2825  -15.6718 C   0  0  0  0  0  0  0  0  0  0  0  0
   24.1069  -20.0289  -16.8014 O   0  0  0  0  0  0  0  0  0  0  0  0
   23.7108  -20.5219  -14.5713 N   0  0  0  0  0  0  0  0  0  0  0  0
   22.3075  -20.3636  -14.7862 C   0  0  0  0  0  0  0  0  0  0  0  0
   21.5124  -20.7442  -13.6018 C   0  0  0  0  0  0  0  0  0  0  0  0
   20.1426  -20.5472  -13.5618 O   0  0  0  0  0  0  0  0  0  0  0  0
   22.0820  -21.2561  -12.6097 O   0  0  0  0  0  0  0  0  0  0  0  0
  2  1  1  1
  3  2  1  0
  4  8  1  0
  4  3  1  0
  5  4  2  0
  6  5  1  0
  6  7  1  0
  7  8  2  0
  9  2  1  0
 10  9  2  0
 11 12  1  0
 13 12  1  0
 13 14  1  1
 15 13  1  0
 15 16  1  6
 16  9  1  0
 17 18  2  0
 17 15  1  0
 19 17  1  0
 20 19  1  0
 21 20  1  0
 22 21  1  0
 23 21  2  0
M  END
$$$$
