HIG.pdb
     RDKit          3D

 23 23  0  0  1  0  0  0  0  0999 V2000
   23.9929  -17.0596  -15.4934 N   0  0  0  0  0  0  0  0  0  0  0  0
   23.8492  -15.9030  -16.3570 C   0  0  1  0  0  0  0  0  0  0  0  0
   22.3824  -15.7606  -16.6761 C   0  0  0  0  0  0  0  0  0  0  0  0
   21.9664  -16.9766  -17.4117 C   0  0  0  0  0  0  0  0  0  0  0  0
   22.3608  -17.3232  -18.6843 C   0  0  0  0  0  0  0  0  0  0  0  0
   21.7727  -18.5091  -19.0239 N   0  0  0  0  0  0  0  0  0  0  0  0
   21.0280  -18.8901  -17.9815 C   0  0  0  0  0  0  0  0  0  0  0  0
   21.1479  -17.9585  -17.0062 N   0  0  0  0  0  0  0  0  0  0  0  0
   24.4536  -14.6959  -15.7911 C   0  0  0  0  0  0  0  0  0  0  0  0
   24.2938  -14.4305  -14.5710 O   0  0  0  0  0  0  0  0  0  0  0  0
   29.5036  -13.3983  -16.5228 C   0  0  0  0  0  0  0  0  0  0  0  0
   28.1054  -13.6214  -16.0192 C   0  0  0  0  0  0  0  0  0  0  0  0
   27.2761  -12.4191  -16.3399 C   0  0  2  0  0  0  0  0  0  0  0  0
   27.8412  -11.1341  -15.7882 C   0  0  0  0  0  0  0  0  0  0  0  0
   25.8173  -12.5823  -15.9688 C   0  0  2  0  0  0  0  0  0  0  0  0
   25.2323  -13.7694  -16.5347 N   0  0  0  0  0  0  0  0  0  0  0  0
   25.0238  -11.4010  -16.3889 C   0  0  0  0  0  0  0  0  0  0  0  0
   25.3440  -10.2674  -15.9543 O   0  0  0  0  0  0  0  0  0  0  0  0
   23.9057  -11.5178  -17.2739 N   0  0  0  0  0  0  0  0  0  0  0  0
   23.2593  -10.3189  -17.7042 C   0  0  0  0  0  0  0  0  0  0  0  0
   22.0741   -9.9959  -16.8851 C   0  0  0  0  0  0  0  0  0  0  0  0
   21.2846   -8.8940  -17.1661 O   0  0  0  0  0  0  0  0  0  0  0  0
   21.7709  -10.7292  -15.9151 O   0  0  0  0  0  0  0  0  0  0  0  0
  2  1  1  1
  3  2  1  0
  4  8  1  0
  4  3  1  0
  5  4  2  0
  6  5  1  0
  6  7  1  0
  7  8  2  0
  9  2  1  0
 10  9  2  0
 11 12  1  0
 13 12  1  0
 13 14  1  1
 15 13  1  0
 15 16  1  6
 16  9  1  0
 17 18  2  0
 17 15  1  0
 19 17  1  0
 20 19  1  0
 21 20  1  0
 22 21  1  0
 23 21  2  0
M  END
$$$$
