HIG.pdb
     RDKit          3D

 23 23  0  0  1  0  0  0  0  0999 V2000
   21.0559  -13.3952  -18.3651 N   0  0  0  0  0  0  0  0  0  0  0  0
   20.7886  -12.0031  -18.0571 C   0  0  1  0  0  0  0  0  0  0  0  0
   19.3111  -11.8797  -17.7829 C   0  0  0  0  0  0  0  0  0  0  0  0
   18.5952  -12.2415  -19.0276 C   0  0  0  0  0  0  0  0  0  0  0  0
   17.8065  -13.3552  -19.2091 C   0  0  0  0  0  0  0  0  0  0  0  0
   17.3161  -13.3489  -20.4847 N   0  0  0  0  0  0  0  0  0  0  0  0
   17.7919  -12.2522  -21.0822 C   0  0  0  0  0  0  0  0  0  0  0  0
   18.5668  -11.5835  -20.1957 N   0  0  0  0  0  0  0  0  0  0  0  0
   21.6372  -11.4889  -16.9809 C   0  0  0  0  0  0  0  0  0  0  0  0
   21.5344  -11.9680  -15.8214 O   0  0  0  0  0  0  0  0  0  0  0  0
   26.1990  -10.6801  -14.5743 C   0  0  0  0  0  0  0  0  0  0  0  0
   25.8126   -9.4792  -15.3909 C   0  0  0  0  0  0  0  0  0  0  0  0
   24.9069   -9.9156  -16.4978 C   0  0  2  0  0  0  0  0  0  0  0  0
   25.0837   -9.1216  -17.7679 C   0  0  0  0  0  0  0  0  0  0  0  0
   23.4506   -9.9810  -16.0885 C   0  0  2  0  0  0  0  0  0  0  0  0
   22.5997  -10.4575  -17.1471 N   0  0  0  0  0  0  0  0  0  0  0  0
   22.9638   -8.6558  -15.6321 C   0  0  0  0  0  0  0  0  0  0  0  0
   23.3933   -8.1904  -14.5479 O   0  0  0  0  0  0  0  0  0  0  0  0
   22.0202   -7.8948  -16.3920 N   0  0  0  0  0  0  0  0  0  0  0  0
   21.5494   -6.6633  -15.8421 C   0  0  0  0  0  0  0  0  0  0  0  0
   22.2411   -5.4921  -16.4163 C   0  0  0  0  0  0  0  0  0  0  0  0
   21.9089   -4.2031  -16.0359 O   0  0  0  0  0  0  0  0  0  0  0  0
   23.1477   -5.6606  -17.2651 O   0  0  0  0  0  0  0  0  0  0  0  0
  2  1  1  1
  3  2  1  0
  4  8  1  0
  4  3  1  0
  5  4  2  0
  6  5  1  0
  6  7  1  0
  7  8  2  0
  9  2  1  0
 10  9  2  0
 11 12  1  0
 13 12  1  0
 13 14  1  6
 15 13  1  0
 15 16  1  6
 16  9  1  0
 17 18  2  0
 17 15  1  0
 19 17  1  0
 20 19  1  0
 21 20  1  0
 22 21  1  0
 23 21  2  0
M  END
$$$$
