HIG.pdb
     RDKit          3D

 23 23  0  0  1  0  0  0  0  0999 V2000
   17.8288  -12.0163  -17.8870 N   0  0  0  0  0  0  0  0  0  0  0  0
   18.1973  -11.4726  -16.5937 C   0  0  1  0  0  0  0  0  0  0  0  0
   18.9002  -12.5667  -15.8306 C   0  0  0  0  0  0  0  0  0  0  0  0
   17.8846  -13.5829  -15.4718 C   0  0  0  0  0  0  0  0  0  0  0  0
   17.1283  -13.5955  -14.3216 C   0  0  0  0  0  0  0  0  0  0  0  0
   16.3037  -14.6851  -14.3442 N   0  0  0  0  0  0  0  0  0  0  0  0
   16.5445  -15.3353  -15.4869 C   0  0  0  0  0  0  0  0  0  0  0  0
   17.5033  -14.6641  -16.1677 N   0  0  0  0  0  0  0  0  0  0  0  0
   18.9686  -10.2331  -16.7001 C   0  0  0  0  0  0  0  0  0  0  0  0
   19.8918  -10.1430  -17.5512 O   0  0  0  0  0  0  0  0  0  0  0  0
   16.1899   -6.8051  -17.4396 C   0  0  0  0  0  0  0  0  0  0  0  0
   17.6630   -6.9338  -17.7073 C   0  0  0  0  0  0  0  0  0  0  0  0
   18.4097   -6.7123  -16.4308 C   0  0  2  0  0  0  0  0  0  0  0  0
   19.0625   -5.3554  -16.3436 C   0  0  0  0  0  0  0  0  0  0  0  0
   19.3948   -7.8177  -16.1144 C   0  0  2  0  0  0  0  0  0  0  0  0
   18.7506   -9.0855  -15.8919 N   0  0  0  0  0  0  0  0  0  0  0  0
   20.2188   -7.4759  -14.9288 C   0  0  0  0  0  0  0  0  0  0  0  0
   19.6770   -7.4578  -13.7963 O   0  0  0  0  0  0  0  0  0  0  0  0
   21.6113   -7.1668  -15.0402 N   0  0  0  0  0  0  0  0  0  0  0  0
   22.3171   -6.8010  -13.8534 C   0  0  0  0  0  0  0  0  0  0  0  0
   22.1776   -5.3654  -13.5381 C   0  0  0  0  0  0  0  0  0  0  0  0
   22.7398   -4.8224  -12.3954 O   0  0  0  0  0  0  0  0  0  0  0  0
   21.5392   -4.6179  -14.3155 O   0  0  0  0  0  0  0  0  0  0  0  0
  2  1  1  6
  3  2  1  0
  4  8  1  0
  4  3  1  0
  5  4  2  0
  6  5  1  0
  6  7  1  0
  7  8  2  0
  9  2  1  0
 10  9  2  0
 11 12  1  0
 13 12  1  0
 13 14  1  6
 15 13  1  0
 15 16  1  1
 16  9  1  0
 17 18  2  0
 17 15  1  0
 19 17  1  0
 20 19  1  0
 21 20  1  0
 22 21  1  0
 23 21  2  0
M  END
$$$$
