HIG.pdb
     RDKit          3D

 23 23  0  0  1  0  0  0  0  0999 V2000
-183961.5781699041.1875195779.8594 N   0  0  0  0  0  0  0  0  0  0  0  0
-183961.0625699041.5625195778.6875 C   0  0  1  0  0  0  0  0  0  0  0  0
-183959.8125699042.3750195778.9062 C   0  0  0  0  0  0  0  0  0  0  0  0
-183958.7656699041.1875195778.7344 C   0  0  0  0  0  0  0  0  0  0  0  0
-183957.9688699040.8750195777.7812 C   0  0  0  0  0  0  0  0  0  0  0  0
-183957.2500699039.7500195778.0625 N   0  0  0  0  0  0  0  0  0  0  0  0
-183957.5000699039.4375195779.2812 C   0  0  0  0  0  0  0  0  0  0  0  0
-183958.4375699040.3750195779.9219 N   0  0  0  0  0  0  0  0  0  0  0  0
-183961.2500699040.9375195777.4062 C   0  0  0  0  0  0  0  0  0  0  0  0
-183961.5625699039.5625195777.6406 O   0  0  0  0  0  0  0  0  0  0  0  0
-183960.2969699040.2500195772.5938 C   0  0  0  0  0  0  0  0  0  0  0  0
-183961.6406699040.3125195773.3438 C   0  0  0  0  0  0  0  0  0  0  0  0
-183961.6875699041.8125195773.8906 C   0  0  2  0  0  0  0  0  0  0  0  0
-183960.5156699042.5625195773.4531 C   0  0  0  0  0  0  0  0  0  0  0  0
-183961.9375699041.8750195775.3281 C   0  0  2  0  0  0  0  0  0  0  0  0
-183961.0156699041.1875195776.1094 N   0  0  0  0  0  0  0  0  0  0  0  0
-183963.2812699041.3750195775.7344 C   0  0  0  0  0  0  0  0  0  0  0  0
-183963.4688699040.3125195776.1250 O   0  0  0  0  0  0  0  0  0  0  0  0
-183964.4688699042.1875195775.3281 N   0  0  0  0  0  0  0  0  0  0  0  0
-183964.4062699043.6250195775.5625 C   0  0  0  0  0  0  0  0  0  0  0  0
-183963.4844699044.2500195774.4844 C   0  0  0  0  0  0  0  0  0  0  0  0
-183962.0938699044.4375195775.2500 O   0  0  0  0  0  0  0  0  0  0  0  0
-183963.6406699044.5625195773.4375 O   0  0  0  0  0  0  0  0  0  0  0  0
  2  1  1  1
  3  2  1  0
  4  8  1  0
  4  3  1  0
  5  4  2  0
  6  5  1  0
  6  7  1  0
  7  8  2  0
  9  2  1  0
 10  9  2  0
 11 12  1  0
 13 12  1  0
 13 14  1  1
 15 13  1  0
 15 16  1  1
 16  9  1  0
 17 18  2  0
 17 15  1  0
 19 17  1  0
 20 19  1  0
 21 20  1  0
 22 21  1  0
 23 21  2  0
M  END
$$$$
