CRM.pdb
     RDKit          3D

 26 25  0  0  1  0  0  0  0  0999 V2000
   19.1931  -25.4848  -10.4368 N   0  0  0  0  0  0  0  0  0  0  0  0
   18.4906  -26.5423   -9.6810 C   0  0  1  0  0  0  0  0  0  0  0  0
   19.3622  -27.7735   -9.6082 C   0  0  0  0  0  0  0  0  0  0  0  0
   18.4930  -29.0411   -8.6643 S   0  0  0  0  0  0  0  0  0  0  0  0
   18.3023  -26.0190   -8.3023 C   0  0  0  0  0  0  0  0  0  0  0  0
   19.2717  -25.4348   -7.7697 O   0  0  0  0  0  0  0  0  0  0  0  0
   12.8389  -20.7424   -6.1107 N   0  0  0  0  0  0  0  0  0  0  0  0
   12.8414  -21.9050   -6.9373 C   0  0  0  0  0  0  0  0  0  0  0  0
   12.3440  -21.8687   -8.1381 N   0  0  0  0  0  0  0  0  0  0  0  0
   13.3781  -23.1411   -6.4886 N   0  0  0  0  0  0  0  0  0  0  0  0
   14.2145  -23.1495   -5.3125 C   0  0  0  0  0  0  0  0  0  0  0  0
   15.6172  -23.6575   -5.6354 C   0  0  0  0  0  0  0  0  0  0  0  0
   15.6422  -25.1306   -5.8279 C   0  0  0  0  0  0  0  0  0  0  0  0
   16.9621  -25.6496   -6.2432 C   0  0  2  0  0  0  0  0  0  0  0  0
   17.1319  -26.1269   -7.5592 N   0  0  0  0  0  0  0  0  0  0  0  0
   17.5228  -26.5868   -5.2460 C   0  0  0  0  0  0  0  0  0  0  0  0
   17.2835  -27.8168   -5.3962 O   0  0  0  0  0  0  0  0  0  0  0  0
   12.3579  -22.6936   -8.7667 C   0  0  0  0  0  0  0  0  0  0  0  0
   20.8538  -27.7625    1.8712 S   0  0  0  0  0  0  0  0  0  0  0  0
   20.6492  -26.6432    0.4343 C   0  0  0  0  0  0  0  0  0  0  0  0
   19.5437  -27.4425   -0.7661 C   0  0  0  0  0  0  0  0  0  0  0  0
   19.3892  -26.5000   -1.9513 C   0  0  1  0  0  0  0  0  0  0  0  0
   18.5834  -27.1648   -3.0470 N   0  0  0  0  0  0  0  0  0  0  0  0
   18.3111  -26.2272   -4.1307 C   0  0  0  0  0  0  0  0  0  0  0  0
   17.2992  -27.5826   -2.4595 O   0  0  0  0  0  0  0  0  0  0  0  0
   16.3724  -26.7705   -2.3123 O   0  0  0  0  0  0  0  0  0  0  0  0
  2  5  1  0
  2  1  1  6
  3  2  1  0
  4  3  1  0
  5  6  2  0
  7  8  1  0
  8 10  1  0
  9  8  2  0
 10 11  1  0
 12 11  1  0
 13 12  1  0
 14 13  1  1
 15 14  1  0
 15  5  1  0
 16 14  1  0
 17 16  2  0
 19 18  1  0
 20 19  1  0
 21 20  1  0
 22 21  1  6
 22 23  1  0
 23 16  1  0
 24 22  1  0
 24 26  1  0
 25 24  2  0
M  END
$$$$
