CRM.pdb
     RDKit          3D

 26 25  0  0  1  0  0  0  0  0999 V2000
   14.8433   -9.6545  -11.7951 N   0  0  0  0  0  0  0  0  0  0  0  0
   15.1308   -8.5658  -12.7518 C   0  0  1  0  0  0  0  0  0  0  0  0
   14.7717   -7.2383  -12.1275 C   0  0  0  0  0  0  0  0  0  0  0  0
   12.9827   -7.1678  -11.9099 S   0  0  0  0  0  0  0  0  0  0  0  0
   16.5982   -8.5909  -12.9885 C   0  0  0  0  0  0  0  0  0  0  0  0
   17.3247   -9.0144  -12.0624 O   0  0  0  0  0  0  0  0  0  0  0  0
   21.4856  -13.0481  -17.9432 N   0  0  0  0  0  0  0  0  0  0  0  0
   21.1656  -11.7675  -18.4843 C   0  0  0  0  0  0  0  0  0  0  0  0
   21.1625  -11.5702  -19.7695 N   0  0  0  0  0  0  0  0  0  0  0  0
   20.8432  -10.6628  -17.6520 N   0  0  0  0  0  0  0  0  0  0  0  0
   20.9083  -10.8292  -16.2199 C   0  0  0  0  0  0  0  0  0  0  0  0
   20.4944   -9.5509  -15.4955 C   0  0  0  0  0  0  0  0  0  0  0  0
   19.0229   -9.4739  -15.3049 C   0  0  0  0  0  0  0  0  0  0  0  0
   18.5970   -8.3505  -14.4444 C   0  0  2  0  0  0  0  0  0  0  0  0
   17.2262   -8.1818  -14.1598 N   0  0  0  0  0  0  0  0  0  0  0  0
   19.2311   -7.0771  -14.8489 C   0  0  0  0  0  0  0  0  0  0  0  0
   18.6904   -6.4220  -15.7821 O   0  0  0  0  0  0  0  0  0  0  0  0
   20.9133  -10.6540  -20.1868 C   0  0  0  0  0  0  0  0  0  0  0  0
   19.8001    0.0442  -15.4310 S   0  0  0  0  0  0  0  0  0  0  0  0
   19.1870   -1.5423  -14.7479 C   0  0  0  0  0  0  0  0  0  0  0  0
   20.4892   -2.7948  -14.9418 C   0  0  0  0  0  0  0  0  0  0  0  0
   19.9034   -4.1382  -14.5306 C   0  0  1  0  0  0  0  0  0  0  0  0
   20.9297   -5.2355  -14.7164 N   0  0  0  0  0  0  0  0  0  0  0  0
   20.3976   -6.5212  -14.2789 C   0  0  0  0  0  0  0  0  0  0  0  0
   22.0909   -4.9015  -13.8743 O   0  0  0  0  0  0  0  0  0  0  0  0
   22.3813   -5.5946  -12.8867 O   0  0  0  0  0  0  0  0  0  0  0  0
  2  5  1  0
  2  1  1  1
  3  2  1  0
  4  3  1  0
  5  6  2  0
  7  8  1  0
  8 10  1  0
  9  8  2  0
 10 11  1  0
 12 11  1  0
 13 12  1  0
 14 13  1  6
 15 14  1  0
 15  5  1  0
 16 14  1  0
 17 16  2  0
 19 18  1  0
 20 19  1  0
 21 20  1  0
 22 21  1  6
 22 23  1  0
 23 16  1  0
 24 22  1  0
 24 26  1  0
 25 24  2  0
M  END
$$$$
