CRM.pdb
     RDKit          3D

 26 25  0  0  1  0  0  0  0  0999 V2000
   22.6780  -22.1507  -18.9874 N   0  0  0  0  0  0  0  0  0  0  0  0
   21.4966  -21.3482  -18.6089 C   0  0  1  0  0  0  0  0  0  0  0  0
   20.2853  -21.8497  -19.3588 C   0  0  0  0  0  0  0  0  0  0  0  0
   20.4687  -21.4248  -21.1020 S   0  0  0  0  0  0  0  0  0  0  0  0
   21.2784  -21.5804  -17.1569 C   0  0  0  0  0  0  0  0  0  0  0  0
   21.7716  -22.6160  -16.6579 O   0  0  0  0  0  0  0  0  0  0  0  0
   23.2986  -20.8049   -9.6952 N   0  0  0  0  0  0  0  0  0  0  0  0
   23.6613  -21.0427  -11.0542 C   0  0  0  0  0  0  0  0  0  0  0  0
   24.7079  -21.7561  -11.3484 N   0  0  0  0  0  0  0  0  0  0  0  0
   22.9057  -20.5136  -12.1341 N   0  0  0  0  0  0  0  0  0  0  0  0
   21.8384  -19.5856  -11.8466 C   0  0  0  0  0  0  0  0  0  0  0  0
   20.5657  -19.9552  -12.6040 C   0  0  0  0  0  0  0  0  0  0  0  0
   20.6850  -19.6741  -14.0581 C   0  0  0  0  0  0  0  0  0  0  0  0
   20.4991  -20.8689  -14.9077 C   0  0  2  0  0  0  0  0  0  0  0  0
   20.5701  -20.7353  -16.3097 N   0  0  0  0  0  0  0  0  0  0  0  0
   19.3200  -21.6597  -14.4938 C   0  0  0  0  0  0  0  0  0  0  0  0
   18.1931  -21.3143  -14.9450 O   0  0  0  0  0  0  0  0  0  0  0  0
   24.9432  -22.0146  -12.3249 C   0  0  0  0  0  0  0  0  0  0  0  0
   18.0897  -25.2561   -8.9145 S   0  0  0  0  0  0  0  0  0  0  0  0
   17.5223  -26.2754  -10.3283 C   0  0  0  0  0  0  0  0  0  0  0  0
   17.1212  -25.1685  -11.7125 C   0  0  0  0  0  0  0  0  0  0  0  0
   18.3766  -24.3767  -12.0500 C   0  0  2  0  0  0  0  0  0  0  0  0
   18.1159  -23.4581  -13.2248 N   0  0  0  0  0  0  0  0  0  0  0  0
   19.3406  -22.7786  -13.6322 C   0  0  0  0  0  0  0  0  0  0  0  0
   17.1446  -22.4424  -12.7843 O   0  0  0  0  0  0  0  0  0  0  0  0
   15.9605  -22.4921  -13.1525 O   0  0  0  0  0  0  0  0  0  0  0  0
  2  5  1  0
  2  1  1  6
  3  2  1  0
  4  3  1  0
  5  6  2  0
  7  8  1  0
  8 10  1  0
  9  8  2  0
 10 11  1  0
 12 11  1  0
 13 12  1  0
 14 13  1  1
 15 14  1  0
 15  5  1  0
 16 14  1  0
 17 16  2  0
 19 18  1  0
 20 19  1  0
 21 20  1  0
 22 21  1  6
 22 23  1  0
 23 16  1  0
 24 22  1  0
 24 26  1  0
 25 24  2  0
M  END
$$$$
