CRM.pdb
     RDKit          3D

 26 25  0  0  1  0  0  0  0  0999 V2000
   27.8173  -19.7343  -15.6908 N   0  0  0  0  0  0  0  0  0  0  0  0
   27.7282  -20.7973  -14.6684 C   0  0  1  0  0  0  0  0  0  0  0  0
   29.1168  -21.1683  -14.2046 C   0  0  0  0  0  0  0  0  0  0  0  0
   29.7836  -22.4181  -15.3209 S   0  0  0  0  0  0  0  0  0  0  0  0
   26.9901  -20.2129  -13.5178 C   0  0  0  0  0  0  0  0  0  0  0  0
   27.2201  -19.0169  -13.2325 O   0  0  0  0  0  0  0  0  0  0  0  0
   23.1637  -23.9459  -14.1235 N   0  0  0  0  0  0  0  0  0  0  0  0
   22.1610  -23.1465  -14.7486 C   0  0  0  0  0  0  0  0  0  0  0  0
   21.7246  -23.4371  -15.9385 N   0  0  0  0  0  0  0  0  0  0  0  0
   21.6040  -22.0083  -14.1074 N   0  0  0  0  0  0  0  0  0  0  0  0
   22.1441  -21.5936  -12.8349 C   0  0  0  0  0  0  0  0  0  0  0  0
   23.3240  -20.6428  -13.0187 C   0  0  0  0  0  0  0  0  0  0  0  0
   23.8934  -20.2086  -11.7168 C   0  0  0  0  0  0  0  0  0  0  0  0
   25.3639  -20.3360  -11.6436 C   0  0  2  0  0  0  0  0  0  0  0  0
   26.0626  -20.8917  -12.7351 N   0  0  0  0  0  0  0  0  0  0  0  0
   25.8015  -20.9240  -10.3590 C   0  0  0  0  0  0  0  0  0  0  0  0
   25.6934  -22.1734  -10.2178 O   0  0  0  0  0  0  0  0  0  0  0  0
   20.9778  -22.8868  -16.4024 C   0  0  0  0  0  0  0  0  0  0  0  0
   29.2209  -18.1421   -5.7872 S   0  0  0  0  0  0  0  0  0  0  0  0
   28.6225  -19.5019   -4.7136 C   0  0  0  0  0  0  0  0  0  0  0  0
   27.5669  -20.5981   -5.7065 C   0  0  0  0  0  0  0  0  0  0  0  0
   27.3248  -19.9177   -7.0464 C   0  0  2  0  0  0  0  0  0  0  0  0
   26.5386  -20.8311   -7.9627 N   0  0  0  0  0  0  0  0  0  0  0  0
   26.3361  -20.2075   -9.2657 C   0  0  0  0  0  0  0  0  0  0  0  0
   25.2211  -21.0514   -7.3425 O   0  0  0  0  0  0  0  0  0  0  0  0
   24.2140  -20.4584   -7.7598 O   0  0  0  0  0  0  0  0  0  0  0  0
  2  5  1  0
  2  1  1  6
  3  2  1  0
  4  3  1  0
  5  6  2  0
  7  8  1  0
  8 10  1  0
  9  8  2  0
 10 11  1  0
 12 11  1  0
 13 12  1  0
 14 13  1  6
 15 14  1  0
 15  5  1  0
 16 14  1  0
 17 16  2  0
 19 18  1  0
 20 19  1  0
 21 20  1  0
 22 21  1  6
 22 23  1  0
 23 16  1  0
 24 22  1  0
 24 26  1  0
 25 24  2  0
M  END
$$$$
