CRM.pdb
     RDKit          3D

 26 25  0  0  1  0  0  0  0  0999 V2000
   20.5471  -15.9999  -17.8358 N   0  0  0  0  0  0  0  0  0  0  0  0
   19.8569  -15.3113  -16.7255 C   0  0  1  0  0  0  0  0  0  0  0  0
   20.3943  -15.8163  -15.4075 C   0  0  0  0  0  0  0  0  0  0  0  0
   19.5630  -17.3642  -15.0000 S   0  0  0  0  0  0  0  0  0  0  0  0
   20.1971  -13.8694  -16.8490 C   0  0  0  0  0  0  0  0  0  0  0  0
   21.3579  -13.5800  -17.2144 O   0  0  0  0  0  0  0  0  0  0  0  0
   15.4850   -6.5523  -17.7403 N   0  0  0  0  0  0  0  0  0  0  0  0
   15.5755   -7.9173  -18.1452 C   0  0  0  0  0  0  0  0  0  0  0  0
   14.5754   -8.5045  -18.7333 N   0  0  0  0  0  0  0  0  0  0  0  0
   16.7477   -8.6877  -17.9228 N   0  0  0  0  0  0  0  0  0  0  0  0
   17.8404   -8.0948  -17.1898 C   0  0  0  0  0  0  0  0  0  0  0  0
   19.0046   -9.0716  -17.0468 C   0  0  0  0  0  0  0  0  0  0  0  0
   18.5361  -10.4737  -16.8977 C   0  0  0  0  0  0  0  0  0  0  0  0
   19.6349  -11.4513  -16.7538 C   0  0  2  0  0  0  0  0  0  0  0  0
   19.3250  -12.8174  -16.5916 N   0  0  0  0  0  0  0  0  0  0  0  0
   20.6465  -11.0010  -15.7735 C   0  0  0  0  0  0  0  0  0  0  0  0
   20.3525  -11.0779  -14.5486 O   0  0  0  0  0  0  0  0  0  0  0  0
   14.6280   -9.4864  -19.0630 C   0  0  0  0  0  0  0  0  0  0  0  0
   26.9131  -10.5621  -16.8575 S   0  0  0  0  0  0  0  0  0  0  0  0
   26.9584  -10.6156  -15.0260 C   0  0  0  0  0  0  0  0  0  0  0  0
   25.3019  -10.2133  -14.3965 C   0  0  0  0  0  0  0  0  0  0  0  0
   24.3017  -10.5091  -15.5051 C   0  0  2  0  0  0  0  0  0  0  0  0
   22.8992  -10.1667  -15.0496 N   0  0  0  0  0  0  0  0  0  0  0  0
   21.9251  -10.4891  -16.0863 C   0  0  0  0  0  0  0  0  0  0  0  0
   22.8559   -8.7149  -14.8058 O   0  0  0  0  0  0  0  0  0  0  0  0
   22.7301   -7.9150  -15.7463 O   0  0  0  0  0  0  0  0  0  0  0  0
  2  5  1  0
  2  1  1  6
  3  2  1  0
  4  3  1  0
  5  6  2  0
  7  8  1  0
  8 10  1  0
  9  8  2  0
 10 11  1  0
 12 11  1  0
 13 12  1  0
 14 13  1  1
 15 14  1  0
 15  5  1  0
 16 14  1  0
 17 16  2  0
 19 18  1  0
 20 19  1  0
 21 20  1  0
 22 21  1  1
 22 23  1  0
 23 16  1  0
 24 22  1  0
 24 26  1  0
 25 24  2  0
M  END
$$$$
