CRM.pdb
     RDKit          3D

 26 25  0  0  1  0  0  0  0  0999 V2000
   26.5135  -19.7056  -19.4713 N   0  0  0  0  0  0  0  0  0  0  0  0
   25.9588  -18.6563  -18.5913 C   0  0  1  0  0  0  0  0  0  0  0  0
   24.7706  -18.0105  -19.2638 C   0  0  0  0  0  0  0  0  0  0  0  0
   25.3707  -16.8732  -20.5285 S   0  0  0  0  0  0  0  0  0  0  0  0
   25.4845  -19.3456  -17.3625 C   0  0  0  0  0  0  0  0  0  0  0  0
   24.9617  -20.4738  -17.4995 O   0  0  0  0  0  0  0  0  0  0  0  0
   23.1632  -19.5475  -10.7746 N   0  0  0  0  0  0  0  0  0  0  0  0
   24.0077  -20.2662   -9.8771 C   0  0  0  0  0  0  0  0  0  0  0  0
   23.5069  -20.9135   -8.8667 N   0  0  0  0  0  0  0  0  0  0  0  0
   25.4177  -20.3029  -10.0437 N   0  0  0  0  0  0  0  0  0  0  0  0
   26.0034  -19.6080  -11.1648 C   0  0  0  0  0  0  0  0  0  0  0  0
   25.2774  -19.9448  -12.4646 C   0  0  0  0  0  0  0  0  0  0  0  0
   25.8197  -19.1790  -13.6165 C   0  0  0  0  0  0  0  0  0  0  0  0
   25.1731  -19.5109  -14.9032 C   0  0  2  0  0  0  0  0  0  0  0  0
   25.5782  -18.8349  -16.0726 N   0  0  0  0  0  0  0  0  0  0  0  0
   23.6999  -19.5575  -14.7823 C   0  0  0  0  0  0  0  0  0  0  0  0
   23.0942  -18.4729  -14.5601 O   0  0  0  0  0  0  0  0  0  0  0  0
   24.1043  -21.3873   -8.1637 C   0  0  0  0  0  0  0  0  0  0  0  0
   19.8617  -24.8029  -15.1264 S   0  0  0  0  0  0  0  0  0  0  0  0
   18.6595  -23.5255  -15.6579 C   0  0  0  0  0  0  0  0  0  0  0  0
   19.3168  -21.8925  -15.2071 C   0  0  0  0  0  0  0  0  0  0  0  0
   20.8353  -21.9958  -15.1832 C   0  0  2  0  0  0  0  0  0  0  0  0
   21.4453  -20.6572  -14.8257 N   0  0  0  0  0  0  0  0  0  0  0  0
   22.9010  -20.7166  -14.8956 C   0  0  0  0  0  0  0  0  0  0  0  0
   21.0581  -20.3517  -13.4380 O   0  0  0  0  0  0  0  0  0  0  0  0
   21.6559  -20.8696  -12.4817 O   0  0  0  0  0  0  0  0  0  0  0  0
  2  5  1  0
  2  1  1  6
  3  2  1  0
  4  3  1  0
  5  6  2  0
  7  8  1  0
  8 10  1  0
  9  8  2  0
 10 11  1  0
 12 11  1  0
 13 12  1  0
 14 13  1  1
 15 14  1  0
 15  5  1  0
 16 14  1  0
 17 16  2  0
 19 18  1  0
 20 19  1  0
 21 20  1  0
 22 21  1  6
 22 23  1  0
 23 16  1  0
 24 22  1  0
 24 26  1  0
 25 24  2  0
M  END
$$$$
