MMK.pdb
     RDKit          3D

 26 25  0  0  1  0  0  0  0  0999 V2000
    8.4741  -11.7612   20.2192 C   0  0  0  0  0  0  0  0  0  0  0  0
    7.8451  -12.5291   18.7030 S   0  0  0  0  0  0  0  0  0  0  0  0
    8.0302  -14.3216   18.7361 C   0  0  0  0  0  0  0  0  0  0  0  0
    7.6206  -14.8147   20.1055 C   0  0  0  0  0  0  0  0  0  0  0  0
    8.7579  -15.6015   20.7579 C   0  0  2  0  0  0  0  0  0  0  0  0
    8.2479  -16.9786   20.8311 N   0  0  0  0  0  0  0  0  0  0  0  0
    8.9772  -15.1461   22.1479 C   0  0  0  0  0  0  0  0  0  0  0  0
    9.4444  -14.0185   22.3853 O   0  0  0  0  0  0  0  0  0  0  0  0
    7.2907  -10.7763   26.2020 C   0  0  0  0  0  0  0  0  0  0  0  0
    6.4475  -12.3749   26.3817 S   0  0  0  0  0  0  0  0  0  0  0  0
    7.5559  -13.7651   26.1761 C   0  0  0  0  0  0  0  0  0  0  0  0
    7.6259  -14.3387   24.8135 C   0  0  0  0  0  0  0  0  0  0  0  0
    8.5593  -15.4844   24.6083 C   0  0  2  0  0  0  0  0  0  0  0  0
    8.6597  -15.9853   23.2793 N   0  0  0  0  0  0  0  0  0  0  0  0
    8.3267  -16.5759   25.6126 C   0  0  0  0  0  0  0  0  0  0  0  0
    7.2260  -17.1833   25.6730 O   0  0  0  0  0  0  0  0  0  0  0  0
    9.3210  -16.9808   26.5391 N   0  0  0  0  0  0  0  0  0  0  0  0
   10.0300  -18.2557   26.4354 C   0  0  1  0  0  0  0  0  0  0  0  0
   10.9405  -18.2794   25.2629 C   0  0  0  0  0  0  0  0  0  0  0  0
   11.7849  -19.5221   25.2615 C   0  0  0  0  0  0  0  0  0  0  0  0
   11.6729  -20.2053   23.8814 C   0  0  0  0  0  0  0  0  0  0  0  0
   12.5231  -21.4554   23.9306 C   0  0  0  0  0  0  0  0  0  0  0  0
   12.5353  -22.1314   22.6627 N   0  0  0  0  0  0  0  0  0  0  0  0
   10.7957  -18.4333   27.6857 C   0  0  0  0  0  0  0  0  0  0  0  0
   11.2212  -19.7336   28.0317 O   0  0  0  0  0  0  0  0  0  0  0  0
   11.1184  -17.5449   28.4925 O   0  0  0  0  0  0  0  0  0  0  0  0
  2  1  1  0
  3  2  1  0
  4  3  1  0
  4  5  1  0
  5  7  1  0
  5  6  1  1
  7 14  1  0
  8  7  2  0
 10  9  1  0
 11 10  1  0
 13 12  1  6
 12 11  1  0
 14 13  1  0
 15 17  1  0
 15 13  1  0
 16 15  2  0
 18 17  1  0
 18 24  1  0
 18 19  1  6
 20 19  1  0
 21 20  1  0
 22 21  1  0
 23 22  1  0
 24 25  1  0
 26 24  2  0
M  END
$$$$
