MMK.pdb
     RDKit          3D

 26 25  0  0  1  0  0  0  0  0999 V2000
    7.4439  -11.7322   19.0439 C   0  0  0  0  0  0  0  0  0  0  0  0
    7.1348  -13.1922   18.0159 S   0  0  0  0  0  0  0  0  0  0  0  0
    7.6147  -14.7133   18.8550 C   0  0  0  0  0  0  0  0  0  0  0  0
    8.5669  -14.3565   19.9742 C   0  0  0  0  0  0  0  0  0  0  0  0
    8.9151  -15.5945   20.8013 C   0  0  2  0  0  0  0  0  0  0  0  0
    7.7426  -16.4690   20.6525 N   0  0  0  0  0  0  0  0  0  0  0  0
    9.0203  -15.2508   22.2361 C   0  0  0  0  0  0  0  0  0  0  0  0
   10.1185  -14.9715   22.7480 O   0  0  0  0  0  0  0  0  0  0  0  0
    7.1320  -11.8784   28.7410 C   0  0  0  0  0  0  0  0  0  0  0  0
    7.0775  -12.1602   26.9475 S   0  0  0  0  0  0  0  0  0  0  0  0
    6.8718  -13.8880   26.5279 C   0  0  0  0  0  0  0  0  0  0  0  0
    6.7970  -14.1965   25.0822 C   0  0  0  0  0  0  0  0  0  0  0  0
    7.9397  -14.9521   24.4912 C   0  0  2  0  0  0  0  0  0  0  0  0
    7.8606  -15.2247   23.0960 N   0  0  0  0  0  0  0  0  0  0  0  0
    8.2685  -16.1777   25.2936 C   0  0  0  0  0  0  0  0  0  0  0  0
    7.3894  -17.0379   25.5606 O   0  0  0  0  0  0  0  0  0  0  0  0
    9.5717  -16.4339   25.7905 N   0  0  0  0  0  0  0  0  0  0  0  0
    9.9458  -17.6994   26.4208 C   0  0  1  0  0  0  0  0  0  0  0  0
   11.1236  -18.3123   25.7561 C   0  0  0  0  0  0  0  0  0  0  0  0
   11.6223  -19.4992   26.5307 C   0  0  0  0  0  0  0  0  0  0  0  0
   11.6886  -20.7222   25.5905 C   0  0  0  0  0  0  0  0  0  0  0  0
   12.2769  -21.8665   26.3858 C   0  0  0  0  0  0  0  0  0  0  0  0
   12.5303  -23.0089   25.5517 N   0  0  0  0  0  0  0  0  0  0  0  0
   10.2466  -17.4104   27.8374 C   0  0  0  0  0  0  0  0  0  0  0  0
   10.1402  -18.4616   28.7729 O   0  0  0  0  0  0  0  0  0  0  0  0
   10.5926  -16.3169   28.3160 O   0  0  0  0  0  0  0  0  0  0  0  0
  2  1  1  0
  3  2  1  0
  4  3  1  0
  4  5  1  0
  5  7  1  0
  5  6  1  1
  7 14  1  0
  8  7  2  0
 10  9  1  0
 11 10  1  0
 13 12  1  1
 12 11  1  0
 14 13  1  0
 15 17  1  0
 15 13  1  0
 16 15  2  0
 18 17  1  0
 18 24  1  0
 18 19  1  6
 20 19  1  0
 21 20  1  0
 22 21  1  0
 23 22  1  0
 24 25  1  0
 26 24  2  0
M  END
$$$$
