MMK.pdb
     RDKit          3D

 26 25  0  0  1  0  0  0  0  0999 V2000
    7.7199  -11.7338   26.5648 C   0  0  0  0  0  0  0  0  0  0  0  0
    6.5157  -12.6017   27.6044 S   0  0  0  0  0  0  0  0  0  0  0  0
    5.9637  -14.1399   26.8447 C   0  0  0  0  0  0  0  0  0  0  0  0
    7.0210  -14.5883   25.8610 C   0  0  0  0  0  0  0  0  0  0  0  0
    6.5795  -15.8609   25.1374 C   0  0  2  0  0  0  0  0  0  0  0  0
    6.6078  -16.8969   26.1803 N   0  0  0  0  0  0  0  0  0  0  0  0
    7.5729  -16.2499   24.1129 C   0  0  0  0  0  0  0  0  0  0  0  0
    8.1846  -17.3294   24.1927 O   0  0  0  0  0  0  0  0  0  0  0  0
    8.4725  -12.0301   19.3006 C   0  0  0  0  0  0  0  0  0  0  0  0
    7.0177  -12.8487   20.0162 S   0  0  0  0  0  0  0  0  0  0  0  0
    7.2595  -14.6074   20.2438 C   0  0  0  0  0  0  0  0  0  0  0  0
    8.6192  -15.0242   20.6541 C   0  0  0  0  0  0  0  0  0  0  0  0
    8.7359  -15.7956   21.9258 C   0  0  2  0  0  0  0  0  0  0  0  0
    7.8712  -15.3989   22.9851 N   0  0  0  0  0  0  0  0  0  0  0  0
   10.1645  -15.9173   22.3715 C   0  0  0  0  0  0  0  0  0  0  0  0
   10.6737  -15.0832   23.1647 O   0  0  0  0  0  0  0  0  0  0  0  0
   11.0116  -16.9655   21.9307 N   0  0  0  0  0  0  0  0  0  0  0  0
   12.2482  -17.3299   22.6213 C   0  0  1  0  0  0  0  0  0  0  0  0
   12.0937  -18.5933   23.3858 C   0  0  0  0  0  0  0  0  0  0  0  0
   13.4096  -19.0434   23.9543 C   0  0  0  0  0  0  0  0  0  0  0  0
   13.1839  -20.3149   24.8006 C   0  0  0  0  0  0  0  0  0  0  0  0
   14.5187  -20.6947   25.4023 C   0  0  0  0  0  0  0  0  0  0  0  0
   14.4112  -21.8763   26.2129 N   0  0  0  0  0  0  0  0  0  0  0  0
   13.2973  -17.4756   21.5923 C   0  0  0  0  0  0  0  0  0  0  0  0
   12.9110  -17.8655   20.2922 O   0  0  0  0  0  0  0  0  0  0  0  0
   14.5169  -17.2896   21.7422 O   0  0  0  0  0  0  0  0  0  0  0  0
  2  1  1  0
  3  2  1  0
  4  3  1  0
  4  5  1  0
  5  7  1  0
  5  6  1  1
  7 14  1  0
  8  7  2  0
 10  9  1  0
 11 10  1  0
 13 12  1  6
 12 11  1  0
 14 13  1  0
 15 17  1  0
 15 13  1  0
 16 15  2  0
 18 17  1  0
 18 24  1  0
 18 19  1  6
 20 19  1  0
 21 20  1  0
 22 21  1  0
 23 22  1  0
 24 25  1  0
 26 24  2  0
M  END
$$$$
