MMK.pdb
     RDKit          3D

 26 25  0  0  1  0  0  0  0  0999 V2000
    7.9788  -11.8363   18.8305 C   0  0  0  0  0  0  0  0  0  0  0  0
    7.4915  -13.4232   18.1036 S   0  0  0  0  0  0  0  0  0  0  0  0
    8.0888  -14.8159   19.0792 C   0  0  0  0  0  0  0  0  0  0  0  0
    8.8881  -14.2716   20.2416 C   0  0  0  0  0  0  0  0  0  0  0  0
    9.3552  -15.4066   21.1535 C   0  0  2  0  0  0  0  0  0  0  0  0
    8.3373  -16.4529   20.9773 N   0  0  0  0  0  0  0  0  0  0  0  0
    9.3074  -14.9898   22.5718 C   0  0  0  0  0  0  0  0  0  0  0  0
   10.2219  -14.3104   23.0700 O   0  0  0  0  0  0  0  0  0  0  0  0
    7.9696  -11.4870   27.5256 C   0  0  0  0  0  0  0  0  0  0  0  0
    6.4934  -12.4484   27.0838 S   0  0  0  0  0  0  0  0  0  0  0  0
    6.8576  -14.1773   26.7979 C   0  0  0  0  0  0  0  0  0  0  0  0
    6.8720  -14.6083   25.3819 C   0  0  0  0  0  0  0  0  0  0  0  0
    8.1812  -15.0552   24.8235 C   0  0  2  0  0  0  0  0  0  0  0  0
    8.2045  -15.3510   23.4310 N   0  0  0  0  0  0  0  0  0  0  0  0
    8.7913  -16.1509   25.6491 C   0  0  0  0  0  0  0  0  0  0  0  0
    8.6772  -16.1640   26.9025 O   0  0  0  0  0  0  0  0  0  0  0  0
    9.5215  -17.2208   25.0720 N   0  0  0  0  0  0  0  0  0  0  0  0
   10.0407  -18.3408   25.8560 C   0  0  1  0  0  0  0  0  0  0  0  0
   10.5907  -19.4087   24.9833 C   0  0  0  0  0  0  0  0  0  0  0  0
    9.5811  -19.8393   23.9573 C   0  0  0  0  0  0  0  0  0  0  0  0
   10.2377  -20.8595   23.0022 C   0  0  0  0  0  0  0  0  0  0  0  0
    9.1617  -21.3422   22.0549 C   0  0  0  0  0  0  0  0  0  0  0  0
    9.6837  -22.2869   21.1064 N   0  0  0  0  0  0  0  0  0  0  0  0
   11.0951  -17.8043   26.7400 C   0  0  0  0  0  0  0  0  0  0  0  0
   11.4341  -16.4391   26.6263 O   0  0  0  0  0  0  0  0  0  0  0  0
   11.7377  -18.4335   27.5976 O   0  0  0  0  0  0  0  0  0  0  0  0
  2  1  1  0
  3  2  1  0
  4  3  1  0
  4  5  1  0
  5  7  1  0
  5  6  1  1
  7 14  1  0
  8  7  2  0
 10  9  1  0
 11 10  1  0
 13 12  1  1
 12 11  1  0
 14 13  1  0
 15 17  1  0
 15 13  1  0
 16 15  2  0
 18 17  1  0
 18 24  1  0
 18 19  1  6
 20 19  1  0
 21 20  1  0
 22 21  1  0
 23 22  1  0
 24 25  1  0
 26 24  2  0
M  END
$$$$
