MMK.pdb
     RDKit          3D

 26 25  0  0  1  0  0  0  0  0999 V2000
    8.1102  -20.5600   20.2215 C   0  0  0  0  0  0  0  0  0  0  0  0
    6.6701  -19.6205   19.6490 S   0  0  0  0  0  0  0  0  0  0  0  0
    6.9731  -17.8444   19.6882 C   0  0  0  0  0  0  0  0  0  0  0  0
    7.8548  -17.5406   20.8784 C   0  0  0  0  0  0  0  0  0  0  0  0
    8.0765  -16.0338   21.0149 C   0  0  2  0  0  0  0  0  0  0  0  0
    8.9705  -15.6982   19.8969 N   0  0  0  0  0  0  0  0  0  0  0  0
    8.8080  -15.7249   22.2627 C   0  0  0  0  0  0  0  0  0  0  0  0
   10.0275  -15.9466   22.3607 O   0  0  0  0  0  0  0  0  0  0  0  0
    5.6883  -11.9731   27.0066 C   0  0  0  0  0  0  0  0  0  0  0  0
    7.3623  -11.5455   26.4467 S   0  0  0  0  0  0  0  0  0  0  0  0
    7.9875  -12.6826   25.2139 C   0  0  0  0  0  0  0  0  0  0  0  0
    8.1262  -14.0913   25.6465 C   0  0  0  0  0  0  0  0  0  0  0  0
    8.7662  -15.0351   24.6845 C   0  0  2  0  0  0  0  0  0  0  0  0
    8.1417  -15.1565   23.4108 N   0  0  0  0  0  0  0  0  0  0  0  0
    9.0386  -16.3700   25.3152 C   0  0  0  0  0  0  0  0  0  0  0  0
    8.1271  -17.2280   25.4460 O   0  0  0  0  0  0  0  0  0  0  0  0
   10.3221  -16.7370   25.7937 N   0  0  0  0  0  0  0  0  0  0  0  0
   10.6169  -18.0620   26.3381 C   0  0  1  0  0  0  0  0  0  0  0  0
   11.8620  -18.6253   25.7576 C   0  0  0  0  0  0  0  0  0  0  0  0
   11.6013  -19.2300   24.4071 C   0  0  0  0  0  0  0  0  0  0  0  0
   12.9237  -19.7944   23.8445 C   0  0  0  0  0  0  0  0  0  0  0  0
   12.6171  -20.3805   22.4841 C   0  0  0  0  0  0  0  0  0  0  0  0
   13.1156  -21.7231   22.3673 N   0  0  0  0  0  0  0  0  0  0  0  0
   10.7522  -17.9135   27.8011 C   0  0  0  0  0  0  0  0  0  0  0  0
   10.7353  -16.6122   28.3469 O   0  0  0  0  0  0  0  0  0  0  0  0
   10.8831  -18.8280   28.6324 O   0  0  0  0  0  0  0  0  0  0  0  0
  2  1  1  0
  3  2  1  0
  4  3  1  0
  4  5  1  0
  5  7  1  0
  5  6  1  6
  7 14  1  0
  8  7  2  0
 10  9  1  0
 11 10  1  0
 13 12  1  1
 12 11  1  0
 14 13  1  0
 15 17  1  0
 15 13  1  0
 16 15  2  0
 18 17  1  0
 18 24  1  0
 18 19  1  6
 20 19  1  0
 21 20  1  0
 22 21  1  0
 23 22  1  0
 24 25  1  0
 26 24  2  0
M  END
$$$$
