MMK.pdb
     RDKit          3D

 26 25  0  0  1  0  0  0  0  0999 V2000
    8.6894  -19.4033   29.2779 C   0  0  0  0  0  0  0  0  0  0  0  0
    7.7900  -20.8694   28.7073 S   0  0  0  0  0  0  0  0  0  0  0  0
    6.5493  -20.4513   27.4688 C   0  0  0  0  0  0  0  0  0  0  0  0
    7.2149  -19.6244   26.3920 C   0  0  0  0  0  0  0  0  0  0  0  0
    6.1754  -18.8237   25.6069 C   0  0  2  0  0  0  0  0  0  0  0  0
    5.6275  -19.7905   24.6441 N   0  0  0  0  0  0  0  0  0  0  0  0
    6.8261  -17.7518   24.8223 C   0  0  0  0  0  0  0  0  0  0  0  0
    7.0801  -17.9072   23.6152 O   0  0  0  0  0  0  0  0  0  0  0  0
    5.1864  -11.3311   26.8235 C   0  0  0  0  0  0  0  0  0  0  0  0
    6.8356  -12.0620   26.6124 S   0  0  0  0  0  0  0  0  0  0  0  0
    6.8218  -13.4944   25.5392 C   0  0  0  0  0  0  0  0  0  0  0  0
    8.1168  -14.1929   25.3784 C   0  0  0  0  0  0  0  0  0  0  0  0
    8.0775  -15.5665   24.7975 C   0  0  2  0  0  0  0  0  0  0  0  0
    7.1902  -16.4892   25.4208 N   0  0  0  0  0  0  0  0  0  0  0  0
    9.4565  -16.1332   24.6199 C   0  0  0  0  0  0  0  0  0  0  0  0
   10.0667  -16.6768   25.5771 O   0  0  0  0  0  0  0  0  0  0  0  0
   10.1422  -16.0897   23.3794 N   0  0  0  0  0  0  0  0  0  0  0  0
   11.4591  -16.6935   23.1793 C   0  0  1  0  0  0  0  0  0  0  0  0
   11.8108  -16.7694   21.7388 C   0  0  0  0  0  0  0  0  0  0  0  0
   10.9078  -17.7264   21.0134 C   0  0  0  0  0  0  0  0  0  0  0  0
   11.1917  -17.6363   19.4984 C   0  0  0  0  0  0  0  0  0  0  0  0
   10.2958  -18.6451   18.8145 C   0  0  0  0  0  0  0  0  0  0  0  0
   10.5612  -18.7107   17.4039 N   0  0  0  0  0  0  0  0  0  0  0  0
   12.4377  -15.8589   23.9050 C   0  0  0  0  0  0  0  0  0  0  0  0
   13.7911  -16.2587   23.9029 O   0  0  0  0  0  0  0  0  0  0  0  0
   12.2014  -14.8147   24.5360 O   0  0  0  0  0  0  0  0  0  0  0  0
  2  1  1  0
  3  2  1  0
  4  3  1  0
  4  5  1  0
  5  7  1  0
  5  6  1  6
  7 14  1  0
  8  7  2  0
 10  9  1  0
 11 10  1  0
 13 12  1  1
 12 11  1  0
 14 13  1  0
 15 17  1  0
 15 13  1  0
 16 15  2  0
 18 17  1  0
 18 24  1  0
 18 19  1  6
 20 19  1  0
 21 20  1  0
 22 21  1  0
 23 22  1  0
 24 25  1  0
 26 24  2  0
M  END
$$$$
