MMK.pdb
     RDKit          3D

 26 25  0  0  1  0  0  0  0  0999 V2000
    6.5846  -12.3357   18.0132 C   0  0  0  0  0  0  0  0  0  0  0  0
    7.4095  -13.4055   19.2212 S   0  0  0  0  0  0  0  0  0  0  0  0
    6.9419  -15.1334   19.0117 C   0  0  0  0  0  0  0  0  0  0  0  0
    7.5572  -15.9305   20.1397 C   0  0  0  0  0  0  0  0  0  0  0  0
    8.9350  -15.3759   20.5033 C   0  0  2  0  0  0  0  0  0  0  0  0
    9.8778  -16.3385   19.9148 N   0  0  0  0  0  0  0  0  0  0  0  0
    9.1405  -15.4077   21.9677 C   0  0  0  0  0  0  0  0  0  0  0  0
   10.0738  -16.0591   22.4685 O   0  0  0  0  0  0  0  0  0  0  0  0
    7.3947  -12.1480   29.0865 C   0  0  0  0  0  0  0  0  0  0  0  0
    6.8201  -12.4502   27.3902 S   0  0  0  0  0  0  0  0  0  0  0  0
    7.8711  -13.5938   26.5006 C   0  0  0  0  0  0  0  0  0  0  0  0
    7.6088  -13.7158   25.0490 C   0  0  0  0  0  0  0  0  0  0  0  0
    8.4958  -14.6328   24.2756 C   0  0  2  0  0  0  0  0  0  0  0  0
    8.2728  -14.6885   22.8704 N   0  0  0  0  0  0  0  0  0  0  0  0
    8.5592  -15.9980   24.8971 C   0  0  0  0  0  0  0  0  0  0  0  0
    7.5706  -16.7763   24.8644 O   0  0  0  0  0  0  0  0  0  0  0  0
    9.7216  -16.4836   25.5481 N   0  0  0  0  0  0  0  0  0  0  0  0
    9.8358  -17.8518   26.0519 C   0  0  1  0  0  0  0  0  0  0  0  0
   10.9588  -18.5783   25.4072 C   0  0  0  0  0  0  0  0  0  0  0  0
   11.1252  -19.9486   26.0004 C   0  0  0  0  0  0  0  0  0  0  0  0
   12.2717  -20.6784   25.2678 C   0  0  0  0  0  0  0  0  0  0  0  0
   12.2912  -22.1034   25.7750 C   0  0  0  0  0  0  0  0  0  0  0  0
   13.3620  -22.8562   25.1822 N   0  0  0  0  0  0  0  0  0  0  0  0
   10.0490  -17.7644   27.5106 C   0  0  0  0  0  0  0  0  0  0  0  0
   10.5523  -16.5583   28.0431 O   0  0  0  0  0  0  0  0  0  0  0  0
    9.8304  -18.6556   28.3487 O   0  0  0  0  0  0  0  0  0  0  0  0
  2  1  1  0
  3  2  1  0
  4  3  1  0
  4  5  1  0
  5  7  1  0
  5  6  1  6
  7 14  1  0
  8  7  2  0
 10  9  1  0
 11 10  1  0
 13 12  1  1
 12 11  1  0
 14 13  1  0
 15 17  1  0
 15 13  1  0
 16 15  2  0
 18 17  1  0
 18 24  1  0
 18 19  1  6
 20 19  1  0
 21 20  1  0
 22 21  1  0
 23 22  1  0
 24 25  1  0
 26 24  2  0
M  END
$$$$
