MMK.pdb
     RDKit          3D

 26 25  0  0  1  0  0  0  0  0999 V2000
    7.6986  -12.8804   17.8278 C   0  0  0  0  0  0  0  0  0  0  0  0
    6.9186  -13.1877   19.4344 S   0  0  0  0  0  0  0  0  0  0  0  0
    8.1363  -13.5818   20.7032 C   0  0  0  0  0  0  0  0  0  0  0  0
    8.9825  -14.7322   20.2064 C   0  0  0  0  0  0  0  0  0  0  0  0
    8.7682  -15.9733   21.0733 C   0  0  2  0  0  0  0  0  0  0  0  0
    7.3331  -16.2635   20.9389 N   0  0  0  0  0  0  0  0  0  0  0  0
    9.0163  -15.6638   22.4982 C   0  0  0  0  0  0  0  0  0  0  0  0
   10.1535  -15.3586   22.8978 O   0  0  0  0  0  0  0  0  0  0  0  0
    6.9614  -11.2881   27.2455 C   0  0  0  0  0  0  0  0  0  0  0  0
    5.9204  -12.1483   26.0309 S   0  0  0  0  0  0  0  0  0  0  0  0
    6.8578  -13.2537   24.9806 C   0  0  0  0  0  0  0  0  0  0  0  0
    7.1182  -14.6022   25.5324 C   0  0  0  0  0  0  0  0  0  0  0  0
    8.1680  -15.4190   24.8569 C   0  0  2  0  0  0  0  0  0  0  0  0
    7.9559  -15.7020   23.4777 N   0  0  0  0  0  0  0  0  0  0  0  0
    8.5056  -16.6509   25.6460 C   0  0  0  0  0  0  0  0  0  0  0  0
    7.6183  -17.4844   25.9656 O   0  0  0  0  0  0  0  0  0  0  0  0
    9.8265  -16.9430   26.0711 N   0  0  0  0  0  0  0  0  0  0  0  0
   10.1980  -18.2156   26.6886 C   0  0  1  0  0  0  0  0  0  0  0  0
   11.3143  -18.8698   25.9602 C   0  0  0  0  0  0  0  0  0  0  0  0
   11.6518  -20.1993   26.5731 C   0  0  0  0  0  0  0  0  0  0  0  0
   12.8291  -20.8274   25.7963 C   0  0  0  0  0  0  0  0  0  0  0  0
   13.0354  -22.2212   26.3468 C   0  0  0  0  0  0  0  0  0  0  0  0
   14.1037  -22.9005   25.6670 N   0  0  0  0  0  0  0  0  0  0  0  0
   10.5918  -17.9270   28.0824 C   0  0  0  0  0  0  0  0  0  0  0  0
   10.4090  -18.9353   29.0527 O   0  0  0  0  0  0  0  0  0  0  0  0
   11.0797  -16.8683   28.5132 O   0  0  0  0  0  0  0  0  0  0  0  0
  2  1  1  0
  3  2  1  0
  4  3  1  0
  4  5  1  0
  5  7  1  0
  5  6  1  1
  7 14  1  0
  8  7  2  0
 10  9  1  0
 11 10  1  0
 13 12  1  1
 12 11  1  0
 14 13  1  0
 15 17  1  0
 15 13  1  0
 16 15  2  0
 18 17  1  0
 18 24  1  0
 18 19  1  6
 20 19  1  0
 21 20  1  0
 22 21  1  0
 23 22  1  0
 24 25  1  0
 26 24  2  0
M  END
$$$$
