TEM.pdb
     RDKit          3D

 25 24  0  0  1  0  0  0  0  0999 V2000
    9.0118  -12.5069   20.0566 C   0  0  0  0  0  0  0  0  0  0  0  0
    8.0039  -13.1327   19.1411 C   0  0  1  0  0  0  0  0  0  0  0  0
    7.9253  -12.4332   17.9370 O   0  0  0  0  0  0  0  0  0  0  0  0
    8.4805  -14.5536   18.8225 C   0  0  2  0  0  0  0  0  0  0  0  0
    7.5404  -15.1849   17.9217 N   0  0  0  0  0  0  0  0  0  0  0  0
    8.5781  -15.3426   20.0723 C   0  0  0  0  0  0  0  0  0  0  0  0
    7.5351  -15.7176   20.6661 O   0  0  0  0  0  0  0  0  0  0  0  0
    9.8297  -15.6994   20.6376 N   0  0  0  0  0  0  0  0  0  0  0  0
    9.8531  -16.5783   21.7881 C   0  0  1  0  0  0  0  0  0  0  0  0
   11.1729  -17.3158   21.8838 C   0  0  0  0  0  0  0  0  0  0  0  0
   11.2402  -18.2373   23.0666 C   0  0  0  0  0  0  0  0  0  0  0  0
   12.4966  -18.9895   23.1829 C   0  0  0  0  0  0  0  0  0  0  0  0
   12.9254  -19.7230   22.2671 O   0  0  0  0  0  0  0  0  0  0  0  0
    9.7348  -15.7399   23.0349 C   0  0  0  0  0  0  0  0  0  0  0  0
   10.3391  -14.6465   23.1206 O   0  0  0  0  0  0  0  0  0  0  0  0
   13.2977  -18.9345   24.3284 O   0  0  0  0  0  0  0  0  0  0  0  0
    6.8355  -11.0646   26.3955 C   0  0  0  0  0  0  0  0  0  0  0  0
    6.0852  -12.7161   26.6342 S   0  0  0  0  0  0  0  0  0  0  0  0
    7.4899  -13.8945   26.7163 C   0  0  0  0  0  0  0  0  0  0  0  0
    7.6099  -14.6508   25.4241 C   0  0  0  0  0  0  0  0  0  0  0  0
    8.8966  -15.4154   25.3437 C   0  0  2  0  0  0  0  0  0  0  0  0
    8.9416  -16.1964   24.0972 N   0  0  0  0  0  0  0  0  0  0  0  0
    9.0643  -16.3235   26.4843 C   0  0  0  0  0  0  0  0  0  0  0  0
    9.6275  -15.8831   27.5424 O   0  0  0  0  0  0  0  0  0  0  0  0
    8.6591  -17.6347   26.5207 O   0  0  0  0  0  0  0  0  0  0  0  0
  2  1  1  1
  2  3  1  0
  4  2  1  0
  4  5  1  6
  6  4  1  0
  6  7  2  0
  8  6  1  0
  9  8  1  0
  9 14  1  0
  9 10  1  1
 11 10  1  0
 12 11  1  0
 13 12  2  0
 14 15  2  0
 14 22  1  0
 16 12  1  0
 18 17  1  0
 19 18  1  0
 20 19  1  0
 21 20  1  1
 22 21  1  0
 23 25  1  0
 23 21  1  0
 24 23  2  0
M  END
$$$$
