TEM.pdb
     RDKit          3D

 25 24  0  0  1  0  0  0  0  0999 V2000
    8.2158  -12.3323   18.7686 C   0  0  0  0  0  0  0  0  0  0  0  0
    8.4752  -13.2548   19.9207 C   0  0  1  0  0  0  0  0  0  0  0  0
    7.4588  -13.1599   20.8711 O   0  0  0  0  0  0  0  0  0  0  0  0
    8.4737  -14.6888   19.3808 C   0  0  2  0  0  0  0  0  0  0  0  0
    7.1968  -14.9669   18.7596 N   0  0  0  0  0  0  0  0  0  0  0  0
    8.7056  -15.6431   20.4897 C   0  0  0  0  0  0  0  0  0  0  0  0
    7.7399  -16.2673   20.9986 O   0  0  0  0  0  0  0  0  0  0  0  0
   10.0028  -15.8853   21.0112 N   0  0  0  0  0  0  0  0  0  0  0  0
   10.1615  -16.8640   22.0666 C   0  0  1  0  0  0  0  0  0  0  0  0
   11.5554  -17.4569   22.0550 C   0  0  0  0  0  0  0  0  0  0  0  0
   11.7889  -18.3723   20.8888 C   0  0  0  0  0  0  0  0  0  0  0  0
   13.1245  -18.9827   20.8505 C   0  0  0  0  0  0  0  0  0  0  0  0
   14.1002  -18.4255   20.3045 O   0  0  0  0  0  0  0  0  0  0  0  0
    9.9980  -16.1691   23.3939 C   0  0  0  0  0  0  0  0  0  0  0  0
   10.4966  -15.0355   23.5790 O   0  0  0  0  0  0  0  0  0  0  0  0
   13.3932  -20.2302   21.4236 O   0  0  0  0  0  0  0  0  0  0  0  0
    6.6169  -11.9794   27.3906 C   0  0  0  0  0  0  0  0  0  0  0  0
    7.7710  -12.9941   26.3979 S   0  0  0  0  0  0  0  0  0  0  0  0
    6.7350  -14.2665   25.5755 C   0  0  0  0  0  0  0  0  0  0  0  0
    7.5700  -15.0888   24.6360 C   0  0  0  0  0  0  0  0  0  0  0  0
    8.5191  -15.9845   25.3731 C   0  0  2  0  0  0  0  0  0  0  0  0
    9.2822  -16.8045   24.4186 N   0  0  0  0  0  0  0  0  0  0  0  0
    7.8180  -16.8692   26.3110 C   0  0  0  0  0  0  0  0  0  0  0  0
    7.4718  -16.4064   27.4497 O   0  0  0  0  0  0  0  0  0  0  0  0
    7.4895  -18.1802   26.0702 O   0  0  0  0  0  0  0  0  0  0  0  0
  2  1  1  6
  2  3  1  0
  4  2  1  0
  4  5  1  1
  6  4  1  0
  6  7  2  0
  8  6  1  0
  9  8  1  0
  9 14  1  0
  9 10  1  1
 11 10  1  0
 12 11  1  0
 13 12  2  0
 14 15  2  0
 14 22  1  0
 16 12  1  0
 18 17  1  0
 19 18  1  0
 20 19  1  0
 21 20  1  6
 22 21  1  0
 23 25  1  0
 23 21  1  0
 24 23  2  0
M  END
$$$$
