TEM.pdb
     RDKit          3D

 25 24  0  0  1  0  0  0  0  0999 V2000
    9.1697  -12.7734   20.1254 C   0  0  0  0  0  0  0  0  0  0  0  0
    8.1609  -13.1637   19.0883 C   0  0  1  0  0  0  0  0  0  0  0  0
    8.3595  -12.4471   17.9083 O   0  0  0  0  0  0  0  0  0  0  0  0
    8.3677  -14.6483   18.7704 C   0  0  2  0  0  0  0  0  0  0  0  0
    7.3912  -15.0700   17.7895 N   0  0  0  0  0  0  0  0  0  0  0  0
    8.2121  -15.4525   20.0046 C   0  0  0  0  0  0  0  0  0  0  0  0
    7.0763  -15.6006   20.5234 O   0  0  0  0  0  0  0  0  0  0  0  0
    9.3186  -16.0755   20.6376 N   0  0  0  0  0  0  0  0  0  0  0  0
    9.0922  -16.8502   21.8399 C   0  0  1  0  0  0  0  0  0  0  0  0
   10.1111  -17.9635   21.9709 C   0  0  0  0  0  0  0  0  0  0  0  0
   11.5263  -17.4677   21.9082 C   0  0  0  0  0  0  0  0  0  0  0  0
   12.5463  -18.5179   22.0287 C   0  0  0  0  0  0  0  0  0  0  0  0
   13.7689  -18.2634   22.0631 O   0  0  0  0  0  0  0  0  0  0  0  0
    9.2799  -15.9495   23.0336 C   0  0  0  0  0  0  0  0  0  0  0  0
   10.1274  -15.0282   23.0027 O   0  0  0  0  0  0  0  0  0  0  0  0
   12.2163  -19.8747   22.1129 O   0  0  0  0  0  0  0  0  0  0  0  0
    6.6673  -10.8101   27.6263 C   0  0  0  0  0  0  0  0  0  0  0  0
    6.3725  -11.9527   26.2281 S   0  0  0  0  0  0  0  0  0  0  0  0
    7.4208  -13.4230   26.5565 C   0  0  0  0  0  0  0  0  0  0  0  0
    7.3711  -14.3677   25.3897 C   0  0  0  0  0  0  0  0  0  0  0  0
    8.6090  -15.2080   25.3004 C   0  0  2  0  0  0  0  0  0  0  0  0
    8.4963  -16.1535   24.1784 N   0  0  0  0  0  0  0  0  0  0  0  0
    8.8492  -15.9597   26.5379 C   0  0  0  0  0  0  0  0  0  0  0  0
    8.6517  -17.2213   26.5383 O   0  0  0  0  0  0  0  0  0  0  0  0
    9.2797  -15.4186   27.7238 O   0  0  0  0  0  0  0  0  0  0  0  0
  2  1  1  1
  2  3  1  0
  4  2  1  0
  4  5  1  6
  6  4  1  0
  6  7  2  0
  8  6  1  0
  9  8  1  0
  9 14  1  0
  9 10  1  1
 11 10  1  0
 12 11  1  0
 13 12  2  0
 14 15  2  0
 14 22  1  0
 16 12  1  0
 18 17  1  0
 19 18  1  0
 20 19  1  0
 21 20  1  1
 22 21  1  0
 23 25  1  0
 23 21  1  0
 24 23  2  0
M  END
$$$$
