TEM.pdb
     RDKit          3D

 25 24  0  0  1  0  0  0  0  0999 V2000
    9.2503  -12.4952   20.3909 C   0  0  0  0  0  0  0  0  0  0  0  0
    7.9177  -12.8168   19.7859 C   0  0  1  0  0  0  0  0  0  0  0  0
    7.6415  -11.9684   18.7139 O   0  0  0  0  0  0  0  0  0  0  0  0
    7.9847  -14.2472   19.2408 C   0  0  2  0  0  0  0  0  0  0  0  0
    6.7326  -14.5737   18.5932 N   0  0  0  0  0  0  0  0  0  0  0  0
    8.2327  -15.1964   20.3506 C   0  0  0  0  0  0  0  0  0  0  0  0
    7.2682  -15.6777   20.9980 O   0  0  0  0  0  0  0  0  0  0  0  0
    9.5445  -15.5921   20.7194 N   0  0  0  0  0  0  0  0  0  0  0  0
    9.7129  -16.5188   21.8191 C   0  0  1  0  0  0  0  0  0  0  0  0
   10.9995  -17.3057   21.6766 C   0  0  0  0  0  0  0  0  0  0  0  0
   10.9406  -18.3229   20.5746 C   0  0  0  0  0  0  0  0  0  0  0  0
   12.1663  -19.1157   20.4103 C   0  0  0  0  0  0  0  0  0  0  0  0
   12.8047  -19.1473   19.3369 O   0  0  0  0  0  0  0  0  0  0  0  0
    9.8279  -15.7300   23.0981 C   0  0  0  0  0  0  0  0  0  0  0  0
   10.1591  -14.5228   23.0681 O   0  0  0  0  0  0  0  0  0  0  0  0
   12.7009  -19.8893   21.4459 O   0  0  0  0  0  0  0  0  0  0  0  0
    6.0656  -11.7745   27.0420 C   0  0  0  0  0  0  0  0  0  0  0  0
    7.0454  -12.5742   25.7199 S   0  0  0  0  0  0  0  0  0  0  0  0
    6.7685  -14.3779   25.9160 C   0  0  0  0  0  0  0  0  0  0  0  0
    7.5286  -15.1375   24.8664 C   0  0  0  0  0  0  0  0  0  0  0  0
    8.8565  -15.6118   25.3743 C   0  0  2  0  0  0  0  0  0  0  0  0
    9.5603  -16.3612   24.3213 N   0  0  0  0  0  0  0  0  0  0  0  0
    8.7144  -16.4679   26.5578 C   0  0  0  0  0  0  0  0  0  0  0  0
    8.4963  -15.9191   27.6901 O   0  0  0  0  0  0  0  0  0  0  0  0
    8.7936  -17.8384   26.5598 O   0  0  0  0  0  0  0  0  0  0  0  0
  2  1  1  6
  2  3  1  0
  4  2  1  0
  4  5  1  1
  6  4  1  0
  6  7  2  0
  8  6  1  0
  9  8  1  0
  9 14  1  0
  9 10  1  6
 11 10  1  0
 12 11  1  0
 13 12  2  0
 14 15  2  0
 14 22  1  0
 16 12  1  0
 18 17  1  0
 19 18  1  0
 20 19  1  0
 21 20  1  6
 22 21  1  0
 23 25  1  0
 23 21  1  0
 24 23  2  0
M  END
$$$$
