TEM.pdb
     RDKit          3D

 25 24  0  0  1  0  0  0  0  0999 V2000
    7.9683  -12.2299   19.0778 C   0  0  0  0  0  0  0  0  0  0  0  0
    8.3040  -13.1987   20.1706 C   0  0  1  0  0  0  0  0  0  0  0  0
    7.5528  -12.9349   21.3157 O   0  0  0  0  0  0  0  0  0  0  0  0
    7.9297  -14.6020   19.6826 C   0  0  2  0  0  0  0  0  0  0  0  0
    6.5207  -14.6368   19.3551 N   0  0  0  0  0  0  0  0  0  0  0  0
    8.2186  -15.5958   20.7423 C   0  0  0  0  0  0  0  0  0  0  0  0
    7.3082  -15.9657   21.5270 O   0  0  0  0  0  0  0  0  0  0  0  0
    9.5102  -16.1587   20.9100 N   0  0  0  0  0  0  0  0  0  0  0  0
    9.7707  -16.9782   22.0750 C   0  0  1  0  0  0  0  0  0  0  0  0
   11.0657  -17.7490   21.9207 C   0  0  0  0  0  0  0  0  0  0  0  0
   11.3008  -18.7220   23.0390 C   0  0  0  0  0  0  0  0  0  0  0  0
   12.5406  -19.5007   22.9194 C   0  0  0  0  0  0  0  0  0  0  0  0
   13.6431  -18.9701   22.6671 O   0  0  0  0  0  0  0  0  0  0  0  0
    9.9451  -16.0744   23.2683 C   0  0  0  0  0  0  0  0  0  0  0  0
   10.3670  -14.9049   23.1186 O   0  0  0  0  0  0  0  0  0  0  0  0
   12.5694  -20.8900   23.0799 O   0  0  0  0  0  0  0  0  0  0  0  0
    6.5331  -11.3008   27.2062 C   0  0  0  0  0  0  0  0  0  0  0  0
    6.8098  -12.4010   25.7709 S   0  0  0  0  0  0  0  0  0  0  0  0
    7.8797  -13.7604   26.3839 C   0  0  0  0  0  0  0  0  0  0  0  0
    8.2582  -14.6741   25.2534 C   0  0  0  0  0  0  0  0  0  0  0  0
    9.3792  -15.5940   25.6321 C   0  0  2  0  0  0  0  0  0  0  0  0
    9.6302  -16.5559   24.5470 N   0  0  0  0  0  0  0  0  0  0  0  0
    9.0873  -16.3308   26.8673 C   0  0  0  0  0  0  0  0  0  0  0  0
    8.8886  -15.6720   27.9430 O   0  0  0  0  0  0  0  0  0  0  0  0
    9.0034  -17.6968   26.9753 O   0  0  0  0  0  0  0  0  0  0  0  0
  2  1  1  6
  2  3  1  0
  4  2  1  0
  4  5  1  1
  6  4  1  0
  6  7  2  0
  8  6  1  0
  9  8  1  0
  9 14  1  0
  9 10  1  6
 11 10  1  0
 12 11  1  0
 13 12  2  0
 14 15  2  0
 14 22  1  0
 16 12  1  0
 18 17  1  0
 19 18  1  0
 20 19  1  0
 21 20  1  6
 22 21  1  0
 23 25  1  0
 23 21  1  0
 24 23  2  0
M  END
$$$$
