TEM.pdb
     RDKit          3D

 25 24  0  0  1  0  0  0  0  0999 V2000
    7.9690  -12.0109   19.4951 C   0  0  0  0  0  0  0  0  0  0  0  0
    8.3243  -13.1100   20.4497 C   0  0  1  0  0  0  0  0  0  0  0  0
    7.5439  -13.0370   21.6033 O   0  0  0  0  0  0  0  0  0  0  0  0
    8.0141  -14.4441   19.7629 C   0  0  2  0  0  0  0  0  0  0  0  0
    6.6158  -14.4802   19.3926 N   0  0  0  0  0  0  0  0  0  0  0  0
    8.3136  -15.5647   20.6842 C   0  0  0  0  0  0  0  0  0  0  0  0
    7.3863  -16.1191   21.3275 O   0  0  0  0  0  0  0  0  0  0  0  0
    9.6346  -16.0472   20.8730 N   0  0  0  0  0  0  0  0  0  0  0  0
    9.8819  -17.0203   21.9164 C   0  0  1  0  0  0  0  0  0  0  0  0
   11.2633  -17.6267   21.7797 C   0  0  0  0  0  0  0  0  0  0  0  0
   11.5646  -18.6355   22.8494 C   0  0  0  0  0  0  0  0  0  0  0  0
   12.9186  -19.2020   22.7896 C   0  0  0  0  0  0  0  0  0  0  0  0
   13.3524  -19.7952   21.7794 O   0  0  0  0  0  0  0  0  0  0  0  0
    9.8489  -16.3151   23.2479 C   0  0  0  0  0  0  0  0  0  0  0  0
   10.6391  -15.3727   23.4832 O   0  0  0  0  0  0  0  0  0  0  0  0
   13.8136  -19.1149   23.8611 O   0  0  0  0  0  0  0  0  0  0  0  0
    7.3530  -11.0262   26.2933 C   0  0  0  0  0  0  0  0  0  0  0  0
    6.7383  -12.7491   26.2583 S   0  0  0  0  0  0  0  0  0  0  0  0
    8.1804  -13.7834   25.7904 C   0  0  0  0  0  0  0  0  0  0  0  0
    7.7967  -15.2356   25.7791 C   0  0  0  0  0  0  0  0  0  0  0  0
    8.9842  -16.1238   25.5618 C   0  0  2  0  0  0  0  0  0  0  0  0
    8.9250  -16.7248   24.2198 N   0  0  0  0  0  0  0  0  0  0  0  0
    9.0560  -17.1942   26.5632 C   0  0  0  0  0  0  0  0  0  0  0  0
    9.1652  -16.8763   27.7952 O   0  0  0  0  0  0  0  0  0  0  0  0
    9.0130  -18.5392   26.2914 O   0  0  0  0  0  0  0  0  0  0  0  0
  2  1  1  6
  2  3  1  0
  4  2  1  0
  4  5  1  1
  6  4  1  0
  6  7  2  0
  8  6  1  0
  9  8  1  0
  9 14  1  0
  9 10  1  6
 11 10  1  0
 12 11  1  0
 13 12  2  0
 14 15  2  0
 14 22  1  0
 16 12  1  0
 18 17  1  0
 19 18  1  0
 20 19  1  0
 21 20  1  1
 22 21  1  0
 23 25  1  0
 23 21  1  0
 24 23  2  0
M  END
$$$$
