TEM.pdb
     RDKit          3D

 25 24  0  0  1  0  0  0  0  0999 V2000
    8.0846  -14.1190   23.5911 C   0  0  0  0  0  0  0  0  0  0  0  0
    7.0627  -15.0698   24.1363 C   0  0  1  0  0  0  0  0  0  0  0  0
    5.7827  -14.5216   24.0574 O   0  0  0  0  0  0  0  0  0  0  0  0
    7.0831  -16.3290   23.2635 C   0  0  2  0  0  0  0  0  0  0  0  0
    5.9640  -17.1759   23.6157 N   0  0  0  0  0  0  0  0  0  0  0  0
    8.3504  -17.0661   23.4750 C   0  0  0  0  0  0  0  0  0  0  0  0
    8.4396  -17.9188   24.3948 O   0  0  0  0  0  0  0  0  0  0  0  0
    9.4921  -16.8425   22.6626 N   0  0  0  0  0  0  0  0  0  0  0  0
   10.7311  -17.5133   22.9966 C   0  0  1  0  0  0  0  0  0  0  0  0
   11.7550  -17.3484   21.8925 C   0  0  0  0  0  0  0  0  0  0  0  0
   13.0559  -18.0318   22.1982 C   0  0  0  0  0  0  0  0  0  0  0  0
   14.0856  -17.8743   21.1625 C   0  0  0  0  0  0  0  0  0  0  0  0
   14.5892  -16.7661   20.8818 O   0  0  0  0  0  0  0  0  0  0  0  0
   11.3123  -16.8636   24.2260 C   0  0  0  0  0  0  0  0  0  0  0  0
   12.3000  -16.1000   24.1298 O   0  0  0  0  0  0  0  0  0  0  0  0
   14.5715  -18.9561   20.4205 O   0  0  0  0  0  0  0  0  0  0  0  0
    8.8215  -12.9267   27.5979 C   0  0  0  0  0  0  0  0  0  0  0  0
    9.6256  -13.6012   29.0966 S   0  0  0  0  0  0  0  0  0  0  0  0
   10.8193  -14.8602   28.4979 C   0  0  0  0  0  0  0  0  0  0  0  0
   10.3549  -15.4365   27.1908 C   0  0  0  0  0  0  0  0  0  0  0  0
   11.3015  -16.4770   26.6732 C   0  0  2  0  0  0  0  0  0  0  0  0
   10.7361  -17.1226   25.4778 N   0  0  0  0  0  0  0  0  0  0  0  0
   11.5887  -17.5038   27.6816 C   0  0  0  0  0  0  0  0  0  0  0  0
   11.1472  -18.6876   27.4958 O   0  0  0  0  0  0  0  0  0  0  0  0
   12.3082  -17.3050   28.8338 O   0  0  0  0  0  0  0  0  0  0  0  0
  2  1  1  6
  2  3  1  0
  4  2  1  0
  4  5  1  1
  6  4  1  0
  6  7  2  0
  8  6  1  0
  9  8  1  0
  9 14  1  0
  9 10  1  6
 11 10  1  0
 12 11  1  0
 13 12  2  0
 14 15  2  0
 14 22  1  0
 16 12  1  0
 18 17  1  0
 19 18  1  0
 20 19  1  0
 21 20  1  1
 22 21  1  0
 23 25  1  0
 23 21  1  0
 24 23  2  0
M  END
$$$$
