TEM.pdb
     RDKit          3D

 25 24  0  0  1  0  0  0  0  0999 V2000
    9.0531  -12.5664   20.3360 C   0  0  0  0  0  0  0  0  0  0  0  0
    8.1820  -12.9676   19.1847 C   0  0  1  0  0  0  0  0  0  0  0  0
    8.3389  -12.0883   18.1135 O   0  0  0  0  0  0  0  0  0  0  0  0
    8.6347  -14.3547   18.7170 C   0  0  2  0  0  0  0  0  0  0  0  0
    7.8696  -14.7421   17.5516 N   0  0  0  0  0  0  0  0  0  0  0  0
    8.4255  -15.3429   19.8004 C   0  0  0  0  0  0  0  0  0  0  0  0
    7.3057  -15.8971   19.9427 O   0  0  0  0  0  0  0  0  0  0  0  0
    9.4617  -15.6961   20.7031 N   0  0  0  0  0  0  0  0  0  0  0  0
    9.1726  -16.6333   21.7684 C   0  0  1  0  0  0  0  0  0  0  0  0
   10.1786  -17.7658   21.7858 C   0  0  0  0  0  0  0  0  0  0  0  0
   11.5989  -17.2837   21.7306 C   0  0  0  0  0  0  0  0  0  0  0  0
   12.6072  -18.3514   21.7674 C   0  0  0  0  0  0  0  0  0  0  0  0
   13.0735  -18.8682   20.7301 O   0  0  0  0  0  0  0  0  0  0  0  0
    9.3055  -15.9165   23.0874 C   0  0  0  0  0  0  0  0  0  0  0  0
   10.2134  -15.0713   23.2582 O   0  0  0  0  0  0  0  0  0  0  0  0
   13.1129  -18.8612   22.9678 O   0  0  0  0  0  0  0  0  0  0  0  0
    7.1540  -10.3838   25.9553 C   0  0  0  0  0  0  0  0  0  0  0  0
    6.6977  -12.0869   26.4437 S   0  0  0  0  0  0  0  0  0  0  0  0
    7.6204  -13.1950   25.3083 C   0  0  0  0  0  0  0  0  0  0  0  0
    7.3408  -14.6322   25.6437 C   0  0  0  0  0  0  0  0  0  0  0  0
    8.5378  -15.5025   25.4063 C   0  0  2  0  0  0  0  0  0  0  0  0
    8.4027  -16.2055   24.1206 N   0  0  0  0  0  0  0  0  0  0  0  0
    8.7149  -16.4911   26.4765 C   0  0  0  0  0  0  0  0  0  0  0  0
    8.9823  -16.0791   27.6552 O   0  0  0  0  0  0  0  0  0  0  0  0
    8.6146  -17.8518   26.3240 O   0  0  0  0  0  0  0  0  0  0  0  0
  2  1  1  1
  2  3  1  0
  4  2  1  0
  4  5  1  6
  6  4  1  0
  6  7  2  0
  8  6  1  0
  9  8  1  0
  9 14  1  0
  9 10  1  1
 11 10  1  0
 12 11  1  0
 13 12  2  0
 14 15  2  0
 14 22  1  0
 16 12  1  0
 18 17  1  0
 19 18  1  0
 20 19  1  0
 21 20  1  1
 22 21  1  0
 23 25  1  0
 23 21  1  0
 24 23  2  0
M  END
$$$$
