TEM.pdb
     RDKit          3D

 25 24  0  0  1  0  0  0  0  0999 V2000
    9.6149  -12.5438   20.0779 C   0  0  0  0  0  0  0  0  0  0  0  0
    8.2572  -12.8107   19.5027 C   0  0  1  0  0  0  0  0  0  0  0  0
    8.0890  -12.1363   18.2935 O   0  0  0  0  0  0  0  0  0  0  0  0
    8.1585  -14.3123   19.2145 C   0  0  2  0  0  0  0  0  0  0  0  0
    6.8207  -14.6278   18.7623 N   0  0  0  0  0  0  0  0  0  0  0  0
    8.4619  -15.0806   20.4441 C   0  0  0  0  0  0  0  0  0  0  0  0
    7.5834  -15.2248   21.3321 O   0  0  0  0  0  0  0  0  0  0  0  0
    9.7325  -15.6729   20.6634 N   0  0  0  0  0  0  0  0  0  0  0  0
    9.9061  -16.5582   21.7960 C   0  0  1  0  0  0  0  0  0  0  0  0
   11.2537  -17.2483   21.7469 C   0  0  0  0  0  0  0  0  0  0  0  0
   11.4593  -18.2053   22.8846 C   0  0  0  0  0  0  0  0  0  0  0  0
   12.7268  -18.9463   22.8367 C   0  0  0  0  0  0  0  0  0  0  0  0
   13.4152  -19.0294   21.7976 O   0  0  0  0  0  0  0  0  0  0  0  0
    9.8883  -15.7332   23.0571 C   0  0  0  0  0  0  0  0  0  0  0  0
   10.5804  -14.6930   23.1412 O   0  0  0  0  0  0  0  0  0  0  0  0
   13.2480  -19.6093   23.9528 O   0  0  0  0  0  0  0  0  0  0  0  0
    5.3975  -12.0427   25.9348 C   0  0  0  0  0  0  0  0  0  0  0  0
    7.1835  -12.0306   26.3316 S   0  0  0  0  0  0  0  0  0  0  0  0
    7.6267  -13.7756   26.6878 C   0  0  0  0  0  0  0  0  0  0  0  0
    7.7602  -14.5497   25.4074 C   0  0  0  0  0  0  0  0  0  0  0  0
    9.0487  -15.3131   25.3499 C   0  0  2  0  0  0  0  0  0  0  0  0
    9.0895  -16.1419   24.1345 N   0  0  0  0  0  0  0  0  0  0  0  0
    9.2251  -16.1758   26.5240 C   0  0  0  0  0  0  0  0  0  0  0  0
    9.1889  -17.4425   26.3665 O   0  0  0  0  0  0  0  0  0  0  0  0
    9.4332  -15.7357   27.8077 O   0  0  0  0  0  0  0  0  0  0  0  0
  2  1  1  6
  2  3  1  0
  4  2  1  0
  4  5  1  1
  6  4  1  0
  6  7  2  0
  8  6  1  0
  9  8  1  0
  9 14  1  0
  9 10  1  6
 11 10  1  0
 12 11  1  0
 13 12  2  0
 14 15  2  0
 14 22  1  0
 16 12  1  0
 18 17  1  0
 19 18  1  0
 20 19  1  0
 21 20  1  1
 22 21  1  0
 23 25  1  0
 23 21  1  0
 24 23  2  0
M  END
$$$$
