TEM.pdb
     RDKit          3D

 25 24  0  0  1  0  0  0  0  0999 V2000
    7.0328  -12.6551   19.2014 C   0  0  0  0  0  0  0  0  0  0  0  0
    7.9732  -13.6367   18.5710 C   0  0  1  0  0  0  0  0  0  0  0  0
    8.4881  -13.1339   17.3764 O   0  0  0  0  0  0  0  0  0  0  0  0
    9.1480  -13.8426   19.5329 C   0  0  2  0  0  0  0  0  0  0  0  0
   10.2141  -14.5400   18.8468 N   0  0  0  0  0  0  0  0  0  0  0  0
    8.7062  -14.6369   20.7025 C   0  0  0  0  0  0  0  0  0  0  0  0
    7.7678  -14.2225   21.4297 O   0  0  0  0  0  0  0  0  0  0  0  0
    9.3136  -15.8736   21.0413 N   0  0  0  0  0  0  0  0  0  0  0  0
    8.7751  -16.6384   22.1467 C   0  0  1  0  0  0  0  0  0  0  0  0
    9.2612  -18.0725   22.1053 C   0  0  0  0  0  0  0  0  0  0  0  0
   10.7500  -18.1781   21.9478 C   0  0  0  0  0  0  0  0  0  0  0  0
   11.2629  -19.5541   21.9072 C   0  0  0  0  0  0  0  0  0  0  0  0
   10.8072  -20.4159   21.1260 O   0  0  0  0  0  0  0  0  0  0  0  0
    9.2862  -16.0455   23.4346 C   0  0  0  0  0  0  0  0  0  0  0  0
   10.4222  -15.5209   23.4814 O   0  0  0  0  0  0  0  0  0  0  0  0
   12.2968  -19.9916   22.7417 O   0  0  0  0  0  0  0  0  0  0  0  0
    6.4187  -10.7207   26.1026 C   0  0  0  0  0  0  0  0  0  0  0  0
    6.3694  -12.4280   26.7583 S   0  0  0  0  0  0  0  0  0  0  0  0
    7.7826  -13.3021   25.9791 C   0  0  0  0  0  0  0  0  0  0  0  0
    7.8687  -14.7113   26.4920 C   0  0  0  0  0  0  0  0  0  0  0  0
    8.9695  -15.4801   25.8259 C   0  0  2  0  0  0  0  0  0  0  0  0
    8.4772  -16.0872   24.5791 N   0  0  0  0  0  0  0  0  0  0  0  0
    9.5016  -16.5360   26.6953 C   0  0  0  0  0  0  0  0  0  0  0  0
    9.1734  -17.7477   26.4612 O   0  0  0  0  0  0  0  0  0  0  0  0
   10.3425  -16.3367   27.7620 O   0  0  0  0  0  0  0  0  0  0  0  0
  2  1  1  1
  2  3  1  0
  4  2  1  0
  4  5  1  6
  6  4  1  0
  6  7  2  0
  8  6  1  0
  9  8  1  0
  9 14  1  0
  9 10  1  6
 11 10  1  0
 12 11  1  0
 13 12  2  0
 14 15  2  0
 14 22  1  0
 16 12  1  0
 18 17  1  0
 19 18  1  0
 20 19  1  0
 21 20  1  1
 22 21  1  0
 23 25  1  0
 23 21  1  0
 24 23  2  0
M  END
$$$$
