TEM.pdb
     RDKit          3D

 25 24  0  0  1  0  0  0  0  0999 V2000
    7.5969  -12.4733   19.3338 C   0  0  0  0  0  0  0  0  0  0  0  0
    8.0643  -13.3698   20.4398 C   0  0  1  0  0  0  0  0  0  0  0  0
    7.3132  -13.1637   21.5968 O   0  0  0  0  0  0  0  0  0  0  0  0
    7.8412  -14.8184   19.9933 C   0  0  2  0  0  0  0  0  0  0  0  0
    6.4426  -15.0140   19.6781 N   0  0  0  0  0  0  0  0  0  0  0  0
    8.2410  -15.7454   21.0773 C   0  0  0  0  0  0  0  0  0  0  0  0
    7.3731  -16.2258   21.8501 O   0  0  0  0  0  0  0  0  0  0  0  0
    9.5941  -16.1202   21.2819 N   0  0  0  0  0  0  0  0  0  0  0  0
    9.9299  -16.9276   22.4361 C   0  0  1  0  0  0  0  0  0  0  0  0
   11.2773  -17.5970   22.2596 C   0  0  0  0  0  0  0  0  0  0  0  0
   11.2640  -18.6623   21.2024 C   0  0  0  0  0  0  0  0  0  0  0  0
   12.5527  -18.8684   20.5281 C   0  0  0  0  0  0  0  0  0  0  0  0
   13.4491  -19.5962   21.0048 O   0  0  0  0  0  0  0  0  0  0  0  0
   10.0500  -16.0234   23.6357 C   0  0  0  0  0  0  0  0  0  0  0  0
   10.3469  -14.8157   23.4893 O   0  0  0  0  0  0  0  0  0  0  0  0
   12.8624  -18.2627   19.3058 O   0  0  0  0  0  0  0  0  0  0  0  0
    7.5731  -11.0960   26.0229 C   0  0  0  0  0  0  0  0  0  0  0  0
    6.7089  -12.6754   26.3486 S   0  0  0  0  0  0  0  0  0  0  0  0
    8.0139  -13.8622   26.8554 C   0  0  0  0  0  0  0  0  0  0  0  0
    8.4032  -14.7333   25.6953 C   0  0  0  0  0  0  0  0  0  0  0  0
    9.5604  -15.6245   26.0315 C   0  0  2  0  0  0  0  0  0  0  0  0
    9.8259  -16.5477   24.9168 N   0  0  0  0  0  0  0  0  0  0  0  0
    9.3134  -16.4037   27.2504 C   0  0  0  0  0  0  0  0  0  0  0  0
    8.8580  -17.5914   27.1383 O   0  0  0  0  0  0  0  0  0  0  0  0
    9.5346  -15.9636   28.5318 O   0  0  0  0  0  0  0  0  0  0  0  0
  2  1  1  6
  2  3  1  0
  4  2  1  0
  4  5  1  1
  6  4  1  0
  6  7  2  0
  8  6  1  0
  9  8  1  0
  9 14  1  0
  9 10  1  6
 11 10  1  0
 12 11  1  0
 13 12  2  0
 14 15  2  0
 14 22  1  0
 16 12  1  0
 18 17  1  0
 19 18  1  0
 20 19  1  0
 21 20  1  6
 22 21  1  0
 23 25  1  0
 23 21  1  0
 24 23  2  0
M  END
$$$$
