MIF.pdb
     RDKit          3D

 28 28  0  0  1  0  0  0  0  0999 V2000
   26.3595  -17.2276  -18.6410 C   0  0  0  0  0  0  0  0  0  0  0  0
   27.9175  -16.9501  -17.7558 S   0  0  0  0  0  0  0  0  0  0  0  0
   28.2423  -18.3976  -16.7443 C   0  0  0  0  0  0  0  0  0  0  0  0
   26.9666  -19.0223  -16.1946 C   0  0  0  0  0  0  0  0  0  0  0  0
   27.3826  -20.2657  -15.4522 C   0  0  2  0  0  0  0  0  0  0  0  0
   27.9721  -21.2495  -16.3336 N   0  0  0  0  0  0  0  0  0  0  0  0
   26.2840  -20.8940  -14.7028 C   0  0  0  0  0  0  0  0  0  0  0  0
   25.5711  -21.7285  -15.2931 O   0  0  0  0  0  0  0  0  0  0  0  0
   25.1130  -20.1765   -9.0347 C   0  0  0  0  0  0  0  0  0  0  0  0
   25.1996  -19.9826  -10.5530 C   0  0  0  0  0  0  0  0  0  0  0  0
   25.1648  -21.3108  -11.2537 C   0  0  2  0  0  0  0  0  0  0  0  0
   26.3963  -22.1323  -11.0452 C   0  0  0  0  0  0  0  0  0  0  0  0
   24.8493  -21.2187  -12.7187 C   0  0  2  0  0  0  0  0  0  0  0  0
   25.9985  -20.5969  -13.3463 N   0  0  0  0  0  0  0  0  0  0  0  0
   23.6063  -20.4507  -12.9988 C   0  0  0  0  0  0  0  0  0  0  0  0
   23.5277  -19.2090  -12.8358 O   0  0  0  0  0  0  0  0  0  0  0  0
   22.4652  -21.1428  -13.4674 N   0  0  0  0  0  0  0  0  0  0  0  0
   21.2277  -20.4621  -13.8353 C   0  0  1  0  0  0  0  0  0  0  0  0
   21.4049  -20.0167  -15.2654 C   0  0  0  0  0  0  0  0  0  0  0  0
   20.2290  -19.3520  -15.8413 C   0  0  0  0  0  0  0  0  0  0  0  0
   19.8584  -18.0519  -15.5349 C   0  0  0  0  0  0  0  0  0  0  0  0
   18.7593  -17.4281  -16.0825 C   0  0  0  0  0  0  0  0  0  0  0  0
   17.9774  -18.0977  -16.9733 C   0  0  0  0  0  0  0  0  0  0  0  0
   18.3205  -19.3934  -17.2980 C   0  0  0  0  0  0  0  0  0  0  0  0
   19.4164  -20.0258  -16.7568 C   0  0  0  0  0  0  0  0  0  0  0  0
   20.0729  -21.3589  -13.7469 C   0  0  0  0  0  0  0  0  0  0  0  0
   18.8702  -20.8991  -13.2308 O   0  0  0  0  0  0  0  0  0  0  0  0
   20.1098  -22.5553  -14.1223 O   0  0  0  0  0  0  0  0  0  0  0  0
  1  2  1  0
  3  2  1  0
  4  3  1  0
  5  6  1  6
  5  4  1  0
  7  8  2  0
  7  5  1  0
 10 11  1  0
 10  9  1  0
 11 12  1  6
 13 14  1  6
 13 11  1  0
 14  7  1  0
 15 13  1  0
 16 15  2  0
 17 15  1  0
 18 17  1  0
 18 19  1  6
 20 19  1  0
 21 20  2  0
 22 21  1  0
 23 22  2  0
 23 24  1  0
 24 25  2  0
 25 20  1  0
 26 27  1  0
 26 18  1  0
 28 26  2  0
M  END
$$$$
