MIF.pdb
     RDKit          3D

 28 28  0  0  1  0  0  0  0  0999 V2000
   17.8911  -19.5649  -11.8488 C   0  0  0  0  0  0  0  0  0  0  0  0
   18.4110  -18.0439  -12.6881 S   0  0  0  0  0  0  0  0  0  0  0  0
   20.1838  -18.1403  -12.9560 C   0  0  0  0  0  0  0  0  0  0  0  0
   20.8680  -19.0970  -11.9882 C   0  0  0  0  0  0  0  0  0  0  0  0
   21.5428  -20.1492  -12.8294 C   0  0  2  0  0  0  0  0  0  0  0  0
   20.6603  -21.2583  -13.1179 N   0  0  0  0  0  0  0  0  0  0  0  0
   22.7823  -20.6688  -12.2319 C   0  0  0  0  0  0  0  0  0  0  0  0
   22.6865  -21.4851  -11.2951 O   0  0  0  0  0  0  0  0  0  0  0  0
   25.7149  -21.4094  -15.6494 C   0  0  0  0  0  0  0  0  0  0  0  0
   25.7409  -22.0966  -14.2793 C   0  0  0  0  0  0  0  0  0  0  0  0
   26.2094  -21.1387  -13.2214 C   0  0  2  0  0  0  0  0  0  0  0  0
   27.5628  -21.4624  -12.6749 C   0  0  0  0  0  0  0  0  0  0  0  0
   25.2328  -20.9468  -12.0973 C   0  0  2  0  0  0  0  0  0  0  0  0
   24.0757  -20.2869  -12.6690 N   0  0  0  0  0  0  0  0  0  0  0  0
   25.7941  -20.1584  -10.9674 C   0  0  0  0  0  0  0  0  0  0  0  0
   25.8471  -18.9047  -10.9784 O   0  0  0  0  0  0  0  0  0  0  0  0
   26.2890  -20.8442   -9.8337 N   0  0  0  0  0  0  0  0  0  0  0  0
   27.2026  -20.2272   -8.8772 C   0  0  1  0  0  0  0  0  0  0  0  0
   26.5539  -20.3761   -7.5238 C   0  0  0  0  0  0  0  0  0  0  0  0
   27.3698  -19.8861   -6.4055 C   0  0  0  0  0  0  0  0  0  0  0  0
   27.9312  -20.7154   -5.4471 C   0  0  0  0  0  0  0  0  0  0  0  0
   28.7026  -20.2539   -4.4035 C   0  0  0  0  0  0  0  0  0  0  0  0
   28.9433  -18.9196   -4.2808 C   0  0  0  0  0  0  0  0  0  0  0  0
   28.3977  -18.0690   -5.2192 C   0  0  0  0  0  0  0  0  0  0  0  0
   27.6258  -18.5196   -6.2656 C   0  0  0  0  0  0  0  0  0  0  0  0
   28.5048  -20.8979   -8.8666 C   0  0  0  0  0  0  0  0  0  0  0  0
   29.6428  -20.2064   -8.4776 O   0  0  0  0  0  0  0  0  0  0  0  0
   28.6552  -22.0981   -9.1991 O   0  0  0  0  0  0  0  0  0  0  0  0
  1  2  1  0
  3  2  1  0
  4  3  1  0
  5  6  1  1
  5  4  1  0
  7  8  2  0
  7  5  1  0
 10 11  1  0
 10  9  1  0
 11 12  1  1
 13 14  1  6
 13 11  1  0
 14  7  1  0
 15 13  1  0
 16 15  2  0
 17 15  1  0
 18 17  1  0
 18 19  1  1
 20 19  1  0
 21 20  2  0
 22 21  1  0
 23 22  2  0
 23 24  1  0
 24 25  2  0
 25 20  1  0
 26 27  1  0
 26 18  1  0
 28 26  2  0
M  END
$$$$
