MIF.pdb
     RDKit          3D

 28 28  0  0  1  0  0  0  0  0999 V2000
   26.8104  -24.2247  -14.5006 C   0  0  0  0  0  0  0  0  0  0  0  0
   28.1179  -24.0548  -15.7454 S   0  0  0  0  0  0  0  0  0  0  0  0
   28.3876  -22.3020  -16.0262 C   0  0  0  0  0  0  0  0  0  0  0  0
   28.1765  -21.4712  -14.7672 C   0  0  0  0  0  0  0  0  0  0  0  0
   26.8209  -20.8271  -14.8998 C   0  0  2  0  0  0  0  0  0  0  0  0
   26.8269  -19.7490  -15.8641 N   0  0  0  0  0  0  0  0  0  0  0  0
   26.2855  -20.3243  -13.6255 C   0  0  0  0  0  0  0  0  0  0  0  0
   26.5792  -19.1630  -13.2814 O   0  0  0  0  0  0  0  0  0  0  0  0
   22.1414  -20.8307  -13.5833 C   0  0  0  0  0  0  0  0  0  0  0  0
   22.6746  -19.9615  -12.4387 C   0  0  0  0  0  0  0  0  0  0  0  0
   23.4941  -20.7891  -11.4902 C   0  0  2  0  0  0  0  0  0  0  0  0
   23.0132  -20.7344  -10.0757 C   0  0  0  0  0  0  0  0  0  0  0  0
   24.9664  -20.4999  -11.5448 C   0  0  2  0  0  0  0  0  0  0  0  0
   25.4548  -21.0945  -12.7732 N   0  0  0  0  0  0  0  0  0  0  0  0
   25.7064  -21.0247  -10.3656 C   0  0  0  0  0  0  0  0  0  0  0  0
   25.9506  -22.2456  -10.2094 O   0  0  0  0  0  0  0  0  0  0  0  0
   26.1543  -20.1159   -9.3788 N   0  0  0  0  0  0  0  0  0  0  0  0
   26.7775  -20.5509   -8.1327 C   0  0  1  0  0  0  0  0  0  0  0  0
   27.6604  -19.4122   -7.6872 C   0  0  0  0  0  0  0  0  0  0  0  0
   28.2751  -19.6049   -6.3675 C   0  0  0  0  0  0  0  0  0  0  0  0
   29.3490  -20.4514   -6.1401 C   0  0  0  0  0  0  0  0  0  0  0  0
   29.9287  -20.6244   -4.9027 C   0  0  0  0  0  0  0  0  0  0  0  0
   29.4434  -19.9427   -3.8288 C   0  0  0  0  0  0  0  0  0  0  0  0
   28.3749  -19.0930   -4.0237 C   0  0  0  0  0  0  0  0  0  0  0  0
   27.7885  -18.9127   -5.2556 C   0  0  0  0  0  0  0  0  0  0  0  0
   25.7780  -20.8227   -7.0970 C   0  0  0  0  0  0  0  0  0  0  0  0
   26.0323  -21.7661   -6.1122 O   0  0  0  0  0  0  0  0  0  0  0  0
   24.6714  -20.2338   -7.0474 O   0  0  0  0  0  0  0  0  0  0  0  0
  1  2  1  0
  3  2  1  0
  4  3  1  0
  5  6  1  6
  5  4  1  0
  7  8  2  0
  7  5  1  0
 10 11  1  0
 10  9  1  0
 11 12  1  1
 13 14  1  6
 13 11  1  0
 14  7  1  0
 15 13  1  0
 16 15  2  0
 17 15  1  0
 18 17  1  0
 18 19  1  1
 20 19  1  0
 21 20  2  0
 22 21  1  0
 23 22  2  0
 23 24  1  0
 24 25  2  0
 25 20  1  0
 26 27  1  0
 26 18  1  0
 28 26  2  0
M  END
$$$$
