MIF.pdb
     RDKit          3D

 28 28  0  0  1  0  0  0  0  0999 V2000
   31.6727  -15.5454  -19.5673 C   0  0  0  0  0  0  0  0  0  0  0  0
   32.2557  -16.7653  -18.3591 S   0  0  0  0  0  0  0  0  0  0  0  0
   30.8566  -17.7875  -17.8885 C   0  0  0  0  0  0  0  0  0  0  0  0
   29.8767  -17.0526  -16.9831 C   0  0  0  0  0  0  0  0  0  0  0  0
   28.5156  -17.2029  -17.6116 C   0  0  2  0  0  0  0  0  0  0  0  0
   28.1230  -16.0167  -18.3405 N   0  0  0  0  0  0  0  0  0  0  0  0
   27.4595  -17.5402  -16.6450 C   0  0  0  0  0  0  0  0  0  0  0  0
   27.3376  -16.8232  -15.6330 O   0  0  0  0  0  0  0  0  0  0  0  0
   24.1078  -17.1579  -18.6005 C   0  0  0  0  0  0  0  0  0  0  0  0
   23.9233  -17.2843  -17.0839 C   0  0  0  0  0  0  0  0  0  0  0  0
   24.2211  -18.6865  -16.6350 C   0  0  2  0  0  0  0  0  0  0  0  0
   23.0972  -19.3293  -15.8875 C   0  0  0  0  0  0  0  0  0  0  0  0
   25.4987  -18.8190  -15.8575 C   0  0  2  0  0  0  0  0  0  0  0  0
   26.5772  -18.6376  -16.8090 N   0  0  0  0  0  0  0  0  0  0  0  0
   25.6193  -20.1249  -15.1551 C   0  0  0  0  0  0  0  0  0  0  0  0
   25.8859  -21.1937  -15.7562 O   0  0  0  0  0  0  0  0  0  0  0  0
   25.4267  -20.1690  -13.7546 N   0  0  0  0  0  0  0  0  0  0  0  0
   25.2809  -21.4212  -13.0191 C   0  0  1  0  0  0  0  0  0  0  0  0
   26.4352  -21.4735  -12.0498 C   0  0  0  0  0  0  0  0  0  0  0  0
   26.2188  -20.7150  -10.8111 C   0  0  0  0  0  0  0  0  0  0  0  0
   26.3284  -19.3355  -10.7297 C   0  0  0  0  0  0  0  0  0  0  0  0
   26.1173  -18.6258   -9.5684 C   0  0  0  0  0  0  0  0  0  0  0  0
   25.7828  -19.2856   -8.4255 C   0  0  0  0  0  0  0  0  0  0  0  0
   25.6666  -20.6589   -8.4750 C   0  0  0  0  0  0  0  0  0  0  0  0
   25.8752  -21.3776   -9.6299 C   0  0  0  0  0  0  0  0  0  0  0  0
   24.0205  -21.4646  -12.2741 C   0  0  0  0  0  0  0  0  0  0  0  0
   23.4861  -22.6816  -11.8770 O   0  0  0  0  0  0  0  0  0  0  0  0
   23.3765  -20.4333  -11.9650 O   0  0  0  0  0  0  0  0  0  0  0  0
  1  2  1  0
  3  2  1  0
  4  3  1  0
  5  6  1  1
  5  4  1  0
  7  8  2  0
  7  5  1  0
 10 11  1  0
 10  9  1  0
 11 12  1  1
 13 14  1  6
 13 11  1  0
 14  7  1  0
 15 13  1  0
 16 15  2  0
 17 15  1  0
 18 17  1  0
 18 19  1  1
 20 19  1  0
 21 20  2  0
 22 21  1  0
 23 22  2  0
 23 24  1  0
 24 25  2  0
 25 20  1  0
 26 27  1  0
 26 18  1  0
 28 26  2  0
M  END
$$$$
