MIF.pdb
     RDKit          3D

 28 28  0  0  1  0  0  0  0  0999 V2000
   19.0663  -21.9299  -10.8613 C   0  0  0  0  0  0  0  0  0  0  0  0
   18.6575  -21.4552  -12.5629 S   0  0  0  0  0  0  0  0  0  0  0  0
   20.1943  -21.1008  -13.4209 C   0  0  0  0  0  0  0  0  0  0  0  0
   21.4119  -21.6407  -12.6820 C   0  0  0  0  0  0  0  0  0  0  0  0
   22.6160  -21.2649  -13.5061 C   0  0  2  0  0  0  0  0  0  0  0  0
   22.6263  -21.9385  -14.7862 N   0  0  0  0  0  0  0  0  0  0  0  0
   23.8938  -21.5185  -12.8234 C   0  0  0  0  0  0  0  0  0  0  0  0
   24.1650  -22.6909  -12.4992 O   0  0  0  0  0  0  0  0  0  0  0  0
   28.6263  -20.4413  -14.4758 C   0  0  0  0  0  0  0  0  0  0  0  0
   27.3152  -20.9028  -13.8290 C   0  0  0  0  0  0  0  0  0  0  0  0
   27.1842  -20.3322  -12.4457 C   0  0  2  0  0  0  0  0  0  0  0  0
   28.4108  -20.5006  -11.6077 C   0  0  0  0  0  0  0  0  0  0  0  0
   25.9781  -20.8208  -11.6967 C   0  0  2  0  0  0  0  0  0  0  0  0
   24.8280  -20.4970  -12.5176 N   0  0  0  0  0  0  0  0  0  0  0  0
   25.8531  -20.2212  -10.3409 C   0  0  0  0  0  0  0  0  0  0  0  0
   25.3604  -19.0834  -10.1477 O   0  0  0  0  0  0  0  0  0  0  0  0
   26.3061  -20.9586   -9.2221 N   0  0  0  0  0  0  0  0  0  0  0  0
   26.4475  -20.3680   -7.8949 C   0  0  1  0  0  0  0  0  0  0  0  0
   27.2502  -21.3531   -7.0825 C   0  0  0  0  0  0  0  0  0  0  0  0
   27.6939  -20.8419   -5.7794 C   0  0  0  0  0  0  0  0  0  0  0  0
   26.9713  -21.0039   -4.6076 C   0  0  0  0  0  0  0  0  0  0  0  0
   27.3935  -20.5301   -3.3852 C   0  0  0  0  0  0  0  0  0  0  0  0
   28.5773  -19.8642   -3.2918 C   0  0  0  0  0  0  0  0  0  0  0  0
   29.3188  -19.6869   -4.4409 C   0  0  0  0  0  0  0  0  0  0  0  0
   28.9063  -20.1563   -5.6670 C   0  0  0  0  0  0  0  0  0  0  0  0
   27.1600  -19.0893   -7.9476 C   0  0  0  0  0  0  0  0  0  0  0  0
   26.7128  -18.0100   -7.1995 O   0  0  0  0  0  0  0  0  0  0  0  0
   28.1824  -18.9081   -8.6515 O   0  0  0  0  0  0  0  0  0  0  0  0
  1  2  1  0
  3  2  1  0
  4  3  1  0
  5  6  1  6
  5  4  1  0
  7  8  2  0
  7  5  1  0
 10 11  1  0
 10  9  1  0
 11 12  1  1
 13 14  1  6
 13 11  1  0
 14  7  1  0
 15 13  1  0
 16 15  2  0
 17 15  1  0
 18 17  1  0
 18 19  1  1
 20 19  1  0
 21 20  2  0
 22 21  1  0
 23 22  2  0
 23 24  1  0
 24 25  2  0
 25 20  1  0
 26 27  1  0
 26 18  1  0
 28 26  2  0
M  END
$$$$
