MIF.pdb
     RDKit          3D

 28 28  0  0  1  0  0  0  0  0999 V2000
   19.8200  -15.9970  -12.0018 C   0  0  0  0  0  0  0  0  0  0  0  0
   18.6110  -17.2084  -12.6009 S   0  0  0  0  0  0  0  0  0  0  0  0
   19.5158  -18.5673  -13.3481 C   0  0  0  0  0  0  0  0  0  0  0  0
   20.5812  -19.1375  -12.4208 C   0  0  0  0  0  0  0  0  0  0  0  0
   21.3549  -20.1489  -13.2261 C   0  0  2  0  0  0  0  0  0  0  0  0
   20.5069  -21.2147  -13.7133 N   0  0  0  0  0  0  0  0  0  0  0  0
   22.4868  -20.7369  -12.4937 C   0  0  0  0  0  0  0  0  0  0  0  0
   22.2412  -21.5839  -11.6131 O   0  0  0  0  0  0  0  0  0  0  0  0
   26.3089  -23.0541  -15.0128 C   0  0  0  0  0  0  0  0  0  0  0  0
   25.2448  -22.5502  -14.0310 C   0  0  0  0  0  0  0  0  0  0  0  0
   25.8506  -21.5868  -13.0507 C   0  0  2  0  0  0  0  0  0  0  0  0
   27.0876  -22.1023  -12.3881 C   0  0  0  0  0  0  0  0  0  0  0  0
   24.8857  -21.0813  -12.0174 C   0  0  2  0  0  0  0  0  0  0  0  0
   23.8383  -20.3875  -12.7405 N   0  0  0  0  0  0  0  0  0  0  0  0
   25.5240  -20.1883  -11.0131 C   0  0  0  0  0  0  0  0  0  0  0  0
   25.8770  -19.0140  -11.2802 O   0  0  0  0  0  0  0  0  0  0  0  0
   25.7439  -20.6772   -9.7043 N   0  0  0  0  0  0  0  0  0  0  0  0
   26.7601  -20.1209   -8.8166 C   0  0  1  0  0  0  0  0  0  0  0  0
   26.2783  -20.3856   -7.4120 C   0  0  0  0  0  0  0  0  0  0  0  0
   27.1715  -19.8804   -6.3617 C   0  0  0  0  0  0  0  0  0  0  0  0
   27.3122  -18.5349   -6.0589 C   0  0  0  0  0  0  0  0  0  0  0  0
   28.1449  -18.0642   -5.0679 C   0  0  0  0  0  0  0  0  0  0  0  0
   28.8804  -18.9416   -4.3312 C   0  0  0  0  0  0  0  0  0  0  0  0
   28.7620  -20.2871   -4.6093 C   0  0  0  0  0  0  0  0  0  0  0  0
   27.9330  -20.7679   -5.5970 C   0  0  0  0  0  0  0  0  0  0  0  0
   28.0594  -20.7680   -9.0130 C   0  0  0  0  0  0  0  0  0  0  0  0
   29.2291  -20.0288   -8.9148 O   0  0  0  0  0  0  0  0  0  0  0  0
   28.1793  -21.9895   -9.2729 O   0  0  0  0  0  0  0  0  0  0  0  0
  1  2  1  0
  3  2  1  0
  4  3  1  0
  5  6  1  1
  5  4  1  0
  7  8  2  0
  7  5  1  0
 10 11  1  0
 10  9  1  0
 11 12  1  1
 13 14  1  6
 13 11  1  0
 14  7  1  0
 15 13  1  0
 16 15  2  0
 17 15  1  0
 18 17  1  0
 18 19  1  1
 20 19  1  0
 21 20  2  0
 22 21  1  0
 23 22  2  0
 23 24  1  0
 24 25  2  0
 25 20  1  0
 26 27  1  0
 26 18  1  0
 28 26  2  0
M  END
$$$$
