MIF.pdb
     RDKit          3D

 28 28  0  0  1  0  0  0  0  0999 V2000
   26.8180  -15.0090  -14.2553 C   0  0  0  0  0  0  0  0  0  0  0  0
   27.2328  -15.7605  -15.8526 S   0  0  0  0  0  0  0  0  0  0  0  0
   27.8007  -17.4354  -15.5431 C   0  0  0  0  0  0  0  0  0  0  0  0
   26.7505  -18.2861  -14.8407 C   0  0  0  0  0  0  0  0  0  0  0  0
   27.4512  -19.5365  -14.3762 C   0  0  2  0  0  0  0  0  0  0  0  0
   28.0170  -20.2806  -15.4801 N   0  0  0  0  0  0  0  0  0  0  0  0
   26.5891  -20.4317  -13.5897 C   0  0  0  0  0  0  0  0  0  0  0  0
   26.0279  -21.3756  -14.1790 O   0  0  0  0  0  0  0  0  0  0  0  0
   26.0333  -20.1510   -7.8724 C   0  0  0  0  0  0  0  0  0  0  0  0
   25.5389  -19.9520   -9.3098 C   0  0  0  0  0  0  0  0  0  0  0  0
   25.7517  -21.2020  -10.1149 C   0  0  2  0  0  0  0  0  0  0  0  0
   27.1399  -21.7489  -10.0196 C   0  0  0  0  0  0  0  0  0  0  0  0
   25.3460  -21.0758  -11.5549 C   0  0  2  0  0  0  0  0  0  0  0  0
   26.3667  -20.2727  -12.1986 N   0  0  0  0  0  0  0  0  0  0  0  0
   23.9991  -20.4683  -11.7285 C   0  0  0  0  0  0  0  0  0  0  0  0
   23.7873  -19.2402  -11.5808 O   0  0  0  0  0  0  0  0  0  0  0  0
   22.9109  -21.3034  -12.0736 N   0  0  0  0  0  0  0  0  0  0  0  0
   21.5629  -20.7891  -12.2937 C   0  0  1  0  0  0  0  0  0  0  0  0
   21.1543  -21.2614  -13.6666 C   0  0  0  0  0  0  0  0  0  0  0  0
   21.7764  -20.5196  -14.7707 C   0  0  0  0  0  0  0  0  0  0  0  0
   22.9326  -20.9327  -15.4143 C   0  0  0  0  0  0  0  0  0  0  0  0
   23.5098  -20.2390  -16.4548 C   0  0  0  0  0  0  0  0  0  0  0  0
   22.9382  -19.0847  -16.8957 C   0  0  0  0  0  0  0  0  0  0  0  0
   21.7870  -18.6478  -16.2747 C   0  0  0  0  0  0  0  0  0  0  0  0
   21.2021  -19.3332  -15.2345 C   0  0  0  0  0  0  0  0  0  0  0  0
   20.6192  -21.3097  -11.3017 C   0  0  0  0  0  0  0  0  0  0  0  0
   19.3209  -20.8238  -11.2513 O   0  0  0  0  0  0  0  0  0  0  0  0
   20.9266  -22.1968  -10.4695 O   0  0  0  0  0  0  0  0  0  0  0  0
  1  2  1  0
  3  2  1  0
  4  3  1  0
  5  6  1  6
  5  4  1  0
  7  8  2  0
  7  5  1  0
 10 11  1  0
 10  9  1  0
 11 12  1  6
 13 14  1  6
 13 11  1  0
 14  7  1  0
 15 13  1  0
 16 15  2  0
 17 15  1  0
 18 17  1  0
 18 19  1  6
 20 19  1  0
 21 20  2  0
 22 21  1  0
 23 22  2  0
 23 24  1  0
 24 25  2  0
 25 20  1  0
 26 27  1  0
 26 18  1  0
 28 26  2  0
M  END
$$$$
