MIF.pdb
     RDKit          3D

 28 28  0  0  1  0  0  0  0  0999 V2000
   14.7276   -8.4905  -19.1950 C   0  0  0  0  0  0  0  0  0  0  0  0
   14.4535   -9.8408  -18.0162 S   0  0  0  0  0  0  0  0  0  0  0  0
   16.0413  -10.2809  -17.3028 C   0  0  0  0  0  0  0  0  0  0  0  0
   16.1338   -9.9268  -15.8243 C   0  0  0  0  0  0  0  0  0  0  0  0
   17.5809  -10.0835  -15.4348 C   0  0  2  0  0  0  0  0  0  0  0  0
   18.0141  -11.4616  -15.5089 N   0  0  0  0  0  0  0  0  0  0  0  0
   17.8856   -9.5591  -14.0949 C   0  0  0  0  0  0  0  0  0  0  0  0
   17.5279  -10.2279  -13.1061 O   0  0  0  0  0  0  0  0  0  0  0  0
   21.9253   -5.8098  -13.3159 C   0  0  0  0  0  0  0  0  0  0  0  0
   20.4566   -6.2389  -13.4097 C   0  0  0  0  0  0  0  0  0  0  0  0
   20.1753   -7.3583  -12.4484 C   0  0  2  0  0  0  0  0  0  0  0  0
   21.1462   -8.4910  -12.5449 C   0  0  0  0  0  0  0  0  0  0  0  0
   18.7686   -7.8791  -12.5143 C   0  0  2  0  0  0  0  0  0  0  0  0
   18.5641   -8.3338  -13.8754 N   0  0  0  0  0  0  0  0  0  0  0  0
   17.7531   -6.8611  -12.1324 C   0  0  0  0  0  0  0  0  0  0  0  0
   17.3246   -5.9987  -12.9370 O   0  0  0  0  0  0  0  0  0  0  0  0
   17.2475   -6.8609  -10.8114 N   0  0  0  0  0  0  0  0  0  0  0  0
   16.2605   -5.8915  -10.3465 C   0  0  1  0  0  0  0  0  0  0  0  0
   14.9199   -6.5733  -10.4587 C   0  0  0  0  0  0  0  0  0  0  0  0
   14.3271   -6.9563   -9.1709 C   0  0  0  0  0  0  0  0  0  0  0  0
   14.4792   -8.2110   -8.6016 C   0  0  0  0  0  0  0  0  0  0  0  0
   13.9285   -8.5651   -7.3898 C   0  0  0  0  0  0  0  0  0  0  0  0
   13.1918   -7.6574   -6.6923 C   0  0  0  0  0  0  0  0  0  0  0  0
   13.0224   -6.4003   -7.2332 C   0  0  0  0  0  0  0  0  0  0  0  0
   13.5682   -6.0361   -8.4430 C   0  0  0  0  0  0  0  0  0  0  0  0
   16.4951   -5.5109   -8.9516 C   0  0  0  0  0  0  0  0  0  0  0  0
   15.8617   -4.3992   -8.4156 O   0  0  0  0  0  0  0  0  0  0  0  0
   17.2590   -6.1517   -8.1903 O   0  0  0  0  0  0  0  0  0  0  0  0
  1  2  1  0
  3  2  1  0
  4  3  1  0
  5  6  1  1
  5  4  1  0
  7  8  2  0
  7  5  1  0
 10 11  1  0
 10  9  1  0
 11 12  1  6
 13 14  1  6
 13 11  1  0
 14  7  1  0
 15 13  1  0
 16 15  2  0
 17 15  1  0
 18 17  1  0
 18 19  1  1
 20 19  1  0
 21 20  2  0
 22 21  1  0
 23 22  2  0
 23 24  1  0
 24 25  2  0
 25 20  1  0
 26 27  1  0
 26 18  1  0
 28 26  2  0
M  END
$$$$
