HVD.pdb
     RDKit          3D

 26 26  0  0  1  0  0  0  0  0999 V2000
    9.1840  -16.2138   15.1001 N   0  0  0  0  0  0  0  0  0  0  0  0
    8.5840  -16.4643   16.3843 C   0  0  1  0  0  0  0  0  0  0  0  0
    8.4965  -17.9709   16.6566 C   0  0  0  0  0  0  0  0  0  0  0  0
    7.5245  -18.5494   15.7164 C   0  0  0  0  0  0  0  0  0  0  0  0
    6.1620  -18.7837   15.9227 C   0  0  0  0  0  0  0  0  0  0  0  0
    5.6589  -19.3229   14.8061 N   0  0  0  0  0  0  0  0  0  0  0  0
    6.6520  -19.4361   13.9075 C   0  0  0  0  0  0  0  0  0  0  0  0
    7.7918  -18.9635   14.4636 N   0  0  0  0  0  0  0  0  0  0  0  0
    9.2926  -15.7529   17.4721 C   0  0  0  0  0  0  0  0  0  0  0  0
   10.5630  -15.7174   17.5181 O   0  0  0  0  0  0  0  0  0  0  0  0
    7.7773  -12.3772   19.2204 C   0  0  0  0  0  0  0  0  0  0  0  0
    8.4979  -13.2559   20.1837 C   0  0  1  0  0  0  0  0  0  0  0  0
    7.4574  -13.9055   21.0756 C   0  0  0  0  0  0  0  0  0  0  0  0
    9.3523  -14.3082   19.5453 C   0  0  2  0  0  0  0  0  0  0  0  0
    8.6375  -15.0627   18.5367 N   0  0  0  0  0  0  0  0  0  0  0  0
    9.9810  -15.2317   20.4986 C   0  0  0  0  0  0  0  0  0  0  0  0
    9.6047  -16.4185   20.6903 O   0  0  0  0  0  0  0  0  0  0  0  0
   11.0892  -14.7952   21.2746 N   0  0  0  0  0  0  0  0  0  0  0  0
   11.7966  -15.7349   22.2070 C   0  0  1  0  0  0  0  0  0  0  0  0
   10.7678  -16.3577   23.0933 C   0  0  0  0  0  0  0  0  0  0  0  0
   11.1222  -16.4440   24.4816 C   0  0  0  0  0  0  0  0  0  0  0  0
   12.2010  -16.0553   24.9525 O   0  0  0  0  0  0  0  0  0  0  0  0
   12.6022  -16.6612   21.4089 C   0  0  0  0  0  0  0  0  0  0  0  0
   12.0874  -17.4707   20.6298 O   0  0  0  0  0  0  0  0  0  0  0  0
   10.2145  -16.9992   25.4017 O   0  0  0  0  0  0  0  0  0  0  0  0
   14.0096  -16.6793   21.4864 O   0  0  0  0  0  0  0  0  0  0  0  0
  2  1  1  6
  3  2  1  0
  4  3  1  0
  5  4  2  0
  6  7  1  0
  6  5  1  0
  7  8  2  0
  8  4  1  0
  9  2  1  0
  9 10  2  0
 12 11  1  6
 12 14  1  0
 12 13  1  0
 14 15  1  6
 15  9  1  0
 16 14  1  0
 17 16  2  0
 18 16  1  0
 19 18  1  0
 19 20  1  6
 20 21  1  0
 21 22  2  0
 23 19  1  0
 24 23  2  0
 25 21  1  0
 26 23  1  0
M  END
$$$$
