HVD.pdb
     RDKit          3D

 26 26  0  0  1  0  0  0  0  0999 V2000
    9.3486  -16.4217   15.5674 N   0  0  0  0  0  0  0  0  0  0  0  0
    8.6091  -16.9106   16.7014 C   0  0  1  0  0  0  0  0  0  0  0  0
    8.7376  -18.4344   16.8157 C   0  0  0  0  0  0  0  0  0  0  0  0
    8.0504  -19.0385   15.6641 C   0  0  0  0  0  0  0  0  0  0  0  0
    8.6161  -19.5229   14.4812 C   0  0  0  0  0  0  0  0  0  0  0  0
    7.6279  -19.9842   13.7058 N   0  0  0  0  0  0  0  0  0  0  0  0
    6.4645  -19.8084   14.3556 C   0  0  0  0  0  0  0  0  0  0  0  0
    6.7226  -19.2306   15.5520 N   0  0  0  0  0  0  0  0  0  0  0  0
    9.0105  -16.2332   17.9550 C   0  0  0  0  0  0  0  0  0  0  0  0
   10.2358  -16.0948   18.2662 O   0  0  0  0  0  0  0  0  0  0  0  0
    7.7881  -13.3863   21.8974 C   0  0  0  0  0  0  0  0  0  0  0  0
    7.4336  -14.0832   20.6293 C   0  0  1  0  0  0  0  0  0  0  0  0
    7.0831  -13.0196   19.6065 C   0  0  0  0  0  0  0  0  0  0  0  0
    8.5090  -14.9762   20.0898 C   0  0  2  0  0  0  0  0  0  0  0  0
    8.0897  -15.6895   18.9013 N   0  0  0  0  0  0  0  0  0  0  0  0
    9.0491  -15.9266   21.0706 C   0  0  0  0  0  0  0  0  0  0  0  0
    8.5358  -17.0474   21.3296 O   0  0  0  0  0  0  0  0  0  0  0  0
   10.2264  -15.5968   21.7957 N   0  0  0  0  0  0  0  0  0  0  0  0
   10.7912  -16.5374   22.8200 C   0  0  1  0  0  0  0  0  0  0  0  0
   12.2295  -16.1852   23.0178 C   0  0  0  0  0  0  0  0  0  0  0  0
   13.0804  -16.4127   21.8844 C   0  0  0  0  0  0  0  0  0  0  0  0
   12.9474  -17.3541   21.0888 O   0  0  0  0  0  0  0  0  0  0  0  0
    9.9467  -16.4834   24.0148 C   0  0  0  0  0  0  0  0  0  0  0  0
    9.7917  -17.4643   24.7504 O   0  0  0  0  0  0  0  0  0  0  0  0
   14.1468  -15.5334   21.6230 O   0  0  0  0  0  0  0  0  0  0  0  0
    9.2645  -15.3085   24.3908 O   0  0  0  0  0  0  0  0  0  0  0  0
  2  1  1  6
  3  2  1  0
  4  3  1  0
  5  4  2  0
  6  7  1  0
  6  5  1  0
  7  8  2  0
  8  4  1  0
  9  2  1  0
  9 10  2  0
 12 11  1  1
 12 14  1  0
 12 13  1  0
 14 15  1  6
 15  9  1  0
 16 14  1  0
 17 16  2  0
 18 16  1  0
 19 18  1  0
 19 20  1  1
 20 21  1  0
 21 22  2  0
 23 19  1  0
 24 23  2  0
 25 21  1  0
 26 23  1  0
M  END
$$$$
