NAM.pdb
     RDKit          3D

 22 21  0  0  1  0  0  0  0  0999 V2000
   14.5273  -10.8718  -11.6679 N   0  0  0  0  0  0  0  0  0  0  0  0
   15.7443  -10.4035  -11.1051 C   0  0  0  0  0  0  0  0  0  0  0  0
   16.0398  -10.6263   -9.9165 O   0  0  0  0  0  0  0  0  0  0  0  0
   16.6410   -9.6480  -11.9735 C   0  0  0  0  0  0  0  0  0  0  0  0
   16.1048   -9.4553  -13.3628 C   0  0  2  0  0  0  0  0  0  0  0  0
   16.0854  -10.7941  -13.9701 N   0  0  0  0  0  0  0  0  0  0  0  0
   17.0434   -8.5943  -14.1397 C   0  0  0  0  0  0  0  0  0  0  0  0
   18.0408   -8.9996  -14.7590 O   0  0  0  0  0  0  0  0  0  0  0  0
   17.1553   -4.9334  -15.1279 C   0  0  0  0  0  0  0  0  0  0  0  0
   17.7038   -6.3266  -14.9509 C   0  0  2  0  0  0  0  0  0  0  0  0
   16.8127   -7.1707  -14.2043 N   0  0  0  0  0  0  0  0  0  0  0  0
   19.0488   -6.3141  -14.3012 C   0  0  0  0  0  0  0  0  0  0  0  0
   19.1321   -6.3568  -13.0577 O   0  0  0  0  0  0  0  0  0  0  0  0
   25.9845   -9.5810  -14.6608 C   0  0  0  0  0  0  0  0  0  0  0  0
   24.2970   -9.2638  -15.2329 S   0  0  0  0  0  0  0  0  0  0  0  0
   23.5834   -7.8245  -14.4400 C   0  0  0  0  0  0  0  0  0  0  0  0
   22.2028   -7.5663  -14.9234 C   0  0  0  0  0  0  0  0  0  0  0  0
   21.5675   -6.3534  -14.3571 C   0  0  2  0  0  0  0  0  0  0  0  0
   20.2471   -6.2550  -15.0517 N   0  0  0  0  0  0  0  0  0  0  0  0
   22.2211   -5.0708  -14.4390 C   0  0  0  0  0  0  0  0  0  0  0  0
   22.1014   -4.2228  -15.3509 O   0  0  0  0  0  0  0  0  0  0  0  0
   23.1031   -4.6781  -13.4034 O   0  0  0  0  0  0  0  0  0  0  0  0
  1  2  1  0
  2  3  2  0
  4  2  1  0
  4  5  1  0
  5  6  1  6
  7  5  1  0
  7 11  1  0
  8  7  2  0
 10  9  1  1
 10 11  1  0
 10 12  1  0
 12 13  2  0
 12 19  1  0
 14 15  1  0
 15 16  1  0
 17 16  1  0
 18 17  1  6
 19 18  1  0
 20 18  1  0
 20 22  1  0
 21 20  2  0
M  END
$$$$
