NAM.pdb
     RDKit          3D

 22 21  0  0  1  0  0  0  0  0999 V2000
   16.8695  -14.9507  -18.2362 N   0  0  0  0  0  0  0  0  0  0  0  0
   16.7723  -14.1503  -19.4054 C   0  0  0  0  0  0  0  0  0  0  0  0
   16.5767  -14.6562  -20.5259 O   0  0  0  0  0  0  0  0  0  0  0  0
   16.9106  -12.7065  -19.2464 C   0  0  0  0  0  0  0  0  0  0  0  0
   17.0951  -12.2779  -17.8192 C   0  0  2  0  0  0  0  0  0  0  0  0
   15.7423  -12.2070  -17.2478 N   0  0  0  0  0  0  0  0  0  0  0  0
   17.6970  -10.9131  -17.7870 C   0  0  0  0  0  0  0  0  0  0  0  0
   18.8556  -10.6331  -18.1361 O   0  0  0  0  0  0  0  0  0  0  0  0
   16.4703   -7.4353  -16.8752 C   0  0  0  0  0  0  0  0  0  0  0  0
   17.4923   -8.4922  -17.2092 C   0  0  2  0  0  0  0  0  0  0  0  0
   16.9063   -9.7992  -17.3201 N   0  0  0  0  0  0  0  0  0  0  0  0
   18.6049   -8.5216  -16.2129 C   0  0  0  0  0  0  0  0  0  0  0  0
   18.4637   -9.1605  -15.1513 O   0  0  0  0  0  0  0  0  0  0  0  0
   24.5506  -11.5539  -14.5448 C   0  0  0  0  0  0  0  0  0  0  0  0
   24.2198  -10.2452  -15.7504 S   0  0  0  0  0  0  0  0  0  0  0  0
   23.1217   -8.9928  -15.0908 C   0  0  0  0  0  0  0  0  0  0  0  0
   21.8869   -8.8684  -15.9070 C   0  0  0  0  0  0  0  0  0  0  0  0
   20.9010   -7.8907  -15.3894 C   0  0  2  0  0  0  0  0  0  0  0  0
   19.8281   -7.8440  -16.4298 N   0  0  0  0  0  0  0  0  0  0  0  0
   21.2944   -6.5383  -15.0809 C   0  0  0  0  0  0  0  0  0  0  0  0
   21.7815   -6.1236  -14.0058 O   0  0  0  0  0  0  0  0  0  0  0  0
   21.1345   -5.5316  -16.0636 O   0  0  0  0  0  0  0  0  0  0  0  0
  1  2  1  0
  2  3  2  0
  4  2  1  0
  4  5  1  0
  5  6  1  6
  7  5  1  0
  7 11  1  0
  8  7  2  0
 10  9  1  1
 10 11  1  0
 10 12  1  0
 12 13  2  0
 12 19  1  0
 14 15  1  0
 15 16  1  0
 17 16  1  0
 18 17  1  6
 19 18  1  0
 20 18  1  0
 20 22  1  0
 21 20  2  0
M  END
$$$$
