NAM.pdb
     RDKit          3D

 22 21  0  0  1  0  0  0  0  0999 V2000
   19.2444  -13.3620  -19.9753 N   0  0  0  0  0  0  0  0  0  0  0  0
   17.9270  -12.8375  -19.8954 C   0  0  0  0  0  0  0  0  0  0  0  0
   16.9546  -13.4436  -20.3822 O   0  0  0  0  0  0  0  0  0  0  0  0
   17.7522  -11.5564  -19.2194 C   0  0  0  0  0  0  0  0  0  0  0  0
   19.0185  -11.0232  -18.6135 C   0  0  2  0  0  0  0  0  0  0  0  0
   19.1485  -11.6934  -17.3114 N   0  0  0  0  0  0  0  0  0  0  0  0
   18.8758   -9.5564  -18.3813 C   0  0  0  0  0  0  0  0  0  0  0  0
   18.9316   -8.6832  -19.2627 O   0  0  0  0  0  0  0  0  0  0  0  0
   17.1696   -7.1367  -16.8349 C   0  0  0  0  0  0  0  0  0  0  0  0
   18.5846   -7.6554  -16.7882 C   0  0  2  0  0  0  0  0  0  0  0  0
   18.6542   -9.0679  -17.0410 N   0  0  0  0  0  0  0  0  0  0  0  0
   19.2463   -7.3432  -15.4859 C   0  0  0  0  0  0  0  0  0  0  0  0
   18.9540   -8.0078  -14.4721 O   0  0  0  0  0  0  0  0  0  0  0  0
   25.5908  -10.1168  -14.5566 C   0  0  0  0  0  0  0  0  0  0  0  0
   23.9539   -9.6915  -15.2009 S   0  0  0  0  0  0  0  0  0  0  0  0
   23.3618   -8.1344  -14.5418 C   0  0  0  0  0  0  0  0  0  0  0  0
   22.0433   -7.7664  -15.1186 C   0  0  0  0  0  0  0  0  0  0  0  0
   21.4424   -6.5372  -14.5499 C   0  0  2  0  0  0  0  0  0  0  0  0
   20.2043   -6.3096  -15.3567 N   0  0  0  0  0  0  0  0  0  0  0  0
   22.1881   -5.3040  -14.5038 C   0  0  0  0  0  0  0  0  0  0  0  0
   22.7702   -4.8140  -13.5107 O   0  0  0  0  0  0  0  0  0  0  0  0
   22.3064   -4.5244  -15.6798 O   0  0  0  0  0  0  0  0  0  0  0  0
  1  2  1  0
  2  3  2  0
  4  2  1  0
  4  5  1  0
  5  6  1  1
  7  5  1  0
  7 11  1  0
  8  7  2  0
 10  9  1  1
 10 11  1  0
 10 12  1  0
 12 13  2  0
 12 19  1  0
 14 15  1  0
 15 16  1  0
 17 16  1  0
 18 17  1  6
 19 18  1  0
 20 18  1  0
 20 22  1  0
 21 20  2  0
M  END
$$$$
