NAM.pdb
     RDKit          3D

 22 21  0  0  1  0  0  0  0  0999 V2000
   23.6586  -23.9992  -19.5904 N   0  0  0  0  0  0  0  0  0  0  0  0
   22.5237  -24.0689  -18.7394 C   0  0  0  0  0  0  0  0  0  0  0  0
   21.7405  -25.0357  -18.7770 O   0  0  0  0  0  0  0  0  0  0  0  0
   22.3067  -22.9614  -17.8145 C   0  0  0  0  0  0  0  0  0  0  0  0
   23.0344  -23.1210  -16.5107 C   0  0  2  0  0  0  0  0  0  0  0  0
   22.2986  -24.1556  -15.7693 N   0  0  0  0  0  0  0  0  0  0  0  0
   22.9606  -21.8433  -15.7440 C   0  0  0  0  0  0  0  0  0  0  0  0
   23.4405  -20.7585  -16.1122 O   0  0  0  0  0  0  0  0  0  0  0  0
   21.0397  -20.6227  -12.7386 C   0  0  0  0  0  0  0  0  0  0  0  0
   22.1725  -20.5896  -13.7331 C   0  0  2  0  0  0  0  0  0  0  0  0
   22.2873  -21.8192  -14.4672 N   0  0  0  0  0  0  0  0  0  0  0  0
   23.4761  -20.2706  -13.0773 C   0  0  0  0  0  0  0  0  0  0  0  0
   23.7235  -19.0963  -12.7382 O   0  0  0  0  0  0  0  0  0  0  0  0
   26.0107  -19.0862   -7.7617 C   0  0  0  0  0  0  0  0  0  0  0  0
   26.5168  -20.7551   -8.2456 S   0  0  0  0  0  0  0  0  0  0  0  0
   26.8695  -20.8630   -9.9988 C   0  0  0  0  0  0  0  0  0  0  0  0
   25.6347  -21.1073  -10.7874 C   0  0  0  0  0  0  0  0  0  0  0  0
   25.7762  -20.8733  -12.2437 C   0  0  2  0  0  0  0  0  0  0  0  0
   24.4535  -21.2618  -12.8226 N   0  0  0  0  0  0  0  0  0  0  0  0
   26.8138  -21.5298  -12.9996 C   0  0  0  0  0  0  0  0  0  0  0  0
   26.6608  -22.3288  -13.9500 O   0  0  0  0  0  0  0  0  0  0  0  0
   28.1688  -21.2794  -12.6740 O   0  0  0  0  0  0  0  0  0  0  0  0
  1  2  1  0
  2  3  2  0
  4  2  1  0
  4  5  1  0
  5  6  1  1
  7  5  1  0
  7 11  1  0
  8  7  2  0
 10  9  1  1
 10 11  1  0
 10 12  1  0
 12 13  2  0
 12 19  1  0
 14 15  1  0
 15 16  1  0
 17 16  1  0
 18 17  1  1
 19 18  1  0
 20 18  1  0
 20 22  1  0
 21 20  2  0
M  END
$$$$
