NAM.pdb
     RDKit          3D

 22 21  0  0  1  0  0  0  0  0999 V2000
   19.5034  -17.9820  -14.4115 N   0  0  0  0  0  0  0  0  0  0  0  0
   20.4765  -18.3438  -13.4424 C   0  0  0  0  0  0  0  0  0  0  0  0
   20.1679  -18.5420  -12.2528 O   0  0  0  0  0  0  0  0  0  0  0  0
   21.8582  -18.4758  -13.8923 C   0  0  0  0  0  0  0  0  0  0  0  0
   22.0561  -18.0977  -15.3320 C   0  0  2  0  0  0  0  0  0  0  0  0
   21.3604  -19.1308  -16.1131 N   0  0  0  0  0  0  0  0  0  0  0  0
   23.5102  -18.1510  -15.6615 C   0  0  0  0  0  0  0  0  0  0  0  0
   24.1456  -19.1832  -15.9325 O   0  0  0  0  0  0  0  0  0  0  0  0
   26.2919  -15.5949  -16.0597 C   0  0  0  0  0  0  0  0  0  0  0  0
   25.6986  -16.9717  -15.8997 C   0  0  2  0  0  0  0  0  0  0  0  0
   24.2797  -16.9297  -15.6786 N   0  0  0  0  0  0  0  0  0  0  0  0
   26.3580  -17.7345  -14.7976 C   0  0  0  0  0  0  0  0  0  0  0  0
   26.0536  -17.4914  -13.6130 O   0  0  0  0  0  0  0  0  0  0  0  0
   25.6545  -21.2079   -9.1156 C   0  0  0  0  0  0  0  0  0  0  0  0
   25.5458  -20.0698  -10.5186 S   0  0  0  0  0  0  0  0  0  0  0  0
   26.8001  -20.4096  -11.7517 C   0  0  0  0  0  0  0  0  0  0  0  0
   26.7160  -19.4578  -12.8890 C   0  0  0  0  0  0  0  0  0  0  0  0
   27.7033  -19.6966  -13.9678 C   0  0  2  0  0  0  0  0  0  0  0  0
   27.3268  -18.7349  -15.0489 N   0  0  0  0  0  0  0  0  0  0  0  0
   27.8534  -21.0049  -14.5550 C   0  0  0  0  0  0  0  0  0  0  0  0
   28.8048  -21.7998  -14.3873 O   0  0  0  0  0  0  0  0  0  0  0  0
   26.8455  -21.4923  -15.4219 O   0  0  0  0  0  0  0  0  0  0  0  0
  1  2  1  0
  2  3  2  0
  4  2  1  0
  4  5  1  0
  5  6  1  6
  7  5  1  0
  7 11  1  0
  8  7  2  0
 10  9  1  1
 10 11  1  0
 10 12  1  0
 12 13  2  0
 12 19  1  0
 14 15  1  0
 15 16  1  0
 17 16  1  0
 18 17  1  1
 19 18  1  0
 20 18  1  0
 20 22  1  0
 21 20  2  0
M  END
$$$$
