NAM.pdb
     RDKit          3D

 22 21  0  0  1  0  0  0  0  0999 V2000
   17.4620  -12.8375  -14.3768 N   0  0  0  0  0  0  0  0  0  0  0  0
   18.2482  -12.0985  -15.3002 C   0  0  0  0  0  0  0  0  0  0  0  0
   18.8743  -12.6604  -16.2178 O   0  0  0  0  0  0  0  0  0  0  0  0
   18.2968  -10.6496  -15.1349 C   0  0  0  0  0  0  0  0  0  0  0  0
   17.5285  -10.1586  -13.9418 C   0  0  2  0  0  0  0  0  0  0  0  0
   16.1091  -10.3117  -14.2932 N   0  0  0  0  0  0  0  0  0  0  0  0
   17.8131   -8.7091  -13.7330 C   0  0  0  0  0  0  0  0  0  0  0  0
   18.8716   -8.2456  -13.2777 O   0  0  0  0  0  0  0  0  0  0  0  0
   16.4052   -5.4840  -14.9470 C   0  0  0  0  0  0  0  0  0  0  0  0
   17.0676   -6.3308  -13.8899 C   0  0  2  0  0  0  0  0  0  0  0  0
   16.8067   -7.7316  -14.0734 N   0  0  0  0  0  0  0  0  0  0  0  0
   16.6593   -5.9182  -12.5135 C   0  0  0  0  0  0  0  0  0  0  0  0
   16.7623   -4.7230  -12.1732 O   0  0  0  0  0  0  0  0  0  0  0  0
   11.7059   -7.3255   -6.6718 C   0  0  0  0  0  0  0  0  0  0  0  0
   12.3179   -7.5019   -8.3659 S   0  0  0  0  0  0  0  0  0  0  0  0
   13.9705   -6.8355   -8.5507 C   0  0  0  0  0  0  0  0  0  0  0  0
   14.4290   -6.9031   -9.9620 C   0  0  0  0  0  0  0  0  0  0  0  0
   15.7970   -6.3823  -10.1919 C   0  0  2  0  0  0  0  0  0  0  0  0
   16.1538   -6.8429  -11.5690 N   0  0  0  0  0  0  0  0  0  0  0  0
   16.8779   -6.7281   -9.3025 C   0  0  0  0  0  0  0  0  0  0  0  0
   17.8249   -7.5107   -9.5388 O   0  0  0  0  0  0  0  0  0  0  0  0
   16.9216   -6.1489   -8.0113 O   0  0  0  0  0  0  0  0  0  0  0  0
  1  2  1  0
  2  3  2  0
  4  2  1  0
  4  5  1  0
  5  6  1  6
  7  5  1  0
  7 11  1  0
  8  7  2  0
 10  9  1  6
 10 11  1  0
 10 12  1  0
 12 13  2  0
 12 19  1  0
 14 15  1  0
 15 16  1  0
 17 16  1  0
 18 17  1  1
 19 18  1  0
 20 18  1  0
 20 22  1  0
 21 20  2  0
M  END
$$$$
