PDV.pdb
     RDKit          3D

 23 23  0  0  1  0  0  0  0  0999 V2000
    8.9127  -14.8092   19.1215 N   0  0  0  0  0  0  0  0  0  0  0  0
    8.0077  -14.8324   17.9993 C   0  0  0  0  0  0  0  0  0  0  0  0
    7.4062  -13.4518   17.8980 C   0  0  0  0  0  0  0  0  0  0  0  0
    7.5377  -12.9071   19.2783 C   0  0  0  0  0  0  0  0  0  0  0  0
    8.5161  -13.7467   19.9877 C   0  0  1  0  0  0  0  0  0  0  0  0
    8.0739  -14.2250   21.3212 C   0  0  0  0  0  0  0  0  0  0  0  0
    7.5598  -13.3748   22.0879 O   0  0  0  0  0  0  0  0  0  0  0  0
    8.1949  -15.5569   21.7711 N   0  0  0  0  0  0  0  0  0  0  0  0
    7.7213  -16.0560   23.0364 C   0  0  1  0  0  0  0  0  0  0  0  0
    8.0955  -17.5048   23.1749 C   0  0  0  0  0  0  0  0  0  0  0  0
    7.4618  -18.0566   24.3935 C   0  0  0  0  0  0  0  0  0  0  0  0
    6.3441  -17.6656   24.8089 O   0  0  0  0  0  0  0  0  0  0  0  0
    8.3009  -15.2994   24.1809 C   0  0  0  0  0  0  0  0  0  0  0  0
    9.5514  -15.2205   24.2446 O   0  0  0  0  0  0  0  0  0  0  0  0
    8.1124  -19.0522   25.1283 O   0  0  0  0  0  0  0  0  0  0  0  0
    7.4447  -11.6993   25.4526 C   0  0  0  0  0  0  0  0  0  0  0  0
    7.4656  -12.6746   26.6075 C   0  0  1  0  0  0  0  0  0  0  0  0
    6.0580  -12.9663   27.0140 C   0  0  0  0  0  0  0  0  0  0  0  0
    8.2246  -13.9528   26.2453 C   0  0  2  0  0  0  0  0  0  0  0  0
    7.5379  -14.6709   25.1901 N   0  0  0  0  0  0  0  0  0  0  0  0
    8.3965  -14.8053   27.4507 C   0  0  0  0  0  0  0  0  0  0  0  0
    9.1058  -14.3865   28.5620 O   0  0  0  0  0  0  0  0  0  0  0  0
    7.8781  -15.9722   27.4831 O   0  0  0  0  0  0  0  0  0  0  0  0
  1  5  1  0
  1  2  1  0
  2  3  1  0
  3  4  1  0
  5  6  1  1
  5  4  1  0
  6  7  2  0
  6  8  1  0
  8  9  1  0
  9 13  1  0
 10 11  1  0
  9 10  1  1
 11 15  1  0
 12 11  2  0
 13 14  2  0
 13 20  1  0
 17 18  1  6
 17 16  1  0
 19 21  1  0
 19 17  1  0
 19 20  1  6
 21 22  1  0
 23 21  2  0
M  END
$$$$
