PDV.pdb
     RDKit          3D

 23 23  0  0  1  0  0  0  0  0999 V2000
    9.1311  -14.5119   19.2519 N   0  0  0  0  0  0  0  0  0  0  0  0
    8.4420  -14.7072   18.0005 C   0  0  0  0  0  0  0  0  0  0  0  0
    7.5646  -13.4964   17.7946 C   0  0  0  0  0  0  0  0  0  0  0  0
    7.3511  -12.9762   19.1741 C   0  0  0  0  0  0  0  0  0  0  0  0
    8.3722  -13.5924   20.0362 C   0  0  1  0  0  0  0  0  0  0  0  0
    7.8482  -14.1969   21.2862 C   0  0  0  0  0  0  0  0  0  0  0  0
    7.0050  -13.5273   21.9309 O   0  0  0  0  0  0  0  0  0  0  0  0
    8.2350  -15.4588   21.7849 N   0  0  0  0  0  0  0  0  0  0  0  0
    7.8214  -16.0200   23.0452 C   0  0  1  0  0  0  0  0  0  0  0  0
    8.2409  -17.4614   23.1133 C   0  0  0  0  0  0  0  0  0  0  0  0
    7.7521  -18.0510   24.3800 C   0  0  0  0  0  0  0  0  0  0  0  0
    6.6417  -17.7491   24.8805 O   0  0  0  0  0  0  0  0  0  0  0  0
    8.4204  -15.2913   24.1979 C   0  0  0  0  0  0  0  0  0  0  0  0
    9.6667  -15.1473   24.2031 O   0  0  0  0  0  0  0  0  0  0  0  0
    8.5382  -18.9822   25.0651 O   0  0  0  0  0  0  0  0  0  0  0  0
    7.6988  -11.7765   25.3730 C   0  0  0  0  0  0  0  0  0  0  0  0
    7.6639  -12.6845   26.5813 C   0  0  1  0  0  0  0  0  0  0  0  0
    6.2401  -12.8972   26.9800 C   0  0  0  0  0  0  0  0  0  0  0  0
    8.3763  -14.0100   26.3044 C   0  0  2  0  0  0  0  0  0  0  0  0
    7.6800  -14.7569   25.2758 N   0  0  0  0  0  0  0  0  0  0  0  0
    8.4910  -14.8012   27.5574 C   0  0  0  0  0  0  0  0  0  0  0  0
    9.2443  -14.3774   28.6374 O   0  0  0  0  0  0  0  0  0  0  0  0
    7.8792  -15.9175   27.6626 O   0  0  0  0  0  0  0  0  0  0  0  0
  1  5  1  0
  1  2  1  0
  2  3  1  0
  3  4  1  0
  5  6  1  1
  5  4  1  0
  6  7  2  0
  6  8  1  0
  8  9  1  0
  9 13  1  0
 10 11  1  0
  9 10  1  6
 11 15  1  0
 12 11  2  0
 13 14  2  0
 13 20  1  0
 17 18  1  6
 17 16  1  0
 19 21  1  0
 19 17  1  0
 19 20  1  6
 21 22  1  0
 23 21  2  0
M  END
$$$$
