PDV.pdb
     RDKit          3D

 23 23  0  0  1  0  0  0  0  0999 V2000
    9.3369  -14.4329   19.1087 N   0  0  0  0  0  0  0  0  0  0  0  0
    8.6717  -14.7548   17.8707 C   0  0  0  0  0  0  0  0  0  0  0  0
    7.5844  -13.7251   17.6816 C   0  0  0  0  0  0  0  0  0  0  0  0
    7.3054  -13.2480   19.0650 C   0  0  0  0  0  0  0  0  0  0  0  0
    8.4378  -13.6646   19.9074 C   0  0  1  0  0  0  0  0  0  0  0  0
    8.0562  -14.3503   21.1671 C   0  0  0  0  0  0  0  0  0  0  0  0
    7.1891  -13.7887   21.8794 O   0  0  0  0  0  0  0  0  0  0  0  0
    8.6014  -15.5760   21.6045 N   0  0  0  0  0  0  0  0  0  0  0  0
    8.2918  -16.2293   22.8501 C   0  0  1  0  0  0  0  0  0  0  0  0
    9.0901  -17.4975   22.9624 C   0  0  0  0  0  0  0  0  0  0  0  0
    8.5977  -18.2816   24.1174 C   0  0  0  0  0  0  0  0  0  0  0  0
    7.5949  -17.9372   24.7885 O   0  0  0  0  0  0  0  0  0  0  0  0
    8.6015  -15.3624   24.0209 C   0  0  0  0  0  0  0  0  0  0  0  0
    9.7743  -14.9280   24.1213 O   0  0  0  0  0  0  0  0  0  0  0  0
    9.2571  -19.4548   24.4961 O   0  0  0  0  0  0  0  0  0  0  0  0
    7.2816  -12.0826   27.4008 C   0  0  0  0  0  0  0  0  0  0  0  0
    6.9008  -13.0847   26.3349 C   0  0  1  0  0  0  0  0  0  0  0  0
    6.4639  -12.3431   25.1139 C   0  0  0  0  0  0  0  0  0  0  0  0
    8.0549  -14.0421   26.0306 C   0  0  2  0  0  0  0  0  0  0  0  0
    7.6662  -15.0017   25.0163 N   0  0  0  0  0  0  0  0  0  0  0  0
    8.4951  -14.7253   27.2751 C   0  0  0  0  0  0  0  0  0  0  0  0
    9.3083  -14.1124   28.2113 O   0  0  0  0  0  0  0  0  0  0  0  0
    8.1201  -15.9237   27.5090 O   0  0  0  0  0  0  0  0  0  0  0  0
  1  5  1  0
  1  2  1  0
  2  3  1  0
  3  4  1  0
  5  6  1  1
  5  4  1  0
  6  7  2  0
  6  8  1  0
  8  9  1  0
  9 13  1  0
 10 11  1  0
  9 10  1  1
 11 15  1  0
 12 11  2  0
 13 14  2  0
 13 20  1  0
 17 18  1  6
 17 16  1  0
 19 21  1  0
 19 17  1  0
 19 20  1  6
 21 22  1  0
 23 21  2  0
M  END
$$$$
