PDV.pdb
     RDKit          3D

 23 23  0  0  1  0  0  0  0  0999 V2000
    8.7863  -14.8903   18.6722 N   0  0  0  0  0  0  0  0  0  0  0  0
    7.8192  -14.5379   17.6625 C   0  0  0  0  0  0  0  0  0  0  0  0
    7.5071  -13.0734   17.8528 C   0  0  0  0  0  0  0  0  0  0  0  0
    7.8437  -12.8233   19.2822 C   0  0  0  0  0  0  0  0  0  0  0  0
    8.6772  -13.9473   19.7378 C   0  0  1  0  0  0  0  0  0  0  0  0
    8.2411  -14.5675   21.0136 C   0  0  0  0  0  0  0  0  0  0  0  0
    7.1817  -14.1303   21.5248 O   0  0  0  0  0  0  0  0  0  0  0  0
    8.9353  -15.6025   21.6754 N   0  0  0  0  0  0  0  0  0  0  0  0
    8.5782  -16.1616   22.9537 C   0  0  1  0  0  0  0  0  0  0  0  0
    9.3793  -17.4098   23.1957 C   0  0  0  0  0  0  0  0  0  0  0  0
    9.1357  -18.3657   22.0921 C   0  0  0  0  0  0  0  0  0  0  0  0
    7.9992  -18.8376   21.8467 O   0  0  0  0  0  0  0  0  0  0  0  0
    8.8332  -15.2048   24.0662 C   0  0  0  0  0  0  0  0  0  0  0  0
    9.9709  -14.6790   24.1239 O   0  0  0  0  0  0  0  0  0  0  0  0
   10.1954  -18.7748   21.2770 O   0  0  0  0  0  0  0  0  0  0  0  0
    5.8198  -13.5168   26.6603 C   0  0  0  0  0  0  0  0  0  0  0  0
    7.0937  -12.8430   26.2034 C   0  0  1  0  0  0  0  0  0  0  0  0
    7.4462  -11.7706   27.1818 C   0  0  0  0  0  0  0  0  0  0  0  0
    8.2314  -13.8527   26.0387 C   0  0  2  0  0  0  0  0  0  0  0  0
    7.8833  -14.8553   25.0516 N   0  0  0  0  0  0  0  0  0  0  0  0
    8.5547  -14.4779   27.3478 C   0  0  0  0  0  0  0  0  0  0  0  0
    9.1202  -13.7674   28.3912 O   0  0  0  0  0  0  0  0  0  0  0  0
    8.3093  -15.7169   27.5382 O   0  0  0  0  0  0  0  0  0  0  0  0
  1  5  1  0
  1  2  1  0
  2  3  1  0
  3  4  1  0
  5  6  1  1
  5  4  1  0
  6  7  2  0
  6  8  1  0
  8  9  1  0
  9 13  1  0
 10 11  1  0
  9 10  1  1
 11 15  1  0
 12 11  2  0
 13 14  2  0
 13 20  1  0
 17 18  1  1
 17 16  1  0
 19 21  1  0
 19 17  1  0
 19 20  1  6
 21 22  1  0
 23 21  2  0
M  END
$$$$
