PDV.pdb
     RDKit          3D

 23 23  0  0  1  0  0  0  0  0999 V2000
    9.0468  -14.5975   19.0216 N   0  0  0  0  0  0  0  0  0  0  0  0
    8.1664  -14.5020   17.8838 C   0  0  0  0  0  0  0  0  0  0  0  0
    7.4930  -13.1537   17.9679 C   0  0  0  0  0  0  0  0  0  0  0  0
    7.5680  -12.8112   19.4158 C   0  0  0  0  0  0  0  0  0  0  0  0
    8.5766  -13.6949   20.0219 C   0  0  1  0  0  0  0  0  0  0  0  0
    8.1351  -14.3853   21.2593 C   0  0  0  0  0  0  0  0  0  0  0  0
    7.1187  -13.9257   21.8344 O   0  0  0  0  0  0  0  0  0  0  0  0
    8.7794  -15.5091   21.8186 N   0  0  0  0  0  0  0  0  0  0  0  0
    8.4716  -16.0962   23.0972 C   0  0  1  0  0  0  0  0  0  0  0  0
    9.2245  -17.3879   23.2494 C   0  0  0  0  0  0  0  0  0  0  0  0
    8.8267  -18.3134   22.1648 C   0  0  0  0  0  0  0  0  0  0  0  0
    7.6264  -18.5420   21.8792 O   0  0  0  0  0  0  0  0  0  0  0  0
    8.8376  -15.1923   24.2230 C   0  0  0  0  0  0  0  0  0  0  0  0
   10.0136  -14.7559   24.2519 O   0  0  0  0  0  0  0  0  0  0  0  0
    9.8062  -18.9709   21.4146 O   0  0  0  0  0  0  0  0  0  0  0  0
    7.1401  -11.9693   25.4103 C   0  0  0  0  0  0  0  0  0  0  0  0
    7.4095  -12.8396   26.6167 C   0  0  1  0  0  0  0  0  0  0  0  0
    6.1165  -13.4231   27.0851 C   0  0  0  0  0  0  0  0  0  0  0  0
    8.4382  -13.9276   26.3019 C   0  0  2  0  0  0  0  0  0  0  0  0
    7.9519  -14.7991   25.2508 N   0  0  0  0  0  0  0  0  0  0  0  0
    8.7613  -14.6979   27.5312 C   0  0  0  0  0  0  0  0  0  0  0  0
    9.3631  -14.1192   28.6341 O   0  0  0  0  0  0  0  0  0  0  0  0
    8.4815  -15.9426   27.5933 O   0  0  0  0  0  0  0  0  0  0  0  0
  1  5  1  0
  1  2  1  0
  2  3  1  0
  3  4  1  0
  5  6  1  1
  5  4  1  0
  6  7  2  0
  6  8  1  0
  8  9  1  0
  9 13  1  0
 10 11  1  0
  9 10  1  1
 11 15  1  0
 12 11  2  0
 13 14  2  0
 13 20  1  0
 17 18  1  6
 17 16  1  0
 19 21  1  0
 19 17  1  0
 19 20  1  6
 21 22  1  0
 23 21  2  0
M  END
$$$$
