PDV.pdb
     RDKit          3D

 23 23  0  0  1  0  0  0  0  0999 V2000
    7.9545  -14.8566   18.7730 N   0  0  0  0  0  0  0  0  0  0  0  0
    7.0196  -13.9772   18.1160 C   0  0  0  0  0  0  0  0  0  0  0  0
    7.3950  -12.5701   18.5128 C   0  0  0  0  0  0  0  0  0  0  0  0
    8.1191  -12.7480   19.8024 C   0  0  0  0  0  0  0  0  0  0  0  0
    8.4907  -14.1684   19.9023 C   0  0  1  0  0  0  0  0  0  0  0  0
    8.1382  -14.8141   21.1913 C   0  0  0  0  0  0  0  0  0  0  0  0
    6.9325  -14.7718   21.5368 O   0  0  0  0  0  0  0  0  0  0  0  0
    9.0627  -15.4621   22.0376 N   0  0  0  0  0  0  0  0  0  0  0  0
    8.7521  -16.0565   23.3122 C   0  0  1  0  0  0  0  0  0  0  0  0
    9.5999  -17.2808   23.5137 C   0  0  0  0  0  0  0  0  0  0  0  0
    9.2331  -17.9205   24.7972 C   0  0  0  0  0  0  0  0  0  0  0  0
    8.0580  -17.9254   25.2371 O   0  0  0  0  0  0  0  0  0  0  0  0
    8.9984  -15.1120   24.4372 C   0  0  0  0  0  0  0  0  0  0  0  0
   10.1339  -14.5828   24.5065 O   0  0  0  0  0  0  0  0  0  0  0  0
   10.2147  -18.5504   25.5681 O   0  0  0  0  0  0  0  0  0  0  0  0
    7.0995  -11.9587   25.3488 C   0  0  0  0  0  0  0  0  0  0  0  0
    7.2837  -12.7737   26.6086 C   0  0  1  0  0  0  0  0  0  0  0  0
    5.9803  -13.4129   26.9608 C   0  0  0  0  0  0  0  0  0  0  0  0
    8.3952  -13.8124   26.4442 C   0  0  2  0  0  0  0  0  0  0  0  0
    8.0426  -14.7778   25.4222 N   0  0  0  0  0  0  0  0  0  0  0  0
    8.6672  -14.4813   27.7433 C   0  0  0  0  0  0  0  0  0  0  0  0
    8.5624  -15.8505   27.9104 O   0  0  0  0  0  0  0  0  0  0  0  0
    9.0121  -13.7848   28.7569 O   0  0  0  0  0  0  0  0  0  0  0  0
  1  5  1  0
  1  2  1  0
  2  3  1  0
  3  4  1  0
  5  6  1  1
  5  4  1  0
  6  7  2  0
  6  8  1  0
  8  9  1  0
  9 13  1  0
 10 11  1  0
  9 10  1  1
 11 15  1  0
 12 11  2  0
 13 14  2  0
 13 20  1  0
 17 18  1  6
 17 16  1  0
 19 21  1  0
 19 17  1  0
 19 20  1  6
 21 22  1  0
 23 21  2  0
M  END
$$$$
