SIN.pdb
     RDKit          3D

 23 22  0  0  1  0  0  0  0  0999 V2000
   17.6973  -10.8326  -19.5064 O   0  0  0  0  0  0  0  0  0  0  0  0
   18.1571  -10.1949  -18.3836 C   0  0  0  0  0  0  0  0  0  0  0  0
   18.5473  -11.2224  -17.3468 C   0  0  2  0  0  0  0  0  0  0  0  0
   17.3132  -11.7377  -16.7226 N   0  0  0  0  0  0  0  0  0  0  0  0
   19.4042  -10.7125  -16.2785 C   0  0  0  0  0  0  0  0  0  0  0  0
   18.8820  -10.1702  -15.2625 O   0  0  0  0  0  0  0  0  0  0  0  0
   23.7805  -13.3420  -14.5323 C   0  0  0  0  0  0  0  0  0  0  0  0
   22.5187  -12.5295  -14.6099 C   0  0  0  0  0  0  0  0  0  0  0  0
   22.8670  -11.1463  -15.0804 C   0  0  2  0  0  0  0  0  0  0  0  0
   23.7463  -10.4731  -14.0235 C   0  0  0  0  0  0  0  0  0  0  0  0
   21.6375  -10.2913  -15.3409 C   0  0  2  0  0  0  0  0  0  0  0  0
   20.8260  -10.8356  -16.3931 N   0  0  0  0  0  0  0  0  0  0  0  0
   22.1032   -8.9453  -15.7340 C   0  0  0  0  0  0  0  0  0  0  0  0
   22.5891   -8.8001  -16.8894 O   0  0  0  0  0  0  0  0  0  0  0  0
   22.8098   -4.1155  -16.5674 N   0  0  0  0  0  0  0  0  0  0  0  0
   21.7744   -4.8567  -17.1983 C   0  0  0  0  0  0  0  0  0  0  0  0
   21.2110   -4.3585  -18.2050 O   0  0  0  0  0  0  0  0  0  0  0  0
   21.4069   -6.1752  -16.6446 C   0  0  0  0  0  0  0  0  0  0  0  0
   22.2793   -6.5037  -15.4916 C   0  0  2  0  0  0  0  0  0  0  0  0
   22.0496   -7.7957  -14.9169 N   0  0  0  0  0  0  0  0  0  0  0  0
   22.0901   -5.4999  -14.4194 C   0  0  0  0  0  0  0  0  0  0  0  0
   23.0682   -4.6222  -13.9726 O   0  0  0  0  0  0  0  0  0  0  0  0
   20.9689   -5.3720  -13.8108 O   0  0  0  0  0  0  0  0  0  0  0  0
  2  1  1  0
  3  2  1  0
  3  5  1  0
  3  4  1  1
  5 12  1  0
  5  6  2  0
  7  8  1  0
  8  9  1  0
  9 11  1  0
  9 10  1  1
 11 13  1  0
 11 12  1  6
 13 20  1  0
 13 14  2  0
 16 18  1  0
 16 15  1  0
 17 16  2  0
 19 18  1  6
 19 21  1  0
 20 19  1  0
 21 22  1  0
 23 21  2  0
M  END
$$$$
