SIN.pdb
     RDKit          3D

 23 22  0  0  1  0  0  0  0  0999 V2000
   19.0008  -13.4326  -18.0612 O   0  0  0  0  0  0  0  0  0  0  0  0
   19.4304  -12.4321  -17.2287 C   0  0  0  0  0  0  0  0  0  0  0  0
   20.8225  -12.7520  -16.7359 C   0  0  2  0  0  0  0  0  0  0  0  0
   20.7453  -13.9602  -15.8917 N   0  0  0  0  0  0  0  0  0  0  0  0
   21.4433  -11.6950  -15.9404 C   0  0  0  0  0  0  0  0  0  0  0  0
   20.9886  -11.4279  -14.7911 O   0  0  0  0  0  0  0  0  0  0  0  0
   26.8727  -10.9565  -15.9148 C   0  0  0  0  0  0  0  0  0  0  0  0
   25.4164  -11.1572  -15.6029 C   0  0  0  0  0  0  0  0  0  0  0  0
   24.6798   -9.8854  -15.9124 C   0  0  2  0  0  0  0  0  0  0  0  0
   25.2794   -8.7525  -15.0754 C   0  0  0  0  0  0  0  0  0  0  0  0
   23.1892   -9.9914  -15.6340 C   0  0  2  0  0  0  0  0  0  0  0  0
   22.5620  -10.9756  -16.4705 N   0  0  0  0  0  0  0  0  0  0  0  0
   22.5878   -8.6694  -15.9053 C   0  0  0  0  0  0  0  0  0  0  0  0
   22.5251   -8.2815  -17.1043 O   0  0  0  0  0  0  0  0  0  0  0  0
   18.9993   -4.8802  -16.7378 N   0  0  0  0  0  0  0  0  0  0  0  0
   19.4876   -5.1551  -15.4318 C   0  0  0  0  0  0  0  0  0  0  0  0
   19.4723   -4.2302  -14.5812 O   0  0  0  0  0  0  0  0  0  0  0  0
   19.9901   -6.5108  -15.1328 C   0  0  0  0  0  0  0  0  0  0  0  0
   21.4596   -6.5622  -15.3240 C   0  0  2  0  0  0  0  0  0  0  0  0
   22.0719   -7.7944  -14.9253 N   0  0  0  0  0  0  0  0  0  0  0  0
   22.1027   -5.4752  -14.5508 C   0  0  0  0  0  0  0  0  0  0  0  0
   22.7812   -5.6482  -13.3522 O   0  0  0  0  0  0  0  0  0  0  0  0
   22.0728   -4.2581  -14.9528 O   0  0  0  0  0  0  0  0  0  0  0  0
  2  1  1  0
  3  2  1  0
  3  5  1  0
  3  4  1  1
  5 12  1  0
  5  6  2  0
  7  8  1  0
  8  9  1  0
  9 11  1  0
  9 10  1  1
 11 13  1  0
 11 12  1  6
 13 20  1  0
 13 14  2  0
 16 18  1  0
 16 15  1  0
 17 16  2  0
 19 18  1  1
 19 21  1  0
 20 19  1  0
 21 22  1  0
 23 21  2  0
M  END
$$$$
