SIN.pdb
     RDKit          3D

 23 22  0  0  1  0  0  0  0  0999 V2000
   20.9623  -10.7585  -21.2524 O   0  0  0  0  0  0  0  0  0  0  0  0
   20.8701  -10.4714  -19.9153 C   0  0  0  0  0  0  0  0  0  0  0  0
   21.7794  -11.3956  -19.1394 C   0  0  2  0  0  0  0  0  0  0  0  0
   21.0296  -12.6300  -18.8353 N   0  0  0  0  0  0  0  0  0  0  0  0
   22.2645  -10.8492  -17.8739 C   0  0  0  0  0  0  0  0  0  0  0  0
   21.5454  -10.9375  -16.8375 O   0  0  0  0  0  0  0  0  0  0  0  0
   27.2927  -11.5667  -16.1749 C   0  0  0  0  0  0  0  0  0  0  0  0
   25.8103  -11.4138  -16.3678 C   0  0  0  0  0  0  0  0  0  0  0  0
   25.4698   -9.9515  -16.3282 C   0  0  2  0  0  0  0  0  0  0  0  0
   25.8821   -9.3862  -14.9666 C   0  0  0  0  0  0  0  0  0  0  0  0
   23.9908   -9.6898  -16.5625 C   0  0  2  0  0  0  0  0  0  0  0  0
   23.5508  -10.2225  -17.8212 N   0  0  0  0  0  0  0  0  0  0  0  0
   23.7888   -8.2262  -16.5575 C   0  0  0  0  0  0  0  0  0  0  0  0
   24.5632   -7.5185  -17.2587 O   0  0  0  0  0  0  0  0  0  0  0  0
   20.3469   -3.4586  -16.6578 N   0  0  0  0  0  0  0  0  0  0  0  0
   21.5895   -4.1399  -16.7641 C   0  0  0  0  0  0  0  0  0  0  0  0
   22.6394   -3.4563  -16.8613 O   0  0  0  0  0  0  0  0  0  0  0  0
   21.5923   -5.6164  -16.7561 C   0  0  0  0  0  0  0  0  0  0  0  0
   22.6998   -6.1183  -15.9076 C   0  0  2  0  0  0  0  0  0  0  0  0
   22.7914   -7.5456  -15.8265 N   0  0  0  0  0  0  0  0  0  0  0  0
   22.5456   -5.6033  -14.5278 C   0  0  0  0  0  0  0  0  0  0  0  0
   22.2905   -6.3882  -13.4117 O   0  0  0  0  0  0  0  0  0  0  0  0
   22.6405   -4.3520  -14.2646 O   0  0  0  0  0  0  0  0  0  0  0  0
  2  1  1  0
  3  2  1  0
  3  5  1  0
  3  4  1  1
  5 12  1  0
  5  6  2  0
  7  8  1  0
  8  9  1  0
  9 11  1  0
  9 10  1  1
 11 13  1  0
 11 12  1  6
 13 20  1  0
 13 14  2  0
 16 18  1  0
 16 15  1  0
 17 16  2  0
 19 18  1  6
 19 21  1  0
 20 19  1  0
 21 22  1  0
 23 21  2  0
M  END
$$$$
