SIN.pdb
     RDKit          3D

 23 22  0  0  1  0  0  0  0  0999 V2000
   23.1394  -15.8122  -21.1209 O   0  0  0  0  0  0  0  0  0  0  0  0
   23.5474  -14.5332  -20.8446 C   0  0  0  0  0  0  0  0  0  0  0  0
   23.8573  -14.4123  -19.3707 C   0  0  2  0  0  0  0  0  0  0  0  0
   22.5884  -14.5155  -18.6240 N   0  0  0  0  0  0  0  0  0  0  0  0
   24.4969  -13.1562  -18.9853 C   0  0  0  0  0  0  0  0  0  0  0  0
   23.7908  -12.1212  -18.8143 O   0  0  0  0  0  0  0  0  0  0  0  0
   28.8109  -13.0849  -15.6488 C   0  0  0  0  0  0  0  0  0  0  0  0
   27.5089  -12.8881  -16.3730 C   0  0  0  0  0  0  0  0  0  0  0  0
   27.7616  -12.0529  -17.5955 C   0  0  2  0  0  0  0  0  0  0  0  0
   28.3042  -10.6900  -17.1578 C   0  0  0  0  0  0  0  0  0  0  0  0
   26.5114  -11.8576  -18.4379 C   0  0  2  0  0  0  0  0  0  0  0  0
   25.9163  -13.1125  -18.8028 N   0  0  0  0  0  0  0  0  0  0  0  0
   26.9058  -11.1328  -19.6634 C   0  0  0  0  0  0  0  0  0  0  0  0
   27.7832  -11.6553  -20.4046 O   0  0  0  0  0  0  0  0  0  0  0  0
   25.2893  -11.1801  -22.5786 N   0  0  0  0  0  0  0  0  0  0  0  0
   24.8812   -9.8324  -22.7703 C   0  0  0  0  0  0  0  0  0  0  0  0
   23.8645   -9.6104  -23.4747 O   0  0  0  0  0  0  0  0  0  0  0  0
   25.6675   -8.7557  -22.1359 C   0  0  0  0  0  0  0  0  0  0  0  0
   26.7748   -9.3366  -21.3390 C   0  0  2  0  0  0  0  0  0  0  0  0
   26.3779   -9.8916  -20.0794 N   0  0  0  0  0  0  0  0  0  0  0  0
   27.7933   -8.2968  -21.0659 C   0  0  0  0  0  0  0  0  0  0  0  0
   28.1386   -7.8368  -19.8026 O   0  0  0  0  0  0  0  0  0  0  0  0
   28.4460   -7.7321  -22.0140 O   0  0  0  0  0  0  0  0  0  0  0  0
  2  1  1  0
  3  2  1  0
  3  5  1  0
  3  4  1  1
  5 12  1  0
  5  6  2  0
  7  8  1  0
  8  9  1  0
  9 11  1  0
  9 10  1  1
 11 13  1  0
 11 12  1  6
 13 20  1  0
 13 14  2  0
 16 18  1  0
 16 15  1  0
 17 16  2  0
 19 18  1  1
 19 21  1  0
 20 19  1  0
 21 22  1  0
 23 21  2  0
M  END
$$$$
