SIN.pdb
     RDKit          3D

 23 22  0  0  1  0  0  0  0  0999 V2000
   21.7126  -22.0130  -10.6439 O   0  0  0  0  0  0  0  0  0  0  0  0
   22.6898  -21.2180  -11.1841 C   0  0  0  0  0  0  0  0  0  0  0  0
   23.9158  -21.2600  -10.3019 C   0  0  2  0  0  0  0  0  0  0  0  0
   23.5473  -20.7252   -8.9766 N   0  0  0  0  0  0  0  0  0  0  0  0
   25.0470  -20.4777  -10.7960 C   0  0  0  0  0  0  0  0  0  0  0  0
   25.1608  -19.2631  -10.4631 O   0  0  0  0  0  0  0  0  0  0  0  0
   30.1476  -21.9454  -10.7013 C   0  0  0  0  0  0  0  0  0  0  0  0
   28.8804  -21.1377  -10.6905 C   0  0  0  0  0  0  0  0  0  0  0  0
   28.4148  -20.9569  -12.1070 C   0  0  2  0  0  0  0  0  0  0  0  0
   29.4557  -20.1300  -12.8661 C   0  0  0  0  0  0  0  0  0  0  0  0
   27.0593  -20.2743  -12.1935 C   0  0  2  0  0  0  0  0  0  0  0  0
   26.0156  -21.0968  -11.6495 N   0  0  0  0  0  0  0  0  0  0  0  0
   26.7789  -20.0149  -13.6207 C   0  0  0  0  0  0  0  0  0  0  0  0
   26.4651  -20.9950  -14.3509 O   0  0  0  0  0  0  0  0  0  0  0  0
   25.1975  -18.2107  -17.9675 N   0  0  0  0  0  0  0  0  0  0  0  0
   25.0896  -17.0941  -17.0950 C   0  0  0  0  0  0  0  0  0  0  0  0
   24.5570  -16.0433  -17.5323 O   0  0  0  0  0  0  0  0  0  0  0  0
   25.6069  -17.2172  -15.7176 C   0  0  0  0  0  0  0  0  0  0  0  0
   26.2102  -18.5570  -15.5187 C   0  0  2  0  0  0  0  0  0  0  0  0
   26.8328  -18.7491  -14.2429 N   0  0  0  0  0  0  0  0  0  0  0  0
   27.2379  -18.8016  -16.5566 C   0  0  0  0  0  0  0  0  0  0  0  0
   27.0096  -19.4517  -17.7616 O   0  0  0  0  0  0  0  0  0  0  0  0
   28.4507  -18.4152  -16.4035 O   0  0  0  0  0  0  0  0  0  0  0  0
  2  1  1  0
  3  2  1  0
  3  5  1  0
  3  4  1  1
  5 12  1  0
  5  6  2  0
  7  8  1  0
  8  9  1  0
  9 11  1  0
  9 10  1  6
 11 13  1  0
 11 12  1  6
 13 20  1  0
 13 14  2  0
 16 18  1  0
 16 15  1  0
 17 16  2  0
 19 18  1  1
 19 21  1  0
 20 19  1  0
 21 22  1  0
 23 21  2  0
M  END
$$$$
