SIN.pdb
     RDKit          3D

 23 22  0  0  1  0  0  0  0  0999 V2000
   27.1272  -18.7080  -15.7756 O   0  0  0  0  0  0  0  0  0  0  0  0
   28.1074  -18.8272  -14.8249 C   0  0  0  0  0  0  0  0  0  0  0  0
   28.2356  -20.2758  -14.4149 C   0  0  2  0  0  0  0  0  0  0  0  0
   28.5567  -21.0678  -15.6182 N   0  0  0  0  0  0  0  0  0  0  0  0
   27.0304  -20.8471  -13.8175 C   0  0  0  0  0  0  0  0  0  0  0  0
   26.3891  -21.7433  -14.4376 O   0  0  0  0  0  0  0  0  0  0  0  0
   26.3773  -20.3332   -8.3259 C   0  0  0  0  0  0  0  0  0  0  0  0
   26.4275  -21.0835   -9.6271 C   0  0  0  0  0  0  0  0  0  0  0  0
   25.2791  -20.6340  -10.4845 C   0  0  2  0  0  0  0  0  0  0  0  0
   23.9865  -21.2438   -9.9361 C   0  0  0  0  0  0  0  0  0  0  0  0
   25.4502  -21.0276  -11.9428 C   0  0  2  0  0  0  0  0  0  0  0  0
   26.5912  -20.3874  -12.5346 N   0  0  0  0  0  0  0  0  0  0  0  0
   24.2307  -20.6106  -12.6651 C   0  0  0  0  0  0  0  0  0  0  0  0
   24.0714  -19.3809  -12.8989 O   0  0  0  0  0  0  0  0  0  0  0  0
   21.1349  -19.7839  -16.6742 N   0  0  0  0  0  0  0  0  0  0  0  0
   20.9573  -21.0522  -16.0582 C   0  0  0  0  0  0  0  0  0  0  0  0
   19.8507  -21.6322  -16.1928 O   0  0  0  0  0  0  0  0  0  0  0  0
   22.0770  -21.6305  -15.2890 C   0  0  0  0  0  0  0  0  0  0  0  0
   22.1722  -20.9783  -13.9608 C   0  0  2  0  0  0  0  0  0  0  0  0
   23.2178  -21.4816  -13.1209 N   0  0  0  0  0  0  0  0  0  0  0  0
   20.8952  -21.1444  -13.2295 C   0  0  0  0  0  0  0  0  0  0  0  0
   19.7474  -20.3978  -13.4572 O   0  0  0  0  0  0  0  0  0  0  0  0
   20.7622  -22.0209  -12.3032 O   0  0  0  0  0  0  0  0  0  0  0  0
  2  1  1  0
  3  2  1  0
  3  5  1  0
  3  4  1  6
  5 12  1  0
  5  6  2  0
  7  8  1  0
  8  9  1  0
  9 11  1  0
  9 10  1  1
 11 13  1  0
 11 12  1  6
 13 20  1  0
 13 14  2  0
 16 18  1  0
 16 15  1  0
 17 16  2  0
 19 18  1  6
 19 21  1  0
 20 19  1  0
 21 22  1  0
 23 21  2  0
M  END
$$$$
