SIN.pdb
     RDKit          3D

 23 22  0  0  1  0  0  0  0  0999 V2000
   19.7815  -12.8968  -19.7194 O   0  0  0  0  0  0  0  0  0  0  0  0
   19.9083  -12.0798  -18.6262 C   0  0  0  0  0  0  0  0  0  0  0  0
   21.0052  -12.6063  -17.7304 C   0  0  2  0  0  0  0  0  0  0  0  0
   20.4648  -13.7444  -16.9616 N   0  0  0  0  0  0  0  0  0  0  0  0
   21.5274  -11.6335  -16.7730 C   0  0  0  0  0  0  0  0  0  0  0  0
   20.9233  -11.4472  -15.6778 O   0  0  0  0  0  0  0  0  0  0  0  0
   26.7058  -11.1042  -15.4266 C   0  0  0  0  0  0  0  0  0  0  0  0
   25.2088  -11.2024  -15.5148 C   0  0  0  0  0  0  0  0  0  0  0  0
   24.6705   -9.8912  -16.0117 C   0  0  2  0  0  0  0  0  0  0  0  0
   25.0868   -8.7865  -15.0372 C   0  0  0  0  0  0  0  0  0  0  0  0
   23.1575   -9.8990  -16.1580 C   0  0  2  0  0  0  0  0  0  0  0  0
   22.7193  -10.9042  -17.0850 N   0  0  0  0  0  0  0  0  0  0  0  0
   22.7489   -8.5690  -16.6550 C   0  0  0  0  0  0  0  0  0  0  0  0
   23.2257   -8.1750  -17.7549 O   0  0  0  0  0  0  0  0  0  0  0  0
   18.1229   -6.9149  -17.7893 N   0  0  0  0  0  0  0  0  0  0  0  0
   19.3455   -6.1922  -17.7381 C   0  0  0  0  0  0  0  0  0  0  0  0
   19.7741   -5.6674  -18.7964 O   0  0  0  0  0  0  0  0  0  0  0  0
   20.0563   -6.0907  -16.4480 C   0  0  0  0  0  0  0  0  0  0  0  0
   21.4815   -6.4609  -16.6221 C   0  0  2  0  0  0  0  0  0  0  0  0
   21.8602   -7.6925  -15.9960 N   0  0  0  0  0  0  0  0  0  0  0  0
   22.3465   -5.3950  -16.0664 C   0  0  0  0  0  0  0  0  0  0  0  0
   22.3953   -4.0888  -16.5334 O   0  0  0  0  0  0  0  0  0  0  0  0
   23.1365   -5.6180  -15.0816 O   0  0  0  0  0  0  0  0  0  0  0  0
  2  1  1  0
  3  2  1  0
  3  5  1  0
  3  4  1  1
  5 12  1  0
  5  6  2  0
  7  8  1  0
  8  9  1  0
  9 11  1  0
  9 10  1  1
 11 13  1  0
 11 12  1  6
 13 20  1  0
 13 14  2  0
 16 18  1  0
 16 15  1  0
 17 16  2  0
 19 18  1  1
 19 21  1  0
 20 19  1  0
 21 22  1  0
 23 21  2  0
M  END
$$$$
