NKN.pdb
     RDKit          3D

 26 25  0  0  1  0  0  0  0  0999 V2000
   17.2847  -17.8635  -14.3349 N   0  0  0  0  0  0  0  0  0  0  0  0
   16.6836  -16.7795  -15.0025 C   0  0  0  0  0  0  0  0  0  0  0  0
   15.4873  -16.8645  -15.3579 O   0  0  0  0  0  0  0  0  0  0  0  0
   17.4360  -15.5470  -15.2908 C   0  0  0  0  0  0  0  0  0  0  0  0
   17.5407  -15.2606  -16.7636 C   0  0  2  0  0  0  0  0  0  0  0  0
   18.3135  -16.2731  -17.4545 N   0  0  0  0  0  0  0  0  0  0  0  0
   18.0953  -13.9073  -16.9491 C   0  0  0  0  0  0  0  0  0  0  0  0
   19.3214  -13.6417  -16.8021 O   0  0  0  0  0  0  0  0  0  0  0  0
   17.2512  -12.8499  -17.3047 N   0  0  0  0  0  0  0  0  0  0  0  0
   17.7421  -11.5233  -17.6817 C   0  0  1  0  0  0  0  0  0  0  0  0
   16.7944  -10.8349  -18.5896 C   0  0  0  0  0  0  0  0  0  0  0  0
   17.3225   -9.5059  -19.0419 C   0  0  0  0  0  0  0  0  0  0  0  0
   16.3184   -8.8013  -19.9570 C   0  0  0  0  0  0  0  0  0  0  0  0
   16.9612   -7.4897  -20.3595 C   0  0  0  0  0  0  0  0  0  0  0  0
   16.0808   -6.7812  -21.2676 N   0  0  0  0  0  0  0  0  0  0  0  0
   18.0961  -10.7623  -16.4820 C   0  0  0  0  0  0  0  0  0  0  0  0
   17.4332  -10.6890  -15.4239 O   0  0  0  0  0  0  0  0  0  0  0  0
   20.6469   -7.7377  -13.2089 N   0  0  0  0  0  0  0  0  0  0  0  0
   21.5976   -8.5430  -13.9300 C   0  0  0  0  0  0  0  0  0  0  0  0
   22.8005   -8.5303  -13.5735 O   0  0  0  0  0  0  0  0  0  0  0  0
   21.1602   -9.3746  -15.0766 C   0  0  0  0  0  0  0  0  0  0  0  0
   19.6942   -9.2381  -15.3389 C   0  0  2  0  0  0  0  0  0  0  0  0
   19.3190  -10.0155  -16.4894 N   0  0  0  0  0  0  0  0  0  0  0  0
   19.3139   -7.8098  -15.4896 C   0  0  0  0  0  0  0  0  0  0  0  0
   19.6720   -7.1184  -16.6382 O   0  0  0  0  0  0  0  0  0  0  0  0
   18.6735   -7.1861  -14.6140 O   0  0  0  0  0  0  0  0  0  0  0  0
  2  1  1  0
  2  3  2  0
  4  5  1  0
  4  2  1  0
  5  7  1  0
  5  6  1  6
  7  8  2  0
  9 10  1  0
  9  7  1  0
 11 12  1  0
 10 11  1  1
 13 14  1  0
 13 12  1  0
 15 14  1  0
 16 17  2  0
 16 10  1  0
 18 19  1  0
 19 20  2  0
 19 21  1  0
 22 21  1  6
 22 24  1  0
 22 23  1  0
 23 16  1  0
 24 25  1  0
 26 24  2  0
M  END
$$$$
