NKN.pdb
     RDKit          3D

 26 25  0  0  1  0  0  0  0  0999 V2000
   17.8800  -13.9494  -15.1093 N   0  0  0  0  0  0  0  0  0  0  0  0
   18.6846  -12.8219  -15.3615 C   0  0  0  0  0  0  0  0  0  0  0  0
   19.8022  -12.9740  -15.9023 O   0  0  0  0  0  0  0  0  0  0  0  0
   18.2360  -11.4666  -15.0008 C   0  0  0  0  0  0  0  0  0  0  0  0
   16.8852  -11.4577  -14.3396 C   0  0  2  0  0  0  0  0  0  0  0  0
   15.8374  -11.8692  -15.2521 N   0  0  0  0  0  0  0  0  0  0  0  0
   16.6404  -10.1200  -13.7704 C   0  0  0  0  0  0  0  0  0  0  0  0
   16.2341   -9.1437  -14.4612 O   0  0  0  0  0  0  0  0  0  0  0  0
   16.8581   -9.8910  -12.4076 N   0  0  0  0  0  0  0  0  0  0  0  0
   16.6930   -8.5798  -11.7779 C   0  0  1  0  0  0  0  0  0  0  0  0
   16.0079   -8.6921  -10.4686 C   0  0  0  0  0  0  0  0  0  0  0  0
   14.5559   -9.0333  -10.6275 C   0  0  0  0  0  0  0  0  0  0  0  0
   13.8612   -9.1140   -9.2662 C   0  0  0  0  0  0  0  0  0  0  0  0
   12.4253   -9.5075   -9.5470 C   0  0  0  0  0  0  0  0  0  0  0  0
   11.7145   -9.6611   -8.2929 N   0  0  0  0  0  0  0  0  0  0  0  0
   17.9793   -7.8819  -11.7330 C   0  0  0  0  0  0  0  0  0  0  0  0
   18.9668   -8.1847  -11.0275 O   0  0  0  0  0  0  0  0  0  0  0  0
   21.9664   -5.0571  -13.1736 N   0  0  0  0  0  0  0  0  0  0  0  0
   21.7781   -6.4644  -13.4114 C   0  0  0  0  0  0  0  0  0  0  0  0
   22.7461   -7.1467  -13.8255 O   0  0  0  0  0  0  0  0  0  0  0  0
   20.4591   -7.0966  -13.1700 C   0  0  0  0  0  0  0  0  0  0  0  0
   19.4492   -6.1109  -12.6748 C   0  0  2  0  0  0  0  0  0  0  0  0
   18.1562   -6.7321  -12.5697 N   0  0  0  0  0  0  0  0  0  0  0  0
   19.4143   -4.9065  -13.5439 C   0  0  0  0  0  0  0  0  0  0  0  0
   20.3248   -3.8800  -13.3366 O   0  0  0  0  0  0  0  0  0  0  0  0
   18.5876   -4.7686  -14.4730 O   0  0  0  0  0  0  0  0  0  0  0  0
  2  1  1  0
  2  3  2  0
  4  5  1  0
  4  2  1  0
  5  7  1  0
  5  6  1  6
  7  8  2  0
  9 10  1  0
  9  7  1  0
 11 12  1  0
 10 11  1  1
 13 14  1  0
 13 12  1  0
 15 14  1  0
 16 17  2  0
 16 10  1  0
 18 19  1  0
 19 20  2  0
 19 21  1  0
 22 21  1  6
 22 24  1  0
 22 23  1  0
 23 16  1  0
 24 25  1  0
 26 24  2  0
M  END
$$$$
