NKN.pdb
     RDKit          3D

 26 25  0  0  1  0  0  0  0  0999 V2000
   19.4960  -12.7363  -14.7967 N   0  0  0  0  0  0  0  0  0  0  0  0
   19.9123  -11.3961  -14.6834 C   0  0  0  0  0  0  0  0  0  0  0  0
   21.1340  -11.1287  -14.7081 O   0  0  0  0  0  0  0  0  0  0  0  0
   18.9372  -10.3025  -14.5363 C   0  0  0  0  0  0  0  0  0  0  0  0
   17.5176  -10.7945  -14.4671 C   0  0  2  0  0  0  0  0  0  0  0  0
   17.1220  -11.4678  -15.6878 N   0  0  0  0  0  0  0  0  0  0  0  0
   16.6342   -9.6605  -14.1399 C   0  0  0  0  0  0  0  0  0  0  0  0
   16.2971   -8.7862  -14.9868 O   0  0  0  0  0  0  0  0  0  0  0  0
   16.1303   -9.5202  -12.8424 N   0  0  0  0  0  0  0  0  0  0  0  0
   15.1418   -8.5066  -12.4709 C   0  0  1  0  0  0  0  0  0  0  0  0
   14.4095   -8.8918  -11.2414 C   0  0  0  0  0  0  0  0  0  0  0  0
   13.2954   -9.8523  -11.5349 C   0  0  0  0  0  0  0  0  0  0  0  0
   12.4981  -10.1686  -10.2674 C   0  0  0  0  0  0  0  0  0  0  0  0
   11.4852  -11.2255  -10.6578 C   0  0  0  0  0  0  0  0  0  0  0  0
   10.8001  -11.6972   -9.4705 N   0  0  0  0  0  0  0  0  0  0  0  0
   15.7760   -7.1882  -12.4127 C   0  0  0  0  0  0  0  0  0  0  0  0
   16.8232   -6.8919  -11.7961 O   0  0  0  0  0  0  0  0  0  0  0  0
   17.0044   -2.3507  -13.5804 N   0  0  0  0  0  0  0  0  0  0  0  0
   17.2305   -3.3696  -14.5720 C   0  0  0  0  0  0  0  0  0  0  0  0
   17.8979   -3.0855  -15.5957 O   0  0  0  0  0  0  0  0  0  0  0  0
   16.6820   -4.7341  -14.3847 C   0  0  0  0  0  0  0  0  0  0  0  0
   15.8029   -4.8223  -13.1780 C   0  0  2  0  0  0  0  0  0  0  0  0
   15.1592   -6.1073  -13.1230 N   0  0  0  0  0  0  0  0  0  0  0  0
   14.8183   -3.7100  -13.1577 C   0  0  0  0  0  0  0  0  0  0  0  0
   15.1889   -2.4701  -12.6568 O   0  0  0  0  0  0  0  0  0  0  0  0
   13.6468   -3.8380  -13.5785 O   0  0  0  0  0  0  0  0  0  0  0  0
  2  1  1  0
  2  3  2  0
  4  5  1  0
  4  2  1  0
  5  7  1  0
  5  6  1  6
  7  8  2  0
  9 10  1  0
  9  7  1  0
 11 12  1  0
 10 11  1  1
 13 14  1  0
 13 12  1  0
 15 14  1  0
 16 17  2  0
 16 10  1  0
 18 19  1  0
 19 20  2  0
 19 21  1  0
 22 21  1  6
 22 24  1  0
 22 23  1  0
 23 16  1  0
 24 25  1  0
 26 24  2  0
M  END
$$$$
