NKN.pdb
     RDKit          3D

 26 25  0  0  1  0  0  0  0  0999 V2000
   19.6812  -14.6045  -15.7623 N   0  0  0  0  0  0  0  0  0  0  0  0
   20.9537  -15.1150  -16.0818 C   0  0  0  0  0  0  0  0  0  0  0  0
   21.8113  -14.3555  -16.5844 O   0  0  0  0  0  0  0  0  0  0  0  0
   21.2951  -16.5262  -15.8361 C   0  0  0  0  0  0  0  0  0  0  0  0
   22.3085  -17.0579  -16.8120 C   0  0  2  0  0  0  0  0  0  0  0  0
   21.7328  -17.2644  -18.1257 N   0  0  0  0  0  0  0  0  0  0  0  0
   22.9036  -18.2886  -16.2602 C   0  0  0  0  0  0  0  0  0  0  0  0
   22.2139  -19.2162  -15.7510 O   0  0  0  0  0  0  0  0  0  0  0  0
   24.2909  -18.4662  -16.2881 N   0  0  0  0  0  0  0  0  0  0  0  0
   24.9547  -19.6778  -15.8041 C   0  0  1  0  0  0  0  0  0  0  0  0
   26.1867  -19.9638  -16.5764 C   0  0  0  0  0  0  0  0  0  0  0  0
   26.8535  -21.2252  -16.1139 C   0  0  0  0  0  0  0  0  0  0  0  0
   28.1026  -21.5206  -16.9475 C   0  0  0  0  0  0  0  0  0  0  0  0
   28.6246  -22.8593  -16.4670 C   0  0  0  0  0  0  0  0  0  0  0  0
   29.8709  -23.1606  -17.1435 N   0  0  0  0  0  0  0  0  0  0  0  0
   25.1509  -19.5949  -14.3555 C   0  0  0  0  0  0  0  0  0  0  0  0
   25.7991  -18.7196  -13.7405 O   0  0  0  0  0  0  0  0  0  0  0  0
   24.9982  -20.6488   -9.3463 N   0  0  0  0  0  0  0  0  0  0  0  0
   23.6848  -20.8195   -9.9104 C   0  0  0  0  0  0  0  0  0  0  0  0
   22.7069  -20.9756   -9.1400 O   0  0  0  0  0  0  0  0  0  0  0  0
   23.4922  -20.8109  -11.3803 C   0  0  0  0  0  0  0  0  0  0  0  0
   24.7797  -20.5999  -12.1114 C   0  0  2  0  0  0  0  0  0  0  0  0
   24.5529  -20.6035  -13.5317 N   0  0  0  0  0  0  0  0  0  0  0  0
   25.7886  -21.6143  -11.7106 C   0  0  0  0  0  0  0  0  0  0  0  0
   26.4282  -21.5034  -10.4841 O   0  0  0  0  0  0  0  0  0  0  0  0
   26.0968  -22.5838  -12.4391 O   0  0  0  0  0  0  0  0  0  0  0  0
  2  1  1  0
  2  3  2  0
  4  5  1  0
  4  2  1  0
  5  7  1  0
  5  6  1  6
  7  8  2  0
  9 10  1  0
  9  7  1  0
 11 12  1  0
 10 11  1  6
 13 14  1  0
 13 12  1  0
 15 14  1  0
 16 17  2  0
 16 10  1  0
 18 19  1  0
 19 20  2  0
 19 21  1  0
 22 21  1  1
 22 24  1  0
 22 23  1  0
 23 16  1  0
 24 25  1  0
 26 24  2  0
M  END
$$$$
