KNH.pdb
     RDKit          3D

 28 28  0  0  1  0  0  0  0  0999 V2000
   16.9993  -14.7271  -16.7160 N   0  0  0  0  0  0  0  0  0  0  0  0
   17.6663  -13.9291  -15.6786 C   0  0  1  0  0  0  0  0  0  0  0  0
   19.0593  -14.4753  -15.5113 C   0  0  0  0  0  0  0  0  0  0  0  0
   19.1093  -15.9149  -15.1246 C   0  0  0  0  0  0  0  0  0  0  0  0
   20.5225  -16.4501  -15.1738 C   0  0  0  0  0  0  0  0  0  0  0  0
   20.5553  -17.9257  -14.8816 C   0  0  0  0  0  0  0  0  0  0  0  0
   21.9756  -18.3099  -14.8570 N   0  0  0  0  0  0  0  0  0  0  0  0
   17.6325  -12.4939  -16.0118 C   0  0  0  0  0  0  0  0  0  0  0  0
   18.0595  -12.1139  -17.1252 O   0  0  0  0  0  0  0  0  0  0  0  0
   14.9819  -10.4763  -17.1210 N   0  0  0  0  0  0  0  0  0  0  0  0
   14.7286   -9.8390  -15.8681 C   0  0  0  0  0  0  0  0  0  0  0  0
   13.5442   -9.4778  -15.6367 O   0  0  0  0  0  0  0  0  0  0  0  0
   15.7670   -9.5905  -14.8566 C   0  0  0  0  0  0  0  0  0  0  0  0
   17.0933  -10.1418  -15.3291 C   0  0  2  0  0  0  0  0  0  0  0  0
   17.1208  -11.5619  -15.0758 N   0  0  0  0  0  0  0  0  0  0  0  0
   18.1741   -9.4725  -14.5487 C   0  0  0  0  0  0  0  0  0  0  0  0
   18.4278   -9.8907  -13.3875 O   0  0  0  0  0  0  0  0  0  0  0  0
   18.8830   -8.3914  -15.1291 N   0  0  0  0  0  0  0  0  0  0  0  0
   19.9597   -7.7127  -14.4116 C   0  0  1  0  0  0  0  0  0  0  0  0
   21.0416   -8.6574  -14.0336 C   0  0  0  0  0  0  0  0  0  0  0  0
   21.8024   -9.0884  -15.2206 C   0  0  0  0  0  0  0  0  0  0  0  0
   21.5940  -10.2852  -15.9116 C   0  0  0  0  0  0  0  0  0  0  0  0
   22.4690  -10.3123  -16.9150 N   0  0  0  0  0  0  0  0  0  0  0  0
   23.2141   -9.2055  -16.8961 C   0  0  0  0  0  0  0  0  0  0  0  0
   22.8083   -8.4586  -15.8632 N   0  0  0  0  0  0  0  0  0  0  0  0
   20.3982   -6.5071  -15.1342 C   0  0  0  0  0  0  0  0  0  0  0  0
   21.2925   -5.5934  -14.5987 O   0  0  0  0  0  0  0  0  0  0  0  0
   19.9742   -6.2469  -16.2867 O   0  0  0  0  0  0  0  0  0  0  0  0
  2  1  1  6
  3  2  1  0
  3  4  1  0
  4  5  1  0
  5  6  1  0
  7  6  1  0
  8  9  2  0
  8  2  1  0
 10 11  1  0
 11 12  2  0
 11 13  1  0
 14 13  1  1
 14 15  1  0
 15  8  1  0
 16 17  2  0
 16 14  1  0
 18 16  1  0
 19 20  1  6
 19 18  1  0
 20 21  1  0
 21 25  1  0
 21 22  2  0
 22 23  1  0
 24 23  1  0
 25 24  2  0
 26 19  1  0
 27 26  1  0
 28 26  2  0
M  END
$$$$
