KNH.pdb
     RDKit          3D

 28 28  0  0  1  0  0  0  0  0999 V2000
   19.7848  -12.1066  -18.8152 N   0  0  0  0  0  0  0  0  0  0  0  0
   21.0898  -11.6866  -19.3433 C   0  0  1  0  0  0  0  0  0  0  0  0
   21.2155  -12.2419  -20.7370 C   0  0  0  0  0  0  0  0  0  0  0  0
   20.5905  -13.5839  -20.9194 C   0  0  0  0  0  0  0  0  0  0  0  0
   21.4435  -14.6760  -20.3149 C   0  0  0  0  0  0  0  0  0  0  0  0
   20.8886  -16.0379  -20.6331 C   0  0  0  0  0  0  0  0  0  0  0  0
   21.8232  -17.0115  -20.0466 N   0  0  0  0  0  0  0  0  0  0  0  0
   21.2407  -10.2221  -19.2771 C   0  0  0  0  0  0  0  0  0  0  0  0
   22.2798   -9.6928  -19.7314 O   0  0  0  0  0  0  0  0  0  0  0  0
   20.1957   -7.5815  -21.3733 N   0  0  0  0  0  0  0  0  0  0  0  0
   19.0552   -7.2455  -20.5817 C   0  0  0  0  0  0  0  0  0  0  0  0
   18.0474   -6.7953  -21.1887 O   0  0  0  0  0  0  0  0  0  0  0  0
   19.0055   -7.3982  -19.1197 C   0  0  0  0  0  0  0  0  0  0  0  0
   20.3014   -7.9926  -18.6163 C   0  0  2  0  0  0  0  0  0  0  0  0
   20.2158   -9.4302  -18.7034 N   0  0  0  0  0  0  0  0  0  0  0  0
   20.4712   -7.5861  -17.1912 C   0  0  0  0  0  0  0  0  0  0  0  0
   20.1924   -8.4197  -16.2883 O   0  0  0  0  0  0  0  0  0  0  0  0
   20.9384   -6.2822  -16.8913 N   0  0  0  0  0  0  0  0  0  0  0  0
   21.3104   -5.8996  -15.5311 C   0  0  1  0  0  0  0  0  0  0  0  0
   22.3684   -6.7881  -14.9860 C   0  0  0  0  0  0  0  0  0  0  0  0
   21.8532   -7.5916  -13.8623 C   0  0  0  0  0  0  0  0  0  0  0  0
   20.5385   -7.5533  -13.3897 C   0  0  0  0  0  0  0  0  0  0  0  0
   20.4647   -8.4128  -12.3753 N   0  0  0  0  0  0  0  0  0  0  0  0
   21.6530   -8.9883  -12.1822 C   0  0  0  0  0  0  0  0  0  0  0  0
   22.5003   -8.4881  -13.0884 N   0  0  0  0  0  0  0  0  0  0  0  0
   21.5920   -4.4569  -15.4465 C   0  0  0  0  0  0  0  0  0  0  0  0
   21.2504   -3.6877  -14.3450 O   0  0  0  0  0  0  0  0  0  0  0  0
   22.1626   -3.8475  -16.3839 O   0  0  0  0  0  0  0  0  0  0  0  0
  2  1  1  6
  3  2  1  0
  3  4  1  0
  4  5  1  0
  5  6  1  0
  7  6  1  0
  8  9  2  0
  8  2  1  0
 10 11  1  0
 11 12  2  0
 11 13  1  0
 14 13  1  1
 14 15  1  0
 15  8  1  0
 16 17  2  0
 16 14  1  0
 18 16  1  0
 19 20  1  6
 19 18  1  0
 20 21  1  0
 21 25  1  0
 21 22  2  0
 22 23  1  0
 24 23  1  0
 25 24  2  0
 26 19  1  0
 27 26  1  0
 28 26  2  0
M  END
$$$$
