KNH.pdb
     RDKit          3D

 28 28  0  0  1  0  0  0  0  0999 V2000
   24.7768  -18.9746  -20.7744 N   0  0  0  0  0  0  0  0  0  0  0  0
   25.2967  -18.6328  -19.4437 C   0  0  1  0  0  0  0  0  0  0  0  0
   24.5782  -17.3936  -18.9801 C   0  0  0  0  0  0  0  0  0  0  0  0
   23.1038  -17.5617  -18.8299 C   0  0  0  0  0  0  0  0  0  0  0  0
   22.4245  -16.2410  -18.5466 C   0  0  0  0  0  0  0  0  0  0  0  0
   21.5877  -16.3170  -17.2984 C   0  0  0  0  0  0  0  0  0  0  0  0
   21.9135  -15.1181  -16.5098 N   0  0  0  0  0  0  0  0  0  0  0  0
   25.1662  -19.7708  -18.5164 C   0  0  0  0  0  0  0  0  0  0  0  0
   25.5831  -20.8973  -18.8676 O   0  0  0  0  0  0  0  0  0  0  0  0
   26.4133  -22.7584  -16.1898 N   0  0  0  0  0  0  0  0  0  0  0  0
   26.9910  -21.5271  -15.7534 C   0  0  0  0  0  0  0  0  0  0  0  0
   28.2108  -21.5447  -15.4391 O   0  0  0  0  0  0  0  0  0  0  0  0
   26.2413  -20.2655  -15.6565 C   0  0  0  0  0  0  0  0  0  0  0  0
   24.8207  -20.4688  -16.1325 C   0  0  2  0  0  0  0  0  0  0  0  0
   24.5736  -19.5823  -17.2437 N   0  0  0  0  0  0  0  0  0  0  0  0
   23.9046  -20.1278  -15.0059 C   0  0  0  0  0  0  0  0  0  0  0  0
   23.7758  -18.9181  -14.6776 O   0  0  0  0  0  0  0  0  0  0  0  0
   23.2074  -21.1654  -14.3384 N   0  0  0  0  0  0  0  0  0  0  0  0
   22.3111  -20.8847  -13.2192 C   0  0  1  0  0  0  0  0  0  0  0  0
   22.9501  -19.9887  -12.2218 C   0  0  0  0  0  0  0  0  0  0  0  0
   24.1241  -20.6364  -11.6087 C   0  0  0  0  0  0  0  0  0  0  0  0
   24.6253  -21.8895  -11.9716 C   0  0  0  0  0  0  0  0  0  0  0  0
   25.6826  -22.1247  -11.1969 N   0  0  0  0  0  0  0  0  0  0  0  0
   25.8756  -21.0955  -10.3697 C   0  0  0  0  0  0  0  0  0  0  0  0
   24.9257  -20.1876  -10.6201 N   0  0  0  0  0  0  0  0  0  0  0  0
   20.9871  -20.4539  -13.6980 C   0  0  0  0  0  0  0  0  0  0  0  0
   20.6788  -20.3276  -15.0435 O   0  0  0  0  0  0  0  0  0  0  0  0
   20.0621  -20.1757  -12.8962 O   0  0  0  0  0  0  0  0  0  0  0  0
  2  1  1  6
  3  2  1  0
  3  4  1  0
  4  5  1  0
  5  6  1  0
  7  6  1  0
  8  9  2  0
  8  2  1  0
 10 11  1  0
 11 12  2  0
 11 13  1  0
 14 13  1  1
 14 15  1  0
 15  8  1  0
 16 17  2  0
 16 14  1  0
 18 16  1  0
 19 20  1  1
 19 18  1  0
 20 21  1  0
 21 25  1  0
 21 22  2  0
 22 23  1  0
 24 23  1  0
 25 24  2  0
 26 19  1  0
 27 26  1  0
 28 26  2  0
M  END
$$$$
