KNH.pdb
     RDKit          3D

 28 28  0  0  1  0  0  0  0  0999 V2000
   25.9340  -33.4032  -11.1390 N   0  0  0  0  0  0  0  0  0  0  0  0
   25.4781  -33.9336   -9.8471 C   0  0  1  0  0  0  0  0  0  0  0  0
   25.2228  -35.4066  -10.0259 C   0  0  0  0  0  0  0  0  0  0  0  0
   24.3220  -35.7370  -11.1679 C   0  0  0  0  0  0  0  0  0  0  0  0
   24.0810  -37.2262  -11.2669 C   0  0  0  0  0  0  0  0  0  0  0  0
   23.2547  -37.5638  -12.4782 C   0  0  0  0  0  0  0  0  0  0  0  0
   23.0880  -39.0258  -12.4696 N   0  0  0  0  0  0  0  0  0  0  0  0
   26.4466  -33.6292   -8.7788 C   0  0  0  0  0  0  0  0  0  0  0  0
   27.2410  -32.6736   -8.9269 O   0  0  0  0  0  0  0  0  0  0  0  0
   26.3465  -32.4719   -3.8497 N   0  0  0  0  0  0  0  0  0  0  0  0
   25.2559  -32.3726   -4.7668 C   0  0  0  0  0  0  0  0  0  0  0  0
   24.2949  -31.6277   -4.4375 O   0  0  0  0  0  0  0  0  0  0  0  0
   25.2054  -33.0862   -6.0519 C   0  0  0  0  0  0  0  0  0  0  0  0
   26.4988  -33.8353   -6.2799 C   0  0  2  0  0  0  0  0  0  0  0  0
   26.4709  -34.4154   -7.6007 N   0  0  0  0  0  0  0  0  0  0  0  0
   26.5895  -34.9185   -5.2586 C   0  0  0  0  0  0  0  0  0  0  0  0
   25.9024  -35.9620   -5.4226 O   0  0  0  0  0  0  0  0  0  0  0  0
   27.4399  -34.7478   -4.1379 N   0  0  0  0  0  0  0  0  0  0  0  0
   27.9703  -35.8930   -3.4016 C   0  0  1  0  0  0  0  0  0  0  0  0
   28.6393  -36.8604   -4.3085 C   0  0  0  0  0  0  0  0  0  0  0  0
   28.4759  -38.2411   -3.8178 C   0  0  0  0  0  0  0  0  0  0  0  0
   27.2677  -38.7995   -3.3916 C   0  0  0  0  0  0  0  0  0  0  0  0
   27.5263  -40.0539   -3.0271 N   0  0  0  0  0  0  0  0  0  0  0  0
   28.8232  -40.3170   -3.1983 C   0  0  0  0  0  0  0  0  0  0  0  0
   29.4030  -39.2121   -3.6804 N   0  0  0  0  0  0  0  0  0  0  0  0
   28.7701  -35.4537   -2.2462 C   0  0  0  0  0  0  0  0  0  0  0  0
   29.1686  -36.3158   -1.2364 O   0  0  0  0  0  0  0  0  0  0  0  0
   29.1326  -34.2585   -2.1200 O   0  0  0  0  0  0  0  0  0  0  0  0
  2  1  1  6
  3  2  1  0
  3  4  1  0
  4  5  1  0
  5  6  1  0
  7  6  1  0
  8  9  2  0
  8  2  1  0
 10 11  1  0
 11 12  2  0
 11 13  1  0
 14 13  1  1
 14 15  1  0
 15  8  1  0
 16 17  2  0
 16 14  1  0
 18 16  1  0
 19 20  1  6
 19 18  1  0
 20 21  1  0
 21 25  1  0
 21 22  2  0
 22 23  1  0
 24 23  1  0
 25 24  2  0
 26 19  1  0
 27 26  1  0
 28 26  2  0
M  END
$$$$
