KNH.pdb
     RDKit          3D

 28 28  0  0  1  0  0  0  0  0999 V2000
   24.0476  -13.9892  -18.7321 N   0  0  0  0  0  0  0  0  0  0  0  0
   22.7133  -13.4200  -18.5001 C   0  0  1  0  0  0  0  0  0  0  0  0
   21.7448  -14.5667  -18.3826 C   0  0  0  0  0  0  0  0  0  0  0  0
   21.8215  -15.5492  -19.5022 C   0  0  0  0  0  0  0  0  0  0  0  0
   20.8526  -16.6921  -19.3000 C   0  0  0  0  0  0  0  0  0  0  0  0
   20.9286  -17.6763  -20.4355 C   0  0  0  0  0  0  0  0  0  0  0  0
   20.0241  -18.7825  -20.0838 N   0  0  0  0  0  0  0  0  0  0  0  0
   22.7153  -12.5283  -17.3268 C   0  0  0  0  0  0  0  0  0  0  0  0
   22.0615  -12.8529  -16.3102 O   0  0  0  0  0  0  0  0  0  0  0  0
   25.2997  -12.2762  -15.2377 N   0  0  0  0  0  0  0  0  0  0  0  0
   25.7551  -10.9482  -15.5007 C   0  0  0  0  0  0  0  0  0  0  0  0
   26.9524  -10.6840  -15.2118 O   0  0  0  0  0  0  0  0  0  0  0  0
   24.9066   -9.8968  -16.0819 C   0  0  0  0  0  0  0  0  0  0  0  0
   23.4912  -10.4035  -16.2438 C   0  0  2  0  0  0  0  0  0  0  0  0
   23.4520  -11.3187  -17.3584 N   0  0  0  0  0  0  0  0  0  0  0  0
   22.6125   -9.2318  -16.5263 C   0  0  0  0  0  0  0  0  0  0  0  0
   22.6723   -8.6926  -17.6636 O   0  0  0  0  0  0  0  0  0  0  0  0
   21.7390   -8.7584  -15.5157 N   0  0  0  0  0  0  0  0  0  0  0  0
   20.8938   -7.5853  -15.7265 C   0  0  1  0  0  0  0  0  0  0  0  0
   19.4569   -7.9084  -15.5349 C   0  0  0  0  0  0  0  0  0  0  0  0
   18.9698   -8.7961  -16.6066 C   0  0  0  0  0  0  0  0  0  0  0  0
   19.2727   -8.6509  -17.9633 C   0  0  0  0  0  0  0  0  0  0  0  0
   18.6521   -9.6371  -18.6079 N   0  0  0  0  0  0  0  0  0  0  0  0
   17.9780  -10.3925  -17.7386 C   0  0  0  0  0  0  0  0  0  0  0  0
   18.1712   -9.8803  -16.5180 N   0  0  0  0  0  0  0  0  0  0  0  0
   21.3896   -6.4319  -14.9572 C   0  0  0  0  0  0  0  0  0  0  0  0
   20.7956   -5.1806  -15.0119 O   0  0  0  0  0  0  0  0  0  0  0  0
   22.3899   -6.5305  -14.2053 O   0  0  0  0  0  0  0  0  0  0  0  0
  2  1  1  1
  3  2  1  0
  3  4  1  0
  4  5  1  0
  5  6  1  0
  7  6  1  0
  8  9  2  0
  8  2  1  0
 10 11  1  0
 11 12  2  0
 11 13  1  0
 14 13  1  6
 14 15  1  0
 15  8  1  0
 16 17  2  0
 16 14  1  0
 18 16  1  0
 19 20  1  1
 19 18  1  0
 20 21  1  0
 21 25  1  0
 21 22  2  0
 22 23  1  0
 24 23  1  0
 25 24  2  0
 26 19  1  0
 27 26  1  0
 28 26  2  0
M  END
$$$$
