KNH.pdb
     RDKit          3D

 28 28  0  0  1  0  0  0  0  0999 V2000
   27.9738  -10.3774  -17.9372 N   0  0  0  0  0  0  0  0  0  0  0  0
   29.4342  -10.5313  -17.8998 C   0  0  1  0  0  0  0  0  0  0  0  0
   29.8839  -10.9326  -19.2795 C   0  0  0  0  0  0  0  0  0  0  0  0
   29.3806  -12.2646  -19.7234 C   0  0  0  0  0  0  0  0  0  0  0  0
   29.9518  -12.6491  -21.0695 C   0  0  0  0  0  0  0  0  0  0  0  0
   29.4641  -14.0060  -21.4993 C   0  0  0  0  0  0  0  0  0  0  0  0
   30.1179  -14.2906  -22.7865 N   0  0  0  0  0  0  0  0  0  0  0  0
   30.0828   -9.3049  -17.4025 C   0  0  0  0  0  0  0  0  0  0  0  0
   29.4414   -8.2303  -17.4022 O   0  0  0  0  0  0  0  0  0  0  0  0
   33.6178   -6.1036  -15.3543 N   0  0  0  0  0  0  0  0  0  0  0  0
   34.0128   -7.4524  -15.0992 C   0  0  0  0  0  0  0  0  0  0  0  0
   35.0594   -7.6255  -14.4199 O   0  0  0  0  0  0  0  0  0  0  0  0
   33.2678   -8.6243  -15.5840 C   0  0  0  0  0  0  0  0  0  0  0  0
   32.1161   -8.1812  -16.4578 C   0  0  2  0  0  0  0  0  0  0  0  0
   31.4182   -9.3515  -16.9321 N   0  0  0  0  0  0  0  0  0  0  0  0
   32.6801   -7.4300  -17.6165 C   0  0  0  0  0  0  0  0  0  0  0  0
   33.2295   -6.3161  -17.4041 O   0  0  0  0  0  0  0  0  0  0  0  0
   32.5845   -7.9844  -18.9172 N   0  0  0  0  0  0  0  0  0  0  0  0
   33.1426   -7.2995  -20.0809 C   0  0  1  0  0  0  0  0  0  0  0  0
   34.4969   -7.8097  -20.4149 C   0  0  0  0  0  0  0  0  0  0  0  0
   35.0756   -7.0639  -21.5474 C   0  0  0  0  0  0  0  0  0  0  0  0
   34.7364   -5.7542  -21.8980 C   0  0  0  0  0  0  0  0  0  0  0  0
   35.4665   -5.4358  -22.9652 N   0  0  0  0  0  0  0  0  0  0  0  0
   36.2433   -6.4659  -23.3060 C   0  0  0  0  0  0  0  0  0  0  0  0
   36.0055   -7.4591  -22.4420 N   0  0  0  0  0  0  0  0  0  0  0  0
   32.1812   -7.2837  -21.1960 C   0  0  0  0  0  0  0  0  0  0  0  0
   31.3143   -6.2268  -21.4260 O   0  0  0  0  0  0  0  0  0  0  0  0
   32.1007   -8.2429  -22.0017 O   0  0  0  0  0  0  0  0  0  0  0  0
  2  1  1  6
  3  2  1  0
  3  4  1  0
  4  5  1  0
  5  6  1  0
  7  6  1  0
  8  9  2  0
  8  2  1  0
 10 11  1  0
 11 12  2  0
 11 13  1  0
 14 13  1  1
 14 15  1  0
 15  8  1  0
 16 17  2  0
 16 14  1  0
 18 16  1  0
 19 20  1  6
 19 18  1  0
 20 21  1  0
 21 25  1  0
 21 22  2  0
 22 23  1  0
 24 23  1  0
 25 24  2  0
 26 19  1  0
 27 26  1  0
 28 26  2  0
M  END
$$$$
