LHP.pdb
     RDKit          3D

 26 27  0  0  1  0  0  0  0  0999 V2000
    8.0027  -12.1865   19.0879 C   0  0  0  0  0  0  0  0  0  0  0  0
    8.5261  -13.5973   19.2503 C   0  0  1  0  0  0  0  0  0  0  0  0
    9.6845  -13.5035   20.2344 C   0  0  0  0  0  0  0  0  0  0  0  0
    7.4935  -14.5239   19.7928 C   0  0  0  0  0  0  0  0  0  0  0  0
    8.0688  -15.6333   20.6219 C   0  0  2  0  0  0  0  0  0  0  0  0
    7.8191  -16.9195   19.9615 N   0  0  0  0  0  0  0  0  0  0  0  0
    7.5123  -15.7234   21.9705 C   0  0  0  0  0  0  0  0  0  0  0  0
    6.2566  -15.8597   22.1263 O   0  0  0  0  0  0  0  0  0  0  0  0
    8.3412  -15.6626   23.1249 N   0  0  0  0  0  0  0  0  0  0  0  0
    7.7105  -15.8372   24.4526 C   0  0  1  0  0  0  0  0  0  0  0  0
    7.8928  -17.2582   24.8671 C   0  0  0  0  0  0  0  0  0  0  0  0
    7.0946  -18.2829   24.2210 C   0  0  0  0  0  0  0  0  0  0  0  0
    5.7715  -18.5332   24.1180 C   0  0  0  0  0  0  0  0  0  0  0  0
    5.5477  -19.6060   23.2990 N   0  0  0  0  0  0  0  0  0  0  0  0
    6.7555  -20.0004   22.9059 C   0  0  0  0  0  0  0  0  0  0  0  0
    7.7042  -19.2404   23.4306 N   0  0  0  0  0  0  0  0  0  0  0  0
    8.3002  -14.8711   25.4058 C   0  0  0  0  0  0  0  0  0  0  0  0
    9.5226  -14.9592   25.7038 O   0  0  0  0  0  0  0  0  0  0  0  0
    7.6009  -13.7936   26.0629 N   0  0  0  0  0  0  0  0  0  0  0  0
    6.2662  -13.3156   25.8458 C   0  0  0  0  0  0  0  0  0  0  0  0
    6.0533  -12.1291   26.8005 C   0  0  0  0  0  0  0  0  0  0  0  0
    7.0031  -12.4736   27.9042 C   0  0  0  0  0  0  0  0  0  0  0  0
    8.2049  -12.9903   27.1417 C   0  0  1  0  0  0  0  0  0  0  0  0
    8.9881  -13.8595   28.0837 C   0  0  0  0  0  0  0  0  0  0  0  0
    9.8879  -13.3815   28.7884 O   0  0  0  0  0  0  0  0  0  0  0  0
    8.6996  -15.2066   28.1631 O   0  0  0  0  0  0  0  0  0  0  0  0
  2  3  1  1
  2  1  1  0
  4  2  1  0
  5  4  1  0
  5  6  1  6
  7  8  2  0
  7  5  1  0
  9  7  1  0
 10  9  1  0
 10 11  1  1
 11 12  1  0
 12 13  2  0
 12 16  1  0
 13 14  1  0
 14 15  1  0
 16 15  2  0
 17 18  2  0
 17 10  1  0
 19 17  1  0
 20 19  1  0
 21 20  1  0
 22 23  1  0
 22 21  1  0
 23 19  1  0
 24 26  1  0
 23 24  1  1
 25 24  2  0
M  END
$$$$
