LHP.pdb
     RDKit          3D

 26 27  0  0  1  0  0  0  0  0999 V2000
    8.1142  -12.3776   20.4347 C   0  0  0  0  0  0  0  0  0  0  0  0
    7.9755  -13.6042   19.5590 C   0  0  1  0  0  0  0  0  0  0  0  0
    8.2853  -13.1436   18.1409 C   0  0  0  0  0  0  0  0  0  0  0  0
    8.9267  -14.6839   19.9444 C   0  0  0  0  0  0  0  0  0  0  0  0
    8.2457  -15.9488   20.3748 C   0  0  2  0  0  0  0  0  0  0  0  0
    7.1249  -16.2343   19.4720 N   0  0  0  0  0  0  0  0  0  0  0  0
    7.7079  -15.9069   21.7333 C   0  0  0  0  0  0  0  0  0  0  0  0
    6.4512  -15.8127   21.9110 O   0  0  0  0  0  0  0  0  0  0  0  0
    8.5561  -15.9689   22.8735 N   0  0  0  0  0  0  0  0  0  0  0  0
    7.9327  -16.1482   24.2040 C   0  0  1  0  0  0  0  0  0  0  0  0
    8.1904  -17.5479   24.6498 C   0  0  0  0  0  0  0  0  0  0  0  0
    7.7059  -17.9677   25.9512 C   0  0  0  0  0  0  0  0  0  0  0  0
    6.8977  -17.4226   26.8858 C   0  0  0  0  0  0  0  0  0  0  0  0
    6.6930  -18.3005   27.9151 N   0  0  0  0  0  0  0  0  0  0  0  0
    7.3880  -19.3863   27.5885 C   0  0  0  0  0  0  0  0  0  0  0  0
    8.0054  -19.2312   26.4276 N   0  0  0  0  0  0  0  0  0  0  0  0
    8.4672  -15.1311   25.1364 C   0  0  0  0  0  0  0  0  0  0  0  0
    9.6978  -15.1269   25.4128 O   0  0  0  0  0  0  0  0  0  0  0  0
    7.7030  -14.0997   25.7952 N   0  0  0  0  0  0  0  0  0  0  0  0
    6.3269  -13.7381   25.6149 C   0  0  0  0  0  0  0  0  0  0  0  0
    6.0480  -12.5512   26.5520 C   0  0  0  0  0  0  0  0  0  0  0  0
    7.0588  -12.7909   27.6288 C   0  0  0  0  0  0  0  0  0  0  0  0
    8.2736  -13.2247   26.8358 C   0  0  1  0  0  0  0  0  0  0  0  0
    9.1567  -14.0046   27.7676 C   0  0  0  0  0  0  0  0  0  0  0  0
    9.1371  -15.2433   27.7721 O   0  0  0  0  0  0  0  0  0  0  0  0
    9.9991  -13.3306   28.6278 O   0  0  0  0  0  0  0  0  0  0  0  0
  2  3  1  6
  2  1  1  0
  4  2  1  0
  5  4  1  0
  5  6  1  6
  7  8  2  0
  7  5  1  0
  9  7  1  0
 10  9  1  0
 10 11  1  1
 11 12  1  0
 12 13  2  0
 12 16  1  0
 13 14  1  0
 14 15  1  0
 16 15  2  0
 17 18  2  0
 17 10  1  0
 19 17  1  0
 20 19  1  0
 21 20  1  0
 22 23  1  0
 22 21  1  0
 23 19  1  0
 24 26  1  0
 23 24  1  1
 25 24  2  0
M  END
$$$$
