LHP.pdb
     RDKit          3D

 26 27  0  0  1  0  0  0  0  0999 V2000
    8.1676  -12.4726   18.4906 C   0  0  0  0  0  0  0  0  0  0  0  0
    8.4779  -13.8421   19.0554 C   0  0  1  0  0  0  0  0  0  0  0  0
    9.9339  -13.7920   19.4989 C   0  0  0  0  0  0  0  0  0  0  0  0
    7.6187  -14.1787   20.2248 C   0  0  0  0  0  0  0  0  0  0  0  0
    7.9366  -15.5136   20.8298 C   0  0  2  0  0  0  0  0  0  0  0  0
    7.3899  -16.5792   19.9822 N   0  0  0  0  0  0  0  0  0  0  0  0
    7.3935  -15.7068   22.1730 C   0  0  0  0  0  0  0  0  0  0  0  0
    6.1339  -15.6811   22.3533 O   0  0  0  0  0  0  0  0  0  0  0  0
    8.2397  -15.9248   23.2955 N   0  0  0  0  0  0  0  0  0  0  0  0
    7.6209  -15.9974   24.6382 C   0  0  1  0  0  0  0  0  0  0  0  0
    7.6399  -17.4221   25.0789 C   0  0  0  0  0  0  0  0  0  0  0  0
    6.8191  -18.3847   24.3688 C   0  0  0  0  0  0  0  0  0  0  0  0
    6.0355  -18.3385   23.2698 C   0  0  0  0  0  0  0  0  0  0  0  0
    5.5470  -19.5821   22.9753 N   0  0  0  0  0  0  0  0  0  0  0  0
    6.0485  -20.3825   23.9115 C   0  0  0  0  0  0  0  0  0  0  0  0
    6.8112  -19.7112   24.7604 N   0  0  0  0  0  0  0  0  0  0  0  0
    8.3426  -15.0920   25.5596 C   0  0  0  0  0  0  0  0  0  0  0  0
    9.5351  -15.3510   25.8784 O   0  0  0  0  0  0  0  0  0  0  0  0
    7.8094  -13.8944   26.1622 N   0  0  0  0  0  0  0  0  0  0  0  0
    6.6228  -13.1626   25.8250 C   0  0  0  0  0  0  0  0  0  0  0  0
    6.5568  -11.9530   26.7721 C   0  0  0  0  0  0  0  0  0  0  0  0
    7.3080  -12.4737   27.9568 C   0  0  0  0  0  0  0  0  0  0  0  0
    8.4524  -13.2216   27.3058 C   0  0  1  0  0  0  0  0  0  0  0  0
    8.9533  -14.2243   28.3058 C   0  0  0  0  0  0  0  0  0  0  0  0
    8.6586  -15.4233   28.2041 O   0  0  0  0  0  0  0  0  0  0  0  0
    9.7513  -13.8021   29.3493 O   0  0  0  0  0  0  0  0  0  0  0  0
  2  3  1  1
  2  1  1  0
  4  2  1  0
  5  4  1  0
  5  6  1  6
  7  8  2  0
  7  5  1  0
  9  7  1  0
 10  9  1  0
 10 11  1  1
 11 12  1  0
 12 13  2  0
 12 16  1  0
 13 14  1  0
 14 15  1  0
 16 15  2  0
 17 18  2  0
 17 10  1  0
 19 17  1  0
 20 19  1  0
 21 20  1  0
 22 23  1  0
 22 21  1  0
 23 19  1  0
 24 26  1  0
 23 24  1  1
 25 24  2  0
M  END
$$$$
