LHP.pdb
     RDKit          3D

 26 27  0  0  1  0  0  0  0  0999 V2000
   13.9567  -17.7800   19.3963 C   0  0  0  0  0  0  0  0  0  0  0  0
   12.9918  -18.0557   20.5293 C   0  0  1  0  0  0  0  0  0  0  0  0
   13.8298  -18.6342   21.6617 C   0  0  0  0  0  0  0  0  0  0  0  0
   12.3100  -16.8192   21.0041 C   0  0  0  0  0  0  0  0  0  0  0  0
   11.3774  -17.0600   22.1535 C   0  0  2  0  0  0  0  0  0  0  0  0
   10.4088  -18.1003   21.7898 N   0  0  0  0  0  0  0  0  0  0  0  0
   10.6149  -15.8820   22.5628 C   0  0  0  0  0  0  0  0  0  0  0  0
   11.2273  -14.8062   22.8580 O   0  0  0  0  0  0  0  0  0  0  0  0
    9.1947  -15.9031   22.6414 N   0  0  0  0  0  0  0  0  0  0  0  0
    8.4956  -14.6655   23.0544 C   0  0  1  0  0  0  0  0  0  0  0  0
    7.3316  -14.4669   22.1434 C   0  0  0  0  0  0  0  0  0  0  0  0
    7.5804  -14.1832   20.7426 C   0  0  0  0  0  0  0  0  0  0  0  0
    8.0540  -13.1201   20.0575 C   0  0  0  0  0  0  0  0  0  0  0  0
    8.1743  -13.4199   18.7280 N   0  0  0  0  0  0  0  0  0  0  0  0
    7.7682  -14.6816   18.6188 C   0  0  0  0  0  0  0  0  0  0  0  0
    7.4065  -15.1740   19.7934 N   0  0  0  0  0  0  0  0  0  0  0  0
    8.1099  -14.7730   24.4790 C   0  0  0  0  0  0  0  0  0  0  0  0
    8.0847  -15.9061   25.0323 O   0  0  0  0  0  0  0  0  0  0  0  0
    7.7409  -13.6776   25.3425 N   0  0  0  0  0  0  0  0  0  0  0  0
    7.7145  -12.2717   25.0601 C   0  0  0  0  0  0  0  0  0  0  0  0
    7.2732  -11.5625   26.3513 C   0  0  0  0  0  0  0  0  0  0  0  0
    6.4614  -12.6354   27.0059 C   0  0  0  0  0  0  0  0  0  0  0  0
    7.2884  -13.8739   26.7321 C   0  0  1  0  0  0  0  0  0  0  0  0
    6.3663  -15.0551   26.8343 C   0  0  0  0  0  0  0  0  0  0  0  0
    6.2779  -15.7018   27.8873 O   0  0  0  0  0  0  0  0  0  0  0  0
    5.6093  -15.4221   25.7405 O   0  0  0  0  0  0  0  0  0  0  0  0
  2  3  1  1
  2  1  1  0
  4  2  1  0
  5  4  1  0
  5  6  1  6
  7  8  2  0
  7  5  1  0
  9  7  1  0
 10  9  1  0
 10 11  1  6
 11 12  1  0
 12 13  2  0
 12 16  1  0
 13 14  1  0
 14 15  1  0
 16 15  2  0
 17 18  2  0
 17 10  1  0
 19 17  1  0
 20 19  1  0
 21 20  1  0
 22 23  1  0
 22 21  1  0
 23 19  1  0
 24 26  1  0
 23 24  1  6
 25 24  2  0
M  END
$$$$
