LHP.pdb
     RDKit          3D

 26 27  0  0  1  0  0  0  0  0999 V2000
    7.6934  -12.0497   18.8708 C   0  0  0  0  0  0  0  0  0  0  0  0
    8.0960  -13.4867   19.1232 C   0  0  1  0  0  0  0  0  0  0  0  0
    9.4588  -13.4270   19.8003 C   0  0  0  0  0  0  0  0  0  0  0  0
    7.1346  -14.1945   20.0142 C   0  0  0  0  0  0  0  0  0  0  0  0
    7.6392  -15.5220   20.4958 C   0  0  2  0  0  0  0  0  0  0  0  0
    7.0869  -16.5909   19.6562 N   0  0  0  0  0  0  0  0  0  0  0  0
    7.2843  -15.8311   21.8798 C   0  0  0  0  0  0  0  0  0  0  0  0
    6.0797  -16.1191   22.1722 O   0  0  0  0  0  0  0  0  0  0  0  0
    8.2554  -15.8193   22.9191 N   0  0  0  0  0  0  0  0  0  0  0  0
    7.8039  -16.0754   24.3054 C   0  0  1  0  0  0  0  0  0  0  0  0
    8.0143  -17.5223   24.5996 C   0  0  0  0  0  0  0  0  0  0  0  0
    7.6521  -18.0293   25.9096 C   0  0  0  0  0  0  0  0  0  0  0  0
    6.9949  -17.5245   26.9760 C   0  0  0  0  0  0  0  0  0  0  0  0
    6.8470  -18.4788   27.9452 N   0  0  0  0  0  0  0  0  0  0  0  0
    7.4229  -19.5699   27.4486 C   0  0  0  0  0  0  0  0  0  0  0  0
    7.9143  -19.3467   26.2396 N   0  0  0  0  0  0  0  0  0  0  0  0
    8.5323  -15.1797   25.2310 C   0  0  0  0  0  0  0  0  0  0  0  0
    9.7457  -15.4068   25.4896 O   0  0  0  0  0  0  0  0  0  0  0  0
    7.9837  -14.0262   25.9021 N   0  0  0  0  0  0  0  0  0  0  0  0
    6.7297  -13.3647   25.6857 C   0  0  0  0  0  0  0  0  0  0  0  0
    6.6758  -12.1751   26.6588 C   0  0  0  0  0  0  0  0  0  0  0  0
    7.5603  -12.6651   27.7617 C   0  0  0  0  0  0  0  0  0  0  0  0
    8.6848  -13.3313   26.9973 C   0  0  1  0  0  0  0  0  0  0  0  0
    9.3330  -14.3152   27.9290 C   0  0  0  0  0  0  0  0  0  0  0  0
    9.1020  -15.5285   27.8312 O   0  0  0  0  0  0  0  0  0  0  0  0
   10.1958  -13.8595   28.9046 O   0  0  0  0  0  0  0  0  0  0  0  0
  2  3  1  1
  2  1  1  0
  4  2  1  0
  5  4  1  0
  5  6  1  6
  7  8  2  0
  7  5  1  0
  9  7  1  0
 10  9  1  0
 10 11  1  1
 11 12  1  0
 12 13  2  0
 12 16  1  0
 13 14  1  0
 14 15  1  0
 16 15  2  0
 17 18  2  0
 17 10  1  0
 19 17  1  0
 20 19  1  0
 21 20  1  0
 22 23  1  0
 22 21  1  0
 23 19  1  0
 24 26  1  0
 23 24  1  1
 25 24  2  0
M  END
$$$$
