LHP.pdb
     RDKit          3D

 26 27  0  0  1  0  0  0  0  0999 V2000
    7.2901  -12.1858   19.9012 C   0  0  0  0  0  0  0  0  0  0  0  0
    7.6061  -13.4097   19.0688 C   0  0  1  0  0  0  0  0  0  0  0  0
    8.6337  -12.9613   18.0383 C   0  0  0  0  0  0  0  0  0  0  0  0
    8.1789  -14.5159   19.8857 C   0  0  0  0  0  0  0  0  0  0  0  0
    8.4470  -15.7608   19.0938 C   0  0  2  0  0  0  0  0  0  0  0  0
    7.1851  -16.2819   18.5565 N   0  0  0  0  0  0  0  0  0  0  0  0
    9.0679  -16.8377   19.8629 C   0  0  0  0  0  0  0  0  0  0  0  0
    8.3352  -17.6621   20.4978 O   0  0  0  0  0  0  0  0  0  0  0  0
   10.4806  -16.9925   19.9231 N   0  0  0  0  0  0  0  0  0  0  0  0
   11.0338  -18.0663   20.7786 C   0  0  1  0  0  0  0  0  0  0  0  0
   11.8203  -18.9893   19.9104 C   0  0  0  0  0  0  0  0  0  0  0  0
   12.4646  -20.1396   20.5157 C   0  0  0  0  0  0  0  0  0  0  0  0
   13.7461  -20.5091   20.7279 C   0  0  0  0  0  0  0  0  0  0  0  0
   13.7981  -21.6773   21.4382 N   0  0  0  0  0  0  0  0  0  0  0  0
   12.5284  -22.0085   21.6548 C   0  0  0  0  0  0  0  0  0  0  0  0
   11.7023  -21.1207   21.1234 N   0  0  0  0  0  0  0  0  0  0  0  0
   11.8360  -17.4622   21.8655 C   0  0  0  0  0  0  0  0  0  0  0  0
   12.8445  -16.7615   21.5779 O   0  0  0  0  0  0  0  0  0  0  0  0
   11.5829  -17.5935   23.2798 N   0  0  0  0  0  0  0  0  0  0  0  0
   10.4710  -18.2062   23.9472 C   0  0  0  0  0  0  0  0  0  0  0  0
   10.7023  -18.0322   25.4575 C   0  0  0  0  0  0  0  0  0  0  0  0
   12.1955  -17.9531   25.5127 C   0  0  0  0  0  0  0  0  0  0  0  0
   12.5146  -17.0938   24.3075 C   0  0  1  0  0  0  0  0  0  0  0  0
   13.9389  -17.3780   23.9242 C   0  0  0  0  0  0  0  0  0  0  0  0
   14.2025  -18.0727   22.9328 O   0  0  0  0  0  0  0  0  0  0  0  0
   14.9641  -16.8578   24.6872 O   0  0  0  0  0  0  0  0  0  0  0  0
  2  3  1  6
  2  1  1  0
  4  2  1  0
  5  4  1  0
  5  6  1  1
  7  8  2  0
  7  5  1  0
  9  7  1  0
 10  9  1  0
 10 11  1  6
 11 12  1  0
 12 13  2  0
 12 16  1  0
 13 14  1  0
 14 15  1  0
 16 15  2  0
 17 18  2  0
 17 10  1  0
 19 17  1  0
 20 19  1  0
 21 20  1  0
 22 23  1  0
 22 21  1  0
 23 19  1  0
 24 26  1  0
 23 24  1  6
 25 24  2  0
M  END
$$$$
