LHP.pdb
     RDKit          3D

 26 27  0  0  1  0  0  0  0  0999 V2000
    7.0322  -12.2319   19.9362 C   0  0  0  0  0  0  0  0  0  0  0  0
    7.7652  -13.2672   19.1106 C   0  0  1  0  0  0  0  0  0  0  0  0
    9.1218  -12.6577   18.7830 C   0  0  0  0  0  0  0  0  0  0  0  0
    7.9655  -14.5431   19.8530 C   0  0  0  0  0  0  0  0  0  0  0  0
    8.6851  -15.5880   19.0534 C   0  0  2  0  0  0  0  0  0  0  0  0
    7.7170  -16.3473   18.2541 N   0  0  0  0  0  0  0  0  0  0  0  0
    9.4309  -16.5516   19.8608 C   0  0  0  0  0  0  0  0  0  0  0  0
    8.8057  -17.4642   20.4900 O   0  0  0  0  0  0  0  0  0  0  0  0
   10.8486  -16.4986   19.9649 N   0  0  0  0  0  0  0  0  0  0  0  0
   11.5298  -17.5106   20.8032 C   0  0  1  0  0  0  0  0  0  0  0  0
   12.4643  -18.2791   19.9313 C   0  0  0  0  0  0  0  0  0  0  0  0
   11.9159  -19.2482   19.0015 C   0  0  0  0  0  0  0  0  0  0  0  0
   10.7317  -19.8864   18.8819 C   0  0  0  0  0  0  0  0  0  0  0  0
   10.7083  -20.6469   17.7449 N   0  0  0  0  0  0  0  0  0  0  0  0
   11.8957  -20.4579   17.1765 C   0  0  0  0  0  0  0  0  0  0  0  0
   12.6451  -19.6324   17.8907 N   0  0  0  0  0  0  0  0  0  0  0  0
   12.2071  -16.8355   21.9324 C   0  0  0  0  0  0  0  0  0  0  0  0
   13.0496  -15.9266   21.6982 O   0  0  0  0  0  0  0  0  0  0  0  0
   12.0037  -17.1157   23.3331 N   0  0  0  0  0  0  0  0  0  0  0  0
   11.0187  -17.9523   23.9550 C   0  0  0  0  0  0  0  0  0  0  0  0
   11.2451  -17.8601   25.4732 C   0  0  0  0  0  0  0  0  0  0  0  0
   12.7061  -17.5415   25.5275 C   0  0  0  0  0  0  0  0  0  0  0  0
   12.8594  -16.5509   24.3927 C   0  0  1  0  0  0  0  0  0  0  0  0
   14.3039  -16.5671   23.9815 C   0  0  0  0  0  0  0  0  0  0  0  0
   14.6791  -17.2357   23.0083 O   0  0  0  0  0  0  0  0  0  0  0  0
   15.2222  -15.8272   24.6980 O   0  0  0  0  0  0  0  0  0  0  0  0
  2  3  1  1
  2  1  1  0
  4  2  1  0
  5  4  1  0
  5  6  1  1
  7  8  2  0
  7  5  1  0
  9  7  1  0
 10  9  1  0
 10 11  1  6
 11 12  1  0
 12 13  2  0
 12 16  1  0
 13 14  1  0
 14 15  1  0
 16 15  2  0
 17 18  2  0
 17 10  1  0
 19 17  1  0
 20 19  1  0
 21 20  1  0
 22 23  1  0
 22 21  1  0
 23 19  1  0
 24 26  1  0
 23 24  1  6
 25 24  2  0
M  END
$$$$
