LHP.pdb
     RDKit          3D

 26 27  0  0  1  0  0  0  0  0999 V2000
    7.9748  -12.3440   18.5894 C   0  0  0  0  0  0  0  0  0  0  0  0
    8.3603  -13.7463   19.0085 C   0  0  1  0  0  0  0  0  0  0  0  0
    9.5833  -13.5946   19.9032 C   0  0  0  0  0  0  0  0  0  0  0  0
    7.2755  -14.4267   19.7696 C   0  0  0  0  0  0  0  0  0  0  0  0
    7.7030  -15.7306   20.3746 C   0  0  2  0  0  0  0  0  0  0  0  0
    7.1340  -16.8402   19.6015 N   0  0  0  0  0  0  0  0  0  0  0  0
    7.2857  -15.9115   21.7638 C   0  0  0  0  0  0  0  0  0  0  0  0
    6.0544  -16.0855   22.0343 O   0  0  0  0  0  0  0  0  0  0  0  0
    8.2246  -15.8988   22.8323 N   0  0  0  0  0  0  0  0  0  0  0  0
    7.7236  -16.1019   24.2102 C   0  0  1  0  0  0  0  0  0  0  0  0
    7.9401  -17.5319   24.5741 C   0  0  0  0  0  0  0  0  0  0  0  0
    7.5552  -17.9824   25.8983 C   0  0  0  0  0  0  0  0  0  0  0  0
    6.8977  -17.4255   26.9382 C   0  0  0  0  0  0  0  0  0  0  0  0
    6.7217  -18.3398   27.9407 N   0  0  0  0  0  0  0  0  0  0  0  0
    7.2810  -19.4595   27.4912 C   0  0  0  0  0  0  0  0  0  0  0  0
    7.7885  -19.2912   26.2799 N   0  0  0  0  0  0  0  0  0  0  0  0
    8.4052  -15.1577   25.1233 C   0  0  0  0  0  0  0  0  0  0  0  0
    9.6295  -15.3168   25.3811 O   0  0  0  0  0  0  0  0  0  0  0  0
    7.7974  -14.0271   25.7822 N   0  0  0  0  0  0  0  0  0  0  0  0
    6.4849  -13.4759   25.6075 C   0  0  0  0  0  0  0  0  0  0  0  0
    6.3811  -12.2588   26.5417 C   0  0  0  0  0  0  0  0  0  0  0  0
    7.3540  -12.6354   27.6143 C   0  0  0  0  0  0  0  0  0  0  0  0
    8.4912  -13.2382   26.8168 C   0  0  1  0  0  0  0  0  0  0  0  0
    9.2607  -14.1320   27.7469 C   0  0  0  0  0  0  0  0  0  0  0  0
    9.1033  -15.3606   27.7211 O   0  0  0  0  0  0  0  0  0  0  0  0
   10.1533  -13.5753   28.6398 O   0  0  0  0  0  0  0  0  0  0  0  0
  2  3  1  1
  2  1  1  0
  4  2  1  0
  5  4  1  0
  5  6  1  6
  7  8  2  0
  7  5  1  0
  9  7  1  0
 10  9  1  0
 10 11  1  1
 11 12  1  0
 12 13  2  0
 12 16  1  0
 13 14  1  0
 14 15  1  0
 16 15  2  0
 17 18  2  0
 17 10  1  0
 19 17  1  0
 20 19  1  0
 21 20  1  0
 22 23  1  0
 22 21  1  0
 23 19  1  0
 24 26  1  0
 23 24  1  1
 25 24  2  0
M  END
$$$$
