CNT.pdb
     RDKit          3D

 22 21  0  0  1  0  0  0  0  0999 V2000
   17.1299  -13.6178  -16.3081 N   0  0  0  0  0  0  0  0  0  0  0  0
   17.2720  -12.4526  -17.1467 C   0  0  1  0  0  0  0  0  0  0  0  0
   15.9856  -12.0938  -17.8605 C   0  0  0  0  0  0  0  0  0  0  0  0
   15.7394  -13.3589  -19.1517 S   0  0  0  0  0  0  0  0  0  0  0  0
   17.8477  -11.3389  -16.3842 C   0  0  0  0  0  0  0  0  0  0  0  0
   17.4848  -11.1489  -15.1981 O   0  0  0  0  0  0  0  0  0  0  0  0
   20.9459   -8.2026  -13.5973 N   0  0  0  0  0  0  0  0  0  0  0  0
   21.1920   -8.3311  -14.9783 C   0  0  0  0  0  0  0  0  0  0  0  0
   21.7952   -7.3820  -15.5859 O   0  0  0  0  0  0  0  0  0  0  0  0
   20.7760   -9.5437  -15.7539 C   0  0  0  0  0  0  0  0  0  0  0  0
   19.3550   -9.3373  -16.1352 C   0  0  2  0  0  0  0  0  0  0  0  0
   18.8191  -10.4279  -16.9100 N   0  0  0  0  0  0  0  0  0  0  0  0
   19.0794   -8.0352  -16.8093 C   0  0  0  0  0  0  0  0  0  0  0  0
   19.5878   -7.7925  -17.9336 O   0  0  0  0  0  0  0  0  0  0  0  0
   15.5833   -6.6112  -17.4711 C   0  0  0  0  0  0  0  0  0  0  0  0
   16.4322   -5.5277  -16.8373 C   0  0  1  0  0  0  0  0  0  0  0  0
   16.1643   -5.3941  -15.4805 O   0  0  0  0  0  0  0  0  0  0  0  0
   17.8904   -5.8561  -16.9743 C   0  0  2  0  0  0  0  0  0  0  0  0
   18.2599   -7.0555  -16.2219 N   0  0  0  0  0  0  0  0  0  0  0  0
   18.7704   -4.7246  -16.6058 C   0  0  0  0  0  0  0  0  0  0  0  0
   19.5849   -4.8077  -15.5091 O   0  0  0  0  0  0  0  0  0  0  0  0
   18.7636   -3.6925  -17.3019 O   0  0  0  0  0  0  0  0  0  0  0  0
  2  1  1  1
  2  3  1  0
  2  5  1  0
  3  4  1  0
  5  6  2  0
  5 12  1  0
  7  8  1  0
  8 10  1  0
  9  8  2  0
 11 10  1  6
 11 13  1  0
 12 11  1  0
 13 19  1  0
 13 14  2  0
 16 15  1  1
 17 16  1  0
 18 16  1  0
 18 20  1  0
 18 19  1  1
 20 21  1  0
 22 20  2  0
M  END
$$$$
