CNT.pdb
     RDKit          3D

 22 21  0  0  1  0  0  0  0  0999 V2000
   19.4039  -12.6394  -16.0921 N   0  0  0  0  0  0  0  0  0  0  0  0
   18.5214  -11.5056  -16.2213 C   0  0  1  0  0  0  0  0  0  0  0  0
   17.0743  -11.8668  -15.9601 C   0  0  0  0  0  0  0  0  0  0  0  0
   16.6212  -13.1227  -17.2034 S   0  0  0  0  0  0  0  0  0  0  0  0
   19.0014  -10.3860  -15.4032 C   0  0  0  0  0  0  0  0  0  0  0  0
   19.5953  -10.6198  -14.3229 O   0  0  0  0  0  0  0  0  0  0  0  0
   22.2804   -6.0453  -14.3919 N   0  0  0  0  0  0  0  0  0  0  0  0
   21.3533   -6.9962  -13.9224 C   0  0  0  0  0  0  0  0  0  0  0  0
   20.8899   -6.8698  -12.7378 O   0  0  0  0  0  0  0  0  0  0  0  0
   20.8897   -8.1437  -14.7668 C   0  0  0  0  0  0  0  0  0  0  0  0
   19.4372   -7.9386  -15.0023 C   0  0  2  0  0  0  0  0  0  0  0  0
   18.8357   -9.0086  -15.7575 N   0  0  0  0  0  0  0  0  0  0  0  0
   19.0896   -6.6180  -15.6032 C   0  0  0  0  0  0  0  0  0  0  0  0
   19.6796   -6.2289  -16.6433 O   0  0  0  0  0  0  0  0  0  0  0  0
   15.3853   -5.2293  -16.2064 C   0  0  0  0  0  0  0  0  0  0  0  0
   16.2676   -4.2195  -15.5007 C   0  0  1  0  0  0  0  0  0  0  0  0
   16.0453   -4.2141  -14.1292 O   0  0  0  0  0  0  0  0  0  0  0  0
   17.7164   -4.5466  -15.7170 C   0  0  2  0  0  0  0  0  0  0  0  0
   18.1116   -5.7810  -15.0379 N   0  0  0  0  0  0  0  0  0  0  0  0
   18.6183   -3.4367  -15.3358 C   0  0  0  0  0  0  0  0  0  0  0  0
   18.5201   -2.2195  -15.9539 O   0  0  0  0  0  0  0  0  0  0  0  0
   19.4708   -3.6189  -14.4471 O   0  0  0  0  0  0  0  0  0  0  0  0
  2  1  1  1
  2  3  1  0
  2  5  1  0
  3  4  1  0
  5  6  2  0
  5 12  1  0
  7  8  1  0
  8 10  1  0
  9  8  2  0
 11 10  1  6
 11 13  1  0
 12 11  1  0
 13 19  1  0
 13 14  2  0
 16 15  1  6
 17 16  1  0
 18 16  1  0
 18 20  1  0
 18 19  1  1
 20 21  1  0
 22 20  2  0
M  END
$$$$
