CNT.pdb
     RDKit          3D

 22 21  0  0  1  0  0  0  0  0999 V2000
   21.8465  -11.4202  -17.2808 N   0  0  0  0  0  0  0  0  0  0  0  0
   22.4475  -10.4526  -16.3956 C   0  0  1  0  0  0  0  0  0  0  0  0
   23.8356  -10.0445  -16.8423 C   0  0  0  0  0  0  0  0  0  0  0  0
   24.9694  -11.3556  -16.2733 S   0  0  0  0  0  0  0  0  0  0  0  0
   21.5427   -9.3163  -16.1873 C   0  0  0  0  0  0  0  0  0  0  0  0
   20.9375   -8.8202  -17.1682 O   0  0  0  0  0  0  0  0  0  0  0  0
   17.6821   -8.6936  -13.7848 N   0  0  0  0  0  0  0  0  0  0  0  0
   18.9601   -8.6346  -13.1955 C   0  0  0  0  0  0  0  0  0  0  0  0
   19.3549   -9.6204  -12.4840 O   0  0  0  0  0  0  0  0  0  0  0  0
   19.8710   -7.4594  -13.3805 C   0  0  0  0  0  0  0  0  0  0  0  0
   20.4348   -7.5703  -14.7506 C   0  0  2  0  0  0  0  0  0  0  0  0
   21.2944   -8.7158  -14.9115 N   0  0  0  0  0  0  0  0  0  0  0  0
   21.1152   -6.3361  -15.2401 C   0  0  0  0  0  0  0  0  0  0  0  0
   22.2891   -6.0797  -14.8692 O   0  0  0  0  0  0  0  0  0  0  0  0
   21.2174   -5.0608  -18.9865 C   0  0  0  0  0  0  0  0  0  0  0  0
   20.8080   -3.9469  -18.0441 C   0  0  1  0  0  0  0  0  0  0  0  0
   19.4326   -3.7502  -18.0493 O   0  0  0  0  0  0  0  0  0  0  0  0
   21.2064   -4.2784  -16.6354 C   0  0  2  0  0  0  0  0  0  0  0  0
   20.4796   -5.4362  -16.1135 N   0  0  0  0  0  0  0  0  0  0  0  0
   21.0717   -3.1271  -15.7151 C   0  0  0  0  0  0  0  0  0  0  0  0
   21.8466   -2.0113  -15.8819 O   0  0  0  0  0  0  0  0  0  0  0  0
   20.2470   -3.1813  -14.7842 O   0  0  0  0  0  0  0  0  0  0  0  0
  2  1  1  6
  2  3  1  0
  2  5  1  0
  3  4  1  0
  5  6  2  0
  5 12  1  0
  7  8  1  0
  8 10  1  0
  9  8  2  0
 11 10  1  1
 11 13  1  0
 12 11  1  0
 13 19  1  0
 13 14  2  0
 16 15  1  6
 17 16  1  0
 18 16  1  0
 18 20  1  0
 18 19  1  1
 20 21  1  0
 22 20  2  0
M  END
$$$$
