CNT.pdb
     RDKit          3D

 22 21  0  0  1  0  0  0  0  0999 V2000
   19.9293  -13.8319  -16.4756 N   0  0  0  0  0  0  0  0  0  0  0  0
   19.1879  -12.6398  -16.8076 C   0  0  1  0  0  0  0  0  0  0  0  0
   17.6904  -12.8621  -16.7733 C   0  0  0  0  0  0  0  0  0  0  0  0
   16.9240  -11.3222  -17.3815 S   0  0  0  0  0  0  0  0  0  0  0  0
   19.6307  -11.5128  -15.9789 C   0  0  0  0  0  0  0  0  0  0  0  0
   19.4492  -11.5492  -14.7378 O   0  0  0  0  0  0  0  0  0  0  0  0
   23.4011  -10.8425  -14.6075 N   0  0  0  0  0  0  0  0  0  0  0  0
   22.4619   -9.8131  -14.4019 C   0  0  0  0  0  0  0  0  0  0  0  0
   21.9983   -9.6305  -13.2248 O   0  0  0  0  0  0  0  0  0  0  0  0
   21.9950   -8.9245  -15.5142 C   0  0  0  0  0  0  0  0  0  0  0  0
   20.5421   -9.1840  -15.6841 C   0  0  2  0  0  0  0  0  0  0  0  0
   20.2715  -10.3422  -16.4979 N   0  0  0  0  0  0  0  0  0  0  0  0
   19.7581   -8.0115  -16.1704 C   0  0  0  0  0  0  0  0  0  0  0  0
   19.6068   -7.8285  -17.4053 O   0  0  0  0  0  0  0  0  0  0  0  0
   16.4062   -4.5039  -15.4122 C   0  0  0  0  0  0  0  0  0  0  0  0
   17.2271   -5.6494  -14.8553 C   0  0  1  0  0  0  0  0  0  0  0  0
   16.4593   -6.7945  -14.6829 O   0  0  0  0  0  0  0  0  0  0  0  0
   18.3452   -5.9987  -15.7938 C   0  0  2  0  0  0  0  0  0  0  0  0
   19.1751   -7.0902  -15.2828 N   0  0  0  0  0  0  0  0  0  0  0  0
   19.1859   -4.8320  -16.1442 C   0  0  0  0  0  0  0  0  0  0  0  0
   18.8363   -4.0119  -17.1826 O   0  0  0  0  0  0  0  0  0  0  0  0
   20.2176   -4.6019  -15.4866 O   0  0  0  0  0  0  0  0  0  0  0  0
  2  1  1  1
  2  3  1  0
  2  5  1  0
  3  4  1  0
  5  6  2  0
  5 12  1  0
  7  8  1  0
  8 10  1  0
  9  8  2  0
 11 10  1  6
 11 13  1  0
 12 11  1  0
 13 19  1  0
 13 14  2  0
 16 15  1  6
 17 16  1  0
 18 16  1  0
 18 20  1  0
 18 19  1  1
 20 21  1  0
 22 20  2  0
M  END
$$$$
