CNT.pdb
     RDKit          3D

 22 21  0  0  1  0  0  0  0  0999 V2000
   25.4277  -22.0941  -10.3908 N   0  0  0  0  0  0  0  0  0  0  0  0
   25.5747  -20.7459  -10.8823 C   0  0  1  0  0  0  0  0  0  0  0  0
   26.8510  -20.0902  -10.3984 C   0  0  0  0  0  0  0  0  0  0  0  0
   26.4990  -19.4396   -8.7307 S   0  0  0  0  0  0  0  0  0  0  0  0
   25.4164  -20.7113  -12.3407 C   0  0  0  0  0  0  0  0  0  0  0  0
   26.1741  -21.4049  -13.0614 O   0  0  0  0  0  0  0  0  0  0  0  0
   22.2662  -22.8884  -14.0622 N   0  0  0  0  0  0  0  0  0  0  0  0
   23.1195  -22.0512  -14.8073 C   0  0  0  0  0  0  0  0  0  0  0  0
   24.0688  -22.5822  -15.4785 O   0  0  0  0  0  0  0  0  0  0  0  0
   22.9465  -20.5633  -14.8427 C   0  0  0  0  0  0  0  0  0  0  0  0
   24.2521  -19.9742  -14.4482 C   0  0  2  0  0  0  0  0  0  0  0  0
   24.4339  -19.9213  -13.0196 N   0  0  0  0  0  0  0  0  0  0  0  0
   24.5389  -18.6435  -15.0590 C   0  0  0  0  0  0  0  0  0  0  0  0
   24.0218  -17.6064  -14.5709 O   0  0  0  0  0  0  0  0  0  0  0  0
   27.8871  -16.9882  -15.5115 C   0  0  0  0  0  0  0  0  0  0  0  0
   27.1953  -16.9945  -16.8597 C   0  0  1  0  0  0  0  0  0  0  0  0
   27.6504  -18.0313  -17.6650 O   0  0  0  0  0  0  0  0  0  0  0  0
   25.7153  -17.1782  -16.6894 C   0  0  2  0  0  0  0  0  0  0  0  0
   25.3786  -18.5073  -16.1783 N   0  0  0  0  0  0  0  0  0  0  0  0
   24.9556  -16.8939  -17.9273 C   0  0  0  0  0  0  0  0  0  0  0  0
   25.0060  -15.6531  -18.5027 O   0  0  0  0  0  0  0  0  0  0  0  0
   24.2668  -17.7937  -18.4427 O   0  0  0  0  0  0  0  0  0  0  0  0
  2  1  1  6
  2  3  1  0
  2  5  1  0
  3  4  1  0
  5  6  2  0
  5 12  1  0
  7  8  1  0
  8 10  1  0
  9  8  2  0
 11 10  1  1
 11 13  1  0
 12 11  1  0
 13 19  1  0
 13 14  2  0
 16 15  1  1
 17 16  1  0
 18 16  1  0
 18 20  1  0
 18 19  1  6
 20 21  1  0
 22 20  2  0
M  END
$$$$
