CNT.pdb
     RDKit          3D

 22 21  0  0  1  0  0  0  0  0999 V2000
   23.0077  -11.7926  -17.2578 N   0  0  0  0  0  0  0  0  0  0  0  0
   23.0775  -10.6714  -16.3527 C   0  0  1  0  0  0  0  0  0  0  0  0
   24.4621  -10.0611  -16.2943 C   0  0  0  0  0  0  0  0  0  0  0  0
   25.4858  -11.1935  -15.2955 S   0  0  0  0  0  0  0  0  0  0  0  0
   22.0223   -9.6987  -16.6584 C   0  0  0  0  0  0  0  0  0  0  0  0
   21.7019   -9.4894  -17.8535 O   0  0  0  0  0  0  0  0  0  0  0  0
   20.5314  -10.0010  -14.2044 N   0  0  0  0  0  0  0  0  0  0  0  0
   19.4545   -9.1091  -14.0338 C   0  0  0  0  0  0  0  0  0  0  0  0
   18.7214   -9.2228  -12.9930 O   0  0  0  0  0  0  0  0  0  0  0  0
   19.1459   -8.0309  -15.0274 C   0  0  0  0  0  0  0  0  0  0  0  0
   20.2681   -8.0162  -16.0009 C   0  0  2  0  0  0  0  0  0  0  0  0
   21.3130   -8.9502  -15.6651 N   0  0  0  0  0  0  0  0  0  0  0  0
   20.8423   -6.6640  -16.2609 C   0  0  0  0  0  0  0  0  0  0  0  0
   21.8014   -6.2466  -15.5629 O   0  0  0  0  0  0  0  0  0  0  0  0
   21.5677   -5.0513  -19.8749 C   0  0  0  0  0  0  0  0  0  0  0  0
   20.8154   -4.1035  -18.9628 C   0  0  1  0  0  0  0  0  0  0  0  0
   19.4566   -4.0834  -19.2523 O   0  0  0  0  0  0  0  0  0  0  0  0
   20.9605   -4.5277  -17.5303 C   0  0  2  0  0  0  0  0  0  0  0  0
   20.3402   -5.8277  -17.2734 N   0  0  0  0  0  0  0  0  0  0  0  0
   20.4511   -3.5158  -16.5779 C   0  0  0  0  0  0  0  0  0  0  0  0
   21.0655   -2.2980  -16.4651 O   0  0  0  0  0  0  0  0  0  0  0  0
   19.4575   -3.7814  -15.8765 O   0  0  0  0  0  0  0  0  0  0  0  0
  2  1  1  6
  2  3  1  0
  2  5  1  0
  3  4  1  0
  5  6  2  0
  5 12  1  0
  7  8  1  0
  8 10  1  0
  9  8  2  0
 11 10  1  1
 11 13  1  0
 12 11  1  0
 13 19  1  0
 13 14  2  0
 16 15  1  6
 17 16  1  0
 18 16  1  0
 18 20  1  0
 18 19  1  6
 20 21  1  0
 22 20  2  0
M  END
$$$$
