CNT.pdb
     RDKit          3D

 22 21  0  0  1  0  0  0  0  0999 V2000
   23.2068  -12.5417  -18.1107 N   0  0  0  0  0  0  0  0  0  0  0  0
   23.3905  -11.9198  -16.8221 C   0  0  1  0  0  0  0  0  0  0  0  0
   24.8509  -11.6896  -16.4943 C   0  0  0  0  0  0  0  0  0  0  0  0
   25.5278  -13.3047  -15.9829 S   0  0  0  0  0  0  0  0  0  0  0  0
   22.5695  -10.7083  -16.7154 C   0  0  0  0  0  0  0  0  0  0  0  0
   22.5600   -9.8827  -17.6604 O   0  0  0  0  0  0  0  0  0  0  0  0
   18.3426  -11.6465  -15.3308 N   0  0  0  0  0  0  0  0  0  0  0  0
   18.8730  -10.4284  -15.7988 C   0  0  0  0  0  0  0  0  0  0  0  0
   18.7220  -10.1256  -17.0314 O   0  0  0  0  0  0  0  0  0  0  0  0
   19.6009   -9.4766  -14.8992 C   0  0  0  0  0  0  0  0  0  0  0  0
   20.9201   -9.2186  -15.5319 C   0  0  2  0  0  0  0  0  0  0  0  0
   21.7571  -10.3908  -15.5799 N   0  0  0  0  0  0  0  0  0  0  0  0
   21.6696   -8.0674  -14.9496 C   0  0  0  0  0  0  0  0  0  0  0  0
   22.3571   -8.2302  -13.9093 O   0  0  0  0  0  0  0  0  0  0  0  0
   23.7638   -5.4940  -17.1302 C   0  0  0  0  0  0  0  0  0  0  0  0
   22.9230   -4.7714  -16.0971 C   0  0  1  0  0  0  0  0  0  0  0  0
   21.7730   -4.2306  -16.6589 O   0  0  0  0  0  0  0  0  0  0  0  0
   22.4892   -5.7194  -15.0173 C   0  0  2  0  0  0  0  0  0  0  0  0
   21.6323   -6.7882  -15.5316 N   0  0  0  0  0  0  0  0  0  0  0  0
   21.8331   -5.0338  -13.8814 C   0  0  0  0  0  0  0  0  0  0  0  0
   22.5385   -4.1633  -13.0955 O   0  0  0  0  0  0  0  0  0  0  0  0
   20.6315   -5.2563  -13.6440 O   0  0  0  0  0  0  0  0  0  0  0  0
  2  1  1  6
  2  3  1  0
  2  5  1  0
  3  4  1  0
  5  6  2  0
  5 12  1  0
  7  8  1  0
  8 10  1  0
  9  8  2  0
 11 10  1  1
 11 13  1  0
 12 11  1  0
 13 19  1  0
 13 14  2  0
 16 15  1  6
 17 16  1  0
 18 16  1  0
 18 20  1  0
 18 19  1  6
 20 21  1  0
 22 20  2  0
M  END
$$$$
