CNT.pdb
     RDKit          3D

 22 21  0  0  1  0  0  0  0  0999 V2000
   14.1878   -8.5465   -8.6455 N   0  0  0  0  0  0  0  0  0  0  0  0
   14.8389   -7.4443   -9.3106 C   0  0  1  0  0  0  0  0  0  0  0  0
   15.4345   -6.4511   -8.3351 C   0  0  0  0  0  0  0  0  0  0  0  0
   14.0302   -5.6311   -7.5082 S   0  0  0  0  0  0  0  0  0  0  0  0
   15.8011   -7.9392  -10.3017 C   0  0  0  0  0  0  0  0  0  0  0  0
   16.5625   -8.8908  -10.0025 O   0  0  0  0  0  0  0  0  0  0  0  0
   16.1806  -11.0414  -13.4439 N   0  0  0  0  0  0  0  0  0  0  0  0
   15.5263   -9.7992  -13.3307 C   0  0  0  0  0  0  0  0  0  0  0  0
   14.3526   -9.7665  -12.8254 O   0  0  0  0  0  0  0  0  0  0  0  0
   16.1627   -8.5182  -13.7767 C   0  0  0  0  0  0  0  0  0  0  0  0
   16.8526   -7.9505  -12.5896 C   0  0  2  0  0  0  0  0  0  0  0  0
   15.9386   -7.3999  -11.6209 N   0  0  0  0  0  0  0  0  0  0  0  0
   17.9257   -6.9653  -12.9116 C   0  0  0  0  0  0  0  0  0  0  0  0
   17.7138   -5.7357  -12.7550 O   0  0  0  0  0  0  0  0  0  0  0  0
   22.6296   -5.9689  -14.1084 C   0  0  0  0  0  0  0  0  0  0  0  0
   21.5407   -7.0173  -14.0020 C   0  0  1  0  0  0  0  0  0  0  0  0
   21.8284   -7.9579  -13.0208 O   0  0  0  0  0  0  0  0  0  0  0  0
   20.2315   -6.3792  -13.6388 C   0  0  2  0  0  0  0  0  0  0  0  0
   19.1835   -7.3700  -13.3920 N   0  0  0  0  0  0  0  0  0  0  0  0
   19.7789   -5.3881  -14.6404 C   0  0  0  0  0  0  0  0  0  0  0  0
   19.8913   -4.0473  -14.3896 O   0  0  0  0  0  0  0  0  0  0  0  0
   19.2920   -5.7836  -15.7158 O   0  0  0  0  0  0  0  0  0  0  0  0
  2  1  1  1
  2  3  1  0
  2  5  1  0
  3  4  1  0
  5  6  2  0
  5 12  1  0
  7  8  1  0
  8 10  1  0
  9  8  2  0
 11 10  1  6
 11 13  1  0
 12 11  1  0
 13 19  1  0
 13 14  2  0
 16 15  1  1
 17 16  1  0
 18 16  1  0
 18 20  1  0
 18 19  1  6
 20 21  1  0
 22 20  2  0
M  END
$$$$
