GNW.pdb
     RDKit          3D

 27 28  0  0  1  0  0  0  0  0999 V2000
    7.8303  -12.3591   18.5081 N   0  0  0  0  0  0  0  0  0  0  0  0
    8.8136  -13.4243   18.4219 C   0  0  0  0  0  0  0  0  0  0  0  0
    8.5535  -14.4612   19.4825 C   0  0  0  0  0  0  0  0  0  0  0  0
    7.7185  -14.2018   20.3832 O   0  0  0  0  0  0  0  0  0  0  0  0
   11.7417  -18.2743   18.7966 N   0  0  0  0  0  0  0  0  0  0  0  0
   10.3590  -17.9276   18.7880 C   0  0  0  0  0  0  0  0  0  0  0  0
    9.8846  -17.5868   17.6766 O   0  0  0  0  0  0  0  0  0  0  0  0
    9.5710  -17.9819   20.0417 C   0  0  0  0  0  0  0  0  0  0  0  0
    9.1401  -16.6164   20.5187 C   0  0  2  0  0  0  0  0  0  0  0  0
    9.2658  -15.6838   19.4130 N   0  0  0  0  0  0  0  0  0  0  0  0
    9.9593  -16.1763   21.6839 C   0  0  0  0  0  0  0  0  0  0  0  0
   10.7516  -15.2149   21.5310 O   0  0  0  0  0  0  0  0  0  0  0  0
    9.7881  -16.8805   22.9029 N   0  0  0  0  0  0  0  0  0  0  0  0
    9.7642  -16.1626   24.1547 C   0  0  1  0  0  0  0  0  0  0  0  0
    8.6040  -15.1736   24.0407 C   0  0  0  0  0  0  0  0  0  0  0  0
    8.4092  -14.5489   25.3709 C   0  0  0  0  0  0  0  0  0  0  0  0
    8.9853  -14.8796   26.5877 C   0  0  0  0  0  0  0  0  0  0  0  0
    8.5224  -14.0468   27.5342 N   0  0  0  0  0  0  0  0  0  0  0  0
    7.6718  -13.2029   26.9444 C   0  0  0  0  0  0  0  0  0  0  0  0
    6.9191  -12.1536   27.4500 C   0  0  0  0  0  0  0  0  0  0  0  0
    6.0979  -11.4103   26.6388 C   0  0  0  0  0  0  0  0  0  0  0  0
    5.9911  -11.6795   25.2919 C   0  0  0  0  0  0  0  0  0  0  0  0
    6.7426  -12.7278   24.7845 C   0  0  0  0  0  0  0  0  0  0  0  0
    7.5600  -13.4657   25.5987 C   0  0  0  0  0  0  0  0  0  0  0  0
    9.5298  -17.0887   25.2855 C   0  0  0  0  0  0  0  0  0  0  0  0
    9.9013  -16.8219   26.4480 O   0  0  0  0  0  0  0  0  0  0  0  0
    8.8811  -18.2825   25.0463 O   0  0  0  0  0  0  0  0  0  0  0  0
  1  2  1  0
  2  3  1  0
  3 10  1  0
  3  4  2  0
  6  8  1  0
  6  5  1  0
  7  6  2  0
  9  8  1  6
 10  9  1  0
 11  9  1  0
 11 13  1  0
 12 11  2  0
 14 13  1  0
 14 15  1  6
 14 25  1  0
 16 15  1  0
 16 17  2  0
 18 17  1  0
 19 24  2  0
 19 18  1  0
 20 19  1  0
 21 22  1  0
 21 20  2  0
 22 23  2  0
 23 24  1  0
 24 16  1  0
 25 27  1  0
 26 25  2  0
M  END
$$$$
