GNW.pdb
     RDKit          3D

 27 28  0  0  1  0  0  0  0  0999 V2000
    6.2338  -15.6133   19.8356 N   0  0  0  0  0  0  0  0  0  0  0  0
    7.0363  -14.9205   20.8282 C   0  0  0  0  0  0  0  0  0  0  0  0
    7.8716  -15.9051   21.6031 C   0  0  0  0  0  0  0  0  0  0  0  0
    7.2882  -16.7411   22.3357 O   0  0  0  0  0  0  0  0  0  0  0  0
   11.5360  -16.9653   19.1189 N   0  0  0  0  0  0  0  0  0  0  0  0
   11.3089  -17.6420   20.3528 C   0  0  0  0  0  0  0  0  0  0  0  0
   11.0145  -18.8595   20.2659 O   0  0  0  0  0  0  0  0  0  0  0  0
   11.4252  -16.9090   21.6353 C   0  0  0  0  0  0  0  0  0  0  0  0
   10.0916  -16.7010   22.3106 C   0  0  2  0  0  0  0  0  0  0  0  0
    9.2803  -15.8408   21.4680 N   0  0  0  0  0  0  0  0  0  0  0  0
   10.2682  -16.1071   23.6666 C   0  0  0  0  0  0  0  0  0  0  0  0
   10.8347  -14.9914   23.7634 O   0  0  0  0  0  0  0  0  0  0  0  0
    9.7790  -16.8500   24.7711 N   0  0  0  0  0  0  0  0  0  0  0  0
    9.9432  -16.3430   26.1123 C   0  0  1  0  0  0  0  0  0  0  0  0
    8.6135  -16.6077   26.8188 C   0  0  0  0  0  0  0  0  0  0  0  0
    7.5732  -15.7942   26.1454 C   0  0  0  0  0  0  0  0  0  0  0  0
    6.5282  -16.2056   25.3326 C   0  0  0  0  0  0  0  0  0  0  0  0
    5.8278  -15.1296   24.9383 N   0  0  0  0  0  0  0  0  0  0  0  0
    6.4049  -14.0548   25.4816 C   0  0  0  0  0  0  0  0  0  0  0  0
    6.0932  -12.7057   25.4029 C   0  0  0  0  0  0  0  0  0  0  0  0
    6.8438  -11.7617   26.0588 C   0  0  0  0  0  0  0  0  0  0  0  0
    7.9350  -12.1198   26.8199 C   0  0  0  0  0  0  0  0  0  0  0  0
    8.2482  -13.4676   26.8999 C   0  0  0  0  0  0  0  0  0  0  0  0
    7.4957  -14.4047   26.2432 C   0  0  0  0  0  0  0  0  0  0  0  0
   11.0373  -17.0541   26.8112 C   0  0  0  0  0  0  0  0  0  0  0  0
   11.3929  -16.7481   27.9690 O   0  0  0  0  0  0  0  0  0  0  0  0
   11.6831  -18.0862   26.1623 O   0  0  0  0  0  0  0  0  0  0  0  0
  1  2  1  0
  2  3  1  0
  3 10  1  0
  3  4  2  0
  6  8  1  0
  6  5  1  0
  7  6  2  0
  9  8  1  6
 10  9  1  0
 11  9  1  0
 11 13  1  0
 12 11  2  0
 14 13  1  0
 14 15  1  1
 14 25  1  0
 16 15  1  0
 16 17  2  0
 18 17  1  0
 19 24  2  0
 19 18  1  0
 20 19  1  0
 21 22  1  0
 21 20  2  0
 22 23  2  0
 23 24  1  0
 24 16  1  0
 25 27  1  0
 26 25  2  0
M  END
$$$$
