GNW.pdb
     RDKit          3D

 27 28  0  0  1  0  0  0  0  0999 V2000
    7.3741  -13.2764   17.0159 N   0  0  0  0  0  0  0  0  0  0  0  0
    8.5606  -13.2410   17.8525 C   0  0  0  0  0  0  0  0  0  0  0  0
    8.7723  -14.5771   18.5141 C   0  0  0  0  0  0  0  0  0  0  0  0
    7.8157  -15.3892   18.5456 O   0  0  0  0  0  0  0  0  0  0  0  0
   10.9597  -19.1527   19.2327 N   0  0  0  0  0  0  0  0  0  0  0  0
   11.7662  -18.0977   19.7508 C   0  0  0  0  0  0  0  0  0  0  0  0
   12.6294  -18.4315   20.5992 O   0  0  0  0  0  0  0  0  0  0  0  0
   11.5599  -16.7064   19.2846 C   0  0  0  0  0  0  0  0  0  0  0  0
   10.2405  -16.1298   19.7371 C   0  0  2  0  0  0  0  0  0  0  0  0
   10.0450  -14.8546   19.0710 N   0  0  0  0  0  0  0  0  0  0  0  0
   10.2102  -15.9683   21.2188 C   0  0  0  0  0  0  0  0  0  0  0  0
   11.0739  -15.2359   21.7600 O   0  0  0  0  0  0  0  0  0  0  0  0
    9.1959  -16.6605   21.9282 N   0  0  0  0  0  0  0  0  0  0  0  0
    9.0696  -16.4921   23.3560 C   0  0  1  0  0  0  0  0  0  0  0  0
    7.6067  -16.7964   23.6792 C   0  0  0  0  0  0  0  0  0  0  0  0
    7.1283  -15.7634   24.6287 C   0  0  0  0  0  0  0  0  0  0  0  0
    6.6179  -15.9178   25.9084 C   0  0  0  0  0  0  0  0  0  0  0  0
    6.3091  -14.7098   26.4074 N   0  0  0  0  0  0  0  0  0  0  0  0
    6.6119  -13.8021   25.4758 C   0  0  0  0  0  0  0  0  0  0  0  0
    6.4959  -12.4201   25.4670 C   0  0  0  0  0  0  0  0  0  0  0  0
    6.8784  -11.6800   24.3758 C   0  0  0  0  0  0  0  0  0  0  0  0
    7.3921  -12.2832   23.2486 C   0  0  0  0  0  0  0  0  0  0  0  0
    7.5089  -13.6642   23.2553 C   0  0  0  0  0  0  0  0  0  0  0  0
    7.1255  -14.3971   24.3469 C   0  0  0  0  0  0  0  0  0  0  0  0
    9.9534  -17.4368   24.0754 C   0  0  0  0  0  0  0  0  0  0  0  0
   10.1740  -18.5911   23.6516 O   0  0  0  0  0  0  0  0  0  0  0  0
   10.5510  -17.0282   25.2498 O   0  0  0  0  0  0  0  0  0  0  0  0
  1  2  1  0
  2  3  1  0
  3 10  1  0
  3  4  2  0
  6  8  1  0
  6  5  1  0
  7  6  2  0
  9  8  1  1
 10  9  1  0
 11  9  1  0
 11 13  1  0
 12 11  2  0
 14 13  1  0
 14 15  1  1
 14 25  1  0
 16 15  1  0
 16 17  2  0
 18 17  1  0
 19 24  2  0
 19 18  1  0
 20 19  1  0
 21 22  1  0
 21 20  2  0
 22 23  2  0
 23 24  1  0
 24 16  1  0
 25 27  1  0
 26 25  2  0
M  END
$$$$
