GNW.pdb
     RDKit          3D

 27 28  0  0  1  0  0  0  0  0999 V2000
    6.4067  -19.9794   21.4160 N   0  0  0  0  0  0  0  0  0  0  0  0
    6.5690  -18.9527   22.4302 C   0  0  0  0  0  0  0  0  0  0  0  0
    8.0237  -18.5939   22.5810 C   0  0  0  0  0  0  0  0  0  0  0  0
    8.7913  -19.4200   23.1325 O   0  0  0  0  0  0  0  0  0  0  0  0
    9.8991  -18.1704   19.7382 N   0  0  0  0  0  0  0  0  0  0  0  0
   10.2437  -16.7887   19.8037 C   0  0  0  0  0  0  0  0  0  0  0  0
   10.5224  -16.2393   18.7097 O   0  0  0  0  0  0  0  0  0  0  0  0
   10.2579  -16.0870   21.1087 C   0  0  0  0  0  0  0  0  0  0  0  0
    9.8560  -16.9817   22.2558 C   0  0  2  0  0  0  0  0  0  0  0  0
    8.4579  -17.3374   22.0918 N   0  0  0  0  0  0  0  0  0  0  0  0
   10.0847  -16.3050   23.5643 C   0  0  0  0  0  0  0  0  0  0  0  0
   10.5294  -15.1313   23.5629 O   0  0  0  0  0  0  0  0  0  0  0  0
    9.7814  -17.0398   24.7387 N   0  0  0  0  0  0  0  0  0  0  0  0
   10.0952  -16.4905   26.0359 C   0  0  1  0  0  0  0  0  0  0  0  0
    8.8277  -16.6611   26.8735 C   0  0  0  0  0  0  0  0  0  0  0  0
    7.7600  -15.8426   26.2510 C   0  0  0  0  0  0  0  0  0  0  0  0
    6.6702  -16.2498   25.4969 C   0  0  0  0  0  0  0  0  0  0  0  0
    5.9588  -15.1702   25.1336 N   0  0  0  0  0  0  0  0  0  0  0  0
    6.5725  -14.0972   25.6390 C   0  0  0  0  0  0  0  0  0  0  0  0
    6.2682  -12.7460   25.5686 C   0  0  0  0  0  0  0  0  0  0  0  0
    7.0601  -11.8046   26.1782 C   0  0  0  0  0  0  0  0  0  0  0  0
    8.1869  -12.1677   26.8829 C   0  0  0  0  0  0  0  0  0  0  0  0
    8.4929  -13.5176   26.9545 C   0  0  0  0  0  0  0  0  0  0  0  0
    7.6991  -14.4520   26.3442 C   0  0  0  0  0  0  0  0  0  0  0  0
   11.2167  -17.2279   26.6600 C   0  0  0  0  0  0  0  0  0  0  0  0
   11.7424  -16.8530   27.7295 O   0  0  0  0  0  0  0  0  0  0  0  0
   11.6948  -18.3639   26.0402 O   0  0  0  0  0  0  0  0  0  0  0  0
  1  2  1  0
  2  3  1  0
  3 10  1  0
  3  4  2  0
  6  8  1  0
  6  5  1  0
  7  6  2  0
  9  8  1  6
 10  9  1  0
 11  9  1  0
 11 13  1  0
 12 11  2  0
 14 13  1  0
 14 15  1  1
 14 25  1  0
 16 15  1  0
 16 17  2  0
 18 17  1  0
 19 24  2  0
 19 18  1  0
 20 19  1  0
 21 22  1  0
 21 20  2  0
 22 23  2  0
 23 24  1  0
 24 16  1  0
 25 27  1  0
 26 25  2  0
M  END
$$$$
