GNW.pdb
     RDKit          3D

 27 28  0  0  1  0  0  0  0  0999 V2000
    7.3188  -20.6226   20.9182 N   0  0  0  0  0  0  0  0  0  0  0  0
    6.7552  -19.3237   21.2411 C   0  0  0  0  0  0  0  0  0  0  0  0
    7.7196  -18.2292   20.8673 C   0  0  0  0  0  0  0  0  0  0  0  0
    8.8700  -18.5496   20.4803 O   0  0  0  0  0  0  0  0  0  0  0  0
    9.4493  -13.8506   19.0157 N   0  0  0  0  0  0  0  0  0  0  0  0
    8.0632  -13.6529   19.2837 C   0  0  0  0  0  0  0  0  0  0  0  0
    7.5629  -12.5915   18.8369 O   0  0  0  0  0  0  0  0  0  0  0  0
    7.3015  -14.6683   20.0481 C   0  0  0  0  0  0  0  0  0  0  0  0
    8.1549  -15.8379   20.4743 C   0  0  2  0  0  0  0  0  0  0  0  0
    7.2812  -16.8861   20.9703 N   0  0  0  0  0  0  0  0  0  0  0  0
    9.1399  -15.4270   21.5152 C   0  0  0  0  0  0  0  0  0  0  0  0
   10.0635  -14.6418   21.1901 O   0  0  0  0  0  0  0  0  0  0  0  0
    8.9673  -15.9562   22.8195 N   0  0  0  0  0  0  0  0  0  0  0  0
    9.9883  -15.7588   23.8202 C   0  0  1  0  0  0  0  0  0  0  0  0
    9.6548  -14.4269   24.4925 C   0  0  0  0  0  0  0  0  0  0  0  0
    8.3070  -14.5499   25.0972 C   0  0  0  0  0  0  0  0  0  0  0  0
    7.4890  -15.6647   25.1966 C   0  0  0  0  0  0  0  0  0  0  0  0
    6.3514  -15.3211   25.8223 N   0  0  0  0  0  0  0  0  0  0  0  0
    6.4336  -14.0214   26.1181 C   0  0  0  0  0  0  0  0  0  0  0  0
    5.5479  -13.1662   26.7564 C   0  0  0  0  0  0  0  0  0  0  0  0
    5.8527  -11.8421   26.9532 C   0  0  0  0  0  0  0  0  0  0  0  0
    7.0504  -11.3137   26.5235 C   0  0  0  0  0  0  0  0  0  0  0  0
    7.9370  -12.1667   25.8853 C   0  0  0  0  0  0  0  0  0  0  0  0
    7.6273  -13.4866   25.6919 C   0  0  0  0  0  0  0  0  0  0  0  0
    9.9607  -16.8505   24.8195 C   0  0  0  0  0  0  0  0  0  0  0  0
   10.7507  -16.8833   25.7867 O   0  0  0  0  0  0  0  0  0  0  0  0
    9.0334  -17.8620   24.6767 O   0  0  0  0  0  0  0  0  0  0  0  0
  1  2  1  0
  2  3  1  0
  3 10  1  0
  3  4  2  0
  6  8  1  0
  6  5  1  0
  7  6  2  0
  9  8  1  1
 10  9  1  0
 11  9  1  0
 11 13  1  0
 12 11  2  0
 14 13  1  0
 14 15  1  1
 14 25  1  0
 16 15  1  0
 16 17  2  0
 18 17  1  0
 19 24  2  0
 19 18  1  0
 20 19  1  0
 21 22  1  0
 21 20  2  0
 22 23  2  0
 23 24  1  0
 24 16  1  0
 25 27  1  0
 26 25  2  0
M  END
$$$$
