GNW.pdb
     RDKit          3D

 27 28  0  0  1  0  0  0  0  0999 V2000
    5.6313  -15.3298   19.9589 N   0  0  0  0  0  0  0  0  0  0  0  0
    6.8946  -14.8871   20.5218 C   0  0  0  0  0  0  0  0  0  0  0  0
    7.5025  -15.9790   21.3619 C   0  0  0  0  0  0  0  0  0  0  0  0
    6.7386  -16.8159   21.9022 O   0  0  0  0  0  0  0  0  0  0  0  0
   11.3915  -16.7303   19.5012 N   0  0  0  0  0  0  0  0  0  0  0  0
   10.5833  -17.6121   20.2766 C   0  0  0  0  0  0  0  0  0  0  0  0
    9.8095  -18.3601   19.6299 O   0  0  0  0  0  0  0  0  0  0  0  0
   10.6864  -17.6089   21.7548 C   0  0  0  0  0  0  0  0  0  0  0  0
    9.4897  -16.9748   22.4210 C   0  0  2  0  0  0  0  0  0  0  0  0
    8.9117  -16.0099   21.5029 N   0  0  0  0  0  0  0  0  0  0  0  0
    9.8778  -16.3240   23.7049 C   0  0  0  0  0  0  0  0  0  0  0  0
   10.4891  -15.2287   23.6612 O   0  0  0  0  0  0  0  0  0  0  0  0
    9.5269  -16.9924   24.9054 N   0  0  0  0  0  0  0  0  0  0  0  0
    9.9550  -16.4637   26.1782 C   0  0  1  0  0  0  0  0  0  0  0  0
    8.7098  -16.4652   27.0652 C   0  0  0  0  0  0  0  0  0  0  0  0
    7.6822  -15.6256   26.4044 C   0  0  0  0  0  0  0  0  0  0  0  0
    6.5994  -16.0125   25.6298 C   0  0  0  0  0  0  0  0  0  0  0  0
    5.9293  -14.9183   25.2330 N   0  0  0  0  0  0  0  0  0  0  0  0
    6.5621  -13.8559   25.7374 C   0  0  0  0  0  0  0  0  0  0  0  0
    6.2998  -12.4977   25.6395 C   0  0  0  0  0  0  0  0  0  0  0  0
    7.1042  -11.5705   26.2544 C   0  0  0  0  0  0  0  0  0  0  0  0
    8.2024  -11.9554   26.9920 C   0  0  0  0  0  0  0  0  0  0  0  0
    8.4664  -13.3124   27.0912 C   0  0  0  0  0  0  0  0  0  0  0  0
    7.6603  -14.2325   26.4754 C   0  0  0  0  0  0  0  0  0  0  0  0
   11.0028  -17.3214   26.7763 C   0  0  0  0  0  0  0  0  0  0  0  0
   11.3236  -18.4208   26.2772 O   0  0  0  0  0  0  0  0  0  0  0  0
   11.6435  -16.8919   27.9201 O   0  0  0  0  0  0  0  0  0  0  0  0
  1  2  1  0
  2  3  1  0
  3 10  1  0
  3  4  2  0
  6  8  1  0
  6  5  1  0
  7  6  2  0
  9  8  1  6
 10  9  1  0
 11  9  1  0
 11 13  1  0
 12 11  2  0
 14 13  1  0
 14 15  1  1
 14 25  1  0
 16 15  1  0
 16 17  2  0
 18 17  1  0
 19 24  2  0
 19 18  1  0
 20 19  1  0
 21 22  1  0
 21 20  2  0
 22 23  2  0
 23 24  1  0
 24 16  1  0
 25 27  1  0
 26 25  2  0
M  END
$$$$
