GNW.pdb
     RDKit          3D

 27 28  0  0  1  0  0  0  0  0999 V2000
    7.2017  -12.7004   17.8746 N   0  0  0  0  0  0  0  0  0  0  0  0
    8.3537  -13.2241   18.5871 C   0  0  0  0  0  0  0  0  0  0  0  0
    7.9119  -14.1914   19.6534 C   0  0  0  0  0  0  0  0  0  0  0  0
    6.7825  -14.7284   19.5455 O   0  0  0  0  0  0  0  0  0  0  0  0
    8.2725  -18.9267   20.6912 N   0  0  0  0  0  0  0  0  0  0  0  0
    9.4496  -18.1288   20.5921 C   0  0  0  0  0  0  0  0  0  0  0  0
   10.5275  -18.7001   20.8894 O   0  0  0  0  0  0  0  0  0  0  0  0
    9.3552  -16.7147   20.1597 C   0  0  0  0  0  0  0  0  0  0  0  0
    8.8614  -15.8020   21.2555 C   0  0  2  0  0  0  0  0  0  0  0  0
    8.7948  -14.4498   20.7307 N   0  0  0  0  0  0  0  0  0  0  0  0
    9.7549  -15.8686   22.4471 C   0  0  0  0  0  0  0  0  0  0  0  0
   10.9608  -15.5483   22.3110 O   0  0  0  0  0  0  0  0  0  0  0  0
    9.1776  -16.2943   23.6704 N   0  0  0  0  0  0  0  0  0  0  0  0
    9.8600  -16.0436   24.9171 C   0  0  1  0  0  0  0  0  0  0  0  0
    8.8207  -16.2853   26.0119 C   0  0  0  0  0  0  0  0  0  0  0  0
    7.6675  -15.3923   25.7467 C   0  0  0  0  0  0  0  0  0  0  0  0
    6.3956  -15.7126   25.2979 C   0  0  0  0  0  0  0  0  0  0  0  0
    5.6683  -14.5880   25.1981 N   0  0  0  0  0  0  0  0  0  0  0  0
    6.4492  -13.5712   25.5720 C   0  0  0  0  0  0  0  0  0  0  0  0
    6.2062  -12.2085   25.6569 C   0  0  0  0  0  0  0  0  0  0  0  0
    7.1799  -11.3359   26.0757 C   0  0  0  0  0  0  0  0  0  0  0  0
    8.4351  -11.7820   26.4272 C   0  0  0  0  0  0  0  0  0  0  0  0
    8.6801  -13.1436   26.3431 C   0  0  0  0  0  0  0  0  0  0  0  0
    7.7048  -14.0091   25.9246 C   0  0  0  0  0  0  0  0  0  0  0  0
   10.9991  -16.9735   25.0873 C   0  0  0  0  0  0  0  0  0  0  0  0
   11.1540  -17.9725   24.3533 O   0  0  0  0  0  0  0  0  0  0  0  0
   11.9169  -16.7278   26.0876 O   0  0  0  0  0  0  0  0  0  0  0  0
  1  2  1  0
  2  3  1  0
  3 10  1  0
  3  4  2  0
  6  8  1  0
  6  5  1  0
  7  6  2  0
  9  8  1  6
 10  9  1  0
 11  9  1  0
 11 13  1  0
 12 11  2  0
 14 13  1  0
 14 15  1  1
 14 25  1  0
 16 15  1  0
 16 17  2  0
 18 17  1  0
 19 24  2  0
 19 18  1  0
 20 19  1  0
 21 22  1  0
 21 20  2  0
 22 23  2  0
 23 24  1  0
 24 16  1  0
 25 27  1  0
 26 25  2  0
M  END
$$$$
