GNW.pdb
     RDKit          3D

 27 28  0  0  1  0  0  0  0  0999 V2000
    8.0456  -20.8812   21.2072 N   0  0  0  0  0  0  0  0  0  0  0  0
    7.5029  -19.6318   21.7106 C   0  0  0  0  0  0  0  0  0  0  0  0
    8.4784  -18.5083   21.4782 C   0  0  0  0  0  0  0  0  0  0  0  0
    9.6359  -18.7909   21.0833 O   0  0  0  0  0  0  0  0  0  0  0  0
    5.7740  -14.9531   20.3429 N   0  0  0  0  0  0  0  0  0  0  0  0
    7.1377  -15.2389   20.0416 C   0  0  0  0  0  0  0  0  0  0  0  0
    7.3525  -15.7865   18.9324 O   0  0  0  0  0  0  0  0  0  0  0  0
    8.2022  -14.8913   21.0120 C   0  0  0  0  0  0  0  0  0  0  0  0
    8.9781  -16.0973   21.4825 C   0  0  2  0  0  0  0  0  0  0  0  0
    8.0418  -17.1820   21.7171 N   0  0  0  0  0  0  0  0  0  0  0  0
    9.7521  -15.7840   22.7175 C   0  0  0  0  0  0  0  0  0  0  0  0
   10.6869  -14.9497   22.6439 O   0  0  0  0  0  0  0  0  0  0  0  0
    9.3775  -16.4565   23.9085 N   0  0  0  0  0  0  0  0  0  0  0  0
   10.1889  -16.3302   25.0953 C   0  0  1  0  0  0  0  0  0  0  0  0
    9.9089  -14.9291   25.6391 C   0  0  0  0  0  0  0  0  0  0  0  0
    8.4465  -14.8094   25.8506 C   0  0  0  0  0  0  0  0  0  0  0  0
    7.4665  -15.7869   25.7736 C   0  0  0  0  0  0  0  0  0  0  0  0
    6.2720  -15.2341   26.0407 N   0  0  0  0  0  0  0  0  0  0  0  0
    6.4761  -13.9368   26.2832 C   0  0  0  0  0  0  0  0  0  0  0  0
    5.5984  -12.9132   26.6073 C   0  0  0  0  0  0  0  0  0  0  0  0
    6.0443  -11.6315   26.8155 C   0  0  0  0  0  0  0  0  0  0  0  0
    7.3810  -11.3148   26.7101 C   0  0  0  0  0  0  0  0  0  0  0  0
    8.2599  -12.3364   26.3864 C   0  0  0  0  0  0  0  0  0  0  0  0
    7.8091  -13.6129   26.1798 C   0  0  0  0  0  0  0  0  0  0  0  0
    9.8090  -17.3481   26.1007 C   0  0  0  0  0  0  0  0  0  0  0  0
    8.8262  -18.1025   25.9408 O   0  0  0  0  0  0  0  0  0  0  0  0
   10.5647  -17.4657   27.2489 O   0  0  0  0  0  0  0  0  0  0  0  0
  1  2  1  0
  2  3  1  0
  3 10  1  0
  3  4  2  0
  6  8  1  0
  6  5  1  0
  7  6  2  0
  9  8  1  1
 10  9  1  0
 11  9  1  0
 11 13  1  0
 12 11  2  0
 14 13  1  0
 14 15  1  1
 14 25  1  0
 16 15  1  0
 16 17  2  0
 18 17  1  0
 19 24  2  0
 19 18  1  0
 20 19  1  0
 21 22  1  0
 21 20  2  0
 22 23  2  0
 23 24  1  0
 24 16  1  0
 25 27  1  0
 26 25  2  0
M  END
$$$$
