GNW.pdb
     RDKit          3D

 27 28  0  0  1  0  0  0  0  0999 V2000
    5.9851  -18.3308   22.2904 N   0  0  0  0  0  0  0  0  0  0  0  0
    6.8703  -19.4820   22.2983 C   0  0  0  0  0  0  0  0  0  0  0  0
    8.3064  -19.0362   22.2169 C   0  0  0  0  0  0  0  0  0  0  0  0
    9.2091  -19.9062   22.2794 O   0  0  0  0  0  0  0  0  0  0  0  0
   11.8023  -16.0342   19.1627 N   0  0  0  0  0  0  0  0  0  0  0  0
   11.2458  -15.6350   20.4128 C   0  0  0  0  0  0  0  0  0  0  0  0
   11.9656  -14.8898   21.1220 O   0  0  0  0  0  0  0  0  0  0  0  0
    9.8945  -16.0980   20.8070 C   0  0  0  0  0  0  0  0  0  0  0  0
    9.9346  -17.2379   21.7955 C   0  0  2  0  0  0  0  0  0  0  0  0
    8.5709  -17.6519   22.0732 N   0  0  0  0  0  0  0  0  0  0  0  0
   10.6349  -16.8327   23.0476 C   0  0  0  0  0  0  0  0  0  0  0  0
   11.8694  -16.6116   22.9996 O   0  0  0  0  0  0  0  0  0  0  0  0
    9.8517  -16.7221   24.2247 N   0  0  0  0  0  0  0  0  0  0  0  0
   10.4810  -16.4039   25.4839 C   0  0  1  0  0  0  0  0  0  0  0  0
   10.0735  -14.9639   25.7961 C   0  0  0  0  0  0  0  0  0  0  0  0
    8.5966  -14.9275   25.9185 C   0  0  0  0  0  0  0  0  0  0  0  0
    7.6918  -15.9778   25.9317 C   0  0  0  0  0  0  0  0  0  0  0  0
    6.4489  -15.4859   26.0615 N   0  0  0  0  0  0  0  0  0  0  0  0
    6.5494  -14.1560   26.1301 C   0  0  0  0  0  0  0  0  0  0  0  0
    5.5864  -13.1672   26.2657 C   0  0  0  0  0  0  0  0  0  0  0  0
    5.9309  -11.8391   26.3142 C   0  0  0  0  0  0  0  0  0  0  0  0
    7.2467  -11.4394   26.2299 C   0  0  0  0  0  0  0  0  0  0  0  0
    8.2107  -12.4260   26.0944 C   0  0  0  0  0  0  0  0  0  0  0  0
    7.8609  -13.7492   26.0466 C   0  0  0  0  0  0  0  0  0  0  0  0
   10.0010  -17.3083   26.5529 C   0  0  0  0  0  0  0  0  0  0  0  0
    9.0660  -18.1157   26.3673 O   0  0  0  0  0  0  0  0  0  0  0  0
   10.6061  -17.2565   27.7917 O   0  0  0  0  0  0  0  0  0  0  0  0
  1  2  1  0
  2  3  1  0
  3 10  1  0
  3  4  2  0
  6  8  1  0
  6  5  1  0
  7  6  2  0
  9  8  1  6
 10  9  1  0
 11  9  1  0
 11 13  1  0
 12 11  2  0
 14 13  1  0
 14 15  1  1
 14 25  1  0
 16 15  1  0
 16 17  2  0
 18 17  1  0
 19 24  2  0
 19 18  1  0
 20 19  1  0
 21 22  1  0
 21 20  2  0
 22 23  2  0
 23 24  1  0
 24 16  1  0
 25 27  1  0
 26 25  2  0
M  END
$$$$
