GNW.pdb
     RDKit          3D

 27 28  0  0  1  0  0  0  0  0999 V2000
    7.2940  -19.4467   21.4090 N   0  0  0  0  0  0  0  0  0  0  0  0
    8.7425  -19.4876   21.3141 C   0  0  0  0  0  0  0  0  0  0  0  0
    9.3118  -18.0977   21.4231 C   0  0  0  0  0  0  0  0  0  0  0  0
   10.4931  -17.9020   21.0464 O   0  0  0  0  0  0  0  0  0  0  0  0
    5.9111  -15.4041   20.3787 N   0  0  0  0  0  0  0  0  0  0  0  0
    7.3006  -15.0866   20.4001 C   0  0  0  0  0  0  0  0  0  0  0  0
    7.8891  -15.1198   19.2915 O   0  0  0  0  0  0  0  0  0  0  0  0
    7.9655  -14.7442   21.6792 C   0  0  0  0  0  0  0  0  0  0  0  0
    9.0362  -15.7362   22.0632 C   0  0  2  0  0  0  0  0  0  0  0  0
    8.4844  -17.0742   21.9471 N   0  0  0  0  0  0  0  0  0  0  0  0
    9.5281  -15.4799   23.4470 C   0  0  0  0  0  0  0  0  0  0  0  0
   10.1836  -14.4322   23.6660 O   0  0  0  0  0  0  0  0  0  0  0  0
    9.2198  -16.4475   24.4369 N   0  0  0  0  0  0  0  0  0  0  0  0
    9.8178  -16.3563   25.7472 C   0  0  1  0  0  0  0  0  0  0  0  0
    8.6735  -16.5697   26.7383 C   0  0  0  0  0  0  0  0  0  0  0  0
    7.6130  -15.5825   26.4251 C   0  0  0  0  0  0  0  0  0  0  0  0
    6.3808  -15.7811   25.8217 C   0  0  0  0  0  0  0  0  0  0  0  0
    5.7387  -14.6046   25.7353 N   0  0  0  0  0  0  0  0  0  0  0  0
    6.5344  -13.6738   26.2680 C   0  0  0  0  0  0  0  0  0  0  0  0
    6.3671  -12.3072   26.4341 C   0  0  0  0  0  0  0  0  0  0  0  0
    7.3403  -11.5362   27.0200 C   0  0  0  0  0  0  0  0  0  0  0  0
    8.5199  -12.0920   27.4648 C   0  0  0  0  0  0  0  0  0  0  0  0
    8.6893  -13.4577   27.2996 C   0  0  0  0  0  0  0  0  0  0  0  0
    7.7147  -14.2215   26.7144 C   0  0  0  0  0  0  0  0  0  0  0  0
   10.8459  -17.4058   25.9282 C   0  0  0  0  0  0  0  0  0  0  0  0
   11.0332  -18.3030   25.0794 O   0  0  0  0  0  0  0  0  0  0  0  0
   11.6199  -17.3910   27.0701 O   0  0  0  0  0  0  0  0  0  0  0  0
  1  2  1  0
  2  3  1  0
  3 10  1  0
  3  4  2  0
  6  8  1  0
  6  5  1  0
  7  6  2  0
  9  8  1  1
 10  9  1  0
 11  9  1  0
 11 13  1  0
 12 11  2  0
 14 13  1  0
 14 15  1  1
 14 25  1  0
 16 15  1  0
 16 17  2  0
 18 17  1  0
 19 24  2  0
 19 18  1  0
 20 19  1  0
 21 22  1  0
 21 20  2  0
 22 23  2  0
 23 24  1  0
 24 16  1  0
 25 27  1  0
 26 25  2  0
M  END
$$$$
