FHT.pdb
     RDKit          3D

 29 30  0  0  1  0  0  0  0  0999 V2000
    7.3582  -15.8249   21.1507 N   0  0  0  0  0  0  0  0  0  0  0  0
    7.7518  -15.1420   22.3665 C   0  0  1  0  0  0  0  0  0  0  0  0
    6.4903  -14.6897   23.0560 C   0  0  0  0  0  0  0  0  0  0  0  0
    6.8978  -13.8953   24.2391 C   0  0  0  0  0  0  0  0  0  0  0  0
    7.4490  -12.6501   24.1415 C   0  0  0  0  0  0  0  0  0  0  0  0
    7.8138  -11.9488   25.2847 C   0  0  0  0  0  0  0  0  0  0  0  0
    7.6111  -12.5291   26.5221 C   0  0  0  0  0  0  0  0  0  0  0  0
    7.0585  -13.7802   26.6460 C   0  0  0  0  0  0  0  0  0  0  0  0
    6.7032  -14.4582   25.4831 C   0  0  0  0  0  0  0  0  0  0  0  0
    8.5863  -16.0284   23.1640 C   0  0  0  0  0  0  0  0  0  0  0  0
    8.1774  -17.1868   23.4457 O   0  0  0  0  0  0  0  0  0  0  0  0
    9.8706  -15.6861   23.6710 N   0  0  0  0  0  0  0  0  0  0  0  0
   10.7266  -16.6578   24.3317 C   0  0  1  0  0  0  0  0  0  0  0  0
   12.1878  -16.3220   24.1267 C   0  0  0  0  0  0  0  0  0  0  0  0
   12.6113  -16.7045   22.7638 C   0  0  0  0  0  0  0  0  0  0  0  0
   11.8656  -16.6231   21.6007 C   0  0  0  0  0  0  0  0  0  0  0  0
   12.6150  -17.0735   20.5511 N   0  0  0  0  0  0  0  0  0  0  0  0
   13.7999  -17.4263   21.0547 C   0  0  0  0  0  0  0  0  0  0  0  0
   13.7927  -17.2047   22.3728 N   0  0  0  0  0  0  0  0  0  0  0  0
   10.3491  -16.7887   25.7620 C   0  0  0  0  0  0  0  0  0  0  0  0
   10.3768  -15.8241   26.5665 O   0  0  0  0  0  0  0  0  0  0  0  0
    7.1668  -18.3368   27.2845 C   0  0  0  0  0  0  0  0  0  0  0  0
    8.3430  -19.1342   27.7911 C   0  0  1  0  0  0  0  0  0  0  0  0
    8.4123  -20.2965   27.0367 O   0  0  0  0  0  0  0  0  0  0  0  0
    9.5968  -18.3007   27.6455 C   0  0  2  0  0  0  0  0  0  0  0  0
    9.9316  -18.0765   26.2548 N   0  0  0  0  0  0  0  0  0  0  0  0
   10.7214  -18.9493   28.3246 C   0  0  0  0  0  0  0  0  0  0  0  0
   11.7478  -19.2534   27.6408 O   0  0  0  0  0  0  0  0  0  0  0  0
   10.6482  -19.2161   29.6809 O   0  0  0  0  0  0  0  0  0  0  0  0
  2  3  1  0
  2  1  1  6
  4  3  1  0
  4  9  1  0
  5  4  2  0
  6  5  1  0
  6  7  2  0
  7  8  1  0
  8  9  2  0
 10  2  1  0
 11 10  2  0
 12 10  1  0
 13 12  1  0
 14 15  1  0
 13 14  1  1
 15 19  1  0
 16 15  2  0
 16 17  1  0
 17 18  1  0
 19 18  2  0
 20 13  1  0
 20 21  2  0
 23 22  1  6
 23 25  1  0
 24 23  1  0
 25 26  1  6
 26 20  1  0
 27 25  1  0
 28 27  2  0
 29 27  1  0
M  END
$$$$
