FHT.pdb
     RDKit          3D

 29 30  0  0  1  0  0  0  0  0999 V2000
    8.9916  -16.9796   16.9790 N   0  0  0  0  0  0  0  0  0  0  0  0
    9.0549  -15.8619   17.8988 C   0  0  1  0  0  0  0  0  0  0  0  0
    7.6730  -15.6709   18.4690 C   0  0  0  0  0  0  0  0  0  0  0  0
    7.7744  -14.6394   19.5284 C   0  0  0  0  0  0  0  0  0  0  0  0
    7.5865  -14.9157   20.8522 C   0  0  0  0  0  0  0  0  0  0  0  0
    7.6930  -13.9092   21.8048 C   0  0  0  0  0  0  0  0  0  0  0  0
    7.9918  -12.6244   21.3940 C   0  0  0  0  0  0  0  0  0  0  0  0
    8.1853  -12.3216   20.0685 C   0  0  0  0  0  0  0  0  0  0  0  0
    8.0721  -13.3507   19.1376 C   0  0  0  0  0  0  0  0  0  0  0  0
   10.0841  -16.1202   18.8949 C   0  0  0  0  0  0  0  0  0  0  0  0
   10.1253  -17.2373   19.4766 O   0  0  0  0  0  0  0  0  0  0  0  0
   11.0838  -15.1849   19.2816 N   0  0  0  0  0  0  0  0  0  0  0  0
   12.0947  -15.4993   20.2779 C   0  0  1  0  0  0  0  0  0  0  0  0
   13.2891  -14.5794   20.1484 C   0  0  0  0  0  0  0  0  0  0  0  0
   13.9904  -14.8328   18.8726 C   0  0  0  0  0  0  0  0  0  0  0  0
   14.4604  -16.0463   18.4015 C   0  0  0  0  0  0  0  0  0  0  0  0
   15.0495  -15.8603   17.1831 N   0  0  0  0  0  0  0  0  0  0  0  0
   14.9459  -14.5585   16.9064 C   0  0  0  0  0  0  0  0  0  0  0  0
   14.3144  -13.9509   17.9157 N   0  0  0  0  0  0  0  0  0  0  0  0
   11.4965  -15.4973   21.6372 C   0  0  0  0  0  0  0  0  0  0  0  0
   11.1384  -14.4457   22.2241 O   0  0  0  0  0  0  0  0  0  0  0  0
    8.4674  -16.6831   23.1134 C   0  0  0  0  0  0  0  0  0  0  0  0
    9.5160  -17.5347   23.7852 C   0  0  1  0  0  0  0  0  0  0  0  0
    9.5352  -18.7598   23.1342 O   0  0  0  0  0  0  0  0  0  0  0  0
   10.8518  -16.8317   23.6874 C   0  0  2  0  0  0  0  0  0  0  0  0
   11.3165  -16.7541   22.3183 N   0  0  0  0  0  0  0  0  0  0  0  0
   11.8510  -17.5201   24.5086 C   0  0  0  0  0  0  0  0  0  0  0  0
   12.8681  -18.0183   23.9335 O   0  0  0  0  0  0  0  0  0  0  0  0
   11.6729  -17.6149   25.8779 O   0  0  0  0  0  0  0  0  0  0  0  0
  2  3  1  0
  2  1  1  6
  4  3  1  0
  4  9  1  0
  5  4  2  0
  6  5  1  0
  6  7  2  0
  7  8  1  0
  8  9  2  0
 10  2  1  0
 11 10  2  0
 12 10  1  0
 13 12  1  0
 14 15  1  0
 13 14  1  1
 15 19  1  0
 16 15  2  0
 16 17  1  0
 17 18  1  0
 19 18  2  0
 20 13  1  0
 20 21  2  0
 23 22  1  6
 23 25  1  0
 24 23  1  0
 25 26  1  6
 26 20  1  0
 27 25  1  0
 28 27  2  0
 29 27  1  0
M  END
$$$$
