FHT.pdb
     RDKit          3D

 29 30  0  0  1  0  0  0  0  0999 V2000
    8.5651  -16.5490   16.8808 N   0  0  0  0  0  0  0  0  0  0  0  0
    8.6923  -15.7386   18.0752 C   0  0  1  0  0  0  0  0  0  0  0  0
    7.4534  -14.8860   18.1732 C   0  0  0  0  0  0  0  0  0  0  0  0
    7.5458  -14.1221   19.4399 C   0  0  0  0  0  0  0  0  0  0  0  0
    7.0093  -14.5666   20.6141 C   0  0  0  0  0  0  0  0  0  0  0  0
    7.1248  -13.8089   21.7736 C   0  0  0  0  0  0  0  0  0  0  0  0
    7.7901  -12.5992   21.7222 C   0  0  0  0  0  0  0  0  0  0  0  0
    8.3382  -12.1309   20.5533 C   0  0  0  0  0  0  0  0  0  0  0  0
    8.2065  -12.9119   19.4083 C   0  0  0  0  0  0  0  0  0  0  0  0
    8.9142  -16.6078   19.2213 C   0  0  0  0  0  0  0  0  0  0  0  0
    8.3507  -17.7339   19.2707 O   0  0  0  0  0  0  0  0  0  0  0  0
    9.7430  -16.2824   20.3307 N   0  0  0  0  0  0  0  0  0  0  0  0
   10.0868  -17.2572   21.3529 C   0  0  1  0  0  0  0  0  0  0  0  0
   11.4052  -17.9305   21.0393 C   0  0  0  0  0  0  0  0  0  0  0  0
   11.6465  -19.0412   21.9836 C   0  0  0  0  0  0  0  0  0  0  0  0
   10.7033  -19.8863   22.5418 C   0  0  0  0  0  0  0  0  0  0  0  0
   11.3283  -20.7808   23.3636 N   0  0  0  0  0  0  0  0  0  0  0  0
   12.6313  -20.4948   23.3146 C   0  0  0  0  0  0  0  0  0  0  0  0
   12.8156  -19.4580   22.4914 N   0  0  0  0  0  0  0  0  0  0  0  0
   10.0542  -16.6273   22.6973 C   0  0  0  0  0  0  0  0  0  0  0  0
   10.7593  -15.6334   23.0030 O   0  0  0  0  0  0  0  0  0  0  0  0
    6.8216  -15.6856   24.6879 C   0  0  0  0  0  0  0  0  0  0  0  0
    7.6459  -16.6259   25.5319 C   0  0  1  0  0  0  0  0  0  0  0  0
    7.0795  -17.8877   25.4213 O   0  0  0  0  0  0  0  0  0  0  0  0
    9.0723  -16.6102   25.0286 C   0  0  2  0  0  0  0  0  0  0  0  0
    9.1769  -17.1758   23.6999 N   0  0  0  0  0  0  0  0  0  0  0  0
    9.9447  -17.3459   25.9474 C   0  0  0  0  0  0  0  0  0  0  0  0
   10.5289  -18.3904   25.5218 O   0  0  0  0  0  0  0  0  0  0  0  0
   10.1156  -16.8972   27.2456 O   0  0  0  0  0  0  0  0  0  0  0  0
  2  3  1  0
  2  1  1  6
  4  3  1  0
  4  9  1  0
  5  4  2  0
  6  5  1  0
  6  7  2  0
  7  8  1  0
  8  9  2  0
 10  2  1  0
 11 10  2  0
 12 10  1  0
 13 12  1  0
 14 15  1  0
 13 14  1  6
 15 19  1  0
 16 15  2  0
 16 17  1  0
 17 18  1  0
 19 18  2  0
 20 13  1  0
 20 21  2  0
 23 22  1  6
 23 25  1  0
 24 23  1  0
 25 26  1  6
 26 20  1  0
 27 25  1  0
 28 27  2  0
 29 27  1  0
M  END
$$$$
