FHT.pdb
     RDKit          3D

 29 30  0  0  1  0  0  0  0  0999 V2000
    5.9094  -16.0907   25.4822 N   0  0  0  0  0  0  0  0  0  0  0  0
    7.2065  -15.5346   25.1540 C   0  0  1  0  0  0  0  0  0  0  0  0
    7.5359  -14.5103   26.2094 C   0  0  0  0  0  0  0  0  0  0  0  0
    6.8559  -13.2506   25.8253 C   0  0  0  0  0  0  0  0  0  0  0  0
    7.2034  -12.5280   24.7203 C   0  0  0  0  0  0  0  0  0  0  0  0
    6.5320  -11.3521   24.4068 C   0  0  0  0  0  0  0  0  0  0  0  0
    5.5075  -10.9239   25.2289 C   0  0  0  0  0  0  0  0  0  0  0  0
    5.1396  -11.6332   26.3458 C   0  0  0  0  0  0  0  0  0  0  0  0
    5.8305  -12.8071   26.6340 C   0  0  0  0  0  0  0  0  0  0  0  0
    8.1756  -16.6147   25.0436 C   0  0  0  0  0  0  0  0  0  0  0  0
    8.1408  -17.5725   25.8619 O   0  0  0  0  0  0  0  0  0  0  0  0
    9.1959  -16.6838   24.0546 N   0  0  0  0  0  0  0  0  0  0  0  0
   10.3161  -17.6042   24.1604 C   0  0  1  0  0  0  0  0  0  0  0  0
   11.0432  -17.7284   22.8392 C   0  0  0  0  0  0  0  0  0  0  0  0
   12.1025  -18.7542   22.9360 C   0  0  0  0  0  0  0  0  0  0  0  0
   12.4404  -19.5077   24.0466 C   0  0  0  0  0  0  0  0  0  0  0  0
   13.4724  -20.3441   23.7281 N   0  0  0  0  0  0  0  0  0  0  0  0
   13.7667  -20.1127   22.4468 C   0  0  0  0  0  0  0  0  0  0  0  0
   12.9481  -19.1650   21.9796 N   0  0  0  0  0  0  0  0  0  0  0  0
   11.2031  -17.2092   25.2842 C   0  0  0  0  0  0  0  0  0  0  0  0
   12.0008  -16.2409   25.2166 O   0  0  0  0  0  0  0  0  0  0  0  0
   10.7946  -15.4459   28.0006 C   0  0  0  0  0  0  0  0  0  0  0  0
   11.1181  -16.7702   28.6468 C   0  0  1  0  0  0  0  0  0  0  0  0
    9.9140  -17.3822   28.9642 O   0  0  0  0  0  0  0  0  0  0  0  0
   11.9264  -17.6023   27.6762 C   0  0  2  0  0  0  0  0  0  0  0  0
   11.1510  -17.9663   26.5088 N   0  0  0  0  0  0  0  0  0  0  0  0
   12.4237  -18.8131   28.3345 C   0  0  0  0  0  0  0  0  0  0  0  0
   12.0598  -19.9421   27.8802 O   0  0  0  0  0  0  0  0  0  0  0  0
   13.2697  -18.7084   29.4250 O   0  0  0  0  0  0  0  0  0  0  0  0
  2  3  1  0
  2  1  1  1
  4  3  1  0
  4  9  1  0
  5  4  2  0
  6  5  1  0
  6  7  2  0
  7  8  1  0
  8  9  2  0
 10  2  1  0
 11 10  2  0
 12 10  1  0
 13 12  1  0
 14 15  1  0
 13 14  1  6
 15 19  1  0
 16 15  2  0
 16 17  1  0
 17 18  1  0
 19 18  2  0
 20 13  1  0
 20 21  2  0
 23 22  1  6
 23 25  1  0
 24 23  1  0
 25 26  1  6
 26 20  1  0
 27 25  1  0
 28 27  2  0
 29 27  1  0
M  END
$$$$
