FHT.pdb
     RDKit          3D

 29 30  0  0  1  0  0  0  0  0999 V2000
    5.8030  -17.9594   25.7862 N   0  0  0  0  0  0  0  0  0  0  0  0
    6.1175  -16.5510   25.6567 C   0  0  1  0  0  0  0  0  0  0  0  0
    6.7506  -16.1115   26.9519 C   0  0  0  0  0  0  0  0  0  0  0  0
    6.9148  -14.6401   26.8826 C   0  0  0  0  0  0  0  0  0  0  0  0
    5.8593  -13.7746   26.9097 C   0  0  0  0  0  0  0  0  0  0  0  0
    6.0704  -12.4025   26.8411 C   0  0  0  0  0  0  0  0  0  0  0  0
    7.3636  -11.9258   26.7451 C   0  0  0  0  0  0  0  0  0  0  0  0
    8.4415  -12.7762   26.7160 C   0  0  0  0  0  0  0  0  0  0  0  0
    8.1986  -14.1453   26.7864 C   0  0  0  0  0  0  0  0  0  0  0  0
    6.9550  -16.3541   24.4828 C   0  0  0  0  0  0  0  0  0  0  0  0
    7.7855  -17.2419   24.1509 O   0  0  0  0  0  0  0  0  0  0  0  0
    6.9142  -15.2030   23.6479 N   0  0  0  0  0  0  0  0  0  0  0  0
    7.7305  -15.0852   22.4508 C   0  0  1  0  0  0  0  0  0  0  0  0
    7.3428  -13.8628   21.6476 C   0  0  0  0  0  0  0  0  0  0  0  0
    8.0151  -13.8843   20.3319 C   0  0  0  0  0  0  0  0  0  0  0  0
    7.5047  -13.4453   19.1227 C   0  0  0  0  0  0  0  0  0  0  0  0
    8.4368  -13.6366   18.1427 N   0  0  0  0  0  0  0  0  0  0  0  0
    9.5020  -14.1828   18.7336 C   0  0  0  0  0  0  0  0  0  0  0  0
    9.2459  -14.3283   20.0373 N   0  0  0  0  0  0  0  0  0  0  0  0
    9.1723  -15.1227   22.8045 C   0  0  0  0  0  0  0  0  0  0  0  0
    9.6779  -14.3862   23.6880 O   0  0  0  0  0  0  0  0  0  0  0  0
   11.3525  -17.6825   24.2876 C   0  0  0  0  0  0  0  0  0  0  0  0
   11.8404  -17.5117   22.8703 C   0  0  1  0  0  0  0  0  0  0  0  0
   11.2503  -18.5076   22.1054 O   0  0  0  0  0  0  0  0  0  0  0  0
   11.4530  -16.1330   22.3836 C   0  0  2  0  0  0  0  0  0  0  0  0
   10.0346  -16.0423   22.1072 N   0  0  0  0  0  0  0  0  0  0  0  0
   12.2127  -15.7856   21.1800 C   0  0  0  0  0  0  0  0  0  0  0  0
   11.5840  -15.6536   20.0842 O   0  0  0  0  0  0  0  0  0  0  0  0
   13.5835  -15.6094   21.2555 O   0  0  0  0  0  0  0  0  0  0  0  0
  2  3  1  0
  2  1  1  1
  4  3  1  0
  4  9  1  0
  5  4  2  0
  6  5  1  0
  6  7  2  0
  7  8  1  0
  8  9  2  0
 10  2  1  0
 11 10  2  0
 12 10  1  0
 13 12  1  0
 14 15  1  0
 13 14  1  1
 15 19  1  0
 16 15  2  0
 16 17  1  0
 17 18  1  0
 19 18  2  0
 20 13  1  0
 20 21  2  0
 23 22  1  1
 23 25  1  0
 24 23  1  0
 25 26  1  6
 26 20  1  0
 27 25  1  0
 28 27  2  0
 29 27  1  0
M  END
$$$$
