STN.pdb
     RDKit          3D

 22 21  0  0  1  0  0  0  0  0999 V2000
   11.7085  -19.4975   20.9609 O   0  0  0  0  0  0  0  0  0  0  0  0
   10.4240  -19.3235   21.4449 C   0  0  0  0  0  0  0  0  0  0  0  0
   10.0466  -17.8461   21.5019 C   0  0  2  0  0  0  0  0  0  0  0  0
   10.7278  -17.1924   20.4211 N   0  0  0  0  0  0  0  0  0  0  0  0
   10.3942  -17.2439   22.7922 C   0  0  0  0  0  0  0  0  0  0  0  0
   11.3862  -16.4881   22.9327 O   0  0  0  0  0  0  0  0  0  0  0  0
    9.0519  -14.6172   24.6425 C   0  0  0  0  0  0  0  0  0  0  0  0
    8.9691  -15.7681   25.5792 C   0  0  1  0  0  0  0  0  0  0  0  0
    7.6449  -16.1944   25.6434 O   0  0  0  0  0  0  0  0  0  0  0  0
    9.8974  -16.9027   25.2454 C   0  0  2  0  0  0  0  0  0  0  0  0
    9.6030  -17.4982   23.9629 N   0  0  0  0  0  0  0  0  0  0  0  0
    9.9919  -17.9085   26.3274 C   0  0  0  0  0  0  0  0  0  0  0  0
    9.0556  -18.7427   26.4256 O   0  0  0  0  0  0  0  0  0  0  0  0
   14.4531  -19.1905   27.0551 N   0  0  0  0  0  0  0  0  0  0  0  0
   13.2459  -19.8638   27.4651 C   0  0  0  0  0  0  0  0  0  0  0  0
   12.8886  -20.8243   26.7637 O   0  0  0  0  0  0  0  0  0  0  0  0
   12.4854  -19.4395   28.6407 C   0  0  0  0  0  0  0  0  0  0  0  0
   11.1208  -18.9957   28.3128 C   0  0  2  0  0  0  0  0  0  0  0  0
   11.0586  -18.0002   27.2593 N   0  0  0  0  0  0  0  0  0  0  0  0
   10.4392  -18.4558   29.5034 C   0  0  0  0  0  0  0  0  0  0  0  0
   10.2698  -19.2680   30.6602 O   0  0  0  0  0  0  0  0  0  0  0  0
    9.9631  -17.3096   29.6350 O   0  0  0  0  0  0  0  0  0  0  0  0
  1  2  1  0
  2  3  1  0
  3  5  1  0
  3  4  1  6
  5 11  1  0
  6  5  2  0
  8  9  1  0
  8  7  1  6
 10 11  1  6
 10 12  1  0
 10  8  1  0
 12 19  1  0
 12 13  2  0
 15 14  1  0
 15 16  2  0
 17 15  1  0
 18 17  1  1
 18 20  1  0
 19 18  1  0
 20 22  2  0
 20 21  1  0
M  END
$$$$
