STN.pdb
     RDKit          3D

 22 21  0  0  1  0  0  0  0  0999 V2000
   10.0568  -11.9870   19.2406 O   0  0  0  0  0  0  0  0  0  0  0  0
    9.8875  -12.8902   18.2062 C   0  0  0  0  0  0  0  0  0  0  0  0
    8.5009  -13.5261   18.2444 C   0  0  2  0  0  0  0  0  0  0  0  0
    7.5493  -12.4602   18.3787 N   0  0  0  0  0  0  0  0  0  0  0  0
    8.3746  -14.4937   19.3380 C   0  0  0  0  0  0  0  0  0  0  0  0
    7.7860  -14.2175   20.4114 O   0  0  0  0  0  0  0  0  0  0  0  0
    7.5514  -18.3647   18.7285 C   0  0  0  0  0  0  0  0  0  0  0  0
    8.6551  -18.2007   19.7101 C   0  0  1  0  0  0  0  0  0  0  0  0
    9.8412  -18.6313   19.1211 O   0  0  0  0  0  0  0  0  0  0  0  0
    8.7878  -16.8082   20.2617 C   0  0  2  0  0  0  0  0  0  0  0  0
    8.9269  -15.8139   19.2235 N   0  0  0  0  0  0  0  0  0  0  0  0
    9.8397  -16.6955   21.2971 C   0  0  0  0  0  0  0  0  0  0  0  0
   10.8897  -16.0747   20.9904 O   0  0  0  0  0  0  0  0  0  0  0  0
   11.8038  -16.1708   26.6313 N   0  0  0  0  0  0  0  0  0  0  0  0
   11.4506  -17.3894   25.9463 C   0  0  0  0  0  0  0  0  0  0  0  0
   12.1259  -18.3925   26.2287 O   0  0  0  0  0  0  0  0  0  0  0  0
   10.3585  -17.4407   24.9741 C   0  0  0  0  0  0  0  0  0  0  0  0
   10.7836  -17.0766   23.6128 C   0  0  2  0  0  0  0  0  0  0  0  0
    9.7501  -17.2350   22.6070 N   0  0  0  0  0  0  0  0  0  0  0  0
   11.9605  -17.8618   23.1977 C   0  0  0  0  0  0  0  0  0  0  0  0
   13.2727  -17.3759   23.4595 O   0  0  0  0  0  0  0  0  0  0  0  0
   11.9533  -18.9634   22.6113 O   0  0  0  0  0  0  0  0  0  0  0  0
  1  2  1  0
  2  3  1  0
  3  5  1  0
  3  4  1  1
  5 11  1  0
  6  5  2  0
  8  9  1  0
  8  7  1  6
 10 11  1  6
 10 12  1  0
 10  8  1  0
 12 19  1  0
 12 13  2  0
 15 14  1  0
 15 16  2  0
 17 15  1  0
 18 17  1  1
 18 20  1  0
 19 18  1  0
 20 22  2  0
 20 21  1  0
M  END
$$$$
