STN.pdb
     RDKit          3D

 22 21  0  0  1  0  0  0  0  0999 V2000
    8.8447  -16.7809   15.0131 O   0  0  0  0  0  0  0  0  0  0  0  0
    9.1853  -15.4656   15.2745 C   0  0  0  0  0  0  0  0  0  0  0  0
    8.1103  -14.7666   16.1016 C   0  0  2  0  0  0  0  0  0  0  0  0
    7.5432  -13.7378   15.2772 N   0  0  0  0  0  0  0  0  0  0  0  0
    8.6532  -14.2133   17.3456 C   0  0  0  0  0  0  0  0  0  0  0  0
    9.3222  -13.1518   17.3703 O   0  0  0  0  0  0  0  0  0  0  0  0
    7.0476  -13.2158   20.6736 C   0  0  0  0  0  0  0  0  0  0  0  0
    8.0839  -14.2458   20.9455 C   0  0  1  0  0  0  0  0  0  0  0  0
    7.4477  -15.4397   21.2761 O   0  0  0  0  0  0  0  0  0  0  0  0
    9.0699  -14.4385   19.8269 C   0  0  2  0  0  0  0  0  0  0  0  0
    8.4385  -14.8727   18.6026 N   0  0  0  0  0  0  0  0  0  0  0  0
   10.2144  -15.2966   20.2079 C   0  0  0  0  0  0  0  0  0  0  0  0
   10.2127  -16.4830   19.7903 O   0  0  0  0  0  0  0  0  0  0  0  0
   13.5192  -16.0473   18.8782 N   0  0  0  0  0  0  0  0  0  0  0  0
   14.0936  -15.1840   19.8801 C   0  0  0  0  0  0  0  0  0  0  0  0
   14.9285  -14.3574   19.4779 O   0  0  0  0  0  0  0  0  0  0  0  0
   13.7142  -15.2769   21.2900 C   0  0  0  0  0  0  0  0  0  0  0  0
   12.3443  -15.7787   21.4845 C   0  0  2  0  0  0  0  0  0  0  0  0
   11.3105  -14.8795   21.0076 N   0  0  0  0  0  0  0  0  0  0  0  0
   12.0850  -16.0731   22.9057 C   0  0  0  0  0  0  0  0  0  0  0  0
   11.0206  -15.4195   23.5887 O   0  0  0  0  0  0  0  0  0  0  0  0
   12.7168  -16.8692   23.6300 O   0  0  0  0  0  0  0  0  0  0  0  0
  1  2  1  0
  2  3  1  0
  3  5  1  0
  3  4  1  6
  5 11  1  0
  6  5  2  0
  8  9  1  0
  8  7  1  6
 10 11  1  6
 10 12  1  0
 10  8  1  0
 12 19  1  0
 12 13  2  0
 15 14  1  0
 15 16  2  0
 17 15  1  0
 18 17  1  1
 18 20  1  0
 19 18  1  0
 20 22  2  0
 20 21  1  0
M  END
$$$$
