STN.pdb
     RDKit          3D

 22 21  0  0  1  0  0  0  0  0999 V2000
   10.5876  -18.3669   15.8118 O   0  0  0  0  0  0  0  0  0  0  0  0
   10.9477  -17.3982   16.7318 C   0  0  0  0  0  0  0  0  0  0  0  0
    9.9814  -16.2176   16.7033 C   0  0  2  0  0  0  0  0  0  0  0  0
   10.3674  -15.3803   15.6035 N   0  0  0  0  0  0  0  0  0  0  0  0
    9.9905  -15.4749   17.9669 C   0  0  0  0  0  0  0  0  0  0  0  0
   10.9553  -14.7494   18.3100 O   0  0  0  0  0  0  0  0  0  0  0  0
    7.3453  -12.9507   19.0991 C   0  0  0  0  0  0  0  0  0  0  0  0
    7.5168  -13.9728   20.1642 C   0  0  1  0  0  0  0  0  0  0  0  0
    6.4098  -14.8177   20.1516 O   0  0  0  0  0  0  0  0  0  0  0  0
    8.8021  -14.7477   20.0740 C   0  0  2  0  0  0  0  0  0  0  0  0
    8.8810  -15.5490   18.8750 N   0  0  0  0  0  0  0  0  0  0  0  0
    9.0914  -15.5301   21.2969 C   0  0  0  0  0  0  0  0  0  0  0  0
    9.0316  -16.7834   21.2099 O   0  0  0  0  0  0  0  0  0  0  0  0
    9.7318  -15.5264   27.3424 N   0  0  0  0  0  0  0  0  0  0  0  0
   10.3783  -15.8190   26.0872 C   0  0  0  0  0  0  0  0  0  0  0  0
   11.1270  -16.8096   26.0740 O   0  0  0  0  0  0  0  0  0  0  0  0
   10.1640  -14.9955   24.8970 C   0  0  0  0  0  0  0  0  0  0  0  0
    9.6335  -15.7604   23.7569 C   0  0  2  0  0  0  0  0  0  0  0  0
    9.4304  -14.9709   22.5568 N   0  0  0  0  0  0  0  0  0  0  0  0
    8.3585  -16.4137   24.1049 C   0  0  0  0  0  0  0  0  0  0  0  0
    8.3567  -17.7077   24.6984 O   0  0  0  0  0  0  0  0  0  0  0  0
    7.2121  -15.9502   23.9358 O   0  0  0  0  0  0  0  0  0  0  0  0
  1  2  1  0
  2  3  1  0
  3  5  1  0
  3  4  1  6
  5 11  1  0
  6  5  2  0
  8  9  1  0
  8  7  1  6
 10 11  1  6
 10 12  1  0
 10  8  1  0
 12 19  1  0
 12 13  2  0
 15 14  1  0
 15 16  2  0
 17 15  1  0
 18 17  1  1
 18 20  1  0
 19 18  1  0
 20 22  2  0
 20 21  1  0
M  END
$$$$
