STN.pdb
     RDKit          3D

 22 21  0  0  1  0  0  0  0  0999 V2000
   -1.0371  -27.5705   32.3807 O   0  0  0  0  0  0  0  0  0  0  0  0
   -1.8433  -26.7279   31.6362 C   0  0  0  0  0  0  0  0  0  0  0  0
   -1.8869  -27.1511   30.1708 C   0  0  2  0  0  0  0  0  0  0  0  0
   -0.5520  -27.0366   29.6565 N   0  0  0  0  0  0  0  0  0  0  0  0
   -2.8278  -26.3372   29.3958 C   0  0  0  0  0  0  0  0  0  0  0  0
   -2.4704  -25.3017   28.7835 O   0  0  0  0  0  0  0  0  0  0  0  0
   -5.2515  -27.6713   26.6351 C   0  0  0  0  0  0  0  0  0  0  0  0
   -6.0076  -26.8852   27.6446 C   0  0  1  0  0  0  0  0  0  0  0  0
   -6.7402  -27.7662   28.4361 O   0  0  0  0  0  0  0  0  0  0  0  0
   -5.1540  -25.9728   28.4811 C   0  0  2  0  0  0  0  0  0  0  0  0
   -4.2147  -26.6970   29.3052 N   0  0  0  0  0  0  0  0  0  0  0  0
   -5.9461  -24.9910   29.2557 C   0  0  0  0  0  0  0  0  0  0  0  0
   -6.4164  -25.3686   30.3595 O   0  0  0  0  0  0  0  0  0  0  0  0
   -5.5716  -22.4987   31.9624 N   0  0  0  0  0  0  0  0  0  0  0  0
   -5.6870  -21.3599   31.0855 C   0  0  0  0  0  0  0  0  0  0  0  0
   -5.1144  -20.3223   31.4563 O   0  0  0  0  0  0  0  0  0  0  0  0
   -6.4362  -21.4237   29.8305 C   0  0  0  0  0  0  0  0  0  0  0  0
   -7.0500  -22.7404   29.5940 C   0  0  2  0  0  0  0  0  0  0  0  0
   -6.2127  -23.6587   28.8453 N   0  0  0  0  0  0  0  0  0  0  0  0
   -8.3378  -22.6053   28.8889 C   0  0  0  0  0  0  0  0  0  0  0  0
   -8.5212  -23.2094   27.6130 O   0  0  0  0  0  0  0  0  0  0  0  0
   -9.3480  -21.9928   29.2913 O   0  0  0  0  0  0  0  0  0  0  0  0
  1  2  1  0
  2  3  1  0
  3  5  1  0
  3  4  1  6
  5 11  1  0
  6  5  2  0
  8  9  1  0
  8  7  1  6
 10 11  1  1
 10 12  1  0
 10  8  1  0
 12 19  1  0
 12 13  2  0
 15 14  1  0
 15 16  2  0
 17 15  1  0
 18 17  1  6
 18 20  1  0
 19 18  1  0
 20 22  2  0
 20 21  1  0
M  END
$$$$
