STN.pdb
     RDKit          3D

 22 21  0  0  1  0  0  0  0  0999 V2000
    7.4840  -19.4992   16.9609 O   0  0  0  0  0  0  0  0  0  0  0  0
    7.1647  -18.5246   17.8897 C   0  0  0  0  0  0  0  0  0  0  0  0
    7.4683  -17.1275   17.3564 C   0  0  2  0  0  0  0  0  0  0  0  0
    8.0979  -17.2896   16.0770 N   0  0  0  0  0  0  0  0  0  0  0  0
    8.3186  -16.3659   18.2758 C   0  0  0  0  0  0  0  0  0  0  0  0
    9.5269  -16.1312   18.0310 O   0  0  0  0  0  0  0  0  0  0  0  0
    7.5824  -12.9171   20.0735 C   0  0  0  0  0  0  0  0  0  0  0  0
    7.9372  -13.9636   21.0673 C   0  0  1  0  0  0  0  0  0  0  0  0
    6.7867  -14.3213   21.7658 O   0  0  0  0  0  0  0  0  0  0  0  0
    8.6204  -15.1666   20.4785 C   0  0  2  0  0  0  0  0  0  0  0  0
    7.7961  -15.8511   19.5099 N   0  0  0  0  0  0  0  0  0  0  0  0
    9.1635  -16.0827   21.5067 C   0  0  0  0  0  0  0  0  0  0  0  0
    8.5825  -17.1872   21.6629 O   0  0  0  0  0  0  0  0  0  0  0  0
   11.9668  -18.8600   21.6786 N   0  0  0  0  0  0  0  0  0  0  0  0
   12.6505  -17.6740   22.1311 C   0  0  0  0  0  0  0  0  0  0  0  0
   13.6241  -17.3096   21.4519 O   0  0  0  0  0  0  0  0  0  0  0  0
   12.2213  -16.9417   23.3228 C   0  0  0  0  0  0  0  0  0  0  0  0
   10.7691  -16.7049   23.3597 C   0  0  2  0  0  0  0  0  0  0  0  0
   10.2888  -15.8065   22.3266 N   0  0  0  0  0  0  0  0  0  0  0  0
   10.3526  -16.1720   24.6697 C   0  0  0  0  0  0  0  0  0  0  0  0
   10.5637  -16.9358   25.8523 O   0  0  0  0  0  0  0  0  0  0  0  0
    9.8059  -15.0715   24.8878 O   0  0  0  0  0  0  0  0  0  0  0  0
  1  2  1  0
  2  3  1  0
  3  5  1  0
  3  4  1  6
  5 11  1  0
  6  5  2  0
  8  9  1  0
  8  7  1  6
 10 11  1  1
 10 12  1  0
 10  8  1  0
 12 19  1  0
 12 13  2  0
 15 14  1  0
 15 16  2  0
 17 15  1  0
 18 17  1  1
 18 20  1  0
 19 18  1  0
 20 22  2  0
 20 21  1  0
M  END
$$$$
