PWR.pdb
     RDKit          3D

 33 35  0  0  1  0  0  0  0  0999 V2000
   28.0512  -18.7678  -17.0721 N   0  0  0  0  0  0  0  0  0  0  0  0
   29.4690  -18.4802  -17.2036 C   0  0  0  0  0  0  0  0  0  0  0  0
   30.1569  -19.8010  -16.8253 C   0  0  0  0  0  0  0  0  0  0  0  0
   29.2419  -20.7751  -17.5354 C   0  0  0  0  0  0  0  0  0  0  0  0
   27.8832  -20.1758  -17.2611 C   0  0  1  0  0  0  0  0  0  0  0  0
   27.3904  -20.7959  -15.9776 C   0  0  0  0  0  0  0  0  0  0  0  0
   27.1623  -22.0330  -15.9396 O   0  0  0  0  0  0  0  0  0  0  0  0
   27.1949  -19.9734  -14.8435 N   0  0  0  0  0  0  0  0  0  0  0  0
   26.7095  -20.4670  -13.5765 C   0  0  1  0  0  0  0  0  0  0  0  0
   27.5074  -19.9364  -12.4471 C   0  0  0  0  0  0  0  0  0  0  0  0
   27.1099  -20.6673  -11.2037 C   0  0  0  0  0  0  0  0  0  0  0  0
   27.1177  -22.0230  -10.9708 C   0  0  0  0  0  0  0  0  0  0  0  0
   26.6896  -22.3036   -9.7254 N   0  0  0  0  0  0  0  0  0  0  0  0
   26.3965  -21.1305   -9.1289 C   0  0  0  0  0  0  0  0  0  0  0  0
   25.9259  -20.8091   -7.8789 C   0  0  0  0  0  0  0  0  0  0  0  0
   25.7062  -19.4981   -7.5140 C   0  0  0  0  0  0  0  0  0  0  0  0
   25.9620  -18.4924   -8.4159 C   0  0  0  0  0  0  0  0  0  0  0  0
   26.4325  -18.7975   -9.6684 C   0  0  0  0  0  0  0  0  0  0  0  0
   26.6460  -20.1077  -10.0163 C   0  0  0  0  0  0  0  0  0  0  0  0
   25.2390  -20.3048  -13.4110 C   0  0  0  0  0  0  0  0  0  0  0  0
   24.7377  -19.1894  -13.6399 O   0  0  0  0  0  0  0  0  0  0  0  0
   22.1681  -27.1274  -15.3224 N   0  0  0  0  0  0  0  0  0  0  0  0
   21.0525  -26.2666  -14.9416 C   0  0  0  0  0  0  0  0  0  0  0  0
   19.9020  -26.7431  -15.0038 N   0  0  0  0  0  0  0  0  0  0  0  0
   21.3180  -24.9422  -14.5246 N   0  0  0  0  0  0  0  0  0  0  0  0
   20.3779  -23.9637  -14.0938 C   0  0  0  0  0  0  0  0  0  0  0  0
   20.8830  -22.6426  -13.6571 C   0  0  0  0  0  0  0  0  0  0  0  0
   22.3987  -22.6451  -13.5046 C   0  0  0  0  0  0  0  0  0  0  0  0
   22.9474  -21.3149  -13.1268 C   0  0  2  0  0  0  0  0  0  0  0  0
   24.4110  -21.3740  -13.0050 N   0  0  0  0  0  0  0  0  0  0  0  0
   22.3629  -20.7234  -11.9057 C   0  0  0  0  0  0  0  0  0  0  0  0
   21.1399  -20.0324  -12.0042 O   0  0  0  0  0  0  0  0  0  0  0  0
   22.8629  -20.7804  -10.7695 O   0  0  0  0  0  0  0  0  0  0  0  0
  1  2  1  0
  3  2  1  0
  4  5  1  0
  4  3  1  0
  5  1  1  0
  5  6  1  1
  6  7  2  0
  8  6  1  0
  9  8  1  0
  9 10  1  1
 11 10  1  0
 12 11  2  0
 13 14  1  0
 13 12  1  0
 14 19  2  0
 15 16  2  0
 15 14  1  0
 16 17  1  0
 17 18  2  0
 19 18  1  0
 19 11  1  0
 20  9  1  0
 20 21  2  0
 22 23  1  0
 23 25  1  0
 24 23  2  0
 25 26  1  0
 26 27  1  0
 28 27  1  0
 29 30  1  0
 29 28  1  1
 30 20  1  0
 31 29  1  0
 32 31  1  0
 33 31  2  0
M  END
$$$$
