PWR.pdb
     RDKit          3D

 33 35  0  0  1  0  0  0  0  0999 V2000
   28.2175  -21.3085  -17.2167 N   0  0  0  0  0  0  0  0  0  0  0  0
   29.6664  -21.3353  -17.1167 C   0  0  0  0  0  0  0  0  0  0  0  0
   29.9485  -22.3824  -16.0282 C   0  0  0  0  0  0  0  0  0  0  0  0
   28.9318  -23.4332  -16.4188 C   0  0  0  0  0  0  0  0  0  0  0  0
   27.7372  -22.5843  -16.7830 C   0  0  1  0  0  0  0  0  0  0  0  0
   26.9315  -22.4106  -15.5199 C   0  0  0  0  0  0  0  0  0  0  0  0
   26.5156  -23.4300  -14.9101 O   0  0  0  0  0  0  0  0  0  0  0  0
   26.6601  -21.1052  -15.0476 N   0  0  0  0  0  0  0  0  0  0  0  0
   25.9681  -20.8345  -13.8097 C   0  0  1  0  0  0  0  0  0  0  0  0
   26.5153  -19.6351  -13.1345 C   0  0  0  0  0  0  0  0  0  0  0  0
   27.3662  -20.0851  -11.9892 C   0  0  0  0  0  0  0  0  0  0  0  0
   28.6790  -20.4955  -12.0105 C   0  0  0  0  0  0  0  0  0  0  0  0
   29.1043  -20.8248  -10.7761 N   0  0  0  0  0  0  0  0  0  0  0  0
   28.0706  -20.6324   -9.9319 C   0  0  0  0  0  0  0  0  0  0  0  0
   27.9267  -20.8018   -8.5763 C   0  0  0  0  0  0  0  0  0  0  0  0
   26.7328  -20.5257   -7.9450 C   0  0  0  0  0  0  0  0  0  0  0  0
   25.6655  -20.0724   -8.6836 C   0  0  0  0  0  0  0  0  0  0  0  0
   25.7937  -19.8981  -10.0388 C   0  0  0  0  0  0  0  0  0  0  0  0
   26.9890  -20.1776  -10.6523 C   0  0  0  0  0  0  0  0  0  0  0  0
   24.4869  -20.8257  -13.9582 C   0  0  0  0  0  0  0  0  0  0  0  0
   23.9787  -20.0308  -14.7691 O   0  0  0  0  0  0  0  0  0  0  0  0
   17.4384  -25.1334  -12.2882 N   0  0  0  0  0  0  0  0  0  0  0  0
   17.3520  -24.6152  -13.6500 C   0  0  0  0  0  0  0  0  0  0  0  0
   16.2169  -24.4170  -14.1264 N   0  0  0  0  0  0  0  0  0  0  0  0
   18.5445  -24.3641  -14.3664 N   0  0  0  0  0  0  0  0  0  0  0  0
   19.8489  -24.1588  -13.8344 C   0  0  0  0  0  0  0  0  0  0  0  0
   20.0932  -22.9561  -13.0067 C   0  0  0  0  0  0  0  0  0  0  0  0
   21.5686  -22.8066  -12.6580 C   0  0  0  0  0  0  0  0  0  0  0  0
   22.1903  -21.5993  -13.2657 C   0  0  2  0  0  0  0  0  0  0  0  0
   23.6564  -21.6877  -13.2093 N   0  0  0  0  0  0  0  0  0  0  0  0
   21.7400  -20.3126  -12.6963 C   0  0  0  0  0  0  0  0  0  0  0  0
   20.4691  -19.8207  -13.0506 O   0  0  0  0  0  0  0  0  0  0  0  0
   22.3955  -19.6050  -11.9126 O   0  0  0  0  0  0  0  0  0  0  0  0
  1  2  1  0
  3  2  1  0
  4  5  1  0
  4  3  1  0
  5  1  1  0
  5  6  1  1
  6  7  2  0
  8  6  1  0
  9  8  1  0
  9 10  1  6
 11 10  1  0
 12 11  2  0
 13 14  1  0
 13 12  1  0
 14 19  2  0
 15 16  2  0
 15 14  1  0
 16 17  1  0
 17 18  2  0
 19 18  1  0
 19 11  1  0
 20  9  1  0
 20 21  2  0
 22 23  1  0
 23 25  1  0
 24 23  2  0
 25 26  1  0
 26 27  1  0
 28 27  1  0
 29 30  1  0
 29 28  1  1
 30 20  1  0
 31 29  1  0
 32 31  1  0
 33 31  2  0
M  END
$$$$
