PWR.pdb
     RDKit          3D

 33 35  0  0  1  0  0  0  0  0999 V2000
   27.7078  -20.5093  -15.7668 N   0  0  0  0  0  0  0  0  0  0  0  0
   29.0459  -20.1018  -16.1587 C   0  0  0  0  0  0  0  0  0  0  0  0
   29.9717  -20.9914  -15.3147 C   0  0  0  0  0  0  0  0  0  0  0  0
   29.2301  -22.3059  -15.4266 C   0  0  0  0  0  0  0  0  0  0  0  0
   27.7930  -21.8593  -15.3017 C   0  0  1  0  0  0  0  0  0  0  0  0
   27.4550  -21.9028  -13.8325 C   0  0  0  0  0  0  0  0  0  0  0  0
   27.5104  -23.0011  -13.2203 O   0  0  0  0  0  0  0  0  0  0  0  0
   27.0824  -20.7078  -13.1737 N   0  0  0  0  0  0  0  0  0  0  0  0
   26.1753  -20.6673  -12.0512 C   0  0  1  0  0  0  0  0  0  0  0  0
   26.5818  -19.6415  -11.0631 C   0  0  0  0  0  0  0  0  0  0  0  0
   27.7722  -20.1526  -10.3147 C   0  0  0  0  0  0  0  0  0  0  0  0
   28.9211  -20.7157  -10.8197 C   0  0  0  0  0  0  0  0  0  0  0  0
   29.7705  -21.0539   -9.8312 N   0  0  0  0  0  0  0  0  0  0  0  0
   29.1841  -20.7142   -8.6656 C   0  0  0  0  0  0  0  0  0  0  0  0
   29.5784  -20.8226   -7.3542 C   0  0  0  0  0  0  0  0  0  0  0  0
   28.7688  -20.3876   -6.3268 C   0  0  0  0  0  0  0  0  0  0  0  0
   27.5440  -19.8349   -6.6178 C   0  0  0  0  0  0  0  0  0  0  0  0
   27.1360  -19.7198   -7.9229 C   0  0  0  0  0  0  0  0  0  0  0  0
   27.9537  -20.1577   -8.9343 C   0  0  0  0  0  0  0  0  0  0  0  0
   24.7456  -20.5863  -12.4581 C   0  0  0  0  0  0  0  0  0  0  0  0
   24.4752  -20.1156  -13.5775 O   0  0  0  0  0  0  0  0  0  0  0  0
   18.5395  -25.1438  -14.1059 N   0  0  0  0  0  0  0  0  0  0  0  0
   17.7684  -23.9071  -14.0267 C   0  0  0  0  0  0  0  0  0  0  0  0
   16.5271  -23.9988  -13.9536 N   0  0  0  0  0  0  0  0  0  0  0  0
   18.4516  -22.6696  -14.0381 N   0  0  0  0  0  0  0  0  0  0  0  0
   19.8328  -22.4390  -13.7809 C   0  0  0  0  0  0  0  0  0  0  0  0
   20.3169  -22.5334  -12.3852 C   0  0  0  0  0  0  0  0  0  0  0  0
   21.8340  -22.4173  -12.3097 C   0  0  0  0  0  0  0  0  0  0  0  0
   22.2986  -21.0286  -12.0472 C   0  0  2  0  0  0  0  0  0  0  0  0
   23.7029  -21.0257  -11.6134 N   0  0  0  0  0  0  0  0  0  0  0  0
   21.4727  -20.2658  -11.0886 C   0  0  0  0  0  0  0  0  0  0  0  0
   21.7822  -20.3389   -9.7169 O   0  0  0  0  0  0  0  0  0  0  0  0
   20.5047  -19.5462  -11.3880 O   0  0  0  0  0  0  0  0  0  0  0  0
  1  2  1  0
  3  2  1  0
  4  5  1  0
  4  3  1  0
  5  1  1  0
  5  6  1  1
  6  7  2  0
  8  6  1  0
  9  8  1  0
  9 10  1  1
 11 10  1  0
 12 11  2  0
 13 14  1  0
 13 12  1  0
 14 19  2  0
 15 16  2  0
 15 14  1  0
 16 17  1  0
 17 18  2  0
 19 18  1  0
 19 11  1  0
 20  9  1  0
 20 21  2  0
 22 23  1  0
 23 25  1  0
 24 23  2  0
 25 26  1  0
 26 27  1  0
 28 27  1  0
 29 30  1  0
 29 28  1  1
 30 20  1  0
 31 29  1  0
 32 31  1  0
 33 31  2  0
M  END
$$$$
