PWR.pdb
     RDKit          3D

 33 35  0  0  1  0  0  0  0  0999 V2000
   29.1602  -20.3386  -14.3492 N   0  0  0  0  0  0  0  0  0  0  0  0
   28.8213  -19.3341  -15.3423 C   0  0  0  0  0  0  0  0  0  0  0  0
   27.7375  -18.4839  -14.6618 C   0  0  0  0  0  0  0  0  0  0  0  0
   28.3274  -18.3877  -13.2714 C   0  0  0  0  0  0  0  0  0  0  0  0
   28.8563  -19.7870  -13.0648 C   0  0  1  0  0  0  0  0  0  0  0  0
   27.7398  -20.5801  -12.4331 C   0  0  0  0  0  0  0  0  0  0  0  0
   26.9317  -21.2012  -13.1715 O   0  0  0  0  0  0  0  0  0  0  0  0
   27.6245  -20.6088  -11.0235 N   0  0  0  0  0  0  0  0  0  0  0  0
   26.5986  -21.3453  -10.3237 C   0  0  1  0  0  0  0  0  0  0  0  0
   27.0364  -21.7202   -8.9593 C   0  0  0  0  0  0  0  0  0  0  0  0
   27.1129  -20.4774   -8.1299 C   0  0  0  0  0  0  0  0  0  0  0  0
   26.5788  -19.2382   -8.3973 C   0  0  0  0  0  0  0  0  0  0  0  0
   26.8579  -18.3665   -7.4098 N   0  0  0  0  0  0  0  0  0  0  0  0
   27.5798  -19.0287   -6.4832 C   0  0  0  0  0  0  0  0  0  0  0  0
   28.1315  -18.6516   -5.2830 C   0  0  0  0  0  0  0  0  0  0  0  0
   28.8404  -19.5465   -4.5104 C   0  0  0  0  0  0  0  0  0  0  0  0
   28.9992  -20.8404   -4.9471 C   0  0  0  0  0  0  0  0  0  0  0  0
   28.4540  -21.2323   -6.1439 C   0  0  0  0  0  0  0  0  0  0  0  0
   27.7510  -20.3293   -6.9014 C   0  0  0  0  0  0  0  0  0  0  0  0
   25.2665  -20.6828  -10.3740 C   0  0  0  0  0  0  0  0  0  0  0  0
   25.2243  -19.4394  -10.3789 O   0  0  0  0  0  0  0  0  0  0  0  0
   18.5103  -23.2174  -13.9859 N   0  0  0  0  0  0  0  0  0  0  0  0
   18.8104  -22.2712  -15.0561 C   0  0  0  0  0  0  0  0  0  0  0  0
   17.8672  -21.8890  -15.7765 N   0  0  0  0  0  0  0  0  0  0  0  0
   20.1428  -21.8331  -15.2321 N   0  0  0  0  0  0  0  0  0  0  0  0
   21.2627  -22.1048  -14.3960 C   0  0  0  0  0  0  0  0  0  0  0  0
   21.4231  -21.3183  -13.1522 C   0  0  0  0  0  0  0  0  0  0  0  0
   22.6516  -21.7582  -12.3661 C   0  0  0  0  0  0  0  0  0  0  0  0
   22.8801  -20.9452  -11.1413 C   0  0  2  0  0  0  0  0  0  0  0  0
   24.0653  -21.4238  -10.4157 N   0  0  0  0  0  0  0  0  0  0  0  0
   21.7254  -20.8629  -10.2233 C   0  0  0  0  0  0  0  0  0  0  0  0
   20.6806  -19.9683  -10.5246 O   0  0  0  0  0  0  0  0  0  0  0  0
   21.5863  -21.5275   -9.1825 O   0  0  0  0  0  0  0  0  0  0  0  0
  1  2  1  0
  3  2  1  0
  4  5  1  0
  4  3  1  0
  5  1  1  0
  5  6  1  6
  6  7  2  0
  8  6  1  0
  9  8  1  0
  9 10  1  1
 11 10  1  0
 12 11  2  0
 13 14  1  0
 13 12  1  0
 14 19  2  0
 15 16  2  0
 15 14  1  0
 16 17  1  0
 17 18  2  0
 19 18  1  0
 19 11  1  0
 20  9  1  0
 20 21  2  0
 22 23  1  0
 23 25  1  0
 24 23  2  0
 25 26  1  0
 26 27  1  0
 28 27  1  0
 29 30  1  0
 29 28  1  6
 30 20  1  0
 31 29  1  0
 32 31  1  0
 33 31  2  0
M  END
$$$$
