PWR.pdb
     RDKit          3D

 33 35  0  0  1  0  0  0  0  0999 V2000
   27.6387  -19.0924  -16.1139 N   0  0  0  0  0  0  0  0  0  0  0  0
   28.9277  -18.4273  -16.0362 C   0  0  0  0  0  0  0  0  0  0  0  0
   29.8034  -19.3982  -15.2293 C   0  0  0  0  0  0  0  0  0  0  0  0
   29.3653  -20.7079  -15.8483 C   0  0  0  0  0  0  0  0  0  0  0  0
   27.8766  -20.4976  -15.9903 C   0  0  1  0  0  0  0  0  0  0  0  0
   27.2475  -20.9995  -14.7147 C   0  0  0  0  0  0  0  0  0  0  0  0
   27.4081  -22.2023  -14.3810 O   0  0  0  0  0  0  0  0  0  0  0  0
   26.4898  -20.1073  -13.9206 N   0  0  0  0  0  0  0  0  0  0  0  0
   25.8141  -20.4999  -12.7065 C   0  0  1  0  0  0  0  0  0  0  0  0
   26.2326  -19.6625  -11.5587 C   0  0  0  0  0  0  0  0  0  0  0  0
   27.3376  -20.3679  -10.8379 C   0  0  0  0  0  0  0  0  0  0  0  0
   28.4346  -21.0046  -11.3703 C   0  0  0  0  0  0  0  0  0  0  0  0
   29.2119  -21.5237  -10.4011 N   0  0  0  0  0  0  0  0  0  0  0  0
   28.6295  -21.2308   -9.2208 C   0  0  0  0  0  0  0  0  0  0  0  0
   28.9692  -21.5024   -7.9177 C   0  0  0  0  0  0  0  0  0  0  0  0
   28.1795  -21.0780   -6.8706 C   0  0  0  0  0  0  0  0  0  0  0  0
   27.0306  -20.3698   -7.1330 C   0  0  0  0  0  0  0  0  0  0  0  0
   26.6778  -20.0906   -8.4295 C   0  0  0  0  0  0  0  0  0  0  0  0
   27.4748  -20.5203   -9.4608 C   0  0  0  0  0  0  0  0  0  0  0  0
   24.3388  -20.6139  -12.8698 C   0  0  0  0  0  0  0  0  0  0  0  0
   23.7247  -19.6589  -13.3783 O   0  0  0  0  0  0  0  0  0  0  0  0
   17.2892  -25.0159  -11.4760 N   0  0  0  0  0  0  0  0  0  0  0  0
   17.3371  -25.1601  -12.9278 C   0  0  0  0  0  0  0  0  0  0  0  0
   16.2558  -25.2820  -13.5366 N   0  0  0  0  0  0  0  0  0  0  0  0
   18.5927  -25.1581  -13.5773 N   0  0  0  0  0  0  0  0  0  0  0  0
   19.8657  -24.8816  -13.0030 C   0  0  0  0  0  0  0  0  0  0  0  0
   20.2414  -23.4698  -12.7640 C   0  0  0  0  0  0  0  0  0  0  0  0
   21.7537  -23.2938  -12.7133 C   0  0  0  0  0  0  0  0  0  0  0  0
   22.1700  -21.8698  -12.6025 C   0  0  2  0  0  0  0  0  0  0  0  0
   23.6297  -21.7661  -12.4657 N   0  0  0  0  0  0  0  0  0  0  0  0
   21.5067  -21.1085  -11.5240 C   0  0  0  0  0  0  0  0  0  0  0  0
   20.2087  -20.6089  -11.7445 O   0  0  0  0  0  0  0  0  0  0  0  0
   22.0003  -20.8615  -10.4106 O   0  0  0  0  0  0  0  0  0  0  0  0
  1  2  1  0
  3  2  1  0
  4  5  1  0
  4  3  1  0
  5  1  1  0
  5  6  1  1
  6  7  2  0
  8  6  1  0
  9  8  1  0
  9 10  1  1
 11 10  1  0
 12 11  2  0
 13 14  1  0
 13 12  1  0
 14 19  2  0
 15 16  2  0
 15 14  1  0
 16 17  1  0
 17 18  2  0
 19 18  1  0
 19 11  1  0
 20  9  1  0
 20 21  2  0
 22 23  1  0
 23 25  1  0
 24 23  2  0
 25 26  1  0
 26 27  1  0
 28 27  1  0
 29 30  1  0
 29 28  1  1
 30 20  1  0
 31 29  1  0
 32 31  1  0
 33 31  2  0
M  END
$$$$
