PWR.pdb
     RDKit          3D

 33 35  0  0  1  0  0  0  0  0999 V2000
   28.3722  -21.9065  -12.7308 N   0  0  0  0  0  0  0  0  0  0  0  0
   29.6221  -21.3460  -13.2142 C   0  0  0  0  0  0  0  0  0  0  0  0
   29.4829  -19.8381  -12.9543 C   0  0  0  0  0  0  0  0  0  0  0  0
   28.8426  -19.8757  -11.5836 C   0  0  0  0  0  0  0  0  0  0  0  0
   27.8641  -21.0162  -11.7330 C   0  0  1  0  0  0  0  0  0  0  0  0
   26.5695  -20.4120  -12.2165 C   0  0  0  0  0  0  0  0  0  0  0  0
   26.0753  -19.4363  -11.5939 O   0  0  0  0  0  0  0  0  0  0  0  0
   25.9381  -20.9553  -13.3597 N   0  0  0  0  0  0  0  0  0  0  0  0
   24.6836  -20.4685  -13.8829 C   0  0  1  0  0  0  0  0  0  0  0  0
   24.7536  -20.2554  -15.3470 C   0  0  0  0  0  0  0  0  0  0  0  0
   25.8094  -19.2327  -15.6252 C   0  0  0  0  0  0  0  0  0  0  0  0
   27.0495  -19.4177  -16.1911 C   0  0  0  0  0  0  0  0  0  0  0  0
   27.7206  -18.2538  -16.2800 N   0  0  0  0  0  0  0  0  0  0  0  0
   26.9238  -17.2923  -15.7715 C   0  0  0  0  0  0  0  0  0  0  0  0
   27.0819  -15.9377  -15.6062 C   0  0  0  0  0  0  0  0  0  0  0  0
   26.0872  -15.1660  -15.0447 C   0  0  0  0  0  0  0  0  0  0  0  0
   24.9148  -15.7609  -14.6421 C   0  0  0  0  0  0  0  0  0  0  0  0
   24.7420  -17.1130  -14.8006 C   0  0  0  0  0  0  0  0  0  0  0  0
   25.7419  -17.8673  -15.3613 C   0  0  0  0  0  0  0  0  0  0  0  0
   23.5137  -21.2765  -13.4416 C   0  0  0  0  0  0  0  0  0  0  0  0
   23.5721  -22.5138  -13.5576 O   0  0  0  0  0  0  0  0  0  0  0  0
   18.8886  -23.8493   -7.5436 N   0  0  0  0  0  0  0  0  0  0  0  0
   18.5557  -24.6417   -8.7234 C   0  0  0  0  0  0  0  0  0  0  0  0
   17.6274  -25.4684   -8.6264 N   0  0  0  0  0  0  0  0  0  0  0  0
   19.2919  -24.4439   -9.9138 N   0  0  0  0  0  0  0  0  0  0  0  0
   20.1986  -23.3862  -10.2072 C   0  0  0  0  0  0  0  0  0  0  0  0
   19.6469  -22.0804  -10.6337 C   0  0  0  0  0  0  0  0  0  0  0  0
   20.7399  -21.1508  -11.1451 C   0  0  0  0  0  0  0  0  0  0  0  0
   21.1704  -21.4678  -12.5334 C   0  0  2  0  0  0  0  0  0  0  0  0
   22.3543  -20.6783  -12.9015 N   0  0  0  0  0  0  0  0  0  0  0  0
   20.1212  -21.3135  -13.5620 C   0  0  0  0  0  0  0  0  0  0  0  0
   19.3753  -22.4443  -13.9464 O   0  0  0  0  0  0  0  0  0  0  0  0
   19.8274  -20.2504  -14.1348 O   0  0  0  0  0  0  0  0  0  0  0  0
  1  2  1  0
  3  2  1  0
  4  5  1  0
  4  3  1  0
  5  1  1  0
  5  6  1  6
  6  7  2  0
  8  6  1  0
  9  8  1  0
  9 10  1  6
 11 10  1  0
 12 11  2  0
 13 14  1  0
 13 12  1  0
 14 19  2  0
 15 16  2  0
 15 14  1  0
 16 17  1  0
 17 18  2  0
 19 18  1  0
 19 11  1  0
 20  9  1  0
 20 21  2  0
 22 23  1  0
 23 25  1  0
 24 23  2  0
 25 26  1  0
 26 27  1  0
 28 27  1  0
 29 30  1  0
 29 28  1  1
 30 20  1  0
 31 29  1  0
 32 31  1  0
 33 31  2  0
M  END
$$$$
