PWR.pdb
     RDKit          3D

 33 35  0  0  1  0  0  0  0  0999 V2000
   26.9812  -19.9306  -15.4166 N   0  0  0  0  0  0  0  0  0  0  0  0
   28.3783  -19.5587  -15.5584 C   0  0  0  0  0  0  0  0  0  0  0  0
   29.1367  -20.6432  -14.7776 C   0  0  0  0  0  0  0  0  0  0  0  0
   28.3547  -21.8629  -15.2146 C   0  0  0  0  0  0  0  0  0  0  0  0
   26.9372  -21.3428  -15.1932 C   0  0  1  0  0  0  0  0  0  0  0  0
   26.4007  -21.6123  -13.8096 C   0  0  0  0  0  0  0  0  0  0  0  0
   26.3222  -22.7998  -13.4003 O   0  0  0  0  0  0  0  0  0  0  0  0
   25.9968  -20.5240  -13.0012 N   0  0  0  0  0  0  0  0  0  0  0  0
   25.4757  -20.6766  -11.6634 C   0  0  1  0  0  0  0  0  0  0  0  0
   26.0180  -19.6445  -10.7500 C   0  0  0  0  0  0  0  0  0  0  0  0
   27.2193  -20.2092  -10.0598 C   0  0  0  0  0  0  0  0  0  0  0  0
   28.2554  -20.9323  -10.6039 C   0  0  0  0  0  0  0  0  0  0  0  0
   29.1584  -21.2686   -9.6634 N   0  0  0  0  0  0  0  0  0  0  0  0
   28.7209  -20.7673   -8.4907 C   0  0  0  0  0  0  0  0  0  0  0  0
   29.2258  -20.7997   -7.2135 C   0  0  0  0  0  0  0  0  0  0  0  0
   28.5632  -20.1928   -6.1681 C   0  0  0  0  0  0  0  0  0  0  0  0
   27.3753  -19.5427   -6.4059 C   0  0  0  0  0  0  0  0  0  0  0  0
   26.8581  -19.5016   -7.6763 C   0  0  0  0  0  0  0  0  0  0  0  0
   27.5299  -20.1108   -8.7063 C   0  0  0  0  0  0  0  0  0  0  0  0
   23.9930  -20.8036  -11.6251 C   0  0  0  0  0  0  0  0  0  0  0  0
   23.3249  -20.1924  -12.4783 O   0  0  0  0  0  0  0  0  0  0  0  0
   17.2638  -23.4716   -9.8261 N   0  0  0  0  0  0  0  0  0  0  0  0
   17.6868  -24.5522   -8.9407 C   0  0  0  0  0  0  0  0  0  0  0  0
   17.1223  -25.6575   -9.0603 N   0  0  0  0  0  0  0  0  0  0  0  0
   18.7060  -24.3045   -7.9928 N   0  0  0  0  0  0  0  0  0  0  0  0
   19.5695  -23.1748   -7.9231 C   0  0  0  0  0  0  0  0  0  0  0  0
   19.9470  -22.4951   -9.1828 C   0  0  0  0  0  0  0  0  0  0  0  0
   21.4568  -22.3294   -9.2989 C   0  0  0  0  0  0  0  0  0  0  0  0
   21.8708  -21.6284  -10.5441 C   0  0  2  0  0  0  0  0  0  0  0  0
   23.3360  -21.5916  -10.6550 N   0  0  0  0  0  0  0  0  0  0  0  0
   21.3180  -20.2679  -10.7067 C   0  0  0  0  0  0  0  0  0  0  0  0
   20.1526  -20.0961  -11.4782 O   0  0  0  0  0  0  0  0  0  0  0  0
   21.7983  -19.2336  -10.2129 O   0  0  0  0  0  0  0  0  0  0  0  0
  1  2  1  0
  3  2  1  0
  4  5  1  0
  4  3  1  0
  5  1  1  0
  5  6  1  1
  6  7  2  0
  8  6  1  0
  9  8  1  0
  9 10  1  1
 11 10  1  0
 12 11  2  0
 13 14  1  0
 13 12  1  0
 14 19  2  0
 15 16  2  0
 15 14  1  0
 16 17  1  0
 17 18  2  0
 19 18  1  0
 19 11  1  0
 20  9  1  0
 20 21  2  0
 22 23  1  0
 23 25  1  0
 24 23  2  0
 25 26  1  0
 26 27  1  0
 28 27  1  0
 29 30  1  0
 29 28  1  1
 30 20  1  0
 31 29  1  0
 32 31  1  0
 33 31  2  0
M  END
$$$$
