PWR.pdb
     RDKit          3D

 33 35  0  0  1  0  0  0  0  0999 V2000
   22.8072  -21.8381  -12.6539 N   0  0  0  0  0  0  0  0  0  0  0  0
   21.6671  -21.8933  -11.7555 C   0  0  0  0  0  0  0  0  0  0  0  0
   21.7145  -20.5529  -11.0058 C   0  0  0  0  0  0  0  0  0  0  0  0
   22.0662  -19.6329  -12.1548 C   0  0  0  0  0  0  0  0  0  0  0  0
   23.0821  -20.4576  -12.9086 C   0  0  1  0  0  0  0  0  0  0  0  0
   24.4325  -20.1044  -12.3372 C   0  0  0  0  0  0  0  0  0  0  0  0
   24.7904  -18.8982  -12.3037 O   0  0  0  0  0  0  0  0  0  0  0  0
   25.2685  -21.1368  -11.8513 N   0  0  0  0  0  0  0  0  0  0  0  0
   26.7104  -21.0848  -11.9046 C   0  0  1  0  0  0  0  0  0  0  0  0
   27.3193  -21.7008  -10.7031 C   0  0  0  0  0  0  0  0  0  0  0  0
   26.8157  -20.9766   -9.4947 C   0  0  0  0  0  0  0  0  0  0  0  0
   25.5549  -20.4783   -9.2616 C   0  0  0  0  0  0  0  0  0  0  0  0
   25.4824  -19.8879   -8.0536 N   0  0  0  0  0  0  0  0  0  0  0  0
   26.6991  -19.9943   -7.4823 C   0  0  0  0  0  0  0  0  0  0  0  0
   27.2036  -19.5809   -6.2732 C   0  0  0  0  0  0  0  0  0  0  0  0
   28.5159  -19.8223   -5.9270 C   0  0  0  0  0  0  0  0  0  0  0  0
   29.3364  -20.4887   -6.8062 C   0  0  0  0  0  0  0  0  0  0  0  0
   28.8470  -20.9080   -8.0177 C   0  0  0  0  0  0  0  0  0  0  0  0
   27.5382  -20.6599   -8.3475 C   0  0  0  0  0  0  0  0  0  0  0  0
   27.2658  -21.5853  -13.1919 C   0  0  0  0  0  0  0  0  0  0  0  0
   27.3673  -22.8147  -13.3539 O   0  0  0  0  0  0  0  0  0  0  0  0
   25.2568  -25.0259  -15.3531 N   0  0  0  0  0  0  0  0  0  0  0  0
   25.2896  -25.7093  -16.6425 C   0  0  0  0  0  0  0  0  0  0  0  0
   24.9312  -26.9030  -16.6779 N   0  0  0  0  0  0  0  0  0  0  0  0
   25.7235  -24.9993  -17.7853 N   0  0  0  0  0  0  0  0  0  0  0  0
   26.2189  -23.6658  -17.8416 C   0  0  0  0  0  0  0  0  0  0  0  0
   27.2586  -23.2567  -16.8706 C   0  0  0  0  0  0  0  0  0  0  0  0
   26.7553  -22.1609  -15.9397 C   0  0  0  0  0  0  0  0  0  0  0  0
   27.7966  -21.1486  -15.6168 C   0  0  2  0  0  0  0  0  0  0  0  0
   27.6749  -20.7080  -14.2198 N   0  0  0  0  0  0  0  0  0  0  0  0
   27.8259  -19.9761  -16.5151 C   0  0  0  0  0  0  0  0  0  0  0  0
   28.6587  -20.0105  -17.6499 O   0  0  0  0  0  0  0  0  0  0  0  0
   27.1664  -18.9344  -16.3585 O   0  0  0  0  0  0  0  0  0  0  0  0
  1  2  1  0
  3  2  1  0
  4  5  1  0
  4  3  1  0
  5  1  1  0
  5  6  1  1
  6  7  2  0
  8  6  1  0
  9  8  1  0
  9 10  1  1
 11 10  1  0
 12 11  2  0
 13 14  1  0
 13 12  1  0
 14 19  2  0
 15 16  2  0
 15 14  1  0
 16 17  1  0
 17 18  2  0
 19 18  1  0
 19 11  1  0
 20  9  1  0
 20 21  2  0
 22 23  1  0
 23 25  1  0
 24 23  2  0
 25 26  1  0
 26 27  1  0
 28 27  1  0
 29 30  1  0
 29 28  1  6
 30 20  1  0
 31 29  1  0
 32 31  1  0
 33 31  2  0
M  END
$$$$
