PWR.pdb
     RDKit          3D

 33 35  0  0  1  0  0  0  0  0999 V2000
   11.8943  -16.5788    3.4210 N   0  0  0  0  0  0  0  0  0  0  0  0
   10.6745  -17.1420    3.9732 C   0  0  0  0  0  0  0  0  0  0  0  0
   11.0970  -17.6751    5.3509 C   0  0  0  0  0  0  0  0  0  0  0  0
   11.9915  -16.5392    5.7981 C   0  0  0  0  0  0  0  0  0  0  0  0
   12.7288  -16.2085    4.5224 C   0  0  1  0  0  0  0  0  0  0  0  0
   13.9743  -17.0591    4.5122 C   0  0  0  0  0  0  0  0  0  0  0  0
   14.0747  -17.9935    3.6752 O   0  0  0  0  0  0  0  0  0  0  0  0
   15.0033  -16.7884    5.4444 N   0  0  0  0  0  0  0  0  0  0  0  0
   16.2676  -17.4853    5.4588 C   0  0  1  0  0  0  0  0  0  0  0  0
   17.3927  -16.5605    5.7284 C   0  0  0  0  0  0  0  0  0  0  0  0
   17.6383  -15.7447    4.4986 C   0  0  0  0  0  0  0  0  0  0  0  0
   17.1294  -14.5073    4.1791 C   0  0  0  0  0  0  0  0  0  0  0  0
   17.5813  -14.0917    2.9807 N   0  0  0  0  0  0  0  0  0  0  0  0
   18.3931  -15.0562    2.5025 C   0  0  0  0  0  0  0  0  0  0  0  0
   19.1211  -15.1758    1.3436 C   0  0  0  0  0  0  0  0  0  0  0  0
   19.8876  -16.2940    1.0941 C   0  0  0  0  0  0  0  0  0  0  0  0
   19.9258  -17.3091    2.0207 C   0  0  0  0  0  0  0  0  0  0  0  0
   19.2041  -17.2043    3.1832 C   0  0  0  0  0  0  0  0  0  0  0  0
   18.4458  -16.0845    3.4166 C   0  0  0  0  0  0  0  0  0  0  0  0
   16.2567  -18.6974    6.3230 C   0  0  0  0  0  0  0  0  0  0  0  0
   15.7231  -18.6194    7.4442 O   0  0  0  0  0  0  0  0  0  0  0  0
   15.2944  -21.9236    1.1045 N   0  0  0  0  0  0  0  0  0  0  0  0
   15.8802  -23.1843    1.5496 C   0  0  0  0  0  0  0  0  0  0  0  0
   16.2767  -23.9820    0.6772 N   0  0  0  0  0  0  0  0  0  0  0  0
   15.9715  -23.4480    2.9354 N   0  0  0  0  0  0  0  0  0  0  0  0
   15.6112  -22.5842    4.0082 C   0  0  0  0  0  0  0  0  0  0  0  0
   15.8977  -23.0204    5.3934 C   0  0  0  0  0  0  0  0  0  0  0  0
   17.1349  -22.3301    5.9533 C   0  0  0  0  0  0  0  0  0  0  0  0
   16.8125  -21.1178    6.7531 C   0  0  2  0  0  0  0  0  0  0  0  0
   16.8309  -19.9177    5.9049 N   0  0  0  0  0  0  0  0  0  0  0  0
   17.6660  -20.9095    7.9409 C   0  0  0  0  0  0  0  0  0  0  0  0
   17.2081  -21.3602    9.1939 O   0  0  0  0  0  0  0  0  0  0  0  0
   18.7802  -20.3591    7.9373 O   0  0  0  0  0  0  0  0  0  0  0  0
  1  2  1  0
  3  2  1  0
  4  5  1  0
  4  3  1  0
  5  1  1  0
  5  6  1  6
  6  7  2  0
  8  6  1  0
  9  8  1  0
  9 10  1  1
 11 10  1  0
 12 11  2  0
 13 14  1  0
 13 12  1  0
 14 19  2  0
 15 16  2  0
 15 14  1  0
 16 17  1  0
 17 18  2  0
 19 18  1  0
 19 11  1  0
 20  9  1  0
 20 21  2  0
 22 23  1  0
 23 25  1  0
 24 23  2  0
 25 26  1  0
 26 27  1  0
 28 27  1  0
 29 30  1  0
 29 28  1  6
 30 20  1  0
 31 29  1  0
 32 31  1  0
 33 31  2  0
M  END
$$$$
