PWR.pdb
     RDKit          3D

 33 35  0  0  1  0  0  0  0  0999 V2000
   26.8484  -21.3161  -16.5608 N   0  0  0  0  0  0  0  0  0  0  0  0
   28.2732  -21.0721  -16.7034 C   0  0  0  0  0  0  0  0  0  0  0  0
   28.9102  -21.8949  -15.5730 C   0  0  0  0  0  0  0  0  0  0  0  0
   28.0740  -23.1522  -15.6733 C   0  0  0  0  0  0  0  0  0  0  0  0
   26.6960  -22.5857  -15.9196 C   0  0  1  0  0  0  0  0  0  0  0  0
   26.0638  -22.3874  -14.5647 C   0  0  0  0  0  0  0  0  0  0  0  0
   26.0943  -23.3268  -13.7277 O   0  0  0  0  0  0  0  0  0  0  0  0
   25.4494  -21.1493  -14.2636 N   0  0  0  0  0  0  0  0  0  0  0  0
   24.7723  -20.8790  -13.0174 C   0  0  1  0  0  0  0  0  0  0  0  0
   25.3568  -19.7064  -12.3267 C   0  0  0  0  0  0  0  0  0  0  0  0
   26.6391  -20.1290  -11.6821 C   0  0  0  0  0  0  0  0  0  0  0  0
   27.8475  -20.3991  -12.2814 C   0  0  0  0  0  0  0  0  0  0  0  0
   28.7733  -20.7510  -11.3692 N   0  0  0  0  0  0  0  0  0  0  0  0
   28.1780  -20.7144  -10.1599 C   0  0  0  0  0  0  0  0  0  0  0  0
   28.6282  -20.9733   -8.8881 C   0  0  0  0  0  0  0  0  0  0  0  0
   27.7926  -20.8583   -7.7977 C   0  0  0  0  0  0  0  0  0  0  0  0
   26.4847  -20.4777   -7.9843 C   0  0  0  0  0  0  0  0  0  0  0  0
   26.0203  -20.2156   -9.2487 C   0  0  0  0  0  0  0  0  0  0  0  0
   26.8647  -20.3347  -10.3238 C   0  0  0  0  0  0  0  0  0  0  0  0
   23.2911  -20.8263  -13.1568 C   0  0  0  0  0  0  0  0  0  0  0  0
   22.8116  -20.2926  -14.1731 O   0  0  0  0  0  0  0  0  0  0  0  0
   18.7845  -25.0492   -7.4514 N   0  0  0  0  0  0  0  0  0  0  0  0
   18.0895  -24.1751   -8.3913 C   0  0  0  0  0  0  0  0  0  0  0  0
   16.8858  -23.9301   -8.1774 N   0  0  0  0  0  0  0  0  0  0  0  0
   18.7999  -23.6495   -9.4947 N   0  0  0  0  0  0  0  0  0  0  0  0
   19.8976  -24.2417  -10.1811 C   0  0  0  0  0  0  0  0  0  0  0  0
   20.4954  -23.5108  -11.3212 C   0  0  0  0  0  0  0  0  0  0  0  0
   20.3039  -22.0058  -11.1838 C   0  0  0  0  0  0  0  0  0  0  0  0
   20.9680  -21.2337  -12.2683 C   0  0  2  0  0  0  0  0  0  0  0  0
   22.4293  -21.3611  -12.1745 N   0  0  0  0  0  0  0  0  0  0  0  0
   20.5893  -19.8075  -12.3400 C   0  0  0  0  0  0  0  0  0  0  0  0
   19.4280  -19.4480  -13.0506 O   0  0  0  0  0  0  0  0  0  0  0  0
   21.2165  -18.8704  -11.8176 O   0  0  0  0  0  0  0  0  0  0  0  0
  1  2  1  0
  3  2  1  0
  4  5  1  0
  4  3  1  0
  5  1  1  0
  5  6  1  1
  6  7  2  0
  8  6  1  0
  9  8  1  0
  9 10  1  6
 11 10  1  0
 12 11  2  0
 13 14  1  0
 13 12  1  0
 14 19  2  0
 15 16  2  0
 15 14  1  0
 16 17  1  0
 17 18  2  0
 19 18  1  0
 19 11  1  0
 20  9  1  0
 20 21  2  0
 22 23  1  0
 23 25  1  0
 24 23  2  0
 25 26  1  0
 26 27  1  0
 28 27  1  0
 29 30  1  0
 29 28  1  1
 30 20  1  0
 31 29  1  0
 32 31  1  0
 33 31  2  0
M  END
$$$$
