PWR.pdb
     RDKit          3D

 33 35  0  0  1  0  0  0  0  0999 V2000
   28.1860  -19.1523  -12.5206 N   0  0  0  0  0  0  0  0  0  0  0  0
   29.4899  -19.5421  -13.0285 C   0  0  0  0  0  0  0  0  0  0  0  0
   29.2528  -20.9281  -13.6479 C   0  0  0  0  0  0  0  0  0  0  0  0
   27.9246  -20.6769  -14.3285 C   0  0  0  0  0  0  0  0  0  0  0  0
   27.2029  -19.8444  -13.2958 C   0  0  1  0  0  0  0  0  0  0  0  0
   26.4577  -20.8100  -12.4087 C   0  0  0  0  0  0  0  0  0  0  0  0
   25.7846  -21.7346  -12.9341 O   0  0  0  0  0  0  0  0  0  0  0  0
   26.5312  -20.6557  -11.0045 N   0  0  0  0  0  0  0  0  0  0  0  0
   25.8973  -21.5562  -10.0706 C   0  0  1  0  0  0  0  0  0  0  0  0
   26.7849  -21.8607   -8.9247 C   0  0  0  0  0  0  0  0  0  0  0  0
   26.9285  -20.6229   -8.0968 C   0  0  0  0  0  0  0  0  0  0  0  0
   26.4232  -19.3675   -8.3432 C   0  0  0  0  0  0  0  0  0  0  0  0
   26.7636  -18.5070   -7.3650 N   0  0  0  0  0  0  0  0  0  0  0  0
   27.4975  -19.1931   -6.4657 C   0  0  0  0  0  0  0  0  0  0  0  0
   28.1027  -18.8359   -5.2854 C   0  0  0  0  0  0  0  0  0  0  0  0
   28.8110  -19.7538   -4.5397 C   0  0  0  0  0  0  0  0  0  0  0  0
   28.9149  -21.0509   -4.9837 C   0  0  0  0  0  0  0  0  0  0  0  0
   28.3158  -21.4231   -6.1609 C   0  0  0  0  0  0  0  0  0  0  0  0
   27.6141  -20.4973   -6.8916 C   0  0  0  0  0  0  0  0  0  0  0  0
   24.5274  -21.1237   -9.6803 C   0  0  0  0  0  0  0  0  0  0  0  0
   24.2660  -19.9074   -9.6905 O   0  0  0  0  0  0  0  0  0  0  0  0
   19.0106  -24.2145   -6.6155 N   0  0  0  0  0  0  0  0  0  0  0  0
   17.7557  -23.9589   -7.3158 C   0  0  0  0  0  0  0  0  0  0  0  0
   16.7211  -23.8375   -6.6307 N   0  0  0  0  0  0  0  0  0  0  0  0
   17.7633  -23.8628   -8.7261 N   0  0  0  0  0  0  0  0  0  0  0  0
   18.8823  -23.6230   -9.5730 C   0  0  0  0  0  0  0  0  0  0  0  0
   19.7477  -22.4565   -9.2872 C   0  0  0  0  0  0  0  0  0  0  0  0
   21.2244  -22.8162   -9.3906 C   0  0  0  0  0  0  0  0  0  0  0  0
   22.1239  -21.6576   -9.1416 C   0  0  2  0  0  0  0  0  0  0  0  0
   23.5310  -22.0503   -9.3033 N   0  0  0  0  0  0  0  0  0  0  0  0
   21.9331  -20.9893   -7.8378 C   0  0  0  0  0  0  0  0  0  0  0  0
   22.5291  -21.5516   -6.6927 O   0  0  0  0  0  0  0  0  0  0  0  0
   21.2784  -19.9493   -7.6526 O   0  0  0  0  0  0  0  0  0  0  0  0
  1  2  1  0
  3  2  1  0
  4  5  1  0
  4  3  1  0
  5  1  1  0
  5  6  1  1
  6  7  2  0
  8  6  1  0
  9  8  1  0
  9 10  1  1
 11 10  1  0
 12 11  2  0
 13 14  1  0
 13 12  1  0
 14 19  2  0
 15 16  2  0
 15 14  1  0
 16 17  1  0
 17 18  2  0
 19 18  1  0
 19 11  1  0
 20  9  1  0
 20 21  2  0
 22 23  1  0
 23 25  1  0
 24 23  2  0
 25 26  1  0
 26 27  1  0
 28 27  1  0
 29 30  1  0
 29 28  1  1
 30 20  1  0
 31 29  1  0
 32 31  1  0
 33 31  2  0
M  END
$$$$
