PWR.pdb
     RDKit          3D

 33 35  0  0  1  0  0  0  0  0999 V2000
   27.9807  -19.2087  -14.9667 N   0  0  0  0  0  0  0  0  0  0  0  0
   29.4189  -19.1896  -15.1702 C   0  0  0  0  0  0  0  0  0  0  0  0
   29.8777  -20.5915  -14.7402 C   0  0  0  0  0  0  0  0  0  0  0  0
   28.7699  -21.4196  -15.3545 C   0  0  0  0  0  0  0  0  0  0  0  0
   27.5550  -20.5709  -15.0642 C   0  0  1  0  0  0  0  0  0  0  0  0
   27.0230  -21.0239  -13.7277 C   0  0  0  0  0  0  0  0  0  0  0  0
   26.4513  -22.1417  -13.6395 O   0  0  0  0  0  0  0  0  0  0  0  0
   27.1778  -20.1824  -12.6013 N   0  0  0  0  0  0  0  0  0  0  0  0
   26.5969  -20.4658  -11.3102 C   0  0  1  0  0  0  0  0  0  0  0  0
   27.3427  -19.7934  -10.2214 C   0  0  0  0  0  0  0  0  0  0  0  0
   26.7046  -20.1566   -8.9179 C   0  0  0  0  0  0  0  0  0  0  0  0
   25.4536  -20.6844   -8.6974 C   0  0  0  0  0  0  0  0  0  0  0  0
   25.2339  -20.8783   -7.3832 N   0  0  0  0  0  0  0  0  0  0  0  0
   26.3425  -20.4781   -6.7284 C   0  0  0  0  0  0  0  0  0  0  0  0
   26.6817  -20.4450   -5.3976 C   0  0  0  0  0  0  0  0  0  0  0  0
   27.9107  -19.9760   -4.9854 C   0  0  0  0  0  0  0  0  0  0  0  0
   28.8149  -19.5329   -5.9216 C   0  0  0  0  0  0  0  0  0  0  0  0
   28.4907  -19.5597   -7.2548 C   0  0  0  0  0  0  0  0  0  0  0  0
   27.2630  -20.0295   -7.6489 C   0  0  0  0  0  0  0  0  0  0  0  0
   25.1261  -20.2398  -11.2691 C   0  0  0  0  0  0  0  0  0  0  0  0
   24.6974  -19.0938  -11.4944 O   0  0  0  0  0  0  0  0  0  0  0  0
   20.6740  -26.9170  -14.4159 N   0  0  0  0  0  0  0  0  0  0  0  0
   21.9224  -26.1632  -14.4793 C   0  0  0  0  0  0  0  0  0  0  0  0
   22.8947  -26.6943  -15.0513 N   0  0  0  0  0  0  0  0  0  0  0  0
   21.9790  -24.8774  -13.8945 N   0  0  0  0  0  0  0  0  0  0  0  0
   20.9379  -24.1900  -13.2086 C   0  0  0  0  0  0  0  0  0  0  0  0
   21.1997  -22.8174  -12.7201 C   0  0  0  0  0  0  0  0  0  0  0  0
   22.5873  -22.6979  -12.1030 C   0  0  0  0  0  0  0  0  0  0  0  0
   22.8776  -21.3341  -11.5843 C   0  0  2  0  0  0  0  0  0  0  0  0
   24.2181  -21.2828  -10.9837 N   0  0  0  0  0  0  0  0  0  0  0  0
   21.8784  -20.8027  -10.6344 C   0  0  0  0  0  0  0  0  0  0  0  0
   20.6713  -20.2822  -11.1390 O   0  0  0  0  0  0  0  0  0  0  0  0
   22.0073  -20.7716   -9.3988 O   0  0  0  0  0  0  0  0  0  0  0  0
  1  2  1  0
  3  2  1  0
  4  5  1  0
  4  3  1  0
  5  1  1  0
  5  6  1  1
  6  7  2  0
  8  6  1  0
  9  8  1  0
  9 10  1  1
 11 10  1  0
 12 11  2  0
 13 14  1  0
 13 12  1  0
 14 19  2  0
 15 16  2  0
 15 14  1  0
 16 17  1  0
 17 18  2  0
 19 18  1  0
 19 11  1  0
 20  9  1  0
 20 21  2  0
 22 23  1  0
 23 25  1  0
 24 23  2  0
 25 26  1  0
 26 27  1  0
 28 27  1  0
 29 30  1  0
 29 28  1  1
 30 20  1  0
 31 29  1  0
 32 31  1  0
 33 31  2  0
M  END
$$$$
