PWR.pdb
     RDKit          3D

 33 35  0  0  1  0  0  0  0  0999 V2000
   27.8781  -19.2676  -15.7492 N   0  0  0  0  0  0  0  0  0  0  0  0
   29.2861  -18.9186  -15.6735 C   0  0  0  0  0  0  0  0  0  0  0  0
   29.9291  -20.1077  -14.9431 C   0  0  0  0  0  0  0  0  0  0  0  0
   29.1934  -21.2459  -15.6166 C   0  0  0  0  0  0  0  0  0  0  0  0
   27.7903  -20.6947  -15.7054 C   0  0  1  0  0  0  0  0  0  0  0  0
   27.0830  -21.1122  -14.4404 C   0  0  0  0  0  0  0  0  0  0  0  0
   26.7866  -22.3237  -14.2721 O   0  0  0  0  0  0  0  0  0  0  0  0
   26.7677  -20.1327  -13.4698 N   0  0  0  0  0  0  0  0  0  0  0  0
   25.9675  -20.4016  -12.2985 C   0  0  1  0  0  0  0  0  0  0  0  0
   26.3785  -19.5538  -11.1556 C   0  0  0  0  0  0  0  0  0  0  0  0
   27.4778  -20.2531  -10.4204 C   0  0  0  0  0  0  0  0  0  0  0  0
   28.5476  -20.9445  -10.9401 C   0  0  0  0  0  0  0  0  0  0  0  0
   29.3290  -21.4368   -9.9603 N   0  0  0  0  0  0  0  0  0  0  0  0
   28.7767  -21.0713   -8.7858 C   0  0  0  0  0  0  0  0  0  0  0  0
   29.1335  -21.2884   -7.4771 C   0  0  0  0  0  0  0  0  0  0  0  0
   28.3750  -20.7923   -6.4385 C   0  0  0  0  0  0  0  0  0  0  0  0
   27.2404  -20.0668   -6.7152 C   0  0  0  0  0  0  0  0  0  0  0  0
   26.8708  -19.8414   -8.0174 C   0  0  0  0  0  0  0  0  0  0  0  0
   27.6367  -20.3421   -9.0402 C   0  0  0  0  0  0  0  0  0  0  0  0
   24.5046  -20.3834  -12.5736 C   0  0  0  0  0  0  0  0  0  0  0  0
   23.9931  -19.3260  -12.9836 O   0  0  0  0  0  0  0  0  0  0  0  0
   17.0586  -25.0371  -16.0631 N   0  0  0  0  0  0  0  0  0  0  0  0
   17.9313  -23.8671  -16.0523 C   0  0  0  0  0  0  0  0  0  0  0  0
   18.1420  -23.2881  -17.1363 N   0  0  0  0  0  0  0  0  0  0  0  0
   18.4977  -23.4438  -14.8282 N   0  0  0  0  0  0  0  0  0  0  0  0
   19.8760  -23.4203  -14.4726 C   0  0  0  0  0  0  0  0  0  0  0  0
   20.2483  -22.9544  -13.1177 C   0  0  0  0  0  0  0  0  0  0  0  0
   21.7603  -22.8865  -12.9448 C   0  0  0  0  0  0  0  0  0  0  0  0
   22.2522  -21.5108  -12.6639 C   0  0  2  0  0  0  0  0  0  0  0  0
   23.6947  -21.5241  -12.3822 N   0  0  0  0  0  0  0  0  0  0  0  0
   21.5340  -20.7999  -11.5862 C   0  0  0  0  0  0  0  0  0  0  0  0
   20.2740  -20.2371  -11.8661 O   0  0  0  0  0  0  0  0  0  0  0  0
   21.9491  -20.6484  -10.4247 O   0  0  0  0  0  0  0  0  0  0  0  0
  1  2  1  0
  3  2  1  0
  4  5  1  0
  4  3  1  0
  5  1  1  0
  5  6  1  1
  6  7  2  0
  8  6  1  0
  9  8  1  0
  9 10  1  1
 11 10  1  0
 12 11  2  0
 13 14  1  0
 13 12  1  0
 14 19  2  0
 15 16  2  0
 15 14  1  0
 16 17  1  0
 17 18  2  0
 19 18  1  0
 19 11  1  0
 20  9  1  0
 20 21  2  0
 22 23  1  0
 23 25  1  0
 24 23  2  0
 25 26  1  0
 26 27  1  0
 28 27  1  0
 29 30  1  0
 29 28  1  1
 30 20  1  0
 31 29  1  0
 32 31  1  0
 33 31  2  0
M  END
$$$$
