CFR.pdb
     RDKit          3D

 29 29  0  0  1  0  0  0  0  0999 V2000
    7.8645  -15.4861   19.0305 N   0  0  0  0  0  0  0  0  0  0  0  0
    9.0574  -14.6725   19.1614 C   0  0  1  0  0  0  0  0  0  0  0  0
    8.8845  -13.4732   18.2501 C   0  0  0  0  0  0  0  0  0  0  0  0
    7.3612  -12.6301   18.7377 S   0  0  0  0  0  0  0  0  0  0  0  0
    9.1756  -14.2750   20.5876 C   0  0  0  0  0  0  0  0  0  0  0  0
   10.1838  -13.6069   20.9311 O   0  0  0  0  0  0  0  0  0  0  0  0
    8.2197  -14.6099   21.5586 N   0  0  0  0  0  0  0  0  0  0  0  0
    8.3900  -14.2580   22.9855 C   0  0  1  0  0  0  0  0  0  0  0  0
    7.1313  -13.6805   23.5018 C   0  0  0  0  0  0  0  0  0  0  0  0
    7.0424  -13.3987   24.9306 C   0  0  0  0  0  0  0  0  0  0  0  0
    6.3944  -14.1527   25.8724 C   0  0  0  0  0  0  0  0  0  0  0  0
    6.3796  -13.7456   27.1931 C   0  0  0  0  0  0  0  0  0  0  0  0
    6.9958  -12.5951   27.6294 C   0  0  0  0  0  0  0  0  0  0  0  0
    7.6518  -11.8266   26.6952 C   0  0  0  0  0  0  0  0  0  0  0  0
    7.6656  -12.2315   25.3838 C   0  0  0  0  0  0  0  0  0  0  0  0
    8.8983  -15.4364   23.7043 C   0  0  0  0  0  0  0  0  0  0  0  0
    8.2850  -16.5632   23.6034 O   0  0  0  0  0  0  0  0  0  0  0  0
   15.2398  -14.6473   21.1981 N   0  0  0  0  0  0  0  0  0  0  0  0
   14.1406  -15.1667   20.4460 C   0  0  0  0  0  0  0  0  0  0  0  0
   14.0816  -14.9103   19.1887 N   0  0  0  0  0  0  0  0  0  0  0  0
   13.1637  -15.9433   21.1229 N   0  0  0  0  0  0  0  0  0  0  0  0
   13.1786  -15.9651   22.5641 C   0  0  0  0  0  0  0  0  0  0  0  0
   12.0236  -16.8436   23.0583 C   0  0  0  0  0  0  0  0  0  0  0  0
   12.0052  -16.8200   24.5528 C   0  0  0  0  0  0  0  0  0  0  0  0
   10.5768  -16.6378   25.0467 C   0  0  2  0  0  0  0  0  0  0  0  0
   10.0589  -15.3737   24.5025 N   0  0  0  0  0  0  0  0  0  0  0  0
   10.5408  -16.6286   26.5064 C   0  0  0  0  0  0  0  0  0  0  0  0
   10.8267  -17.7135   27.3125 O   0  0  0  0  0  0  0  0  0  0  0  0
   10.2263  -15.5697   27.1107 O   0  0  0  0  0  0  0  0  0  0  0  0
  2  3  1  0
  2  1  1  1
  4  3  1  0
  5  2  1  0
  6  5  2  0
  7  5  1  0
  8  7  1  0
  9 10  1  0
  8  9  1  1
 10 15  2  0
 11 12  2  0
 11 10  1  0
 12 13  1  0
 13 14  2  0
 15 14  1  0
 16  8  1  0
 16 17  2  0
 19 20  2  0
 19 18  1  0
 21 19  1  0
 22 21  1  0
 23 22  1  0
 24 23  1  0
 25 24  1  1
 25 26  1  0
 26 16  1  0
 27 25  1  0
 28 27  1  0
 29 27  2  0
M  END
$$$$
