CFR.pdb
     RDKit          3D

 29 29  0  0  1  0  0  0  0  0999 V2000
    4.5880  -19.9765   22.5177 N   0  0  0  0  0  0  0  0  0  0  0  0
    5.3024  -19.8517   23.7732 C   0  0  1  0  0  0  0  0  0  0  0  0
    6.4122  -20.8846   23.7623 C   0  0  0  0  0  0  0  0  0  0  0  0
    7.4745  -20.5318   22.3425 S   0  0  0  0  0  0  0  0  0  0  0  0
    5.8324  -18.4665   23.8524 C   0  0  0  0  0  0  0  0  0  0  0  0
    5.8623  -17.7862   22.7955 O   0  0  0  0  0  0  0  0  0  0  0  0
    6.2966  -17.8902   25.0445 N   0  0  0  0  0  0  0  0  0  0  0  0
    6.8439  -16.5165   25.0941 C   0  0  1  0  0  0  0  0  0  0  0  0
    6.4599  -15.8816   26.3723 C   0  0  0  0  0  0  0  0  0  0  0  0
    6.8188  -14.4822   26.5770 C   0  0  0  0  0  0  0  0  0  0  0  0
    6.0742  -13.3886   26.2238 C   0  0  0  0  0  0  0  0  0  0  0  0
    6.5571  -12.1163   26.4654 C   0  0  0  0  0  0  0  0  0  0  0  0
    7.7762  -11.8776   27.0574 C   0  0  0  0  0  0  0  0  0  0  0  0
    8.5363  -12.9662   27.4189 C   0  0  0  0  0  0  0  0  0  0  0  0
    8.0561  -14.2293   27.1782 C   0  0  0  0  0  0  0  0  0  0  0  0
    8.2866  -16.5733   24.8131 C   0  0  0  0  0  0  0  0  0  0  0  0
    9.0038  -17.5099   25.3272 O   0  0  0  0  0  0  0  0  0  0  0  0
    8.2580  -12.3496   18.6639 N   0  0  0  0  0  0  0  0  0  0  0  0
    7.9921  -13.7313   18.4106 C   0  0  0  0  0  0  0  0  0  0  0  0
    7.2098  -14.0377   17.4390 N   0  0  0  0  0  0  0  0  0  0  0  0
    8.6054  -14.7029   19.2447 N   0  0  0  0  0  0  0  0  0  0  0  0
    9.2953  -14.2571   20.4293 C   0  0  0  0  0  0  0  0  0  0  0  0
    9.8827  -15.4765   21.1490 C   0  0  0  0  0  0  0  0  0  0  0  0
   10.6188  -15.0110   22.3639 C   0  0  0  0  0  0  0  0  0  0  0  0
   10.2911  -15.9172   23.5424 C   0  0  2  0  0  0  0  0  0  0  0  0
    8.9164  -15.6282   23.9775 N   0  0  0  0  0  0  0  0  0  0  0  0
   11.2379  -15.6969   24.6319 C   0  0  0  0  0  0  0  0  0  0  0  0
   12.5906  -15.9716   24.5732 O   0  0  0  0  0  0  0  0  0  0  0  0
   10.8255  -15.2250   25.7240 O   0  0  0  0  0  0  0  0  0  0  0  0
  2  3  1  0
  2  1  1  6
  4  3  1  0
  5  2  1  0
  6  5  2  0
  7  5  1  0
  8  7  1  0
  9 10  1  0
  8  9  1  1
 10 15  2  0
 11 12  2  0
 11 10  1  0
 12 13  1  0
 13 14  2  0
 15 14  1  0
 16  8  1  0
 16 17  2  0
 19 20  2  0
 19 18  1  0
 21 19  1  0
 22 21  1  0
 23 22  1  0
 24 23  1  0
 25 24  1  6
 25 26  1  0
 26 16  1  0
 27 25  1  0
 28 27  1  0
 29 27  2  0
M  END
$$$$
