CFR.pdb
     RDKit          3D

 29 29  0  0  1  0  0  0  0  0999 V2000
    9.5386  -16.1926   19.3286 N   0  0  0  0  0  0  0  0  0  0  0  0
    9.1971  -16.9261   20.5318 C   0  0  1  0  0  0  0  0  0  0  0  0
   10.1825  -18.0719   20.6533 C   0  0  0  0  0  0  0  0  0  0  0  0
    9.7823  -18.9801   22.1646 S   0  0  0  0  0  0  0  0  0  0  0  0
    9.2960  -15.9835   21.6754 C   0  0  0  0  0  0  0  0  0  0  0  0
   10.2884  -15.2128   21.7191 O   0  0  0  0  0  0  0  0  0  0  0  0
    8.3389  -15.9171   22.6992 N   0  0  0  0  0  0  0  0  0  0  0  0
    8.4324  -14.9353   23.8022 C   0  0  1  0  0  0  0  0  0  0  0  0
    7.0841  -14.4150   24.1111 C   0  0  0  0  0  0  0  0  0  0  0  0
    6.9367  -13.5385   25.2683 C   0  0  0  0  0  0  0  0  0  0  0  0
    7.4183  -12.2626   25.3923 C   0  0  0  0  0  0  0  0  0  0  0  0
    7.2158  -11.5584   26.5642 C   0  0  0  0  0  0  0  0  0  0  0  0
    6.5392  -12.0786   27.6436 C   0  0  0  0  0  0  0  0  0  0  0  0
    6.0483  -13.3596   27.5345 C   0  0  0  0  0  0  0  0  0  0  0  0
    6.2502  -14.0583   26.3704 C   0  0  0  0  0  0  0  0  0  0  0  0
    9.1547  -15.5543   24.9242 C   0  0  0  0  0  0  0  0  0  0  0  0
    8.8693  -16.7558   25.2860 O   0  0  0  0  0  0  0  0  0  0  0  0
   15.3427  -18.3946   25.4458 N   0  0  0  0  0  0  0  0  0  0  0  0
   15.6254  -17.3152   24.5519 C   0  0  0  0  0  0  0  0  0  0  0  0
   16.0355  -17.5916   23.3664 N   0  0  0  0  0  0  0  0  0  0  0  0
   15.4394  -15.9861   25.0150 N   0  0  0  0  0  0  0  0  0  0  0  0
   14.8195  -15.7850   26.3007 C   0  0  0  0  0  0  0  0  0  0  0  0
   13.3768  -16.2999   26.2411 C   0  0  0  0  0  0  0  0  0  0  0  0
   12.4449  -15.1448   26.4193 C   0  0  0  0  0  0  0  0  0  0  0  0
   11.0140  -15.6516   26.5354 C   0  0  2  0  0  0  0  0  0  0  0  0
   10.1721  -14.8684   25.6188 N   0  0  0  0  0  0  0  0  0  0  0  0
   10.5404  -15.5264   27.9109 C   0  0  0  0  0  0  0  0  0  0  0  0
    9.5372  -14.6732   28.3285 O   0  0  0  0  0  0  0  0  0  0  0  0
   11.0651  -16.2317   28.8124 O   0  0  0  0  0  0  0  0  0  0  0  0
  2  3  1  0
  2  1  1  6
  4  3  1  0
  5  2  1  0
  6  5  2  0
  7  5  1  0
  8  7  1  0
  9 10  1  0
  8  9  1  1
 10 15  2  0
 11 12  2  0
 11 10  1  0
 12 13  1  0
 13 14  2  0
 15 14  1  0
 16  8  1  0
 16 17  2  0
 19 20  2  0
 19 18  1  0
 21 19  1  0
 22 21  1  0
 23 22  1  0
 24 23  1  0
 25 24  1  1
 25 26  1  0
 26 16  1  0
 27 25  1  0
 28 27  1  0
 29 27  2  0
M  END
$$$$
