CFR.pdb
     RDKit          3D

 29 29  0  0  1  0  0  0  0  0999 V2000
   10.1064  -16.4022   19.2541 N   0  0  0  0  0  0  0  0  0  0  0  0
    8.9627  -16.6170   20.1189 C   0  0  1  0  0  0  0  0  0  0  0  0
    8.8996  -18.1019   20.4185 C   0  0  0  0  0  0  0  0  0  0  0  0
    8.7188  -18.9710   18.8434 S   0  0  0  0  0  0  0  0  0  0  0  0
    9.1714  -15.8099   21.3482 C   0  0  0  0  0  0  0  0  0  0  0  0
   10.3244  -15.3589   21.5677 O   0  0  0  0  0  0  0  0  0  0  0  0
    8.1473  -15.5318   22.2660 N   0  0  0  0  0  0  0  0  0  0  0  0
    8.3616  -14.6667   23.4470 C   0  0  1  0  0  0  0  0  0  0  0  0
    7.0809  -14.0387   23.8337 C   0  0  0  0  0  0  0  0  0  0  0  0
    7.0735  -13.1583   24.9972 C   0  0  0  0  0  0  0  0  0  0  0  0
    7.7557  -11.9786   25.1324 C   0  0  0  0  0  0  0  0  0  0  0  0
    7.6659  -11.2594   26.3092 C   0  0  0  0  0  0  0  0  0  0  0  0
    6.9095  -11.6704   27.3828 C   0  0  0  0  0  0  0  0  0  0  0  0
    6.2174  -12.8537   27.2624 C   0  0  0  0  0  0  0  0  0  0  0  0
    6.3074  -13.5675   26.0935 C   0  0  0  0  0  0  0  0  0  0  0  0
    9.0325  -15.4542   24.4927 C   0  0  0  0  0  0  0  0  0  0  0  0
    9.3616  -14.8957   25.6043 O   0  0  0  0  0  0  0  0  0  0  0  0
    9.5555  -22.2160   21.8228 N   0  0  0  0  0  0  0  0  0  0  0  0
   10.2785  -21.1919   21.1355 C   0  0  0  0  0  0  0  0  0  0  0  0
   10.1439  -21.0950   19.8617 N   0  0  0  0  0  0  0  0  0  0  0  0
   11.1125  -20.3274   21.8924 N   0  0  0  0  0  0  0  0  0  0  0  0
   11.1656  -20.4995   23.3225 C   0  0  0  0  0  0  0  0  0  0  0  0
   10.1906  -19.5139   23.9768 C   0  0  0  0  0  0  0  0  0  0  0  0
   10.9703  -18.5362   24.7956 C   0  0  0  0  0  0  0  0  0  0  0  0
   10.0265  -17.5117   25.4098 C   0  0  2  0  0  0  0  0  0  0  0  0
    9.3205  -16.8234   24.3188 N   0  0  0  0  0  0  0  0  0  0  0  0
   10.7723  -16.5597   26.2281 C   0  0  0  0  0  0  0  0  0  0  0  0
   10.7456  -15.1876   26.0692 O   0  0  0  0  0  0  0  0  0  0  0  0
   11.5088  -16.9857   27.1563 O   0  0  0  0  0  0  0  0  0  0  0  0
  2  3  1  0
  2  1  1  6
  4  3  1  0
  5  2  1  0
  6  5  2  0
  7  5  1  0
  8  7  1  0
  9 10  1  0
  8  9  1  1
 10 15  2  0
 11 12  2  0
 11 10  1  0
 12 13  1  0
 13 14  2  0
 15 14  1  0
 16  8  1  0
 16 17  2  0
 19 20  2  0
 19 18  1  0
 21 19  1  0
 22 21  1  0
 23 22  1  0
 24 23  1  0
 25 24  1  6
 25 26  1  0
 26 16  1  0
 27 25  1  0
 28 27  1  0
 29 27  2  0
M  END
$$$$
