CFR.pdb
     RDKit          3D

 29 29  0  0  1  0  0  0  0  0999 V2000
    9.3876  -16.5547   18.9208 N   0  0  0  0  0  0  0  0  0  0  0  0
    8.1385  -16.1908   19.5607 C   0  0  1  0  0  0  0  0  0  0  0  0
    7.2806  -17.4398   19.6124 C   0  0  0  0  0  0  0  0  0  0  0  0
    8.2240  -18.7166   20.4778 S   0  0  0  0  0  0  0  0  0  0  0  0
    8.4612  -15.6810   20.9179 C   0  0  0  0  0  0  0  0  0  0  0  0
    9.6181  -15.8874   21.3648 O   0  0  0  0  0  0  0  0  0  0  0  0
    7.5393  -14.9857   21.7150 N   0  0  0  0  0  0  0  0  0  0  0  0
    7.8921  -14.4635   23.0537 C   0  0  1  0  0  0  0  0  0  0  0  0
    6.8676  -13.4898   23.4858 C   0  0  0  0  0  0  0  0  0  0  0  0
    7.0001  -12.9001   24.8138 C   0  0  0  0  0  0  0  0  0  0  0  0
    7.9444  -11.9923   25.2132 C   0  0  0  0  0  0  0  0  0  0  0  0
    7.9561  -11.5360   26.5177 C   0  0  0  0  0  0  0  0  0  0  0  0
    7.0486  -11.9515   27.4651 C   0  0  0  0  0  0  0  0  0  0  0  0
    6.0927  -12.8631   27.0792 C   0  0  0  0  0  0  0  0  0  0  0  0
    6.0821  -13.3160   25.7836 C   0  0  0  0  0  0  0  0  0  0  0  0
    8.1194  -15.6007   23.9585 C   0  0  0  0  0  0  0  0  0  0  0  0
    7.3595  -16.6370   23.8898 O   0  0  0  0  0  0  0  0  0  0  0  0
   13.3387  -19.2415   21.9797 N   0  0  0  0  0  0  0  0  0  0  0  0
   13.9242  -19.6466   23.2194 C   0  0  0  0  0  0  0  0  0  0  0  0
   15.1754  -19.9366   23.2414 N   0  0  0  0  0  0  0  0  0  0  0  0
   13.0961  -19.7095   24.3709 N   0  0  0  0  0  0  0  0  0  0  0  0
   11.6659  -19.6812   24.1932 C   0  0  0  0  0  0  0  0  0  0  0  0
   11.0465  -18.8153   25.2962 C   0  0  0  0  0  0  0  0  0  0  0  0
   10.6682  -17.4913   24.7144 C   0  0  0  0  0  0  0  0  0  0  0  0
    9.5278  -16.8831   25.5189 C   0  0  2  0  0  0  0  0  0  0  0  0
    9.1651  -15.5973   24.9043 N   0  0  0  0  0  0  0  0  0  0  0  0
    9.9290  -16.6990   26.9107 C   0  0  0  0  0  0  0  0  0  0  0  0
    9.9939  -15.4823   27.5618 O   0  0  0  0  0  0  0  0  0  0  0  0
   10.2503  -17.7027   27.5998 O   0  0  0  0  0  0  0  0  0  0  0  0
  2  3  1  0
  2  1  1  1
  4  3  1  0
  5  2  1  0
  6  5  2  0
  7  5  1  0
  8  7  1  0
  9 10  1  0
  8  9  1  1
 10 15  2  0
 11 12  2  0
 11 10  1  0
 12 13  1  0
 13 14  2  0
 15 14  1  0
 16  8  1  0
 16 17  2  0
 19 20  2  0
 19 18  1  0
 21 19  1  0
 22 21  1  0
 23 22  1  0
 24 23  1  0
 25 24  1  6
 25 26  1  0
 26 16  1  0
 27 25  1  0
 28 27  1  0
 29 27  2  0
M  END
$$$$
