CFR.pdb
     RDKit          3D

 29 29  0  0  1  0  0  0  0  0999 V2000
    8.0915  -18.4084   27.7138 N   0  0  0  0  0  0  0  0  0  0  0  0
    8.9370  -17.2898   27.3451 C   0  0  1  0  0  0  0  0  0  0  0  0
   10.3742  -17.7633   27.4406 C   0  0  0  0  0  0  0  0  0  0  0  0
   10.8531  -17.7114   29.1833 S   0  0  0  0  0  0  0  0  0  0  0  0
    8.5739  -16.8894   25.9617 C   0  0  0  0  0  0  0  0  0  0  0  0
    7.9687  -17.7273   25.2459 O   0  0  0  0  0  0  0  0  0  0  0  0
    8.8744  -15.6285   25.4245 N   0  0  0  0  0  0  0  0  0  0  0  0
    8.5552  -15.2726   24.0244 C   0  0  1  0  0  0  0  0  0  0  0  0
    8.3042  -13.8191   23.9329 C   0  0  0  0  0  0  0  0  0  0  0  0
    7.4300  -13.2108   24.9303 C   0  0  0  0  0  0  0  0  0  0  0  0
    6.1072  -13.4969   25.1394 C   0  0  0  0  0  0  0  0  0  0  0  0
    5.3995  -12.8200   26.1145 C   0  0  0  0  0  0  0  0  0  0  0  0
    5.9621  -11.8485   26.9104 C   0  0  0  0  0  0  0  0  0  0  0  0
    7.2909  -11.5499   26.7132 C   0  0  0  0  0  0  0  0  0  0  0  0
    7.9928  -12.2224   25.7442 C   0  0  0  0  0  0  0  0  0  0  0  0
    9.6160  -15.7975   23.1509 C   0  0  0  0  0  0  0  0  0  0  0  0
   10.8443  -15.4864   23.3755 O   0  0  0  0  0  0  0  0  0  0  0  0
   14.6627  -16.5770   23.9466 N   0  0  0  0  0  0  0  0  0  0  0  0
   15.0012  -17.8273   23.3415 C   0  0  0  0  0  0  0  0  0  0  0  0
   16.0940  -18.4034   23.6932 N   0  0  0  0  0  0  0  0  0  0  0  0
   14.1134  -18.3761   22.3790 N   0  0  0  0  0  0  0  0  0  0  0  0
   13.0000  -19.1667   22.8406 C   0  0  0  0  0  0  0  0  0  0  0  0
   11.7646  -18.2658   22.9511 C   0  0  0  0  0  0  0  0  0  0  0  0
   10.9283  -18.4420   21.7247 C   0  0  0  0  0  0  0  0  0  0  0  0
   10.4543  -17.0839   21.2261 C   0  0  2  0  0  0  0  0  0  0  0  0
    9.3279  -16.6519   22.0669 N   0  0  0  0  0  0  0  0  0  0  0  0
   10.0539  -17.1684   19.8244 C   0  0  0  0  0  0  0  0  0  0  0  0
   10.8467  -16.8096   18.7513 O   0  0  0  0  0  0  0  0  0  0  0  0
    8.9046  -17.5927   19.5339 O   0  0  0  0  0  0  0  0  0  0  0  0
  2  3  1  0
  2  1  1  6
  4  3  1  0
  5  2  1  0
  6  5  2  0
  7  5  1  0
  8  7  1  0
  9 10  1  0
  8  9  1  1
 10 15  2  0
 11 12  2  0
 11 10  1  0
 12 13  1  0
 13 14  2  0
 15 14  1  0
 16  8  1  0
 16 17  2  0
 19 20  2  0
 19 18  1  0
 21 19  1  0
 22 21  1  0
 23 22  1  0
 24 23  1  0
 25 24  1  1
 25 26  1  0
 26 16  1  0
 27 25  1  0
 28 27  1  0
 29 27  2  0
M  END
$$$$
