CFR.pdb
     RDKit          3D

 29 29  0  0  1  0  0  0  0  0999 V2000
   10.6879  -16.4916   19.6204 N   0  0  0  0  0  0  0  0  0  0  0  0
    9.3231  -16.3926   20.0998 C   0  0  1  0  0  0  0  0  0  0  0  0
    8.7420  -17.7929   20.0912 C   0  0  0  0  0  0  0  0  0  0  0  0
   10.0098  -18.9156   20.7247 S   0  0  0  0  0  0  0  0  0  0  0  0
    9.3686  -15.8175   21.4684 C   0  0  0  0  0  0  0  0  0  0  0  0
   10.4626  -15.8551   22.0868 O   0  0  0  0  0  0  0  0  0  0  0  0
    8.2539  -15.2398   22.0948 N   0  0  0  0  0  0  0  0  0  0  0  0
    8.3069  -14.7294   23.4825 C   0  0  1  0  0  0  0  0  0  0  0  0
    7.1144  -13.8966   23.7447 C   0  0  0  0  0  0  0  0  0  0  0  0
    7.0268  -13.2110   25.0296 C   0  0  0  0  0  0  0  0  0  0  0  0
    5.8858  -12.7601   25.6380 C   0  0  0  0  0  0  0  0  0  0  0  0
    5.9626  -12.1066   26.8534 C   0  0  0  0  0  0  0  0  0  0  0  0
    7.1518  -11.8767   27.5066 C   0  0  0  0  0  0  0  0  0  0  0  0
    8.3074  -12.3243   26.9086 C   0  0  0  0  0  0  0  0  0  0  0  0
    8.2302  -12.9728   25.7014 C   0  0  0  0  0  0  0  0  0  0  0  0
    8.5105  -15.8650   24.3950 C   0  0  0  0  0  0  0  0  0  0  0  0
    8.0105  -17.0156   24.1086 O   0  0  0  0  0  0  0  0  0  0  0  0
   12.9365  -21.9942   24.8073 N   0  0  0  0  0  0  0  0  0  0  0  0
   12.7723  -21.1162   23.6911 C   0  0  0  0  0  0  0  0  0  0  0  0
   13.0592  -21.5544   22.5182 N   0  0  0  0  0  0  0  0  0  0  0  0
   12.2989  -19.7991   23.9294 N   0  0  0  0  0  0  0  0  0  0  0  0
   12.7647  -19.1013   25.1015 C   0  0  0  0  0  0  0  0  0  0  0  0
   11.5532  -18.6754   25.9388 C   0  0  0  0  0  0  0  0  0  0  0  0
   10.9553  -17.4472   25.3317 C   0  0  0  0  0  0  0  0  0  0  0  0
    9.7919  -16.9649   26.1869 C   0  0  2  0  0  0  0  0  0  0  0  0
    9.2562  -15.7350   25.5846 N   0  0  0  0  0  0  0  0  0  0  0  0
   10.2344  -16.7224   27.5571 C   0  0  0  0  0  0  0  0  0  0  0  0
   10.2779  -15.4839   28.1678 O   0  0  0  0  0  0  0  0  0  0  0  0
   10.6155  -17.6916   28.2648 O   0  0  0  0  0  0  0  0  0  0  0  0
  2  3  1  0
  2  1  1  1
  4  3  1  0
  5  2  1  0
  6  5  2  0
  7  5  1  0
  8  7  1  0
  9 10  1  0
  8  9  1  1
 10 15  2  0
 11 12  2  0
 11 10  1  0
 12 13  1  0
 13 14  2  0
 15 14  1  0
 16  8  1  0
 16 17  2  0
 19 20  2  0
 19 18  1  0
 21 19  1  0
 22 21  1  0
 23 22  1  0
 24 23  1  0
 25 24  1  6
 25 26  1  0
 26 16  1  0
 27 25  1  0
 28 27  1  0
 29 27  2  0
M  END
$$$$
