CFR.pdb
     RDKit          3D

 29 29  0  0  1  0  0  0  0  0999 V2000
    8.0482  -14.5945   20.3857 N   0  0  0  0  0  0  0  0  0  0  0  0
    7.2469  -15.4445   21.2445 C   0  0  1  0  0  0  0  0  0  0  0  0
    7.1623  -16.8035   20.5777 C   0  0  0  0  0  0  0  0  0  0  0  0
    6.1499  -17.8684   21.6314 S   0  0  0  0  0  0  0  0  0  0  0  0
    7.9234  -15.5139   22.5650 C   0  0  0  0  0  0  0  0  0  0  0  0
    9.1714  -15.3644   22.5957 O   0  0  0  0  0  0  0  0  0  0  0  0
    7.2362  -15.7370   23.7678 N   0  0  0  0  0  0  0  0  0  0  0  0
    7.9157  -15.6996   25.0815 C   0  0  1  0  0  0  0  0  0  0  0  0
    6.9809  -15.1817   26.1025 C   0  0  0  0  0  0  0  0  0  0  0  0
    6.7758  -13.7389   26.1743 C   0  0  0  0  0  0  0  0  0  0  0  0
    5.5777  -13.0801   26.0978 C   0  0  0  0  0  0  0  0  0  0  0  0
    5.5426  -11.6999   26.1618 C   0  0  0  0  0  0  0  0  0  0  0  0
    6.6727  -10.9274   26.3026 C   0  0  0  0  0  0  0  0  0  0  0  0
    7.8845  -11.5745   26.3817 C   0  0  0  0  0  0  0  0  0  0  0  0
    7.9184  -12.9452   26.3175 C   0  0  0  0  0  0  0  0  0  0  0  0
    8.4921  -17.0255   25.3521 C   0  0  0  0  0  0  0  0  0  0  0  0
    7.7276  -18.0596   25.4004 O   0  0  0  0  0  0  0  0  0  0  0  0
   14.8984  -19.4049   21.5332 N   0  0  0  0  0  0  0  0  0  0  0  0
   14.6255  -19.8672   22.8582 C   0  0  0  0  0  0  0  0  0  0  0  0
   15.4253  -20.7221   23.3868 N   0  0  0  0  0  0  0  0  0  0  0  0
   13.4826  -19.3598   23.5305 N   0  0  0  0  0  0  0  0  0  0  0  0
   12.5933  -18.4825   22.8112 C   0  0  0  0  0  0  0  0  0  0  0  0
   11.4382  -18.0813   23.7358 C   0  0  0  0  0  0  0  0  0  0  0  0
   11.5084  -18.9058   24.9807 C   0  0  0  0  0  0  0  0  0  0  0  0
   10.3424  -18.5566   25.8952 C   0  0  2  0  0  0  0  0  0  0  0  0
    9.8763  -17.2048   25.5517 N   0  0  0  0  0  0  0  0  0  0  0  0
   10.7555  -18.6240   27.2940 C   0  0  0  0  0  0  0  0  0  0  0  0
   11.1064  -19.7817   27.9613 O   0  0  0  0  0  0  0  0  0  0  0  0
   10.8042  -17.5668   27.9762 O   0  0  0  0  0  0  0  0  0  0  0  0
  2  3  1  0
  2  1  1  6
  4  3  1  0
  5  2  1  0
  6  5  2  0
  7  5  1  0
  8  7  1  0
  9 10  1  0
  8  9  1  1
 10 15  2  0
 11 12  2  0
 11 10  1  0
 12 13  1  0
 13 14  2  0
 15 14  1  0
 16  8  1  0
 16 17  2  0
 19 20  2  0
 19 18  1  0
 21 19  1  0
 22 21  1  0
 23 22  1  0
 24 23  1  0
 25 24  1  6
 25 26  1  0
 26 16  1  0
 27 25  1  0
 28 27  1  0
 29 27  2  0
M  END
$$$$
