DDD.pdb
     RDKit          3D

 25 24  0  0  1  0  0  0  0  0999 V2000
   10.6473  -18.4980   18.0049 N   0  0  0  0  0  0  0  0  0  0  0  0
   11.0853  -19.4712   18.9932 C   0  0  1  0  0  0  0  0  0  0  0  0
   12.5259  -19.1542   19.3551 C   0  0  0  0  0  0  0  0  0  0  0  0
   13.3361  -19.2827   18.1194 C   0  0  0  0  0  0  0  0  0  0  0  0
   12.8300  -19.8056   17.1042 O   0  0  0  0  0  0  0  0  0  0  0  0
   10.2205  -19.4411   20.1941 C   0  0  0  0  0  0  0  0  0  0  0  0
   10.1780  -18.4234   20.9167 O   0  0  0  0  0  0  0  0  0  0  0  0
   14.6440  -18.8278   18.0859 O   0  0  0  0  0  0  0  0  0  0  0  0
    9.4366  -20.5673   20.5289 N   0  0  0  0  0  0  0  0  0  0  0  0
    8.6053  -20.5904   21.7094 C   0  0  1  0  0  0  0  0  0  0  0  0
    7.2851  -21.2790   21.5023 C   0  0  0  0  0  0  0  0  0  0  0  0
    6.4317  -21.2088   22.7124 C   0  0  0  0  0  0  0  0  0  0  0  0
    6.8553  -20.6077   23.7129 O   0  0  0  0  0  0  0  0  0  0  0  0
    9.3518  -21.1594   22.8618 C   0  0  0  0  0  0  0  0  0  0  0  0
   10.0807  -22.1615   22.6585 O   0  0  0  0  0  0  0  0  0  0  0  0
    5.1900  -21.7953   22.7414 O   0  0  0  0  0  0  0  0  0  0  0  0
    9.2792  -20.6288   24.1643 N   0  0  0  0  0  0  0  0  0  0  0  0
   10.0601  -21.2158   25.2660 C   0  0  1  0  0  0  0  0  0  0  0  0
   10.7338  -20.1063   26.0322 C   0  0  0  0  0  0  0  0  0  0  0  0
   11.4994  -20.5927   27.1646 C   0  0  0  0  0  0  0  0  0  0  0  0
   11.0420  -20.4196   28.3378 O   0  0  0  0  0  0  0  0  0  0  0  0
    9.0516  -21.8331   26.1958 C   0  0  0  0  0  0  0  0  0  0  0  0
    7.8282  -21.5345   26.1635 O   0  0  0  0  0  0  0  0  0  0  0  0
   12.7100  -21.2354   26.9987 O   0  0  0  0  0  0  0  0  0  0  0  0
    9.4895  -22.7571   27.1119 O   0  0  0  0  0  0  0  0  0  0  0  0
  2  1  1  6
  2  6  1  0
  3  2  1  0
  4  3  1  0
  5  4  2  0
  6  7  2  0
  8  4  1  0
  9  6  1  0
  9 10  1  0
 10 14  1  0
 10 11  1  6
 12 11  1  0
 13 12  2  0
 14 17  1  0
 15 14  2  0
 16 12  1  0
 17 18  1  0
 18 19  1  1
 19 20  1  0
 20 24  1  0
 21 20  2  0
 22 25  1  0
 22 18  1  0
 23 22  2  0
M  END
$$$$
