DDD.pdb
     RDKit          3D

 25 24  0  0  1  0  0  0  0  0999 V2000
   13.0553  -17.5596   15.8113 N   0  0  0  0  0  0  0  0  0  0  0  0
   13.5469  -18.3708   16.9140 C   0  0  1  0  0  0  0  0  0  0  0  0
   15.0645  -18.3745   16.8515 C   0  0  0  0  0  0  0  0  0  0  0  0
   15.4531  -18.5353   15.4292 C   0  0  0  0  0  0  0  0  0  0  0  0
   14.7442  -19.2328   14.6734 O   0  0  0  0  0  0  0  0  0  0  0  0
   13.0736  -17.8483   18.2155 C   0  0  0  0  0  0  0  0  0  0  0  0
   12.9028  -16.6222   18.3798 O   0  0  0  0  0  0  0  0  0  0  0  0
   16.5919  -17.9188   14.9376 O   0  0  0  0  0  0  0  0  0  0  0  0
   12.8118  -18.7378   19.2810 N   0  0  0  0  0  0  0  0  0  0  0  0
   12.3497  -18.2686   20.5661 C   0  0  1  0  0  0  0  0  0  0  0  0
   11.1196  -18.9785   21.0591 C   0  0  0  0  0  0  0  0  0  0  0  0
   10.6688  -18.4528   22.3698 C   0  0  0  0  0  0  0  0  0  0  0  0
   11.1882  -18.8965   23.4066 O   0  0  0  0  0  0  0  0  0  0  0  0
   13.4508  -18.3113   21.5636 C   0  0  0  0  0  0  0  0  0  0  0  0
   14.0816  -19.3881   21.7034 O   0  0  0  0  0  0  0  0  0  0  0  0
    9.6922  -17.4903   22.4517 O   0  0  0  0  0  0  0  0  0  0  0  0
   13.8167  -17.2053   22.3548 N   0  0  0  0  0  0  0  0  0  0  0  0
   14.9576  -17.2819   23.2826 C   0  0  1  0  0  0  0  0  0  0  0  0
   15.6593  -15.9481   23.3047 C   0  0  0  0  0  0  0  0  0  0  0  0
   17.0866  -16.0701   23.5347 C   0  0  0  0  0  0  0  0  0  0  0  0
   17.8004  -15.0187   23.5506 O   0  0  0  0  0  0  0  0  0  0  0  0
   14.3589  -17.4784   24.6484 C   0  0  0  0  0  0  0  0  0  0  0  0
   15.0298  -17.8990   25.6283 O   0  0  0  0  0  0  0  0  0  0  0  0
   17.6861  -17.2977   23.7343 O   0  0  0  0  0  0  0  0  0  0  0  0
   13.0294  -17.1857   24.8258 O   0  0  0  0  0  0  0  0  0  0  0  0
  2  1  1  6
  2  6  1  0
  3  2  1  0
  4  3  1  0
  5  4  2  0
  6  7  2  0
  8  4  1  0
  9  6  1  0
  9 10  1  0
 10 14  1  0
 10 11  1  1
 12 11  1  0
 13 12  2  0
 14 17  1  0
 15 14  2  0
 16 12  1  0
 17 18  1  0
 18 19  1  1
 19 20  1  0
 20 24  1  0
 21 20  2  0
 22 25  1  0
 22 18  1  0
 23 22  2  0
M  END
$$$$
