DDD.pdb
     RDKit          3D

 25 24  0  0  1  0  0  0  0  0999 V2000
    7.2391  -16.3879   19.6305 N   0  0  0  0  0  0  0  0  0  0  0  0
    8.5759  -15.8170   19.6849 C   0  0  1  0  0  0  0  0  0  0  0  0
    8.4905  -14.4969   20.4311 C   0  0  0  0  0  0  0  0  0  0  0  0
    7.6502  -13.5799   19.6231 C   0  0  0  0  0  0  0  0  0  0  0  0
    7.2362  -13.9508   18.5045 O   0  0  0  0  0  0  0  0  0  0  0  0
    9.5250  -16.7384   20.3492 C   0  0  0  0  0  0  0  0  0  0  0  0
    9.1177  -17.5659   21.1912 O   0  0  0  0  0  0  0  0  0  0  0  0
    7.3240  -12.3213   20.1006 O   0  0  0  0  0  0  0  0  0  0  0  0
   10.9003  -16.6856   20.0320 N   0  0  0  0  0  0  0  0  0  0  0  0
   11.8594  -17.5618   20.6625 C   0  0  1  0  0  0  0  0  0  0  0  0
   13.1702  -17.6450   19.9312 C   0  0  0  0  0  0  0  0  0  0  0  0
   12.9953  -18.1294   18.5411 C   0  0  0  0  0  0  0  0  0  0  0  0
   13.2893  -17.3750   17.5998 O   0  0  0  0  0  0  0  0  0  0  0  0
   12.0444  -17.1915   22.0901 C   0  0  0  0  0  0  0  0  0  0  0  0
   12.4594  -16.0359   22.3530 O   0  0  0  0  0  0  0  0  0  0  0  0
   12.5158  -19.3906   18.2832 O   0  0  0  0  0  0  0  0  0  0  0  0
   11.7770  -18.0730   23.1554 N   0  0  0  0  0  0  0  0  0  0  0  0
   11.9621  -17.6497   24.5535 C   0  0  1  0  0  0  0  0  0  0  0  0
   10.9348  -18.3408   25.4130 C   0  0  0  0  0  0  0  0  0  0  0  0
   11.1131  -18.0686   26.8269 C   0  0  0  0  0  0  0  0  0  0  0  0
   11.9994  -17.2316   27.1863 O   0  0  0  0  0  0  0  0  0  0  0  0
   13.3046  -18.1874   24.9672 C   0  0  0  0  0  0  0  0  0  0  0  0
   13.9417  -19.0252   24.2749 O   0  0  0  0  0  0  0  0  0  0  0  0
   10.3465  -18.6968   27.7882 O   0  0  0  0  0  0  0  0  0  0  0  0
   13.8499  -17.7427   26.1460 O   0  0  0  0  0  0  0  0  0  0  0  0
  2  1  1  1
  2  6  1  0
  3  2  1  0
  4  3  1  0
  5  4  2  0
  6  7  2  0
  8  4  1  0
  9  6  1  0
  9 10  1  0
 10 14  1  0
 10 11  1  6
 12 11  1  0
 13 12  2  0
 14 17  1  0
 15 14  2  0
 16 12  1  0
 17 18  1  0
 18 19  1  1
 19 20  1  0
 20 24  1  0
 21 20  2  0
 22 25  1  0
 22 18  1  0
 23 22  2  0
M  END
$$$$
