DDD.pdb
     RDKit          3D

 25 24  0  0  1  0  0  0  0  0999 V2000
   10.0995  -17.7817   16.0964 N   0  0  0  0  0  0  0  0  0  0  0  0
    9.1155  -16.7661   16.4370 C   0  0  1  0  0  0  0  0  0  0  0  0
    7.8378  -17.0798   15.6782 C   0  0  0  0  0  0  0  0  0  0  0  0
    8.1126  -16.8743   14.2353 C   0  0  0  0  0  0  0  0  0  0  0  0
    7.6526  -15.8659   13.6594 O   0  0  0  0  0  0  0  0  0  0  0  0
    8.8674  -16.7288   17.8958 C   0  0  0  0  0  0  0  0  0  0  0  0
    8.1133  -15.8628   18.3865 O   0  0  0  0  0  0  0  0  0  0  0  0
    8.8732  -17.7902   13.5272 O   0  0  0  0  0  0  0  0  0  0  0  0
    9.4844  -17.6766   18.7419 N   0  0  0  0  0  0  0  0  0  0  0  0
    9.2817  -17.6642   20.1716 C   0  0  1  0  0  0  0  0  0  0  0  0
    8.4359  -18.8031   20.6693 C   0  0  0  0  0  0  0  0  0  0  0  0
    8.2084  -18.7215   22.1319 C   0  0  0  0  0  0  0  0  0  0  0  0
    7.2109  -18.1135   22.5524 O   0  0  0  0  0  0  0  0  0  0  0  0
   10.5850  -17.5906   20.8824 C   0  0  0  0  0  0  0  0  0  0  0  0
   11.6309  -17.8209   20.2267 O   0  0  0  0  0  0  0  0  0  0  0  0
    9.0793  -19.3042   23.0201 O   0  0  0  0  0  0  0  0  0  0  0  0
   10.6996  -17.2761   22.2504 N   0  0  0  0  0  0  0  0  0  0  0  0
   12.0155  -17.2312   22.9096 C   0  0  1  0  0  0  0  0  0  0  0  0
   12.7466  -15.9934   22.4566 C   0  0  0  0  0  0  0  0  0  0  0  0
   14.1358  -16.2525   22.1278 C   0  0  0  0  0  0  0  0  0  0  0  0
   14.5918  -17.4310   22.2638 O   0  0  0  0  0  0  0  0  0  0  0  0
   11.7303  -17.0529   24.3756 C   0  0  0  0  0  0  0  0  0  0  0  0
   12.6212  -17.1700   25.2586 O   0  0  0  0  0  0  0  0  0  0  0  0
   14.9719  -15.2519   21.6739 O   0  0  0  0  0  0  0  0  0  0  0  0
   10.4469  -16.7506   24.7581 O   0  0  0  0  0  0  0  0  0  0  0  0
  2  1  1  1
  2  6  1  0
  3  2  1  0
  4  3  1  0
  5  4  2  0
  6  7  2  0
  8  4  1  0
  9  6  1  0
  9 10  1  0
 10 14  1  0
 10 11  1  1
 12 11  1  0
 13 12  2  0
 14 17  1  0
 15 14  2  0
 16 12  1  0
 17 18  1  0
 18 19  1  6
 19 20  1  0
 20 24  1  0
 21 20  2  0
 22 25  1  0
 22 18  1  0
 23 22  2  0
M  END
$$$$
