DDD.pdb
     RDKit          3D

 25 24  0  0  1  0  0  0  0  0999 V2000
   13.4795  -18.2188   17.2015 N   0  0  0  0  0  0  0  0  0  0  0  0
   12.9189  -19.4011   17.8367 C   0  0  1  0  0  0  0  0  0  0  0  0
   14.0384  -20.4124   18.0130 C   0  0  0  0  0  0  0  0  0  0  0  0
   14.6701  -20.6159   16.6865 C   0  0  0  0  0  0  0  0  0  0  0  0
   14.0213  -20.3584   15.6507 O   0  0  0  0  0  0  0  0  0  0  0  0
   12.3000  -19.0667   19.1391 C   0  0  0  0  0  0  0  0  0  0  0  0
   12.3085  -17.8907   19.5592 O   0  0  0  0  0  0  0  0  0  0  0  0
   15.9690  -21.0874   16.5916 O   0  0  0  0  0  0  0  0  0  0  0  0
   11.6946  -20.0800   19.9146 N   0  0  0  0  0  0  0  0  0  0  0  0
   11.0278  -19.7861   21.1614 C   0  0  1  0  0  0  0  0  0  0  0  0
    9.7714  -20.5837   21.3744 C   0  0  0  0  0  0  0  0  0  0  0  0
    9.0759  -20.1921   22.6236 C   0  0  0  0  0  0  0  0  0  0  0  0
    9.3310  -20.8065   23.6719 O   0  0  0  0  0  0  0  0  0  0  0  0
   11.9709  -19.9233   22.3020 C   0  0  0  0  0  0  0  0  0  0  0  0
   11.5539  -19.6405   23.4522 O   0  0  0  0  0  0  0  0  0  0  0  0
    8.1607  -19.1678   22.6363 O   0  0  0  0  0  0  0  0  0  0  0  0
   13.3034  -20.3535   22.1523 N   0  0  0  0  0  0  0  0  0  0  0  0
   14.2051  -20.4440   23.3128 C   0  0  1  0  0  0  0  0  0  0  0  0
   15.2735  -21.4668   23.0225 C   0  0  0  0  0  0  0  0  0  0  0  0
   16.2451  -21.5812   24.0939 C   0  0  0  0  0  0  0  0  0  0  0  0
   17.4035  -21.0843   23.9311 O   0  0  0  0  0  0  0  0  0  0  0  0
   14.8950  -19.1100   23.3972 C   0  0  0  0  0  0  0  0  0  0  0  0
   14.8889  -18.2826   22.4473 O   0  0  0  0  0  0  0  0  0  0  0  0
   15.9425  -22.2166   25.2818 O   0  0  0  0  0  0  0  0  0  0  0  0
   15.5543  -18.7892   24.5579 O   0  0  0  0  0  0  0  0  0  0  0  0
  2  1  1  1
  2  6  1  0
  3  2  1  0
  4  3  1  0
  5  4  2  0
  6  7  2  0
  8  4  1  0
  9  6  1  0
  9 10  1  0
 10 14  1  0
 10 11  1  1
 12 11  1  0
 13 12  2  0
 14 17  1  0
 15 14  2  0
 16 12  1  0
 17 18  1  0
 18 19  1  6
 19 20  1  0
 20 24  1  0
 21 20  2  0
 22 25  1  0
 22 18  1  0
 23 22  2  0
M  END
$$$$
