FDH.pdb
     RDKit          3D

 30 31  0  0  1  0  0  0  0  0999 V2000
    6.1753  -16.9474   22.5241 N   0  0  0  0  0  0  0  0  0  0  0  0
    7.1321  -16.1485   23.2619 C   0  0  1  0  0  0  0  0  0  0  0  0
    6.8094  -16.0703   24.7254 C   0  0  0  0  0  0  0  0  0  0  0  0
    7.0590  -14.7362   25.3066 C   0  0  0  0  0  0  0  0  0  0  0  0
    6.2272  -14.2806   26.3096 C   0  0  0  0  0  0  0  0  0  0  0  0
    6.4353  -13.0397   26.8713 C   0  0  0  0  0  0  0  0  0  0  0  0
    7.4762  -12.2409   26.4371 C   0  0  0  0  0  0  0  0  0  0  0  0
    8.2875  -12.7105   25.4439 C   0  0  0  0  0  0  0  0  0  0  0  0
    8.1019  -13.9465   24.8653 C   0  0  0  0  0  0  0  0  0  0  0  0
    8.4892  -16.7632   23.1403 C   0  0  0  0  0  0  0  0  0  0  0  0
    8.4995  -18.0296   23.0121 O   0  0  0  0  0  0  0  0  0  0  0  0
    9.6494  -15.9785   23.1686 N   0  0  0  0  0  0  0  0  0  0  0  0
   10.9461  -16.5910   23.0974 C   0  0  1  0  0  0  0  0  0  0  0  0
   12.0130  -15.7247   22.5115 C   0  0  0  0  0  0  0  0  0  0  0  0
   13.2427  -16.5116   22.2943 C   0  0  0  0  0  0  0  0  0  0  0  0
   13.2766  -17.6700   21.8181 O   0  0  0  0  0  0  0  0  0  0  0  0
   11.3734  -17.1102   24.4392 C   0  0  0  0  0  0  0  0  0  0  0  0
   12.4918  -17.6712   24.5431 O   0  0  0  0  0  0  0  0  0  0  0  0
   14.4770  -15.9233   22.6464 O   0  0  0  0  0  0  0  0  0  0  0  0
   10.5535  -16.9867   25.5928 N   0  0  0  0  0  0  0  0  0  0  0  0
   11.0054  -17.4822   26.9011 C   0  0  1  0  0  0  0  0  0  0  0  0
   10.0693  -16.8942   27.9650 C   0  0  0  0  0  0  0  0  0  0  0  0
   10.1653  -15.4163   27.9506 C   0  0  0  0  0  0  0  0  0  0  0  0
   10.9694  -14.6547   27.1302 C   0  0  0  0  0  0  0  0  0  0  0  0
   10.7555  -13.3666   27.4383 N   0  0  0  0  0  0  0  0  0  0  0  0
    9.8509  -13.3047   28.4168 C   0  0  0  0  0  0  0  0  0  0  0  0
    9.4989  -14.5651   28.7200 N   0  0  0  0  0  0  0  0  0  0  0  0
   10.8737  -18.9583   26.8977 C   0  0  0  0  0  0  0  0  0  0  0  0
   10.4219  -19.5824   25.8802 O   0  0  0  0  0  0  0  0  0  0  0  0
   11.2312  -19.7252   27.9886 O   0  0  0  0  0  0  0  0  0  0  0  0
  2  1  1  6
  2 10  1  0
  3  2  1  0
  3  4  1  0
  4  5  2  0
  4  9  1  0
  5  6  1  0
  6  7  2  0
  8  7  1  0
  9  8  2  0
 10 11  2  0
 12 10  1  0
 12 13  1  0
 13 17  1  0
 13 14  1  1
 14 15  1  0
 15 16  2  0
 17 18  2  0
 19 15  1  0
 20 21  1  0
 20 17  1  0
 21 28  1  0
 21 22  1  1
 23 22  1  0
 24 23  2  0
 25 24  1  0
 26 25  1  0
 26 27  2  0
 27 23  1  0
 28 29  2  0
 28 30  1  0
M  END
$$$$
