FDH.pdb
     RDKit          3D

 30 31  0  0  1  0  0  0  0  0999 V2000
    6.3880  -16.7876   24.4435 N   0  0  0  0  0  0  0  0  0  0  0  0
    7.5182  -15.9251   24.1661 C   0  0  1  0  0  0  0  0  0  0  0  0
    7.9232  -15.1064   25.3569 C   0  0  0  0  0  0  0  0  0  0  0  0
    7.0693  -13.9202   25.5659 C   0  0  0  0  0  0  0  0  0  0  0  0
    7.3037  -12.7894   24.8098 C   0  0  0  0  0  0  0  0  0  0  0  0
    6.5233  -11.6670   24.9826 C   0  0  0  0  0  0  0  0  0  0  0  0
    5.5006  -11.6623   25.9122 C   0  0  0  0  0  0  0  0  0  0  0  0
    5.2854  -12.7913   26.6499 C   0  0  0  0  0  0  0  0  0  0  0  0
    6.0503  -13.9264   26.4975 C   0  0  0  0  0  0  0  0  0  0  0  0
    8.6967  -16.7607   23.7823 C   0  0  0  0  0  0  0  0  0  0  0  0
    8.5359  -18.0163   23.9168 O   0  0  0  0  0  0  0  0  0  0  0  0
    9.8804  -16.1779   23.3114 N   0  0  0  0  0  0  0  0  0  0  0  0
   10.9544  -16.9981   22.8261 C   0  0  1  0  0  0  0  0  0  0  0  0
   11.6095  -16.4944   21.5814 C   0  0  0  0  0  0  0  0  0  0  0  0
   10.7382  -16.7385   20.4153 C   0  0  0  0  0  0  0  0  0  0  0  0
    9.9741  -17.7231   20.2862 O   0  0  0  0  0  0  0  0  0  0  0  0
   11.9795  -17.2359   23.8962 C   0  0  0  0  0  0  0  0  0  0  0  0
   12.9487  -17.9944   23.6481 O   0  0  0  0  0  0  0  0  0  0  0  0
   10.7607  -15.7980   19.3625 O   0  0  0  0  0  0  0  0  0  0  0  0
   11.8874  -16.6304   25.1781 N   0  0  0  0  0  0  0  0  0  0  0  0
   12.8017  -17.0116   26.2644 C   0  0  1  0  0  0  0  0  0  0  0  0
   11.9780  -17.0809   27.5569 C   0  0  0  0  0  0  0  0  0  0  0  0
   11.4198  -15.7438   27.8638 C   0  0  0  0  0  0  0  0  0  0  0  0
   11.5642  -14.6013   27.1064 C   0  0  0  0  0  0  0  0  0  0  0  0
   10.9073  -13.6147   27.7350 N   0  0  0  0  0  0  0  0  0  0  0  0
   10.3637  -14.1047   28.8503 C   0  0  0  0  0  0  0  0  0  0  0  0
   10.6851  -15.4074   28.9163 N   0  0  0  0  0  0  0  0  0  0  0  0
   13.3379  -18.3581   25.9550 C   0  0  0  0  0  0  0  0  0  0  0  0
   14.3997  -18.7944   26.5129 O   0  0  0  0  0  0  0  0  0  0  0  0
   12.7184  -19.2007   25.0537 O   0  0  0  0  0  0  0  0  0  0  0  0
  2  1  1  1
  2 10  1  0
  3  2  1  0
  3  4  1  0
  4  5  2  0
  4  9  1  0
  5  6  1  0
  6  7  2  0
  8  7  1  0
  9  8  2  0
 10 11  2  0
 12 10  1  0
 12 13  1  0
 13 17  1  0
 13 14  1  6
 14 15  1  0
 15 16  2  0
 17 18  2  0
 19 15  1  0
 20 21  1  0
 20 17  1  0
 21 28  1  0
 21 22  1  1
 23 22  1  0
 24 23  2  0
 25 24  1  0
 26 25  1  0
 26 27  2  0
 27 23  1  0
 28 29  2  0
 28 30  1  0
M  END
$$$$
