FDH.pdb
     RDKit          3D

 30 31  0  0  1  0  0  0  0  0999 V2000
    7.4073  -15.1655   20.6626 N   0  0  0  0  0  0  0  0  0  0  0  0
    7.7753  -14.6043   21.9462 C   0  0  1  0  0  0  0  0  0  0  0  0
    6.5938  -14.4172   22.8524 C   0  0  0  0  0  0  0  0  0  0  0  0
    6.9614  -13.9240   24.1946 C   0  0  0  0  0  0  0  0  0  0  0  0
    6.6462  -14.6937   25.2962 C   0  0  0  0  0  0  0  0  0  0  0  0
    6.9765  -14.2595   26.5615 C   0  0  0  0  0  0  0  0  0  0  0  0
    7.6251  -13.0522   26.7399 C   0  0  0  0  0  0  0  0  0  0  0  0
    7.9279  -12.3060   25.6368 C   0  0  0  0  0  0  0  0  0  0  0  0
    7.6093  -12.7162   24.3613 C   0  0  0  0  0  0  0  0  0  0  0  0
    8.7219  -15.5307   22.6389 C   0  0  0  0  0  0  0  0  0  0  0  0
    8.3624  -16.7516   22.6639 O   0  0  0  0  0  0  0  0  0  0  0  0
    9.9119  -15.0622   23.2108 N   0  0  0  0  0  0  0  0  0  0  0  0
   10.8716  -15.9818   23.7539 C   0  0  1  0  0  0  0  0  0  0  0  0
   12.2943  -15.5429   23.6302 C   0  0  0  0  0  0  0  0  0  0  0  0
   13.0951  -16.5968   22.9773 C   0  0  0  0  0  0  0  0  0  0  0  0
   12.7495  -17.7965   22.8714 O   0  0  0  0  0  0  0  0  0  0  0  0
   10.5510  -16.3180   25.1811 C   0  0  0  0  0  0  0  0  0  0  0  0
   10.6336  -15.4145   26.0490 O   0  0  0  0  0  0  0  0  0  0  0  0
   14.3448  -16.2356   22.4284 O   0  0  0  0  0  0  0  0  0  0  0  0
   10.1579  -17.6238   25.5794 N   0  0  0  0  0  0  0  0  0  0  0  0
    9.8586  -17.9298   26.9859 C   0  0  1  0  0  0  0  0  0  0  0  0
    8.7598  -19.0004   27.0007 C   0  0  0  0  0  0  0  0  0  0  0  0
    7.5909  -18.5250   26.2252 C   0  0  0  0  0  0  0  0  0  0  0  0
    6.5251  -17.7985   26.7109 C   0  0  0  0  0  0  0  0  0  0  0  0
    5.6891  -17.5741   25.6858 N   0  0  0  0  0  0  0  0  0  0  0  0
    6.1984  -18.1339   24.5873 C   0  0  0  0  0  0  0  0  0  0  0  0
    7.3612  -18.7117   24.9318 N   0  0  0  0  0  0  0  0  0  0  0  0
   11.0876  -18.4837   27.6015 C   0  0  0  0  0  0  0  0  0  0  0  0
   12.1348  -18.7085   26.9073 O   0  0  0  0  0  0  0  0  0  0  0  0
   11.1587  -18.7817   28.9477 O   0  0  0  0  0  0  0  0  0  0  0  0
  2  1  1  6
  2 10  1  0
  3  2  1  0
  3  4  1  0
  4  5  2  0
  4  9  1  0
  5  6  1  0
  6  7  2  0
  8  7  1  0
  9  8  2  0
 10 11  2  0
 12 10  1  0
 12 13  1  0
 13 17  1  0
 13 14  1  1
 14 15  1  0
 15 16  2  0
 17 18  2  0
 19 15  1  0
 20 21  1  0
 20 17  1  0
 21 28  1  0
 21 22  1  6
 23 22  1  0
 24 23  2  0
 25 24  1  0
 26 25  1  0
 26 27  2  0
 27 23  1  0
 28 29  2  0
 28 30  1  0
M  END
$$$$
