FDH.pdb
     RDKit          3D

 30 31  0  0  1  0  0  0  0  0999 V2000
   11.3613  -14.9350   20.6484 N   0  0  0  0  0  0  0  0  0  0  0  0
   10.4635  -15.4128   21.6797 C   0  0  1  0  0  0  0  0  0  0  0  0
    9.0460  -15.5285   21.2002 C   0  0  0  0  0  0  0  0  0  0  0  0
    8.5670  -14.3195   20.5012 C   0  0  0  0  0  0  0  0  0  0  0  0
    7.2380  -14.2441   20.1360 C   0  0  0  0  0  0  0  0  0  0  0  0
    6.7618  -13.1285   19.4824 C   0  0  0  0  0  0  0  0  0  0  0  0
    7.6080  -12.0765   19.1867 C   0  0  0  0  0  0  0  0  0  0  0  0
    8.9192  -12.1711   19.5567 C   0  0  0  0  0  0  0  0  0  0  0  0
    9.4211  -13.2743   20.2107 C   0  0  0  0  0  0  0  0  0  0  0  0
   10.8943  -16.7748   22.1197 C   0  0  0  0  0  0  0  0  0  0  0  0
   10.0696  -17.3856   22.8729 O   0  0  0  0  0  0  0  0  0  0  0  0
   12.1223  -17.3157   21.7171 N   0  0  0  0  0  0  0  0  0  0  0  0
   12.6280  -18.5121   22.3291 C   0  0  1  0  0  0  0  0  0  0  0  0
   13.8585  -19.0671   21.6889 C   0  0  0  0  0  0  0  0  0  0  0  0
   14.1637  -20.3990   22.2469 C   0  0  0  0  0  0  0  0  0  0  0  0
   15.2982  -20.7748   22.6230 O   0  0  0  0  0  0  0  0  0  0  0  0
   12.8483  -18.3155   23.8006 C   0  0  0  0  0  0  0  0  0  0  0  0
   12.5889  -17.1964   24.3073 O   0  0  0  0  0  0  0  0  0  0  0  0
   13.1048  -21.3248   22.3698 O   0  0  0  0  0  0  0  0  0  0  0  0
   13.3400  -19.3540   24.6360 N   0  0  0  0  0  0  0  0  0  0  0  0
   13.0619  -19.3619   26.0797 C   0  0  1  0  0  0  0  0  0  0  0  0
   11.5443  -19.5034   26.2557 C   0  0  0  0  0  0  0  0  0  0  0  0
   11.2158  -19.5847   27.6976 C   0  0  0  0  0  0  0  0  0  0  0  0
   12.1032  -19.4861   28.7477 C   0  0  0  0  0  0  0  0  0  0  0  0
   11.4002  -19.6124   29.8833 N   0  0  0  0  0  0  0  0  0  0  0  0
   10.1140  -19.7850   29.5740 C   0  0  0  0  0  0  0  0  0  0  0  0
   10.0160  -19.7660   28.2344 N   0  0  0  0  0  0  0  0  0  0  0  0
   13.7332  -20.5463   26.6649 C   0  0  0  0  0  0  0  0  0  0  0  0
   13.6836  -21.6871   26.0948 O   0  0  0  0  0  0  0  0  0  0  0  0
   14.4407  -20.4734   27.8482 O   0  0  0  0  0  0  0  0  0  0  0  0
  2  1  1  6
  2 10  1  0
  3  2  1  0
  3  4  1  0
  4  5  2  0
  4  9  1  0
  5  6  1  0
  6  7  2  0
  8  7  1  0
  9  8  2  0
 10 11  2  0
 12 10  1  0
 12 13  1  0
 13 17  1  0
 13 14  1  6
 14 15  1  0
 15 16  2  0
 17 18  2  0
 19 15  1  0
 20 21  1  0
 20 17  1  0
 21 28  1  0
 21 22  1  6
 23 22  1  0
 24 23  2  0
 25 24  1  0
 26 25  1  0
 26 27  2  0
 27 23  1  0
 28 29  2  0
 28 30  1  0
M  END
$$$$
