FDH.pdb
     RDKit          3D

 30 31  0  0  1  0  0  0  0  0999 V2000
    8.1085  -17.2276   19.7240 N   0  0  0  0  0  0  0  0  0  0  0  0
    9.4196  -16.6256   19.8530 C   0  0  1  0  0  0  0  0  0  0  0  0
    9.4391  -15.4952   20.8400 C   0  0  0  0  0  0  0  0  0  0  0  0
    8.7207  -14.2956   20.3660 C   0  0  0  0  0  0  0  0  0  0  0  0
    9.3475  -13.4556   19.4676 C   0  0  0  0  0  0  0  0  0  0  0  0
    8.7022  -12.3285   19.0075 C   0  0  0  0  0  0  0  0  0  0  0  0
    7.4241  -12.0285   19.4396 C   0  0  0  0  0  0  0  0  0  0  0  0
    6.8219  -12.8726   20.3285 C   0  0  0  0  0  0  0  0  0  0  0  0
    7.4440  -14.0055   20.8043 C   0  0  0  0  0  0  0  0  0  0  0  0
   10.3910  -17.6530   20.3379 C   0  0  0  0  0  0  0  0  0  0  0  0
    9.9093  -18.5169   21.1393 O   0  0  0  0  0  0  0  0  0  0  0  0
   11.7294  -17.6425   19.9241 N   0  0  0  0  0  0  0  0  0  0  0  0
   12.7120  -18.4309   20.6130 C   0  0  1  0  0  0  0  0  0  0  0  0
   14.0272  -18.5388   19.9123 C   0  0  0  0  0  0  0  0  0  0  0  0
   13.8415  -19.1334   18.5742 C   0  0  0  0  0  0  0  0  0  0  0  0
   13.2928  -20.2376   18.3514 O   0  0  0  0  0  0  0  0  0  0  0  0
   12.9079  -17.9435   22.0189 C   0  0  0  0  0  0  0  0  0  0  0  0
   13.6552  -16.9544   22.2180 O   0  0  0  0  0  0  0  0  0  0  0  0
   14.3140  -18.4116   17.4566 O   0  0  0  0  0  0  0  0  0  0  0  0
   12.2753  -18.5651   23.1287 N   0  0  0  0  0  0  0  0  0  0  0  0
   12.3890  -17.9997   24.4811 C   0  0  1  0  0  0  0  0  0  0  0  0
   11.0596  -18.2585   25.2020 C   0  0  0  0  0  0  0  0  0  0  0  0
    9.9869  -17.4547   24.5721 C   0  0  0  0  0  0  0  0  0  0  0  0
   10.1493  -16.4800   23.6111 C   0  0  0  0  0  0  0  0  0  0  0  0
    8.9323  -16.0004   23.3131 N   0  0  0  0  0  0  0  0  0  0  0  0
    8.0262  -16.6416   24.0530 C   0  0  0  0  0  0  0  0  0  0  0  0
    8.6851  -17.5278   24.8180 N   0  0  0  0  0  0  0  0  0  0  0  0
   13.4745  -18.7221   25.1854 C   0  0  0  0  0  0  0  0  0  0  0  0
   14.0680  -19.7162   24.6483 O   0  0  0  0  0  0  0  0  0  0  0  0
   13.8937  -18.3568   26.4491 O   0  0  0  0  0  0  0  0  0  0  0  0
  2  1  1  1
  2 10  1  0
  3  2  1  0
  3  4  1  0
  4  5  2  0
  4  9  1  0
  5  6  1  0
  6  7  2  0
  8  7  1  0
  9  8  2  0
 10 11  2  0
 12 10  1  0
 12 13  1  0
 13 17  1  0
 13 14  1  6
 14 15  1  0
 15 16  2  0
 17 18  2  0
 19 15  1  0
 20 21  1  0
 20 17  1  0
 21 28  1  0
 21 22  1  1
 23 22  1  0
 24 23  2  0
 25 24  1  0
 26 25  1  0
 26 27  2  0
 27 23  1  0
 28 29  2  0
 28 30  1  0
M  END
$$$$
