FDH.pdb
     RDKit          3D

 30 31  0  0  1  0  0  0  0  0999 V2000
    6.0723  -16.2660   23.0228 N   0  0  0  0  0  0  0  0  0  0  0  0
    7.1501  -15.7709   22.1913 C   0  0  1  0  0  0  0  0  0  0  0  0
    7.3637  -14.2935   22.3455 C   0  0  0  0  0  0  0  0  0  0  0  0
    7.3915  -13.8528   23.7543 C   0  0  0  0  0  0  0  0  0  0  0  0
    7.7493  -12.5500   24.0375 C   0  0  0  0  0  0  0  0  0  0  0  0
    7.7844  -12.1098   25.3428 C   0  0  0  0  0  0  0  0  0  0  0  0
    7.4625  -12.9661   26.3788 C   0  0  0  0  0  0  0  0  0  0  0  0
    7.1112  -14.2509   26.0770 C   0  0  0  0  0  0  0  0  0  0  0  0
    7.0680  -14.7166   24.7816 C   0  0  0  0  0  0  0  0  0  0  0  0
    8.4260  -16.4454   22.5805 C   0  0  0  0  0  0  0  0  0  0  0  0
    8.3121  -17.3414   23.4775 O   0  0  0  0  0  0  0  0  0  0  0  0
    9.6452  -16.0969   21.9848 N   0  0  0  0  0  0  0  0  0  0  0  0
   10.8690  -16.7134   22.4136 C   0  0  1  0  0  0  0  0  0  0  0  0
   12.0074  -16.5700   21.4567 C   0  0  0  0  0  0  0  0  0  0  0  0
   11.7900  -17.4304   20.2774 C   0  0  0  0  0  0  0  0  0  0  0  0
   11.5504  -18.6594   20.3222 O   0  0  0  0  0  0  0  0  0  0  0  0
   11.2691  -16.2307   23.7773 C   0  0  0  0  0  0  0  0  0  0  0  0
   11.4664  -15.0030   23.9510 O   0  0  0  0  0  0  0  0  0  0  0  0
   11.8549  -16.8328   18.9998 O   0  0  0  0  0  0  0  0  0  0  0  0
   11.4309  -17.1179   24.8750 N   0  0  0  0  0  0  0  0  0  0  0  0
   11.4033  -16.6242   26.2595 C   0  0  1  0  0  0  0  0  0  0  0  0
    9.9915  -16.0875   26.5293 C   0  0  0  0  0  0  0  0  0  0  0  0
    9.9464  -15.4559   27.8682 C   0  0  0  0  0  0  0  0  0  0  0  0
   10.2293  -14.1397   28.1640 C   0  0  0  0  0  0  0  0  0  0  0  0
   10.0692  -13.9799   29.4864 N   0  0  0  0  0  0  0  0  0  0  0  0
    9.6988  -15.1464   30.0171 C   0  0  0  0  0  0  0  0  0  0  0  0
    9.6277  -16.0397   29.0163 N   0  0  0  0  0  0  0  0  0  0  0  0
   11.6678  -17.7737   27.1568 C   0  0  0  0  0  0  0  0  0  0  0  0
   11.0929  -18.8995   26.9808 O   0  0  0  0  0  0  0  0  0  0  0  0
   12.5436  -17.6827   28.2201 O   0  0  0  0  0  0  0  0  0  0  0  0
  2  1  1  1
  2 10  1  0
  3  2  1  0
  3  4  1  0
  4  5  2  0
  4  9  1  0
  5  6  1  0
  6  7  2  0
  8  7  1  0
  9  8  2  0
 10 11  2  0
 12 10  1  0
 12 13  1  0
 13 17  1  0
 13 14  1  6
 14 15  1  0
 15 16  2  0
 17 18  2  0
 19 15  1  0
 20 21  1  0
 20 17  1  0
 21 28  1  0
 21 22  1  1
 23 22  1  0
 24 23  2  0
 25 24  1  0
 26 25  1  0
 26 27  2  0
 27 23  1  0
 28 29  2  0
 28 30  1  0
M  END
$$$$
