FDH.pdb
     RDKit          3D

 30 31  0  0  1  0  0  0  0  0999 V2000
    5.6787  -16.6312   23.6972 N   0  0  0  0  0  0  0  0  0  0  0  0
    7.0055  -16.0861   23.8984 C   0  0  1  0  0  0  0  0  0  0  0  0
    7.2498  -15.6772   25.3216 C   0  0  0  0  0  0  0  0  0  0  0  0
    7.0963  -14.2260   25.5454 C   0  0  0  0  0  0  0  0  0  0  0  0
    6.0098  -13.7748   26.2675 C   0  0  0  0  0  0  0  0  0  0  0  0
    5.8398  -12.4261   26.4926 C   0  0  0  0  0  0  0  0  0  0  0  0
    6.7531  -11.5139   25.9987 C   0  0  0  0  0  0  0  0  0  0  0  0
    7.8209  -11.9810   25.2869 C   0  0  0  0  0  0  0  0  0  0  0  0
    8.0147  -13.3234   25.0474 C   0  0  0  0  0  0  0  0  0  0  0  0
    8.0248  -17.1240   23.5551 C   0  0  0  0  0  0  0  0  0  0  0  0
    7.8686  -17.6808   22.4210 O   0  0  0  0  0  0  0  0  0  0  0  0
    9.0665  -17.4413   24.4364 N   0  0  0  0  0  0  0  0  0  0  0  0
   10.4065  -17.6133   23.9500 C   0  0  1  0  0  0  0  0  0  0  0  0
   10.8717  -16.5451   23.0147 C   0  0  0  0  0  0  0  0  0  0  0  0
   12.2013  -16.8887   22.4736 C   0  0  0  0  0  0  0  0  0  0  0  0
   12.6756  -18.0472   22.4220 O   0  0  0  0  0  0  0  0  0  0  0  0
   11.3770  -17.7738   25.0835 C   0  0  0  0  0  0  0  0  0  0  0  0
   12.6059  -17.8056   24.8283 O   0  0  0  0  0  0  0  0  0  0  0  0
   13.0051  -15.8405   21.9751 O   0  0  0  0  0  0  0  0  0  0  0  0
   10.9492  -17.8903   26.4332 N   0  0  0  0  0  0  0  0  0  0  0  0
   11.9217  -18.0006   27.5303 C   0  0  1  0  0  0  0  0  0  0  0  0
   11.3693  -17.2013   28.7177 C   0  0  0  0  0  0  0  0  0  0  0  0
   10.8958  -15.8781   28.2501 C   0  0  0  0  0  0  0  0  0  0  0  0
   10.9644  -15.3906   26.9627 C   0  0  0  0  0  0  0  0  0  0  0  0
   10.4285  -14.1607   26.9678 N   0  0  0  0  0  0  0  0  0  0  0  0
   10.0322  -13.8713   28.2082 C   0  0  0  0  0  0  0  0  0  0  0  0
   10.3241  -14.9302   28.9816 N   0  0  0  0  0  0  0  0  0  0  0  0
   12.0198  -19.4301   27.9081 C   0  0  0  0  0  0  0  0  0  0  0  0
   11.3686  -20.3296   27.2788 O   0  0  0  0  0  0  0  0  0  0  0  0
   12.8156  -19.8557   28.9529 O   0  0  0  0  0  0  0  0  0  0  0  0
  2  1  1  1
  2 10  1  0
  3  2  1  0
  3  4  1  0
  4  5  2  0
  4  9  1  0
  5  6  1  0
  6  7  2  0
  8  7  1  0
  9  8  2  0
 10 11  2  0
 12 10  1  0
 12 13  1  0
 13 17  1  0
 13 14  1  1
 14 15  1  0
 15 16  2  0
 17 18  2  0
 19 15  1  0
 20 21  1  0
 20 17  1  0
 21 28  1  0
 21 22  1  1
 23 22  1  0
 24 23  2  0
 25 24  1  0
 26 25  1  0
 26 27  2  0
 27 23  1  0
 28 29  2  0
 28 30  1  0
M  END
$$$$
