FDH.pdb
     RDKit          3D

 30 31  0  0  1  0  0  0  0  0999 V2000
    7.2560  -16.6378   26.2512 N   0  0  0  0  0  0  0  0  0  0  0  0
    6.9519  -16.0143   24.9797 C   0  0  1  0  0  0  0  0  0  0  0  0
    7.6842  -14.7190   24.7842 C   0  0  0  0  0  0  0  0  0  0  0  0
    7.2246  -13.6475   25.6901 C   0  0  0  0  0  0  0  0  0  0  0  0
    6.2357  -12.7875   25.2564 C   0  0  0  0  0  0  0  0  0  0  0  0
    5.7865  -11.7779   26.0795 C   0  0  0  0  0  0  0  0  0  0  0  0
    6.3200  -11.6166   27.3442 C   0  0  0  0  0  0  0  0  0  0  0  0
    7.2974  -12.4781   27.7538 C   0  0  0  0  0  0  0  0  0  0  0  0
    7.7646  -13.4954   26.9516 C   0  0  0  0  0  0  0  0  0  0  0  0
    7.3630  -16.9268   23.8695 C   0  0  0  0  0  0  0  0  0  0  0  0
    8.1007  -17.9039   24.2180 O   0  0  0  0  0  0  0  0  0  0  0  0
    6.9515  -16.6996   22.5498 N   0  0  0  0  0  0  0  0  0  0  0  0
    7.2018  -17.6780   21.5290 C   0  0  1  0  0  0  0  0  0  0  0  0
    6.0500  -17.9293   20.6112 C   0  0  0  0  0  0  0  0  0  0  0  0
    6.3774  -19.0217   19.6742 C   0  0  0  0  0  0  0  0  0  0  0  0
    7.1985  -19.9398   19.9038 O   0  0  0  0  0  0  0  0  0  0  0  0
    8.4323  -17.3350   20.7411 C   0  0  0  0  0  0  0  0  0  0  0  0
    8.3095  -17.0290   19.5296 O   0  0  0  0  0  0  0  0  0  0  0  0
    5.7214  -19.0418   18.4241 O   0  0  0  0  0  0  0  0  0  0  0  0
    9.7286  -17.3458   21.3222 N   0  0  0  0  0  0  0  0  0  0  0  0
   10.6473  -16.2113   21.1479 C   0  0  1  0  0  0  0  0  0  0  0  0
   10.0054  -14.9910   21.8209 C   0  0  0  0  0  0  0  0  0  0  0  0
    9.2942  -14.1796   20.8063 C   0  0  0  0  0  0  0  0  0  0  0  0
    9.2194  -14.4385   19.4546 C   0  0  0  0  0  0  0  0  0  0  0  0
    8.4845  -13.4643   18.8971 N   0  0  0  0  0  0  0  0  0  0  0  0
    8.1034  -12.6151   19.8527 C   0  0  0  0  0  0  0  0  0  0  0  0
    8.6055  -13.0648   21.0147 N   0  0  0  0  0  0  0  0  0  0  0  0
   11.9137  -16.5417   21.8431 C   0  0  0  0  0  0  0  0  0  0  0  0
   12.8435  -17.1902   21.2567 O   0  0  0  0  0  0  0  0  0  0  0  0
   12.1475  -16.1661   23.1509 O   0  0  0  0  0  0  0  0  0  0  0  0
  2  1  1  1
  2 10  1  0
  3  2  1  0
  3  4  1  0
  4  5  2  0
  4  9  1  0
  5  6  1  0
  6  7  2  0
  8  7  1  0
  9  8  2  0
 10 11  2  0
 12 10  1  0
 12 13  1  0
 13 17  1  0
 13 14  1  6
 14 15  1  0
 15 16  2  0
 17 18  2  0
 19 15  1  0
 20 21  1  0
 20 17  1  0
 21 28  1  0
 21 22  1  1
 23 22  1  0
 24 23  2  0
 25 24  1  0
 26 25  1  0
 26 27  2  0
 27 23  1  0
 28 29  2  0
 28 30  1  0
M  END
$$$$
