FDH.pdb
     RDKit          3D

 30 31  0  0  1  0  0  0  0  0999 V2000
    7.0882  -14.4313   21.2090 N   0  0  0  0  0  0  0  0  0  0  0  0
    7.6546  -14.2754   22.5330 C   0  0  1  0  0  0  0  0  0  0  0  0
    6.6426  -13.8151   23.5411 C   0  0  0  0  0  0  0  0  0  0  0  0
    7.2319  -13.5078   24.8595 C   0  0  0  0  0  0  0  0  0  0  0  0
    6.6650  -14.0644   25.9884 C   0  0  0  0  0  0  0  0  0  0  0  0
    7.1930  -13.7958   27.2324 C   0  0  0  0  0  0  0  0  0  0  0  0
    8.2925  -12.9686   27.3621 C   0  0  0  0  0  0  0  0  0  0  0  0
    8.8382  -12.4282   26.2329 C   0  0  0  0  0  0  0  0  0  0  0  0
    8.3305  -12.6800   24.9776 C   0  0  0  0  0  0  0  0  0  0  0  0
    8.1815  -15.5923   23.0046 C   0  0  0  0  0  0  0  0  0  0  0  0
    7.2952  -16.4716   23.2532 O   0  0  0  0  0  0  0  0  0  0  0  0
    9.5566  -15.8154   23.1534 N   0  0  0  0  0  0  0  0  0  0  0  0
   10.0535  -17.1271   23.4607 C   0  0  1  0  0  0  0  0  0  0  0  0
   10.9131  -17.7322   22.3990 C   0  0  0  0  0  0  0  0  0  0  0  0
   10.2835  -17.5564   21.0757 C   0  0  0  0  0  0  0  0  0  0  0  0
   10.6069  -16.6809   20.2397 O   0  0  0  0  0  0  0  0  0  0  0  0
   10.7678  -17.1393   24.7807 C   0  0  0  0  0  0  0  0  0  0  0  0
   11.9458  -17.5710   24.8275 O   0  0  0  0  0  0  0  0  0  0  0  0
    9.2386  -18.4354   20.7167 O   0  0  0  0  0  0  0  0  0  0  0  0
   10.1535  -16.6784   25.9760 N   0  0  0  0  0  0  0  0  0  0  0  0
   10.8756  -16.6994   27.2565 C   0  0  1  0  0  0  0  0  0  0  0  0
   11.8973  -15.5552   27.2280 C   0  0  0  0  0  0  0  0  0  0  0  0
   13.1844  -16.0504   26.6877 C   0  0  0  0  0  0  0  0  0  0  0  0
   13.4636  -17.3389   26.2859 C   0  0  0  0  0  0  0  0  0  0  0  0
   14.7368  -17.3630   25.8637 N   0  0  0  0  0  0  0  0  0  0  0  0
   15.2531  -16.1394   25.9897 C   0  0  0  0  0  0  0  0  0  0  0  0
   14.2929  -15.3472   26.4946 N   0  0  0  0  0  0  0  0  0  0  0  0
    9.8922  -16.4483   28.3363 C   0  0  0  0  0  0  0  0  0  0  0  0
   10.0919  -16.8643   29.5263 O   0  0  0  0  0  0  0  0  0  0  0  0
    8.7195  -15.7563   28.1087 O   0  0  0  0  0  0  0  0  0  0  0  0
  2  1  1  6
  2 10  1  0
  3  2  1  0
  3  4  1  0
  4  5  2  0
  4  9  1  0
  5  6  1  0
  6  7  2  0
  8  7  1  0
  9  8  2  0
 10 11  2  0
 12 10  1  0
 12 13  1  0
 13 17  1  0
 13 14  1  6
 14 15  1  0
 15 16  2  0
 17 18  2  0
 19 15  1  0
 20 21  1  0
 20 17  1  0
 21 28  1  0
 21 22  1  6
 23 22  1  0
 24 23  2  0
 25 24  1  0
 26 25  1  0
 26 27  2  0
 27 23  1  0
 28 29  2  0
 28 30  1  0
M  END
$$$$
