FDH.pdb
     RDKit          3D

 30 31  0  0  1  0  0  0  0  0999 V2000
    8.6891  -17.3563   19.2576 N   0  0  0  0  0  0  0  0  0  0  0  0
    9.5720  -16.6955   20.1967 C   0  0  1  0  0  0  0  0  0  0  0  0
    8.8553  -15.6918   21.0517 C   0  0  0  0  0  0  0  0  0  0  0  0
    8.5107  -14.4513   20.3291 C   0  0  0  0  0  0  0  0  0  0  0  0
    9.5147  -13.5503   20.0366 C   0  0  0  0  0  0  0  0  0  0  0  0
    9.2237  -12.3839   19.3632 C   0  0  0  0  0  0  0  0  0  0  0  0
    7.9269  -12.1051   18.9750 C   0  0  0  0  0  0  0  0  0  0  0  0
    6.9484  -13.0097   19.2741 C   0  0  0  0  0  0  0  0  0  0  0  0
    7.2117  -14.1828   19.9459 C   0  0  0  0  0  0  0  0  0  0  0  0
   10.1693  -17.7126   21.1149 C   0  0  0  0  0  0  0  0  0  0  0  0
    9.7046  -18.8913   20.9917 O   0  0  0  0  0  0  0  0  0  0  0  0
   11.1672  -17.3662   22.0351 N   0  0  0  0  0  0  0  0  0  0  0  0
   11.6555  -18.3314   22.9794 C   0  0  1  0  0  0  0  0  0  0  0  0
   13.0870  -18.7163   22.7931 C   0  0  0  0  0  0  0  0  0  0  0  0
   13.9000  -17.5195   22.5015 C   0  0  0  0  0  0  0  0  0  0  0  0
   14.5248  -16.8523   23.3584 O   0  0  0  0  0  0  0  0  0  0  0  0
   11.4161  -17.8773   24.3898 C   0  0  0  0  0  0  0  0  0  0  0  0
   12.0747  -16.9044   24.8324 O   0  0  0  0  0  0  0  0  0  0  0  0
   13.9858  -17.0871   21.1602 O   0  0  0  0  0  0  0  0  0  0  0  0
   10.4696  -18.5129   25.2374 N   0  0  0  0  0  0  0  0  0  0  0  0
   10.2686  -18.0619   26.6222 C   0  0  1  0  0  0  0  0  0  0  0  0
    8.7581  -17.9053   26.8411 C   0  0  0  0  0  0  0  0  0  0  0  0
    8.2469  -16.7928   26.0077 C   0  0  0  0  0  0  0  0  0  0  0  0
    8.9712  -15.7157   25.5440 C   0  0  0  0  0  0  0  0  0  0  0  0
    8.1362  -14.9447   24.8311 N   0  0  0  0  0  0  0  0  0  0  0  0
    6.9254  -15.5047   24.8374 C   0  0  0  0  0  0  0  0  0  0  0  0
    7.0078  -16.6339   25.5604 N   0  0  0  0  0  0  0  0  0  0  0  0
   10.7849  -19.1189   27.5234 C   0  0  0  0  0  0  0  0  0  0  0  0
   10.6767  -19.0218   28.7914 O   0  0  0  0  0  0  0  0  0  0  0  0
   11.4045  -20.2531   27.0378 O   0  0  0  0  0  0  0  0  0  0  0  0
  2  1  1  6
  2 10  1  0
  3  2  1  0
  3  4  1  0
  4  5  2  0
  4  9  1  0
  5  6  1  0
  6  7  2  0
  8  7  1  0
  9  8  2  0
 10 11  2  0
 12 10  1  0
 12 13  1  0
 13 17  1  0
 13 14  1  1
 14 15  1  0
 15 16  2  0
 17 18  2  0
 19 15  1  0
 20 21  1  0
 20 17  1  0
 21 28  1  0
 21 22  1  1
 23 22  1  0
 24 23  2  0
 25 24  1  0
 26 25  1  0
 26 27  2  0
 27 23  1  0
 28 29  2  0
 28 30  1  0
M  END
$$$$
