QYM.pdb
     RDKit          3D

 30 30  0  0  1  0  0  0  0  0999 V2000
   21.2422  -22.9759  -16.5280 N   0  0  0  0  0  0  0  0  0  0  0  0
   20.1931  -22.1394  -16.0458 C   0  0  0  0  0  0  0  0  0  0  0  0
   19.0463  -22.6377  -16.0839 O   0  0  0  0  0  0  0  0  0  0  0  0
   20.3819  -20.7980  -15.5331 C   0  0  0  0  0  0  0  0  0  0  0  0
   21.7371  -20.2748  -15.3275 C   0  0  0  0  0  0  0  0  0  0  0  0
   22.5816  -20.8880  -14.2664 C   0  0  2  0  0  0  0  0  0  0  0  0
   22.0815  -20.8331  -12.9347 N   0  0  0  0  0  0  0  0  0  0  0  0
   23.9873  -20.4055  -14.3222 C   0  0  0  0  0  0  0  0  0  0  0  0
   24.2405  -19.1547  -14.3975 O   0  0  0  0  0  0  0  0  0  0  0  0
   24.6155  -19.8786   -8.2238 O   0  0  0  0  0  0  0  0  0  0  0  0
   25.2488  -20.1991   -9.4088 C   0  0  0  0  0  0  0  0  0  0  0  0
   26.1357  -19.3187   -9.9618 C   0  0  0  0  0  0  0  0  0  0  0  0
   26.7617  -19.6640  -11.1569 C   0  0  0  0  0  0  0  0  0  0  0  0
   26.5052  -20.8671  -11.7868 C   0  0  0  0  0  0  0  0  0  0  0  0
   27.1667  -21.2216  -13.0493 C   0  0  0  0  0  0  0  0  0  0  0  0
   26.4524  -20.6921  -14.2692 C   0  0  2  0  0  0  0  0  0  0  0  0
   25.0963  -21.2774  -14.2945 N   0  0  0  0  0  0  0  0  0  0  0  0
   27.1298  -21.1437  -15.5350 C   0  0  0  0  0  0  0  0  0  0  0  0
   27.0053  -22.3385  -15.9388 O   0  0  0  0  0  0  0  0  0  0  0  0
   25.5966  -21.7155  -11.1754 C   0  0  0  0  0  0  0  0  0  0  0  0
   24.9575  -21.4078   -9.9923 C   0  0  0  0  0  0  0  0  0  0  0  0
   23.7389  -22.3777  -19.5660 C   0  0  0  0  0  0  0  0  0  0  0  0
   24.7905  -21.1797  -20.4502 S   0  0  0  0  0  0  0  0  0  0  0  0
   26.3451  -20.8679  -19.7121 C   0  0  0  0  0  0  0  0  0  0  0  0
   26.5725  -20.7107  -18.2792 C   0  0  0  0  0  0  0  0  0  0  0  0
   27.9454  -20.4903  -17.8036 C   0  0  2  0  0  0  0  0  0  0  0  0
   27.9155  -20.2745  -16.3098 N   0  0  0  0  0  0  0  0  0  0  0  0
   28.3385  -19.0766  -18.2139 C   0  0  0  0  0  0  0  0  0  0  0  0
   28.1689  -18.1726  -17.3113 O   0  0  0  0  0  0  0  0  0  0  0  0
   28.8296  -18.7003  -19.4016 O   0  0  0  0  0  0  0  0  0  0  0  0
  1  2  1  0
  2  4  1  0
  3  2  2  0
  4  5  1  0
  6  5  1  0
  6  7  1  1
  8  6  1  0
  9  8  2  0
 10 11  1  0
 11 21  2  0
 12 13  2  0
 12 11  1  0
 13 14  1  0
 14 15  1  0
 14 20  2  0
 16 15  1  1
 16 18  1  0
 16 17  1  0
 17  8  1  0
 18 19  2  0
 21 20  1  0
 22 23  1  0
 23 24  1  0
 25 24  1  0
 26 25  1  6
 27 26  1  0
 27 18  1  0
 28 30  1  0
 28 26  1  0
 29 28  2  0
M  END
$$$$
