QYM.pdb
     RDKit          3D

 30 30  0  0  1  0  0  0  0  0999 V2000
   27.5929  -23.1726  -16.6359 N   0  0  0  0  0  0  0  0  0  0  0  0
   28.6112  -22.2596  -16.2327 C   0  0  0  0  0  0  0  0  0  0  0  0
   29.6776  -22.7817  -15.8392 O   0  0  0  0  0  0  0  0  0  0  0  0
   28.4782  -20.8175  -16.2576 C   0  0  0  0  0  0  0  0  0  0  0  0
   27.7127  -20.1328  -15.2099 C   0  0  0  0  0  0  0  0  0  0  0  0
   26.2434  -20.3596  -15.1408 C   0  0  2  0  0  0  0  0  0  0  0  0
   25.4533  -19.7741  -16.1700 N   0  0  0  0  0  0  0  0  0  0  0  0
   25.6897  -20.0323  -13.7999 C   0  0  0  0  0  0  0  0  0  0  0  0
   25.4726  -18.8172  -13.4674 O   0  0  0  0  0  0  0  0  0  0  0  0
   19.2337  -17.9542  -13.3769 O   0  0  0  0  0  0  0  0  0  0  0  0
   20.2571  -18.7636  -12.9236 C   0  0  0  0  0  0  0  0  0  0  0  0
   20.9794  -19.5050  -13.8159 C   0  0  0  0  0  0  0  0  0  0  0  0
   22.0062  -20.3136  -13.3351 C   0  0  0  0  0  0  0  0  0  0  0  0
   22.3046  -20.3794  -11.9873 C   0  0  0  0  0  0  0  0  0  0  0  0
   23.3866  -21.2381  -11.4883 C   0  0  0  0  0  0  0  0  0  0  0  0
   24.7494  -20.5945  -11.5724 C   0  0  2  0  0  0  0  0  0  0  0  0
   25.3775  -21.0187  -12.8403 N   0  0  0  0  0  0  0  0  0  0  0  0
   25.6511  -21.0839  -10.4713 C   0  0  0  0  0  0  0  0  0  0  0  0
   26.0003  -22.3012  -10.4206 O   0  0  0  0  0  0  0  0  0  0  0  0
   21.5359  -19.6039  -11.1347 C   0  0  0  0  0  0  0  0  0  0  0  0
   20.5115  -18.7914  -11.5742 C   0  0  0  0  0  0  0  0  0  0  0  0
   27.8760  -17.5101   -4.7687 C   0  0  0  0  0  0  0  0  0  0  0  0
   28.8935  -18.9681   -5.1706 S   0  0  0  0  0  0  0  0  0  0  0  0
   28.1496  -20.1169   -6.2596 C   0  0  0  0  0  0  0  0  0  0  0  0
   27.5094  -19.7736   -7.5253 C   0  0  0  0  0  0  0  0  0  0  0  0
   26.8746  -20.8440   -8.3069 C   0  0  2  0  0  0  0  0  0  0  0  0
   26.1361  -20.2266   -9.4698 N   0  0  0  0  0  0  0  0  0  0  0  0
   25.6628  -21.3174   -7.5139 C   0  0  0  0  0  0  0  0  0  0  0  0
   25.9296  -21.9798   -6.4411 O   0  0  0  0  0  0  0  0  0  0  0  0
   24.3771  -21.1129   -7.8277 O   0  0  0  0  0  0  0  0  0  0  0  0
  1  2  1  0
  2  4  1  0
  3  2  2  0
  4  5  1  0
  6  5  1  0
  6  7  1  6
  8  6  1  0
  9  8  2  0
 10 11  1  0
 11 21  2  0
 12 13  2  0
 12 11  1  0
 13 14  1  0
 14 15  1  0
 14 20  2  0
 16 15  1  1
 16 18  1  0
 16 17  1  0
 17  8  1  0
 18 19  2  0
 21 20  1  0
 22 23  1  0
 23 24  1  0
 25 24  1  0
 26 25  1  1
 27 26  1  0
 27 18  1  0
 28 30  1  0
 28 26  1  0
 29 28  2  0
M  END
$$$$
