QYM.pdb
     RDKit          3D

 30 30  0  0  1  0  0  0  0  0999 V2000
   33.9722   -6.2993  -16.4090 N   0  0  0  0  0  0  0  0  0  0  0  0
   32.5495   -6.3456  -16.4893 C   0  0  0  0  0  0  0  0  0  0  0  0
   31.9490   -6.3815  -15.3924 O   0  0  0  0  0  0  0  0  0  0  0  0
   31.7962   -6.3504  -17.7265 C   0  0  0  0  0  0  0  0  0  0  0  0
   30.8578   -7.4419  -18.0102 C   0  0  0  0  0  0  0  0  0  0  0  0
   31.3979   -8.8199  -18.1666 C   0  0  2  0  0  0  0  0  0  0  0  0
   32.3158   -9.0336  -19.2335 N   0  0  0  0  0  0  0  0  0  0  0  0
   30.3196   -9.8441  -18.1854 C   0  0  0  0  0  0  0  0  0  0  0  0
   29.6437  -10.0540  -19.2500 O   0  0  0  0  0  0  0  0  0  0  0  0
   25.2569  -16.7481  -16.1249 O   0  0  0  0  0  0  0  0  0  0  0  0
   26.2205  -15.7585  -16.1398 C   0  0  0  0  0  0  0  0  0  0  0  0
   27.1732  -15.7563  -17.1194 C   0  0  0  0  0  0  0  0  0  0  0  0
   28.1343  -14.7485  -17.1136 C   0  0  0  0  0  0  0  0  0  0  0  0
   28.1422  -13.7619  -16.1459 C   0  0  0  0  0  0  0  0  0  0  0  0
   29.1621  -12.7050  -16.1447 C   0  0  0  0  0  0  0  0  0  0  0  0
   28.9293  -11.6466  -17.1956 C   0  0  2  0  0  0  0  0  0  0  0  0
   29.9884  -10.6260  -17.0585 N   0  0  0  0  0  0  0  0  0  0  0  0
   27.6242  -10.9323  -16.9685 C   0  0  0  0  0  0  0  0  0  0  0  0
   27.5340  -10.0231  -16.0903 O   0  0  0  0  0  0  0  0  0  0  0  0
   27.1499  -13.8199  -15.1809 C   0  0  0  0  0  0  0  0  0  0  0  0
   26.1819  -14.8023  -15.1547 C   0  0  0  0  0  0  0  0  0  0  0  0
   21.5996   -6.9554  -19.7501 C   0  0  0  0  0  0  0  0  0  0  0  0
   23.1318   -7.9003  -20.0375 S   0  0  0  0  0  0  0  0  0  0  0  0
   23.6915   -8.8421  -18.6742 C   0  0  0  0  0  0  0  0  0  0  0  0
   24.9103   -9.6446  -18.6580 C   0  0  0  0  0  0  0  0  0  0  0  0
   25.2275  -10.4198  -17.4505 C   0  0  2  0  0  0  0  0  0  0  0  0
   26.4698  -11.2378  -17.7083 N   0  0  0  0  0  0  0  0  0  0  0  0
   24.2284  -11.5680  -17.3818 C   0  0  0  0  0  0  0  0  0  0  0  0
   24.5696  -12.6354  -18.0182 O   0  0  0  0  0  0  0  0  0  0  0  0
   23.0548  -11.5641  -16.7368 O   0  0  0  0  0  0  0  0  0  0  0  0
  1  2  1  0
  2  4  1  0
  3  2  2  0
  4  5  1  0
  6  5  1  0
  6  7  1  6
  8  6  1  0
  9  8  2  0
 10 11  1  0
 11 21  2  0
 12 13  2  0
 12 11  1  0
 13 14  1  0
 14 15  1  0
 14 20  2  0
 16 15  1  1
 16 18  1  0
 16 17  1  0
 17  8  1  0
 18 19  2  0
 21 20  1  0
 22 23  1  0
 23 24  1  0
 25 24  1  0
 26 25  1  6
 27 26  1  0
 27 18  1  0
 28 30  1  0
 28 26  1  0
 29 28  2  0
M  END
$$$$
