QYM.pdb
     RDKit          3D

 30 30  0  0  1  0  0  0  0  0999 V2000
   18.1301  -13.8672  -13.8565 N   0  0  0  0  0  0  0  0  0  0  0  0
   17.4684  -14.7294  -14.7793 C   0  0  0  0  0  0  0  0  0  0  0  0
   17.9460  -15.8814  -14.8775 O   0  0  0  0  0  0  0  0  0  0  0  0
   16.3168  -14.3539  -15.5736 C   0  0  0  0  0  0  0  0  0  0  0  0
   15.6636  -13.0589  -15.3528 C   0  0  0  0  0  0  0  0  0  0  0  0
   14.8749  -12.8649  -14.1056 C   0  0  2  0  0  0  0  0  0  0  0  0
   13.6878  -13.6384  -13.9686 N   0  0  0  0  0  0  0  0  0  0  0  0
   14.6027  -11.4282  -13.8341 C   0  0  0  0  0  0  0  0  0  0  0  0
   13.5405  -10.8744  -14.2805 O   0  0  0  0  0  0  0  0  0  0  0  0
    9.8292  -10.2496   -9.4403 O   0  0  0  0  0  0  0  0  0  0  0  0
   11.0920   -9.9506   -9.9136 C   0  0  0  0  0  0  0  0  0  0  0  0
   12.0795  -10.8931   -9.8494 C   0  0  0  0  0  0  0  0  0  0  0  0
   13.3446  -10.5684  -10.3327 C   0  0  0  0  0  0  0  0  0  0  0  0
   13.6165   -9.3245  -10.8700 C   0  0  0  0  0  0  0  0  0  0  0  0
   14.9547   -8.9889  -11.3737 C   0  0  0  0  0  0  0  0  0  0  0  0
   15.1056   -9.2009  -12.8606 C   0  0  2  0  0  0  0  0  0  0  0  0
   15.4775  -10.6127  -13.0855 N   0  0  0  0  0  0  0  0  0  0  0  0
   16.2341   -8.3744  -13.4161 C   0  0  0  0  0  0  0  0  0  0  0  0
   17.4378   -8.6727  -13.1546 O   0  0  0  0  0  0  0  0  0  0  0  0
   12.5731   -8.4138  -10.9066 C   0  0  0  0  0  0  0  0  0  0  0  0
   11.3078   -8.6995  -10.4376 C   0  0  0  0  0  0  0  0  0  0  0  0
   17.8309   -6.0998  -19.7924 C   0  0  0  0  0  0  0  0  0  0  0  0
   17.6838   -4.7646  -18.5600 S   0  0  0  0  0  0  0  0  0  0  0  0
   17.8426   -5.2701  -16.8933 C   0  0  0  0  0  0  0  0  0  0  0  0
   16.8648   -6.0751  -16.1682 C   0  0  0  0  0  0  0  0  0  0  0  0
   17.2044   -6.5502  -14.8196 C   0  0  2  0  0  0  0  0  0  0  0  0
   16.0050   -7.2561  -14.2348 N   0  0  0  0  0  0  0  0  0  0  0  0
   17.2011   -5.3328  -13.9034 C   0  0  0  0  0  0  0  0  0  0  0  0
   18.2042   -4.5356  -14.0413 O   0  0  0  0  0  0  0  0  0  0  0  0
   16.2721   -5.0281  -12.9884 O   0  0  0  0  0  0  0  0  0  0  0  0
  1  2  1  0
  2  4  1  0
  3  2  2  0
  4  5  1  0
  6  5  1  0
  6  7  1  6
  8  6  1  0
  9  8  2  0
 10 11  1  0
 11 21  2  0
 12 13  2  0
 12 11  1  0
 13 14  1  0
 14 15  1  0
 14 20  2  0
 16 15  1  1
 16 18  1  0
 16 17  1  0
 17  8  1  0
 18 19  2  0
 21 20  1  0
 22 23  1  0
 23 24  1  0
 25 24  1  0
 26 25  1  6
 27 26  1  0
 27 18  1  0
 28 30  1  0
 28 26  1  0
 29 28  2  0
M  END
$$$$
