QYM.pdb
     RDKit          3D

 30 30  0  0  1  0  0  0  0  0999 V2000
   27.6577  -24.5086  -19.7196 N   0  0  0  0  0  0  0  0  0  0  0  0
   28.8773  -23.7701  -19.7241 C   0  0  0  0  0  0  0  0  0  0  0  0
   29.4820  -23.7355  -20.8187 O   0  0  0  0  0  0  0  0  0  0  0  0
   29.4267  -23.0844  -18.5726 C   0  0  0  0  0  0  0  0  0  0  0  0
   28.6692  -23.0355  -17.3171 C   0  0  0  0  0  0  0  0  0  0  0  0
   27.7972  -21.8573  -17.0593 C   0  0  2  0  0  0  0  0  0  0  0  0
   28.3977  -20.5729  -17.1858 N   0  0  0  0  0  0  0  0  0  0  0  0
   27.0675  -21.9736  -15.7686 C   0  0  0  0  0  0  0  0  0  0  0  0
   26.3846  -23.0209  -15.5024 O   0  0  0  0  0  0  0  0  0  0  0  0
   24.1955  -20.6849   -7.5524 O   0  0  0  0  0  0  0  0  0  0  0  0
   24.8603  -20.6112   -8.7609 C   0  0  0  0  0  0  0  0  0  0  0  0
   24.3934  -21.3164   -9.8343 C   0  0  0  0  0  0  0  0  0  0  0  0
   25.0805  -21.2263  -11.0422 C   0  0  0  0  0  0  0  0  0  0  0  0
   26.2133  -20.4456  -11.1737 C   0  0  0  0  0  0  0  0  0  0  0  0
   26.9344  -20.3595  -12.4503 C   0  0  0  0  0  0  0  0  0  0  0  0
   26.2884  -21.1557  -13.5582 C   0  0  2  0  0  0  0  0  0  0  0  0
   27.0867  -20.9613  -14.7858 N   0  0  0  0  0  0  0  0  0  0  0  0
   24.9090  -20.6388  -13.8665 C   0  0  0  0  0  0  0  0  0  0  0  0
   24.7573  -19.5585  -14.5115 O   0  0  0  0  0  0  0  0  0  0  0  0
   26.6352  -19.7556  -10.0489 C   0  0  0  0  0  0  0  0  0  0  0  0
   25.9806  -19.8203   -8.8365 C   0  0  0  0  0  0  0  0  0  0  0  0
   17.8128  -21.7411  -16.7418 C   0  0  0  0  0  0  0  0  0  0  0  0
   19.4708  -22.3795  -16.3338 S   0  0  0  0  0  0  0  0  0  0  0  0
   20.3971  -21.3907  -15.2279 C   0  0  0  0  0  0  0  0  0  0  0  0
   21.7680  -21.6655  -14.8102 C   0  0  0  0  0  0  0  0  0  0  0  0
   22.4135  -20.7465  -13.8623 C   0  0  2  0  0  0  0  0  0  0  0  0
   23.7503  -21.3207  -13.4595 N   0  0  0  0  0  0  0  0  0  0  0  0
   21.7011  -20.9108  -12.5256 C   0  0  0  0  0  0  0  0  0  0  0  0
   21.9290  -22.0206  -11.9115 O   0  0  0  0  0  0  0  0  0  0  0  0
   20.8772  -20.0264  -11.9490 O   0  0  0  0  0  0  0  0  0  0  0  0
  1  2  1  0
  2  4  1  0
  3  2  2  0
  4  5  1  0
  6  5  1  0
  6  7  1  1
  8  6  1  0
  9  8  2  0
 10 11  1  0
 11 21  2  0
 12 13  2  0
 12 11  1  0
 13 14  1  0
 14 15  1  0
 14 20  2  0
 16 15  1  1
 16 18  1  0
 16 17  1  0
 17  8  1  0
 18 19  2  0
 21 20  1  0
 22 23  1  0
 23 24  1  0
 25 24  1  0
 26 25  1  6
 27 26  1  0
 27 18  1  0
 28 30  1  0
 28 26  1  0
 29 28  2  0
M  END
$$$$
