QYM.pdb
     RDKit          3D

 30 30  0  0  1  0  0  0  0  0999 V2000
   29.0883  -19.7562  -17.7303 N   0  0  0  0  0  0  0  0  0  0  0  0
   29.6997  -18.4689  -17.7718 C   0  0  0  0  0  0  0  0  0  0  0  0
   30.5791  -18.3183  -18.6486 O   0  0  0  0  0  0  0  0  0  0  0  0
   29.3651  -17.3717  -16.8873 C   0  0  0  0  0  0  0  0  0  0  0  0
   28.3233  -17.5419  -15.8684 C   0  0  0  0  0  0  0  0  0  0  0  0
   27.0615  -18.2320  -16.2513 C   0  0  2  0  0  0  0  0  0  0  0  0
   26.3154  -17.6613  -17.3208 N   0  0  0  0  0  0  0  0  0  0  0  0
   26.1866  -18.4898  -15.0765 C   0  0  0  0  0  0  0  0  0  0  0  0
   25.6246  -17.5200  -14.4619 O   0  0  0  0  0  0  0  0  0  0  0  0
   19.4404  -21.3537  -10.5823 O   0  0  0  0  0  0  0  0  0  0  0  0
   20.5243  -21.2438  -11.4314 C   0  0  0  0  0  0  0  0  0  0  0  0
   21.5532  -22.1380  -11.3349 C   0  0  0  0  0  0  0  0  0  0  0  0
   22.6352  -22.0068  -12.2017 C   0  0  0  0  0  0  0  0  0  0  0  0
   22.6869  -21.0000  -13.1471 C   0  0  0  0  0  0  0  0  0  0  0  0
   23.8339  -20.8664  -14.0547 C   0  0  0  0  0  0  0  0  0  0  0  0
   24.9122  -19.9514  -13.5268 C   0  0  2  0  0  0  0  0  0  0  0  0
   25.9303  -19.7872  -14.5845 N   0  0  0  0  0  0  0  0  0  0  0  0
   25.6216  -20.5681  -12.3514 C   0  0  0  0  0  0  0  0  0  0  0  0
   26.3481  -21.5949  -12.5064 O   0  0  0  0  0  0  0  0  0  0  0  0
   21.6130  -20.1262  -13.1942 C   0  0  0  0  0  0  0  0  0  0  0  0
   20.5246  -20.2249  -12.3525 C   0  0  0  0  0  0  0  0  0  0  0  0
   28.9780  -18.4404   -6.7509 C   0  0  0  0  0  0  0  0  0  0  0  0
   27.6633  -19.6093   -6.2733 S   0  0  0  0  0  0  0  0  0  0  0  0
   26.9665  -20.5239   -7.5912 C   0  0  0  0  0  0  0  0  0  0  0  0
   26.5951  -19.9682   -8.8884 C   0  0  0  0  0  0  0  0  0  0  0  0
   26.0361  -20.8684   -9.9066 C   0  0  2  0  0  0  0  0  0  0  0  0
   25.5108  -20.0403  -11.0543 N   0  0  0  0  0  0  0  0  0  0  0  0
   24.6980  -21.3671   -9.3755 C   0  0  0  0  0  0  0  0  0  0  0  0
   23.6832  -20.6211   -9.6484 O   0  0  0  0  0  0  0  0  0  0  0  0
   24.4898  -22.4831   -8.6653 O   0  0  0  0  0  0  0  0  0  0  0  0
  1  2  1  0
  2  4  1  0
  3  2  2  0
  4  5  1  0
  6  5  1  0
  6  7  1  6
  8  6  1  0
  9  8  2  0
 10 11  1  0
 11 21  2  0
 12 13  2  0
 12 11  1  0
 13 14  1  0
 14 15  1  0
 14 20  2  0
 16 15  1  6
 16 18  1  0
 16 17  1  0
 17  8  1  0
 18 19  2  0
 21 20  1  0
 22 23  1  0
 23 24  1  0
 25 24  1  0
 26 25  1  1
 27 26  1  0
 27 18  1  0
 28 30  1  0
 28 26  1  0
 29 28  2  0
M  END
$$$$
