QYM.pdb
     RDKit          3D

 30 30  0  0  1  0  0  0  0  0999 V2000
   28.5906  -19.1990  -18.8469 N   0  0  0  0  0  0  0  0  0  0  0  0
   27.4671  -18.3256  -18.7596 C   0  0  0  0  0  0  0  0  0  0  0  0
   27.7267  -17.1045  -18.8403 O   0  0  0  0  0  0  0  0  0  0  0  0
   26.0968  -18.7640  -18.5917 C   0  0  0  0  0  0  0  0  0  0  0  0
   25.4904  -18.7819  -17.2559 C   0  0  0  0  0  0  0  0  0  0  0  0
   25.8660  -19.8767  -16.3202 C   0  0  2  0  0  0  0  0  0  0  0  0
   25.6414  -21.2096  -16.7667 N   0  0  0  0  0  0  0  0  0  0  0  0
   25.2949  -19.6720  -14.9623 C   0  0  0  0  0  0  0  0  0  0  0  0
   25.2564  -18.5037  -14.4449 O   0  0  0  0  0  0  0  0  0  0  0  0
   18.9573  -18.4549  -16.1055 O   0  0  0  0  0  0  0  0  0  0  0  0
   19.8877  -19.0920  -15.3078 C   0  0  0  0  0  0  0  0  0  0  0  0
   20.0464  -18.7006  -14.0082 C   0  0  0  0  0  0  0  0  0  0  0  0
   20.9907  -19.3578  -13.2236 C   0  0  0  0  0  0  0  0  0  0  0  0
   21.7618  -20.3871  -13.7297 C   0  0  0  0  0  0  0  0  0  0  0  0
   22.7584  -21.0722  -12.8964 C   0  0  0  0  0  0  0  0  0  0  0  0
   24.1107  -20.4013  -12.9062 C   0  0  2  0  0  0  0  0  0  0  0  0
   24.7735  -20.7281  -14.1852 N   0  0  0  0  0  0  0  0  0  0  0  0
   24.9974  -20.9486  -11.8203 C   0  0  0  0  0  0  0  0  0  0  0  0
   25.2660  -22.1863  -11.7735 O   0  0  0  0  0  0  0  0  0  0  0  0
   21.5529  -20.7364  -15.0539 C   0  0  0  0  0  0  0  0  0  0  0  0
   20.6272  -20.1086  -15.8611 C   0  0  0  0  0  0  0  0  0  0  0  0
   28.1694  -17.3262   -6.8703 C   0  0  0  0  0  0  0  0  0  0  0  0
   28.0126  -19.0515   -6.3032 S   0  0  0  0  0  0  0  0  0  0  0  0
   27.1995  -20.1289   -7.4154 C   0  0  0  0  0  0  0  0  0  0  0  0
   26.7741  -19.7705   -8.7645 C   0  0  0  0  0  0  0  0  0  0  0  0
   26.0884  -20.7830   -9.5795 C   0  0  2  0  0  0  0  0  0  0  0  0
   25.5559  -20.1246  -10.8292 N   0  0  0  0  0  0  0  0  0  0  0  0
   24.7523  -21.0689   -8.9052 C   0  0  0  0  0  0  0  0  0  0  0  0
   24.7868  -21.9457   -7.9614 O   0  0  0  0  0  0  0  0  0  0  0  0
   23.5745  -20.5051   -9.2020 O   0  0  0  0  0  0  0  0  0  0  0  0
  1  2  1  0
  2  4  1  0
  3  2  2  0
  4  5  1  0
  6  5  1  0
  6  7  1  6
  8  6  1  0
  9  8  2  0
 10 11  1  0
 11 21  2  0
 12 13  2  0
 12 11  1  0
 13 14  1  0
 14 15  1  0
 14 20  2  0
 16 15  1  6
 16 18  1  0
 16 17  1  0
 17  8  1  0
 18 19  2  0
 21 20  1  0
 22 23  1  0
 23 24  1  0
 25 24  1  0
 26 25  1  1
 27 26  1  0
 27 18  1  0
 28 30  1  0
 28 26  1  0
 29 28  2  0
M  END
$$$$
