VCS.pdb
     RDKit          3D

 20 19  0  0  1  0  0  0  0  0999 V2000
    6.8321  -17.0844   22.4285 C   0  0  0  0  0  0  0  0  0  0  0  0
    7.6963  -16.5310   21.3226 C   0  0  1  0  0  0  0  0  0  0  0  0
    7.2235  -16.9931   19.9853 C   0  0  0  0  0  0  0  0  0  0  0  0
    7.8338  -15.0307   21.4300 C   0  0  2  0  0  0  0  0  0  0  0  0
    8.7252  -14.6044   20.3738 N   0  0  0  0  0  0  0  0  0  0  0  0
    8.3332  -14.5893   22.7380 C   0  0  0  0  0  0  0  0  0  0  0  0
    9.5175  -14.7748   23.1196 O   0  0  0  0  0  0  0  0  0  0  0  0
    7.4652  -13.9222   23.6306 N   0  0  0  0  0  0  0  0  0  0  0  0
    7.8367  -13.5674   24.9844 C   0  0  1  0  0  0  0  0  0  0  0  0
    6.7542  -12.7516   25.6697 C   0  0  0  0  0  0  0  0  0  0  0  0
    7.0919  -12.5009   27.4112 S   0  0  0  0  0  0  0  0  0  0  0  0
    8.0650  -14.8102   25.7557 C   0  0  0  0  0  0  0  0  0  0  0  0
    7.1453  -15.6528   25.8576 O   0  0  0  0  0  0  0  0  0  0  0  0
   10.6435  -18.3422   27.1674 O   0  0  0  0  0  0  0  0  0  0  0  0
   10.4245  -17.2075   26.3813 C   0  0  0  0  0  0  0  0  0  0  0  0
    9.5112  -16.2993   27.1940 C   0  0  2  0  0  0  0  0  0  0  0  0
    9.2937  -15.1072   26.4003 N   0  0  0  0  0  0  0  0  0  0  0  0
   10.1366  -15.9157   28.4770 C   0  0  0  0  0  0  0  0  0  0  0  0
   10.4378  -16.8644   29.4152 O   0  0  0  0  0  0  0  0  0  0  0  0
   10.3939  -14.7133   28.7098 O   0  0  0  0  0  0  0  0  0  0  0  0
  2  1  1  1
  3  2  1  0
  4  6  1  0
  4  2  1  0
  4  5  1  6
  6  7  2  0
  8  9  1  0
  8  6  1  0
  9 12  1  0
 10 11  1  0
  9 10  1  1
 12 13  2  0
 12 17  1  0
 14 15  1  0
 16 15  1  6
 16 18  1  0
 17 16  1  0
 18 20  2  0
 18 19  1  0
M  END
$$$$
