VCS.pdb
     RDKit          3D

 20 19  0  0  1  0  0  0  0  0999 V2000
    6.7467  -15.8905   21.1558 C   0  0  0  0  0  0  0  0  0  0  0  0
    7.3146  -14.7485   20.3499 C   0  0  1  0  0  0  0  0  0  0  0  0
    6.6305  -14.6266   19.0299 C   0  0  0  0  0  0  0  0  0  0  0  0
    7.3256  -13.4651   21.1461 C   0  0  2  0  0  0  0  0  0  0  0  0
    7.8935  -12.4393   20.2994 N   0  0  0  0  0  0  0  0  0  0  0  0
    8.0761  -13.5724   22.4032 C   0  0  0  0  0  0  0  0  0  0  0  0
    9.3328  -13.6015   22.4528 O   0  0  0  0  0  0  0  0  0  0  0  0
    7.3805  -13.6482   23.6303 N   0  0  0  0  0  0  0  0  0  0  0  0
    8.0378  -13.8416   24.9058 C   0  0  1  0  0  0  0  0  0  0  0  0
    7.2017  -13.3087   26.0564 C   0  0  0  0  0  0  0  0  0  0  0  0
    5.4702  -13.7396   25.8950 S   0  0  0  0  0  0  0  0  0  0  0  0
    8.2675  -15.2902   25.1072 C   0  0  0  0  0  0  0  0  0  0  0  0
    7.3118  -16.0898   24.9928 O   0  0  0  0  0  0  0  0  0  0  0  0
   11.9743  -16.6799   25.2245 O   0  0  0  0  0  0  0  0  0  0  0  0
   11.0081  -17.6456   24.9290 C   0  0  0  0  0  0  0  0  0  0  0  0
    9.7571  -17.2420   25.6980 C   0  0  2  0  0  0  0  0  0  0  0  0
    9.5372  -15.8356   25.4295 N   0  0  0  0  0  0  0  0  0  0  0  0
    9.9348  -17.4321   27.1529 C   0  0  0  0  0  0  0  0  0  0  0  0
   10.1309  -18.6822   27.6724 O   0  0  0  0  0  0  0  0  0  0  0  0
    9.9060  -16.4427   27.9187 O   0  0  0  0  0  0  0  0  0  0  0  0
  2  1  1  1
  3  2  1  0
  4  6  1  0
  4  2  1  0
  4  5  1  6
  6  7  2  0
  8  9  1  0
  8  6  1  0
  9 12  1  0
 10 11  1  0
  9 10  1  1
 12 13  2  0
 12 17  1  0
 14 15  1  0
 16 15  1  6
 16 18  1  0
 17 16  1  0
 18 20  2  0
 18 19  1  0
M  END
$$$$
