VCS.pdb
     RDKit          3D

 20 19  0  0  1  0  0  0  0  0999 V2000
   -5.1758  -25.8672   25.0477 C   0  0  0  0  0  0  0  0  0  0  0  0
   -4.0874  -26.9117   25.0259 C   0  0  1  0  0  0  0  0  0  0  0  0
   -3.5379  -27.0903   23.6505 C   0  0  0  0  0  0  0  0  0  0  0  0
   -3.0307  -26.6273   26.0670 C   0  0  2  0  0  0  0  0  0  0  0  0
   -2.0903  -27.7257   26.0356 N   0  0  0  0  0  0  0  0  0  0  0  0
   -3.5819  -26.4566   27.4168 C   0  0  0  0  0  0  0  0  0  0  0  0
   -4.0587  -27.4067   28.0895 O   0  0  0  0  0  0  0  0  0  0  0  0
   -3.5903  -25.1763   28.0135 N   0  0  0  0  0  0  0  0  0  0  0  0
   -4.2034  -24.9012   29.2960 C   0  0  1  0  0  0  0  0  0  0  0  0
   -3.1668  -24.5716   30.3562 C   0  0  0  0  0  0  0  0  0  0  0  0
   -3.9131  -24.0090   31.8848 S   0  0  0  0  0  0  0  0  0  0  0  0
   -5.1227  -23.7505   29.1462 C   0  0  0  0  0  0  0  0  0  0  0  0
   -4.7491  -22.7389   28.5113 O   0  0  0  0  0  0  0  0  0  0  0  0
   -8.8565  -21.7585   27.9330 O   0  0  0  0  0  0  0  0  0  0  0  0
   -7.8699  -22.7394   28.0675 C   0  0  0  0  0  0  0  0  0  0  0  0
   -7.3602  -22.6338   29.4987 C   0  0  2  0  0  0  0  0  0  0  0  0
   -6.4317  -23.7285   29.6934 N   0  0  0  0  0  0  0  0  0  0  0  0
   -8.4636  -22.7595   30.4739 C   0  0  0  0  0  0  0  0  0  0  0  0
   -9.2595  -21.6860   30.7661 O   0  0  0  0  0  0  0  0  0  0  0  0
   -8.6741  -23.8562   31.0387 O   0  0  0  0  0  0  0  0  0  0  0  0
  2  1  1  6
  3  2  1  0
  4  6  1  0
  4  2  1  0
  4  5  1  1
  6  7  2  0
  8  9  1  0
  8  6  1  0
  9 12  1  0
 10 11  1  0
  9 10  1  1
 12 13  2  0
 12 17  1  0
 14 15  1  0
 16 15  1  6
 16 18  1  0
 17 16  1  0
 18 20  2  0
 18 19  1  0
M  END
$$$$
