VCS.pdb
     RDKit          3D

 20 19  0  0  1  0  0  0  0  0999 V2000
    6.5944  -15.5218   21.0431 C   0  0  0  0  0  0  0  0  0  0  0  0
    7.4179  -14.4843   20.3209 C   0  0  1  0  0  0  0  0  0  0  0  0
    6.8782  -14.2212   18.9554 C   0  0  0  0  0  0  0  0  0  0  0  0
    7.5860  -13.2366   21.1554 C   0  0  2  0  0  0  0  0  0  0  0  0
    8.4608  -12.3460   20.4251 N   0  0  0  0  0  0  0  0  0  0  0  0
    8.1234  -13.5063   22.4946 C   0  0  0  0  0  0  0  0  0  0  0  0
    9.3345  -13.7712   22.7085 O   0  0  0  0  0  0  0  0  0  0  0  0
    7.2631  -13.4735   23.6145 N   0  0  0  0  0  0  0  0  0  0  0  0
    7.7062  -13.7482   24.9654 C   0  0  1  0  0  0  0  0  0  0  0  0
    6.6421  -13.3941   25.9897 C   0  0  0  0  0  0  0  0  0  0  0  0
    6.4830  -11.6245   26.2205 S   0  0  0  0  0  0  0  0  0  0  0  0
    8.0227  -15.1901   25.0777 C   0  0  0  0  0  0  0  0  0  0  0  0
    7.1339  -16.0387   24.8413 O   0  0  0  0  0  0  0  0  0  0  0  0
   11.7945  -16.4375   24.9789 O   0  0  0  0  0  0  0  0  0  0  0  0
   10.7935  -17.3408   24.6105 C   0  0  0  0  0  0  0  0  0  0  0  0
    9.6243  -17.0842   25.5519 C   0  0  2  0  0  0  0  0  0  0  0  0
    9.3042  -15.6754   25.4461 N   0  0  0  0  0  0  0  0  0  0  0  0
    9.9829  -17.3923   26.9522 C   0  0  0  0  0  0  0  0  0  0  0  0
   10.2753  -18.6742   27.3295 O   0  0  0  0  0  0  0  0  0  0  0  0
   10.0202  -16.4747   27.8023 O   0  0  0  0  0  0  0  0  0  0  0  0
  2  1  1  1
  3  2  1  0
  4  6  1  0
  4  2  1  0
  4  5  1  6
  6  7  2  0
  8  9  1  0
  8  6  1  0
  9 12  1  0
 10 11  1  0
  9 10  1  1
 12 13  2  0
 12 17  1  0
 14 15  1  0
 16 15  1  6
 16 18  1  0
 17 16  1  0
 18 20  2  0
 18 19  1  0
M  END
$$$$
