VCS.pdb
     RDKit          3D

 20 19  0  0  1  0  0  0  0  0999 V2000
    3.5152  -29.4878   23.2485 C   0  0  0  0  0  0  0  0  0  0  0  0
    2.5647  -28.6443   22.4355 C   0  0  1  0  0  0  0  0  0  0  0  0
    1.8615  -29.4634   21.4060 C   0  0  0  0  0  0  0  0  0  0  0  0
    1.6303  -27.8570   23.3235 C   0  0  2  0  0  0  0  0  0  0  0  0
    0.7845  -27.0629   22.4599 N   0  0  0  0  0  0  0  0  0  0  0  0
    2.3339  -27.0018   24.2870 C   0  0  0  0  0  0  0  0  0  0  0  0
    2.9550  -25.9594   23.9551 O   0  0  0  0  0  0  0  0  0  0  0  0
    2.3303  -27.3410   25.6582 N   0  0  0  0  0  0  0  0  0  0  0  0
    2.9393  -26.5180   26.6821 C   0  0  1  0  0  0  0  0  0  0  0  0
    1.9010  -25.7314   27.4633 C   0  0  0  0  0  0  0  0  0  0  0  0
    1.1229  -24.4596   26.4699 S   0  0  0  0  0  0  0  0  0  0  0  0
    3.6834  -27.3937   27.6155 C   0  0  0  0  0  0  0  0  0  0  0  0
    3.1408  -28.4324   28.0547 O   0  0  0  0  0  0  0  0  0  0  0  0
    7.3316  -26.2650   28.9192 O   0  0  0  0  0  0  0  0  0  0  0  0
    7.2279  -27.6467   28.7356 C   0  0  0  0  0  0  0  0  0  0  0  0
    5.7568  -27.9901   28.9282 C   0  0  2  0  0  0  0  0  0  0  0  0
    5.0055  -27.1167   28.0500 N   0  0  0  0  0  0  0  0  0  0  0  0
    5.3272  -27.7555   30.3227 C   0  0  0  0  0  0  0  0  0  0  0  0
    5.7642  -28.5693   31.3316 O   0  0  0  0  0  0  0  0  0  0  0  0
    4.5570  -26.8049   30.5860 O   0  0  0  0  0  0  0  0  0  0  0  0
  2  1  1  1
  3  2  1  0
  4  6  1  0
  4  2  1  0
  4  5  1  6
  6  7  2  0
  8  9  1  0
  8  6  1  0
  9 12  1  0
 10 11  1  0
  9 10  1  1
 12 13  2  0
 12 17  1  0
 14 15  1  0
 16 15  1  1
 16 18  1  0
 17 16  1  0
 18 20  2  0
 18 19  1  0
M  END
$$$$
