VCS.pdb
     RDKit          3D

 20 19  0  0  1  0  0  0  0  0999 V2000
    6.7407  -16.8322   19.9793 C   0  0  0  0  0  0  0  0  0  0  0  0
    7.3334  -16.5237   21.3320 C   0  0  1  0  0  0  0  0  0  0  0  0
    8.1769  -17.6523   21.8220 C   0  0  0  0  0  0  0  0  0  0  0  0
    8.0466  -15.1923   21.3296 C   0  0  2  0  0  0  0  0  0  0  0  0
    9.1422  -15.2937   20.3908 N   0  0  0  0  0  0  0  0  0  0  0  0
    8.5368  -14.7980   22.6559 C   0  0  0  0  0  0  0  0  0  0  0  0
    9.7052  -15.0378   23.0559 O   0  0  0  0  0  0  0  0  0  0  0  0
    7.6779  -14.1160   23.5461 N   0  0  0  0  0  0  0  0  0  0  0  0
    8.0435  -13.7869   24.9080 C   0  0  1  0  0  0  0  0  0  0  0  0
    7.0002  -12.9064   25.5737 C   0  0  0  0  0  0  0  0  0  0  0  0
    7.3556  -12.6230   27.3067 S   0  0  0  0  0  0  0  0  0  0  0  0
    8.1785  -15.0427   25.6803 C   0  0  0  0  0  0  0  0  0  0  0  0
    7.1876  -15.7948   25.8164 O   0  0  0  0  0  0  0  0  0  0  0  0
   11.5253  -17.0423   25.9420 O   0  0  0  0  0  0  0  0  0  0  0  0
   10.3048  -17.6551   26.2397 C   0  0  0  0  0  0  0  0  0  0  0  0
    9.5237  -16.6557   27.0825 C   0  0  2  0  0  0  0  0  0  0  0  0
    9.3937  -15.4511   26.2885 N   0  0  0  0  0  0  0  0  0  0  0  0
   10.2393  -16.3318   28.3345 C   0  0  0  0  0  0  0  0  0  0  0  0
   10.5942  -15.0418   28.6192 O   0  0  0  0  0  0  0  0  0  0  0  0
   10.5243  -17.2435   29.1430 O   0  0  0  0  0  0  0  0  0  0  0  0
  2  1  1  6
  3  2  1  0
  4  6  1  0
  4  2  1  0
  4  5  1  6
  6  7  2  0
  8  9  1  0
  8  6  1  0
  9 12  1  0
 10 11  1  0
  9 10  1  1
 12 13  2  0
 12 17  1  0
 14 15  1  0
 16 15  1  6
 16 18  1  0
 17 16  1  0
 18 20  2  0
 18 19  1  0
M  END
$$$$
