VCS.pdb
     RDKit          3D

 20 19  0  0  1  0  0  0  0  0999 V2000
    9.7330  -12.2222   19.5273 C   0  0  0  0  0  0  0  0  0  0  0  0
    8.7569  -13.3358   19.8157 C   0  0  1  0  0  0  0  0  0  0  0  0
    7.6275  -13.3298   18.8412 C   0  0  0  0  0  0  0  0  0  0  0  0
    9.4585  -14.6693   19.9200 C   0  0  2  0  0  0  0  0  0  0  0  0
    8.4511  -15.6622   20.2217 N   0  0  0  0  0  0  0  0  0  0  0  0
   10.5201  -14.6850   20.9337 C   0  0  0  0  0  0  0  0  0  0  0  0
   11.5903  -14.0338   20.8181 O   0  0  0  0  0  0  0  0  0  0  0  0
   10.3598  -15.4590   22.1044 N   0  0  0  0  0  0  0  0  0  0  0  0
   11.3592  -15.5361   23.1493 C   0  0  1  0  0  0  0  0  0  0  0  0
   10.8433  -16.2824   24.3675 C   0  0  0  0  0  0  0  0  0  0  0  0
    9.3203  -15.5818   24.9993 S   0  0  0  0  0  0  0  0  0  0  0  0
   12.5477  -16.2417   22.6190 C   0  0  0  0  0  0  0  0  0  0  0  0
   12.4253  -17.3980   22.1564 O   0  0  0  0  0  0  0  0  0  0  0  0
   15.6740  -14.5170   20.9209 O   0  0  0  0  0  0  0  0  0  0  0  0
   15.3608  -15.8711   20.7734 C   0  0  0  0  0  0  0  0  0  0  0  0
   15.0285  -16.3833   22.1686 C   0  0  2  0  0  0  0  0  0  0  0  0
   13.8460  -15.6694   22.6050 N   0  0  0  0  0  0  0  0  0  0  0  0
   16.1299  -16.1151   23.1170 C   0  0  0  0  0  0  0  0  0  0  0  0
   15.9367  -15.2928   24.1929 O   0  0  0  0  0  0  0  0  0  0  0  0
   17.2499  -16.6435   22.9368 O   0  0  0  0  0  0  0  0  0  0  0  0
  2  1  1  6
  3  2  1  0
  4  6  1  0
  4  2  1  0
  4  5  1  1
  6  7  2  0
  8  9  1  0
  8  6  1  0
  9 12  1  0
 10 11  1  0
  9 10  1  1
 12 13  2  0
 12 17  1  0
 14 15  1  0
 16 15  1  6
 16 18  1  0
 17 16  1  0
 18 20  2  0
 18 19  1  0
M  END
$$$$
