WGY.pdb
     RDKit          3D

 31 33  0  0  1  0  0  0  0  0999 V2000
   29.2618  -23.1313  -17.9794 N   0  0  0  0  0  0  0  0  0  0  0  0
   27.9726  -23.5882  -17.5729 C   0  0  1  0  0  0  0  0  0  0  0  0
   28.0500  -24.3781  -16.3197 C   0  0  0  0  0  0  0  0  0  0  0  0
   28.4782  -25.7569  -16.6141 C   0  0  0  0  0  0  0  0  0  0  0  0
   29.7487  -26.1610  -17.0007 C   0  0  0  0  0  0  0  0  0  0  0  0
   29.7752  -27.4909  -17.1514 N   0  0  0  0  0  0  0  0  0  0  0  0
   28.5639  -27.9840  -16.8783 C   0  0  0  0  0  0  0  0  0  0  0  0
   28.0670  -29.2794  -16.8915 C   0  0  0  0  0  0  0  0  0  0  0  0
   26.7741  -29.5665  -16.5825 C   0  0  0  0  0  0  0  0  0  0  0  0
   25.9482  -28.5026  -16.2466 C   0  0  0  0  0  0  0  0  0  0  0  0
   26.4300  -27.2110  -16.2296 C   0  0  0  0  0  0  0  0  0  0  0  0
   27.7312  -26.9096  -16.5380 C   0  0  0  0  0  0  0  0  0  0  0  0
   26.9661  -22.4937  -17.5168 C   0  0  0  0  0  0  0  0  0  0  0  0
   27.3288  -21.3999  -17.0182 O   0  0  0  0  0  0  0  0  0  0  0  0
   25.6387  -22.6408  -17.9972 N   0  0  0  0  0  0  0  0  0  0  0  0
   24.6165  -21.6325  -17.8150 C   0  0  0  0  0  0  0  0  0  0  0  0
   23.9728  -21.7244  -16.4872 C   0  0  0  0  0  0  0  0  0  0  0  0
   23.8471  -22.8140  -15.8704 O   0  0  0  0  0  0  0  0  0  0  0  0
   28.5776  -21.8161  -12.1069 O   0  0  0  0  0  0  0  0  0  0  0  0
   27.3287  -21.3120  -12.4593 C   0  0  0  0  0  0  0  0  0  0  0  0
   27.2324  -20.3350  -13.4360 C   0  0  0  0  0  0  0  0  0  0  0  0
   25.9932  -19.8130  -13.8077 C   0  0  0  0  0  0  0  0  0  0  0  0
   24.8452  -20.2657  -13.2043 C   0  0  0  0  0  0  0  0  0  0  0  0
   23.5319  -19.7509  -13.5578 C   0  0  0  0  0  0  0  0  0  0  0  0
   22.8060  -20.5461  -14.5918 C   0  0  2  0  0  0  0  0  0  0  0  0
   23.4748  -20.5514  -15.8754 N   0  0  0  0  0  0  0  0  0  0  0  0
   21.4236  -20.0592  -14.7468 C   0  0  0  0  0  0  0  0  0  0  0  0
   20.9864  -19.5659  -15.9778 O   0  0  0  0  0  0  0  0  0  0  0  0
   24.9659  -21.2377  -12.2358 C   0  0  0  0  0  0  0  0  0  0  0  0
   26.1880  -21.7562  -11.8655 C   0  0  0  0  0  0  0  0  0  0  0  0
   20.6366  -20.0876  -13.7704 O   0  0  0  0  0  0  0  0  0  0  0  0
  2  1  1  1
  2  3  1  0
  4  5  2  0
  4  3  1  0
  6  5  1  0
  7 12  2  0
  7  6  1  0
  8  7  1  0
  9 10  1  0
  9  8  2  0
 10 11  2  0
 11 12  1  0
 12  4  1  0
 13  2  1  0
 13 15  1  0
 14 13  2  0
 16 15  1  0
 17 16  1  0
 18 17  2  0
 19 20  1  0
 20 30  2  0
 20 21  1  0
 21 22  2  0
 22 23  1  0
 23 24  1  0
 25 24  1  1
 25 26  1  0
 25 27  1  0
 26 17  1  0
 27 28  1  0
 29 23  2  0
 30 29  1  0
 31 27  2  0
M  END
$$$$
