WGY.pdb
     RDKit          3D

 31 33  0  0  1  0  0  0  0  0999 V2000
   28.4643  -10.8514  -20.7469 N   0  0  0  0  0  0  0  0  0  0  0  0
   27.7468  -11.3686  -19.6272 C   0  0  1  0  0  0  0  0  0  0  0  0
   27.0498  -10.2885  -18.8868 C   0  0  0  0  0  0  0  0  0  0  0  0
   27.9061   -9.0919  -18.8089 C   0  0  0  0  0  0  0  0  0  0  0  0
   27.5424   -7.7945  -19.1430 C   0  0  0  0  0  0  0  0  0  0  0  0
   28.5675   -6.9639  -18.9168 N   0  0  0  0  0  0  0  0  0  0  0  0
   29.6009   -7.6665  -18.4441 C   0  0  0  0  0  0  0  0  0  0  0  0
   30.8808   -7.2891  -18.0642 C   0  0  0  0  0  0  0  0  0  0  0  0
   31.7990   -8.1835  -17.6098 C   0  0  0  0  0  0  0  0  0  0  0  0
   31.4098   -9.5138  -17.5358 C   0  0  0  0  0  0  0  0  0  0  0  0
   30.1408   -9.9014  -17.9100 C   0  0  0  0  0  0  0  0  0  0  0  0
   29.2067   -9.0091  -18.3684 C   0  0  0  0  0  0  0  0  0  0  0  0
   26.8547  -12.5028  -19.9900 C   0  0  0  0  0  0  0  0  0  0  0  0
   26.1171  -12.9697  -19.0876 O   0  0  0  0  0  0  0  0  0  0  0  0
   26.8102  -13.0631  -21.2934 N   0  0  0  0  0  0  0  0  0  0  0  0
   25.9045  -14.1293  -21.6643 C   0  0  0  0  0  0  0  0  0  0  0  0
   26.4253  -15.4602  -21.2862 C   0  0  0  0  0  0  0  0  0  0  0  0
   27.4375  -15.6073  -20.5533 O   0  0  0  0  0  0  0  0  0  0  0  0
   19.9805  -19.4081  -20.9275 O   0  0  0  0  0  0  0  0  0  0  0  0
   21.3467  -19.1984  -20.7617 C   0  0  0  0  0  0  0  0  0  0  0  0
   21.7926  -18.0775  -20.0818 C   0  0  0  0  0  0  0  0  0  0  0  0
   23.1562  -17.8437  -19.9019 C   0  0  0  0  0  0  0  0  0  0  0  0
   24.0795  -18.7299  -20.4011 C   0  0  0  0  0  0  0  0  0  0  0  0
   25.5104  -18.5278  -20.2392 C   0  0  0  0  0  0  0  0  0  0  0  0
   26.2018  -17.9643  -21.4361 C   0  0  2  0  0  0  0  0  0  0  0  0
   25.7712  -16.6208  -21.7592 N   0  0  0  0  0  0  0  0  0  0  0  0
   26.0212  -18.8450  -22.6040 C   0  0  0  0  0  0  0  0  0  0  0  0
   26.5643  -20.1313  -22.6045 O   0  0  0  0  0  0  0  0  0  0  0  0
   23.6122  -19.8375  -21.0736 C   0  0  0  0  0  0  0  0  0  0  0  0
   22.2662  -20.0724  -21.2537 C   0  0  0  0  0  0  0  0  0  0  0  0
   25.3777  -18.4385  -23.6011 O   0  0  0  0  0  0  0  0  0  0  0  0
  2  1  1  6
  2  3  1  0
  4  5  2  0
  4  3  1  0
  6  5  1  0
  7 12  2  0
  7  6  1  0
  8  7  1  0
  9 10  1  0
  9  8  2  0
 10 11  2  0
 11 12  1  0
 12  4  1  0
 13  2  1  0
 13 15  1  0
 14 13  2  0
 16 15  1  0
 17 16  1  0
 18 17  2  0
 19 20  1  0
 20 30  2  0
 20 21  1  0
 21 22  2  0
 22 23  1  0
 23 24  1  0
 25 24  1  1
 25 26  1  0
 25 27  1  0
 26 17  1  0
 27 28  1  0
 29 23  2  0
 30 29  1  0
 31 27  2  0
M  END
$$$$
