WGY.pdb
     RDKit          3D

 31 33  0  0  1  0  0  0  0  0999 V2000
   14.3331  -20.5945    3.8782 N   0  0  0  0  0  0  0  0  0  0  0  0
   15.2702  -19.6476    4.3893 C   0  0  1  0  0  0  0  0  0  0  0  0
   15.1191  -18.3279    3.7289 C   0  0  0  0  0  0  0  0  0  0  0  0
   16.2246  -18.1051    2.7806 C   0  0  0  0  0  0  0  0  0  0  0  0
   16.6851  -19.0012    1.8257 C   0  0  0  0  0  0  0  0  0  0  0  0
   17.6816  -18.4454    1.1257 N   0  0  0  0  0  0  0  0  0  0  0  0
   17.8991  -17.2095    1.5843 C   0  0  0  0  0  0  0  0  0  0  0  0
   18.8099  -16.2310    1.2129 C   0  0  0  0  0  0  0  0  0  0  0  0
   18.8695  -15.0201    1.8291 C   0  0  0  0  0  0  0  0  0  0  0  0
   17.9732  -14.7869    2.8630 C   0  0  0  0  0  0  0  0  0  0  0  0
   17.0632  -15.7510    3.2412 C   0  0  0  0  0  0  0  0  0  0  0  0
   16.9930  -16.9744    2.6270 C   0  0  0  0  0  0  0  0  0  0  0  0
   15.2538  -19.5669    5.8750 C   0  0  0  0  0  0  0  0  0  0  0  0
   14.1511  -19.7373    6.4510 O   0  0  0  0  0  0  0  0  0  0  0  0
   16.4168  -19.3095    6.6467 N   0  0  0  0  0  0  0  0  0  0  0  0
   16.3711  -18.9432    8.0461 C   0  0  0  0  0  0  0  0  0  0  0  0
   16.9107  -17.5878    8.2857 C   0  0  0  0  0  0  0  0  0  0  0  0
   16.9892  -17.0847    9.4365 O   0  0  0  0  0  0  0  0  0  0  0  0
   21.4494  -10.1533    7.2831 O   0  0  0  0  0  0  0  0  0  0  0  0
   20.8719  -11.4064    7.0981 C   0  0  0  0  0  0  0  0  0  0  0  0
   19.9756  -11.6039    6.0613 C   0  0  0  0  0  0  0  0  0  0  0  0
   19.3827  -12.8497    5.8540 C   0  0  0  0  0  0  0  0  0  0  0  0
   19.6838  -13.9031    6.6826 C   0  0  0  0  0  0  0  0  0  0  0  0
   19.0904  -15.2190    6.5064 C   0  0  0  0  0  0  0  0  0  0  0  0
   17.8637  -15.4659    7.3203 C   0  0  2  0  0  0  0  0  0  0  0  0
   17.3590  -16.8161    7.1894 N   0  0  0  0  0  0  0  0  0  0  0  0
   16.8069  -14.4982    6.9755 C   0  0  0  0  0  0  0  0  0  0  0  0
   16.9093  -13.1688    7.3901 O   0  0  0  0  0  0  0  0  0  0  0  0
   20.5781  -13.6827    7.7069 C   0  0  0  0  0  0  0  0  0  0  0  0
   21.1661  -12.4538    7.9154 C   0  0  0  0  0  0  0  0  0  0  0  0
   15.8121  -14.8691    6.3075 O   0  0  0  0  0  0  0  0  0  0  0  0
  2  1  1  6
  2  3  1  0
  4  5  2  0
  4  3  1  0
  6  5  1  0
  7 12  2  0
  7  6  1  0
  8  7  1  0
  9 10  1  0
  9  8  2  0
 10 11  2  0
 11 12  1  0
 12  4  1  0
 13  2  1  0
 13 15  1  0
 14 13  2  0
 16 15  1  0
 17 16  1  0
 18 17  2  0
 19 20  1  0
 20 30  2  0
 20 21  1  0
 21 22  2  0
 22 23  1  0
 23 24  1  0
 25 24  1  6
 25 26  1  0
 25 27  1  0
 26 17  1  0
 27 28  1  0
 29 23  2  0
 30 29  1  0
 31 27  2  0
M  END
$$$$
