WGY.pdb
     RDKit          3D

 31 33  0  0  1  0  0  0  0  0999 V2000
   19.9502  -21.0838  -15.7037 N   0  0  0  0  0  0  0  0  0  0  0  0
   21.1590  -21.5379  -16.3108 C   0  0  1  0  0  0  0  0  0  0  0  0
   22.2581  -20.5595  -16.1233 C   0  0  0  0  0  0  0  0  0  0  0  0
   21.8268  -19.2208  -16.5623 C   0  0  0  0  0  0  0  0  0  0  0  0
   21.5440  -18.1359  -15.7436 C   0  0  0  0  0  0  0  0  0  0  0  0
   21.2120  -17.0772  -16.4926 N   0  0  0  0  0  0  0  0  0  0  0  0
   21.2641  -17.4229  -17.7821 C   0  0  0  0  0  0  0  0  0  0  0  0
   21.0087  -16.7079  -18.9434 C   0  0  0  0  0  0  0  0  0  0  0  0
   21.1153  -17.2647  -20.1796 C   0  0  0  0  0  0  0  0  0  0  0  0
   21.4949  -18.5981  -20.2469 C   0  0  0  0  0  0  0  0  0  0  0  0
   21.7517  -19.3192  -19.1003 C   0  0  0  0  0  0  0  0  0  0  0  0
   21.6488  -18.7687  -17.8492 C   0  0  0  0  0  0  0  0  0  0  0  0
   21.5254  -22.9199  -15.8988 C   0  0  0  0  0  0  0  0  0  0  0  0
   22.5484  -23.4269  -16.4214 O   0  0  0  0  0  0  0  0  0  0  0  0
   20.7743  -23.6686  -14.9556 N   0  0  0  0  0  0  0  0  0  0  0  0
   21.0207  -25.0683  -14.6817 C   0  0  0  0  0  0  0  0  0  0  0  0
   20.0067  -25.6459  -13.7742 C   0  0  0  0  0  0  0  0  0  0  0  0
   20.0139  -26.8579  -13.4357 O   0  0  0  0  0  0  0  0  0  0  0  0
   17.6717  -24.8436   -5.5429 O   0  0  0  0  0  0  0  0  0  0  0  0
   18.1178  -24.7567   -6.8587 C   0  0  0  0  0  0  0  0  0  0  0  0
   17.7205  -23.6923   -7.6504 C   0  0  0  0  0  0  0  0  0  0  0  0
   18.1531  -23.5816   -8.9722 C   0  0  0  0  0  0  0  0  0  0  0  0
   18.9847  -24.5348   -9.5077 C   0  0  0  0  0  0  0  0  0  0  0  0
   19.4604  -24.4622  -10.8800 C   0  0  0  0  0  0  0  0  0  0  0  0
   18.4796  -24.9219  -11.9070 C   0  0  2  0  0  0  0  0  0  0  0  0
   18.9839  -24.8167  -13.2595 N   0  0  0  0  0  0  0  0  0  0  0  0
   17.2115  -24.1808  -11.7840 C   0  0  0  0  0  0  0  0  0  0  0  0
   17.0744  -22.9210  -12.3702 O   0  0  0  0  0  0  0  0  0  0  0  0
   19.3665  -25.5842   -8.7012 C   0  0  0  0  0  0  0  0  0  0  0  0
   18.9416  -25.6976   -7.3950 C   0  0  0  0  0  0  0  0  0  0  0  0
   16.2520  -24.6826  -11.1507 O   0  0  0  0  0  0  0  0  0  0  0  0
  2  1  1  1
  2  3  1  0
  4  5  2  0
  4  3  1  0
  6  5  1  0
  7 12  2  0
  7  6  1  0
  8  7  1  0
  9 10  1  0
  9  8  2  0
 10 11  2  0
 11 12  1  0
 12  4  1  0
 13  2  1  0
 13 15  1  0
 14 13  2  0
 16 15  1  0
 17 16  1  0
 18 17  2  0
 19 20  1  0
 20 30  2  0
 20 21  1  0
 21 22  2  0
 22 23  1  0
 23 24  1  0
 25 24  1  1
 25 26  1  0
 25 27  1  0
 26 17  1  0
 27 28  1  0
 29 23  2  0
 30 29  1  0
 31 27  2  0
M  END
$$$$
