WGY.pdb
     RDKit          3D

 31 33  0  0  1  0  0  0  0  0999 V2000
   19.2326  -10.8773  -16.1896 N   0  0  0  0  0  0  0  0  0  0  0  0
   18.0370  -10.3907  -16.7979 C   0  0  1  0  0  0  0  0  0  0  0  0
   16.9676  -11.4186  -16.7849 C   0  0  0  0  0  0  0  0  0  0  0  0
   17.4818  -12.6933  -17.3157 C   0  0  0  0  0  0  0  0  0  0  0  0
   18.6578  -12.8742  -18.0308 C   0  0  0  0  0  0  0  0  0  0  0  0
   18.8156  -14.1710  -18.3230 N   0  0  0  0  0  0  0  0  0  0  0  0
   17.7830  -14.8579  -17.8263 C   0  0  0  0  0  0  0  0  0  0  0  0
   17.4679  -16.2087  -17.8589 C   0  0  0  0  0  0  0  0  0  0  0  0
   16.3394  -16.7072  -17.2865 C   0  0  0  0  0  0  0  0  0  0  0  0
   15.4937  -15.8055  -16.6553 C   0  0  0  0  0  0  0  0  0  0  0  0
   15.7957  -14.4609  -16.6159 C   0  0  0  0  0  0  0  0  0  0  0  0
   16.9304  -13.9471  -17.1882 C   0  0  0  0  0  0  0  0  0  0  0  0
   17.6008   -9.0813  -16.2417 C   0  0  0  0  0  0  0  0  0  0  0  0
   16.4397   -8.6929  -16.5203 O   0  0  0  0  0  0  0  0  0  0  0  0
   18.4344   -8.2738  -15.4247 N   0  0  0  0  0  0  0  0  0  0  0  0
   18.0037   -7.0131  -14.8591 C   0  0  0  0  0  0  0  0  0  0  0  0
   19.0596   -6.3789  -14.0416 C   0  0  0  0  0  0  0  0  0  0  0  0
   19.1408   -6.5423  -12.7965 O   0  0  0  0  0  0  0  0  0  0  0  0
   22.2043  -11.4438  -14.3727 O   0  0  0  0  0  0  0  0  0  0  0  0
   22.2681  -10.0535  -14.4054 C   0  0  0  0  0  0  0  0  0  0  0  0
   22.0704   -9.3843  -15.6015 C   0  0  0  0  0  0  0  0  0  0  0  0
   22.1290   -7.9917  -15.6617 C   0  0  0  0  0  0  0  0  0  0  0  0
   22.3856   -7.2626  -14.5262 C   0  0  0  0  0  0  0  0  0  0  0  0
   22.4572   -5.8102  -14.5403 C   0  0  0  0  0  0  0  0  0  0  0  0
   21.2401   -5.1189  -14.0215 C   0  0  2  0  0  0  0  0  0  0  0  0
   20.0214   -5.5546  -14.6693 N   0  0  0  0  0  0  0  0  0  0  0  0
   21.3801   -3.6569  -14.1442 C   0  0  0  0  0  0  0  0  0  0  0  0
   20.4962   -2.9314  -14.9455 O   0  0  0  0  0  0  0  0  0  0  0  0
   22.5788   -7.9501  -13.3483 C   0  0  0  0  0  0  0  0  0  0  0  0
   22.5218   -9.3256  -13.2842 C   0  0  0  0  0  0  0  0  0  0  0  0
   22.2958   -3.0617  -13.5272 O   0  0  0  0  0  0  0  0  0  0  0  0
  2  1  1  1
  2  3  1  0
  4  5  2  0
  4  3  1  0
  6  5  1  0
  7 12  2  0
  7  6  1  0
  8  7  1  0
  9 10  1  0
  9  8  2  0
 10 11  2  0
 11 12  1  0
 12  4  1  0
 13  2  1  0
 13 15  1  0
 14 13  2  0
 16 15  1  0
 17 16  1  0
 18 17  2  0
 19 20  1  0
 20 30  2  0
 20 21  1  0
 21 22  2  0
 22 23  1  0
 23 24  1  0
 25 24  1  6
 25 26  1  0
 25 27  1  0
 26 17  1  0
 27 28  1  0
 29 23  2  0
 30 29  1  0
 31 27  2  0
M  END
$$$$
