WGY.pdb
     RDKit          3D

 31 33  0  0  1  0  0  0  0  0999 V2000
   20.5430  -19.5139  -18.8145 N   0  0  0  0  0  0  0  0  0  0  0  0
   20.3263  -19.2687  -17.4256 C   0  0  1  0  0  0  0  0  0  0  0  0
   18.9482  -19.6392  -17.0205 C   0  0  0  0  0  0  0  0  0  0  0  0
   17.9653  -18.9575  -17.8809 C   0  0  0  0  0  0  0  0  0  0  0  0
   17.1256  -19.5575  -18.8092 C   0  0  0  0  0  0  0  0  0  0  0  0
   16.3484  -18.6309  -19.3830 N   0  0  0  0  0  0  0  0  0  0  0  0
   16.6443  -17.4345  -18.8671 C   0  0  0  0  0  0  0  0  0  0  0  0
   16.1407  -16.1667  -19.1204 C   0  0  0  0  0  0  0  0  0  0  0  0
   16.5982  -15.0596  -18.4766 C   0  0  0  0  0  0  0  0  0  0  0  0
   17.6056  -15.2388  -17.5387 C   0  0  0  0  0  0  0  0  0  0  0  0
   18.1141  -16.4934  -17.2779 C   0  0  0  0  0  0  0  0  0  0  0  0
   17.6603  -17.6166  -17.9195 C   0  0  0  0  0  0  0  0  0  0  0  0
   21.3759  -19.8768  -16.5639 C   0  0  0  0  0  0  0  0  0  0  0  0
   21.9930  -20.8711  -17.0190 O   0  0  0  0  0  0  0  0  0  0  0  0
   21.6964  -19.3820  -15.2728 N   0  0  0  0  0  0  0  0  0  0  0  0
   22.6810  -20.0012  -14.4116 C   0  0  0  0  0  0  0  0  0  0  0  0
   24.0582  -19.8174  -14.9167 C   0  0  0  0  0  0  0  0  0  0  0  0
   24.3090  -19.2187  -15.9948 O   0  0  0  0  0  0  0  0  0  0  0  0
   25.2036  -21.2131   -8.3608 O   0  0  0  0  0  0  0  0  0  0  0  0
   25.7352  -20.8469   -9.5942 C   0  0  0  0  0  0  0  0  0  0  0  0
   26.8820  -21.4676  -10.0601 C   0  0  0  0  0  0  0  0  0  0  0  0
   27.4352  -21.1193  -11.2926 C   0  0  0  0  0  0  0  0  0  0  0  0
   26.8438  -20.1489  -12.0643 C   0  0  0  0  0  0  0  0  0  0  0  0
   27.3843  -19.7519  -13.3546 C   0  0  0  0  0  0  0  0  0  0  0  0
   26.5295  -20.1051  -14.5263 C   0  0  2  0  0  0  0  0  0  0  0  0
   25.1446  -20.3288  -14.1705 N   0  0  0  0  0  0  0  0  0  0  0  0
   27.0666  -21.2865  -15.2248 C   0  0  0  0  0  0  0  0  0  0  0  0
   28.3065  -21.2216  -15.8636 O   0  0  0  0  0  0  0  0  0  0  0  0
   25.7039  -19.5457  -11.5802 C   0  0  0  0  0  0  0  0  0  0  0  0
   25.1541  -19.8866  -10.3633 C   0  0  0  0  0  0  0  0  0  0  0  0
   26.4084  -22.3542  -15.2461 O   0  0  0  0  0  0  0  0  0  0  0  0
  2  1  1  6
  2  3  1  0
  4  5  2  0
  4  3  1  0
  6  5  1  0
  7 12  2  0
  7  6  1  0
  8  7  1  0
  9 10  1  0
  9  8  2  0
 10 11  2  0
 11 12  1  0
 12  4  1  0
 13  2  1  0
 13 15  1  0
 14 13  2  0
 16 15  1  0
 17 16  1  0
 18 17  2  0
 19 20  1  0
 20 30  2  0
 20 21  1  0
 21 22  2  0
 22 23  1  0
 23 24  1  0
 25 24  1  1
 25 26  1  0
 25 27  1  0
 26 17  1  0
 27 28  1  0
 29 23  2  0
 30 29  1  0
 31 27  2  0
M  END
$$$$
