WGY.pdb
     RDKit          3D

 31 33  0  0  1  0  0  0  0  0999 V2000
   17.2791  -24.0829    5.4463 N   0  0  0  0  0  0  0  0  0  0  0  0
   17.0105  -24.3210    4.0653 C   0  0  1  0  0  0  0  0  0  0  0  0
   17.7683  -23.3855    3.1987 C   0  0  0  0  0  0  0  0  0  0  0  0
   17.3487  -21.9976    3.4607 C   0  0  0  0  0  0  0  0  0  0  0  0
   17.9955  -21.0809    4.2782 C   0  0  0  0  0  0  0  0  0  0  0  0
   17.3442  -19.9116    4.2521 N   0  0  0  0  0  0  0  0  0  0  0  0
   16.2855  -20.0211    3.4446 C   0  0  0  0  0  0  0  0  0  0  0  0
   15.2983  -19.1152    3.0842 C   0  0  0  0  0  0  0  0  0  0  0  0
   14.2850  -19.4410    2.2376 C   0  0  0  0  0  0  0  0  0  0  0  0
   14.2668  -20.7343    1.7341 C   0  0  0  0  0  0  0  0  0  0  0  0
   15.2420  -21.6437    2.0844 C   0  0  0  0  0  0  0  0  0  0  0  0
   16.2686  -21.3266    2.9357 C   0  0  0  0  0  0  0  0  0  0  0  0
   17.1853  -25.7485    3.6834 C   0  0  0  0  0  0  0  0  0  0  0  0
   17.0234  -26.0475    2.4747 O   0  0  0  0  0  0  0  0  0  0  0  0
   17.5214  -26.7618    4.6186 N   0  0  0  0  0  0  0  0  0  0  0  0
   17.7560  -28.1391    4.2408 C   0  0  0  0  0  0  0  0  0  0  0  0
   19.1923  -28.4251    4.0388 C   0  0  0  0  0  0  0  0  0  0  0  0
   20.0646  -27.5186    4.0069 O   0  0  0  0  0  0  0  0  0  0  0  0
   20.9989  -28.2582    9.9776 O   0  0  0  0  0  0  0  0  0  0  0  0
   21.1067  -28.9237    8.7596 C   0  0  0  0  0  0  0  0  0  0  0  0
   20.0271  -29.6385    8.2689 C   0  0  0  0  0  0  0  0  0  0  0  0
   20.1088  -30.3143    7.0511 C   0  0  0  0  0  0  0  0  0  0  0  0
   21.2706  -30.2781    6.3190 C   0  0  0  0  0  0  0  0  0  0  0  0
   21.4031  -30.9674    5.0455 C   0  0  0  0  0  0  0  0  0  0  0  0
   21.0080  -30.1605    3.8535 C   0  0  2  0  0  0  0  0  0  0  0  0
   19.6163  -29.7635    3.8737 N   0  0  0  0  0  0  0  0  0  0  0  0
   21.3045  -30.8917    2.6086 C   0  0  0  0  0  0  0  0  0  0  0  0
   22.6217  -31.2242    2.2860 O   0  0  0  0  0  0  0  0  0  0  0  0
   22.3309  -29.5606    6.8273 C   0  0  0  0  0  0  0  0  0  0  0  0
   22.2546  -28.8916    8.0298 C   0  0  0  0  0  0  0  0  0  0  0  0
   20.3713  -31.2168    1.8360 O   0  0  0  0  0  0  0  0  0  0  0  0
  2  1  1  1
  2  3  1  0
  4  5  2  0
  4  3  1  0
  6  5  1  0
  7 12  2  0
  7  6  1  0
  8  7  1  0
  9 10  1  0
  9  8  2  0
 10 11  2  0
 11 12  1  0
 12  4  1  0
 13  2  1  0
 13 15  1  0
 14 13  2  0
 16 15  1  0
 17 16  1  0
 18 17  2  0
 19 20  1  0
 20 30  2  0
 20 21  1  0
 21 22  2  0
 22 23  1  0
 23 24  1  0
 25 24  1  1
 25 26  1  0
 25 27  1  0
 26 17  1  0
 27 28  1  0
 29 23  2  0
 30 29  1  0
 31 27  2  0
M  END
$$$$
