NWC.pdb
     RDKit          3D

 29 30  0  0  1  0  0  0  0  0999 V2000
   12.4829  -15.7293   18.3134 N   0  0  0  0  0  0  0  0  0  0  0  0
   12.6553  -16.2652   19.6069 C   0  0  0  0  0  0  0  0  0  0  0  0
   13.4449  -17.2557   19.7433 O   0  0  0  0  0  0  0  0  0  0  0  0
   11.9222  -15.6670   20.7451 C   0  0  0  0  0  0  0  0  0  0  0  0
   11.6697  -16.7926   21.7338 C   0  0  2  0  0  0  0  0  0  0  0  0
   10.6402  -17.6849   21.2583 N   0  0  0  0  0  0  0  0  0  0  0  0
   11.1500  -16.1392   22.9837 C   0  0  0  0  0  0  0  0  0  0  0  0
   11.5748  -15.0060   23.2047 O   0  0  0  0  0  0  0  0  0  0  0  0
   10.2575  -16.7779   23.8142 N   0  0  0  0  0  0  0  0  0  0  0  0
    9.6460  -16.3739   25.0243 C   0  0  1  0  0  0  0  0  0  0  0  0
    8.1627  -16.4113   25.1606 C   0  0  0  0  0  0  0  0  0  0  0  0
    7.5050  -15.2591   24.5049 C   0  0  0  0  0  0  0  0  0  0  0  0
    7.0431  -15.1032   23.2235 C   0  0  0  0  0  0  0  0  0  0  0  0
    6.5642  -13.8722   23.0845 N   0  0  0  0  0  0  0  0  0  0  0  0
    6.6871  -13.1821   24.2404 C   0  0  0  0  0  0  0  0  0  0  0  0
    6.3691  -11.9158   24.6364 C   0  0  0  0  0  0  0  0  0  0  0  0
    6.6173  -11.4663   25.9064 C   0  0  0  0  0  0  0  0  0  0  0  0
    7.2042  -12.3139   26.8111 C   0  0  0  0  0  0  0  0  0  0  0  0
    7.5361  -13.5964   26.4425 C   0  0  0  0  0  0  0  0  0  0  0  0
    7.2751  -14.0387   25.1405 C   0  0  0  0  0  0  0  0  0  0  0  0
   10.3943  -16.8537   26.2019 C   0  0  0  0  0  0  0  0  0  0  0  0
   11.1434  -17.8555   26.0626 O   0  0  0  0  0  0  0  0  0  0  0  0
   10.3100  -16.2423   27.4793 N   0  0  0  0  0  0  0  0  0  0  0  0
   11.0916  -16.7691   28.5842 C   0  0  1  0  0  0  0  0  0  0  0  0
   11.1794  -15.7314   29.7022 C   0  0  0  0  0  0  0  0  0  0  0  0
   11.1535  -14.0470   29.0334 S   0  0  0  0  0  0  0  0  0  0  0  0
   10.5933  -18.0736   29.0477 C   0  0  0  0  0  0  0  0  0  0  0  0
    9.5816  -18.6208   28.5453 O   0  0  0  0  0  0  0  0  0  0  0  0
   11.2185  -18.7939   30.0853 O   0  0  0  0  0  0  0  0  0  0  0  0
  1  2  1  0
  2  3  2  0
  4  5  1  0
  4  2  1  0
  5  6  1  6
  7  8  2  0
  7  5  1  0
  9  7  1  0
 10  9  1  0
 10 11  1  1
 11 12  1  0
 12 13  2  0
 12 20  1  0
 13 14  1  0
 14 15  1  0
 15 16  2  0
 16 17  1  0
 18 17  2  0
 19 18  1  0
 20 19  2  0
 20 15  1  0
 21 22  2  0
 21 10  1  0
 23 21  1  0
 24 25  1  1
 24 23  1  0
 25 26  1  0
 27 24  1  0
 28 27  2  0
 29 27  1  0
M  END
$$$$
