NWC.pdb
     RDKit          3D

 29 30  0  0  1  0  0  0  0  0999 V2000
   11.0365  -17.2365   19.0691 N   0  0  0  0  0  0  0  0  0  0  0  0
   11.3003  -15.9365   19.5492 C   0  0  0  0  0  0  0  0  0  0  0  0
   11.7978  -15.0891   18.7383 O   0  0  0  0  0  0  0  0  0  0  0  0
   10.9949  -15.6067   20.9594 C   0  0  0  0  0  0  0  0  0  0  0  0
   10.5824  -16.9081   21.6261 C   0  0  2  0  0  0  0  0  0  0  0  0
    9.2383  -17.2815   21.2568 N   0  0  0  0  0  0  0  0  0  0  0  0
   10.5782  -16.6348   23.1042 C   0  0  0  0  0  0  0  0  0  0  0  0
   11.5126  -15.9505   23.5188 O   0  0  0  0  0  0  0  0  0  0  0  0
    9.5873  -17.1228   23.9254 N   0  0  0  0  0  0  0  0  0  0  0  0
    9.4078  -17.0489   25.3268 C   0  0  1  0  0  0  0  0  0  0  0  0
    8.0440  -16.8580   25.8960 C   0  0  0  0  0  0  0  0  0  0  0  0
    7.3389  -15.7014   25.3001 C   0  0  0  0  0  0  0  0  0  0  0  0
    6.5165  -15.6221   24.2060 C   0  0  0  0  0  0  0  0  0  0  0  0
    6.1509  -14.3572   24.0321 N   0  0  0  0  0  0  0  0  0  0  0  0
    6.7032  -13.5690   24.9815 C   0  0  0  0  0  0  0  0  0  0  0  0
    6.6614  -12.2338   25.2587 C   0  0  0  0  0  0  0  0  0  0  0  0
    7.3425  -11.6878   26.3145 C   0  0  0  0  0  0  0  0  0  0  0  0
    8.0913  -12.5071   27.1204 C   0  0  0  0  0  0  0  0  0  0  0  0
    8.1532  -13.8573   26.8673 C   0  0  0  0  0  0  0  0  0  0  0  0
    7.4508  -14.3978   25.7841 C   0  0  0  0  0  0  0  0  0  0  0  0
   10.2508  -18.0285   26.0385 C   0  0  0  0  0  0  0  0  0  0  0  0
   10.6799  -19.0218   25.3956 O   0  0  0  0  0  0  0  0  0  0  0  0
   10.5996  -17.9049   27.4081 N   0  0  0  0  0  0  0  0  0  0  0  0
   11.4446  -18.9086   28.0307 C   0  0  1  0  0  0  0  0  0  0  0  0
   12.8661  -18.8084   27.4796 C   0  0  0  0  0  0  0  0  0  0  0  0
   13.5999  -17.1942   27.8555 S   0  0  0  0  0  0  0  0  0  0  0  0
   11.3915  -18.8488   29.4998 C   0  0  0  0  0  0  0  0  0  0  0  0
   12.0394  -19.6415   30.2260 O   0  0  0  0  0  0  0  0  0  0  0  0
   10.6105  -17.8987   30.1879 O   0  0  0  0  0  0  0  0  0  0  0  0
  1  2  1  0
  2  3  2  0
  4  5  1  0
  4  2  1  0
  5  6  1  6
  7  8  2  0
  7  5  1  0
  9  7  1  0
 10  9  1  0
 10 11  1  6
 11 12  1  0
 12 13  2  0
 12 20  1  0
 13 14  1  0
 14 15  1  0
 15 16  2  0
 16 17  1  0
 18 17  2  0
 19 18  1  0
 20 19  2  0
 20 15  1  0
 21 22  2  0
 21 10  1  0
 23 21  1  0
 24 25  1  1
 24 23  1  0
 25 26  1  0
 27 24  1  0
 28 27  2  0
 29 27  1  0
M  END
$$$$
