NWC.pdb
     RDKit          3D

 29 30  0  0  1  0  0  0  0  0999 V2000
    7.8059  -15.2470   18.4407 N   0  0  0  0  0  0  0  0  0  0  0  0
    8.9550  -15.5155   19.2138 C   0  0  0  0  0  0  0  0  0  0  0  0
    9.9455  -16.0735   18.6387 O   0  0  0  0  0  0  0  0  0  0  0  0
    8.9695  -15.1456   20.6468 C   0  0  0  0  0  0  0  0  0  0  0  0
    9.6958  -16.2651   21.3730 C   0  0  2  0  0  0  0  0  0  0  0  0
    8.8921  -17.4624   21.4246 N   0  0  0  0  0  0  0  0  0  0  0  0
    9.8805  -15.7917   22.7876 C   0  0  0  0  0  0  0  0  0  0  0  0
   10.4658  -14.7170   22.9142 O   0  0  0  0  0  0  0  0  0  0  0  0
    9.4186  -16.5218   23.8590 N   0  0  0  0  0  0  0  0  0  0  0  0
    9.4493  -16.2696   25.2507 C   0  0  1  0  0  0  0  0  0  0  0  0
    8.2469  -16.5453   26.0865 C   0  0  0  0  0  0  0  0  0  0  0  0
    7.1171  -15.6443   25.7672 C   0  0  0  0  0  0  0  0  0  0  0  0
    5.8755  -15.9147   25.2523 C   0  0  0  0  0  0  0  0  0  0  0  0
    5.2144  -14.7730   25.0989 N   0  0  0  0  0  0  0  0  0  0  0  0
    5.9739  -13.7279   25.4969 C   0  0  0  0  0  0  0  0  0  0  0  0
    5.7900  -12.3769   25.5480 C   0  0  0  0  0  0  0  0  0  0  0  0
    6.7612  -11.5269   26.0071 C   0  0  0  0  0  0  0  0  0  0  0  0
    7.9579  -12.0474   26.4296 C   0  0  0  0  0  0  0  0  0  0  0  0
    8.1735  -13.4050   26.3910 C   0  0  0  0  0  0  0  0  0  0  0  0
    7.1698  -14.2586   25.9188 C   0  0  0  0  0  0  0  0  0  0  0  0
   10.7345  -16.6743   25.8517 C   0  0  0  0  0  0  0  0  0  0  0  0
   11.4377  -17.5191   25.2385 O   0  0  0  0  0  0  0  0  0  0  0  0
   11.2141  -16.1587   27.0833 N   0  0  0  0  0  0  0  0  0  0  0  0
   12.2534  -16.8694   27.8071 C   0  0  1  0  0  0  0  0  0  0  0  0
   12.6705  -16.0693   29.0401 C   0  0  0  0  0  0  0  0  0  0  0  0
   11.2221  -15.4765   29.9546 S   0  0  0  0  0  0  0  0  0  0  0  0
   11.8663  -18.2533   28.1230 C   0  0  0  0  0  0  0  0  0  0  0  0
   10.6813  -18.6556   28.0268 O   0  0  0  0  0  0  0  0  0  0  0  0
   12.7995  -19.2173   28.5541 O   0  0  0  0  0  0  0  0  0  0  0  0
  1  2  1  0
  2  3  2  0
  4  5  1  0
  4  2  1  0
  5  6  1  1
  7  8  2  0
  7  5  1  0
  9  7  1  0
 10  9  1  0
 10 11  1  1
 11 12  1  0
 12 13  2  0
 12 20  1  0
 13 14  1  0
 14 15  1  0
 15 16  2  0
 16 17  1  0
 18 17  2  0
 19 18  1  0
 20 19  2  0
 20 15  1  0
 21 22  2  0
 21 10  1  0
 23 21  1  0
 24 25  1  1
 24 23  1  0
 25 26  1  0
 27 24  1  0
 28 27  2  0
 29 27  1  0
M  END
$$$$
