NWC.pdb
     RDKit          3D

 29 30  0  0  1  0  0  0  0  0999 V2000
    8.0140  -18.2619   19.0342 N   0  0  0  0  0  0  0  0  0  0  0  0
    9.2916  -17.6637   19.0378 C   0  0  0  0  0  0  0  0  0  0  0  0
   10.0920  -17.9576   18.0911 O   0  0  0  0  0  0  0  0  0  0  0  0
    9.6533  -16.7289   20.1268 C   0  0  0  0  0  0  0  0  0  0  0  0
    8.4735  -16.7056   21.0837 C   0  0  2  0  0  0  0  0  0  0  0  0
    7.4720  -15.7590   20.6556 N   0  0  0  0  0  0  0  0  0  0  0  0
    9.0142  -16.2175   22.3985 C   0  0  0  0  0  0  0  0  0  0  0  0
    9.4821  -15.0797   22.3891 O   0  0  0  0  0  0  0  0  0  0  0  0
    8.9792  -17.0018   23.5289 N   0  0  0  0  0  0  0  0  0  0  0  0
    9.4738  -16.7869   24.8369 C   0  0  1  0  0  0  0  0  0  0  0  0
    8.5287  -16.6701   25.9830 C   0  0  0  0  0  0  0  0  0  0  0  0
    7.4530  -15.6855   25.7313 C   0  0  0  0  0  0  0  0  0  0  0  0
    6.2225  -15.8353   25.1457 C   0  0  0  0  0  0  0  0  0  0  0  0
    5.6184  -14.6532   25.1029 N   0  0  0  0  0  0  0  0  0  0  0  0
    6.4062  -13.6981   25.6457 C   0  0  0  0  0  0  0  0  0  0  0  0
    6.2795  -12.3546   25.8467 C   0  0  0  0  0  0  0  0  0  0  0  0
    7.2677  -11.6102   26.4349 C   0  0  0  0  0  0  0  0  0  0  0  0
    8.4226  -12.2324   26.8355 C   0  0  0  0  0  0  0  0  0  0  0  0
    8.5802  -13.5854   26.6472 C   0  0  0  0  0  0  0  0  0  0  0  0
    7.5600  -14.3303   26.0445 C   0  0  0  0  0  0  0  0  0  0  0  0
   10.6830  -17.5893   25.1030 C   0  0  0  0  0  0  0  0  0  0  0  0
   10.6242  -18.8328   24.9174 O   0  0  0  0  0  0  0  0  0  0  0  0
   11.9046  -17.0283   25.5565 N   0  0  0  0  0  0  0  0  0  0  0  0
   13.0184  -17.8987   25.8898 C   0  0  1  0  0  0  0  0  0  0  0  0
   14.3397  -17.1951   25.5842 C   0  0  0  0  0  0  0  0  0  0  0  0
   14.2241  -16.2223   24.0592 S   0  0  0  0  0  0  0  0  0  0  0  0
   12.9399  -18.4009   27.2705 C   0  0  0  0  0  0  0  0  0  0  0  0
   12.0366  -18.0402   28.0638 O   0  0  0  0  0  0  0  0  0  0  0  0
   13.8727  -19.3192   27.7928 O   0  0  0  0  0  0  0  0  0  0  0  0
  1  2  1  0
  2  3  2  0
  4  5  1  0
  4  2  1  0
  5  6  1  6
  7  8  2  0
  7  5  1  0
  9  7  1  0
 10  9  1  0
 10 11  1  1
 11 12  1  0
 12 13  2  0
 12 20  1  0
 13 14  1  0
 14 15  1  0
 15 16  2  0
 16 17  1  0
 18 17  2  0
 19 18  1  0
 20 19  2  0
 20 15  1  0
 21 22  2  0
 21 10  1  0
 23 21  1  0
 24 25  1  1
 24 23  1  0
 25 26  1  0
 27 24  1  0
 28 27  2  0
 29 27  1  0
M  END
$$$$
