NWC.pdb
     RDKit          3D

 29 30  0  0  1  0  0  0  0  0999 V2000
    9.5092  -15.9043   18.1709 N   0  0  0  0  0  0  0  0  0  0  0  0
   10.4742  -16.2108   19.1532 C   0  0  0  0  0  0  0  0  0  0  0  0
   11.4260  -16.9946   18.8322 O   0  0  0  0  0  0  0  0  0  0  0  0
   10.3488  -15.6200   20.5044 C   0  0  0  0  0  0  0  0  0  0  0  0
   10.7450  -16.7078   21.4882 C   0  0  2  0  0  0  0  0  0  0  0  0
    9.8785  -17.8560   21.3749 N   0  0  0  0  0  0  0  0  0  0  0  0
   10.5357  -16.1256   22.8581 C   0  0  0  0  0  0  0  0  0  0  0  0
   10.9294  -14.9698   23.0081 O   0  0  0  0  0  0  0  0  0  0  0  0
    9.9400  -16.8490   23.8663 N   0  0  0  0  0  0  0  0  0  0  0  0
    9.6175  -16.5098   25.2013 C   0  0  1  0  0  0  0  0  0  0  0  0
    8.2844  -16.8688   25.7620 C   0  0  0  0  0  0  0  0  0  0  0  0
    7.2299  -15.9050   25.3759 C   0  0  0  0  0  0  0  0  0  0  0  0
    6.0501  -16.0921   24.7030 C   0  0  0  0  0  0  0  0  0  0  0  0
    5.4488  -14.9175   24.5522 N   0  0  0  0  0  0  0  0  0  0  0  0
    6.1889  -13.9312   25.1061 C   0  0  0  0  0  0  0  0  0  0  0  0
    6.0437  -12.5800   25.2275 C   0  0  0  0  0  0  0  0  0  0  0  0
    6.9803  -11.8005   25.8533 C   0  0  0  0  0  0  0  0  0  0  0  0
    8.1011  -12.3943   26.3755 C   0  0  0  0  0  0  0  0  0  0  0  0
    8.2762  -13.7541   26.2696 C   0  0  0  0  0  0  0  0  0  0  0  0
    7.3087  -14.5350   25.6269 C   0  0  0  0  0  0  0  0  0  0  0  0
   10.7579  -16.7278   26.1117 C   0  0  0  0  0  0  0  0  0  0  0  0
   11.6547  -17.5371   25.7580 O   0  0  0  0  0  0  0  0  0  0  0  0
   10.8916  -16.0714   27.3622 N   0  0  0  0  0  0  0  0  0  0  0  0
   11.8505  -16.5627   28.3360 C   0  0  1  0  0  0  0  0  0  0  0  0
   11.9027  -15.6206   29.5377 C   0  0  0  0  0  0  0  0  0  0  0  0
   10.9521  -14.1094   29.2245 S   0  0  0  0  0  0  0  0  0  0  0  0
   11.5958  -17.9620   28.7126 C   0  0  0  0  0  0  0  0  0  0  0  0
   10.5833  -18.5885   28.3155 O   0  0  0  0  0  0  0  0  0  0  0  0
   12.4709  -18.6904   29.5431 O   0  0  0  0  0  0  0  0  0  0  0  0
  1  2  1  0
  2  3  2  0
  4  5  1  0
  4  2  1  0
  5  6  1  1
  7  8  2  0
  7  5  1  0
  9  7  1  0
 10  9  1  0
 10 11  1  1
 11 12  1  0
 12 13  2  0
 12 20  1  0
 13 14  1  0
 14 15  1  0
 15 16  2  0
 16 17  1  0
 18 17  2  0
 19 18  1  0
 20 19  2  0
 20 15  1  0
 21 22  2  0
 21 10  1  0
 23 21  1  0
 24 25  1  1
 24 23  1  0
 25 26  1  0
 27 24  1  0
 28 27  2  0
 29 27  1  0
M  END
$$$$
