NWC.pdb
     RDKit          3D

 29 30  0  0  1  0  0  0  0  0999 V2000
    7.6800  -15.2058   18.6677 N   0  0  0  0  0  0  0  0  0  0  0  0
    8.9320  -15.3415   19.3034 C   0  0  0  0  0  0  0  0  0  0  0  0
    9.9164  -15.7486   18.6046 O   0  0  0  0  0  0  0  0  0  0  0  0
    9.0567  -15.0115   20.7408 C   0  0  0  0  0  0  0  0  0  0  0  0
    9.8187  -16.1592   21.3814 C   0  0  2  0  0  0  0  0  0  0  0  0
    9.0364  -17.3717   21.3796 N   0  0  0  0  0  0  0  0  0  0  0  0
   10.0299  -15.7678   22.8172 C   0  0  0  0  0  0  0  0  0  0  0  0
   10.8052  -14.8307   23.0021 O   0  0  0  0  0  0  0  0  0  0  0  0
    9.3901  -16.4223   23.8451 N   0  0  0  0  0  0  0  0  0  0  0  0
    9.3952  -16.2066   25.2433 C   0  0  1  0  0  0  0  0  0  0  0  0
    8.1850  -16.5243   26.0525 C   0  0  0  0  0  0  0  0  0  0  0  0
    7.0702  -15.5854   25.7960 C   0  0  0  0  0  0  0  0  0  0  0  0
    5.7828  -15.8164   25.3853 C   0  0  0  0  0  0  0  0  0  0  0  0
    5.1573  -14.6524   25.2517 N   0  0  0  0  0  0  0  0  0  0  0  0
    5.9860  -13.6303   25.5617 C   0  0  0  0  0  0  0  0  0  0  0  0
    5.8601  -12.2721   25.5896 C   0  0  0  0  0  0  0  0  0  0  0  0
    6.8968  -11.4521   25.9495 C   0  0  0  0  0  0  0  0  0  0  0  0
    8.1011  -12.0114   26.2934 C   0  0  0  0  0  0  0  0  0  0  0  0
    8.2594  -13.3772   26.2756 C   0  0  0  0  0  0  0  0  0  0  0  0
    7.1892  -14.1997   25.9052 C   0  0  0  0  0  0  0  0  0  0  0  0
   10.6778  -16.6057   25.8536 C   0  0  0  0  0  0  0  0  0  0  0  0
   11.4018  -17.4268   25.2323 O   0  0  0  0  0  0  0  0  0  0  0  0
   11.1324  -16.1103   27.1028 N   0  0  0  0  0  0  0  0  0  0  0  0
   12.2189  -16.7826   27.7932 C   0  0  1  0  0  0  0  0  0  0  0  0
   12.6737  -15.9466   28.9885 C   0  0  0  0  0  0  0  0  0  0  0  0
   11.3633  -14.8188   29.5330 S   0  0  0  0  0  0  0  0  0  0  0  0
   11.8772  -18.1669   28.1560 C   0  0  0  0  0  0  0  0  0  0  0  0
   10.7163  -18.6260   28.0260 O   0  0  0  0  0  0  0  0  0  0  0  0
   12.8298  -19.0678   28.6729 O   0  0  0  0  0  0  0  0  0  0  0  0
  1  2  1  0
  2  3  2  0
  4  5  1  0
  4  2  1  0
  5  6  1  1
  7  8  2  0
  7  5  1  0
  9  7  1  0
 10  9  1  0
 10 11  1  1
 11 12  1  0
 12 13  2  0
 12 20  1  0
 13 14  1  0
 14 15  1  0
 15 16  2  0
 16 17  1  0
 18 17  2  0
 19 18  1  0
 20 19  2  0
 20 15  1  0
 21 22  2  0
 21 10  1  0
 23 21  1  0
 24 25  1  1
 24 23  1  0
 25 26  1  0
 27 24  1  0
 28 27  2  0
 29 27  1  0
M  END
$$$$
