NWC.pdb
     RDKit          3D

 29 30  0  0  1  0  0  0  0  0999 V2000
    9.3539  -19.7061   18.4310 N   0  0  0  0  0  0  0  0  0  0  0  0
   10.6894  -19.4886   18.8303 C   0  0  0  0  0  0  0  0  0  0  0  0
   11.6172  -19.9697   18.1017 O   0  0  0  0  0  0  0  0  0  0  0  0
   10.9626  -18.7202   20.0655 C   0  0  0  0  0  0  0  0  0  0  0  0
    9.6130  -18.4349   20.7023 C   0  0  2  0  0  0  0  0  0  0  0  0
    8.8566  -17.4862   19.9213 N   0  0  0  0  0  0  0  0  0  0  0  0
    9.9068  -17.7874   22.0266 C   0  0  0  0  0  0  0  0  0  0  0  0
   10.8394  -18.2788   22.6610 O   0  0  0  0  0  0  0  0  0  0  0  0
    9.1742  -16.7160   22.4843 N   0  0  0  0  0  0  0  0  0  0  0  0
    9.1730  -16.0416   23.7279 C   0  0  1  0  0  0  0  0  0  0  0  0
    8.3139  -14.8401   23.9253 C   0  0  0  0  0  0  0  0  0  0  0  0
    8.3635  -14.3310   25.3139 C   0  0  0  0  0  0  0  0  0  0  0  0
    9.1469  -14.7034   26.3757 C   0  0  0  0  0  0  0  0  0  0  0  0
    8.8016  -13.9861   27.4388 N   0  0  0  0  0  0  0  0  0  0  0  0
    7.8008  -13.1315   27.1298 C   0  0  0  0  0  0  0  0  0  0  0  0
    7.0906  -12.1986   27.8274 C   0  0  0  0  0  0  0  0  0  0  0  0
    6.0976  -11.4552   27.2461 C   0  0  0  0  0  0  0  0  0  0  0  0
    5.8057  -11.6528   25.9205 C   0  0  0  0  0  0  0  0  0  0  0  0
    6.5041  -12.5854   25.1902 C   0  0  0  0  0  0  0  0  0  0  0  0
    7.5155  -13.3359   25.8006 C   0  0  0  0  0  0  0  0  0  0  0  0
    9.1982  -16.9852   24.8618 C   0  0  0  0  0  0  0  0  0  0  0  0
    8.2139  -17.7541   25.0174 O   0  0  0  0  0  0  0  0  0  0  0  0
   10.2748  -17.0671   25.7820 N   0  0  0  0  0  0  0  0  0  0  0  0
   10.3549  -18.1891   26.7006 C   0  0  1  0  0  0  0  0  0  0  0  0
   11.3251  -19.2380   26.1593 C   0  0  0  0  0  0  0  0  0  0  0  0
   12.9039  -18.4843   25.6852 S   0  0  0  0  0  0  0  0  0  0  0  0
   10.6733  -17.7647   28.0729 C   0  0  0  0  0  0  0  0  0  0  0  0
   10.6806  -18.5678   29.0374 O   0  0  0  0  0  0  0  0  0  0  0  0
   10.9907  -16.4298   28.3946 O   0  0  0  0  0  0  0  0  0  0  0  0
  1  2  1  0
  2  3  2  0
  4  5  1  0
  4  2  1  0
  5  6  1  6
  7  8  2  0
  7  5  1  0
  9  7  1  0
 10  9  1  0
 10 11  1  1
 11 12  1  0
 12 13  2  0
 12 20  1  0
 13 14  1  0
 14 15  1  0
 15 16  2  0
 16 17  1  0
 18 17  2  0
 19 18  1  0
 20 19  2  0
 20 15  1  0
 21 22  2  0
 21 10  1  0
 23 21  1  0
 24 25  1  6
 24 23  1  0
 25 26  1  0
 27 24  1  0
 28 27  2  0
 29 27  1  0
M  END
$$$$
