NWC.pdb
     RDKit          3D

 29 30  0  0  1  0  0  0  0  0999 V2000
   10.2644  -17.6452   18.2625 N   0  0  0  0  0  0  0  0  0  0  0  0
    9.5864  -16.4455   18.5644 C   0  0  0  0  0  0  0  0  0  0  0  0
    8.7625  -15.9919   17.7050 O   0  0  0  0  0  0  0  0  0  0  0  0
    9.8528  -15.7642   19.8510 C   0  0  0  0  0  0  0  0  0  0  0  0
    9.4685  -16.7456   20.9453 C   0  0  2  0  0  0  0  0  0  0  0  0
    8.0439  -16.9743   20.9657 N   0  0  0  0  0  0  0  0  0  0  0  0
    9.8316  -16.0825   22.2445 C   0  0  0  0  0  0  0  0  0  0  0  0
   10.7974  -15.3219   22.1991 O   0  0  0  0  0  0  0  0  0  0  0  0
    9.1202  -16.3190   23.3988 N   0  0  0  0  0  0  0  0  0  0  0  0
    9.5363  -16.4896   24.7402 C   0  0  1  0  0  0  0  0  0  0  0  0
    8.5238  -16.6478   25.8219 C   0  0  0  0  0  0  0  0  0  0  0  0
    7.3951  -15.7007   25.6835 C   0  0  0  0  0  0  0  0  0  0  0  0
    6.0866  -15.9137   25.3342 C   0  0  0  0  0  0  0  0  0  0  0  0
    5.4531  -14.7468   25.3033 N   0  0  0  0  0  0  0  0  0  0  0  0
    6.2969  -13.7404   25.6236 C   0  0  0  0  0  0  0  0  0  0  0  0
    6.1711  -12.3865   25.7363 C   0  0  0  0  0  0  0  0  0  0  0  0
    7.2256  -11.5838   26.0831 C   0  0  0  0  0  0  0  0  0  0  0  0
    8.4483  -12.1564   26.3252 C   0  0  0  0  0  0  0  0  0  0  0  0
    8.6070  -13.5183   26.2203 C   0  0  0  0  0  0  0  0  0  0  0  0
    7.5184  -14.3230   25.8649 C   0  0  0  0  0  0  0  0  0  0  0  0
   10.7039  -17.3858   24.8408 C   0  0  0  0  0  0  0  0  0  0  0  0
   10.9868  -18.1073   23.8491 O   0  0  0  0  0  0  0  0  0  0  0  0
   11.5201  -17.4731   25.9979 N   0  0  0  0  0  0  0  0  0  0  0  0
   12.8929  -17.9323   25.8794 C   0  0  1  0  0  0  0  0  0  0  0  0
   13.6233  -17.1221   24.8096 C   0  0  0  0  0  0  0  0  0  0  0  0
   15.2420  -17.8459   24.4339 S   0  0  0  0  0  0  0  0  0  0  0  0
   13.5924  -17.9389   27.1738 C   0  0  0  0  0  0  0  0  0  0  0  0
   13.2383  -17.2069   28.1299 O   0  0  0  0  0  0  0  0  0  0  0  0
   14.7050  -18.7666   27.4251 O   0  0  0  0  0  0  0  0  0  0  0  0
  1  2  1  0
  2  3  2  0
  4  5  1  0
  4  2  1  0
  5  6  1  1
  7  8  2  0
  7  5  1  0
  9  7  1  0
 10  9  1  0
 10 11  1  1
 11 12  1  0
 12 13  2  0
 12 20  1  0
 13 14  1  0
 14 15  1  0
 15 16  2  0
 16 17  1  0
 18 17  2  0
 19 18  1  0
 20 19  2  0
 20 15  1  0
 21 22  2  0
 21 10  1  0
 23 21  1  0
 24 25  1  6
 24 23  1  0
 25 26  1  0
 27 24  1  0
 28 27  2  0
 29 27  1  0
M  END
$$$$
