NWC.pdb
     RDKit          3D

 29 30  0  0  1  0  0  0  0  0999 V2000
   13.7500  -19.2090   20.7131 N   0  0  0  0  0  0  0  0  0  0  0  0
   13.6393  -17.8073   20.5988 C   0  0  0  0  0  0  0  0  0  0  0  0
   14.0114  -17.2652   19.5076 O   0  0  0  0  0  0  0  0  0  0  0  0
   13.1028  -17.0256   21.7354 C   0  0  0  0  0  0  0  0  0  0  0  0
   11.6023  -16.9260   21.5191 C   0  0  2  0  0  0  0  0  0  0  0  0
   11.2922  -16.0944   20.3813 N   0  0  0  0  0  0  0  0  0  0  0  0
   11.0517  -16.2377   22.7367 C   0  0  0  0  0  0  0  0  0  0  0  0
   11.3919  -15.0643   22.8810 O   0  0  0  0  0  0  0  0  0  0  0  0
   10.2219  -16.8893   23.6206 N   0  0  0  0  0  0  0  0  0  0  0  0
    9.5696  -16.4483   24.7960 C   0  0  1  0  0  0  0  0  0  0  0  0
    8.0854  -16.5279   24.9012 C   0  0  0  0  0  0  0  0  0  0  0  0
    7.4192  -15.2820   24.4610 C   0  0  0  0  0  0  0  0  0  0  0  0
    6.8775  -14.9374   23.2496 C   0  0  0  0  0  0  0  0  0  0  0  0
    6.4264  -13.6901   23.3181 N   0  0  0  0  0  0  0  0  0  0  0  0
    6.6463  -13.1730   24.5477 C   0  0  0  0  0  0  0  0  0  0  0  0
    6.3924  -11.9696   25.1382 C   0  0  0  0  0  0  0  0  0  0  0  0
    6.7379  -11.7092   26.4380 C   0  0  0  0  0  0  0  0  0  0  0  0
    7.3590  -12.6876   27.1718 C   0  0  0  0  0  0  0  0  0  0  0  0
    7.6281  -13.9113   26.6051 C   0  0  0  0  0  0  0  0  0  0  0  0
    7.2679  -14.1597   25.2756 C   0  0  0  0  0  0  0  0  0  0  0  0
   10.3049  -16.8464   26.0116 C   0  0  0  0  0  0  0  0  0  0  0  0
   10.9937  -17.8991   25.9718 O   0  0  0  0  0  0  0  0  0  0  0  0
   10.2726  -16.1023   27.2190 N   0  0  0  0  0  0  0  0  0  0  0  0
   11.0554  -16.5440   28.3598 C   0  0  1  0  0  0  0  0  0  0  0  0
   11.0992  -15.4441   29.4194 C   0  0  0  0  0  0  0  0  0  0  0  0
   11.2011  -13.8041   28.6545 S   0  0  0  0  0  0  0  0  0  0  0  0
   10.5894  -17.8351   28.8895 C   0  0  0  0  0  0  0  0  0  0  0  0
   11.1681  -18.4174   29.8389 O   0  0  0  0  0  0  0  0  0  0  0  0
    9.4637  -18.5025   28.3663 O   0  0  0  0  0  0  0  0  0  0  0  0
  1  2  1  0
  2  3  2  0
  4  5  1  0
  4  2  1  0
  5  6  1  6
  7  8  2  0
  7  5  1  0
  9  7  1  0
 10  9  1  0
 10 11  1  1
 11 12  1  0
 12 13  2  0
 12 20  1  0
 13 14  1  0
 14 15  1  0
 15 16  2  0
 16 17  1  0
 18 17  2  0
 19 18  1  0
 20 19  2  0
 20 15  1  0
 21 22  2  0
 21 10  1  0
 23 21  1  0
 24 25  1  1
 24 23  1  0
 25 26  1  0
 27 24  1  0
 28 27  2  0
 29 27  1  0
M  END
$$$$
