AWG.pdb
     RDKit          3D

 24 25  0  0  1  0  0  0  0  0999 V2000
    8.5010  -17.4290   19.6802 C   0  0  0  0  0  0  0  0  0  0  0  0
    7.8158  -17.5605   21.0195 C   0  0  2  0  0  0  0  0  0  0  0  0
    6.3957  -17.3426   20.8722 N   0  0  0  0  0  0  0  0  0  0  0  0
    8.4446  -16.5798   21.9319 C   0  0  0  0  0  0  0  0  0  0  0  0
    8.4793  -15.3808   21.5285 O   0  0  0  0  0  0  0  0  0  0  0  0
    8.9901  -16.8844   23.1818 N   0  0  0  0  0  0  0  0  0  0  0  0
    9.5870  -15.8304   23.9791 C   0  0  1  0  0  0  0  0  0  0  0  0
    9.2083  -15.8305   25.4078 C   0  0  0  0  0  0  0  0  0  0  0  0
    7.8396  -15.3805   25.6698 C   0  0  0  0  0  0  0  0  0  0  0  0
    6.6423  -16.0434   25.6744 C   0  0  0  0  0  0  0  0  0  0  0  0
    5.6813  -15.1342   25.9757 N   0  0  0  0  0  0  0  0  0  0  0  0
    6.2157  -13.9302   26.1604 C   0  0  0  0  0  0  0  0  0  0  0  0
    5.6434  -12.6954   26.4806 C   0  0  0  0  0  0  0  0  0  0  0  0
    6.4818  -11.6193   26.6010 C   0  0  0  0  0  0  0  0  0  0  0  0
    7.8455  -11.6985   26.4234 C   0  0  0  0  0  0  0  0  0  0  0  0
    8.3946  -12.9315   26.1066 C   0  0  0  0  0  0  0  0  0  0  0  0
    7.5643  -14.0384   25.9788 C   0  0  0  0  0  0  0  0  0  0  0  0
   11.0915  -15.9021   23.8256 C   0  0  0  0  0  0  0  0  0  0  0  0
   11.8633  -15.2188   24.5259 O   0  0  0  0  0  0  0  0  0  0  0  0
   11.6092  -16.7840   22.8458 N   0  0  0  0  0  0  0  0  0  0  0  0
   13.0437  -16.8555   22.5676 C   0  0  0  0  0  0  0  0  0  0  0  0
   13.6569  -17.7620   23.5419 C   0  0  0  0  0  0  0  0  0  0  0  0
   13.3760  -17.6704   24.7497 O   0  0  0  0  0  0  0  0  0  0  0  0
   14.5464  -18.7174   23.1156 O   0  0  0  0  0  0  0  0  0  0  0  0
  2  1  1  6
  2  3  1  0
  4  2  1  0
  5  4  2  0
  6  4  1  0
  7  6  1  0
  8  9  1  0
  7  8  1  1
  9 17  1  0
 10 11  1  0
 10  9  2  0
 11 12  1  0
 12 17  2  0
 12 13  1  0
 13 14  2  0
 14 15  1  0
 16 15  2  0
 17 16  1  0
 18 20  1  0
 18  7  1  0
 19 18  2  0
 21 20  1  0
 22 24  1  0
 22 21  1  0
 23 22  2  0
M  END
$$$$
