AWG.pdb
     RDKit          3D

 24 25  0  0  1  0  0  0  0  0999 V2000
    6.8462  -18.4051   20.8729 C   0  0  0  0  0  0  0  0  0  0  0  0
    6.9839  -16.9855   20.3764 C   0  0  2  0  0  0  0  0  0  0  0  0
    7.1129  -16.9748   18.9381 N   0  0  0  0  0  0  0  0  0  0  0  0
    8.1616  -16.3971   21.0522 C   0  0  0  0  0  0  0  0  0  0  0  0
    9.2060  -16.2698   20.3490 O   0  0  0  0  0  0  0  0  0  0  0  0
    8.1948  -15.9820   22.3860 N   0  0  0  0  0  0  0  0  0  0  0  0
    9.3738  -15.3110   22.8984 C   0  0  1  0  0  0  0  0  0  0  0  0
    9.1072  -14.1458   23.7678 C   0  0  0  0  0  0  0  0  0  0  0  0
    7.9190  -14.2821   24.6127 C   0  0  0  0  0  0  0  0  0  0  0  0
    7.1068  -15.3491   24.8862 C   0  0  0  0  0  0  0  0  0  0  0  0
    6.1410  -14.9119   25.7330 N   0  0  0  0  0  0  0  0  0  0  0  0
    6.3055  -13.6204   26.0056 C   0  0  0  0  0  0  0  0  0  0  0  0
    5.5783  -12.7374   26.8094 C   0  0  0  0  0  0  0  0  0  0  0  0
    6.0126  -11.4405   26.8818 C   0  0  0  0  0  0  0  0  0  0  0  0
    7.1192  -10.9741   26.2071 C   0  0  0  0  0  0  0  0  0  0  0  0
    7.8276  -11.8647   25.4152 C   0  0  0  0  0  0  0  0  0  0  0  0
    7.4065  -13.1859   25.3255 C   0  0  0  0  0  0  0  0  0  0  0  0
   10.2337  -16.3284   23.6179 C   0  0  0  0  0  0  0  0  0  0  0  0
   11.3837  -16.0615   24.0171 O   0  0  0  0  0  0  0  0  0  0  0  0
    9.6859  -17.6170   23.8300 N   0  0  0  0  0  0  0  0  0  0  0  0
   10.4739  -18.6885   24.4392 C   0  0  0  0  0  0  0  0  0  0  0  0
   10.6565  -18.3756   25.8590 C   0  0  0  0  0  0  0  0  0  0  0  0
    9.8774  -18.8387   26.7102 O   0  0  0  0  0  0  0  0  0  0  0  0
   11.6951  -17.5663   26.2488 O   0  0  0  0  0  0  0  0  0  0  0  0
  2  1  1  1
  2  3  1  0
  4  2  1  0
  5  4  2  0
  6  4  1  0
  7  6  1  0
  8  9  1  0
  7  8  1  1
  9 17  1  0
 10 11  1  0
 10  9  2  0
 11 12  1  0
 12 17  2  0
 12 13  1  0
 13 14  2  0
 14 15  1  0
 16 15  2  0
 17 16  1  0
 18 20  1  0
 18  7  1  0
 19 18  2  0
 21 20  1  0
 22 24  1  0
 22 21  1  0
 23 22  2  0
M  END
$$$$
