AWG.pdb
     RDKit          3D

 24 25  0  0  1  0  0  0  0  0999 V2000
    8.4742  -17.5174   20.1550 C   0  0  0  0  0  0  0  0  0  0  0  0
    7.6421  -16.5451   20.9567 C   0  0  2  0  0  0  0  0  0  0  0  0
    7.0305  -15.5757   20.0782 N   0  0  0  0  0  0  0  0  0  0  0  0
    8.5393  -15.9167   21.9517 C   0  0  0  0  0  0  0  0  0  0  0  0
    9.0330  -14.7962   21.6325 O   0  0  0  0  0  0  0  0  0  0  0  0
    8.8693  -16.4676   23.1927 N   0  0  0  0  0  0  0  0  0  0  0  0
    9.5762  -15.6616   24.1692 C   0  0  1  0  0  0  0  0  0  0  0  0
    9.0814  -15.7766   25.5573 C   0  0  0  0  0  0  0  0  0  0  0  0
    7.7489  -15.2085   25.7724 C   0  0  0  0  0  0  0  0  0  0  0  0
    6.4997  -15.7667   25.7445 C   0  0  0  0  0  0  0  0  0  0  0  0
    5.6112  -14.7756   26.0081 N   0  0  0  0  0  0  0  0  0  0  0  0
    6.2409  -13.6198   26.2001 C   0  0  0  0  0  0  0  0  0  0  0  0
    5.7669  -12.3373   26.4923 C   0  0  0  0  0  0  0  0  0  0  0  0
    6.6905  -11.3355   26.6306 C   0  0  0  0  0  0  0  0  0  0  0  0
    8.0471  -11.5328   26.4967 C   0  0  0  0  0  0  0  0  0  0  0  0
    8.4980  -12.8115   26.2072 C   0  0  0  0  0  0  0  0  0  0  0  0
    7.5803  -13.8447   26.0619 C   0  0  0  0  0  0  0  0  0  0  0  0
   11.0502  -15.9999   24.0981 C   0  0  0  0  0  0  0  0  0  0  0  0
   11.8812  -15.5150   24.8902 O   0  0  0  0  0  0  0  0  0  0  0  0
   11.4683  -16.9000   23.0878 N   0  0  0  0  0  0  0  0  0  0  0  0
   12.8668  -17.3119   22.9663 C   0  0  0  0  0  0  0  0  0  0  0  0
   12.9753  -18.2468   21.8433 C   0  0  0  0  0  0  0  0  0  0  0  0
   11.9635  -18.5790   21.2015 O   0  0  0  0  0  0  0  0  0  0  0  0
   14.2030  -18.7572   21.4997 O   0  0  0  0  0  0  0  0  0  0  0  0
  2  1  1  6
  2  3  1  0
  4  2  1  0
  5  4  2  0
  6  4  1  0
  7  6  1  0
  8  9  1  0
  7  8  1  1
  9 17  1  0
 10 11  1  0
 10  9  2  0
 11 12  1  0
 12 17  2  0
 12 13  1  0
 13 14  2  0
 14 15  1  0
 16 15  2  0
 17 16  1  0
 18 20  1  0
 18  7  1  0
 19 18  2  0
 21 20  1  0
 22 24  1  0
 22 21  1  0
 23 22  2  0
M  END
$$$$
