AWG.pdb
     RDKit          3D

 24 25  0  0  1  0  0  0  0  0999 V2000
    6.4423  -15.5507   20.3551 C   0  0  0  0  0  0  0  0  0  0  0  0
    7.7051  -16.3431   20.5961 C   0  0  2  0  0  0  0  0  0  0  0  0
    7.3779  -17.7208   20.8801 N   0  0  0  0  0  0  0  0  0  0  0  0
    8.4241  -15.6928   21.7141 C   0  0  0  0  0  0  0  0  0  0  0  0
    8.7878  -14.4955   21.5258 O   0  0  0  0  0  0  0  0  0  0  0  0
    8.7208  -16.3010   22.9367 N   0  0  0  0  0  0  0  0  0  0  0  0
    9.4919  -15.5768   23.9286 C   0  0  1  0  0  0  0  0  0  0  0  0
    9.0356  -15.7426   25.3247 C   0  0  0  0  0  0  0  0  0  0  0  0
    7.6912  -15.2241   25.5862 C   0  0  0  0  0  0  0  0  0  0  0  0
    6.4563  -15.8113   25.5319 C   0  0  0  0  0  0  0  0  0  0  0  0
    5.5456  -14.8625   25.8657 N   0  0  0  0  0  0  0  0  0  0  0  0
    6.1477  -13.7055   26.1271 C   0  0  0  0  0  0  0  0  0  0  0  0
    5.6442  -12.4571   26.5051 C   0  0  0  0  0  0  0  0  0  0  0  0
    6.5434  -11.4428   26.7007 C   0  0  0  0  0  0  0  0  0  0  0  0
    7.9033  -11.5961   26.5440 C   0  0  0  0  0  0  0  0  0  0  0  0
    8.3836  -12.8414   26.1691 C   0  0  0  0  0  0  0  0  0  0  0  0
    7.4909  -13.8865   25.9645 C   0  0  0  0  0  0  0  0  0  0  0  0
   10.9468  -15.9724   23.7920 C   0  0  0  0  0  0  0  0  0  0  0  0
   11.8656  -15.1304   23.7849 O   0  0  0  0  0  0  0  0  0  0  0  0
   11.2425  -17.3521   23.6702 N   0  0  0  0  0  0  0  0  0  0  0  0
   12.6210  -17.8280   23.5544 C   0  0  0  0  0  0  0  0  0  0  0  0
   12.5991  -19.2919   23.4935 C   0  0  0  0  0  0  0  0  0  0  0  0
   11.5178  -19.9024   23.4300 O   0  0  0  0  0  0  0  0  0  0  0  0
   13.7811  -19.9907   23.5065 O   0  0  0  0  0  0  0  0  0  0  0  0
  2  1  1  1
  2  3  1  0
  4  2  1  0
  5  4  2  0
  6  4  1  0
  7  6  1  0
  8  9  1  0
  7  8  1  1
  9 17  1  0
 10 11  1  0
 10  9  2  0
 11 12  1  0
 12 17  2  0
 12 13  1  0
 13 14  2  0
 14 15  1  0
 16 15  2  0
 17 16  1  0
 18 20  1  0
 18  7  1  0
 19 18  2  0
 21 20  1  0
 22 24  1  0
 22 21  1  0
 23 22  2  0
M  END
$$$$
