AWG.pdb
     RDKit          3D

 24 25  0  0  1  0  0  0  0  0999 V2000
    7.1623  -14.2322   20.9726 C   0  0  0  0  0  0  0  0  0  0  0  0
    8.1706  -15.3477   21.1126 C   0  0  2  0  0  0  0  0  0  0  0  0
    7.5007  -16.6268   21.0825 N   0  0  0  0  0  0  0  0  0  0  0  0
    8.8995  -15.1232   22.3807 C   0  0  0  0  0  0  0  0  0  0  0  0
    9.5006  -14.0154   22.4933 O   0  0  0  0  0  0  0  0  0  0  0  0
    8.9657  -16.0342   23.4382 N   0  0  0  0  0  0  0  0  0  0  0  0
    9.7304  -15.7007   24.6243 C   0  0  1  0  0  0  0  0  0  0  0  0
    9.0189  -15.8902   25.9059 C   0  0  0  0  0  0  0  0  0  0  0  0
    7.7038  -15.2488   25.9671 C   0  0  0  0  0  0  0  0  0  0  0  0
    6.4363  -15.7415   25.8140 C   0  0  0  0  0  0  0  0  0  0  0  0
    5.5798  -14.6999   25.9642 N   0  0  0  0  0  0  0  0  0  0  0  0
    6.2471  -13.5746   26.2040 C   0  0  0  0  0  0  0  0  0  0  0  0
    5.8149  -12.2630   26.4225 C   0  0  0  0  0  0  0  0  0  0  0  0
    6.7714  -11.3079   26.6431 C   0  0  0  0  0  0  0  0  0  0  0  0
    8.1218  -11.5785   26.6592 C   0  0  0  0  0  0  0  0  0  0  0  0
    8.5311  -12.8851   26.4408 C   0  0  0  0  0  0  0  0  0  0  0  0
    7.5794  -13.8720   26.2145 C   0  0  0  0  0  0  0  0  0  0  0  0
   11.0192  -16.4948   24.6068 C   0  0  0  0  0  0  0  0  0  0  0  0
   11.7498  -16.5964   25.6113 O   0  0  0  0  0  0  0  0  0  0  0  0
   11.3801  -17.1323   23.3948 N   0  0  0  0  0  0  0  0  0  0  0  0
   12.5380  -18.0232   23.3184 C   0  0  0  0  0  0  0  0  0  0  0  0
   13.7083  -17.2259   22.9420 C   0  0  0  0  0  0  0  0  0  0  0  0
   13.6140  -15.9928   22.8127 O   0  0  0  0  0  0  0  0  0  0  0  0
   14.9150  -17.8468   22.7317 O   0  0  0  0  0  0  0  0  0  0  0  0
  2  1  1  1
  2  3  1  0
  4  2  1  0
  5  4  2  0
  6  4  1  0
  7  6  1  0
  8  9  1  0
  7  8  1  1
  9 17  1  0
 10 11  1  0
 10  9  2  0
 11 12  1  0
 12 17  2  0
 12 13  1  0
 13 14  2  0
 14 15  1  0
 16 15  2  0
 17 16  1  0
 18 20  1  0
 18  7  1  0
 19 18  2  0
 21 20  1  0
 22 24  1  0
 22 21  1  0
 23 22  2  0
M  END
$$$$
