AWG.pdb
     RDKit          3D

 24 25  0  0  1  0  0  0  0  0999 V2000
    6.7391  -14.2757   20.8523 C   0  0  0  0  0  0  0  0  0  0  0  0
    7.6700  -15.4644   20.8840 C   0  0  2  0  0  0  0  0  0  0  0  0
    6.9136  -16.6802   21.0718 N   0  0  0  0  0  0  0  0  0  0  0  0
    8.6418  -15.2312   21.9754 C   0  0  0  0  0  0  0  0  0  0  0  0
    9.4386  -14.2607   21.8187 O   0  0  0  0  0  0  0  0  0  0  0  0
    8.7347  -15.9954   23.1415 N   0  0  0  0  0  0  0  0  0  0  0  0
    9.7436  -15.6720   24.1317 C   0  0  1  0  0  0  0  0  0  0  0  0
    9.2893  -15.7338   25.5368 C   0  0  0  0  0  0  0  0  0  0  0  0
    7.9597  -15.1650   25.7671 C   0  0  0  0  0  0  0  0  0  0  0  0
    6.7086  -15.7190   25.7376 C   0  0  0  0  0  0  0  0  0  0  0  0
    5.8245  -14.7293   26.0202 N   0  0  0  0  0  0  0  0  0  0  0  0
    6.4587  -13.5782   26.2258 C   0  0  0  0  0  0  0  0  0  0  0  0
    5.9901  -12.2988   26.5391 C   0  0  0  0  0  0  0  0  0  0  0  0
    6.9173  -11.3018   26.6872 C   0  0  0  0  0  0  0  0  0  0  0  0
    8.2727  -11.5011   26.5434 C   0  0  0  0  0  0  0  0  0  0  0  0
    8.7182  -12.7768   26.2329 C   0  0  0  0  0  0  0  0  0  0  0  0
    7.7966  -13.8051   26.0774 C   0  0  0  0  0  0  0  0  0  0  0  0
   10.9384  -16.5766   23.9166 C   0  0  0  0  0  0  0  0  0  0  0  0
   11.0368  -17.6887   24.4704 O   0  0  0  0  0  0  0  0  0  0  0  0
   11.9616  -16.1170   23.0521 N   0  0  0  0  0  0  0  0  0  0  0  0
   13.1591  -16.9175   22.7965 C   0  0  0  0  0  0  0  0  0  0  0  0
   14.2942  -16.2734   23.4627 C   0  0  0  0  0  0  0  0  0  0  0  0
   14.4090  -16.3246   24.6998 O   0  0  0  0  0  0  0  0  0  0  0  0
   15.2353  -15.6105   22.7139 O   0  0  0  0  0  0  0  0  0  0  0  0
  2  1  1  1
  2  3  1  0
  4  2  1  0
  5  4  2  0
  6  4  1  0
  7  6  1  0
  8  9  1  0
  7  8  1  1
  9 17  1  0
 10 11  1  0
 10  9  2  0
 11 12  1  0
 12 17  2  0
 12 13  1  0
 13 14  2  0
 14 15  1  0
 16 15  2  0
 17 16  1  0
 18 20  1  0
 18  7  1  0
 19 18  2  0
 21 20  1  0
 22 24  1  0
 22 21  1  0
 23 22  2  0
M  END
$$$$
