AWG.pdb
     RDKit          3D

 24 25  0  0  1  0  0  0  0  0999 V2000
   10.3382  -17.3701   19.3889 C   0  0  0  0  0  0  0  0  0  0  0  0
   10.8776  -17.9122   20.6911 C   0  0  2  0  0  0  0  0  0  0  0  0
   10.3731  -19.2462   20.9184 N   0  0  0  0  0  0  0  0  0  0  0  0
   10.4767  -16.9688   21.7584 C   0  0  0  0  0  0  0  0  0  0  0  0
   10.9250  -15.7894   21.6616 O   0  0  0  0  0  0  0  0  0  0  0  0
    9.6536  -17.2881   22.8414 N   0  0  0  0  0  0  0  0  0  0  0  0
    9.3018  -16.2599   23.8016 C   0  0  1  0  0  0  0  0  0  0  0  0
    7.8569  -15.9678   23.9103 C   0  0  0  0  0  0  0  0  0  0  0  0
    7.1953  -15.7085   22.6299 C   0  0  0  0  0  0  0  0  0  0  0  0
    6.3898  -16.4843   21.8412 C   0  0  0  0  0  0  0  0  0  0  0  0
    6.0595  -15.7437   20.7533 N   0  0  0  0  0  0  0  0  0  0  0  0
    6.6189  -14.5387   20.8186 C   0  0  0  0  0  0  0  0  0  0  0  0
    6.5764  -13.4429   19.9513 C   0  0  0  0  0  0  0  0  0  0  0  0
    7.2770  -12.3221   20.3097 C   0  0  0  0  0  0  0  0  0  0  0  0
    8.0115  -12.2276   21.4712 C   0  0  0  0  0  0  0  0  0  0  0  0
    8.0414  -13.3244   22.3187 C   0  0  0  0  0  0  0  0  0  0  0  0
    7.3386  -14.4734   21.9768 C   0  0  0  0  0  0  0  0  0  0  0  0
    9.8718  -16.6438   25.1506 C   0  0  0  0  0  0  0  0  0  0  0  0
    9.3984  -16.2101   26.2187 O   0  0  0  0  0  0  0  0  0  0  0  0
   10.9790  -17.5267   25.1673 N   0  0  0  0  0  0  0  0  0  0  0  0
   11.5195  -18.0465   26.4234 C   0  0  0  0  0  0  0  0  0  0  0  0
   12.6662  -18.9036   26.1115 C   0  0  0  0  0  0  0  0  0  0  0  0
   13.0137  -19.0842   24.9314 O   0  0  0  0  0  0  0  0  0  0  0  0
   13.3593  -19.5095   27.1305 O   0  0  0  0  0  0  0  0  0  0  0  0
  2  1  1  6
  2  3  1  0
  4  2  1  0
  5  4  2  0
  6  4  1  0
  7  6  1  0
  8  9  1  0
  7  8  1  1
  9 17  1  0
 10 11  1  0
 10  9  2  0
 11 12  1  0
 12 17  2  0
 12 13  1  0
 13 14  2  0
 14 15  1  0
 16 15  2  0
 17 16  1  0
 18 20  1  0
 18  7  1  0
 19 18  2  0
 21 20  1  0
 22 24  1  0
 22 21  1  0
 23 22  2  0
M  END
$$$$
