AWG.pdb
     RDKit          3D

 24 25  0  0  1  0  0  0  0  0999 V2000
    7.8256  -18.3513   20.4590 C   0  0  0  0  0  0  0  0  0  0  0  0
    7.0677  -17.3129   21.2514 C   0  0  2  0  0  0  0  0  0  0  0  0
    6.2311  -16.5319   20.3706 N   0  0  0  0  0  0  0  0  0  0  0  0
    8.0692  -16.4843   21.9588 C   0  0  0  0  0  0  0  0  0  0  0  0
    8.5604  -15.5186   21.3050 O   0  0  0  0  0  0  0  0  0  0  0  0
    8.4979  -16.6938   23.2721 N   0  0  0  0  0  0  0  0  0  0  0  0
    9.4839  -15.8042   23.8545 C   0  0  1  0  0  0  0  0  0  0  0  0
    9.2773  -15.4838   25.2825 C   0  0  0  0  0  0  0  0  0  0  0  0
    7.9234  -15.0325   25.6104 C   0  0  0  0  0  0  0  0  0  0  0  0
    6.7378  -15.7052   25.7321 C   0  0  0  0  0  0  0  0  0  0  0  0
    5.7871  -14.7895   26.0463 N   0  0  0  0  0  0  0  0  0  0  0  0
    6.3169  -13.5721   26.1278 C   0  0  0  0  0  0  0  0  0  0  0  0
    5.7511  -12.3267   26.4167 C   0  0  0  0  0  0  0  0  0  0  0  0
    6.5816  -11.2377   26.4208 C   0  0  0  0  0  0  0  0  0  0  0  0
    7.9313  -11.3141   26.1567 C   0  0  0  0  0  0  0  0  0  0  0  0
    8.4742  -12.5578   25.8727 C   0  0  0  0  0  0  0  0  0  0  0  0
    7.6518  -13.6778   25.8623 C   0  0  0  0  0  0  0  0  0  0  0  0
   10.8592  -16.3975   23.6340 C   0  0  0  0  0  0  0  0  0  0  0  0
   11.1110  -17.5949   23.8706 O   0  0  0  0  0  0  0  0  0  0  0  0
   11.8724  -15.5392   23.1417 N   0  0  0  0  0  0  0  0  0  0  0  0
   13.1590  -16.0639   22.6842 C   0  0  0  0  0  0  0  0  0  0  0  0
   14.0536  -16.1622   23.8406 C   0  0  0  0  0  0  0  0  0  0  0  0
   13.6428  -16.6347   24.9150 O   0  0  0  0  0  0  0  0  0  0  0  0
   15.3525  -15.7296   23.7342 O   0  0  0  0  0  0  0  0  0  0  0  0
  2  1  1  6
  2  3  1  0
  4  2  1  0
  5  4  2  0
  6  4  1  0
  7  6  1  0
  8  9  1  0
  7  8  1  1
  9 17  1  0
 10 11  1  0
 10  9  2  0
 11 12  1  0
 12 17  2  0
 12 13  1  0
 13 14  2  0
 14 15  1  0
 16 15  2  0
 17 16  1  0
 18 20  1  0
 18  7  1  0
 19 18  2  0
 21 20  1  0
 22 24  1  0
 22 21  1  0
 23 22  2  0
M  END
$$$$
