AWG.pdb
     RDKit          3D

 24 25  0  0  1  0  0  0  0  0999 V2000
    7.8695  -18.2956   20.1373 C   0  0  0  0  0  0  0  0  0  0  0  0
    7.1020  -17.1886   20.8200 C   0  0  2  0  0  0  0  0  0  0  0  0
    6.4358  -16.3686   19.8354 N   0  0  0  0  0  0  0  0  0  0  0  0
    8.0711  -16.4191   21.6315 C   0  0  0  0  0  0  0  0  0  0  0  0
    8.6481  -15.4545   21.0502 O   0  0  0  0  0  0  0  0  0  0  0  0
    8.3834  -16.6823   22.9678 N   0  0  0  0  0  0  0  0  0  0  0  0
    9.3621  -15.8583   23.6505 C   0  0  1  0  0  0  0  0  0  0  0  0
    9.1513  -15.7054   25.1055 C   0  0  0  0  0  0  0  0  0  0  0  0
    7.8233  -15.2109   25.4745 C   0  0  0  0  0  0  0  0  0  0  0  0
    6.6119  -15.8372   25.5900 C   0  0  0  0  0  0  0  0  0  0  0  0
    5.7065  -14.8957   25.9569 N   0  0  0  0  0  0  0  0  0  0  0  0
    6.2892  -13.7060   26.0774 C   0  0  0  0  0  0  0  0  0  0  0  0
    5.7820  -12.4505   26.4254 C   0  0  0  0  0  0  0  0  0  0  0  0
    6.6585  -11.3986   26.4583 C   0  0  0  0  0  0  0  0  0  0  0  0
    7.9994  -11.5213   26.1679 C   0  0  0  0  0  0  0  0  0  0  0  0
    8.4838  -12.7743   25.8253 C   0  0  0  0  0  0  0  0  0  0  0  0
    7.6140  -13.8573   25.7848 C   0  0  0  0  0  0  0  0  0  0  0  0
   10.7421  -16.4124   23.3664 C   0  0  0  0  0  0  0  0  0  0  0  0
   10.9635  -17.6367   23.2939 O   0  0  0  0  0  0  0  0  0  0  0  0
   11.7958  -15.4846   23.1811 N   0  0  0  0  0  0  0  0  0  0  0  0
   13.1109  -15.9114   22.7029 C   0  0  0  0  0  0  0  0  0  0  0  0
   13.8883  -16.3818   23.8525 C   0  0  0  0  0  0  0  0  0  0  0  0
   13.3393  -16.5544   24.9547 O   0  0  0  0  0  0  0  0  0  0  0  0
   15.2306  -16.6331   23.7085 O   0  0  0  0  0  0  0  0  0  0  0  0
  2  1  1  6
  2  3  1  0
  4  2  1  0
  5  4  2  0
  6  4  1  0
  7  6  1  0
  8  9  1  0
  7  8  1  1
  9 17  1  0
 10 11  1  0
 10  9  2  0
 11 12  1  0
 12 17  2  0
 12 13  1  0
 13 14  2  0
 14 15  1  0
 16 15  2  0
 17 16  1  0
 18 20  1  0
 18  7  1  0
 19 18  2  0
 21 20  1  0
 22 24  1  0
 22 21  1  0
 23 22  2  0
M  END
$$$$
