LWP.pdb
     RDKit          3D

 30 32  0  0  1  0  0  0  0  0999 V2000
   27.2943  -22.7459  -15.5303 C   0  0  0  0  0  0  0  0  0  0  0  0
   26.0270  -22.5799  -14.7189 C   0  0  1  0  0  0  0  0  0  0  0  0
   25.6963  -23.8464  -13.9865 C   0  0  0  0  0  0  0  0  0  0  0  0
   26.1957  -21.3883  -13.8178 C   0  0  0  0  0  0  0  0  0  0  0  0
   25.0094  -21.1859  -12.9080 C   0  0  2  0  0  0  0  0  0  0  0  0
   23.7971  -20.8659  -13.6090 N   0  0  0  0  0  0  0  0  0  0  0  0
   25.2588  -20.2269  -11.8335 C   0  0  0  0  0  0  0  0  0  0  0  0
   25.4473  -19.0000  -12.1207 O   0  0  0  0  0  0  0  0  0  0  0  0
   25.2959  -20.6195  -10.4980 N   0  0  0  0  0  0  0  0  0  0  0  0
   25.5687  -19.6805   -9.3695 C   0  0  1  0  0  0  0  0  0  0  0  0
   24.1625  -19.2899   -8.9452 C   0  0  0  0  0  0  0  0  0  0  0  0
   23.2705  -20.3702   -8.5626 C   0  0  0  0  0  0  0  0  0  0  0  0
   23.3324  -21.0801   -7.3758 C   0  0  0  0  0  0  0  0  0  0  0  0
   22.3592  -22.0322   -7.3788 N   0  0  0  0  0  0  0  0  0  0  0  0
   21.6914  -21.9349   -8.5370 C   0  0  0  0  0  0  0  0  0  0  0  0
   20.6277  -22.6521   -9.0394 C   0  0  0  0  0  0  0  0  0  0  0  0
   20.1072  -22.3574  -10.2794 C   0  0  0  0  0  0  0  0  0  0  0  0
   20.6361  -21.3438  -11.0412 C   0  0  0  0  0  0  0  0  0  0  0  0
   21.7045  -20.6271  -10.5311 C   0  0  0  0  0  0  0  0  0  0  0  0
   22.2310  -20.9270   -9.2742 C   0  0  0  0  0  0  0  0  0  0  0  0
   26.3330  -20.3671   -8.3289 C   0  0  0  0  0  0  0  0  0  0  0  0
   26.4675  -21.6395   -8.4889 O   0  0  0  0  0  0  0  0  0  0  0  0
   26.9398  -19.8378   -7.1929 N   0  0  0  0  0  0  0  0  0  0  0  0
   26.8652  -18.4864   -6.6692 C   0  0  0  0  0  0  0  0  0  0  0  0
   28.1983  -18.2349   -6.0034 C   0  0  0  0  0  0  0  0  0  0  0  0
   28.9612  -19.5105   -6.2205 C   0  0  0  0  0  0  0  0  0  0  0  0
   27.8530  -20.5416   -6.2697 C   0  0  1  0  0  0  0  0  0  0  0  0
   27.2988  -20.6670   -4.9164 C   0  0  0  0  0  0  0  0  0  0  0  0
   26.1940  -20.1101   -4.6956 O   0  0  0  0  0  0  0  0  0  0  0  0
   27.8973  -21.3488   -3.8693 O   0  0  0  0  0  0  0  0  0  0  0  0
  2  3  1  1
  2  1  1  0
  4  2  1  0
  5  4  1  0
  5  6  1  6
  7  8  2  0
  7  5  1  0
  9  7  1  0
 10  9  1  0
 10 11  1  1
 11 12  1  0
 12 13  2  0
 12 20  1  0
 13 14  1  0
 14 15  1  0
 15 16  2  0
 16 17  1  0
 18 17  2  0
 19 18  1  0
 20 19  2  0
 20 15  1  0
 21 10  1  0
 22 21  2  0
 23 27  1  0
 23 21  1  0
 24 23  1  0
 25 26  1  0
 25 24  1  0
 26 27  1  0
 27 28  1  1
 28 29  2  0
 28 30  1  0
M  END
$$$$
