LWP.pdb
     RDKit          3D

 30 32  0  0  1  0  0  0  0  0999 V2000
   31.8997  -22.4008  -19.1639 C   0  0  0  0  0  0  0  0  0  0  0  0
   30.6669  -21.5564  -18.9208 C   0  0  1  0  0  0  0  0  0  0  0  0
   30.0049  -21.1981  -20.2182 C   0  0  0  0  0  0  0  0  0  0  0  0
   29.7681  -22.2956  -17.9688 C   0  0  0  0  0  0  0  0  0  0  0  0
   28.6196  -21.4440  -17.4876 C   0  0  2  0  0  0  0  0  0  0  0  0
   28.9084  -20.0368  -17.4912 N   0  0  0  0  0  0  0  0  0  0  0  0
   28.0887  -21.8637  -16.1921 C   0  0  0  0  0  0  0  0  0  0  0  0
   28.0057  -23.1061  -15.9222 O   0  0  0  0  0  0  0  0  0  0  0  0
   27.6691  -20.9382  -15.2400 N   0  0  0  0  0  0  0  0  0  0  0  0
   26.9563  -21.3136  -13.9827 C   0  0  1  0  0  0  0  0  0  0  0  0
   27.6239  -20.4032  -12.9651 C   0  0  0  0  0  0  0  0  0  0  0  0
   27.0130  -20.3334  -11.6494 C   0  0  0  0  0  0  0  0  0  0  0  0
   25.7015  -19.9733  -11.3914 C   0  0  0  0  0  0  0  0  0  0  0  0
   25.4944  -19.9919  -10.0459 N   0  0  0  0  0  0  0  0  0  0  0  0
   26.6429  -20.3542   -9.4573 C   0  0  0  0  0  0  0  0  0  0  0  0
   26.9736  -20.5251   -8.1307 C   0  0  0  0  0  0  0  0  0  0  0  0
   28.2453  -20.9094   -7.7696 C   0  0  0  0  0  0  0  0  0  0  0  0
   29.2102  -21.1306   -8.7222 C   0  0  0  0  0  0  0  0  0  0  0  0
   28.8720  -20.9573  -10.0530 C   0  0  0  0  0  0  0  0  0  0  0  0
   27.5826  -20.5676  -10.4174 C   0  0  0  0  0  0  0  0  0  0  0  0
   25.5216  -21.0775  -14.1386 C   0  0  0  0  0  0  0  0  0  0  0  0
   25.2012  -19.9542  -14.6846 O   0  0  0  0  0  0  0  0  0  0  0  0
   24.4542  -21.8986  -13.7845 N   0  0  0  0  0  0  0  0  0  0  0  0
   24.4772  -23.1593  -13.0660 C   0  0  0  0  0  0  0  0  0  0  0  0
   23.3204  -23.9611  -13.6160 C   0  0  0  0  0  0  0  0  0  0  0  0
   22.7136  -23.0613  -14.6545 C   0  0  0  0  0  0  0  0  0  0  0  0
   23.0292  -21.6843  -14.1086 C   0  0  1  0  0  0  0  0  0  0  0  0
   22.2046  -21.4781  -12.9121 C   0  0  0  0  0  0  0  0  0  0  0  0
   22.7455  -21.6952  -11.7987 O   0  0  0  0  0  0  0  0  0  0  0  0
   20.8822  -21.0645  -12.9162 O   0  0  0  0  0  0  0  0  0  0  0  0
  2  3  1  6
  2  1  1  0
  4  2  1  0
  5  4  1  0
  5  6  1  1
  7  8  2  0
  7  5  1  0
  9  7  1  0
 10  9  1  0
 10 11  1  1
 11 12  1  0
 12 13  2  0
 12 20  1  0
 13 14  1  0
 14 15  1  0
 15 16  2  0
 16 17  1  0
 18 17  2  0
 19 18  1  0
 20 19  2  0
 20 15  1  0
 21 10  1  0
 22 21  2  0
 23 27  1  0
 23 21  1  0
 24 23  1  0
 25 26  1  0
 25 24  1  0
 26 27  1  0
 27 28  1  1
 28 29  2  0
 28 30  1  0
M  END
$$$$
