LWP.pdb
     RDKit          3D

 30 32  0  0  1  0  0  0  0  0999 V2000
   25.7215  -14.4431  -16.0166 C   0  0  0  0  0  0  0  0  0  0  0  0
   26.9577  -15.3126  -15.9288 C   0  0  1  0  0  0  0  0  0  0  0  0
   28.0146  -14.6496  -15.0963 C   0  0  0  0  0  0  0  0  0  0  0  0
   26.5481  -16.6660  -15.4181 C   0  0  0  0  0  0  0  0  0  0  0  0
   27.7270  -17.5890  -15.2330 C   0  0  2  0  0  0  0  0  0  0  0  0
   28.4923  -17.7891  -16.4322 N   0  0  0  0  0  0  0  0  0  0  0  0
   27.3724  -18.8683  -14.6216 C   0  0  0  0  0  0  0  0  0  0  0  0
   27.0849  -19.8605  -15.3675 O   0  0  0  0  0  0  0  0  0  0  0  0
   27.3402  -19.0333  -13.2392 N   0  0  0  0  0  0  0  0  0  0  0  0
   27.0012  -20.3245  -12.5702 C   0  0  1  0  0  0  0  0  0  0  0  0
   27.7374  -20.1902  -11.2474 C   0  0  0  0  0  0  0  0  0  0  0  0
   26.9318  -20.2535  -10.0407 C   0  0  0  0  0  0  0  0  0  0  0  0
   25.5786  -19.9720   -9.9632 C   0  0  0  0  0  0  0  0  0  0  0  0
   25.1719  -20.1084   -8.6711 N   0  0  0  0  0  0  0  0  0  0  0  0
   26.2363  -20.4680   -7.9400 C   0  0  0  0  0  0  0  0  0  0  0  0
   26.3715  -20.7316   -6.5944 C   0  0  0  0  0  0  0  0  0  0  0  0
   27.5931  -21.0893   -6.0699 C   0  0  0  0  0  0  0  0  0  0  0  0
   28.7016  -21.1909   -6.8752 C   0  0  0  0  0  0  0  0  0  0  0  0
   28.5594  -20.9248   -8.2259 C   0  0  0  0  0  0  0  0  0  0  0  0
   27.3206  -20.5624   -8.7560 C   0  0  0  0  0  0  0  0  0  0  0  0
   25.5503  -20.4437  -12.4321 C   0  0  0  0  0  0  0  0  0  0  0  0
   24.9207  -19.3372  -12.2271 O   0  0  0  0  0  0  0  0  0  0  0  0
   24.7539  -21.5841  -12.4966 N   0  0  0  0  0  0  0  0  0  0  0  0
   25.1443  -22.9742  -12.3505 C   0  0  0  0  0  0  0  0  0  0  0  0
   24.2024  -23.7557  -13.2369 C   0  0  0  0  0  0  0  0  0  0  0  0
   23.3229  -22.7044  -13.8514 C   0  0  0  0  0  0  0  0  0  0  0  0
   23.3050  -21.6352  -12.7789 C   0  0  1  0  0  0  0  0  0  0  0  0
   22.5286  -22.1520  -11.6456 C   0  0  0  0  0  0  0  0  0  0  0  0
   21.2763  -22.1231  -11.7480 O   0  0  0  0  0  0  0  0  0  0  0  0
   23.0678  -22.6664  -10.4776 O   0  0  0  0  0  0  0  0  0  0  0  0
  2  3  1  1
  2  1  1  0
  4  2  1  0
  5  4  1  0
  5  6  1  6
  7  8  2  0
  7  5  1  0
  9  7  1  0
 10  9  1  0
 10 11  1  1
 11 12  1  0
 12 13  2  0
 12 20  1  0
 13 14  1  0
 14 15  1  0
 15 16  2  0
 16 17  1  0
 18 17  2  0
 19 18  1  0
 20 19  2  0
 20 15  1  0
 21 10  1  0
 22 21  2  0
 23 27  1  0
 23 21  1  0
 24 23  1  0
 25 26  1  0
 25 24  1  0
 26 27  1  0
 27 28  1  1
 28 29  2  0
 28 30  1  0
M  END
$$$$
