LWP.pdb
     RDKit          3D

 30 32  0  0  1  0  0  0  0  0999 V2000
   20.5955  -17.5472  -15.9001 C   0  0  0  0  0  0  0  0  0  0  0  0
   22.0974  -17.3696  -15.8311 C   0  0  1  0  0  0  0  0  0  0  0  0
   22.4473  -16.0144  -15.2919 C   0  0  0  0  0  0  0  0  0  0  0  0
   22.6710  -18.5046  -15.0291 C   0  0  0  0  0  0  0  0  0  0  0  0
   24.1633  -18.3796  -14.8462 C   0  0  2  0  0  0  0  0  0  0  0  0
   24.8914  -18.3406  -16.0839 N   0  0  0  0  0  0  0  0  0  0  0  0
   24.7236  -19.3833  -13.9434 C   0  0  0  0  0  0  0  0  0  0  0  0
   24.6381  -20.6174  -14.2487 O   0  0  0  0  0  0  0  0  0  0  0  0
   25.3516  -19.0259  -12.7531 N   0  0  0  0  0  0  0  0  0  0  0  0
   25.9008  -20.0167  -11.7803 C   0  0  1  0  0  0  0  0  0  0  0  0
   26.9453  -19.1879  -11.0508 C   0  0  0  0  0  0  0  0  0  0  0  0
   27.7119  -19.8627  -10.0184 C   0  0  0  0  0  0  0  0  0  0  0  0
   28.4531  -21.0184  -10.1949 C   0  0  0  0  0  0  0  0  0  0  0  0
   29.0093  -21.3732   -9.0040 N   0  0  0  0  0  0  0  0  0  0  0  0
   28.6344  -20.4687   -8.0885 C   0  0  0  0  0  0  0  0  0  0  0  0
   28.9158  -20.3613   -6.7440 C   0  0  0  0  0  0  0  0  0  0  0  0
   28.4028  -19.3214   -6.0018 C   0  0  0  0  0  0  0  0  0  0  0  0
   27.6010  -18.3701   -6.5845 C   0  0  0  0  0  0  0  0  0  0  0  0
   27.3220  -18.4834   -7.9353 C   0  0  0  0  0  0  0  0  0  0  0  0
   27.8426  -19.5380   -8.6862 C   0  0  0  0  0  0  0  0  0  0  0  0
   24.8274  -20.5101  -10.9184 C   0  0  0  0  0  0  0  0  0  0  0  0
   23.8772  -19.6712  -10.6816 O   0  0  0  0  0  0  0  0  0  0  0  0
   24.6860  -21.7607  -10.3225 N   0  0  0  0  0  0  0  0  0  0  0  0
   25.6289  -22.8633  -10.2900 C   0  0  0  0  0  0  0  0  0  0  0  0
   24.7863  -24.1176  -10.2720 C   0  0  0  0  0  0  0  0  0  0  0  0
   23.3735  -23.6088  -10.3095 C   0  0  0  0  0  0  0  0  0  0  0  0
   23.4966  -22.2709   -9.6107 C   0  0  1  0  0  0  0  0  0  0  0  0
   23.7592  -22.5310   -8.1902 C   0  0  0  0  0  0  0  0  0  0  0  0
   24.7971  -23.1814   -7.9090 O   0  0  0  0  0  0  0  0  0  0  0  0
   22.9545  -22.1166   -7.1413 O   0  0  0  0  0  0  0  0  0  0  0  0
  2  3  1  1
  2  1  1  0
  4  2  1  0
  5  4  1  0
  5  6  1  6
  7  8  2  0
  7  5  1  0
  9  7  1  0
 10  9  1  0
 10 11  1  1
 11 12  1  0
 12 13  2  0
 12 20  1  0
 13 14  1  0
 14 15  1  0
 15 16  2  0
 16 17  1  0
 18 17  2  0
 19 18  1  0
 20 19  2  0
 20 15  1  0
 21 10  1  0
 22 21  2  0
 23 27  1  0
 23 21  1  0
 24 23  1  0
 25 26  1  0
 25 24  1  0
 26 27  1  0
 27 28  1  1
 28 29  2  0
 28 30  1  0
M  END
$$$$
