LWP.pdb
     RDKit          3D

 30 32  0  0  1  0  0  0  0  0999 V2000
   20.1605  -18.7771  -14.5311 C   0  0  0  0  0  0  0  0  0  0  0  0
   20.5748  -20.0021  -13.7440 C   0  0  1  0  0  0  0  0  0  0  0  0
   21.1984  -21.0260  -14.6454 C   0  0  0  0  0  0  0  0  0  0  0  0
   21.4715  -19.5610  -12.6207 C   0  0  0  0  0  0  0  0  0  0  0  0
   22.3387  -20.6830  -12.1060 C   0  0  2  0  0  0  0  0  0  0  0  0
   21.7132  -21.4651  -11.0762 N   0  0  0  0  0  0  0  0  0  0  0  0
   23.6699  -20.2445  -11.6913 C   0  0  0  0  0  0  0  0  0  0  0  0
   24.2984  -19.3937  -12.4017 O   0  0  0  0  0  0  0  0  0  0  0  0
   24.2729  -20.7333  -10.5353 N   0  0  0  0  0  0  0  0  0  0  0  0
   25.6194  -20.2970  -10.0594 C   0  0  1  0  0  0  0  0  0  0  0  0
   25.4158  -20.2515   -8.5540 C   0  0  0  0  0  0  0  0  0  0  0  0
   26.4814  -19.6563   -7.7671 C   0  0  0  0  0  0  0  0  0  0  0  0
   27.0274  -18.4013   -7.9744 C   0  0  0  0  0  0  0  0  0  0  0  0
   28.0202  -18.1955   -7.0658 N   0  0  0  0  0  0  0  0  0  0  0  0
   28.1080  -19.2898   -6.2966 C   0  0  0  0  0  0  0  0  0  0  0  0
   28.9375  -19.5981   -5.2406 C   0  0  0  0  0  0  0  0  0  0  0  0
   28.8329  -20.8114   -4.5986 C   0  0  0  0  0  0  0  0  0  0  0  0
   27.9009  -21.7393   -4.9962 C   0  0  0  0  0  0  0  0  0  0  0  0
   27.0707  -21.4237   -6.0576 C   0  0  0  0  0  0  0  0  0  0  0  0
   27.1780  -20.1935   -6.7073 C   0  0  0  0  0  0  0  0  0  0  0  0
   26.6322  -21.2590  -10.4922 C   0  0  0  0  0  0  0  0  0  0  0  0
   26.2651  -22.4950  -10.4755 O   0  0  0  0  0  0  0  0  0  0  0  0
   27.9351  -21.0258  -10.9245 N   0  0  0  0  0  0  0  0  0  0  0  0
   28.6347  -19.7616  -11.0605 C   0  0  0  0  0  0  0  0  0  0  0  0
   29.5870  -19.9472  -12.2190 C   0  0  0  0  0  0  0  0  0  0  0  0
   29.3349  -21.3554  -12.6768 C   0  0  0  0  0  0  0  0  0  0  0  0
   28.9043  -22.0365  -11.3944 C   0  0  1  0  0  0  0  0  0  0  0  0
   30.0817  -22.1350  -10.5235 C   0  0  0  0  0  0  0  0  0  0  0  0
   31.1175  -21.5240  -10.8887 O   0  0  0  0  0  0  0  0  0  0  0  0
   30.1382  -22.8464   -9.3360 O   0  0  0  0  0  0  0  0  0  0  0  0
  2  3  1  6
  2  1  1  0
  4  2  1  0
  5  4  1  0
  5  6  1  1
  7  8  2  0
  7  5  1  0
  9  7  1  0
 10  9  1  0
 10 11  1  1
 11 12  1  0
 12 13  2  0
 12 20  1  0
 13 14  1  0
 14 15  1  0
 15 16  2  0
 16 17  1  0
 18 17  2  0
 19 18  1  0
 20 19  2  0
 20 15  1  0
 21 10  1  0
 22 21  2  0
 23 27  1  0
 23 21  1  0
 24 23  1  0
 25 26  1  0
 25 24  1  0
 26 27  1  0
 27 28  1  1
 28 29  2  0
 28 30  1  0
M  END
$$$$
