HAF.pdb
     RDKit          3D

 27 28  0  0  1  0  0  0  0  0999 V2000
   29.5945  -14.6063  -19.4557 N   0  0  0  0  0  0  0  0  0  0  0  0
   29.7826  -15.9757  -19.0130 C   0  0  1  0  0  0  0  0  0  0  0  0
   31.1876  -16.0525  -18.4275 C   0  0  0  0  0  0  0  0  0  0  0  0
   32.1906  -16.3511  -19.4724 C   0  0  0  0  0  0  0  0  0  0  0  0
   31.9488  -16.5668  -20.8235 C   0  0  0  0  0  0  0  0  0  0  0  0
   33.1490  -16.8053  -21.4124 N   0  0  0  0  0  0  0  0  0  0  0  0
   34.0957  -16.7439  -20.4856 C   0  0  0  0  0  0  0  0  0  0  0  0
   33.5290  -16.4672  -19.2936 N   0  0  0  0  0  0  0  0  0  0  0  0
   28.8092  -16.2943  -17.9587 C   0  0  0  0  0  0  0  0  0  0  0  0
   28.5732  -15.3738  -17.1038 O   0  0  0  0  0  0  0  0  0  0  0  0
   25.8180  -17.5475  -17.3593 C   0  0  0  0  0  0  0  0  0  0  0  0
   27.2284  -17.7576  -16.7939 C   0  0  2  0  0  0  0  0  0  0  0  0
   28.1450  -17.5464  -17.8608 N   0  0  0  0  0  0  0  0  0  0  0  0
   27.3447  -19.0997  -16.1688 C   0  0  0  0  0  0  0  0  0  0  0  0
   27.3956  -20.1094  -16.9181 O   0  0  0  0  0  0  0  0  0  0  0  0
   27.4012  -19.2994  -14.7738 N   0  0  0  0  0  0  0  0  0  0  0  0
   27.4629  -20.6405  -14.1702 C   0  0  1  0  0  0  0  0  0  0  0  0
   28.0033  -20.4582  -12.7901 C   0  0  0  0  0  0  0  0  0  0  0  0
   27.0022  -20.4596  -11.7239 C   0  0  0  0  0  0  0  0  0  0  0  0
   26.3351  -19.2904  -11.4251 C   0  0  0  0  0  0  0  0  0  0  0  0
   25.3720  -19.2278  -10.4233 C   0  0  0  0  0  0  0  0  0  0  0  0
   25.0753  -20.3546   -9.7125 C   0  0  0  0  0  0  0  0  0  0  0  0
   25.7234  -21.5323   -9.9880 C   0  0  0  0  0  0  0  0  0  0  0  0
   26.6752  -21.5769  -10.9842 C   0  0  0  0  0  0  0  0  0  0  0  0
   26.1376  -21.2944  -14.2189 C   0  0  0  0  0  0  0  0  0  0  0  0
   24.9699  -20.5478  -14.1806 O   0  0  0  0  0  0  0  0  0  0  0  0
   25.9938  -22.5581  -14.2974 O   0  0  0  0  0  0  0  0  0  0  0  0
  2  1  1  1
  2  9  1  0
  2  3  1  0
  4  3  1  0
  5  4  2  0
  6  5  1  0
  7  6  1  0
  7  8  2  0
  8  4  1  0
  9 13  1  0
  9 10  2  0
 12 11  1  6
 13 12  1  0
 14 15  2  0
 14 12  1  0
 16 14  1  0
 17 16  1  0
 17 18  1  1
 19 20  2  0
 19 18  1  0
 21 20  1  0
 22 21  2  0
 23 22  1  0
 23 24  2  0
 24 19  1  0
 25 26  1  0
 25 17  1  0
 27 25  2  0
M  END
$$$$
