HAF.pdb
     RDKit          3D

 27 28  0  0  1  0  0  0  0  0999 V2000
   24.5526  -17.8014  -17.5037 N   0  0  0  0  0  0  0  0  0  0  0  0
   25.0715  -18.8956  -16.7036 C   0  0  1  0  0  0  0  0  0  0  0  0
   26.0352  -18.2775  -15.6975 C   0  0  0  0  0  0  0  0  0  0  0  0
   27.2921  -17.8498  -16.3487 C   0  0  0  0  0  0  0  0  0  0  0  0
   27.6869  -16.5466  -16.6252 C   0  0  0  0  0  0  0  0  0  0  0  0
   28.9030  -16.6151  -17.2256 N   0  0  0  0  0  0  0  0  0  0  0  0
   29.2567  -17.8896  -17.3231 C   0  0  0  0  0  0  0  0  0  0  0  0
   28.2845  -18.6591  -16.7924 N   0  0  0  0  0  0  0  0  0  0  0  0
   23.9712  -19.5418  -15.9741 C   0  0  0  0  0  0  0  0  0  0  0  0
   23.1055  -18.7654  -15.4435 O   0  0  0  0  0  0  0  0  0  0  0  0
   22.4583  -22.8835  -15.7142 C   0  0  0  0  0  0  0  0  0  0  0  0
   22.7120  -21.4769  -15.1573 C   0  0  2  0  0  0  0  0  0  0  0  0
   23.8415  -20.9506  -15.8431 N   0  0  0  0  0  0  0  0  0  0  0  0
   22.8817  -21.5229  -13.6827 C   0  0  0  0  0  0  0  0  0  0  0  0
   21.9091  -21.8964  -12.9771 O   0  0  0  0  0  0  0  0  0  0  0  0
   24.0817  -21.1680  -13.0322 N   0  0  0  0  0  0  0  0  0  0  0  0
   24.1843  -21.0623  -11.5676 C   0  0  1  0  0  0  0  0  0  0  0  0
   25.5878  -20.6474  -11.2712 C   0  0  0  0  0  0  0  0  0  0  0  0
   25.8681  -20.3579   -9.8653 C   0  0  0  0  0  0  0  0  0  0  0  0
   25.9735  -21.4020   -8.9708 C   0  0  0  0  0  0  0  0  0  0  0  0
   26.2394  -21.1915   -7.6217 C   0  0  0  0  0  0  0  0  0  0  0  0
   26.4014  -19.9153   -7.1654 C   0  0  0  0  0  0  0  0  0  0  0  0
   26.3020  -18.8568   -8.0328 C   0  0  0  0  0  0  0  0  0  0  0  0
   26.0380  -19.0831   -9.3668 C   0  0  0  0  0  0  0  0  0  0  0  0
   23.1568  -20.1393  -11.0394 C   0  0  0  0  0  0  0  0  0  0  0  0
   22.4567  -20.4364   -9.8801 O   0  0  0  0  0  0  0  0  0  0  0  0
   22.8603  -19.0382  -11.6079 O   0  0  0  0  0  0  0  0  0  0  0  0
  2  1  1  6
  2  9  1  0
  2  3  1  0
  4  3  1  0
  5  4  2  0
  6  5  1  0
  7  6  1  0
  7  8  2  0
  8  4  1  0
  9 13  1  0
  9 10  2  0
 12 11  1  6
 13 12  1  0
 14 15  2  0
 14 12  1  0
 16 14  1  0
 17 16  1  0
 17 18  1  6
 19 20  2  0
 19 18  1  0
 21 20  1  0
 22 21  2  0
 23 22  1  0
 23 24  2  0
 24 19  1  0
 25 26  1  0
 25 17  1  0
 27 25  2  0
M  END
$$$$
