HAF.pdb
     RDKit          3D

 27 28  0  0  1  0  0  0  0  0999 V2000
   23.9727  -17.6920  -19.8204 N   0  0  0  0  0  0  0  0  0  0  0  0
   23.9696  -17.3245  -18.4163 C   0  0  1  0  0  0  0  0  0  0  0  0
   23.4963  -15.8774  -18.3483 C   0  0  0  0  0  0  0  0  0  0  0  0
   24.4936  -14.9566  -18.9352 C   0  0  0  0  0  0  0  0  0  0  0  0
   25.8541  -14.9131  -18.6568 C   0  0  0  0  0  0  0  0  0  0  0  0
   26.3870  -13.9209  -19.4155 N   0  0  0  0  0  0  0  0  0  0  0  0
   25.4178  -13.3686  -20.1328 C   0  0  0  0  0  0  0  0  0  0  0  0
   24.2533  -13.9885  -19.8526 N   0  0  0  0  0  0  0  0  0  0  0  0
   23.0178  -18.1718  -17.6839 C   0  0  0  0  0  0  0  0  0  0  0  0
   21.8581  -18.3077  -18.2043 O   0  0  0  0  0  0  0  0  0  0  0  0
   23.0429  -20.6798  -15.0000 C   0  0  0  0  0  0  0  0  0  0  0  0
   22.3269  -19.5948  -15.8144 C   0  0  2  0  0  0  0  0  0  0  0  0
   23.3314  -18.8223  -16.4604 N   0  0  0  0  0  0  0  0  0  0  0  0
   21.4319  -18.7933  -14.9414 C   0  0  0  0  0  0  0  0  0  0  0  0
   21.9464  -17.9311  -14.1830 O   0  0  0  0  0  0  0  0  0  0  0  0
   20.0306  -18.9508  -14.9202 N   0  0  0  0  0  0  0  0  0  0  0  0
   19.1553  -18.1187  -14.0787 C   0  0  1  0  0  0  0  0  0  0  0  0
   18.5032  -17.1334  -14.9920 C   0  0  0  0  0  0  0  0  0  0  0  0
   19.3716  -16.0585  -15.4709 C   0  0  0  0  0  0  0  0  0  0  0  0
   19.8521  -15.1300  -14.5719 C   0  0  0  0  0  0  0  0  0  0  0  0
   20.6823  -14.0855  -14.9654 C   0  0  0  0  0  0  0  0  0  0  0  0
   21.0343  -13.9725  -16.2793 C   0  0  0  0  0  0  0  0  0  0  0  0
   20.5710  -14.8821  -17.1963 C   0  0  0  0  0  0  0  0  0  0  0  0
   19.7491  -15.9112  -16.7893 C   0  0  0  0  0  0  0  0  0  0  0  0
   18.2053  -18.9625  -13.3224 C   0  0  0  0  0  0  0  0  0  0  0  0
   17.4715  -18.4434  -12.2667 O   0  0  0  0  0  0  0  0  0  0  0  0
   18.0093  -20.1925  -13.5914 O   0  0  0  0  0  0  0  0  0  0  0  0
  2  1  1  6
  2  9  1  0
  2  3  1  0
  4  3  1  0
  5  4  2  0
  6  5  1  0
  7  6  1  0
  7  8  2  0
  8  4  1  0
  9 13  1  0
  9 10  2  0
 12 11  1  1
 13 12  1  0
 14 15  2  0
 14 12  1  0
 16 14  1  0
 17 16  1  0
 17 18  1  6
 19 20  2  0
 19 18  1  0
 21 20  1  0
 22 21  2  0
 23 22  1  0
 23 24  2  0
 24 19  1  0
 25 26  1  0
 25 17  1  0
 27 25  2  0
M  END
$$$$
