HAF.pdb
     RDKit          3D

 27 28  0  0  1  0  0  0  0  0999 V2000
   18.4748  -15.4156  -16.5958 N   0  0  0  0  0  0  0  0  0  0  0  0
   19.3856  -14.6193  -17.3977 C   0  0  1  0  0  0  0  0  0  0  0  0
   18.5448  -13.9667  -18.4885 C   0  0  0  0  0  0  0  0  0  0  0  0
   18.0727  -14.9637  -19.4733 C   0  0  0  0  0  0  0  0  0  0  0  0
   18.8175  -15.5505  -20.4888 C   0  0  0  0  0  0  0  0  0  0  0  0
   17.9922  -16.4023  -21.1503 N   0  0  0  0  0  0  0  0  0  0  0  0
   16.7935  -16.3563  -20.5846 C   0  0  0  0  0  0  0  0  0  0  0  0
   16.8235  -15.4824  -19.5579 N   0  0  0  0  0  0  0  0  0  0  0  0
   19.9876  -13.5670  -16.5666 C   0  0  0  0  0  0  0  0  0  0  0  0
   19.1912  -12.9114  -15.8117 O   0  0  0  0  0  0  0  0  0  0  0  0
   23.3813  -12.3164  -15.7099 C   0  0  0  0  0  0  0  0  0  0  0  0
   21.8523  -12.2017  -15.7567 C   0  0  2  0  0  0  0  0  0  0  0  0
   21.3757  -13.2642  -16.5734 N   0  0  0  0  0  0  0  0  0  0  0  0
   21.4450  -10.8564  -16.2361 C   0  0  0  0  0  0  0  0  0  0  0  0
   21.4618  -10.6287  -17.4736 O   0  0  0  0  0  0  0  0  0  0  0  0
   21.0394   -9.8188  -15.3714 N   0  0  0  0  0  0  0  0  0  0  0  0
   20.7709   -8.4526  -15.8491 C   0  0  1  0  0  0  0  0  0  0  0  0
   19.2856   -8.3096  -15.9077 C   0  0  0  0  0  0  0  0  0  0  0  0
   18.8015   -6.9711  -16.2439 C   0  0  0  0  0  0  0  0  0  0  0  0
   18.7702   -6.5786  -17.5654 C   0  0  0  0  0  0  0  0  0  0  0  0
   18.3199   -5.3195  -17.9488 C   0  0  0  0  0  0  0  0  0  0  0  0
   17.8955   -4.4435  -16.9921 C   0  0  0  0  0  0  0  0  0  0  0  0
   17.9154   -4.8069  -15.6691 C   0  0  0  0  0  0  0  0  0  0  0  0
   18.3648   -6.0586  -15.3063 C   0  0  0  0  0  0  0  0  0  0  0  0
   21.4403   -7.4580  -14.9836 C   0  0  0  0  0  0  0  0  0  0  0  0
   21.8823   -6.2473  -15.4948 O   0  0  0  0  0  0  0  0  0  0  0  0
   21.6462   -7.6515  -13.7411 O   0  0  0  0  0  0  0  0  0  0  0  0
  2  1  1  1
  2  9  1  0
  2  3  1  0
  4  3  1  0
  5  4  2  0
  6  5  1  0
  7  6  1  0
  7  8  2  0
  8  4  1  0
  9 13  1  0
  9 10  2  0
 12 11  1  6
 13 12  1  0
 14 15  2  0
 14 12  1  0
 16 14  1  0
 17 16  1  0
 17 18  1  1
 19 20  2  0
 19 18  1  0
 21 20  1  0
 22 21  2  0
 23 22  1  0
 23 24  2  0
 24 19  1  0
 25 26  1  0
 25 17  1  0
 27 25  2  0
M  END
$$$$
