HAF.pdb
     RDKit          3D

 27 28  0  0  1  0  0  0  0  0999 V2000
   13.3608  -12.3850  -13.2660 N   0  0  0  0  0  0  0  0  0  0  0  0
   14.1936  -11.4333  -13.9781 C   0  0  1  0  0  0  0  0  0  0  0  0
   13.2498  -10.4046  -14.5896 C   0  0  0  0  0  0  0  0  0  0  0  0
   12.5221  -10.9639  -15.7490 C   0  0  0  0  0  0  0  0  0  0  0  0
   12.4695  -10.4377  -17.0339 C   0  0  0  0  0  0  0  0  0  0  0  0
   11.6927  -11.2685  -17.7759 N   0  0  0  0  0  0  0  0  0  0  0  0
   11.2778  -12.2635  -17.0034 C   0  0  0  0  0  0  0  0  0  0  0  0
   11.7746  -12.0943  -15.7611 N   0  0  0  0  0  0  0  0  0  0  0  0
   15.0904  -10.7539  -13.0323 C   0  0  0  0  0  0  0  0  0  0  0  0
   14.6685  -10.6357  -11.8314 O   0  0  0  0  0  0  0  0  0  0  0  0
   18.5981   -9.5632  -12.9250 C   0  0  0  0  0  0  0  0  0  0  0  0
   17.1567   -9.6007  -12.4016 C   0  0  2  0  0  0  0  0  0  0  0  0
   16.3653  -10.2420  -13.3943 N   0  0  0  0  0  0  0  0  0  0  0  0
   16.6893   -8.2323  -12.0631 C   0  0  0  0  0  0  0  0  0  0  0  0
   16.2023   -7.5198  -12.9788 O   0  0  0  0  0  0  0  0  0  0  0  0
   16.7644   -7.6903  -10.7632 N   0  0  0  0  0  0  0  0  0  0  0  0
   16.2800   -6.3378  -10.4426 C   0  0  1  0  0  0  0  0  0  0  0  0
   14.7933   -6.3784  -10.5774 C   0  0  0  0  0  0  0  0  0  0  0  0
   14.0839   -7.0077   -9.4641 C   0  0  0  0  0  0  0  0  0  0  0  0
   13.7584   -8.3454   -9.5430 C   0  0  0  0  0  0  0  0  0  0  0  0
   13.0852   -9.0009   -8.5172 C   0  0  0  0  0  0  0  0  0  0  0  0
   12.7345   -8.3034   -7.3976 C   0  0  0  0  0  0  0  0  0  0  0  0
   13.0454   -6.9711   -7.2916 C   0  0  0  0  0  0  0  0  0  0  0  0
   13.7129   -6.3368   -8.3175 C   0  0  0  0  0  0  0  0  0  0  0  0
   16.7545   -5.9184   -9.1065 C   0  0  0  0  0  0  0  0  0  0  0  0
   16.4899   -4.6472   -8.6201 O   0  0  0  0  0  0  0  0  0  0  0  0
   17.4216   -6.6858   -8.3386 O   0  0  0  0  0  0  0  0  0  0  0  0
  2  1  1  1
  2  9  1  0
  2  3  1  0
  4  3  1  0
  5  4  2  0
  6  5  1  0
  7  6  1  0
  7  8  2  0
  8  4  1  0
  9 13  1  0
  9 10  2  0
 12 11  1  6
 13 12  1  0
 14 15  2  0
 14 12  1  0
 16 14  1  0
 17 16  1  0
 17 18  1  1
 19 20  2  0
 19 18  1  0
 21 20  1  0
 22 21  2  0
 23 22  1  0
 23 24  2  0
 24 19  1  0
 25 26  1  0
 25 17  1  0
 27 25  2  0
M  END
$$$$
