HAF.pdb
     RDKit          3D

 27 28  0  0  1  0  0  0  0  0999 V2000
   22.1865  -18.1106  -17.0533 N   0  0  0  0  0  0  0  0  0  0  0  0
   23.2881  -17.4803  -16.3490 C   0  0  1  0  0  0  0  0  0  0  0  0
   22.6835  -16.7789  -15.1386 C   0  0  0  0  0  0  0  0  0  0  0  0
   21.7317  -15.7237  -15.5477 C   0  0  0  0  0  0  0  0  0  0  0  0
   21.8864  -14.8198  -16.5915 C   0  0  0  0  0  0  0  0  0  0  0  0
   20.7783  -14.0350  -16.6097 N   0  0  0  0  0  0  0  0  0  0  0  0
   19.9691  -14.4212  -15.6325 C   0  0  0  0  0  0  0  0  0  0  0  0
   20.5350  -15.4521  -14.9725 N   0  0  0  0  0  0  0  0  0  0  0  0
   24.2310  -18.5070  -15.8828 C   0  0  0  0  0  0  0  0  0  0  0  0
   23.7189  -19.5706  -15.3923 O   0  0  0  0  0  0  0  0  0  0  0  0
   27.8340  -19.2634  -16.1853 C   0  0  0  0  0  0  0  0  0  0  0  0
   26.4676  -19.4315  -15.5087 C   0  0  2  0  0  0  0  0  0  0  0  0
   25.6425  -18.3629  -15.9561 N   0  0  0  0  0  0  0  0  0  0  0  0
   26.6201  -19.4853  -14.0324 C   0  0  0  0  0  0  0  0  0  0  0  0
   27.0439  -18.4625  -13.4343 O   0  0  0  0  0  0  0  0  0  0  0  0
   26.3128  -20.6284  -13.2657 N   0  0  0  0  0  0  0  0  0  0  0  0
   26.6548  -20.7367  -11.8380 C   0  0  1  0  0  0  0  0  0  0  0  0
   25.8799  -19.6706  -11.1359 C   0  0  0  0  0  0  0  0  0  0  0  0
   26.0021  -19.6691   -9.6785 C   0  0  0  0  0  0  0  0  0  0  0  0
   25.3039  -20.6036   -8.9432 C   0  0  0  0  0  0  0  0  0  0  0  0
   25.3795  -20.6540   -7.5551 C   0  0  0  0  0  0  0  0  0  0  0  0
   26.1666  -19.7537   -6.8972 C   0  0  0  0  0  0  0  0  0  0  0  0
   26.8727  -18.8123   -7.6030 C   0  0  0  0  0  0  0  0  0  0  0  0
   26.7865  -18.7764   -8.9784 C   0  0  0  0  0  0  0  0  0  0  0  0
   26.3885  -22.1039  -11.3416 C   0  0  0  0  0  0  0  0  0  0  0  0
   25.3208  -22.8448  -11.8248 O   0  0  0  0  0  0  0  0  0  0  0  0
   27.1107  -22.6702  -10.4577 O   0  0  0  0  0  0  0  0  0  0  0  0
  2  1  1  1
  2  9  1  0
  2  3  1  0
  4  3  1  0
  5  4  2  0
  6  5  1  0
  7  6  1  0
  7  8  2  0
  8  4  1  0
  9 13  1  0
  9 10  2  0
 12 11  1  6
 13 12  1  0
 14 15  2  0
 14 12  1  0
 16 14  1  0
 17 16  1  0
 17 18  1  1
 19 20  2  0
 19 18  1  0
 21 20  1  0
 22 21  2  0
 23 22  1  0
 23 24  2  0
 24 19  1  0
 25 26  1  0
 25 17  1  0
 27 25  2  0
M  END
$$$$
