HAF.pdb
     RDKit          3D

 27 28  0  0  1  0  0  0  0  0999 V2000
   26.5087  -17.8949  -18.2451 N   0  0  0  0  0  0  0  0  0  0  0  0
   26.7798  -18.6158  -17.0149 C   0  0  1  0  0  0  0  0  0  0  0  0
   27.6264  -17.6910  -16.1485 C   0  0  0  0  0  0  0  0  0  0  0  0
   28.9719  -17.4919  -16.7288 C   0  0  0  0  0  0  0  0  0  0  0  0
   29.5754  -16.2795  -17.0393 C   0  0  0  0  0  0  0  0  0  0  0  0
   30.8026  -16.5613  -17.5479 N   0  0  0  0  0  0  0  0  0  0  0  0
   30.9654  -17.8775  -17.5582 C   0  0  0  0  0  0  0  0  0  0  0  0
   29.8568  -18.4630  -17.0612 N   0  0  0  0  0  0  0  0  0  0  0  0
   25.5173  -18.8986  -16.3173 C   0  0  0  0  0  0  0  0  0  0  0  0
   24.8039  -17.8873  -15.9975 O   0  0  0  0  0  0  0  0  0  0  0  0
   22.9904  -21.3501  -15.8946 C   0  0  0  0  0  0  0  0  0  0  0  0
   23.9280  -20.3714  -15.1762 C   0  0  2  0  0  0  0  0  0  0  0  0
   25.0782  -20.2113  -15.9974 N   0  0  0  0  0  0  0  0  0  0  0  0
   24.2391  -20.8570  -13.8076 C   0  0  0  0  0  0  0  0  0  0  0  0
   24.8569  -21.9461  -13.6823 O   0  0  0  0  0  0  0  0  0  0  0  0
   23.8756  -20.1567  -12.6387 N   0  0  0  0  0  0  0  0  0  0  0  0
   24.1197  -20.6923  -11.2895 C   0  0  1  0  0  0  0  0  0  0  0  0
   25.1729  -19.8291  -10.6764 C   0  0  0  0  0  0  0  0  0  0  0  0
   26.5031  -19.9516  -11.2717 C   0  0  0  0  0  0  0  0  0  0  0  0
   27.4076  -20.8359  -10.7228 C   0  0  0  0  0  0  0  0  0  0  0  0
   28.6872  -20.9982  -11.2439 C   0  0  0  0  0  0  0  0  0  0  0  0
   29.0628  -20.2626  -12.3305 C   0  0  0  0  0  0  0  0  0  0  0  0
   28.1834  -19.3748  -12.8975 C   0  0  0  0  0  0  0  0  0  0  0  0
   26.9191  -19.2262  -12.3686 C   0  0  0  0  0  0  0  0  0  0  0  0
   22.8602  -20.7500  -10.5170 C   0  0  0  0  0  0  0  0  0  0  0  0
   22.7971  -21.4123   -9.3005 O   0  0  0  0  0  0  0  0  0  0  0  0
   21.7798  -20.2051  -10.9164 O   0  0  0  0  0  0  0  0  0  0  0  0
  2  1  1  6
  2  9  1  0
  2  3  1  0
  4  3  1  0
  5  4  2  0
  6  5  1  0
  7  6  1  0
  7  8  2  0
  8  4  1  0
  9 13  1  0
  9 10  2  0
 12 11  1  6
 13 12  1  0
 14 15  2  0
 14 12  1  0
 16 14  1  0
 17 16  1  0
 17 18  1  1
 19 20  2  0
 19 18  1  0
 21 20  1  0
 22 21  2  0
 23 22  1  0
 23 24  2  0
 24 19  1  0
 25 26  1  0
 25 17  1  0
 27 25  2  0
M  END
$$$$
