HAF.pdb
     RDKit          3D

 27 28  0  0  1  0  0  0  0  0999 V2000
   26.8377  -18.7462  -16.5153 N   0  0  0  0  0  0  0  0  0  0  0  0
   26.4813  -18.5590  -15.1208 C   0  0  1  0  0  0  0  0  0  0  0  0
   25.4198  -17.4658  -15.0881 C   0  0  0  0  0  0  0  0  0  0  0  0
   25.9764  -16.1623  -15.5098 C   0  0  0  0  0  0  0  0  0  0  0  0
   27.0549  -15.4934  -14.9441 C   0  0  0  0  0  0  0  0  0  0  0  0
   27.2205  -14.3392  -15.6402 N   0  0  0  0  0  0  0  0  0  0  0  0
   26.2986  -14.2820  -16.5920 C   0  0  0  0  0  0  0  0  0  0  0  0
   25.5290  -15.3876  -16.5278 N   0  0  0  0  0  0  0  0  0  0  0  0
   25.9035  -19.8000  -14.5856 C   0  0  0  0  0  0  0  0  0  0  0  0
   25.0850  -20.4218  -15.3455 O   0  0  0  0  0  0  0  0  0  0  0  0
   26.0885  -21.8444  -11.4786 C   0  0  0  0  0  0  0  0  0  0  0  0
   25.3991  -21.3471  -12.7555 C   0  0  2  0  0  0  0  0  0  0  0  0
   26.2127  -20.3142  -13.2978 N   0  0  0  0  0  0  0  0  0  0  0  0
   24.0087  -20.9151  -12.4627 C   0  0  0  0  0  0  0  0  0  0  0  0
   23.8342  -19.9054  -11.7323 O   0  0  0  0  0  0  0  0  0  0  0  0
   22.8714  -21.5818  -12.9639 N   0  0  0  0  0  0  0  0  0  0  0  0
   21.5035  -21.0858  -12.7411 C   0  0  1  0  0  0  0  0  0  0  0  0
   21.4439  -19.7232  -13.3491 C   0  0  0  0  0  0  0  0  0  0  0  0
   21.4634  -19.6920  -14.8111 C   0  0  0  0  0  0  0  0  0  0  0  0
   20.3461  -20.1009  -15.5083 C   0  0  0  0  0  0  0  0  0  0  0  0
   20.3026  -20.0936  -16.8987 C   0  0  0  0  0  0  0  0  0  0  0  0
   21.3958  -19.6701  -17.5977 C   0  0  0  0  0  0  0  0  0  0  0  0
   22.5216  -19.2575  -16.9303 C   0  0  0  0  0  0  0  0  0  0  0  0
   22.5478  -19.2710  -15.5521 C   0  0  0  0  0  0  0  0  0  0  0  0
   20.5104  -22.0354  -13.2874 C   0  0  0  0  0  0  0  0  0  0  0  0
   20.9047  -23.1155  -14.0622 O   0  0  0  0  0  0  0  0  0  0  0  0
   19.2583  -21.9189  -13.0820 O   0  0  0  0  0  0  0  0  0  0  0  0
  2  1  1  6
  2  9  1  0
  2  3  1  0
  4  3  1  0
  5  4  2  0
  6  5  1  0
  7  6  1  0
  7  8  2  0
  8  4  1  0
  9 13  1  0
  9 10  2  0
 12 11  1  1
 13 12  1  0
 14 15  2  0
 14 12  1  0
 16 14  1  0
 17 16  1  0
 17 18  1  6
 19 20  2  0
 19 18  1  0
 21 20  1  0
 22 21  2  0
 23 22  1  0
 23 24  2  0
 24 19  1  0
 25 26  1  0
 25 17  1  0
 27 25  2  0
M  END
$$$$
