HAF.pdb
     RDKit          3D

 27 28  0  0  1  0  0  0  0  0999 V2000
   24.5251  -17.2873  -18.7389 N   0  0  0  0  0  0  0  0  0  0  0  0
   23.8312  -16.0466  -18.4462 C   0  0  1  0  0  0  0  0  0  0  0  0
   22.8674  -15.8063  -19.6022 C   0  0  0  0  0  0  0  0  0  0  0  0
   23.5881  -15.4044  -20.8293 C   0  0  0  0  0  0  0  0  0  0  0  0
   23.8871  -14.1096  -21.2349 C   0  0  0  0  0  0  0  0  0  0  0  0
   24.5545  -14.2029  -22.4139 N   0  0  0  0  0  0  0  0  0  0  0  0
   24.6706  -15.4844  -22.7351 C   0  0  0  0  0  0  0  0  0  0  0  0
   24.0859  -16.2338  -21.7785 N   0  0  0  0  0  0  0  0  0  0  0  0
   23.0586  -16.1915  -17.2042 C   0  0  0  0  0  0  0  0  0  0  0  0
   22.5259  -17.3344  -16.9944 O   0  0  0  0  0  0  0  0  0  0  0  0
   22.2618  -14.1487  -14.1917 C   0  0  0  0  0  0  0  0  0  0  0  0
   22.1311  -15.3892  -15.0845 C   0  0  2  0  0  0  0  0  0  0  0  0
   22.8894  -15.1417  -16.2620 N   0  0  0  0  0  0  0  0  0  0  0  0
   20.7017  -15.6908  -15.3518 C   0  0  0  0  0  0  0  0  0  0  0  0
   20.1921  -15.2817  -16.4272 O   0  0  0  0  0  0  0  0  0  0  0  0
   19.8851  -16.4145  -14.4583 N   0  0  0  0  0  0  0  0  0  0  0  0
   18.5058  -16.8068  -14.7906 C   0  0  1  0  0  0  0  0  0  0  0  0
   18.4398  -18.2907  -14.6364 C   0  0  0  0  0  0  0  0  0  0  0  0
   18.5475  -18.7796  -13.2623 C   0  0  0  0  0  0  0  0  0  0  0  0
   17.4057  -18.8979  -12.4982 C   0  0  0  0  0  0  0  0  0  0  0  0
   17.4427  -19.3574  -11.1858 C   0  0  0  0  0  0  0  0  0  0  0  0
   18.6424  -19.7025  -10.6338 C   0  0  0  0  0  0  0  0  0  0  0  0
   19.7950  -19.5949  -11.3706 C   0  0  0  0  0  0  0  0  0  0  0  0
   19.7405  -19.1377  -12.6700 C   0  0  0  0  0  0  0  0  0  0  0  0
   17.5383  -16.0682  -13.9511 C   0  0  0  0  0  0  0  0  0  0  0  0
   17.9619  -15.3109  -12.8697 O   0  0  0  0  0  0  0  0  0  0  0  0
   16.2827  -16.0844  -14.1680 O   0  0  0  0  0  0  0  0  0  0  0  0
  2  1  1  6
  2  9  1  0
  2  3  1  0
  4  3  1  0
  5  4  2  0
  6  5  1  0
  7  6  1  0
  7  8  2  0
  8  4  1  0
  9 13  1  0
  9 10  2  0
 12 11  1  1
 13 12  1  0
 14 15  2  0
 14 12  1  0
 16 14  1  0
 17 16  1  0
 17 18  1  1
 19 20  2  0
 19 18  1  0
 21 20  1  0
 22 21  2  0
 23 22  1  0
 23 24  2  0
 24 19  1  0
 25 26  1  0
 25 17  1  0
 27 25  2  0
M  END
$$$$
