WWN.pdb
     RDKit          3D

 37 40  0  0  1  0  0  0  0  0999 V2000
   15.0935  -15.5054    4.9138 N   0  0  0  0  0  0  0  0  0  0  0  0
   16.4364  -16.0059    4.7600 C   0  0  1  0  0  0  0  0  0  0  0  0
   17.3558  -15.5003    5.8519 C   0  0  0  0  0  0  0  0  0  0  0  0
   18.0322  -14.2519    5.4960 C   0  0  0  0  0  0  0  0  0  0  0  0
   17.5516  -13.2462    4.6835 C   0  0  0  0  0  0  0  0  0  0  0  0
   18.4617  -12.2595    4.5910 N   0  0  0  0  0  0  0  0  0  0  0  0
   19.5493  -12.5734    5.3231 C   0  0  0  0  0  0  0  0  0  0  0  0
   20.7460  -11.9525    5.5844 C   0  0  0  0  0  0  0  0  0  0  0  0
   21.7114  -12.5116    6.3935 C   0  0  0  0  0  0  0  0  0  0  0  0
   21.4446  -13.7555    6.9593 C   0  0  0  0  0  0  0  0  0  0  0  0
   20.2482  -14.3894    6.7054 C   0  0  0  0  0  0  0  0  0  0  0  0
   19.2990  -13.8097    5.8929 C   0  0  0  0  0  0  0  0  0  0  0  0
   16.4273  -17.4919    4.7972 C   0  0  0  0  0  0  0  0  0  0  0  0
   15.8114  -18.0689    5.7139 O   0  0  0  0  0  0  0  0  0  0  0  0
   17.1056  -18.2547    3.8096 N   0  0  0  0  0  0  0  0  0  0  0  0
   17.2124  -19.7159    3.8555 C   0  0  1  0  0  0  0  0  0  0  0  0
   17.6223  -20.1961    2.4950 C   0  0  0  0  0  0  0  0  0  0  0  0
   17.6728  -21.6421    2.3069 C   0  0  0  0  0  0  0  0  0  0  0  0
   16.6535  -22.4778    1.9054 C   0  0  0  0  0  0  0  0  0  0  0  0
   17.1191  -23.7596    1.8849 N   0  0  0  0  0  0  0  0  0  0  0  0
   18.3980  -23.7832    2.2574 C   0  0  0  0  0  0  0  0  0  0  0  0
   19.2912  -24.8246    2.3912 C   0  0  0  0  0  0  0  0  0  0  0  0
   20.5891  -24.5962    2.7994 C   0  0  0  0  0  0  0  0  0  0  0  0
   20.9508  -23.2913    3.0655 C   0  0  0  0  0  0  0  0  0  0  0  0
   20.0671  -22.2310    2.9367 C   0  0  0  0  0  0  0  0  0  0  0  0
   18.7684  -22.4606    2.5282 C   0  0  0  0  0  0  0  0  0  0  0  0
   18.0675  -20.1269    4.9677 C   0  0  0  0  0  0  0  0  0  0  0  0
   18.9281  -19.2677    5.3842 O   0  0  0  0  0  0  0  0  0  0  0  0
   20.3731  -22.1722    9.0661 N   0  0  0  0  0  0  0  0  0  0  0  0
   19.4669  -21.0506    9.0963 C   0  0  0  0  0  0  0  0  0  0  0  0
   19.4266  -20.4243   10.1925 O   0  0  0  0  0  0  0  0  0  0  0  0
   18.6715  -20.7097    7.8998 C   0  0  0  0  0  0  0  0  0  0  0  0
   18.9406  -21.6493    6.7519 C   0  0  2  0  0  0  0  0  0  0  0  0
   18.0437  -21.3762    5.6387 N   0  0  0  0  0  0  0  0  0  0  0  0
   18.8142  -23.0346    7.2276 C   0  0  0  0  0  0  0  0  0  0  0  0
   19.8476  -23.7014    7.5653 O   0  0  0  0  0  0  0  0  0  0  0  0
   17.5960  -23.6818    7.3360 O   0  0  0  0  0  0  0  0  0  0  0  0
  2  1  1  1
  3  4  1  0
  3  2  1  0
  4  5  2  0
  6  5  1  0
  7  6  1  0
  8  7  2  0
  9  8  1  0
 10  9  2  0
 10 11  1  0
 11 12  2  0
 12  7  1  0
 12  4  1  0
 13  2  1  0
 13 15  1  0
 14 13  2  0
 16 15  1  0
 16 17  1  6
 18 17  1  0
 18 19  2  0
 20 19  1  0
 21 20  1  0
 22 21  2  0
 23 22  1  0
 24 23  2  0
 24 25  1  0
 25 26  2  0
 26 21  1  0
 26 18  1  0
 27 28  2  0
 27 16  1  0
 29 30  1  0
 30 31  2  0
 30 32  1  0
 33 32  1  1
 33 34  1  0
 33 35  1  0
 34 27  1  0
 35 37  1  0
 36 35  2  0
M  END
$$$$
