WWN.pdb
     RDKit          3D

 37 40  0  0  1  0  0  0  0  0999 V2000
   28.8604  -20.7583  -17.1692 N   0  0  0  0  0  0  0  0  0  0  0  0
   27.7736  -19.9378  -16.6965 C   0  0  1  0  0  0  0  0  0  0  0  0
   26.7495  -19.6776  -17.7813 C   0  0  0  0  0  0  0  0  0  0  0  0
   27.3033  -18.9556  -18.9279 C   0  0  0  0  0  0  0  0  0  0  0  0
   28.0734  -19.4758  -19.9471 C   0  0  0  0  0  0  0  0  0  0  0  0
   28.3961  -18.5025  -20.8183 N   0  0  0  0  0  0  0  0  0  0  0  0
   27.8616  -17.3332  -20.4127 C   0  0  0  0  0  0  0  0  0  0  0  0
   27.8678  -16.0504  -20.9027 C   0  0  0  0  0  0  0  0  0  0  0  0
   27.2196  -15.0111  -20.2711 C   0  0  0  0  0  0  0  0  0  0  0  0
   26.5367  -15.2925  -19.0908 C   0  0  0  0  0  0  0  0  0  0  0  0
   26.5224  -16.5751  -18.5881 C   0  0  0  0  0  0  0  0  0  0  0  0
   27.1784  -17.5970  -19.2382 C   0  0  0  0  0  0  0  0  0  0  0  0
   27.0966  -20.6075  -15.5551 C   0  0  0  0  0  0  0  0  0  0  0  0
   26.2583  -21.4992  -15.7895 O   0  0  0  0  0  0  0  0  0  0  0  0
   27.3912  -20.2471  -14.2133 N   0  0  0  0  0  0  0  0  0  0  0  0
   26.6979  -20.8206  -13.0561 C   0  0  1  0  0  0  0  0  0  0  0  0
   27.4121  -20.3721  -11.8157 C   0  0  0  0  0  0  0  0  0  0  0  0
   26.7602  -20.6784  -10.5468 C   0  0  0  0  0  0  0  0  0  0  0  0
   25.8801  -21.7032  -10.2751 C   0  0  0  0  0  0  0  0  0  0  0  0
   25.4884  -21.6113   -8.9719 N   0  0  0  0  0  0  0  0  0  0  0  0
   26.0810  -20.5679   -8.3930 C   0  0  0  0  0  0  0  0  0  0  0  0
   26.0063  -20.0717   -7.1091 C   0  0  0  0  0  0  0  0  0  0  0  0
   26.7285  -18.9563   -6.7380 C   0  0  0  0  0  0  0  0  0  0  0  0
   27.5219  -18.3646   -7.6996 C   0  0  0  0  0  0  0  0  0  0  0  0
   27.6101  -18.8488   -8.9955 C   0  0  0  0  0  0  0  0  0  0  0  0
   26.8870  -19.9651   -9.3660 C   0  0  0  0  0  0  0  0  0  0  0  0
   25.2690  -20.5188  -13.1207 C   0  0  0  0  0  0  0  0  0  0  0  0
   24.9454  -19.3108  -13.4182 O   0  0  0  0  0  0  0  0  0  0  0  0
   23.4071  -23.6945  -13.1376 N   0  0  0  0  0  0  0  0  0  0  0  0
   22.4345  -23.1858  -14.0733 C   0  0  0  0  0  0  0  0  0  0  0  0
   21.9320  -24.0498  -14.8456 O   0  0  0  0  0  0  0  0  0  0  0  0
   22.0937  -21.7491  -14.0784 C   0  0  0  0  0  0  0  0  0  0  0  0
   22.8144  -20.9902  -12.9932 C   0  0  2  0  0  0  0  0  0  0  0  0
   24.2003  -21.4229  -12.8925 N   0  0  0  0  0  0  0  0  0  0  0  0
   22.0932  -21.1686  -11.7245 C   0  0  0  0  0  0  0  0  0  0  0  0
   20.8664  -20.8350  -11.6232 O   0  0  0  0  0  0  0  0  0  0  0  0
   22.6875  -21.6975  -10.5924 O   0  0  0  0  0  0  0  0  0  0  0  0
  2  1  1  6
  3  4  1  0
  3  2  1  0
  4  5  2  0
  6  5  1  0
  7  6  1  0
  8  7  2  0
  9  8  1  0
 10  9  2  0
 10 11  1  0
 11 12  2  0
 12  7  1  0
 12  4  1  0
 13  2  1  0
 13 15  1  0
 14 13  2  0
 16 15  1  0
 16 17  1  1
 18 17  1  0
 18 19  2  0
 20 19  1  0
 21 20  1  0
 22 21  2  0
 23 22  1  0
 24 23  2  0
 24 25  1  0
 25 26  2  0
 26 21  1  0
 26 18  1  0
 27 28  2  0
 27 16  1  0
 29 30  1  0
 30 31  2  0
 30 32  1  0
 33 32  1  6
 33 34  1  0
 33 35  1  0
 34 27  1  0
 35 37  1  0
 36 35  2  0
M  END
$$$$
