WWN.pdb
     RDKit          3D

 37 40  0  0  1  0  0  0  0  0999 V2000
   21.9679  -19.8992  -12.3937 N   0  0  0  0  0  0  0  0  0  0  0  0
   22.4625  -20.4941  -13.6098 C   0  0  1  0  0  0  0  0  0  0  0  0
   21.8036  -19.9006  -14.8373 C   0  0  0  0  0  0  0  0  0  0  0  0
   20.3766  -20.2140  -14.9272 C   0  0  0  0  0  0  0  0  0  0  0  0
   19.3246  -19.4444  -14.4760 C   0  0  0  0  0  0  0  0  0  0  0  0
   18.1597  -20.0660  -14.7352 N   0  0  0  0  0  0  0  0  0  0  0  0
   18.3983  -21.2405  -15.3526 C   0  0  0  0  0  0  0  0  0  0  0  0
   17.6057  -22.2535  -15.8339 C   0  0  0  0  0  0  0  0  0  0  0  0
   18.1239  -23.3771  -16.4407 C   0  0  0  0  0  0  0  0  0  0  0  0
   19.5079  -23.4708  -16.5614 C   0  0  0  0  0  0  0  0  0  0  0  0
   20.3145  -22.4618  -16.0828 C   0  0  0  0  0  0  0  0  0  0  0  0
   19.7722  -21.3484  -15.4800 C   0  0  0  0  0  0  0  0  0  0  0  0
   23.9308  -20.2857  -13.7114 C   0  0  0  0  0  0  0  0  0  0  0  0
   24.3730  -19.1219  -13.7647 O   0  0  0  0  0  0  0  0  0  0  0  0
   24.8273  -21.3867  -13.7477 N   0  0  0  0  0  0  0  0  0  0  0  0
   26.2715  -21.2410  -13.9522 C   0  0  1  0  0  0  0  0  0  0  0  0
   26.9743  -21.9377  -12.8251 C   0  0  0  0  0  0  0  0  0  0  0  0
   27.1150  -21.1827  -11.5845 C   0  0  0  0  0  0  0  0  0  0  0  0
   28.2566  -20.6068  -11.0711 C   0  0  0  0  0  0  0  0  0  0  0  0
   27.9536  -20.0197   -9.8779 N   0  0  0  0  0  0  0  0  0  0  0  0
   26.6620  -20.1944   -9.6019 C   0  0  0  0  0  0  0  0  0  0  0  0
   25.8946  -19.7919   -8.5299 C   0  0  0  0  0  0  0  0  0  0  0  0
   24.5507  -20.0976   -8.4667 C   0  0  0  0  0  0  0  0  0  0  0  0
   24.0132  -20.8173   -9.5142 C   0  0  0  0  0  0  0  0  0  0  0  0
   24.7686  -21.2308  -10.6006 C   0  0  0  0  0  0  0  0  0  0  0  0
   26.1133  -20.9244  -10.6629 C   0  0  0  0  0  0  0  0  0  0  0  0
   26.6381  -21.6682  -15.3013 C   0  0  0  0  0  0  0  0  0  0  0  0
   26.1310  -22.7743  -15.7159 O   0  0  0  0  0  0  0  0  0  0  0  0
   25.0064  -20.4054  -19.8416 N   0  0  0  0  0  0  0  0  0  0  0  0
   25.4380  -19.3912  -18.9114 C   0  0  0  0  0  0  0  0  0  0  0  0
   25.4161  -18.2102  -19.3590 O   0  0  0  0  0  0  0  0  0  0  0  0
   25.8625  -19.7695  -17.5486 C   0  0  0  0  0  0  0  0  0  0  0  0
   27.0652  -20.6784  -17.5599 C   0  0  2  0  0  0  0  0  0  0  0  0
   27.4938  -20.9861  -16.2035 N   0  0  0  0  0  0  0  0  0  0  0  0
   28.1374  -20.0438  -18.3404 C   0  0  0  0  0  0  0  0  0  0  0  0
   28.5396  -20.5643  -19.4331 O   0  0  0  0  0  0  0  0  0  0  0  0
   28.7583  -18.8716  -17.9466 O   0  0  0  0  0  0  0  0  0  0  0  0
  2  1  1  1
  3  4  1  0
  3  2  1  0
  4  5  2  0
  6  5  1  0
  7  6  1  0
  8  7  2  0
  9  8  1  0
 10  9  2  0
 10 11  1  0
 11 12  2  0
 12  7  1  0
 12  4  1  0
 13  2  1  0
 13 15  1  0
 14 13  2  0
 16 15  1  0
 16 17  1  1
 18 17  1  0
 18 19  2  0
 20 19  1  0
 21 20  1  0
 22 21  2  0
 23 22  1  0
 24 23  2  0
 24 25  1  0
 25 26  2  0
 26 21  1  0
 26 18  1  0
 27 28  2  0
 27 16  1  0
 29 30  1  0
 30 31  2  0
 30 32  1  0
 33 32  1  1
 33 34  1  0
 33 35  1  0
 34 27  1  0
 35 37  1  0
 36 35  2  0
M  END
$$$$
