WWN.pdb
     RDKit          3D

 37 40  0  0  1  0  0  0  0  0999 V2000
   24.4293  -20.3246  -14.3452 N   0  0  0  0  0  0  0  0  0  0  0  0
   23.2918  -20.1107  -13.4862 C   0  0  1  0  0  0  0  0  0  0  0  0
   21.9933  -20.4984  -14.1618 C   0  0  0  0  0  0  0  0  0  0  0  0
   21.7451  -19.7490  -15.3944 C   0  0  0  0  0  0  0  0  0  0  0  0
   21.8465  -20.2161  -16.6883 C   0  0  0  0  0  0  0  0  0  0  0  0
   21.5431  -19.2321  -17.5543 N   0  0  0  0  0  0  0  0  0  0  0  0
   21.2377  -18.1075  -16.8766 C   0  0  0  0  0  0  0  0  0  0  0  0
   20.8637  -16.8367  -17.2387 C   0  0  0  0  0  0  0  0  0  0  0  0
   20.6026  -15.8480  -16.3149 C   0  0  0  0  0  0  0  0  0  0  0  0
   20.7281  -16.1692  -14.9660 C   0  0  0  0  0  0  0  0  0  0  0  0
   21.1026  -17.4402  -14.5889 C   0  0  0  0  0  0  0  0  0  0  0  0
   21.3583  -18.4113  -15.5316 C   0  0  0  0  0  0  0  0  0  0  0  0
   23.4399  -20.9151  -12.2449 C   0  0  0  0  0  0  0  0  0  0  0  0
   23.6680  -22.1364  -12.3408 O   0  0  0  0  0  0  0  0  0  0  0  0
   23.3261  -20.3140  -10.9632 N   0  0  0  0  0  0  0  0  0  0  0  0
   23.4416  -21.0654   -9.7099 C   0  0  1  0  0  0  0  0  0  0  0  0
   24.3719  -20.3171   -8.8020 C   0  0  0  0  0  0  0  0  0  0  0  0
   25.7851  -20.6693   -8.8902 C   0  0  0  0  0  0  0  0  0  0  0  0
   26.4017  -21.4572   -9.8376 C   0  0  0  0  0  0  0  0  0  0  0  0
   27.7279  -21.5521   -9.5340 N   0  0  0  0  0  0  0  0  0  0  0  0
   27.9906  -20.8568   -8.4283 C   0  0  0  0  0  0  0  0  0  0  0  0
   29.1648  -20.6509   -7.7363 C   0  0  0  0  0  0  0  0  0  0  0  0
   29.1876  -19.8757   -6.5952 C   0  0  0  0  0  0  0  0  0  0  0  0
   27.9942  -19.3205   -6.1807 C   0  0  0  0  0  0  0  0  0  0  0  0
   26.8035  -19.5160   -6.8631 C   0  0  0  0  0  0  0  0  0  0  0  0
   26.7817  -20.2919   -8.0049 C   0  0  0  0  0  0  0  0  0  0  0  0
   22.1148  -21.3595   -9.1711 C   0  0  0  0  0  0  0  0  0  0  0  0
   21.3026  -20.3692   -9.0605 O   0  0  0  0  0  0  0  0  0  0  0  0
   18.4480  -22.9104  -10.3314 N   0  0  0  0  0  0  0  0  0  0  0  0
   18.8174  -24.1561   -9.7053 C   0  0  0  0  0  0  0  0  0  0  0  0
   18.2960  -25.1871  -10.2161 O   0  0  0  0  0  0  0  0  0  0  0  0
   19.7422  -24.1600   -8.5542 C   0  0  0  0  0  0  0  0  0  0  0  0
   20.2748  -22.7831   -8.2486 C   0  0  2  0  0  0  0  0  0  0  0  0
   21.6283  -22.6268   -8.7603 N   0  0  0  0  0  0  0  0  0  0  0  0
   20.2102  -22.5562   -6.7975 C   0  0  0  0  0  0  0  0  0  0  0  0
   21.2534  -22.6805   -6.0744 O   0  0  0  0  0  0  0  0  0  0  0  0
   19.0425  -22.2014   -6.1454 O   0  0  0  0  0  0  0  0  0  0  0  0
  2  1  1  6
  3  4  1  0
  3  2  1  0
  4  5  2  0
  6  5  1  0
  7  6  1  0
  8  7  2  0
  9  8  1  0
 10  9  2  0
 10 11  1  0
 11 12  2  0
 12  7  1  0
 12  4  1  0
 13  2  1  0
 13 15  1  0
 14 13  2  0
 16 15  1  0
 16 17  1  1
 18 17  1  0
 18 19  2  0
 20 19  1  0
 21 20  1  0
 22 21  2  0
 23 22  1  0
 24 23  2  0
 24 25  1  0
 25 26  2  0
 26 21  1  0
 26 18  1  0
 27 28  2  0
 27 16  1  0
 29 30  1  0
 30 31  2  0
 30 32  1  0
 33 32  1  1
 33 34  1  0
 33 35  1  0
 34 27  1  0
 35 37  1  0
 36 35  2  0
M  END
$$$$
