WWN.pdb
     RDKit          3D

 37 40  0  0  1  0  0  0  0  0999 V2000
   26.4739  -21.2693  -13.6697 N   0  0  0  0  0  0  0  0  0  0  0  0
   25.3875  -20.7029  -12.9104 C   0  0  1  0  0  0  0  0  0  0  0  0
   24.0424  -21.2139  -13.3819 C   0  0  0  0  0  0  0  0  0  0  0  0
   23.6404  -20.6554  -14.6739 C   0  0  0  0  0  0  0  0  0  0  0  0
   24.0539  -21.0661  -15.9240 C   0  0  0  0  0  0  0  0  0  0  0  0
   23.4694  -20.3087  -16.8702 N   0  0  0  0  0  0  0  0  0  0  0  0
   22.6681  -19.3933  -16.2895 C   0  0  0  0  0  0  0  0  0  0  0  0
   21.8520  -18.3929  -16.7576 C   0  0  0  0  0  0  0  0  0  0  0  0
   21.1206  -17.5785  -15.9204 C   0  0  0  0  0  0  0  0  0  0  0  0
   21.2262  -17.7939  -14.5489 C   0  0  0  0  0  0  0  0  0  0  0  0
   22.0413  -18.7939  -14.0658 C   0  0  0  0  0  0  0  0  0  0  0  0
   22.7625  -19.5947  -14.9234 C   0  0  0  0  0  0  0  0  0  0  0  0
   25.5472  -21.0432  -11.4722 C   0  0  0  0  0  0  0  0  0  0  0  0
   25.7993  -22.2217  -11.1553 O   0  0  0  0  0  0  0  0  0  0  0  0
   25.4176  -20.0508  -10.4646 N   0  0  0  0  0  0  0  0  0  0  0  0
   25.5543  -20.3357   -9.0332 C   0  0  1  0  0  0  0  0  0  0  0  0
   26.5011  -19.3312   -8.4464 C   0  0  0  0  0  0  0  0  0  0  0  0
   27.7396  -19.8599   -7.8847 C   0  0  0  0  0  0  0  0  0  0  0  0
   28.6533  -20.6944   -8.4908 C   0  0  0  0  0  0  0  0  0  0  0  0
   29.6534  -20.9676   -7.6047 N   0  0  0  0  0  0  0  0  0  0  0  0
   29.4206  -20.3423   -6.4515 C   0  0  0  0  0  0  0  0  0  0  0  0
   30.1318  -20.3082   -5.2712 C   0  0  0  0  0  0  0  0  0  0  0  0
   29.6808  -19.5739   -4.1938 C   0  0  0  0  0  0  0  0  0  0  0  0
   28.4974  -18.8812   -4.3480 C   0  0  0  0  0  0  0  0  0  0  0  0
   27.7682  -18.9031   -5.5268 C   0  0  0  0  0  0  0  0  0  0  0  0
   28.2203  -19.6382   -6.6045 C   0  0  0  0  0  0  0  0  0  0  0  0
   24.2369  -20.4217   -8.4054 C   0  0  0  0  0  0  0  0  0  0  0  0
   23.3495  -19.5818   -8.8049 O   0  0  0  0  0  0  0  0  0  0  0  0
   19.7696  -22.4486   -7.1001 N   0  0  0  0  0  0  0  0  0  0  0  0
   20.3345  -22.2543   -8.4129 C   0  0  0  0  0  0  0  0  0  0  0  0
   19.5339  -22.4377   -9.3726 O   0  0  0  0  0  0  0  0  0  0  0  0
   21.7526  -21.8691   -8.5585 C   0  0  0  0  0  0  0  0  0  0  0  0
   22.4336  -21.6938   -7.2250 C   0  0  2  0  0  0  0  0  0  0  0  0
   23.8341  -21.3396   -7.4021 N   0  0  0  0  0  0  0  0  0  0  0  0
   22.2776  -22.9283   -6.4419 C   0  0  0  0  0  0  0  0  0  0  0  0
   21.1192  -23.3359   -6.0974 O   0  0  0  0  0  0  0  0  0  0  0  0
   23.3518  -23.7037   -6.0426 O   0  0  0  0  0  0  0  0  0  0  0  0
  2  1  1  6
  3  4  1  0
  3  2  1  0
  4  5  2  0
  6  5  1  0
  7  6  1  0
  8  7  2  0
  9  8  1  0
 10  9  2  0
 10 11  1  0
 11 12  2  0
 12  7  1  0
 12  4  1  0
 13  2  1  0
 13 15  1  0
 14 13  2  0
 16 15  1  0
 16 17  1  1
 18 17  1  0
 18 19  2  0
 20 19  1  0
 21 20  1  0
 22 21  2  0
 23 22  1  0
 24 23  2  0
 24 25  1  0
 25 26  2  0
 26 21  1  0
 26 18  1  0
 27 28  2  0
 27 16  1  0
 29 30  1  0
 30 31  2  0
 30 32  1  0
 33 32  1  6
 33 34  1  0
 33 35  1  0
 34 27  1  0
 35 37  1  0
 36 35  2  0
M  END
$$$$
