WWN.pdb
     RDKit          3D

 37 40  0  0  1  0  0  0  0  0999 V2000
   24.9063  -19.0413   -8.5637 N   0  0  0  0  0  0  0  0  0  0  0  0
   25.9619  -19.8804   -9.0730 C   0  0  1  0  0  0  0  0  0  0  0  0
   26.0185  -21.2136   -8.3571 C   0  0  0  0  0  0  0  0  0  0  0  0
   26.2711  -21.0803   -6.9214 C   0  0  0  0  0  0  0  0  0  0  0  0
   25.4369  -21.4585   -5.8901 C   0  0  0  0  0  0  0  0  0  0  0  0
   26.0135  -21.1735   -4.7082 N   0  0  0  0  0  0  0  0  0  0  0  0
   27.2209  -20.6106   -4.9150 C   0  0  0  0  0  0  0  0  0  0  0  0
   28.2148  -20.1357   -4.0949 C   0  0  0  0  0  0  0  0  0  0  0  0
   29.3846  -19.5947   -4.5828 C   0  0  0  0  0  0  0  0  0  0  0  0
   29.5470  -19.5360   -5.9644 C   0  0  0  0  0  0  0  0  0  0  0  0
   28.5577  -20.0088   -6.7985 C   0  0  0  0  0  0  0  0  0  0  0  0
   27.3971  -20.5451   -6.2862 C   0  0  0  0  0  0  0  0  0  0  0  0
   25.7519  -20.1290  -10.5235 C   0  0  0  0  0  0  0  0  0  0  0  0
   24.6400  -20.5362  -10.9113 O   0  0  0  0  0  0  0  0  0  0  0  0
   26.7936  -19.9095  -11.4637 N   0  0  0  0  0  0  0  0  0  0  0  0
   26.5541  -19.4609  -12.8385 C   0  0  1  0  0  0  0  0  0  0  0  0
   27.8320  -18.8816  -13.3689 C   0  0  0  0  0  0  0  0  0  0  0  0
   27.8091  -18.4229  -14.7538 C   0  0  0  0  0  0  0  0  0  0  0  0
   27.4274  -17.1868  -15.2280 C   0  0  0  0  0  0  0  0  0  0  0  0
   27.5318  -17.1869  -16.5878 N   0  0  0  0  0  0  0  0  0  0  0  0
   27.9656  -18.3741  -17.0090 C   0  0  0  0  0  0  0  0  0  0  0  0
   28.2262  -18.8549  -18.2743 C   0  0  0  0  0  0  0  0  0  0  0  0
   28.6777  -20.1449  -18.4625 C   0  0  0  0  0  0  0  0  0  0  0  0
   28.8555  -20.9258  -17.3387 C   0  0  0  0  0  0  0  0  0  0  0  0
   28.5990  -20.4602  -16.0584 C   0  0  0  0  0  0  0  0  0  0  0  0
   28.1472  -19.1690  -15.8711 C   0  0  0  0  0  0  0  0  0  0  0  0
   25.9600  -20.5389  -13.6272 C   0  0  0  0  0  0  0  0  0  0  0  0
   26.2197  -21.7409  -13.2527 O   0  0  0  0  0  0  0  0  0  0  0  0
   20.8770  -22.2970  -14.4737 N   0  0  0  0  0  0  0  0  0  0  0  0
   22.2300  -22.7306  -14.2252 C   0  0  0  0  0  0  0  0  0  0  0  0
   22.4161  -23.9773  -14.3071 O   0  0  0  0  0  0  0  0  0  0  0  0
   23.2769  -21.7402  -13.9033 C   0  0  0  0  0  0  0  0  0  0  0  0
   24.1326  -21.4088  -15.0994 C   0  0  2  0  0  0  0  0  0  0  0  0
   25.1223  -20.3962  -14.7627 N   0  0  0  0  0  0  0  0  0  0  0  0
   23.2642  -20.9772  -16.2044 C   0  0  0  0  0  0  0  0  0  0  0  0
   22.7942  -19.7920  -16.2352 O   0  0  0  0  0  0  0  0  0  0  0  0
   22.9143  -21.8104  -17.2523 O   0  0  0  0  0  0  0  0  0  0  0  0
  2  1  1  1
  3  4  1  0
  3  2  1  0
  4  5  2  0
  6  5  1  0
  7  6  1  0
  8  7  2  0
  9  8  1  0
 10  9  2  0
 10 11  1  0
 11 12  2  0
 12  7  1  0
 12  4  1  0
 13  2  1  0
 13 15  1  0
 14 13  2  0
 16 15  1  0
 16 17  1  6
 18 17  1  0
 18 19  2  0
 20 19  1  0
 21 20  1  0
 22 21  2  0
 23 22  1  0
 24 23  2  0
 24 25  1  0
 25 26  2  0
 26 21  1  0
 26 18  1  0
 27 28  2  0
 27 16  1  0
 29 30  1  0
 30 31  2  0
 30 32  1  0
 33 32  1  1
 33 34  1  0
 33 35  1  0
 34 27  1  0
 35 37  1  0
 36 35  2  0
M  END
$$$$
