MCG.pdb
     RDKit          3D

 19 18  0  0  1  0  0  0  0  0999 V2000
    5.7425  -11.2159   26.3280 C   0  0  0  0  0  0  0  0  0  0  0  0
    5.3585  -12.8501   27.0536 S   0  0  0  0  0  0  0  0  0  0  0  0
    5.6108  -14.1269   25.7827 C   0  0  0  0  0  0  0  0  0  0  0  0
    6.8421  -13.8415   24.9946 C   0  0  0  0  0  0  0  0  0  0  0  0
    7.6379  -15.0893   24.6168 C   0  0  2  0  0  0  0  0  0  0  0  0
    7.1740  -16.0942   25.6048 N   0  0  0  0  0  0  0  0  0  0  0  0
    9.0831  -14.8730   24.8612 C   0  0  0  0  0  0  0  0  0  0  0  0
    9.7505  -14.0762   24.1354 O   0  0  0  0  0  0  0  0  0  0  0  0
    9.8424  -15.5042   25.8912 N   0  0  0  0  0  0  0  0  0  0  0  0
   11.2608  -15.3395   26.0027 C   0  0  1  0  0  0  0  0  0  0  0  0
   11.6054  -15.7277   27.4603 C   0  0  0  0  0  0  0  0  0  0  0  0
   10.8700  -14.5627   28.6176 S   0  0  0  0  0  0  0  0  0  0  0  0
   12.0892  -16.1765   25.1513 C   0  0  0  0  0  0  0  0  0  0  0  0
   11.8351  -17.4203   25.1489 O   0  0  0  0  0  0  0  0  0  0  0  0
   13.1553  -15.7557   24.3171 N   0  0  0  0  0  0  0  0  0  0  0  0
   13.8787  -16.6864   23.4594 C   0  0  0  0  0  0  0  0  0  0  0  0
   15.3009  -16.6651   23.8485 C   0  0  0  0  0  0  0  0  0  0  0  0
   15.9553  -17.8646   24.0301 O   0  0  0  0  0  0  0  0  0  0  0  0
   15.9234  -15.5974   24.0166 O   0  0  0  0  0  0  0  0  0  0  0  0
  2  1  1  0
  3  2  1  0
  4  3  1  0
  4  5  1  0
  5  6  1  1
  7  5  1  0
  7  8  2  0
  9  7  1  0
 10  9  1  0
 10 11  1  1
 10 13  1  0
 11 12  1  0
 13 15  1  0
 13 14  2  0
 15 16  1  0
 16 17  1  0
 17 19  2  0
 17 18  1  0
M  END
$$$$
