MCG.pdb
     RDKit          3D

 19 18  0  0  1  0  0  0  0  0999 V2000
    7.4951  -11.3173   27.0211 C   0  0  0  0  0  0  0  0  0  0  0  0
    5.9081  -12.1817   26.7406 S   0  0  0  0  0  0  0  0  0  0  0  0
    6.1377  -13.9519   27.0910 C   0  0  0  0  0  0  0  0  0  0  0  0
    7.2178  -14.5166   26.2349 C   0  0  0  0  0  0  0  0  0  0  0  0
    6.7519  -15.6420   25.3131 C   0  0  2  0  0  0  0  0  0  0  0  0
    6.5606  -16.7805   26.2450 N   0  0  0  0  0  0  0  0  0  0  0  0
    7.8347  -16.0230   24.3763 C   0  0  0  0  0  0  0  0  0  0  0  0
    8.6190  -16.9811   24.6483 O   0  0  0  0  0  0  0  0  0  0  0  0
    8.0972  -15.3868   23.1265 N   0  0  0  0  0  0  0  0  0  0  0  0
    9.1324  -15.8362   22.2447 C   0  0  1  0  0  0  0  0  0  0  0  0
    8.8476  -15.1430   20.8910 C   0  0  0  0  0  0  0  0  0  0  0  0
    7.2203  -15.6002   20.2744 S   0  0  0  0  0  0  0  0  0  0  0  0
   10.4975  -15.4884   22.6014 C   0  0  0  0  0  0  0  0  0  0  0  0
   10.7758  -14.2513   22.6641 O   0  0  0  0  0  0  0  0  0  0  0  0
   11.5590  -16.3824   22.8903 N   0  0  0  0  0  0  0  0  0  0  0  0
   12.8864  -15.9102   23.2648 C   0  0  0  0  0  0  0  0  0  0  0  0
   13.8800  -16.6111   22.4306 C   0  0  0  0  0  0  0  0  0  0  0  0
   13.9165  -17.9887   22.4618 O   0  0  0  0  0  0  0  0  0  0  0  0
   14.6831  -15.9945   21.7022 O   0  0  0  0  0  0  0  0  0  0  0  0
  2  1  1  0
  3  2  1  0
  4  3  1  0
  4  5  1  0
  5  6  1  1
  7  5  1  0
  7  8  2  0
  9  7  1  0
 10  9  1  0
 10 11  1  6
 10 13  1  0
 11 12  1  0
 13 15  1  0
 13 14  2  0
 15 16  1  0
 16 17  1  0
 17 19  2  0
 17 18  1  0
M  END
$$$$
