MCG.pdb
     RDKit          3D

 19 18  0  0  1  0  0  0  0  0999 V2000
    5.6771  -12.1875   27.4514 C   0  0  0  0  0  0  0  0  0  0  0  0
    7.3215  -12.7220   26.8555 S   0  0  0  0  0  0  0  0  0  0  0  0
    7.4135  -14.5365   26.9456 C   0  0  0  0  0  0  0  0  0  0  0  0
    6.2454  -15.1523   26.2565 C   0  0  0  0  0  0  0  0  0  0  0  0
    6.5531  -16.4960   25.5984 C   0  0  2  0  0  0  0  0  0  0  0  0
    7.3700  -17.1914   26.6232 N   0  0  0  0  0  0  0  0  0  0  0  0
    7.4169  -16.3027   24.4103 C   0  0  0  0  0  0  0  0  0  0  0  0
    8.5300  -16.9017   24.3147 O   0  0  0  0  0  0  0  0  0  0  0  0
    7.1037  -15.4656   23.2983 N   0  0  0  0  0  0  0  0  0  0  0  0
    7.9238  -15.4177   22.1251 C   0  0  1  0  0  0  0  0  0  0  0  0
    7.3774  -14.2348   21.2907 C   0  0  0  0  0  0  0  0  0  0  0  0
    8.2818  -14.0793   19.7430 S   0  0  0  0  0  0  0  0  0  0  0  0
    9.3398  -15.1576   22.3223 C   0  0  0  0  0  0  0  0  0  0  0  0
    9.6436  -14.1685   23.0580 O   0  0  0  0  0  0  0  0  0  0  0  0
   10.4263  -15.8908   21.7824 N   0  0  0  0  0  0  0  0  0  0  0  0
   11.8102  -15.4737   21.9725 C   0  0  0  0  0  0  0  0  0  0  0  0
   12.5068  -15.5751   20.6767 C   0  0  0  0  0  0  0  0  0  0  0  0
   13.8144  -15.1475   20.5931 O   0  0  0  0  0  0  0  0  0  0  0  0
   11.9476  -16.0347   19.6609 O   0  0  0  0  0  0  0  0  0  0  0  0
  2  1  1  0
  3  2  1  0
  4  3  1  0
  4  5  1  0
  5  6  1  1
  7  5  1  0
  7  8  2  0
  9  7  1  0
 10  9  1  0
 10 11  1  6
 10 13  1  0
 11 12  1  0
 13 15  1  0
 13 14  2  0
 15 16  1  0
 16 17  1  0
 17 19  2  0
 17 18  1  0
M  END
$$$$
