MCG.pdb
     RDKit          3D

 19 18  0  0  1  0  0  0  0  0999 V2000
    5.9020  -12.0990   26.8597 C   0  0  0  0  0  0  0  0  0  0  0  0
    7.6314  -12.6309   27.1262 S   0  0  0  0  0  0  0  0  0  0  0  0
    7.7811  -14.3835   26.6623 C   0  0  0  0  0  0  0  0  0  0  0  0
    6.6368  -14.7942   25.8019 C   0  0  0  0  0  0  0  0  0  0  0  0
    6.7102  -16.2435   25.3251 C   0  0  2  0  0  0  0  0  0  0  0  0
    7.6734  -16.8588   26.2711 N   0  0  0  0  0  0  0  0  0  0  0  0
    7.3196  -16.3126   23.9764 C   0  0  0  0  0  0  0  0  0  0  0  0
    8.0803  -17.2754   23.6581 O   0  0  0  0  0  0  0  0  0  0  0  0
    7.1235  -15.3523   22.9395 N   0  0  0  0  0  0  0  0  0  0  0  0
    7.5782  -15.5734   21.5995 C   0  0  1  0  0  0  0  0  0  0  0  0
    7.2071  -14.2875   20.8231 C   0  0  0  0  0  0  0  0  0  0  0  0
    8.2217  -12.9042   21.3655 S   0  0  0  0  0  0  0  0  0  0  0  0
    9.0065  -15.7645   21.4125 C   0  0  0  0  0  0  0  0  0  0  0  0
    9.4124  -15.9207   20.2197 O   0  0  0  0  0  0  0  0  0  0  0  0
   10.0034  -15.7947   22.4200 N   0  0  0  0  0  0  0  0  0  0  0  0
   11.4133  -15.9916   22.1060 C   0  0  0  0  0  0  0  0  0  0  0  0
   12.1775  -15.9598   23.3667 C   0  0  0  0  0  0  0  0  0  0  0  0
   13.5545  -15.9675   23.3062 O   0  0  0  0  0  0  0  0  0  0  0  0
   11.6145  -15.9264   24.4792 O   0  0  0  0  0  0  0  0  0  0  0  0
  2  1  1  0
  3  2  1  0
  4  3  1  0
  4  5  1  0
  5  6  1  1
  7  5  1  0
  7  8  2  0
  9  7  1  0
 10  9  1  0
 10 11  1  6
 10 13  1  0
 11 12  1  0
 13 15  1  0
 13 14  2  0
 15 16  1  0
 16 17  1  0
 17 19  2  0
 17 18  1  0
M  END
$$$$
