MCG.pdb
     RDKit          3D

 19 18  0  0  1  0  0  0  0  0999 V2000
    6.3895  -22.4664   24.6028 C   0  0  0  0  0  0  0  0  0  0  0  0
    4.7806  -21.8773   23.9631 S   0  0  0  0  0  0  0  0  0  0  0  0
    5.0646  -20.3995   22.9410 C   0  0  0  0  0  0  0  0  0  0  0  0
    5.1380  -19.1815   23.7951 C   0  0  0  0  0  0  0  0  0  0  0  0
    6.5530  -18.6337   23.9712 C   0  0  2  0  0  0  0  0  0  0  0  0
    6.8673  -18.9657   25.3827 N   0  0  0  0  0  0  0  0  0  0  0  0
    6.5514  -17.1562   23.8612 C   0  0  0  0  0  0  0  0  0  0  0  0
    6.2018  -16.5875   22.7836 O   0  0  0  0  0  0  0  0  0  0  0  0
    6.9216  -16.2574   24.9056 N   0  0  0  0  0  0  0  0  0  0  0  0
    7.6199  -15.0340   24.6469 C   0  0  1  0  0  0  0  0  0  0  0  0
    7.2431  -14.0917   25.8149 C   0  0  0  0  0  0  0  0  0  0  0  0
    5.4560  -13.9323   25.9498 S   0  0  0  0  0  0  0  0  0  0  0  0
    9.0715  -15.0967   24.6260 C   0  0  0  0  0  0  0  0  0  0  0  0
    9.6539  -15.2645   25.7416 O   0  0  0  0  0  0  0  0  0  0  0  0
    9.9148  -14.9922   23.4912 N   0  0  0  0  0  0  0  0  0  0  0  0
   11.3661  -14.9240   23.6109 C   0  0  0  0  0  0  0  0  0  0  0  0
   11.8902  -16.3004   23.6834 C   0  0  0  0  0  0  0  0  0  0  0  0
   11.2028  -17.2317   24.4318 O   0  0  0  0  0  0  0  0  0  0  0  0
   12.9323  -16.6420   23.0894 O   0  0  0  0  0  0  0  0  0  0  0  0
  2  1  1  0
  3  2  1  0
  4  3  1  0
  4  5  1  0
  5  6  1  1
  7  5  1  0
  7  8  2  0
  9  7  1  0
 10  9  1  0
 10 11  1  1
 10 13  1  0
 11 12  1  0
 13 15  1  0
 13 14  2  0
 15 16  1  0
 16 17  1  0
 17 19  2  0
 17 18  1  0
M  END
$$$$
