MCG.pdb
     RDKit          3D

 19 18  0  0  1  0  0  0  0  0999 V2000
    7.0720  -12.2546   27.6950 C   0  0  0  0  0  0  0  0  0  0  0  0
    5.7213  -12.3509   26.4658 S   0  0  0  0  0  0  0  0  0  0  0  0
    5.8256  -13.9517   25.6082 C   0  0  0  0  0  0  0  0  0  0  0  0
    6.9563  -13.9506   24.6385 C   0  0  0  0  0  0  0  0  0  0  0  0
    7.7229  -15.2705   24.5805 C   0  0  2  0  0  0  0  0  0  0  0  0
    7.2040  -16.0110   25.7568 N   0  0  0  0  0  0  0  0  0  0  0  0
    9.1674  -15.0388   24.8140 C   0  0  0  0  0  0  0  0  0  0  0  0
    9.8477  -14.3311   24.0119 O   0  0  0  0  0  0  0  0  0  0  0  0
    9.9122  -15.5583   25.9145 N   0  0  0  0  0  0  0  0  0  0  0  0
   11.3040  -15.2730   26.0958 C   0  0  1  0  0  0  0  0  0  0  0  0
   11.5307  -15.2927   27.6262 C   0  0  0  0  0  0  0  0  0  0  0  0
   10.5606  -14.0066   28.4276 S   0  0  0  0  0  0  0  0  0  0  0  0
   12.2490  -16.2218   25.5316 C   0  0  0  0  0  0  0  0  0  0  0  0
   12.3923  -17.3228   26.1474 O   0  0  0  0  0  0  0  0  0  0  0  0
   13.0325  -16.0542   24.3621 N   0  0  0  0  0  0  0  0  0  0  0  0
   14.0109  -17.0485   23.9387 C   0  0  0  0  0  0  0  0  0  0  0  0
   15.3475  -16.4266   23.9716 C   0  0  0  0  0  0  0  0  0  0  0  0
   16.4334  -17.1693   23.5604 O   0  0  0  0  0  0  0  0  0  0  0  0
   15.5204  -15.2537   24.3592 O   0  0  0  0  0  0  0  0  0  0  0  0
  2  1  1  0
  3  2  1  0
  4  3  1  0
  4  5  1  0
  5  6  1  1
  7  5  1  0
  7  8  2  0
  9  7  1  0
 10  9  1  0
 10 11  1  1
 10 13  1  0
 11 12  1  0
 13 15  1  0
 13 14  2  0
 15 16  1  0
 16 17  1  0
 17 19  2  0
 17 18  1  0
M  END
$$$$
