MCG.pdb
     RDKit          3D

 19 18  0  0  1  0  0  0  0  0999 V2000
    6.5426  -12.6906   17.8989 C   0  0  0  0  0  0  0  0  0  0  0  0
    7.9345  -12.8219   19.0780 S   0  0  0  0  0  0  0  0  0  0  0  0
    7.5696  -14.1501   20.2662 C   0  0  0  0  0  0  0  0  0  0  0  0
    8.6016  -14.1869   21.3396 C   0  0  0  0  0  0  0  0  0  0  0  0
    8.3755  -15.2842   22.3779 C   0  0  2  0  0  0  0  0  0  0  0  0
    6.9106  -15.5098   22.3130 N   0  0  0  0  0  0  0  0  0  0  0  0
    8.6786  -14.7785   23.7371 C   0  0  0  0  0  0  0  0  0  0  0  0
    9.8612  -14.4546   24.0587 O   0  0  0  0  0  0  0  0  0  0  0  0
    7.7193  -14.6065   24.7791 N   0  0  0  0  0  0  0  0  0  0  0  0
    8.0996  -14.2634   26.1166 C   0  0  1  0  0  0  0  0  0  0  0  0
    6.7936  -13.8082   26.8103 C   0  0  0  0  0  0  0  0  0  0  0  0
    6.0307  -12.4558   25.9013 S   0  0  0  0  0  0  0  0  0  0  0  0
    8.6477  -15.3289   26.9387 C   0  0  0  0  0  0  0  0  0  0  0  0
    8.9617  -15.0284   28.1316 O   0  0  0  0  0  0  0  0  0  0  0  0
    8.8708  -16.6752   26.5549 N   0  0  0  0  0  0  0  0  0  0  0  0
    9.4629  -17.6495   27.4633 C   0  0  0  0  0  0  0  0  0  0  0  0
   10.8574  -17.8847   27.0455 C   0  0  0  0  0  0  0  0  0  0  0  0
   11.5128  -16.8975   26.3414 O   0  0  0  0  0  0  0  0  0  0  0  0
   11.4557  -18.9466   27.3105 O   0  0  0  0  0  0  0  0  0  0  0  0
  2  1  1  0
  3  2  1  0
  4  3  1  0
  4  5  1  0
  5  6  1  1
  7  5  1  0
  7  8  2  0
  9  7  1  0
 10  9  1  0
 10 11  1  1
 10 13  1  0
 11 12  1  0
 13 15  1  0
 13 14  2  0
 15 16  1  0
 16 17  1  0
 17 19  2  0
 17 18  1  0
M  END
$$$$
