TKF.pdb
     RDKit          3D

 28 28  0  0  1  0  0  0  0  0999 V2000
   28.4313  -20.3996   -9.0531 C   0  0  0  0  0  0  0  0  0  0  0  0
   27.5233  -20.3136  -10.2545 C   0  0  1  0  0  0  0  0  0  0  0  0
   28.0731  -19.4293  -11.1848 O   0  0  0  0  0  0  0  0  0  0  0  0
   27.3240  -21.6896  -10.8557 C   0  0  2  0  0  0  0  0  0  0  0  0
   28.5835  -22.2543  -11.2778 N   0  0  0  0  0  0  0  0  0  0  0  0
   26.3385  -21.6650  -11.9863 C   0  0  0  0  0  0  0  0  0  0  0  0
   26.7118  -21.8471  -13.1741 O   0  0  0  0  0  0  0  0  0  0  0  0
   24.9669  -21.4305  -11.6919 N   0  0  0  0  0  0  0  0  0  0  0  0
   23.9676  -21.2470  -12.7197 C   0  0  1  0  0  0  0  0  0  0  0  0
   22.5901  -21.6265  -12.2992 C   0  0  0  0  0  0  0  0  0  0  0  0
   22.0699  -22.8738  -12.9708 C   0  0  0  0  0  0  0  0  0  0  0  0
   20.9600  -22.5909  -13.9424 C   0  0  0  0  0  0  0  0  0  0  0  0
   20.5290  -23.8508  -14.6521 C   0  0  0  0  0  0  0  0  0  0  0  0
   19.3551  -23.5813  -15.4423 N   0  0  0  0  0  0  0  0  0  0  0  0
   24.0206  -19.8654  -13.2841 C   0  0  0  0  0  0  0  0  0  0  0  0
   23.8745  -18.9127  -12.4986 O   0  0  0  0  0  0  0  0  0  0  0  0
   24.2251  -19.5999  -14.6466 N   0  0  0  0  0  0  0  0  0  0  0  0
   24.3548  -18.2197  -15.1316 C   0  0  1  0  0  0  0  0  0  0  0  0
   25.7890  -17.8396  -15.2849 C   0  0  0  0  0  0  0  0  0  0  0  0
   26.0286  -16.5548  -15.9508 C   0  0  0  0  0  0  0  0  0  0  0  0
   26.1590  -15.3866  -15.2317 C   0  0  0  0  0  0  0  0  0  0  0  0
   26.3959  -14.1670  -15.8357 C   0  0  0  0  0  0  0  0  0  0  0  0
   26.5020  -14.1438  -17.2126 C   0  0  0  0  0  0  0  0  0  0  0  0
   26.3755  -15.3054  -17.9694 C   0  0  0  0  0  0  0  0  0  0  0  0
   26.1376  -16.5109  -17.3229 C   0  0  0  0  0  0  0  0  0  0  0  0
   23.5374  -18.0499  -16.3556 C   0  0  0  0  0  0  0  0  0  0  0  0
   23.3629  -19.0202  -17.1336 O   0  0  0  0  0  0  0  0  0  0  0  0
   22.9795  -16.8120  -16.6129 O   0  0  0  0  0  0  0  0  0  0  0  0
  2  1  1  1
  3  2  1  0
  4  2  1  0
  4  6  1  0
  4  5  1  6
  6  8  1  0
  7  6  2  0
  8  9  1  0
  9 10  1  1
  9 15  1  0
 11 10  1  0
 12 11  1  0
 13 12  1  0
 14 13  1  0
 15 16  2  0
 15 17  1  0
 17 18  1  0
 18 26  1  0
 18 19  1  6
 19 20  1  0
 20 21  2  0
 20 25  1  0
 21 22  1  0
 22 23  2  0
 24 23  1  0
 25 24  2  0
 26 28  1  0
 27 26  2  0
M  END
$$$$
