TKF.pdb
     RDKit          3D

 28 28  0  0  1  0  0  0  0  0999 V2000
   28.5468  -20.9093  -13.8074 C   0  0  0  0  0  0  0  0  0  0  0  0
   28.3950  -19.5365  -14.4135 C   0  0  1  0  0  0  0  0  0  0  0  0
   29.0782  -19.4923  -15.6305 O   0  0  0  0  0  0  0  0  0  0  0  0
   26.9277  -19.2071  -14.5950 C   0  0  2  0  0  0  0  0  0  0  0  0
   26.7638  -17.9563  -15.2967 N   0  0  0  0  0  0  0  0  0  0  0  0
   26.1954  -19.1907  -13.2861 C   0  0  0  0  0  0  0  0  0  0  0  0
   26.2062  -18.1692  -12.5514 O   0  0  0  0  0  0  0  0  0  0  0  0
   25.4846  -20.3560  -12.8863 N   0  0  0  0  0  0  0  0  0  0  0  0
   24.7257  -20.4254  -11.6584 C   0  0  1  0  0  0  0  0  0  0  0  0
   23.5384  -21.3217  -11.7305 C   0  0  0  0  0  0  0  0  0  0  0  0
   22.3521  -20.7065  -12.4317 C   0  0  0  0  0  0  0  0  0  0  0  0
   21.9394  -21.4721  -13.6561 C   0  0  0  0  0  0  0  0  0  0  0  0
   20.7340  -20.8404  -14.3077 C   0  0  0  0  0  0  0  0  0  0  0  0
   19.5874  -20.9912  -13.4489 N   0  0  0  0  0  0  0  0  0  0  0  0
   25.6057  -20.7534  -10.4972 C   0  0  0  0  0  0  0  0  0  0  0  0
   26.2788  -21.7972  -10.5570 O   0  0  0  0  0  0  0  0  0  0  0  0
   25.7036  -19.9440   -9.3553 N   0  0  0  0  0  0  0  0  0  0  0  0
   26.5433  -20.3462   -8.2194 C   0  0  1  0  0  0  0  0  0  0  0  0
   27.3773  -19.2057   -7.7411 C   0  0  0  0  0  0  0  0  0  0  0  0
   28.0974  -19.4403   -6.4849 C   0  0  0  0  0  0  0  0  0  0  0  0
   27.4814  -19.2781   -5.2630 C   0  0  0  0  0  0  0  0  0  0  0  0
   28.1356  -19.5039   -4.0674 C   0  0  0  0  0  0  0  0  0  0  0  0
   29.4556  -19.9064   -4.1253 C   0  0  0  0  0  0  0  0  0  0  0  0
   30.1081  -20.0800   -5.3428 C   0  0  0  0  0  0  0  0  0  0  0  0
   29.4140  -19.8424   -6.5216 C   0  0  0  0  0  0  0  0  0  0  0  0
   25.6945  -20.9695   -7.1772 C   0  0  0  0  0  0  0  0  0  0  0  0
   24.4716  -20.6910   -7.1141 O   0  0  0  0  0  0  0  0  0  0  0  0
   26.2778  -21.8541   -6.2899 O   0  0  0  0  0  0  0  0  0  0  0  0
  2  1  1  6
  3  2  1  0
  4  2  1  0
  4  6  1  0
  4  5  1  1
  6  8  1  0
  7  6  2  0
  8  9  1  0
  9 10  1  6
  9 15  1  0
 11 10  1  0
 12 11  1  0
 13 12  1  0
 14 13  1  0
 15 16  2  0
 15 17  1  0
 17 18  1  0
 18 26  1  0
 18 19  1  1
 19 20  1  0
 20 21  2  0
 20 25  1  0
 21 22  1  0
 22 23  2  0
 24 23  1  0
 25 24  2  0
 26 28  1  0
 27 26  2  0
M  END
$$$$
