TKF.pdb
     RDKit          3D

 28 28  0  0  1  0  0  0  0  0999 V2000
   23.7428  -14.6655  -17.0884 C   0  0  0  0  0  0  0  0  0  0  0  0
   24.1642  -14.8211  -18.5283 C   0  0  1  0  0  0  0  0  0  0  0  0
   24.5796  -13.5831  -19.0229 O   0  0  0  0  0  0  0  0  0  0  0  0
   25.2661  -15.8547  -18.6391 C   0  0  2  0  0  0  0  0  0  0  0  0
   25.6966  -16.0033  -20.0088 N   0  0  0  0  0  0  0  0  0  0  0  0
   24.8514  -17.1740  -18.0584 C   0  0  0  0  0  0  0  0  0  0  0  0
   23.9746  -17.8810  -18.6194 O   0  0  0  0  0  0  0  0  0  0  0  0
   25.4690  -17.6153  -16.8555 N   0  0  0  0  0  0  0  0  0  0  0  0
   25.0468  -18.8045  -16.1513 C   0  0  1  0  0  0  0  0  0  0  0  0
   26.0869  -19.3768  -15.2518 C   0  0  0  0  0  0  0  0  0  0  0  0
   25.6743  -20.6670  -14.5866 C   0  0  0  0  0  0  0  0  0  0  0  0
   25.8182  -21.8584  -15.4896 C   0  0  0  0  0  0  0  0  0  0  0  0
   25.4052  -23.1256  -14.7822 C   0  0  0  0  0  0  0  0  0  0  0  0
   25.5933  -24.2514  -15.6609 N   0  0  0  0  0  0  0  0  0  0  0  0
   23.7528  -18.5804  -15.4401 C   0  0  0  0  0  0  0  0  0  0  0  0
   23.7374  -17.7527  -14.5123 O   0  0  0  0  0  0  0  0  0  0  0  0
   22.5682  -19.2562  -15.7700 N   0  0  0  0  0  0  0  0  0  0  0  0
   21.3190  -18.9775  -15.0498 C   0  0  1  0  0  0  0  0  0  0  0  0
   20.4707  -18.0109  -15.8053 C   0  0  0  0  0  0  0  0  0  0  0  0
   19.9649  -18.4959  -17.0940 C   0  0  0  0  0  0  0  0  0  0  0  0
   20.6400  -18.2483  -18.2695 C   0  0  0  0  0  0  0  0  0  0  0  0
   20.1892  -18.7041  -19.4932 C   0  0  0  0  0  0  0  0  0  0  0  0
   19.0161  -19.4329  -19.5130 C   0  0  0  0  0  0  0  0  0  0  0  0
   18.3093  -19.7012  -18.3439 C   0  0  0  0  0  0  0  0  0  0  0  0
   18.7970  -19.2245  -17.1346 C   0  0  0  0  0  0  0  0  0  0  0  0
   20.6490  -20.2558  -14.7149 C   0  0  0  0  0  0  0  0  0  0  0  0
   21.1364  -21.3430  -15.1120 O   0  0  0  0  0  0  0  0  0  0  0  0
   19.4899  -20.2189  -13.9632 O   0  0  0  0  0  0  0  0  0  0  0  0
  2  1  1  1
  3  2  1  0
  4  2  1  0
  4  6  1  0
  4  5  1  6
  6  8  1  0
  7  6  2  0
  8  9  1  0
  9 10  1  1
  9 15  1  0
 11 10  1  0
 12 11  1  0
 13 12  1  0
 14 13  1  0
 15 16  2  0
 15 17  1  0
 17 18  1  0
 18 26  1  0
 18 19  1  6
 19 20  1  0
 20 21  2  0
 20 25  1  0
 21 22  1  0
 22 23  2  0
 24 23  1  0
 25 24  2  0
 26 28  1  0
 27 26  2  0
M  END
$$$$
