TKF.pdb
     RDKit          3D

 28 28  0  0  1  0  0  0  0  0999 V2000
   28.9770  -21.2232  -14.1771 C   0  0  0  0  0  0  0  0  0  0  0  0
   28.9861  -19.8173  -14.7233 C   0  0  1  0  0  0  0  0  0  0  0  0
   29.8433  -19.7564  -15.8240 O   0  0  0  0  0  0  0  0  0  0  0  0
   27.5803  -19.3954  -15.0979 C   0  0  2  0  0  0  0  0  0  0  0  0
   27.5955  -18.1627  -15.8486 N   0  0  0  0  0  0  0  0  0  0  0  0
   26.6942  -19.2817  -13.8930 C   0  0  0  0  0  0  0  0  0  0  0  0
   26.4120  -18.1584  -13.4010 O   0  0  0  0  0  0  0  0  0  0  0  0
   26.1753  -20.4717  -13.3119 N   0  0  0  0  0  0  0  0  0  0  0  0
   25.1848  -20.4597  -12.2597 C   0  0  1  0  0  0  0  0  0  0  0  0
   23.9262  -21.1774  -12.6049 C   0  0  0  0  0  0  0  0  0  0  0  0
   22.8539  -21.0698  -11.5485 C   0  0  0  0  0  0  0  0  0  0  0  0
   21.5648  -21.7212  -11.9602 C   0  0  0  0  0  0  0  0  0  0  0  0
   20.5091  -21.5508  -10.8958 C   0  0  0  0  0  0  0  0  0  0  0  0
   19.2404  -22.0136  -11.3968 N   0  0  0  0  0  0  0  0  0  0  0  0
   25.7638  -20.9339  -10.9673 C   0  0  0  0  0  0  0  0  0  0  0  0
   26.5421  -21.9030  -11.0020 O   0  0  0  0  0  0  0  0  0  0  0  0
   25.4700  -20.3400   -9.7304 N   0  0  0  0  0  0  0  0  0  0  0  0
   26.2245  -20.7043   -8.5242 C   0  0  1  0  0  0  0  0  0  0  0  0
   27.1849  -19.6265   -8.1487 C   0  0  0  0  0  0  0  0  0  0  0  0
   27.8390  -19.7965   -6.8468 C   0  0  0  0  0  0  0  0  0  0  0  0
   27.4972  -19.0157   -5.7641 C   0  0  0  0  0  0  0  0  0  0  0  0
   28.0912  -19.1648   -4.5258 C   0  0  0  0  0  0  0  0  0  0  0  0
   29.0607  -20.1395   -4.3934 C   0  0  0  0  0  0  0  0  0  0  0  0
   29.4298  -20.9457   -5.4667 C   0  0  0  0  0  0  0  0  0  0  0  0
   28.8080  -20.7631   -6.6946 C   0  0  0  0  0  0  0  0  0  0  0  0
   25.2789  -21.0896   -7.4507 C   0  0  0  0  0  0  0  0  0  0  0  0
   25.7156  -21.4788   -6.3393 O   0  0  0  0  0  0  0  0  0  0  0  0
   23.9225  -21.0088   -7.7025 O   0  0  0  0  0  0  0  0  0  0  0  0
  2  1  1  6
  3  2  1  0
  4  2  1  0
  4  6  1  0
  4  5  1  1
  6  8  1  0
  7  6  2  0
  8  9  1  0
  9 10  1  6
  9 15  1  0
 11 10  1  0
 12 11  1  0
 13 12  1  0
 14 13  1  0
 15 16  2  0
 15 17  1  0
 17 18  1  0
 18 26  1  0
 18 19  1  1
 19 20  1  0
 20 21  2  0
 20 25  1  0
 21 22  1  0
 22 23  2  0
 24 23  1  0
 25 24  2  0
 26 28  1  0
 27 26  2  0
M  END
$$$$
