TKF.pdb
     RDKit          3D

 28 28  0  0  1  0  0  0  0  0999 V2000
   25.5570  -12.7738  -15.0581 C   0  0  0  0  0  0  0  0  0  0  0  0
   25.1039  -14.1870  -15.3275 C   0  0  1  0  0  0  0  0  0  0  0  0
   23.7455  -14.1813  -15.6511 O   0  0  0  0  0  0  0  0  0  0  0  0
   25.9313  -14.7955  -16.4409 C   0  0  2  0  0  0  0  0  0  0  0  0
   25.6560  -14.1464  -17.7005 N   0  0  0  0  0  0  0  0  0  0  0  0
   25.7237  -16.2776  -16.5418 C   0  0  0  0  0  0  0  0  0  0  0  0
   24.7737  -16.7535  -17.2158 O   0  0  0  0  0  0  0  0  0  0  0  0
   26.6236  -17.1414  -15.8584 N   0  0  0  0  0  0  0  0  0  0  0  0
   26.4119  -18.5673  -15.7561 C   0  0  1  0  0  0  0  0  0  0  0  0
   27.6393  -19.3385  -15.4140 C   0  0  0  0  0  0  0  0  0  0  0  0
   27.4237  -20.8308  -15.3517 C   0  0  0  0  0  0  0  0  0  0  0  0
   28.3798  -21.5931  -16.2237 C   0  0  0  0  0  0  0  0  0  0  0  0
   28.0814  -23.0718  -16.1890 C   0  0  0  0  0  0  0  0  0  0  0  0
   29.0729  -23.7817  -16.9557 N   0  0  0  0  0  0  0  0  0  0  0  0
   25.2786  -18.8805  -14.8353 C   0  0  0  0  0  0  0  0  0  0  0  0
   25.3197  -18.4100  -13.6851 O   0  0  0  0  0  0  0  0  0  0  0  0
   24.1831  -19.6739  -15.2081 N   0  0  0  0  0  0  0  0  0  0  0  0
   23.0822  -19.9236  -14.2686 C   0  0  1  0  0  0  0  0  0  0  0  0
   22.2019  -18.7257  -14.1463 C   0  0  0  0  0  0  0  0  0  0  0  0
   21.4793  -18.3525  -15.3671 C   0  0  0  0  0  0  0  0  0  0  0  0
   21.7857  -17.2012  -16.0594 C   0  0  0  0  0  0  0  0  0  0  0  0
   21.1268  -16.8349  -17.2170 C   0  0  0  0  0  0  0  0  0  0  0  0
   20.1279  -17.6702  -17.6774 C   0  0  0  0  0  0  0  0  0  0  0  0
   19.7931  -18.8410  -17.0025 C   0  0  0  0  0  0  0  0  0  0  0  0
   20.4801  -19.1725  -15.8423 C   0  0  0  0  0  0  0  0  0  0  0  0
   22.3791  -21.1691  -14.6550 C   0  0  0  0  0  0  0  0  0  0  0  0
   22.6918  -21.7632  -15.7163 O   0  0  0  0  0  0  0  0  0  0  0  0
   21.3845  -21.6525  -13.8260 O   0  0  0  0  0  0  0  0  0  0  0  0
  2  1  1  6
  3  2  1  0
  4  2  1  0
  4  6  1  0
  4  5  1  6
  6  8  1  0
  7  6  2  0
  8  9  1  0
  9 10  1  1
  9 15  1  0
 11 10  1  0
 12 11  1  0
 13 12  1  0
 14 13  1  0
 15 16  2  0
 15 17  1  0
 17 18  1  0
 18 26  1  0
 18 19  1  6
 19 20  1  0
 20 21  2  0
 20 25  1  0
 21 22  1  0
 22 23  2  0
 24 23  1  0
 25 24  2  0
 26 28  1  0
 27 26  2  0
M  END
$$$$
