TKF.pdb
     RDKit          3D

 28 28  0  0  1  0  0  0  0  0999 V2000
   27.7278  -18.4892  -14.9435 C   0  0  0  0  0  0  0  0  0  0  0  0
   27.6017  -17.8988  -16.3258 C   0  0  1  0  0  0  0  0  0  0  0  0
   28.5985  -16.9382  -16.5089 O   0  0  0  0  0  0  0  0  0  0  0  0
   27.6948  -18.9928  -17.3694 C   0  0  2  0  0  0  0  0  0  0  0  0
   27.7054  -18.4348  -18.7006 N   0  0  0  0  0  0  0  0  0  0  0  0
   26.5954  -20.0018  -17.2167 C   0  0  0  0  0  0  0  0  0  0  0  0
   25.3910  -19.6763  -17.3806 O   0  0  0  0  0  0  0  0  0  0  0  0
   26.9388  -21.3406  -16.8812 N   0  0  0  0  0  0  0  0  0  0  0  0
   25.9477  -22.3558  -16.6060 C   0  0  1  0  0  0  0  0  0  0  0  0
   26.4546  -23.7495  -16.7432 C   0  0  0  0  0  0  0  0  0  0  0  0
   25.3960  -24.8057  -16.5400 C   0  0  0  0  0  0  0  0  0  0  0  0
   25.9538  -26.1999  -16.5638 C   0  0  0  0  0  0  0  0  0  0  0  0
   24.8488  -27.2253  -16.4994 C   0  0  0  0  0  0  0  0  0  0  0  0
   25.4200  -28.5446  -16.4097 N   0  0  0  0  0  0  0  0  0  0  0  0
   25.2915  -22.1258  -15.2844 C   0  0  0  0  0  0  0  0  0  0  0  0
   26.0206  -21.8505  -14.3155 O   0  0  0  0  0  0  0  0  0  0  0  0
   23.9040  -22.2068  -15.0916 N   0  0  0  0  0  0  0  0  0  0  0  0
   23.3051  -21.8692  -13.7938 C   0  0  1  0  0  0  0  0  0  0  0  0
   23.7613  -20.5279  -13.3274 C   0  0  0  0  0  0  0  0  0  0  0  0
   23.1333  -20.0477  -12.0918 C   0  0  0  0  0  0  0  0  0  0  0  0
   21.9514  -19.3396  -12.1152 C   0  0  0  0  0  0  0  0  0  0  0  0
   21.3358  -18.8870  -10.9643 C   0  0  0  0  0  0  0  0  0  0  0  0
   21.9471  -19.1672   -9.7579 C   0  0  0  0  0  0  0  0  0  0  0  0
   23.1413  -19.8802   -9.6984 C   0  0  0  0  0  0  0  0  0  0  0  0
   23.7273  -20.3171  -10.8789 C   0  0  0  0  0  0  0  0  0  0  0  0
   21.8341  -22.0265  -13.8755 C   0  0  0  0  0  0  0  0  0  0  0  0
   21.2380  -21.8034  -14.9581 O   0  0  0  0  0  0  0  0  0  0  0  0
   21.1465  -22.4211  -12.7435 O   0  0  0  0  0  0  0  0  0  0  0  0
  2  1  1  1
  3  2  1  0
  4  2  1  0
  4  6  1  0
  4  5  1  6
  6  8  1  0
  7  6  2  0
  8  9  1  0
  9 10  1  1
  9 15  1  0
 11 10  1  0
 12 11  1  0
 13 12  1  0
 14 13  1  0
 15 16  2  0
 15 17  1  0
 17 18  1  0
 18 26  1  0
 18 19  1  6
 19 20  1  0
 20 21  2  0
 20 25  1  0
 21 22  1  0
 22 23  2  0
 24 23  1  0
 25 24  2  0
 26 28  1  0
 27 26  2  0
M  END
$$$$
