NEK.pdb
     RDKit          3D

 27 26  0  0  1  0  0  0  0  0999 V2000
    9.4099  -14.0608   16.1612 N   0  0  0  0  0  0  0  0  0  0  0  0
    8.0309  -14.2539   16.3269 C   0  0  0  0  0  0  0  0  0  0  0  0
    7.2416  -14.6139   15.4098 O   0  0  0  0  0  0  0  0  0  0  0  0
    7.4262  -14.0253   17.6644 C   0  0  0  0  0  0  0  0  0  0  0  0
    8.4425  -13.5197   18.6737 C   0  0  2  0  0  0  0  0  0  0  0  0
    9.7713  -13.4570   18.0863 N   0  0  0  0  0  0  0  0  0  0  0  0
    8.4502  -14.5164   19.7935 C   0  0  0  0  0  0  0  0  0  0  0  0
    7.3646  -14.7194   20.4268 O   0  0  0  0  0  0  0  0  0  0  0  0
    9.6650  -15.2160   20.1259 N   0  0  0  0  0  0  0  0  0  0  0  0
    9.6485  -16.1046   21.2263 C   0  0  1  0  0  0  0  0  0  0  0  0
   10.8543  -17.0346   21.0921 C   0  0  0  0  0  0  0  0  0  0  0  0
   10.8636  -18.0700   22.1956 C   0  0  0  0  0  0  0  0  0  0  0  0
   12.0387  -18.9373   21.9978 C   0  0  0  0  0  0  0  0  0  0  0  0
   12.2863  -19.3894   20.8556 O   0  0  0  0  0  0  0  0  0  0  0  0
    9.7016  -15.5346   22.5607 C   0  0  0  0  0  0  0  0  0  0  0  0
   10.6751  -14.7415   22.8028 O   0  0  0  0  0  0  0  0  0  0  0  0
   12.8585  -19.2460   23.0565 O   0  0  0  0  0  0  0  0  0  0  0  0
    8.8147  -15.7512   23.6088 N   0  0  0  0  0  0  0  0  0  0  0  0
    9.0037  -15.0119   24.9173 C   0  0  1  0  0  0  0  0  0  0  0  0
    7.7634  -14.2086   25.0087 C   0  0  0  0  0  0  0  0  0  0  0  0
    7.4587  -13.2905   26.0918 C   0  0  0  0  0  0  0  0  0  0  0  0
    6.1589  -12.5960   26.0640 C   0  0  0  0  0  0  0  0  0  0  0  0
    6.0279  -11.6043   27.2397 C   0  0  0  0  0  0  0  0  0  0  0  0
    4.7266  -10.9745   27.1814 N   0  0  0  0  0  0  0  0  0  0  0  0
    9.1303  -16.1430   25.8682 C   0  0  0  0  0  0  0  0  0  0  0  0
    9.2128  -16.0174   27.1108 O   0  0  0  0  0  0  0  0  0  0  0  0
    9.1665  -17.4829   25.4239 O   0  0  0  0  0  0  0  0  0  0  0  0
  2  1  1  0
  3  2  2  0
  4  5  1  0
  4  2  1  0
  5  6  1  6
  7  8  2  0
  7  5  1  0
  9  7  1  0
 10  9  1  0
 10 11  1  6
 11 12  1  0
 12 13  1  0
 13 17  1  0
 14 13  2  0
 15 10  1  0
 16 15  2  0
 18 15  1  0
 19 20  1  1
 19 18  1  0
 20 21  1  0
 22 21  1  0
 23 22  1  0
 24 23  1  0
 25 27  1  0
 25 19  1  0
 26 25  2  0
M  END
$$$$
