NEK.pdb
     RDKit          3D

 27 26  0  0  1  0  0  0  0  0999 V2000
    9.4639  -14.2617   15.5910 N   0  0  0  0  0  0  0  0  0  0  0  0
    8.1000  -14.0967   15.8722 C   0  0  0  0  0  0  0  0  0  0  0  0
    7.1789  -14.1453   15.0103 O   0  0  0  0  0  0  0  0  0  0  0  0
    7.6781  -13.8441   17.2739 C   0  0  0  0  0  0  0  0  0  0  0  0
    8.8588  -13.7999   18.2284 C   0  0  2  0  0  0  0  0  0  0  0  0
   10.0360  -14.4057   17.6272 N   0  0  0  0  0  0  0  0  0  0  0  0
    8.4557  -14.6025   19.4287 C   0  0  0  0  0  0  0  0  0  0  0  0
    7.4139  -14.2475   20.0687 O   0  0  0  0  0  0  0  0  0  0  0  0
    9.2400  -15.7430   19.8283 N   0  0  0  0  0  0  0  0  0  0  0  0
    8.8716  -16.4314   21.0078 C   0  0  1  0  0  0  0  0  0  0  0  0
    9.6243  -17.7617   21.0252 C   0  0  0  0  0  0  0  0  0  0  0  0
    9.0720  -18.7088   19.9822 C   0  0  0  0  0  0  0  0  0  0  0  0
    9.8819  -19.9399   20.0089 C   0  0  0  0  0  0  0  0  0  0  0  0
    9.3158  -21.0473   20.1624 O   0  0  0  0  0  0  0  0  0  0  0  0
    9.1301  -15.7836   22.2814 C   0  0  0  0  0  0  0  0  0  0  0  0
   10.2658  -15.2094   22.4080 O   0  0  0  0  0  0  0  0  0  0  0  0
   11.2468  -19.8750   19.8637 O   0  0  0  0  0  0  0  0  0  0  0  0
    8.2844  -15.7144   23.3822 N   0  0  0  0  0  0  0  0  0  0  0  0
    8.6731  -14.8667   24.5758 C   0  0  1  0  0  0  0  0  0  0  0  0
    7.4488  -14.0673   24.8081 C   0  0  0  0  0  0  0  0  0  0  0  0
    7.3020  -13.0794   25.8624 C   0  0  0  0  0  0  0  0  0  0  0  0
    6.0030  -12.3952   25.9923 C   0  0  0  0  0  0  0  0  0  0  0  0
    5.9782  -11.4687   27.2267 C   0  0  0  0  0  0  0  0  0  0  0  0
    4.6777  -10.8414   27.3184 N   0  0  0  0  0  0  0  0  0  0  0  0
    8.9801  -15.9131   25.5810 C   0  0  0  0  0  0  0  0  0  0  0  0
    8.5273  -17.0795   25.5495 O   0  0  0  0  0  0  0  0  0  0  0  0
    9.8325  -15.6585   26.6777 O   0  0  0  0  0  0  0  0  0  0  0  0
  2  1  1  0
  3  2  2  0
  4  5  1  0
  4  2  1  0
  5  6  1  6
  7  8  2  0
  7  5  1  0
  9  7  1  0
 10  9  1  0
 10 11  1  1
 11 12  1  0
 12 13  1  0
 13 17  1  0
 14 13  2  0
 15 10  1  0
 16 15  2  0
 18 15  1  0
 19 20  1  1
 19 18  1  0
 20 21  1  0
 22 21  1  0
 23 22  1  0
 24 23  1  0
 25 27  1  0
 25 19  1  0
 26 25  2  0
M  END
$$$$
