NEK.pdb
     RDKit          3D

 27 26  0  0  1  0  0  0  0  0999 V2000
    8.3799  -12.8110   16.8244 N   0  0  0  0  0  0  0  0  0  0  0  0
    7.6214  -13.9877   16.9072 C   0  0  0  0  0  0  0  0  0  0  0  0
    6.8711  -14.4235   15.9901 O   0  0  0  0  0  0  0  0  0  0  0  0
    7.6832  -14.7998   18.1495 C   0  0  0  0  0  0  0  0  0  0  0  0
    8.4361  -14.0896   19.2612 C   0  0  2  0  0  0  0  0  0  0  0  0
    9.7568  -13.6775   18.8136 N   0  0  0  0  0  0  0  0  0  0  0  0
    8.5857  -15.0888   20.3687 C   0  0  0  0  0  0  0  0  0  0  0  0
    7.5356  -15.4797   20.9734 O   0  0  0  0  0  0  0  0  0  0  0  0
    9.8926  -15.5818   20.7216 N   0  0  0  0  0  0  0  0  0  0  0  0
    9.9987  -16.4916   21.7994 C   0  0  1  0  0  0  0  0  0  0  0  0
   11.3138  -17.2539   21.6379 C   0  0  0  0  0  0  0  0  0  0  0  0
   11.2387  -18.2210   20.4765 C   0  0  0  0  0  0  0  0  0  0  0  0
   12.5583  -18.8605   20.3289 C   0  0  0  0  0  0  0  0  0  0  0  0
   13.1478  -18.8102   19.2242 O   0  0  0  0  0  0  0  0  0  0  0  0
    9.9864  -15.9522   23.1475 C   0  0  0  0  0  0  0  0  0  0  0  0
   10.9394  -15.1551   23.4505 O   0  0  0  0  0  0  0  0  0  0  0  0
   13.1397  -19.5044   21.3944 O   0  0  0  0  0  0  0  0  0  0  0  0
    9.0566  -16.2019   24.1500 N   0  0  0  0  0  0  0  0  0  0  0  0
    9.1728  -15.4828   25.4781 C   0  0  1  0  0  0  0  0  0  0  0  0
    7.8245  -14.8925   25.6372 C   0  0  0  0  0  0  0  0  0  0  0  0
    7.5584  -13.6144   26.2733 C   0  0  0  0  0  0  0  0  0  0  0  0
    6.3091  -12.9150   25.9232 C   0  0  0  0  0  0  0  0  0  0  0  0
    6.2325  -11.5306   26.6017 C   0  0  0  0  0  0  0  0  0  0  0  0
    5.0111  -10.8724   26.1916 N   0  0  0  0  0  0  0  0  0  0  0  0
    9.5130  -16.6078   26.3827 C   0  0  0  0  0  0  0  0  0  0  0  0
    9.6739  -16.4982   27.6191 O   0  0  0  0  0  0  0  0  0  0  0  0
    9.6833  -17.9227   25.8968 O   0  0  0  0  0  0  0  0  0  0  0  0
  2  1  1  0
  3  2  2  0
  4  5  1  0
  4  2  1  0
  5  6  1  6
  7  8  2  0
  7  5  1  0
  9  7  1  0
 10  9  1  0
 10 11  1  6
 11 12  1  0
 12 13  1  0
 13 17  1  0
 14 13  2  0
 15 10  1  0
 16 15  2  0
 18 15  1  0
 19 20  1  1
 19 18  1  0
 20 21  1  0
 22 21  1  0
 23 22  1  0
 24 23  1  0
 25 27  1  0
 25 19  1  0
 26 25  2  0
M  END
$$$$
