NEK.pdb
     RDKit          3D

 27 26  0  0  1  0  0  0  0  0999 V2000
    6.8715  -15.5504   17.2759 N   0  0  0  0  0  0  0  0  0  0  0  0
    7.8940  -14.5912   17.3085 C   0  0  0  0  0  0  0  0  0  0  0  0
    8.9640  -14.6606   16.6422 O   0  0  0  0  0  0  0  0  0  0  0  0
    7.7366  -13.3985   18.1799 C   0  0  0  0  0  0  0  0  0  0  0  0
    8.9152  -13.2169   19.1207 C   0  0  2  0  0  0  0  0  0  0  0  0
   10.1751  -13.3401   18.4051 N   0  0  0  0  0  0  0  0  0  0  0  0
    8.8173  -14.3206   20.1305 C   0  0  0  0  0  0  0  0  0  0  0  0
    7.6861  -14.5450   20.6700 O   0  0  0  0  0  0  0  0  0  0  0  0
    9.9848  -15.0955   20.4651 N   0  0  0  0  0  0  0  0  0  0  0  0
    9.8825  -16.0493   21.5047 C   0  0  1  0  0  0  0  0  0  0  0  0
   11.0145  -17.0602   21.3225 C   0  0  0  0  0  0  0  0  0  0  0  0
   10.5946  -18.1806   20.3961 C   0  0  0  0  0  0  0  0  0  0  0  0
   11.7318  -19.1078   20.2563 C   0  0  0  0  0  0  0  0  0  0  0  0
   12.5292  -18.9660   19.3001 O   0  0  0  0  0  0  0  0  0  0  0  0
    9.9588  -15.5725   22.8741 C   0  0  0  0  0  0  0  0  0  0  0  0
   10.9777  -14.8597   23.1729 O   0  0  0  0  0  0  0  0  0  0  0  0
   11.9184  -20.1182   21.1686 O   0  0  0  0  0  0  0  0  0  0  0  0
    9.0506  -15.8011   23.9011 N   0  0  0  0  0  0  0  0  0  0  0  0
    9.2131  -15.0777   25.2220 C   0  0  1  0  0  0  0  0  0  0  0  0
    8.0080  -14.2186   25.2623 C   0  0  0  0  0  0  0  0  0  0  0  0
    7.7291  -13.2451   26.3032 C   0  0  0  0  0  0  0  0  0  0  0  0
    6.4558  -12.5059   26.2349 C   0  0  0  0  0  0  0  0  0  0  0  0
    6.3151  -11.5210   27.4152 C   0  0  0  0  0  0  0  0  0  0  0  0
    5.0375  -10.8492   27.3180 N   0  0  0  0  0  0  0  0  0  0  0  0
    9.2440  -16.2180   26.1698 C   0  0  0  0  0  0  0  0  0  0  0  0
    8.9025  -17.3872   25.8819 O   0  0  0  0  0  0  0  0  0  0  0  0
    9.6757  -16.0592   27.5049 O   0  0  0  0  0  0  0  0  0  0  0  0
  2  1  1  0
  3  2  2  0
  4  5  1  0
  4  2  1  0
  5  6  1  6
  7  8  2  0
  7  5  1  0
  9  7  1  0
 10  9  1  0
 10 11  1  6
 11 12  1  0
 12 13  1  0
 13 17  1  0
 14 13  2  0
 15 10  1  0
 16 15  2  0
 18 15  1  0
 19 20  1  1
 19 18  1  0
 20 21  1  0
 22 21  1  0
 23 22  1  0
 24 23  1  0
 25 27  1  0
 25 19  1  0
 26 25  2  0
M  END
$$$$
