NEK.pdb
     RDKit          3D

 27 26  0  0  1  0  0  0  0  0999 V2000
    8.9715  -13.2059   16.0108 N   0  0  0  0  0  0  0  0  0  0  0  0
    7.7464  -13.8260   16.2958 C   0  0  0  0  0  0  0  0  0  0  0  0
    6.7991  -13.9555   15.4714 O   0  0  0  0  0  0  0  0  0  0  0  0
    7.5166  -14.3782   17.6555 C   0  0  0  0  0  0  0  0  0  0  0  0
    8.6112  -13.9771   18.6292 C   0  0  2  0  0  0  0  0  0  0  0  0
    9.9272  -14.2000   18.0523 N   0  0  0  0  0  0  0  0  0  0  0  0
    8.4478  -14.8614   19.8286 C   0  0  0  0  0  0  0  0  0  0  0  0
    7.3621  -14.7860   20.4894 O   0  0  0  0  0  0  0  0  0  0  0  0
    9.5036  -15.7668   20.2045 N   0  0  0  0  0  0  0  0  0  0  0  0
    9.3532  -16.5168   21.3943 C   0  0  1  0  0  0  0  0  0  0  0  0
   10.4176  -17.6139   21.3910 C   0  0  0  0  0  0  0  0  0  0  0  0
   10.2857  -18.4985   22.6116 C   0  0  0  0  0  0  0  0  0  0  0  0
   11.2861  -19.5756   22.5051 C   0  0  0  0  0  0  0  0  0  0  0  0
   12.1189  -19.5535   21.5690 O   0  0  0  0  0  0  0  0  0  0  0  0
    9.4746  -15.8149   22.6597 C   0  0  0  0  0  0  0  0  0  0  0  0
   10.4931  -15.0530   22.7928 O   0  0  0  0  0  0  0  0  0  0  0  0
   11.3080  -20.5948   23.4264 O   0  0  0  0  0  0  0  0  0  0  0  0
    8.6100  -15.8747   23.7463 N   0  0  0  0  0  0  0  0  0  0  0  0
    8.9014  -15.0512   24.9839 C   0  0  1  0  0  0  0  0  0  0  0  0
    7.6728  -14.2360   25.1177 C   0  0  0  0  0  0  0  0  0  0  0  0
    7.5303  -13.1098   26.0235 C   0  0  0  0  0  0  0  0  0  0  0  0
    6.2288  -12.4195   26.0683 C   0  0  0  0  0  0  0  0  0  0  0  0
    6.2601  -11.2270   27.0480 C   0  0  0  0  0  0  0  0  0  0  0  0
    4.9706  -10.5712   27.0326 N   0  0  0  0  0  0  0  0  0  0  0  0
    9.1007  -16.1174   25.9954 C   0  0  0  0  0  0  0  0  0  0  0  0
    8.7746  -17.3151   25.8353 O   0  0  0  0  0  0  0  0  0  0  0  0
    9.6922  -15.8471   27.2489 O   0  0  0  0  0  0  0  0  0  0  0  0
  2  1  1  0
  3  2  2  0
  4  5  1  0
  4  2  1  0
  5  6  1  6
  7  8  2  0
  7  5  1  0
  9  7  1  0
 10  9  1  0
 10 11  1  1
 11 12  1  0
 12 13  1  0
 13 17  1  0
 14 13  2  0
 15 10  1  0
 16 15  2  0
 18 15  1  0
 19 20  1  1
 19 18  1  0
 20 21  1  0
 22 21  1  0
 23 22  1  0
 24 23  1  0
 25 27  1  0
 25 19  1  0
 26 25  2  0
M  END
$$$$
