NEK.pdb
     RDKit          3D

 27 26  0  0  1  0  0  0  0  0999 V2000
    6.3007  -13.1690   18.3616 N   0  0  0  0  0  0  0  0  0  0  0  0
    7.1253  -13.8947   17.4899 C   0  0  0  0  0  0  0  0  0  0  0  0
    6.9680  -13.9569   16.2388 O   0  0  0  0  0  0  0  0  0  0  0  0
    8.2726  -14.6554   18.0482 C   0  0  0  0  0  0  0  0  0  0  0  0
    9.2650  -13.7535   18.7616 C   0  0  2  0  0  0  0  0  0  0  0  0
    9.8141  -12.7619   17.8507 N   0  0  0  0  0  0  0  0  0  0  0  0
   10.3721  -14.6451   19.2377 C   0  0  0  0  0  0  0  0  0  0  0  0
   10.0675  -15.6580   19.9464 O   0  0  0  0  0  0  0  0  0  0  0  0
   11.7376  -14.3459   18.8890 N   0  0  0  0  0  0  0  0  0  0  0  0
   12.7476  -15.2495   19.2942 C   0  0  1  0  0  0  0  0  0  0  0  0
   14.0209  -14.9011   18.5234 C   0  0  0  0  0  0  0  0  0  0  0  0
   13.9039  -15.3134   17.0722 C   0  0  0  0  0  0  0  0  0  0  0  0
   15.1602  -14.9510   16.3920 C   0  0  0  0  0  0  0  0  0  0  0  0
   15.1464  -14.6989   15.1645 O   0  0  0  0  0  0  0  0  0  0  0  0
   13.1027  -15.2849   20.7017 C   0  0  0  0  0  0  0  0  0  0  0  0
   13.1615  -14.1577   21.3026 O   0  0  0  0  0  0  0  0  0  0  0  0
   16.3372  -14.8869   17.0980 O   0  0  0  0  0  0  0  0  0  0  0  0
   13.3869  -16.4048   21.4744 N   0  0  0  0  0  0  0  0  0  0  0  0
   13.5261  -16.2653   22.9762 C   0  0  1  0  0  0  0  0  0  0  0  0
   12.5805  -17.2881   23.4778 C   0  0  0  0  0  0  0  0  0  0  0  0
   12.4029  -17.6237   24.8795 C   0  0  0  0  0  0  0  0  0  0  0  0
   11.3630  -18.6085   25.2279 C   0  0  0  0  0  0  0  0  0  0  0  0
   11.2955  -18.8369   26.7531 C   0  0  0  0  0  0  0  0  0  0  0  0
   10.1594  -19.6811   27.0527 N   0  0  0  0  0  0  0  0  0  0  0  0
   14.9695  -16.5542   23.1569 C   0  0  0  0  0  0  0  0  0  0  0  0
   15.6659  -17.2127   22.3520 O   0  0  0  0  0  0  0  0  0  0  0  0
   15.6816  -16.0907   24.2849 O   0  0  0  0  0  0  0  0  0  0  0  0
  2  1  1  0
  3  2  2  0
  4  5  1  0
  4  2  1  0
  5  6  1  6
  7  8  2  0
  7  5  1  0
  9  7  1  0
 10  9  1  0
 10 11  1  6
 11 12  1  0
 12 13  1  0
 13 17  1  0
 14 13  2  0
 15 10  1  0
 16 15  2  0
 18 15  1  0
 19 20  1  1
 19 18  1  0
 20 21  1  0
 22 21  1  0
 23 22  1  0
 24 23  1  0
 25 27  1  0
 25 19  1  0
 26 25  2  0
M  END
$$$$
