NEK.pdb
     RDKit          3D

 27 26  0  0  1  0  0  0  0  0999 V2000
    8.4151  -13.1181   16.2399 N   0  0  0  0  0  0  0  0  0  0  0  0
    7.4891  -14.1416   16.4880 C   0  0  0  0  0  0  0  0  0  0  0  0
    6.6176  -14.5357   15.6641 O   0  0  0  0  0  0  0  0  0  0  0  0
    7.5094  -14.8290   17.8048 C   0  0  0  0  0  0  0  0  0  0  0  0
    8.3649  -14.0935   18.8218 C   0  0  2  0  0  0  0  0  0  0  0  0
    9.6949  -13.8363   18.2931 N   0  0  0  0  0  0  0  0  0  0  0  0
    8.4784  -15.0033   20.0078 C   0  0  0  0  0  0  0  0  0  0  0  0
    7.4178  -15.2894   20.6514 O   0  0  0  0  0  0  0  0  0  0  0  0
    9.7637  -15.5300   20.3904 N   0  0  0  0  0  0  0  0  0  0  0  0
    9.8303  -16.3895   21.5119 C   0  0  1  0  0  0  0  0  0  0  0  0
   11.0960  -17.2358   21.3756 C   0  0  0  0  0  0  0  0  0  0  0  0
   10.7802  -18.7082   21.5242 C   0  0  0  0  0  0  0  0  0  0  0  0
   12.0541  -19.4371   21.6584 C   0  0  0  0  0  0  0  0  0  0  0  0
   12.9400  -19.2969   20.7832 O   0  0  0  0  0  0  0  0  0  0  0  0
    9.8678  -15.7836   22.8309 C   0  0  0  0  0  0  0  0  0  0  0  0
   10.8172  -14.9554   23.0503 O   0  0  0  0  0  0  0  0  0  0  0  0
   12.2707  -20.2618   22.7359 O   0  0  0  0  0  0  0  0  0  0  0  0
    8.9892  -15.9993   23.8861 N   0  0  0  0  0  0  0  0  0  0  0  0
    9.2104  -15.2877   25.2049 C   0  0  1  0  0  0  0  0  0  0  0  0
    8.0135  -14.4217   25.3014 C   0  0  0  0  0  0  0  0  0  0  0  0
    7.8310  -13.3830   26.2999 C   0  0  0  0  0  0  0  0  0  0  0  0
    6.5478  -12.6580   26.3162 C   0  0  0  0  0  0  0  0  0  0  0  0
    6.5004  -11.6280   27.4651 C   0  0  0  0  0  0  0  0  0  0  0  0
    5.2107  -10.9724   27.4565 N   0  0  0  0  0  0  0  0  0  0  0  0
    9.2728  -16.4359   26.1415 C   0  0  0  0  0  0  0  0  0  0  0  0
    8.8826  -17.5936   25.8693 O   0  0  0  0  0  0  0  0  0  0  0  0
    9.7944  -16.2989   27.4466 O   0  0  0  0  0  0  0  0  0  0  0  0
  2  1  1  0
  3  2  2  0
  4  5  1  0
  4  2  1  0
  5  6  1  6
  7  8  2  0
  7  5  1  0
  9  7  1  0
 10  9  1  0
 10 11  1  6
 11 12  1  0
 12 13  1  0
 13 17  1  0
 14 13  2  0
 15 10  1  0
 16 15  2  0
 18 15  1  0
 19 20  1  1
 19 18  1  0
 20 21  1  0
 22 21  1  0
 23 22  1  0
 24 23  1  0
 25 27  1  0
 25 19  1  0
 26 25  2  0
M  END
$$$$
