NEK.pdb
     RDKit          3D

 27 26  0  0  1  0  0  0  0  0999 V2000
    7.7660  -12.3439   16.7940 N   0  0  0  0  0  0  0  0  0  0  0  0
    7.7479  -13.7430   16.8866 C   0  0  0  0  0  0  0  0  0  0  0  0
    7.7831  -14.5278   15.8983 O   0  0  0  0  0  0  0  0  0  0  0  0
    7.6818  -14.3763   18.2287 C   0  0  0  0  0  0  0  0  0  0  0  0
    9.0304  -14.3795   18.9276 C   0  0  2  0  0  0  0  0  0  0  0  0
   10.0208  -15.0989   18.1427 N   0  0  0  0  0  0  0  0  0  0  0  0
    8.8247  -15.0953   20.2286 C   0  0  0  0  0  0  0  0  0  0  0  0
    7.9954  -14.6055   21.0612 O   0  0  0  0  0  0  0  0  0  0  0  0
    9.5554  -16.3053   20.5077 N   0  0  0  0  0  0  0  0  0  0  0  0
    9.3468  -16.9436   21.7526 C   0  0  1  0  0  0  0  0  0  0  0  0
   10.2695  -18.1609   21.8122 C   0  0  0  0  0  0  0  0  0  0  0  0
   11.7222  -17.7377   21.8261 C   0  0  0  0  0  0  0  0  0  0  0  0
   12.5514  -18.9541   21.8980 C   0  0  0  0  0  0  0  0  0  0  0  0
   12.1411  -20.0124   21.3670 O   0  0  0  0  0  0  0  0  0  0  0  0
    9.5863  -16.1731   22.9598 C   0  0  0  0  0  0  0  0  0  0  0  0
   10.6098  -15.4065   22.9523 O   0  0  0  0  0  0  0  0  0  0  0  0
   13.7663  -18.9279   22.5394 O   0  0  0  0  0  0  0  0  0  0  0  0
    8.8301  -16.1715   24.1260 N   0  0  0  0  0  0  0  0  0  0  0  0
    9.1654  -15.1979   25.2370 C   0  0  1  0  0  0  0  0  0  0  0  0
    7.9248  -14.3966   25.3403 C   0  0  0  0  0  0  0  0  0  0  0  0
    7.7488  -13.2693   26.2388 C   0  0  0  0  0  0  0  0  0  0  0  0
    6.4440  -12.5838   26.2401 C   0  0  0  0  0  0  0  0  0  0  0  0
    6.4366  -11.3942   27.2238 C   0  0  0  0  0  0  0  0  0  0  0  0
    5.1237  -10.7864   27.2176 N   0  0  0  0  0  0  0  0  0  0  0  0
    9.4463  -16.1287   26.3569 C   0  0  0  0  0  0  0  0  0  0  0  0
    9.1290  -17.3394   26.3676 O   0  0  0  0  0  0  0  0  0  0  0  0
   10.1135  -15.7007   27.5255 O   0  0  0  0  0  0  0  0  0  0  0  0
  2  1  1  0
  3  2  2  0
  4  5  1  0
  4  2  1  0
  5  6  1  6
  7  8  2  0
  7  5  1  0
  9  7  1  0
 10  9  1  0
 10 11  1  1
 11 12  1  0
 12 13  1  0
 13 17  1  0
 14 13  2  0
 15 10  1  0
 16 15  2  0
 18 15  1  0
 19 20  1  1
 19 18  1  0
 20 21  1  0
 22 21  1  0
 23 22  1  0
 24 23  1  0
 25 27  1  0
 25 19  1  0
 26 25  2  0
M  END
$$$$
