RHE.pdb
     RDKit          3D

 31 31  0  0  1  0  0  0  0  0999 V2000
    5.9510  -19.8355   24.3017 N   0  0  0  0  0  0  0  0  0  0  0  0
    6.9581  -19.1283   23.5797 C   0  0  0  0  0  0  0  0  0  0  0  0
    7.9425  -18.5960   24.2208 N   0  0  0  0  0  0  0  0  0  0  0  0
    6.8896  -19.0080   22.1732 N   0  0  0  0  0  0  0  0  0  0  0  0
    5.6945  -19.4230   21.4649 C   0  0  0  0  0  0  0  0  0  0  0  0
    5.9067  -19.2365   20.0006 C   0  0  0  0  0  0  0  0  0  0  0  0
    7.2337  -19.6640   19.4795 C   0  0  0  0  0  0  0  0  0  0  0  0
    7.7423  -18.6877   18.4406 C   0  0  2  0  0  0  0  0  0  0  0  0
    7.7410  -19.4035   17.1823 N   0  0  0  0  0  0  0  0  0  0  0  0
    9.1384  -18.2835   18.7404 C   0  0  0  0  0  0  0  0  0  0  0  0
   10.0842  -19.0626   18.4035 O   0  0  0  0  0  0  0  0  0  0  0  0
    8.7420  -18.1283   23.7414 N   0  0  0  0  0  0  0  0  0  0  0  0
    9.4880  -17.0882   19.3756 C   0  0  2  0  0  0  0  0  0  0  0  0
   10.9587  -16.8267   19.7042 C   0  0  0  0  0  0  0  0  0  0  0  0
   11.1333  -15.3975   19.3811 C   0  0  0  0  0  0  0  0  0  0  0  0
   12.4467  -14.7768   19.4074 C   0  0  0  0  0  0  0  0  0  0  0  0
   13.2124  -14.0947   20.2810 N   0  0  0  0  0  0  0  0  0  0  0  0
   14.4354  -13.8017   19.7665 C   0  0  0  0  0  0  0  0  0  0  0  0
   14.4096  -14.3269   18.5402 N   0  0  0  0  0  0  0  0  0  0  0  0
   13.2593  -14.9099   18.2867 C   0  0  0  0  0  0  0  0  0  0  0  0
   11.0992  -17.2115   21.1213 O   0  0  0  0  0  0  0  0  0  0  0  0
   10.0278  -17.1199   21.8469 N   0  0  0  0  0  0  0  0  0  0  0  0
   12.2629  -17.6704   21.7673 C   0  0  1  0  0  0  0  0  0  0  0  0
   12.2050  -18.1067   23.1746 C   0  0  0  0  0  0  0  0  0  0  0  0
   12.6386  -19.5226   23.2882 C   0  0  0  0  0  0  0  0  0  0  0  0
   12.7002  -20.0375   24.6905 C   0  0  0  0  0  0  0  0  0  0  0  0
   13.1152  -21.4843   24.6220 O   0  0  0  0  0  0  0  0  0  0  0  0
   14.2078  -21.8754   25.0793 C   0  0  0  0  0  0  0  0  0  0  0  0
   12.8724  -17.1497   24.0569 O   0  0  0  0  0  0  0  0  0  0  0  0
   13.6513  -16.2600   23.6369 O   0  0  0  0  0  0  0  0  0  0  0  0
   12.2147  -22.3490   24.0249 O   0  0  0  0  0  0  0  0  0  0  0  0
  2  3  2  0
  2  1  1  0
  4  2  1  0
  5  4  1  0
  6  5  1  0
  7  6  1  0
  8  7  1  0
  8  9  1  6
 10 11  2  0
 10  8  1  0
 12 10  1  0
 13 12  1  0
 13 14  1  1
 14 15  1  0
 15 16  2  0
 15 19  1  0
 16 17  1  0
 17 18  1  0
 19 18  2  0
 20 13  1  0
 21 20  2  0
 22 20  1  0
 23 22  1  0
 23 24  1  1
 24 25  1  0
 26 25  1  0
 26 30  1  0
 27 26  2  0
 28 23  1  0
 28 31  1  0
 29 28  2  0
M  END
$$$$
