RHE.pdb
     RDKit          3D

 31 31  0  0  1  0  0  0  0  0999 V2000
   15.1885  -16.5322   17.6696 N   0  0  0  0  0  0  0  0  0  0  0  0
   14.2788  -15.4743   17.9679 C   0  0  0  0  0  0  0  0  0  0  0  0
   14.7334  -14.3559   18.4215 N   0  0  0  0  0  0  0  0  0  0  0  0
   12.8892  -15.6382   17.7692 N   0  0  0  0  0  0  0  0  0  0  0  0
   11.9871  -14.5237   17.9843 C   0  0  0  0  0  0  0  0  0  0  0  0
   11.0664  -14.8527   19.1103 C   0  0  0  0  0  0  0  0  0  0  0  0
    9.7216  -15.3573   18.7202 C   0  0  0  0  0  0  0  0  0  0  0  0
    8.6338  -14.4378   19.2328 C   0  0  2  0  0  0  0  0  0  0  0  0
    8.7551  -13.2106   18.4745 N   0  0  0  0  0  0  0  0  0  0  0  0
    8.8498  -14.1183   20.6658 C   0  0  0  0  0  0  0  0  0  0  0  0
    9.7313  -13.2556   20.9718 O   0  0  0  0  0  0  0  0  0  0  0  0
   15.7530  -14.1486   18.4948 N   0  0  0  0  0  0  0  0  0  0  0  0
    8.1396  -14.7090   21.7152 C   0  0  1  0  0  0  0  0  0  0  0  0
    8.5101  -14.3498   23.1550 C   0  0  0  0  0  0  0  0  0  0  0  0
    7.2285  -13.9098   23.7392 C   0  0  0  0  0  0  0  0  0  0  0  0
    7.1526  -13.4325   25.1093 C   0  0  0  0  0  0  0  0  0  0  0  0
    7.9893  -13.2337   26.1463 N   0  0  0  0  0  0  0  0  0  0  0  0
    7.3560  -12.6805   27.2136 C   0  0  0  0  0  0  0  0  0  0  0  0
    6.0931  -12.5373   26.8076 N   0  0  0  0  0  0  0  0  0  0  0  0
    5.9282  -12.9668   25.5764 C   0  0  0  0  0  0  0  0  0  0  0  0
    9.1057  -15.5816   23.7060 O   0  0  0  0  0  0  0  0  0  0  0  0
    8.8281  -16.6814   23.0765 N   0  0  0  0  0  0  0  0  0  0  0  0
    9.9431  -15.6921   24.8324 C   0  0  1  0  0  0  0  0  0  0  0  0
   10.2740  -17.0200   25.3814 C   0  0  0  0  0  0  0  0  0  0  0  0
   11.5631  -17.4978   24.8195 C   0  0  0  0  0  0  0  0  0  0  0  0
   12.6197  -16.4449   24.7199 C   0  0  0  0  0  0  0  0  0  0  0  0
   13.8503  -17.0940   24.1416 O   0  0  0  0  0  0  0  0  0  0  0  0
   14.0695  -17.1066   22.9137 C   0  0  0  0  0  0  0  0  0  0  0  0
   10.1533  -17.0390   26.8390 O   0  0  0  0  0  0  0  0  0  0  0  0
    9.8631  -16.0222   27.5148 O   0  0  0  0  0  0  0  0  0  0  0  0
   14.7191  -17.6716   25.0509 O   0  0  0  0  0  0  0  0  0  0  0  0
  2  3  2  0
  2  1  1  0
  4  2  1  0
  5  4  1  0
  6  5  1  0
  7  6  1  0
  8  7  1  0
  8  9  1  6
 10 11  2  0
 10  8  1  0
 12 10  1  0
 13 12  1  0
 13 14  1  1
 14 15  1  0
 15 16  2  0
 15 19  1  0
 16 17  1  0
 17 18  1  0
 19 18  2  0
 20 13  1  0
 21 20  2  0
 22 20  1  0
 23 22  1  0
 23 24  1  1
 24 25  1  0
 26 25  1  0
 26 30  1  0
 27 26  2  0
 28 23  1  0
 28 31  1  0
 29 28  2  0
M  END
$$$$
