RHE.pdb
     RDKit          3D

 31 31  0  0  1  0  0  0  0  0999 V2000
    9.1978  -22.0195   17.3265 N   0  0  0  0  0  0  0  0  0  0  0  0
    9.5256  -21.3669   16.1008 C   0  0  0  0  0  0  0  0  0  0  0  0
   10.0541  -22.0477   15.1414 N   0  0  0  0  0  0  0  0  0  0  0  0
    9.2751  -19.9869   15.9270 N   0  0  0  0  0  0  0  0  0  0  0  0
    8.2583  -19.3263   16.7220 C   0  0  0  0  0  0  0  0  0  0  0  0
    8.4334  -19.7095   18.1526 C   0  0  0  0  0  0  0  0  0  0  0  0
    9.0464  -18.6746   19.0292 C   0  0  0  0  0  0  0  0  0  0  0  0
    8.2087  -17.4138   19.0378 C   0  0  2  0  0  0  0  0  0  0  0  0
    8.4830  -16.7408   17.7859 N   0  0  0  0  0  0  0  0  0  0  0  0
    8.6235  -16.5166   20.1447 C   0  0  0  0  0  0  0  0  0  0  0  0
    9.7979  -16.0313   20.1284 O   0  0  0  0  0  0  0  0  0  0  0  0
   10.3221  -21.6221   14.2276 N   0  0  0  0  0  0  0  0  0  0  0  0
    7.7991  -16.1641   21.2174 C   0  0  1  0  0  0  0  0  0  0  0  0
    8.3276  -15.1855   22.2674 C   0  0  0  0  0  0  0  0  0  0  0  0
    7.1059  -14.7346   22.9613 C   0  0  0  0  0  0  0  0  0  0  0  0
    7.1818  -13.9164   24.1595 C   0  0  0  0  0  0  0  0  0  0  0  0
    8.1360  -13.3787   24.9439 N   0  0  0  0  0  0  0  0  0  0  0  0
    7.6095  -12.6150   25.9367 C   0  0  0  0  0  0  0  0  0  0  0  0
    6.2913  -12.6912   25.7450 N   0  0  0  0  0  0  0  0  0  0  0  0
    5.9947  -13.4463   24.7109 C   0  0  0  0  0  0  0  0  0  0  0  0
    9.2921  -15.9719   23.0592 O   0  0  0  0  0  0  0  0  0  0  0  0
    9.0112  -17.2284   23.2176 N   0  0  0  0  0  0  0  0  0  0  0  0
   10.4816  -15.5101   23.6545 C   0  0  1  0  0  0  0  0  0  0  0  0
   11.3618  -16.4488   24.3744 C   0  0  0  0  0  0  0  0  0  0  0  0
   12.7818  -16.1835   24.0295 C   0  0  0  0  0  0  0  0  0  0  0  0
   13.7598  -17.0892   24.7065 C   0  0  0  0  0  0  0  0  0  0  0  0
   15.1374  -16.6931   24.2426 O   0  0  0  0  0  0  0  0  0  0  0  0
   15.3100  -15.9855   23.2299 C   0  0  0  0  0  0  0  0  0  0  0  0
   11.0371  -16.4966   25.7999 O   0  0  0  0  0  0  0  0  0  0  0  0
   11.3981  -17.4335   26.5527 O   0  0  0  0  0  0  0  0  0  0  0  0
   16.1945  -17.1584   25.0049 O   0  0  0  0  0  0  0  0  0  0  0  0
  2  3  2  0
  2  1  1  0
  4  2  1  0
  5  4  1  0
  6  5  1  0
  7  6  1  0
  8  7  1  0
  8  9  1  6
 10 11  2  0
 10  8  1  0
 12 10  1  0
 13 12  1  0
 13 14  1  6
 14 15  1  0
 15 16  2  0
 15 19  1  0
 16 17  1  0
 17 18  1  0
 19 18  2  0
 20 13  1  0
 21 20  2  0
 22 20  1  0
 23 22  1  0
 23 24  1  1
 24 25  1  0
 26 25  1  0
 26 30  1  0
 27 26  2  0
 28 23  1  0
 28 31  1  0
 29 28  2  0
M  END
$$$$
