RHE.pdb
     RDKit          3D

 31 31  0  0  1  0  0  0  0  0999 V2000
   11.8492  -20.9313   21.6359 N   0  0  0  0  0  0  0  0  0  0  0  0
   12.3933  -20.7350   20.3316 C   0  0  0  0  0  0  0  0  0  0  0  0
   13.5943  -21.1315   20.0791 N   0  0  0  0  0  0  0  0  0  0  0  0
   11.6308  -20.1150   19.3160 N   0  0  0  0  0  0  0  0  0  0  0  0
   10.3129  -19.5891   19.6141 C   0  0  0  0  0  0  0  0  0  0  0  0
    9.6756  -19.1256   18.3479 C   0  0  0  0  0  0  0  0  0  0  0  0
    8.2625  -18.6729   18.4628 C   0  0  0  0  0  0  0  0  0  0  0  0
    8.1654  -17.1706   18.3047 C   0  0  2  0  0  0  0  0  0  0  0  0
    9.0697  -16.8208   17.2297 N   0  0  0  0  0  0  0  0  0  0  0  0
    8.6252  -16.4832   19.5369 C   0  0  0  0  0  0  0  0  0  0  0  0
    9.8330  -16.0933   19.6027 O   0  0  0  0  0  0  0  0  0  0  0  0
   14.0105  -21.0996   19.1233 N   0  0  0  0  0  0  0  0  0  0  0  0
    7.8092  -16.2315   20.6438 C   0  0  2  0  0  0  0  0  0  0  0  0
    8.3519  -15.3670   21.7829 C   0  0  0  0  0  0  0  0  0  0  0  0
    7.1322  -14.8991   22.4691 C   0  0  0  0  0  0  0  0  0  0  0  0
    7.2026  -14.2561   23.7701 C   0  0  0  0  0  0  0  0  0  0  0  0
    8.1529  -13.8554   24.6368 N   0  0  0  0  0  0  0  0  0  0  0  0
    7.6239  -13.2233   25.7170 C   0  0  0  0  0  0  0  0  0  0  0  0
    6.3084  -13.2400   25.4951 N   0  0  0  0  0  0  0  0  0  0  0  0
    6.0156  -13.8377   24.3617 C   0  0  0  0  0  0  0  0  0  0  0  0
    9.2411  -16.2656   22.5429 O   0  0  0  0  0  0  0  0  0  0  0  0
    8.9530  -17.5295   22.4943 N   0  0  0  0  0  0  0  0  0  0  0  0
   10.3664  -15.9026   23.3074 C   0  0  1  0  0  0  0  0  0  0  0  0
   11.1758  -16.9406   23.9718 C   0  0  0  0  0  0  0  0  0  0  0  0
   12.5844  -16.8646   23.5071 C   0  0  0  0  0  0  0  0  0  0  0  0
   13.4306  -15.8904   24.2621 C   0  0  0  0  0  0  0  0  0  0  0  0
   14.7674  -15.8231   23.5703 O   0  0  0  0  0  0  0  0  0  0  0  0
   15.0093  -16.4907   22.5448 C   0  0  0  0  0  0  0  0  0  0  0  0
   10.9677  -16.9328   25.4197 O   0  0  0  0  0  0  0  0  0  0  0  0
   10.3128  -16.0410   26.0119 O   0  0  0  0  0  0  0  0  0  0  0  0
   15.7056  -14.9791   24.1381 O   0  0  0  0  0  0  0  0  0  0  0  0
  2  3  2  0
  2  1  1  0
  4  2  1  0
  5  4  1  0
  6  5  1  0
  7  6  1  0
  8  7  1  0
  8  9  1  6
 10 11  2  0
 10  8  1  0
 12 10  1  0
 13 12  1  0
 13 14  1  1
 14 15  1  0
 15 16  2  0
 15 19  1  0
 16 17  1  0
 17 18  1  0
 19 18  2  0
 20 13  1  0
 21 20  2  0
 22 20  1  0
 23 22  1  0
 23 24  1  1
 24 25  1  0
 26 25  1  0
 26 30  1  0
 27 26  2  0
 28 23  1  0
 28 31  1  0
 29 28  2  0
M  END
$$$$
