RHE.pdb
     RDKit          3D

 31 31  0  0  1  0  0  0  0  0999 V2000
    8.2256  -12.2011   16.8676 N   0  0  0  0  0  0  0  0  0  0  0  0
    8.6732  -12.6070   18.1601 C   0  0  0  0  0  0  0  0  0  0  0  0
    9.4193  -11.8137   18.8509 N   0  0  0  0  0  0  0  0  0  0  0  0
    8.3059  -13.8644   18.6905 N   0  0  0  0  0  0  0  0  0  0  0  0
    7.3597  -14.7045   17.9824 C   0  0  0  0  0  0  0  0  0  0  0  0
    7.1034  -15.9341   18.7864 C   0  0  0  0  0  0  0  0  0  0  0  0
    7.0223  -15.7386   20.2596 C   0  0  0  0  0  0  0  0  0  0  0  0
    7.8385  -16.7863   20.9859 C   0  0  2  0  0  0  0  0  0  0  0  0
    6.9226  -17.8627   21.2993 N   0  0  0  0  0  0  0  0  0  0  0  0
    8.3692  -16.2455   22.2619 C   0  0  0  0  0  0  0  0  0  0  0  0
    8.2878  -14.9952   22.4748 O   0  0  0  0  0  0  0  0  0  0  0  0
    9.8855  -12.1055   19.7372 N   0  0  0  0  0  0  0  0  0  0  0  0
    8.9595  -17.0283   23.2585 C   0  0  1  0  0  0  0  0  0  0  0  0
    9.4912  -16.3449   24.5194 C   0  0  0  0  0  0  0  0  0  0  0  0
    8.2662  -16.0142   25.2726 C   0  0  0  0  0  0  0  0  0  0  0  0
    7.6390  -14.7094   25.1503 C   0  0  0  0  0  0  0  0  0  0  0  0
    7.7888  -13.5938   24.4100 N   0  0  0  0  0  0  0  0  0  0  0  0
    6.8358  -12.6660   24.6874 C   0  0  0  0  0  0  0  0  0  0  0  0
    6.0818  -13.2409   25.6262 N   0  0  0  0  0  0  0  0  0  0  0  0
    6.5178  -14.4433   25.9290 C   0  0  0  0  0  0  0  0  0  0  0  0
   10.3998  -17.3358   25.1265 O   0  0  0  0  0  0  0  0  0  0  0  0
   10.0438  -18.5785   25.0188 N   0  0  0  0  0  0  0  0  0  0  0  0
   11.6084  -17.0806   25.8021 C   0  0  1  0  0  0  0  0  0  0  0  0
   12.3984  -18.1972   26.3529 C   0  0  0  0  0  0  0  0  0  0  0  0
   13.8172  -18.0754   25.9313 C   0  0  0  0  0  0  0  0  0  0  0  0
   14.0213  -18.0668   24.4502 C   0  0  0  0  0  0  0  0  0  0  0  0
   15.5059  -18.0108   24.1998 O   0  0  0  0  0  0  0  0  0  0  0  0
   16.3252  -17.9077   25.1347 C   0  0  0  0  0  0  0  0  0  0  0  0
   12.1581  -18.3635   27.7862 O   0  0  0  0  0  0  0  0  0  0  0  0
   11.4402  -17.5811   28.4549 O   0  0  0  0  0  0  0  0  0  0  0  0
   15.9038  -18.0814   22.8762 O   0  0  0  0  0  0  0  0  0  0  0  0
  2  3  2  0
  2  1  1  0
  4  2  1  0
  5  4  1  0
  6  5  1  0
  7  6  1  0
  8  7  1  0
  8  9  1  1
 10 11  2  0
 10  8  1  0
 12 10  1  0
 13 12  1  0
 13 14  1  1
 14 15  1  0
 15 16  2  0
 15 19  1  0
 16 17  1  0
 17 18  1  0
 19 18  2  0
 20 13  1  0
 21 20  2  0
 22 20  1  0
 23 22  1  0
 23 24  1  1
 24 25  1  0
 26 25  1  0
 26 30  1  0
 27 26  2  0
 28 23  1  0
 28 31  1  0
 29 28  2  0
M  END
$$$$
