RHE.pdb
     RDKit          3D

 31 31  0  0  1  0  0  0  0  0999 V2000
    8.8505  -14.3312   15.2884 N   0  0  0  0  0  0  0  0  0  0  0  0
    7.4568  -14.1698   15.5482 C   0  0  0  0  0  0  0  0  0  0  0  0
    6.5991  -14.5360   14.6574 N   0  0  0  0  0  0  0  0  0  0  0  0
    7.0082  -13.6173   16.7692 N   0  0  0  0  0  0  0  0  0  0  0  0
    7.9601  -13.2888   17.8124 C   0  0  0  0  0  0  0  0  0  0  0  0
    8.7240  -14.5160   18.1788 C   0  0  0  0  0  0  0  0  0  0  0  0
    9.7091  -14.3593   19.2835 C   0  0  0  0  0  0  0  0  0  0  0  0
    9.8046  -15.6292   20.1017 C   0  0  2  0  0  0  0  0  0  0  0  0
    8.6230  -16.4023   19.7827 N   0  0  0  0  0  0  0  0  0  0  0  0
    9.7766  -15.3209   21.5531 C   0  0  0  0  0  0  0  0  0  0  0  0
   10.6992  -14.5950   22.0398 O   0  0  0  0  0  0  0  0  0  0  0  0
    5.5787  -14.3360   14.7398 N   0  0  0  0  0  0  0  0  0  0  0  0
    8.7913  -15.7802   22.4320 C   0  0  1  0  0  0  0  0  0  0  0  0
    8.9074  -15.4392   23.9185 C   0  0  0  0  0  0  0  0  0  0  0  0
    7.5423  -15.0109   24.2797 C   0  0  0  0  0  0  0  0  0  0  0  0
    7.3199  -13.9395   25.2355 C   0  0  0  0  0  0  0  0  0  0  0  0
    8.0580  -13.0651   25.9465 N   0  0  0  0  0  0  0  0  0  0  0  0
    7.2839  -12.2070   26.6610 C   0  0  0  0  0  0  0  0  0  0  0  0
    6.0342  -12.5732   26.3704 N   0  0  0  0  0  0  0  0  0  0  0  0
    6.0081  -13.5883   25.5359 C   0  0  0  0  0  0  0  0  0  0  0  0
    9.4060  -16.6766   24.5478 O   0  0  0  0  0  0  0  0  0  0  0  0
    9.6202  -17.6769   23.7501 N   0  0  0  0  0  0  0  0  0  0  0  0
    9.6786  -16.8871   25.9130 C   0  0  1  0  0  0  0  0  0  0  0  0
   10.4948  -18.0401   26.3356 C   0  0  0  0  0  0  0  0  0  0  0  0
   11.7544  -18.0889   25.5502 C   0  0  0  0  0  0  0  0  0  0  0  0
   12.7113  -19.1518   25.9858 C   0  0  0  0  0  0  0  0  0  0  0  0
   13.9349  -19.0422   25.1136 O   0  0  0  0  0  0  0  0  0  0  0  0
   13.8483  -18.8919   23.8783 C   0  0  0  0  0  0  0  0  0  0  0  0
   10.6338  -18.0896   27.7909 O   0  0  0  0  0  0  0  0  0  0  0  0
   11.2333  -19.0151   28.3898 O   0  0  0  0  0  0  0  0  0  0  0  0
   15.1548  -19.1168   25.7628 O   0  0  0  0  0  0  0  0  0  0  0  0
  2  3  2  0
  2  1  1  0
  4  2  1  0
  5  4  1  0
  6  5  1  0
  7  6  1  0
  8  7  1  0
  8  9  1  6
 10 11  2  0
 10  8  1  0
 12 10  1  0
 13 12  1  0
 13 14  1  6
 14 15  1  0
 15 16  2  0
 15 19  1  0
 16 17  1  0
 17 18  1  0
 19 18  2  0
 20 13  1  0
 21 20  2  0
 22 20  1  0
 23 22  1  0
 23 24  1  1
 24 25  1  0
 26 25  1  0
 26 30  1  0
 27 26  2  0
 28 23  1  0
 28 31  1  0
 29 28  2  0
M  END
$$$$
