QPV.pdb
     RDKit          3D

 24 24  0  0  1  0  0  0  0  0999 V2000
   10.9233  -19.5756   23.8756 N   0  0  0  0  0  0  0  0  0  0  0  0
   11.0121  -20.3414   22.6633 C   0  0  0  0  0  0  0  0  0  0  0  0
   11.1184  -21.5858   22.8009 O   0  0  0  0  0  0  0  0  0  0  0  0
   10.9790  -19.6875   21.3290 C   0  0  0  0  0  0  0  0  0  0  0  0
   11.7136  -18.3855   21.4412 C   0  0  0  0  0  0  0  0  0  0  0  0
   10.9236  -17.2242   20.8680 C   0  0  2  0  0  0  0  0  0  0  0  0
   11.7434  -16.5220   19.8762 N   0  0  0  0  0  0  0  0  0  0  0  0
   10.6046  -16.3026   21.9847 C   0  0  0  0  0  0  0  0  0  0  0  0
   11.5640  -15.5716   22.4350 O   0  0  0  0  0  0  0  0  0  0  0  0
    9.3462  -16.1758   22.5718 N   0  0  0  0  0  0  0  0  0  0  0  0
    8.1729  -16.9930   22.2201 C   0  0  0  0  0  0  0  0  0  0  0  0
    6.9737  -16.1321   22.5074 C   0  0  0  0  0  0  0  0  0  0  0  0
    7.4863  -14.9258   23.2628 C   0  0  0  0  0  0  0  0  0  0  0  0
    8.9318  -15.2487   23.6017 C   0  0  1  0  0  0  0  0  0  0  0  0
    8.9255  -15.9033   24.9326 C   0  0  0  0  0  0  0  0  0  0  0  0
    8.9810  -17.1474   25.0391 O   0  0  0  0  0  0  0  0  0  0  0  0
   10.1449  -12.7972   27.6070 C   0  0  0  0  0  0  0  0  0  0  0  0
    9.6217  -14.0936   28.1558 C   0  0  2  0  0  0  0  0  0  0  0  0
   10.2628  -14.4379   29.4793 C   0  0  0  0  0  0  0  0  0  0  0  0
    9.8283  -15.2325   27.1598 C   0  0  2  0  0  0  0  0  0  0  0  0
    8.8557  -15.1066   26.0942 N   0  0  0  0  0  0  0  0  0  0  0  0
    9.6607  -16.5399   27.8170 C   0  0  0  0  0  0  0  0  0  0  0  0
   10.7114  -17.1248   28.4928 O   0  0  0  0  0  0  0  0  0  0  0  0
    8.5633  -17.1316   27.7679 O   0  0  0  0  0  0  0  0  0  0  0  0
  2  1  1  0
  3  2  2  0
  4  2  1  0
  5  4  1  0
  6  5  1  0
  6  7  1  6
  8  6  1  0
  9  8  2  0
 10  8  1  0
 10 14  1  0
 11 12  1  0
 11 10  1  0
 12 13  1  0
 14 13  1  0
 15 21  1  0
 14 15  1  1
 16 15  2  0
 18 17  1  6
 19 18  1  0
 20 21  1  6
 20 18  1  0
 22 20  1  0
 22 23  1  0
 24 22  2  0
M  END
$$$$
