QPV.pdb
     RDKit          3D

 24 24  0  0  1  0  0  0  0  0999 V2000
    7.7196  -20.4860   22.0938 N   0  0  0  0  0  0  0  0  0  0  0  0
    9.1497  -20.4310   22.2205 C   0  0  0  0  0  0  0  0  0  0  0  0
    9.6793  -21.3346   22.9145 O   0  0  0  0  0  0  0  0  0  0  0  0
    9.9456  -19.3615   21.5634 C   0  0  0  0  0  0  0  0  0  0  0  0
    8.9916  -18.4733   20.8229 C   0  0  0  0  0  0  0  0  0  0  0  0
    9.6573  -17.2111   20.3080 C   0  0  2  0  0  0  0  0  0  0  0  0
   10.9793  -17.5446   19.7695 N   0  0  0  0  0  0  0  0  0  0  0  0
    9.8122  -16.2844   21.4549 C   0  0  0  0  0  0  0  0  0  0  0  0
   11.0121  -15.9569   21.7873 O   0  0  0  0  0  0  0  0  0  0  0  0
    8.7541  -15.7487   22.1884 N   0  0  0  0  0  0  0  0  0  0  0  0
    7.3382  -16.1035   21.9953 C   0  0  0  0  0  0  0  0  0  0  0  0
    6.5520  -14.8911   22.4120 C   0  0  0  0  0  0  0  0  0  0  0  0
    7.5350  -13.9547   23.0796 C   0  0  0  0  0  0  0  0  0  0  0  0
    8.8105  -14.7634   23.2457 C   0  0  1  0  0  0  0  0  0  0  0  0
    8.7387  -15.4111   24.5780 C   0  0  0  0  0  0  0  0  0  0  0  0
    8.3870  -16.6046   24.6962 O   0  0  0  0  0  0  0  0  0  0  0  0
   10.7185  -14.7196   29.0764 C   0  0  0  0  0  0  0  0  0  0  0  0
   10.2016  -14.1211   27.7995 C   0  0  2  0  0  0  0  0  0  0  0  0
    8.9480  -13.3111   28.0308 C   0  0  0  0  0  0  0  0  0  0  0  0
    9.9426  -15.2030   26.7536 C   0  0  2  0  0  0  0  0  0  0  0  0
    9.0731  -14.6657   25.7276 N   0  0  0  0  0  0  0  0  0  0  0  0
    9.3015  -16.3797   27.3648 C   0  0  0  0  0  0  0  0  0  0  0  0
   10.0410  -17.2709   28.1142 O   0  0  0  0  0  0  0  0  0  0  0  0
    8.0800  -16.5811   27.2095 O   0  0  0  0  0  0  0  0  0  0  0  0
  2  1  1  0
  3  2  2  0
  4  2  1  0
  5  4  1  0
  6  5  1  0
  6  7  1  1
  8  6  1  0
  9  8  2  0
 10  8  1  0
 10 14  1  0
 11 12  1  0
 11 10  1  0
 12 13  1  0
 14 13  1  0
 15 21  1  0
 14 15  1  1
 16 15  2  0
 18 17  1  1
 19 18  1  0
 20 21  1  6
 20 18  1  0
 22 20  1  0
 22 23  1  0
 24 22  2  0
M  END
$$$$
