QPV.pdb
     RDKit          3D

 24 24  0  0  1  0  0  0  0  0999 V2000
    9.3706  -19.7227   24.3745 N   0  0  0  0  0  0  0  0  0  0  0  0
   10.2629  -19.8402   23.2547 C   0  0  0  0  0  0  0  0  0  0  0  0
   10.5892  -21.0083   22.9267 O   0  0  0  0  0  0  0  0  0  0  0  0
   10.7643  -18.6410   22.5338 C   0  0  0  0  0  0  0  0  0  0  0  0
   10.0289  -18.5522   21.2305 C   0  0  0  0  0  0  0  0  0  0  0  0
   10.4008  -17.3121   20.4396 C   0  0  2  0  0  0  0  0  0  0  0  0
   11.8481  -17.3008   20.2070 N   0  0  0  0  0  0  0  0  0  0  0  0
   10.0233  -16.1307   21.2519 C   0  0  0  0  0  0  0  0  0  0  0  0
   10.9817  -15.4219   21.7382 O   0  0  0  0  0  0  0  0  0  0  0  0
    8.7116  -15.7401   21.5192 N   0  0  0  0  0  0  0  0  0  0  0  0
    7.5135  -16.4424   21.0297 C   0  0  0  0  0  0  0  0  0  0  0  0
    6.4409  -15.3939   20.9200 C   0  0  0  0  0  0  0  0  0  0  0  0
    6.9849  -14.1554   21.5974 C   0  0  0  0  0  0  0  0  0  0  0  0
    8.2591  -14.6048   22.2924 C   0  0  1  0  0  0  0  0  0  0  0  0
    7.8778  -15.0167   23.6653 C   0  0  0  0  0  0  0  0  0  0  0  0
    7.8003  -16.2245   23.9775 O   0  0  0  0  0  0  0  0  0  0  0  0
    5.8371  -12.7545   26.5225 C   0  0  0  0  0  0  0  0  0  0  0  0
    7.2746  -13.0638   26.8286 C   0  0  2  0  0  0  0  0  0  0  0  0
    8.1722  -11.8836   26.5413 C   0  0  0  0  0  0  0  0  0  0  0  0
    7.7494  -14.2872   26.0479 C   0  0  2  0  0  0  0  0  0  0  0  0
    7.5989  -14.0276   24.6312 N   0  0  0  0  0  0  0  0  0  0  0  0
    6.9608  -15.4775   26.4091 C   0  0  0  0  0  0  0  0  0  0  0  0
    7.3168  -16.2520   27.4936 O   0  0  0  0  0  0  0  0  0  0  0  0
    5.9606  -15.7966   25.7349 O   0  0  0  0  0  0  0  0  0  0  0  0
  2  1  1  0
  3  2  2  0
  4  2  1  0
  5  4  1  0
  6  5  1  0
  6  7  1  1
  8  6  1  0
  9  8  2  0
 10  8  1  0
 10 14  1  0
 11 12  1  0
 11 10  1  0
 12 13  1  0
 14 13  1  0
 15 21  1  0
 14 15  1  1
 16 15  2  0
 18 17  1  6
 19 18  1  0
 20 21  1  6
 20 18  1  0
 22 20  1  0
 22 23  1  0
 24 22  2  0
M  END
$$$$
