QPV.pdb
     RDKit          3D

 24 24  0  0  1  0  0  0  0  0999 V2000
    6.2030  -19.0295   17.7982 N   0  0  0  0  0  0  0  0  0  0  0  0
    7.6089  -19.1797   17.5434 C   0  0  0  0  0  0  0  0  0  0  0  0
    8.0817  -20.3320   17.7087 O   0  0  0  0  0  0  0  0  0  0  0  0
    8.4454  -18.0302   17.1098 C   0  0  0  0  0  0  0  0  0  0  0  0
    7.5546  -16.8279   17.0167 C   0  0  0  0  0  0  0  0  0  0  0  0
    8.3225  -15.5636   16.6799 C   0  0  2  0  0  0  0  0  0  0  0  0
    9.2379  -15.8336   15.5673 N   0  0  0  0  0  0  0  0  0  0  0  0
    9.1049  -15.1797   17.8793 C   0  0  0  0  0  0  0  0  0  0  0  0
   10.3799  -15.3508   17.8281 O   0  0  0  0  0  0  0  0  0  0  0  0
    8.5560  -14.6493   19.0463 N   0  0  0  0  0  0  0  0  0  0  0  0
    7.1231  -14.3766   19.2478 C   0  0  0  0  0  0  0  0  0  0  0  0
    7.0571  -13.2416   20.2323 C   0  0  0  0  0  0  0  0  0  0  0  0
    8.4602  -13.0604   20.7682 C   0  0  0  0  0  0  0  0  0  0  0  0
    9.2430  -14.2583   20.2574 C   0  0  1  0  0  0  0  0  0  0  0  0
    9.1356  -15.3152   21.2924 C   0  0  0  0  0  0  0  0  0  0  0  0
    8.1007  -16.0076   21.4014 O   0  0  0  0  0  0  0  0  0  0  0  0
   12.6904  -16.1655   23.5079 C   0  0  0  0  0  0  0  0  0  0  0  0
   11.7947  -17.2177   22.9192 C   0  0  2  0  0  0  0  0  0  0  0  0
   12.2138  -17.5848   21.5154 C   0  0  0  0  0  0  0  0  0  0  0  0
   10.3367  -16.7641   22.9306 C   0  0  2  0  0  0  0  0  0  0  0  0
   10.2199  -15.5398   22.1658 N   0  0  0  0  0  0  0  0  0  0  0  0
    9.8744  -16.5213   24.3077 C   0  0  0  0  0  0  0  0  0  0  0  0
    9.7274  -17.5689   25.1929 O   0  0  0  0  0  0  0  0  0  0  0  0
    9.6108  -15.3621   24.6867 O   0  0  0  0  0  0  0  0  0  0  0  0
  2  1  1  0
  3  2  2  0
  4  2  1  0
  5  4  1  0
  6  5  1  0
  6  7  1  6
  8  6  1  0
  9  8  2  0
 10  8  1  0
 10 14  1  0
 11 12  1  0
 11 10  1  0
 12 13  1  0
 14 13  1  0
 15 21  1  0
 14 15  1  1
 16 15  2  0
 18 17  1  6
 19 18  1  0
 20 21  1  6
 20 18  1  0
 22 20  1  0
 22 23  1  0
 24 22  2  0
M  END
$$$$
