QPV.pdb
     RDKit          3D

 24 24  0  0  1  0  0  0  0  0999 V2000
    5.1847  -19.1249   16.8904 N   0  0  0  0  0  0  0  0  0  0  0  0
    6.2188  -19.7067   17.7005 C   0  0  0  0  0  0  0  0  0  0  0  0
    6.2626  -20.9621   17.7250 O   0  0  0  0  0  0  0  0  0  0  0  0
    7.1756  -18.8612   18.4611 C   0  0  0  0  0  0  0  0  0  0  0  0
    6.7268  -17.4366   18.3326 C   0  0  0  0  0  0  0  0  0  0  0  0
    7.7010  -16.5931   17.5320 C   0  0  2  0  0  0  0  0  0  0  0  0
    8.3638  -17.4351   16.5318 N   0  0  0  0  0  0  0  0  0  0  0  0
    8.7129  -16.0585   18.4745 C   0  0  0  0  0  0  0  0  0  0  0  0
    9.9142  -16.5082   18.3633 O   0  0  0  0  0  0  0  0  0  0  0  0
    8.4518  -15.1091   19.4619 N   0  0  0  0  0  0  0  0  0  0  0  0
    7.1384  -14.4865   19.6971 C   0  0  0  0  0  0  0  0  0  0  0  0
    7.4269  -13.1301   20.2791 C   0  0  0  0  0  0  0  0  0  0  0  0
    8.9048  -13.1107   20.6019 C   0  0  0  0  0  0  0  0  0  0  0  0
    9.3739  -14.5446   20.4225 C   0  0  1  0  0  0  0  0  0  0  0  0
    9.2383  -15.2096   21.7413 C   0  0  0  0  0  0  0  0  0  0  0  0
    8.1130  -15.4651   22.2215 O   0  0  0  0  0  0  0  0  0  0  0  0
   12.4370  -17.5798   22.5778 C   0  0  0  0  0  0  0  0  0  0  0  0
   11.0219  -17.8320   23.0135 C   0  0  2  0  0  0  0  0  0  0  0  0
   10.1953  -18.4338   21.9019 C   0  0  0  0  0  0  0  0  0  0  0  0
   10.3677  -16.5480   23.5186 C   0  0  2  0  0  0  0  0  0  0  0  0
   10.3994  -15.5579   22.4622 N   0  0  0  0  0  0  0  0  0  0  0  0
   11.0818  -16.0242   24.6954 C   0  0  0  0  0  0  0  0  0  0  0  0
   10.8230  -16.5267   25.9536 O   0  0  0  0  0  0  0  0  0  0  0  0
   11.9298  -15.1184   24.5638 O   0  0  0  0  0  0  0  0  0  0  0  0
  2  1  1  0
  3  2  2  0
  4  2  1  0
  5  4  1  0
  6  5  1  0
  6  7  1  6
  8  6  1  0
  9  8  2  0
 10  8  1  0
 10 14  1  0
 11 12  1  0
 11 10  1  0
 12 13  1  0
 14 13  1  0
 15 21  1  0
 14 15  1  1
 16 15  2  0
 18 17  1  6
 19 18  1  0
 20 21  1  6
 20 18  1  0
 22 20  1  0
 22 23  1  0
 24 22  2  0
M  END
$$$$
