QPV.pdb
     RDKit          3D

 24 24  0  0  1  0  0  0  0  0999 V2000
    6.5945  -18.7562   18.4085 N   0  0  0  0  0  0  0  0  0  0  0  0
    7.7999  -19.1554   17.7365 C   0  0  0  0  0  0  0  0  0  0  0  0
    8.2901  -20.2579   18.0867 O   0  0  0  0  0  0  0  0  0  0  0  0
    8.4216  -18.3041   16.6887 C   0  0  0  0  0  0  0  0  0  0  0  0
    7.6605  -17.0135   16.6393 C   0  0  0  0  0  0  0  0  0  0  0  0
    8.5513  -15.8283   16.3179 C   0  0  2  0  0  0  0  0  0  0  0  0
    9.5499  -16.2278   15.3218 N   0  0  0  0  0  0  0  0  0  0  0  0
    9.2373  -15.4288   17.5700 C   0  0  0  0  0  0  0  0  0  0  0  0
   10.4925  -15.6993   17.6640 O   0  0  0  0  0  0  0  0  0  0  0  0
    8.6186  -14.7842   18.6407 N   0  0  0  0  0  0  0  0  0  0  0  0
    7.1804  -14.4772   18.7142 C   0  0  0  0  0  0  0  0  0  0  0  0
    7.0670  -13.2536   19.5812 C   0  0  0  0  0  0  0  0  0  0  0  0
    8.4328  -13.0387   20.1955 C   0  0  0  0  0  0  0  0  0  0  0  0
    9.2272  -14.2884   19.8554 C   0  0  1  0  0  0  0  0  0  0  0  0
    9.0294  -15.2415   20.9745 C   0  0  0  0  0  0  0  0  0  0  0  0
    7.9614  -15.8792   21.0967 O   0  0  0  0  0  0  0  0  0  0  0  0
   12.2929  -15.8707   23.7352 C   0  0  0  0  0  0  0  0  0  0  0  0
   11.5512  -16.9748   23.0375 C   0  0  2  0  0  0  0  0  0  0  0  0
   12.2172  -17.3591   21.7376 C   0  0  0  0  0  0  0  0  0  0  0  0
   10.0965  -16.5836   22.7870 C   0  0  2  0  0  0  0  0  0  0  0  0
   10.0646  -15.4288   21.9138 N   0  0  0  0  0  0  0  0  0  0  0  0
    9.4175  -16.2541   24.0518 C   0  0  0  0  0  0  0  0  0  0  0  0
    9.0811  -14.9495   24.3477 O   0  0  0  0  0  0  0  0  0  0  0  0
    9.1399  -17.1552   24.8689 O   0  0  0  0  0  0  0  0  0  0  0  0
  2  1  1  0
  3  2  2  0
  4  2  1  0
  5  4  1  0
  6  5  1  0
  6  7  1  6
  8  6  1  0
  9  8  2  0
 10  8  1  0
 10 14  1  0
 11 12  1  0
 11 10  1  0
 12 13  1  0
 14 13  1  0
 15 21  1  0
 14 15  1  1
 16 15  2  0
 18 17  1  6
 19 18  1  0
 20 21  1  6
 20 18  1  0
 22 20  1  0
 22 23  1  0
 24 22  2  0
M  END
$$$$
