QPV.pdb
     RDKit          3D

 24 24  0  0  1  0  0  0  0  0999 V2000
   10.1659  -20.3126   23.8142 N   0  0  0  0  0  0  0  0  0  0  0  0
   11.0853  -19.2668   24.1678 C   0  0  0  0  0  0  0  0  0  0  0  0
   11.6024  -19.3469   25.3101 O   0  0  0  0  0  0  0  0  0  0  0  0
   11.3985  -18.1592   23.2275 C   0  0  0  0  0  0  0  0  0  0  0  0
   10.6436  -18.4125   21.9574 C   0  0  0  0  0  0  0  0  0  0  0  0
   10.7712  -17.2676   20.9702 C   0  0  2  0  0  0  0  0  0  0  0  0
   12.1870  -17.0524   20.6571 N   0  0  0  0  0  0  0  0  0  0  0  0
   10.2196  -16.0528   21.6168 C   0  0  0  0  0  0  0  0  0  0  0  0
   11.0639  -15.1747   22.0336 O   0  0  0  0  0  0  0  0  0  0  0  0
    8.8603  -15.8010   21.7994 N   0  0  0  0  0  0  0  0  0  0  0  0
    7.7850  -16.7648   21.5116 C   0  0  0  0  0  0  0  0  0  0  0  0
    6.5769  -15.9387   21.1655 C   0  0  0  0  0  0  0  0  0  0  0  0
    6.9246  -14.5084   21.5146 C   0  0  0  0  0  0  0  0  0  0  0  0
    8.2345  -14.5890   22.2802 C   0  0  1  0  0  0  0  0  0  0  0  0
    7.8862  -14.7065   23.7171 C   0  0  0  0  0  0  0  0  0  0  0  0
    7.8106  -15.8236   24.2726 O   0  0  0  0  0  0  0  0  0  0  0  0
    7.0551  -12.2016   27.9270 C   0  0  0  0  0  0  0  0  0  0  0  0
    6.9809  -12.2815   26.4290 C   0  0  2  0  0  0  0  0  0  0  0  0
    5.5533  -12.2335   25.9383 C   0  0  0  0  0  0  0  0  0  0  0  0
    7.6716  -13.5420   25.9134 C   0  0  2  0  0  0  0  0  0  0  0  0
    7.6371  -13.5374   24.4656 N   0  0  0  0  0  0  0  0  0  0  0  0
    6.9938  -14.7514   26.4106 C   0  0  0  0  0  0  0  0  0  0  0  0
    7.4456  -15.3918   27.5457 O   0  0  0  0  0  0  0  0  0  0  0  0
    6.0019  -15.2085   25.8073 O   0  0  0  0  0  0  0  0  0  0  0  0
  2  1  1  0
  3  2  2  0
  4  2  1  0
  5  4  1  0
  6  5  1  0
  6  7  1  1
  8  6  1  0
  9  8  2  0
 10  8  1  0
 10 14  1  0
 11 12  1  0
 11 10  1  0
 12 13  1  0
 14 13  1  0
 15 21  1  0
 14 15  1  1
 16 15  2  0
 18 17  1  1
 19 18  1  0
 20 21  1  6
 20 18  1  0
 22 20  1  0
 22 23  1  0
 24 22  2  0
M  END
$$$$
