QPV.pdb
     RDKit          3D

 24 24  0  0  1  0  0  0  0  0999 V2000
    5.9174  -18.5715   23.1057 N   0  0  0  0  0  0  0  0  0  0  0  0
    7.3235  -18.3939   22.8701 C   0  0  0  0  0  0  0  0  0  0  0  0
    8.0875  -19.2185   23.4312 O   0  0  0  0  0  0  0  0  0  0  0  0
    7.8325  -17.2939   22.0099 C   0  0  0  0  0  0  0  0  0  0  0  0
    6.8418  -16.1705   22.0728 C   0  0  0  0  0  0  0  0  0  0  0  0
    7.4765  -14.8227   21.7865 C   0  0  2  0  0  0  0  0  0  0  0  0
    8.3866  -14.9476   20.6441 N   0  0  0  0  0  0  0  0  0  0  0  0
    8.2471  -14.4241   22.9887 C   0  0  0  0  0  0  0  0  0  0  0  0
    9.5235  -14.3161   22.8589 O   0  0  0  0  0  0  0  0  0  0  0  0
    7.6855  -14.1594   24.2373 N   0  0  0  0  0  0  0  0  0  0  0  0
    6.2480  -14.2481   24.5437 C   0  0  0  0  0  0  0  0  0  0  0  0
    6.0060  -13.2678   25.6583 C   0  0  0  0  0  0  0  0  0  0  0  0
    7.3700  -12.8236   26.1387 C   0  0  0  0  0  0  0  0  0  0  0  0
    8.3592  -13.7481   25.4492 C   0  0  1  0  0  0  0  0  0  0  0  0
    8.5719  -14.9030   26.3553 C   0  0  0  0  0  0  0  0  0  0  0  0
    8.1005  -16.0288   26.0859 O   0  0  0  0  0  0  0  0  0  0  0  0
   10.4022  -14.9508   30.2618 C   0  0  0  0  0  0  0  0  0  0  0  0
   11.2310  -14.9260   29.0094 C   0  0  2  0  0  0  0  0  0  0  0  0
   11.6704  -13.5240   28.6594 C   0  0  0  0  0  0  0  0  0  0  0  0
   10.4722  -15.5465   27.8386 C   0  0  2  0  0  0  0  0  0  0  0  0
    9.3182  -14.7246   27.5386 N   0  0  0  0  0  0  0  0  0  0  0  0
   10.0236  -16.9100   28.1688 C   0  0  0  0  0  0  0  0  0  0  0  0
    8.6964  -17.1637   28.4456 O   0  0  0  0  0  0  0  0  0  0  0  0
   10.8432  -17.8502   28.2011 O   0  0  0  0  0  0  0  0  0  0  0  0
  2  1  1  0
  3  2  2  0
  4  2  1  0
  5  4  1  0
  6  5  1  0
  6  7  1  6
  8  6  1  0
  9  8  2  0
 10  8  1  0
 10 14  1  0
 11 12  1  0
 11 10  1  0
 12 13  1  0
 14 13  1  0
 15 21  1  0
 14 15  1  1
 16 15  2  0
 18 17  1  1
 19 18  1  0
 20 21  1  1
 20 18  1  0
 22 20  1  0
 22 23  1  0
 24 22  2  0
M  END
$$$$
