QPV.pdb
     RDKit          3D

 24 24  0  0  1  0  0  0  0  0999 V2000
    8.1065  -19.7711   20.6540 N   0  0  0  0  0  0  0  0  0  0  0  0
    9.3606  -20.3830   20.3119 C   0  0  0  0  0  0  0  0  0  0  0  0
    9.3035  -21.3589   19.5226 O   0  0  0  0  0  0  0  0  0  0  0  0
   10.6449  -19.8810   20.8664 C   0  0  0  0  0  0  0  0  0  0  0  0
   10.3705  -18.5672   21.5342 C   0  0  0  0  0  0  0  0  0  0  0  0
   10.4200  -17.4029   20.5630 C   0  0  2  0  0  0  0  0  0  0  0  0
   11.7934  -17.2319   20.0799 N   0  0  0  0  0  0  0  0  0  0  0  0
   10.0016  -16.1856   21.2986 C   0  0  0  0  0  0  0  0  0  0  0  0
   10.9344  -15.4468   21.7900 O   0  0  0  0  0  0  0  0  0  0  0  0
    8.6776  -15.7917   21.4894 N   0  0  0  0  0  0  0  0  0  0  0  0
    7.5054  -16.5263   20.9850 C   0  0  0  0  0  0  0  0  0  0  0  0
    6.4332  -15.4925   20.7768 C   0  0  0  0  0  0  0  0  0  0  0  0
    6.9410  -14.2177   21.4138 C   0  0  0  0  0  0  0  0  0  0  0  0
    8.1863  -14.6224   22.1846 C   0  0  1  0  0  0  0  0  0  0  0  0
    7.7482  -14.9679   23.5588 C   0  0  0  0  0  0  0  0  0  0  0  0
    7.6466  -16.1594   23.9223 O   0  0  0  0  0  0  0  0  0  0  0  0
    5.6140  -12.8496   26.3710 C   0  0  0  0  0  0  0  0  0  0  0  0
    7.0944  -12.8854   26.6220 C   0  0  2  0  0  0  0  0  0  0  0  0
    7.7568  -11.5840   26.2365 C   0  0  0  0  0  0  0  0  0  0  0  0
    7.7476  -14.0480   25.8781 C   0  0  2  0  0  0  0  0  0  0  0  0
    7.4421  -13.9334   24.4671 N   0  0  0  0  0  0  0  0  0  0  0  0
    7.2458  -15.3388   26.3794 C   0  0  0  0  0  0  0  0  0  0  0  0
    7.8006  -15.9187   27.5013 O   0  0  0  0  0  0  0  0  0  0  0  0
    6.3116  -15.9206   25.7917 O   0  0  0  0  0  0  0  0  0  0  0  0
  2  1  1  0
  3  2  2  0
  4  2  1  0
  5  4  1  0
  6  5  1  0
  6  7  1  1
  8  6  1  0
  9  8  2  0
 10  8  1  0
 10 14  1  0
 11 12  1  0
 11 10  1  0
 12 13  1  0
 14 13  1  0
 15 21  1  0
 14 15  1  1
 16 15  2  0
 18 17  1  6
 19 18  1  0
 20 21  1  6
 20 18  1  0
 22 20  1  0
 22 23  1  0
 24 22  2  0
M  END
$$$$
