QPV.pdb
     RDKit          3D

 24 24  0  0  1  0  0  0  0  0999 V2000
    7.4347  -18.4735   24.0624 N   0  0  0  0  0  0  0  0  0  0  0  0
    7.2762  -18.7503   22.6616 C   0  0  0  0  0  0  0  0  0  0  0  0
    7.4113  -19.9506   22.3155 O   0  0  0  0  0  0  0  0  0  0  0  0
    6.9701  -17.6701   21.6877 C   0  0  0  0  0  0  0  0  0  0  0  0
    6.6203  -16.4388   22.4680 C   0  0  0  0  0  0  0  0  0  0  0  0
    7.3761  -15.2146   21.9866 C   0  0  2  0  0  0  0  0  0  0  0  0
    8.3033  -15.6048   20.9204 N   0  0  0  0  0  0  0  0  0  0  0  0
    8.1444  -14.6797   23.1362 C   0  0  0  0  0  0  0  0  0  0  0  0
    9.4193  -14.5735   22.9919 O   0  0  0  0  0  0  0  0  0  0  0  0
    7.5821  -14.2866   24.3502 N   0  0  0  0  0  0  0  0  0  0  0  0
    6.1500  -14.3826   24.6788 C   0  0  0  0  0  0  0  0  0  0  0  0
    5.8837  -13.2853   25.6721 C   0  0  0  0  0  0  0  0  0  0  0  0
    7.2357  -12.7456   26.0834 C   0  0  0  0  0  0  0  0  0  0  0  0
    8.2497  -13.7142   25.4985 C   0  0  1  0  0  0  0  0  0  0  0  0
    8.5043  -14.7466   26.5325 C   0  0  0  0  0  0  0  0  0  0  0  0
    7.8119  -15.7856   26.5900 O   0  0  0  0  0  0  0  0  0  0  0  0
   11.0546  -14.3629   29.9358 C   0  0  0  0  0  0  0  0  0  0  0  0
   11.5528  -15.0751   28.7109 C   0  0  2  0  0  0  0  0  0  0  0  0
   12.4008  -14.1718   27.8470 C   0  0  0  0  0  0  0  0  0  0  0  0
   10.3916  -15.6418   27.8972 C   0  0  2  0  0  0  0  0  0  0  0  0
    9.5448  -14.5498   27.4640 N   0  0  0  0  0  0  0  0  0  0  0  0
    9.5956  -16.5816   28.7047 C   0  0  0  0  0  0  0  0  0  0  0  0
   10.0511  -17.8617   28.9428 O   0  0  0  0  0  0  0  0  0  0  0  0
    8.4987  -16.2268   29.1820 O   0  0  0  0  0  0  0  0  0  0  0  0
  2  1  1  0
  3  2  2  0
  4  2  1  0
  5  4  1  0
  6  5  1  0
  6  7  1  6
  8  6  1  0
  9  8  2  0
 10  8  1  0
 10 14  1  0
 11 12  1  0
 11 10  1  0
 12 13  1  0
 14 13  1  0
 15 21  1  0
 14 15  1  1
 16 15  2  0
 18 17  1  1
 19 18  1  0
 20 21  1  1
 20 18  1  0
 22 20  1  0
 22 23  1  0
 24 22  2  0
M  END
$$$$
