QPV.pdb
     RDKit          3D

 24 24  0  0  1  0  0  0  0  0999 V2000
   13.3596  -18.2121   23.0578 N   0  0  0  0  0  0  0  0  0  0  0  0
   12.9827  -16.9177   22.5612 C   0  0  0  0  0  0  0  0  0  0  0  0
   13.7812  -15.9781   22.8021 O   0  0  0  0  0  0  0  0  0  0  0  0
   11.7181  -16.7147   21.8071 C   0  0  0  0  0  0  0  0  0  0  0  0
   11.0450  -18.0481   21.6789 C   0  0  0  0  0  0  0  0  0  0  0  0
    9.7418  -17.9664   20.9066 C   0  0  2  0  0  0  0  0  0  0  0  0
    9.9870  -17.3358   19.6062 N   0  0  0  0  0  0  0  0  0  0  0  0
    8.8053  -17.1273   21.6921 C   0  0  0  0  0  0  0  0  0  0  0  0
    8.4645  -15.9946   21.1839 O   0  0  0  0  0  0  0  0  0  0  0  0
    8.2738  -17.4818   22.9315 N   0  0  0  0  0  0  0  0  0  0  0  0
    8.6840  -18.6619   23.7109 C   0  0  0  0  0  0  0  0  0  0  0  0
    7.4815  -19.0525   24.5253 C   0  0  0  0  0  0  0  0  0  0  0  0
    6.4845  -17.9238   24.3813 C   0  0  0  0  0  0  0  0  0  0  0  0
    7.2420  -16.8051   23.6860 C   0  0  1  0  0  0  0  0  0  0  0  0
    7.8330  -15.9591   24.7513 C   0  0  0  0  0  0  0  0  0  0  0  0
    8.9583  -16.2178   25.2297 O   0  0  0  0  0  0  0  0  0  0  0  0
    7.4072  -11.5245   26.9585 C   0  0  0  0  0  0  0  0  0  0  0  0
    6.8069  -12.6133   26.1159 C   0  0  2  0  0  0  0  0  0  0  0  0
    5.4606  -13.0488   26.6441 C   0  0  0  0  0  0  0  0  0  0  0  0
    7.7470  -13.8127   26.0207 C   0  0  2  0  0  0  0  0  0  0  0  0
    7.1112  -14.8459   25.2297 N   0  0  0  0  0  0  0  0  0  0  0  0
    8.0530  -14.3461   27.3590 C   0  0  0  0  0  0  0  0  0  0  0  0
    9.0275  -13.7615   28.1408 O   0  0  0  0  0  0  0  0  0  0  0  0
    7.4311  -15.3345   27.7985 O   0  0  0  0  0  0  0  0  0  0  0  0
  2  1  1  0
  3  2  2  0
  4  2  1  0
  5  4  1  0
  6  5  1  0
  6  7  1  6
  8  6  1  0
  9  8  2  0
 10  8  1  0
 10 14  1  0
 11 12  1  0
 11 10  1  0
 12 13  1  0
 14 13  1  0
 15 21  1  0
 14 15  1  1
 16 15  2  0
 18 17  1  1
 19 18  1  0
 20 21  1  6
 20 18  1  0
 22 20  1  0
 22 23  1  0
 24 22  2  0
M  END
$$$$
