QFD.pdb
     RDKit          3D

 29 29  0  0  1  0  0  0  0  0999 V2000
   27.4888  -17.7569  -15.5712 N   0  0  0  0  0  0  0  0  0  0  0  0
   26.2325  -18.2493  -15.1718 C   0  0  0  0  0  0  0  0  0  0  0  0
   25.3255  -17.4528  -14.8610 O   0  0  0  0  0  0  0  0  0  0  0  0
   25.9774  -19.6990  -15.1173 C   0  0  0  0  0  0  0  0  0  0  0  0
   25.6612  -20.1672  -13.7084 C   0  0  0  0  0  0  0  0  0  0  0  0
   26.9832  -20.4739  -13.0237 C   0  0  2  0  0  0  0  0  0  0  0  0
   27.4814  -21.6804  -13.6948 N   0  0  0  0  0  0  0  0  0  0  0  0
   26.7859  -20.8168  -11.5971 C   0  0  0  0  0  0  0  0  0  0  0  0
   25.9851  -21.7258  -11.2792 O   0  0  0  0  0  0  0  0  0  0  0  0
   27.4620  -20.1668  -10.5256 N   0  0  0  0  0  0  0  0  0  0  0  0
   27.1456  -20.3949   -9.1417 C   0  0  1  0  0  0  0  0  0  0  0  0
   28.0239  -19.4977   -8.2841 C   0  0  0  0  0  0  0  0  0  0  0  0
   27.8712  -19.7837   -6.8400 C   0  0  0  0  0  0  0  0  0  0  0  0
   28.6095  -20.7210   -6.1576 C   0  0  0  0  0  0  0  0  0  0  0  0
   28.4537  -20.9689   -4.8150 C   0  0  0  0  0  0  0  0  0  0  0  0
   27.5309  -20.2744   -4.0765 C   0  0  0  0  0  0  0  0  0  0  0  0
   26.7688  -19.3201   -4.7371 C   0  0  0  0  0  0  0  0  0  0  0  0
   26.9378  -19.0834   -6.0857 C   0  0  0  0  0  0  0  0  0  0  0  0
   25.7427  -20.1281   -8.7839 C   0  0  0  0  0  0  0  0  0  0  0  0
   25.1816  -19.1023   -9.2260 O   0  0  0  0  0  0  0  0  0  0  0  0
   25.0090  -21.0033   -7.9539 N   0  0  0  0  0  0  0  0  0  0  0  0
   23.5298  -20.8928   -7.8276 C   0  0  1  0  0  0  0  0  0  0  0  0
   22.9125  -21.5250   -9.0607 C   0  0  0  0  0  0  0  0  0  0  0  0
   22.1777  -20.5744   -9.8702 C   0  0  0  0  0  0  0  0  0  0  0  0
   21.3355  -19.7949   -9.3647 O   0  0  0  0  0  0  0  0  0  0  0  0
   23.2028  -21.6673   -6.6204 C   0  0  0  0  0  0  0  0  0  0  0  0
   23.9648  -22.5625   -6.2088 O   0  0  0  0  0  0  0  0  0  0  0  0
   22.3417  -20.4475  -11.2563 O   0  0  0  0  0  0  0  0  0  0  0  0
   22.0485  -21.4497   -5.8814 O   0  0  0  0  0  0  0  0  0  0  0  0
  2  1  1  0
  2  3  2  0
  4  2  1  0
  5  4  1  0
  5  6  1  0
  6  7  1  6
  8  6  1  0
  8 10  1  0
  9  8  2  0
 11 10  1  0
 12 13  1  0
 11 12  1  1
 13 18  2  0
 14 13  1  0
 14 15  2  0
 15 16  1  0
 16 17  2  0
 18 17  1  0
 19 21  1  0
 19 11  1  0
 20 19  2  0
 22 21  1  0
 22 26  1  0
 22 23  1  6
 24 25  2  0
 24 23  1  0
 26 27  2  0
 26 29  1  0
 28 24  1  0
M  END
$$$$
