QFD.pdb
     RDKit          3D

 29 29  0  0  1  0  0  0  0  0999 V2000
   26.5025  -39.4432  -10.1490 N   0  0  0  0  0  0  0  0  0  0  0  0
   25.2705  -38.8631  -10.5039 C   0  0  0  0  0  0  0  0  0  0  0  0
   24.3771  -39.5686  -11.0116 O   0  0  0  0  0  0  0  0  0  0  0  0
   25.0249  -37.4279  -10.2810 C   0  0  0  0  0  0  0  0  0  0  0  0
   26.2410  -36.7268   -9.7035 C   0  0  0  0  0  0  0  0  0  0  0  0
   26.0635  -36.6771   -8.1947 C   0  0  2  0  0  0  0  0  0  0  0  0
   25.4463  -35.3714   -7.9331 N   0  0  0  0  0  0  0  0  0  0  0  0
   27.3689  -36.6917   -7.4964 C   0  0  0  0  0  0  0  0  0  0  0  0
   28.1342  -37.6747   -7.6255 O   0  0  0  0  0  0  0  0  0  0  0  0
   27.8322  -35.6353   -6.6615 N   0  0  0  0  0  0  0  0  0  0  0  0
   29.0457  -35.7131   -5.8942 C   0  0  1  0  0  0  0  0  0  0  0  0
   29.6661  -34.3272   -5.8171 C   0  0  0  0  0  0  0  0  0  0  0  0
   30.9840  -34.3429   -5.1438 C   0  0  0  0  0  0  0  0  0  0  0  0
   31.1633  -34.1432   -3.7958 C   0  0  0  0  0  0  0  0  0  0  0  0
   32.3966  -34.1647   -3.1900 C   0  0  0  0  0  0  0  0  0  0  0  0
   33.5331  -34.3923   -3.9219 C   0  0  0  0  0  0  0  0  0  0  0  0
   33.3855  -34.5977   -5.2870 C   0  0  0  0  0  0  0  0  0  0  0  0
   32.1400  -34.5729   -5.8797 C   0  0  0  0  0  0  0  0  0  0  0  0
   28.8678  -36.2050   -4.5181 C   0  0  0  0  0  0  0  0  0  0  0  0
   28.0053  -35.6754   -3.7844 O   0  0  0  0  0  0  0  0  0  0  0  0
   29.6454  -37.2644   -4.0021 N   0  0  0  0  0  0  0  0  0  0  0  0
   29.4806  -37.7340   -2.5991 C   0  0  1  0  0  0  0  0  0  0  0  0
   30.3039  -38.9975   -2.4352 C   0  0  0  0  0  0  0  0  0  0  0  0
   30.2330  -39.5432   -1.0951 C   0  0  0  0  0  0  0  0  0  0  0  0
   29.6133  -38.9534   -0.1783 O   0  0  0  0  0  0  0  0  0  0  0  0
   30.0249  -36.6419   -1.7773 C   0  0  0  0  0  0  0  0  0  0  0  0
   31.2301  -36.3340   -1.8397 O   0  0  0  0  0  0  0  0  0  0  0  0
   30.8373  -40.7500   -0.7171 O   0  0  0  0  0  0  0  0  0  0  0  0
   29.2424  -35.9028   -0.9013 O   0  0  0  0  0  0  0  0  0  0  0  0
  2  1  1  0
  2  3  2  0
  4  2  1  0
  5  4  1  0
  5  6  1  0
  6  7  1  6
  8  6  1  0
  8 10  1  0
  9  8  2  0
 11 10  1  0
 12 13  1  0
 11 12  1  1
 13 18  2  0
 14 13  1  0
 14 15  2  0
 15 16  1  0
 16 17  2  0
 18 17  1  0
 19 21  1  0
 19 11  1  0
 20 19  2  0
 22 21  1  0
 22 26  1  0
 22 23  1  6
 24 25  2  0
 24 23  1  0
 26 27  2  0
 26 29  1  0
 28 24  1  0
M  END
$$$$
