QFD.pdb
     RDKit          3D

 29 29  0  0  1  0  0  0  0  0999 V2000
   27.8047  -19.6257  -18.4711 N   0  0  0  0  0  0  0  0  0  0  0  0
   28.3816  -20.4021  -19.4932 C   0  0  0  0  0  0  0  0  0  0  0  0
   29.1276  -19.8634  -20.3340 O   0  0  0  0  0  0  0  0  0  0  0  0
   28.1129  -21.8478  -19.5798 C   0  0  0  0  0  0  0  0  0  0  0  0
   27.2361  -22.3316  -18.4392 C   0  0  0  0  0  0  0  0  0  0  0  0
   28.0475  -22.2119  -17.1594 C   0  0  2  0  0  0  0  0  0  0  0  0
   28.7981  -23.4703  -17.0730 N   0  0  0  0  0  0  0  0  0  0  0  0
   27.1708  -22.1427  -15.9685 C   0  0  0  0  0  0  0  0  0  0  0  0
   26.1124  -22.8114  -15.9335 O   0  0  0  0  0  0  0  0  0  0  0  0
   27.4527  -21.3451  -14.8230 N   0  0  0  0  0  0  0  0  0  0  0  0
   26.5755  -21.2620  -13.6867 C   0  0  1  0  0  0  0  0  0  0  0  0
   27.2880  -20.5132  -12.5717 C   0  0  0  0  0  0  0  0  0  0  0  0
   26.4857  -20.4682  -11.3288 C   0  0  0  0  0  0  0  0  0  0  0  0
   26.4147  -21.4965  -10.4196 C   0  0  0  0  0  0  0  0  0  0  0  0
   25.6653  -21.4329   -9.2695 C   0  0  0  0  0  0  0  0  0  0  0  0
   24.9356  -20.3117   -8.9695 C   0  0  0  0  0  0  0  0  0  0  0  0
   24.9862  -19.2550   -9.8686 C   0  0  0  0  0  0  0  0  0  0  0  0
   25.7438  -19.3350  -11.0188 C   0  0  0  0  0  0  0  0  0  0  0  0
   25.3003  -20.5746  -13.9485 C   0  0  0  0  0  0  0  0  0  0  0  0
   25.3006  -19.5109  -14.6052 O   0  0  0  0  0  0  0  0  0  0  0  0
   24.0711  -21.0864  -13.4791 N   0  0  0  0  0  0  0  0  0  0  0  0
   22.7906  -20.3654  -13.7169 C   0  0  1  0  0  0  0  0  0  0  0  0
   22.1947  -20.8957  -15.0072 C   0  0  0  0  0  0  0  0  0  0  0  0
   21.6435  -19.8481  -15.8425 C   0  0  0  0  0  0  0  0  0  0  0  0
   20.7894  -19.0410  -15.4049 O   0  0  0  0  0  0  0  0  0  0  0  0
   21.9474  -20.7192  -12.5644 C   0  0  0  0  0  0  0  0  0  0  0  0
   21.9743  -21.8666  -12.0805 O   0  0  0  0  0  0  0  0  0  0  0  0
   22.0097  -19.6514  -17.1810 O   0  0  0  0  0  0  0  0  0  0  0  0
   21.0893  -19.8125  -11.9584 O   0  0  0  0  0  0  0  0  0  0  0  0
  2  1  1  0
  2  3  2  0
  4  2  1  0
  5  4  1  0
  5  6  1  0
  6  7  1  1
  8  6  1  0
  8 10  1  0
  9  8  2  0
 11 10  1  0
 12 13  1  0
 11 12  1  1
 13 18  2  0
 14 13  1  0
 14 15  2  0
 15 16  1  0
 16 17  2  0
 18 17  1  0
 19 21  1  0
 19 11  1  0
 20 19  2  0
 22 21  1  0
 22 26  1  0
 22 23  1  6
 24 25  2  0
 24 23  1  0
 26 27  2  0
 26 29  1  0
 28 24  1  0
M  END
$$$$
