QFD.pdb
     RDKit          3D

 29 29  0  0  1  0  0  0  0  0999 V2000
   24.9319  -21.1121  -18.2815 N   0  0  0  0  0  0  0  0  0  0  0  0
   26.0684  -21.7830  -18.7695 C   0  0  0  0  0  0  0  0  0  0  0  0
   26.0493  -22.2844  -19.9105 O   0  0  0  0  0  0  0  0  0  0  0  0
   27.2832  -21.8992  -17.9445 C   0  0  0  0  0  0  0  0  0  0  0  0
   27.1993  -21.0518  -16.6880 C   0  0  0  0  0  0  0  0  0  0  0  0
   27.3576  -21.9850  -15.4986 C   0  0  2  0  0  0  0  0  0  0  0  0
   27.4018  -23.3310  -16.0822 N   0  0  0  0  0  0  0  0  0  0  0  0
   26.1751  -21.9322  -14.6095 C   0  0  0  0  0  0  0  0  0  0  0  0
   25.4152  -22.9239  -14.5230 O   0  0  0  0  0  0  0  0  0  0  0  0
   25.8279  -20.7990  -13.8202 N   0  0  0  0  0  0  0  0  0  0  0  0
   24.6991  -20.7762  -12.9297 C   0  0  1  0  0  0  0  0  0  0  0  0
   24.8895  -19.6499  -11.9263 C   0  0  0  0  0  0  0  0  0  0  0  0
   25.7289  -20.0613  -10.7789 C   0  0  0  0  0  0  0  0  0  0  0  0
   27.0673  -20.3602  -10.8710 C   0  0  0  0  0  0  0  0  0  0  0  0
   27.8295  -20.7376   -9.7917 C   0  0  0  0  0  0  0  0  0  0  0  0
   27.2748  -20.8356   -8.5419 C   0  0  0  0  0  0  0  0  0  0  0  0
   25.9241  -20.5402   -8.4156 C   0  0  0  0  0  0  0  0  0  0  0  0
   25.1730  -20.1626   -9.5095 C   0  0  0  0  0  0  0  0  0  0  0  0
   23.4011  -20.5739  -13.5941 C   0  0  0  0  0  0  0  0  0  0  0  0
   23.3156  -19.7579  -14.5373 O   0  0  0  0  0  0  0  0  0  0  0  0
   22.2453  -21.2804  -13.1962 N   0  0  0  0  0  0  0  0  0  0  0  0
   20.9550  -21.1263  -13.9225 C   0  0  1  0  0  0  0  0  0  0  0  0
   20.3563  -22.5089  -14.0988 C   0  0  0  0  0  0  0  0  0  0  0  0
   19.5657  -22.6277  -15.3070 C   0  0  0  0  0  0  0  0  0  0  0  0
   19.4074  -21.6576  -16.0857 O   0  0  0  0  0  0  0  0  0  0  0  0
   20.1241  -20.3039  -13.0294 C   0  0  0  0  0  0  0  0  0  0  0  0
   19.1269  -19.6964  -13.4630 O   0  0  0  0  0  0  0  0  0  0  0  0
   18.9246  -23.8104  -15.7001 O   0  0  0  0  0  0  0  0  0  0  0  0
   20.3958  -20.1601  -11.6761 O   0  0  0  0  0  0  0  0  0  0  0  0
  2  1  1  0
  2  3  2  0
  4  2  1  0
  5  4  1  0
  5  6  1  0
  6  7  1  6
  8  6  1  0
  8 10  1  0
  9  8  2  0
 11 10  1  0
 12 13  1  0
 11 12  1  1
 13 18  2  0
 14 13  1  0
 14 15  2  0
 15 16  1  0
 16 17  2  0
 18 17  1  0
 19 21  1  0
 19 11  1  0
 20 19  2  0
 22 21  1  0
 22 26  1  0
 22 23  1  1
 24 25  2  0
 24 23  1  0
 26 27  2  0
 26 29  1  0
 28 24  1  0
M  END
$$$$
