QFD.pdb
     RDKit          3D

 29 29  0  0  1  0  0  0  0  0999 V2000
   26.5293  -20.3015  -20.3629 N   0  0  0  0  0  0  0  0  0  0  0  0
   27.3725  -19.2295  -20.0166 C   0  0  0  0  0  0  0  0  0  0  0  0
   27.9257  -18.5622  -20.9123 O   0  0  0  0  0  0  0  0  0  0  0  0
   27.6086  -18.8865  -18.6036 C   0  0  0  0  0  0  0  0  0  0  0  0
   26.7965  -19.7595  -17.6642 C   0  0  0  0  0  0  0  0  0  0  0  0
   27.6247  -19.9675  -16.4067 C   0  0  2  0  0  0  0  0  0  0  0  0
   28.7004  -20.8794  -16.8134 N   0  0  0  0  0  0  0  0  0  0  0  0
   26.8438  -20.6544  -15.3531 C   0  0  0  0  0  0  0  0  0  0  0  0
   26.6139  -21.8819  -15.4476 O   0  0  0  0  0  0  0  0  0  0  0  0
   26.3180  -19.9995  -14.2031 N   0  0  0  0  0  0  0  0  0  0  0  0
   25.5265  -20.6710  -13.2082 C   0  0  1  0  0  0  0  0  0  0  0  0
   25.9235  -20.1531  -11.8349 C   0  0  0  0  0  0  0  0  0  0  0  0
   27.2744  -20.6077  -11.4366 C   0  0  0  0  0  0  0  0  0  0  0  0
   27.5467  -21.2900  -10.2749 C   0  0  0  0  0  0  0  0  0  0  0  0
   28.8089  -21.7058   -9.9253 C   0  0  0  0  0  0  0  0  0  0  0  0
   29.8813  -21.4522  -10.7408 C   0  0  0  0  0  0  0  0  0  0  0  0
   29.6392  -20.7644  -11.9222 C   0  0  0  0  0  0  0  0  0  0  0  0
   28.3657  -20.3539  -12.2584 C   0  0  0  0  0  0  0  0  0  0  0  0
   24.0735  -20.4867  -13.3571 C   0  0  0  0  0  0  0  0  0  0  0  0
   23.6348  -19.4010  -13.7945 O   0  0  0  0  0  0  0  0  0  0  0  0
   23.1574  -21.5071  -13.0208 N   0  0  0  0  0  0  0  0  0  0  0  0
   21.6930  -21.3301  -13.2216 C   0  0  1  0  0  0  0  0  0  0  0  0
   21.1290  -22.6549  -13.6990 C   0  0  0  0  0  0  0  0  0  0  0  0
   20.5865  -22.5827  -15.0404 C   0  0  0  0  0  0  0  0  0  0  0  0
   20.5492  -21.5023  -15.6759 O   0  0  0  0  0  0  0  0  0  0  0  0
   21.1755  -20.9889  -11.8875 C   0  0  0  0  0  0  0  0  0  0  0  0
   20.2979  -20.1164  -11.7457 O   0  0  0  0  0  0  0  0  0  0  0  0
   20.0686  -23.6892  -15.7273 O   0  0  0  0  0  0  0  0  0  0  0  0
   21.6245  -21.6082  -10.7296 O   0  0  0  0  0  0  0  0  0  0  0  0
  2  1  1  0
  2  3  2  0
  4  2  1  0
  5  4  1  0
  5  6  1  0
  6  7  1  6
  8  6  1  0
  8 10  1  0
  9  8  2  0
 11 10  1  0
 12 13  1  0
 11 12  1  1
 13 18  2  0
 14 13  1  0
 14 15  2  0
 15 16  1  0
 16 17  2  0
 18 17  1  0
 19 21  1  0
 19 11  1  0
 20 19  2  0
 22 21  1  0
 22 26  1  0
 22 23  1  1
 24 25  2  0
 24 23  1  0
 26 27  2  0
 26 29  1  0
 28 24  1  0
M  END
$$$$
