QFD.pdb
     RDKit          3D

 29 29  0  0  1  0  0  0  0  0999 V2000
   26.8090  -20.4168  -19.6934 N   0  0  0  0  0  0  0  0  0  0  0  0
   27.5858  -21.4884  -20.1714 C   0  0  0  0  0  0  0  0  0  0  0  0
   28.2841  -21.3397  -21.1932 O   0  0  0  0  0  0  0  0  0  0  0  0
   27.5825  -22.7866  -19.4755 C   0  0  0  0  0  0  0  0  0  0  0  0
   26.6261  -22.7966  -18.2970 C   0  0  0  0  0  0  0  0  0  0  0  0
   27.0686  -21.6992  -17.3428 C   0  0  2  0  0  0  0  0  0  0  0  0
   28.5056  -21.9275  -17.1502 N   0  0  0  0  0  0  0  0  0  0  0  0
   26.4217  -21.8413  -16.0188 C   0  0  0  0  0  0  0  0  0  0  0  0
   25.4246  -22.5879  -15.8888 O   0  0  0  0  0  0  0  0  0  0  0  0
   26.8652  -21.1688  -14.8445 N   0  0  0  0  0  0  0  0  0  0  0  0
   26.1306  -21.1764  -13.6085 C   0  0  1  0  0  0  0  0  0  0  0  0
   26.8999  -20.3671  -12.5766 C   0  0  0  0  0  0  0  0  0  0  0  0
   26.2605  -20.4125  -11.2426 C   0  0  0  0  0  0  0  0  0  0  0  0
   26.4248  -21.4392  -10.3437 C   0  0  0  0  0  0  0  0  0  0  0  0
   25.8237  -21.4602   -9.1081 C   0  0  0  0  0  0  0  0  0  0  0  0
   25.0119  -20.4313   -8.7061 C   0  0  0  0  0  0  0  0  0  0  0  0
   24.8255  -19.3787   -9.5920 C   0  0  0  0  0  0  0  0  0  0  0  0
   25.4365  -19.3730  -10.8289 C   0  0  0  0  0  0  0  0  0  0  0  0
   24.7729  -20.6149  -13.7013 C   0  0  0  0  0  0  0  0  0  0  0  0
   24.6156  -19.4644  -14.1642 O   0  0  0  0  0  0  0  0  0  0  0  0
   23.6381  -21.3433  -13.2829 N   0  0  0  0  0  0  0  0  0  0  0  0
   22.2720  -20.7562  -13.3531 C   0  0  1  0  0  0  0  0  0  0  0  0
   21.3724  -21.7615  -14.0468 C   0  0  0  0  0  0  0  0  0  0  0  0
   20.5061  -21.1509  -15.0346 C   0  0  0  0  0  0  0  0  0  0  0  0
   20.4948  -19.9108  -15.2206 O   0  0  0  0  0  0  0  0  0  0  0  0
   21.8740  -20.5768  -11.9482 C   0  0  0  0  0  0  0  0  0  0  0  0
   22.3577  -21.2915  -11.0501 O   0  0  0  0  0  0  0  0  0  0  0  0
   19.6264  -21.8775  -15.8485 O   0  0  0  0  0  0  0  0  0  0  0  0
   20.9546  -19.6177  -11.5473 O   0  0  0  0  0  0  0  0  0  0  0  0
  2  1  1  0
  2  3  2  0
  4  2  1  0
  5  4  1  0
  5  6  1  0
  6  7  1  1
  8  6  1  0
  8 10  1  0
  9  8  2  0
 11 10  1  0
 12 13  1  0
 11 12  1  1
 13 18  2  0
 14 13  1  0
 14 15  2  0
 15 16  1  0
 16 17  2  0
 18 17  1  0
 19 21  1  0
 19 11  1  0
 20 19  2  0
 22 21  1  0
 22 26  1  0
 22 23  1  1
 24 25  2  0
 24 23  1  0
 26 27  2  0
 26 29  1  0
 28 24  1  0
M  END
$$$$
