QFD.pdb
     RDKit          3D

 29 29  0  0  1  0  0  0  0  0999 V2000
   25.6138  -17.6914  -14.8097 N   0  0  0  0  0  0  0  0  0  0  0  0
   26.8077  -18.0141  -15.4812 C   0  0  0  0  0  0  0  0  0  0  0  0
   27.0803  -17.4567  -16.5622 O   0  0  0  0  0  0  0  0  0  0  0  0
   27.7407  -19.0054  -14.9186 C   0  0  0  0  0  0  0  0  0  0  0  0
   27.2704  -19.5281  -13.5734 C   0  0  0  0  0  0  0  0  0  0  0  0
   28.3427  -20.4708  -13.0517 C   0  0  2  0  0  0  0  0  0  0  0  0
   28.2724  -21.6423  -13.9331 N   0  0  0  0  0  0  0  0  0  0  0  0
   28.0328  -20.9356  -11.6807 C   0  0  0  0  0  0  0  0  0  0  0  0
   27.1380  -21.7932  -11.5003 O   0  0  0  0  0  0  0  0  0  0  0  0
   28.6995  -20.4629  -10.5146 N   0  0  0  0  0  0  0  0  0  0  0  0
   28.1618  -20.6047   -9.1886 C   0  0  1  0  0  0  0  0  0  0  0  0
   29.0379  -19.8274   -8.2191 C   0  0  0  0  0  0  0  0  0  0  0  0
   28.5421  -19.9139   -6.8273 C   0  0  0  0  0  0  0  0  0  0  0  0
   28.7842  -20.9746   -5.9874 C   0  0  0  0  0  0  0  0  0  0  0  0
   28.3165  -21.0336   -4.6966 C   0  0  0  0  0  0  0  0  0  0  0  0
   27.5679  -20.0105   -4.1749 C   0  0  0  0  0  0  0  0  0  0  0  0
   27.3056  -18.9241   -4.9987 C   0  0  0  0  0  0  0  0  0  0  0  0
   27.7827  -18.8805   -6.2924 C   0  0  0  0  0  0  0  0  0  0  0  0
   26.7798  -20.1212   -9.0350 C   0  0  0  0  0  0  0  0  0  0  0  0
   26.5109  -18.9334   -9.3169 O   0  0  0  0  0  0  0  0  0  0  0  0
   25.7444  -20.9655   -8.5786 N   0  0  0  0  0  0  0  0  0  0  0  0
   24.3206  -20.5319   -8.6109 C   0  0  1  0  0  0  0  0  0  0  0  0
   23.6947  -21.0953   -9.8726 C   0  0  0  0  0  0  0  0  0  0  0  0
   22.6683  -20.2333  -10.4225 C   0  0  0  0  0  0  0  0  0  0  0  0
   22.3300  -19.1692   -9.8519 O   0  0  0  0  0  0  0  0  0  0  0  0
   23.7222  -21.1383   -7.4115 C   0  0  0  0  0  0  0  0  0  0  0  0
   24.4098  -21.8208   -6.6289 O   0  0  0  0  0  0  0  0  0  0  0  0
   21.9812  -20.5088  -11.6126 O   0  0  0  0  0  0  0  0  0  0  0  0
   22.3815  -20.9874   -7.0862 O   0  0  0  0  0  0  0  0  0  0  0  0
  2  1  1  0
  2  3  2  0
  4  2  1  0
  5  4  1  0
  5  6  1  0
  6  7  1  6
  8  6  1  0
  8 10  1  0
  9  8  2  0
 11 10  1  0
 12 13  1  0
 11 12  1  1
 13 18  2  0
 14 13  1  0
 14 15  2  0
 15 16  1  0
 16 17  2  0
 18 17  1  0
 19 21  1  0
 19 11  1  0
 20 19  2  0
 22 21  1  0
 22 26  1  0
 22 23  1  6
 24 25  2  0
 24 23  1  0
 26 27  2  0
 26 29  1  0
 28 24  1  0
M  END
$$$$
