QFD.pdb
     RDKit          3D

 29 29  0  0  1  0  0  0  0  0999 V2000
   20.6343  -23.5059  -13.3962 N   0  0  0  0  0  0  0  0  0  0  0  0
   19.4656  -22.7681  -13.1317 C   0  0  0  0  0  0  0  0  0  0  0  0
   18.3902  -23.3639  -12.9263 O   0  0  0  0  0  0  0  0  0  0  0  0
   19.4998  -21.2959  -13.0947 C   0  0  0  0  0  0  0  0  0  0  0  0
   20.9054  -20.7557  -13.2851 C   0  0  0  0  0  0  0  0  0  0  0  0
   21.5762  -20.7423  -11.9211 C   0  0  2  0  0  0  0  0  0  0  0  0
   20.8886  -19.6809  -11.1762 N   0  0  0  0  0  0  0  0  0  0  0  0
   23.0008  -20.3525  -12.0235 C   0  0  0  0  0  0  0  0  0  0  0  0
   23.3085  -19.1475  -12.1710 O   0  0  0  0  0  0  0  0  0  0  0  0
   24.0812  -21.2782  -11.9649 N   0  0  0  0  0  0  0  0  0  0  0  0
   25.4575  -20.8922  -12.1200 C   0  0  1  0  0  0  0  0  0  0  0  0
   26.3081  -21.7176  -11.1676 C   0  0  0  0  0  0  0  0  0  0  0  0
   26.3784  -21.1148   -9.8177 C   0  0  0  0  0  0  0  0  0  0  0  0
   25.3130  -21.0345   -8.9531 C   0  0  0  0  0  0  0  0  0  0  0  0
   25.4007  -20.4729   -7.7019 C   0  0  0  0  0  0  0  0  0  0  0  0
   26.5856  -19.9539   -7.2482 C   0  0  0  0  0  0  0  0  0  0  0  0
   27.6812  -20.0196   -8.0985 C   0  0  0  0  0  0  0  0  0  0  0  0
   27.5762  -20.5869   -9.3517 C   0  0  0  0  0  0  0  0  0  0  0  0
   25.9940  -21.0759  -13.4785 C   0  0  0  0  0  0  0  0  0  0  0  0
   25.7407  -22.1303  -14.1004 O   0  0  0  0  0  0  0  0  0  0  0  0
   26.7880  -20.0894  -14.1028 N   0  0  0  0  0  0  0  0  0  0  0  0
   27.2383  -20.2366  -15.5141 C   0  0  1  0  0  0  0  0  0  0  0  0
   28.1053  -19.0379  -15.8497 C   0  0  0  0  0  0  0  0  0  0  0  0
   28.6433  -19.0936  -17.1937 C   0  0  0  0  0  0  0  0  0  0  0  0
   28.3881  -20.0499  -17.9636 O   0  0  0  0  0  0  0  0  0  0  0  0
   28.0301  -21.4765  -15.5222 C   0  0  0  0  0  0  0  0  0  0  0  0
   28.9671  -21.6423  -14.7186 O   0  0  0  0  0  0  0  0  0  0  0  0
   29.4761  -18.1055  -17.7363 O   0  0  0  0  0  0  0  0  0  0  0  0
   27.7838  -22.5161  -16.4080 O   0  0  0  0  0  0  0  0  0  0  0  0
  2  1  1  0
  2  3  2  0
  4  2  1  0
  5  4  1  0
  5  6  1  0
  6  7  1  1
  8  6  1  0
  8 10  1  0
  9  8  2  0
 11 10  1  0
 12 13  1  0
 11 12  1  1
 13 18  2  0
 14 13  1  0
 14 15  2  0
 15 16  1  0
 16 17  2  0
 18 17  1  0
 19 21  1  0
 19 11  1  0
 20 19  2  0
 22 21  1  0
 22 26  1  0
 22 23  1  1
 24 25  2  0
 24 23  1  0
 26 27  2  0
 26 29  1  0
 28 24  1  0
M  END
$$$$
