QFD.pdb
     RDKit          3D

 29 29  0  0  1  0  0  0  0  0999 V2000
   24.2485  -39.2334   -0.0137 N   0  0  0  0  0  0  0  0  0  0  0  0
   23.6624  -38.8219    1.1976 C   0  0  0  0  0  0  0  0  0  0  0  0
   22.6254  -39.3807    1.6051 O   0  0  0  0  0  0  0  0  0  0  0  0
   24.2628  -37.7356    1.9909 C   0  0  0  0  0  0  0  0  0  0  0  0
   25.5967  -37.2875    1.4219 C   0  0  0  0  0  0  0  0  0  0  0  0
   25.4703  -35.8135    1.0730 C   0  0  2  0  0  0  0  0  0  0  0  0
   26.1924  -35.6659   -0.1963 N   0  0  0  0  0  0  0  0  0  0  0  0
   26.1583  -34.9616    2.0694 C   0  0  0  0  0  0  0  0  0  0  0  0
   27.2468  -35.3349    2.5634 O   0  0  0  0  0  0  0  0  0  0  0  0
   25.6556  -33.7083    2.5215 N   0  0  0  0  0  0  0  0  0  0  0  0
   26.3024  -32.9206    3.5356 C   0  0  1  0  0  0  0  0  0  0  0  0
   26.4252  -31.4887    3.0395 C   0  0  0  0  0  0  0  0  0  0  0  0
   27.0102  -30.5925    4.0619 C   0  0  0  0  0  0  0  0  0  0  0  0
   26.3567  -29.5121    4.6046 C   0  0  0  0  0  0  0  0  0  0  0  0
   26.9176  -28.6940    5.5556 C   0  0  0  0  0  0  0  0  0  0  0  0
   28.1874  -28.9246    6.0178 C   0  0  0  0  0  0  0  0  0  0  0  0
   28.8745  -30.0089    5.4889 C   0  0  0  0  0  0  0  0  0  0  0  0
   28.2968  -30.8206    4.5346 C   0  0  0  0  0  0  0  0  0  0  0  0
   25.5982  -32.8914    4.8281 C   0  0  0  0  0  0  0  0  0  0  0  0
   24.3759  -32.6308    4.8546 O   0  0  0  0  0  0  0  0  0  0  0  0
   26.2666  -33.1531    6.0438 N   0  0  0  0  0  0  0  0  0  0  0  0
   25.5389  -33.1569    7.3425 C   0  0  1  0  0  0  0  0  0  0  0  0
   25.8758  -34.4520    8.0568 C   0  0  0  0  0  0  0  0  0  0  0  0
   25.2610  -34.5471    9.3652 C   0  0  0  0  0  0  0  0  0  0  0  0
   24.0159  -34.5103    9.5095 O   0  0  0  0  0  0  0  0  0  0  0  0
   26.0783  -31.9988    8.0720 C   0  0  0  0  0  0  0  0  0  0  0  0
   27.1716  -31.4946    7.7531 O   0  0  0  0  0  0  0  0  0  0  0  0
   25.9890  -34.6852   10.5550 O   0  0  0  0  0  0  0  0  0  0  0  0
   25.4129  -31.4095    9.1377 O   0  0  0  0  0  0  0  0  0  0  0  0
  2  1  1  0
  2  3  2  0
  4  2  1  0
  5  4  1  0
  5  6  1  0
  6  7  1  6
  8  6  1  0
  8 10  1  0
  9  8  2  0
 11 10  1  0
 12 13  1  0
 11 12  1  6
 13 18  2  0
 14 13  1  0
 14 15  2  0
 15 16  1  0
 16 17  2  0
 18 17  1  0
 19 21  1  0
 19 11  1  0
 20 19  2  0
 22 21  1  0
 22 26  1  0
 22 23  1  1
 24 25  2  0
 24 23  1  0
 26 27  2  0
 26 29  1  0
 28 24  1  0
M  END
$$$$
