QFD.pdb
     RDKit          3D

 29 29  0  0  1  0  0  0  0  0999 V2000
   20.6272  -15.1273  -20.2216 N   0  0  0  0  0  0  0  0  0  0  0  0
   20.1864  -13.9837  -19.5301 C   0  0  0  0  0  0  0  0  0  0  0  0
   19.2150  -14.0657  -18.7534 O   0  0  0  0  0  0  0  0  0  0  0  0
   20.8624  -12.6881  -19.7147 C   0  0  0  0  0  0  0  0  0  0  0  0
   21.2662  -12.0647  -18.3910 C   0  0  0  0  0  0  0  0  0  0  0  0
   22.7819  -12.1337  -18.2993 C   0  0  2  0  0  0  0  0  0  0  0  0
   23.0752  -13.5403  -17.9997 N   0  0  0  0  0  0  0  0  0  0  0  0
   23.2917  -11.3295  -17.1657 C   0  0  0  0  0  0  0  0  0  0  0  0
   22.9619  -11.6241  -15.9940 O   0  0  0  0  0  0  0  0  0  0  0  0
   24.1574  -10.2089  -17.3159 N   0  0  0  0  0  0  0  0  0  0  0  0
   24.5238   -9.3458  -16.2258 C   0  0  1  0  0  0  0  0  0  0  0  0
   26.0332   -9.1629  -16.2319 C   0  0  0  0  0  0  0  0  0  0  0  0
   26.7517  -10.4554  -16.1713 C   0  0  0  0  0  0  0  0  0  0  0  0
   27.2323  -11.1225  -17.2727 C   0  0  0  0  0  0  0  0  0  0  0  0
   27.8999  -12.3210  -17.1939 C   0  0  0  0  0  0  0  0  0  0  0  0
   28.1222  -12.9210  -15.9815 C   0  0  0  0  0  0  0  0  0  0  0  0
   27.6486  -12.2721  -14.8492 C   0  0  0  0  0  0  0  0  0  0  0  0
   26.9803  -11.0690  -14.9457 C   0  0  0  0  0  0  0  0  0  0  0  0
   23.9073   -8.0097  -16.2710 C   0  0  0  0  0  0  0  0  0  0  0  0
   23.8927   -7.3773  -17.3491 O   0  0  0  0  0  0  0  0  0  0  0  0
   23.3272   -7.4208  -15.1264 N   0  0  0  0  0  0  0  0  0  0  0  0
   22.5428   -6.1589  -15.2180 C   0  0  1  0  0  0  0  0  0  0  0  0
   21.3734   -6.4088  -16.1514 C   0  0  0  0  0  0  0  0  0  0  0  0
   21.0400   -5.2505  -16.9553 C   0  0  0  0  0  0  0  0  0  0  0  0
   21.6605   -4.1675  -16.8348 O   0  0  0  0  0  0  0  0  0  0  0  0
   22.0757   -5.9133  -13.8448 C   0  0  0  0  0  0  0  0  0  0  0  0
   21.5928   -4.8119  -13.5207 O   0  0  0  0  0  0  0  0  0  0  0  0
   20.0185   -5.2415  -17.9149 O   0  0  0  0  0  0  0  0  0  0  0  0
   22.1427   -6.8766  -12.8480 O   0  0  0  0  0  0  0  0  0  0  0  0
  2  1  1  0
  2  3  2  0
  4  2  1  0
  5  4  1  0
  5  6  1  0
  6  7  1  1
  8  6  1  0
  8 10  1  0
  9  8  2  0
 11 10  1  0
 12 13  1  0
 11 12  1  6
 13 18  2  0
 14 13  1  0
 14 15  2  0
 15 16  1  0
 16 17  2  0
 18 17  1  0
 19 21  1  0
 19 11  1  0
 20 19  2  0
 22 21  1  0
 22 26  1  0
 22 23  1  6
 24 25  2  0
 24 23  1  0
 26 27  2  0
 26 29  1  0
 28 24  1  0
M  END
$$$$
