QFD.pdb
     RDKit          3D

 29 29  0  0  1  0  0  0  0  0999 V2000
   14.6906  -12.1795  -14.8207 N   0  0  0  0  0  0  0  0  0  0  0  0
   16.0463  -12.1006  -15.1896 C   0  0  0  0  0  0  0  0  0  0  0  0
   16.9219  -11.9868  -14.3098 O   0  0  0  0  0  0  0  0  0  0  0  0
   16.4424  -12.1513  -16.6074 C   0  0  0  0  0  0  0  0  0  0  0  0
   17.3735  -11.0113  -16.9779 C   0  0  0  0  0  0  0  0  0  0  0  0
   16.5071   -9.8179  -17.3465 C   0  0  2  0  0  0  0  0  0  0  0  0
   16.1172  -10.0551  -18.7415 N   0  0  0  0  0  0  0  0  0  0  0  0
   17.2831   -8.5575  -17.3174 C   0  0  0  0  0  0  0  0  0  0  0  0
   18.1258   -8.3231  -18.2137 O   0  0  0  0  0  0  0  0  0  0  0  0
   17.1362   -7.5602  -16.3116 N   0  0  0  0  0  0  0  0  0  0  0  0
   17.8956   -6.3394  -16.2970 C   0  0  1  0  0  0  0  0  0  0  0  0
   16.9616   -5.1854  -15.9690 C   0  0  0  0  0  0  0  0  0  0  0  0
   17.6517   -3.8772  -16.0212 C   0  0  0  0  0  0  0  0  0  0  0  0
   17.9747   -3.2221  -17.1855 C   0  0  0  0  0  0  0  0  0  0  0  0
   18.6136   -2.0057  -17.2115 C   0  0  0  0  0  0  0  0  0  0  0  0
   18.9668   -1.3745  -16.0470 C   0  0  0  0  0  0  0  0  0  0  0  0
   18.6544   -2.0109  -14.8533 C   0  0  0  0  0  0  0  0  0  0  0  0
   18.0126   -3.2321  -14.8447 C   0  0  0  0  0  0  0  0  0  0  0  0
   18.9987   -6.3179  -15.3223 C   0  0  0  0  0  0  0  0  0  0  0  0
   18.7553   -6.5372  -14.1159 O   0  0  0  0  0  0  0  0  0  0  0  0
   20.3301   -6.0580  -15.7136 N   0  0  0  0  0  0  0  0  0  0  0  0
   21.4604   -6.1981  -14.7550 C   0  0  1  0  0  0  0  0  0  0  0  0
   22.4662   -7.1566  -15.3638 C   0  0  0  0  0  0  0  0  0  0  0  0
   22.6281   -8.3682  -14.5861 C   0  0  0  0  0  0  0  0  0  0  0  0
   22.1185   -8.4897  -13.4469 O   0  0  0  0  0  0  0  0  0  0  0  0
   22.0241   -4.8434  -14.6474 C   0  0  0  0  0  0  0  0  0  0  0  0
   22.0188   -4.0691  -15.6230 O   0  0  0  0  0  0  0  0  0  0  0  0
   23.3519   -9.4831  -15.0306 O   0  0  0  0  0  0  0  0  0  0  0  0
   22.5831   -4.3564  -13.4743 O   0  0  0  0  0  0  0  0  0  0  0  0
  2  1  1  0
  2  3  2  0
  4  2  1  0
  5  4  1  0
  5  6  1  0
  6  7  1  6
  8  6  1  0
  8 10  1  0
  9  8  2  0
 11 10  1  0
 12 13  1  0
 11 12  1  1
 13 18  2  0
 14 13  1  0
 14 15  2  0
 15 16  1  0
 16 17  2  0
 18 17  1  0
 19 21  1  0
 19 11  1  0
 20 19  2  0
 22 21  1  0
 22 26  1  0
 22 23  1  6
 24 25  2  0
 24 23  1  0
 26 27  2  0
 26 29  1  0
 28 24  1  0
M  END
$$$$
