PWY.pdb
     RDKit          3D

 34 37  0  0  1  0  0  0  0  0999 V2000
   27.5629  -18.9984  -19.2011 N   0  0  0  0  0  0  0  0  0  0  0  0
   28.3890  -19.0462  -20.4107 C   0  0  0  0  0  0  0  0  0  0  0  0
   29.7632  -19.4714  -19.9794 C   0  0  0  0  0  0  0  0  0  0  0  0
   29.6184  -19.7088  -18.4820 C   0  0  0  0  0  0  0  0  0  0  0  0
   28.1298  -20.0821  -18.4256 C   0  0  1  0  0  0  0  0  0  0  0  0
   27.6387  -20.1248  -17.0473 C   0  0  0  0  0  0  0  0  0  0  0  0
   28.0657  -20.9679  -16.1864 O   0  0  0  0  0  0  0  0  0  0  0  0
   26.6508  -19.1917  -16.6585 N   0  0  0  0  0  0  0  0  0  0  0  0
   26.1945  -19.0360  -15.2632 C   0  0  1  0  0  0  0  0  0  0  0  0
   26.2730  -17.6090  -14.8872 C   0  0  0  0  0  0  0  0  0  0  0  0
   26.0207  -16.6020  -15.9158 C   0  0  0  0  0  0  0  0  0  0  0  0
   24.8172  -15.9961  -16.2643 C   0  0  0  0  0  0  0  0  0  0  0  0
   24.9994  -15.1267  -17.2639 N   0  0  0  0  0  0  0  0  0  0  0  0
   26.3094  -15.1306  -17.6022 C   0  0  0  0  0  0  0  0  0  0  0  0
   27.0182  -14.4113  -18.5538 C   0  0  0  0  0  0  0  0  0  0  0  0
   28.3771  -14.5887  -18.6936 C   0  0  0  0  0  0  0  0  0  0  0  0
   29.0180  -15.4915  -17.8732 C   0  0  0  0  0  0  0  0  0  0  0  0
   28.2967  -16.2109  -16.9191 C   0  0  0  0  0  0  0  0  0  0  0  0
   26.9531  -16.0262  -16.7905 C   0  0  0  0  0  0  0  0  0  0  0  0
   24.9736  -19.7704  -15.0987 C   0  0  0  0  0  0  0  0  0  0  0  0
   24.1825  -19.8868  -16.0967 O   0  0  0  0  0  0  0  0  0  0  0  0
   25.9232  -20.2140   -8.1096 O   0  0  0  0  0  0  0  0  0  0  0  0
   25.3868  -20.7332   -9.2602 C   0  0  0  0  0  0  0  0  0  0  0  0
   26.2211  -21.1689  -10.2751 C   0  0  0  0  0  0  0  0  0  0  0  0
   25.7314  -21.6982  -11.4502 C   0  0  0  0  0  0  0  0  0  0  0  0
   24.3463  -21.7806  -11.5825 C   0  0  0  0  0  0  0  0  0  0  0  0
   23.8041  -22.3322  -12.8254 C   0  0  0  0  0  0  0  0  0  0  0  0
   23.3879  -21.1911  -13.7619 C   0  0  2  0  0  0  0  0  0  0  0  0
   24.6125  -20.3805  -13.8736 N   0  0  0  0  0  0  0  0  0  0  0  0
   22.3108  -20.3924  -13.2036 C   0  0  0  0  0  0  0  0  0  0  0  0
   21.0031  -20.8545  -13.1765 O   0  0  0  0  0  0  0  0  0  0  0  0
   23.5043  -21.3520  -10.5834 C   0  0  0  0  0  0  0  0  0  0  0  0
   24.0052  -20.8249   -9.4137 C   0  0  0  0  0  0  0  0  0  0  0  0
   22.5063  -19.2481  -12.7197 O   0  0  0  0  0  0  0  0  0  0  0  0
  1  2  1  0
  3  2  1  0
  4  5  1  0
  4  3  1  0
  5  1  1  0
  5  6  1  1
  6  7  2  0
  8  6  1  0
  8  9  1  0
  9 20  1  0
  9 10  1  6
 11 10  1  0
 11 12  2  0
 13 12  1  0
 14 13  1  0
 15 14  2  0
 16 15  1  0
 17 16  2  0
 17 18  1  0
 18 19  2  0
 19 14  1  0
 19 11  1  0
 20 21  2  0
 22 23  1  0
 23 33  2  0
 23 24  1  0
 24 25  2  0
 25 26  1  0
 26 27  1  0
 28 27  1  1
 28 30  1  0
 29 28  1  0
 29 20  1  0
 30 31  1  0
 32 26  2  0
 33 32  1  0
 34 30  2  0
M  END
$$$$
