PWY.pdb
     RDKit          3D

 34 37  0  0  1  0  0  0  0  0999 V2000
   27.4108  -19.8996  -16.5528 N   0  0  0  0  0  0  0  0  0  0  0  0
   28.3358  -19.7059  -17.6730 C   0  0  0  0  0  0  0  0  0  0  0  0
   29.4655  -20.6750  -17.4736 C   0  0  0  0  0  0  0  0  0  0  0  0
   29.0701  -21.4431  -16.2193 C   0  0  0  0  0  0  0  0  0  0  0  0
   27.5422  -21.3224  -16.3173 C   0  0  1  0  0  0  0  0  0  0  0  0
   26.8884  -21.7670  -15.0854 C   0  0  0  0  0  0  0  0  0  0  0  0
   26.2175  -22.8526  -15.0111 O   0  0  0  0  0  0  0  0  0  0  0  0
   27.0078  -20.9570  -13.9333 N   0  0  0  0  0  0  0  0  0  0  0  0
   26.4435  -21.3333  -12.6220 C   0  0  1  0  0  0  0  0  0  0  0  0
   27.4107  -20.9799  -11.5621 C   0  0  0  0  0  0  0  0  0  0  0  0
   26.8995  -20.6494  -10.2336 C   0  0  0  0  0  0  0  0  0  0  0  0
   25.5777  -20.5502   -9.8092 C   0  0  0  0  0  0  0  0  0  0  0  0
   25.5220  -20.2197   -8.5147 N   0  0  0  0  0  0  0  0  0  0  0  0
   26.7862  -20.0923   -8.0498 C   0  0  0  0  0  0  0  0  0  0  0  0
   27.2787  -19.7815   -6.7903 C   0  0  0  0  0  0  0  0  0  0  0  0
   28.6366  -19.7293   -6.5651 C   0  0  0  0  0  0  0  0  0  0  0  0
   29.4949  -19.9903   -7.6110 C   0  0  0  0  0  0  0  0  0  0  0  0
   28.9905  -20.3015   -8.8746 C   0  0  0  0  0  0  0  0  0  0  0  0
   27.6453  -20.3504   -9.0845 C   0  0  0  0  0  0  0  0  0  0  0  0
   25.0875  -20.8700  -12.5599 C   0  0  0  0  0  0  0  0  0  0  0  0
   24.8544  -19.6196  -12.6917 O   0  0  0  0  0  0  0  0  0  0  0  0
   16.3415  -21.3057  -12.7653 O   0  0  0  0  0  0  0  0  0  0  0  0
   17.6785  -21.6099  -12.7269 C   0  0  0  0  0  0  0  0  0  0  0  0
   18.2607  -22.0120  -11.5373 C   0  0  0  0  0  0  0  0  0  0  0  0
   19.5996  -22.3286  -11.4467 C   0  0  0  0  0  0  0  0  0  0  0  0
   20.3575  -22.2281  -12.6121 C   0  0  0  0  0  0  0  0  0  0  0  0
   21.7831  -22.5519  -12.5373 C   0  0  0  0  0  0  0  0  0  0  0  0
   22.6060  -21.2598  -12.4615 C   0  0  2  0  0  0  0  0  0  0  0  0
   23.9929  -21.7462  -12.3662 N   0  0  0  0  0  0  0  0  0  0  0  0
   22.2735  -20.4693  -11.2891 C   0  0  0  0  0  0  0  0  0  0  0  0
   22.7076  -20.8317  -10.0223 O   0  0  0  0  0  0  0  0  0  0  0  0
   19.7937  -21.8301  -13.8015 C   0  0  0  0  0  0  0  0  0  0  0  0
   18.4550  -21.5164  -13.8798 C   0  0  0  0  0  0  0  0  0  0  0  0
   21.5793  -19.4231  -11.3609 O   0  0  0  0  0  0  0  0  0  0  0  0
  1  2  1  0
  3  2  1  0
  4  5  1  0
  4  3  1  0
  5  1  1  0
  5  6  1  1
  6  7  2  0
  8  6  1  0
  8  9  1  0
  9 20  1  0
  9 10  1  1
 11 10  1  0
 11 12  2  0
 13 12  1  0
 14 13  1  0
 15 14  2  0
 16 15  1  0
 17 16  2  0
 17 18  1  0
 18 19  2  0
 19 14  1  0
 19 11  1  0
 20 21  2  0
 22 23  1  0
 23 33  2  0
 23 24  1  0
 24 25  2  0
 25 26  1  0
 26 27  1  0
 28 27  1  1
 28 30  1  0
 29 28  1  0
 29 20  1  0
 30 31  1  0
 32 26  2  0
 33 32  1  0
 34 30  2  0
M  END
$$$$
