PWY.pdb
     RDKit          3D

 34 37  0  0  1  0  0  0  0  0999 V2000
   27.1468  -19.3539  -14.8022 N   0  0  0  0  0  0  0  0  0  0  0  0
   28.0895  -18.9345  -15.8431 C   0  0  0  0  0  0  0  0  0  0  0  0
   29.4358  -19.4703  -15.4486 C   0  0  0  0  0  0  0  0  0  0  0  0
   29.1574  -20.2518  -14.1714 C   0  0  0  0  0  0  0  0  0  0  0  0
   27.6934  -20.6406  -14.4242 C   0  0  1  0  0  0  0  0  0  0  0  0
   27.0719  -21.2020  -13.2236 C   0  0  0  0  0  0  0  0  0  0  0  0
   26.0917  -22.0212  -13.2705 O   0  0  0  0  0  0  0  0  0  0  0  0
   27.5821  -20.8179  -11.9627 N   0  0  0  0  0  0  0  0  0  0  0  0
   26.8695  -21.0704  -10.6946 C   0  0  1  0  0  0  0  0  0  0  0  0
   27.8084  -20.8827   -9.5690 C   0  0  0  0  0  0  0  0  0  0  0  0
   27.2608  -20.7190   -8.2241 C   0  0  0  0  0  0  0  0  0  0  0  0
   25.9889  -21.0373   -7.7572 C   0  0  0  0  0  0  0  0  0  0  0  0
   25.8723  -20.7306   -6.4609 N   0  0  0  0  0  0  0  0  0  0  0  0
   27.0459  -20.2081   -6.0366 C   0  0  0  0  0  0  0  0  0  0  0  0
   27.4546  -19.7480   -4.7929 C   0  0  0  0  0  0  0  0  0  0  0  0
   28.7334  -19.2693   -4.6113 C   0  0  0  0  0  0  0  0  0  0  0  0
   29.5973  -19.2555   -5.6848 C   0  0  0  0  0  0  0  0  0  0  0  0
   29.1773  -19.7199   -6.9322 C   0  0  0  0  0  0  0  0  0  0  0  0
   27.9099  -20.1912   -7.0989 C   0  0  0  0  0  0  0  0  0  0  0  0
   25.6179  -20.3708  -10.7285 C   0  0  0  0  0  0  0  0  0  0  0  0
   25.6243  -19.0921  -10.7464 O   0  0  0  0  0  0  0  0  0  0  0  0
   18.4261  -18.2866  -14.7427 O   0  0  0  0  0  0  0  0  0  0  0  0
   19.5809  -18.8264  -14.2363 C   0  0  0  0  0  0  0  0  0  0  0  0
   19.6523  -20.1844  -13.9779 C   0  0  0  0  0  0  0  0  0  0  0  0
   20.7896  -20.7749  -13.4691 C   0  0  0  0  0  0  0  0  0  0  0  0
   21.8810  -19.9444  -13.2203 C   0  0  0  0  0  0  0  0  0  0  0  0
   23.0965  -20.5489  -12.6726 C   0  0  0  0  0  0  0  0  0  0  0  0
   23.1404  -20.3418  -11.1535 C   0  0  2  0  0  0  0  0  0  0  0  0
   24.3720  -21.0422  -10.7514 N   0  0  0  0  0  0  0  0  0  0  0  0
   21.9917  -20.9325  -10.4889 C   0  0  0  0  0  0  0  0  0  0  0  0
   21.9841  -22.2637  -10.0987 O   0  0  0  0  0  0  0  0  0  0  0  0
   21.8255  -18.5936  -13.4717 C   0  0  0  0  0  0  0  0  0  0  0  0
   20.6838  -18.0149  -13.9801 C   0  0  0  0  0  0  0  0  0  0  0  0
   20.9516  -20.2726  -10.2352 O   0  0  0  0  0  0  0  0  0  0  0  0
  1  2  1  0
  3  2  1  0
  4  5  1  0
  4  3  1  0
  5  1  1  0
  5  6  1  1
  6  7  2  0
  8  6  1  0
  8  9  1  0
  9 20  1  0
  9 10  1  1
 11 10  1  0
 11 12  2  0
 13 12  1  0
 14 13  1  0
 15 14  2  0
 16 15  1  0
 17 16  2  0
 17 18  1  0
 18 19  2  0
 19 14  1  0
 19 11  1  0
 20 21  2  0
 22 23  1  0
 23 33  2  0
 23 24  1  0
 24 25  2  0
 25 26  1  0
 26 27  1  0
 28 27  1  6
 28 30  1  0
 29 28  1  0
 29 20  1  0
 30 31  1  0
 32 26  2  0
 33 32  1  0
 34 30  2  0
M  END
$$$$
