PWY.pdb
     RDKit          3D

 34 37  0  0  1  0  0  0  0  0999 V2000
   28.5238  -20.0654  -15.2475 N   0  0  0  0  0  0  0  0  0  0  0  0
   29.4782  -20.2626  -16.3421 C   0  0  0  0  0  0  0  0  0  0  0  0
   29.9273  -21.6939  -16.2716 C   0  0  0  0  0  0  0  0  0  0  0  0
   29.1187  -22.2736  -15.1185 C   0  0  0  0  0  0  0  0  0  0  0  0
   27.8839  -21.3632  -15.1897 C   0  0  1  0  0  0  0  0  0  0  0  0
   27.0242  -21.5318  -14.0171 C   0  0  0  0  0  0  0  0  0  0  0  0
   25.9209  -22.1765  -14.0550 O   0  0  0  0  0  0  0  0  0  0  0  0
   27.4371  -20.9549  -12.7946 N   0  0  0  0  0  0  0  0  0  0  0  0
   26.6987  -21.1346  -11.5290 C   0  0  1  0  0  0  0  0  0  0  0  0
   27.6318  -20.9551  -10.3973 C   0  0  0  0  0  0  0  0  0  0  0  0
   27.0764  -20.7638   -9.0592 C   0  0  0  0  0  0  0  0  0  0  0  0
   25.7468  -20.8219   -8.6519 C   0  0  0  0  0  0  0  0  0  0  0  0
   25.6451  -20.5839   -7.3400 N   0  0  0  0  0  0  0  0  0  0  0  0
   26.8856  -20.3647   -6.8463 C   0  0  0  0  0  0  0  0  0  0  0  0
   27.3317  -20.0907   -5.5613 C   0  0  0  0  0  0  0  0  0  0  0  0
   28.6754  -19.9212   -5.3101 C   0  0  0  0  0  0  0  0  0  0  0  0
   29.5664  -20.0282   -6.3558 C   0  0  0  0  0  0  0  0  0  0  0  0
   29.1084  -20.3037   -7.6452 C   0  0  0  0  0  0  0  0  0  0  0  0
   27.7769  -20.4694   -7.8807 C   0  0  0  0  0  0  0  0  0  0  0  0
   25.4812  -20.3797  -11.6010 C   0  0  0  0  0  0  0  0  0  0  0  0
   25.5480  -19.1084  -11.7224 O   0  0  0  0  0  0  0  0  0  0  0  0
   18.3835  -17.4073  -15.0451 O   0  0  0  0  0  0  0  0  0  0  0  0
   19.5202  -18.0511  -14.6269 C   0  0  0  0  0  0  0  0  0  0  0  0
   20.5825  -17.3193  -14.1250 C   0  0  0  0  0  0  0  0  0  0  0  0
   21.7461  -17.9189  -13.6920 C   0  0  0  0  0  0  0  0  0  0  0  0
   21.8164  -19.3083  -13.7786 C   0  0  0  0  0  0  0  0  0  0  0  0
   23.0457  -19.9655  -13.3317 C   0  0  0  0  0  0  0  0  0  0  0  0
   22.9824  -20.2123  -11.8192 C   0  0  2  0  0  0  0  0  0  0  0  0
   24.2047  -20.9891  -11.5511 N   0  0  0  0  0  0  0  0  0  0  0  0
   21.8100  -20.9816  -11.4405 C   0  0  0  0  0  0  0  0  0  0  0  0
   21.7090  -22.3364  -11.7210 O   0  0  0  0  0  0  0  0  0  0  0  0
   20.7696  -20.0492  -14.2749 C   0  0  0  0  0  0  0  0  0  0  0  0
   19.6120  -19.4390  -14.7044 C   0  0  0  0  0  0  0  0  0  0  0  0
   20.8322  -20.4629  -10.8433 O   0  0  0  0  0  0  0  0  0  0  0  0
  1  2  1  0
  3  2  1  0
  4  5  1  0
  4  3  1  0
  5  1  1  0
  5  6  1  1
  6  7  2  0
  8  6  1  0
  8  9  1  0
  9 20  1  0
  9 10  1  1
 11 10  1  0
 11 12  2  0
 13 12  1  0
 14 13  1  0
 15 14  2  0
 16 15  1  0
 17 16  2  0
 17 18  1  0
 18 19  2  0
 19 14  1  0
 19 11  1  0
 20 21  2  0
 22 23  1  0
 23 33  2  0
 23 24  1  0
 24 25  2  0
 25 26  1  0
 26 27  1  0
 28 27  1  6
 28 30  1  0
 29 28  1  0
 29 20  1  0
 30 31  1  0
 32 26  2  0
 33 32  1  0
 34 30  2  0
M  END
$$$$
