PWY.pdb
     RDKit          3D

 34 37  0  0  1  0  0  0  0  0999 V2000
   30.8362  -22.2846  -10.9981 N   0  0  0  0  0  0  0  0  0  0  0  0
   31.9160  -22.8086  -10.1569 C   0  0  0  0  0  0  0  0  0  0  0  0
   31.8642  -22.0480   -8.8631 C   0  0  0  0  0  0  0  0  0  0  0  0
   30.6614  -21.1285   -9.0284 C   0  0  0  0  0  0  0  0  0  0  0  0
   29.8288  -21.9707  -10.0061 C   0  0  1  0  0  0  0  0  0  0  0  0
   28.7028  -21.2081  -10.5476 C   0  0  0  0  0  0  0  0  0  0  0  0
   27.7963  -20.6933   -9.8078 O   0  0  0  0  0  0  0  0  0  0  0  0
   28.6204  -21.0376  -11.9483 N   0  0  0  0  0  0  0  0  0  0  0  0
   27.6739  -20.1053  -12.5920 C   0  0  1  0  0  0  0  0  0  0  0  0
   28.2551  -19.6320  -13.8655 C   0  0  0  0  0  0  0  0  0  0  0  0
   27.4984  -18.6680  -14.6617 C   0  0  0  0  0  0  0  0  0  0  0  0
   27.3304  -17.3031  -14.4475 C   0  0  0  0  0  0  0  0  0  0  0  0
   26.5594  -16.7681  -15.4000 N   0  0  0  0  0  0  0  0  0  0  0  0
   26.1992  -17.7478  -16.2609 C   0  0  0  0  0  0  0  0  0  0  0  0
   25.4272  -17.7247  -17.4137 C   0  0  0  0  0  0  0  0  0  0  0  0
   25.2181  -18.8781  -18.1370 C   0  0  0  0  0  0  0  0  0  0  0  0
   25.7878  -20.0526  -17.6958 C   0  0  0  0  0  0  0  0  0  0  0  0
   26.5625  -20.0664  -16.5348 C   0  0  0  0  0  0  0  0  0  0  0  0
   26.7622  -18.9188  -15.8284 C   0  0  0  0  0  0  0  0  0  0  0  0
   26.3644  -20.6896  -12.5571 C   0  0  0  0  0  0  0  0  0  0  0  0
   26.2409  -21.9439  -12.7730 O   0  0  0  0  0  0  0  0  0  0  0  0
   17.9310  -21.7535  -10.5988 O   0  0  0  0  0  0  0  0  0  0  0  0
   19.1998  -21.2575  -10.7588 C   0  0  0  0  0  0  0  0  0  0  0  0
   20.2042  -21.6371   -9.8853 C   0  0  0  0  0  0  0  0  0  0  0  0
   21.4949  -21.1670  -10.0036 C   0  0  0  0  0  0  0  0  0  0  0  0
   21.7569  -20.2831  -11.0490 C   0  0  0  0  0  0  0  0  0  0  0  0
   23.1189  -19.7651  -11.1889 C   0  0  0  0  0  0  0  0  0  0  0  0
   23.8713  -20.5650  -12.2596 C   0  0  2  0  0  0  0  0  0  0  0  0
   25.2007  -19.9315  -12.2841 N   0  0  0  0  0  0  0  0  0  0  0  0
   23.2431  -20.4554  -13.5646 C   0  0  0  0  0  0  0  0  0  0  0  0
   23.3360  -19.2956  -14.3199 O   0  0  0  0  0  0  0  0  0  0  0  0
   20.7698  -19.8964  -11.9249 C   0  0  0  0  0  0  0  0  0  0  0  0
   19.4839  -20.3728  -11.7967 C   0  0  0  0  0  0  0  0  0  0  0  0
   22.5863  -21.3994  -14.0736 O   0  0  0  0  0  0  0  0  0  0  0  0
  1  2  1  0
  3  2  1  0
  4  5  1  0
  4  3  1  0
  5  1  1  0
  5  6  1  6
  6  7  2  0
  8  6  1  0
  8  9  1  0
  9 20  1  0
  9 10  1  6
 11 10  1  0
 11 12  2  0
 13 12  1  0
 14 13  1  0
 15 14  2  0
 16 15  1  0
 17 16  2  0
 17 18  1  0
 18 19  2  0
 19 14  1  0
 19 11  1  0
 20 21  2  0
 22 23  1  0
 23 33  2  0
 23 24  1  0
 24 25  2  0
 25 26  1  0
 26 27  1  0
 28 27  1  1
 28 30  1  0
 29 28  1  0
 29 20  1  0
 30 31  1  0
 32 26  2  0
 33 32  1  0
 34 30  2  0
M  END
$$$$
