PWY.pdb
     RDKit          3D

 34 37  0  0  1  0  0  0  0  0999 V2000
   21.7104  -30.1117  -16.8768 N   0  0  0  0  0  0  0  0  0  0  0  0
   22.3987  -30.6614  -18.0482 C   0  0  0  0  0  0  0  0  0  0  0  0
   23.7819  -30.0767  -18.0509 C   0  0  0  0  0  0  0  0  0  0  0  0
   23.8225  -29.2300  -16.7856 C   0  0  0  0  0  0  0  0  0  0  0  0
   22.8021  -29.9974  -15.9322 C   0  0  1  0  0  0  0  0  0  0  0  0
   22.4448  -29.2529  -14.7236 C   0  0  0  0  0  0  0  0  0  0  0  0
   23.3103  -28.8779  -13.8608 O   0  0  0  0  0  0  0  0  0  0  0  0
   21.0838  -28.9388  -14.5076 N   0  0  0  0  0  0  0  0  0  0  0  0
   20.6198  -28.0932  -13.3899 C   0  0  1  0  0  0  0  0  0  0  0  0
   19.8523  -26.9538  -13.9344 C   0  0  0  0  0  0  0  0  0  0  0  0
   19.2349  -26.0176  -12.9974 C   0  0  0  0  0  0  0  0  0  0  0  0
   19.8498  -25.1793  -12.0720 C   0  0  0  0  0  0  0  0  0  0  0  0
   18.9368  -24.4764  -11.3934 N   0  0  0  0  0  0  0  0  0  0  0  0
   17.7084  -24.8226  -11.8425 C   0  0  0  0  0  0  0  0  0  0  0  0
   16.4400  -24.3851  -11.4886 C   0  0  0  0  0  0  0  0  0  0  0  0
   15.3254  -24.8918  -12.1197 C   0  0  0  0  0  0  0  0  0  0  0  0
   15.4926  -25.8392  -13.1063 C   0  0  0  0  0  0  0  0  0  0  0  0
   16.7723  -26.2736  -13.4553 C   0  0  0  0  0  0  0  0  0  0  0  0
   17.8668  -25.7644  -12.8239 C   0  0  0  0  0  0  0  0  0  0  0  0
   20.0543  -28.9418  -12.3813 C   0  0  0  0  0  0  0  0  0  0  0  0
   19.4849  -30.0303  -12.7367 O   0  0  0  0  0  0  0  0  0  0  0  0
   25.0757  -32.6400  -10.4511 O   0  0  0  0  0  0  0  0  0  0  0  0
   24.0165  -31.8590  -10.0644 C   0  0  0  0  0  0  0  0  0  0  0  0
   22.7243  -32.3409  -10.1833 C   0  0  0  0  0  0  0  0  0  0  0  0
   21.6267  -31.5953   -9.8088 C   0  0  0  0  0  0  0  0  0  0  0  0
   21.8671  -30.3206   -9.2989 C   0  0  0  0  0  0  0  0  0  0  0  0
   20.7157  -29.5083   -8.9022 C   0  0  0  0  0  0  0  0  0  0  0  0
   19.6328  -29.5781   -9.9861 C   0  0  2  0  0  0  0  0  0  0  0  0
   20.1090  -28.6249  -11.0029 N   0  0  0  0  0  0  0  0  0  0  0  0
   18.3330  -29.1651   -9.4861 C   0  0  0  0  0  0  0  0  0  0  0  0
   17.5535  -30.0080   -8.7075 O   0  0  0  0  0  0  0  0  0  0  0  0
   23.1449  -29.8278   -9.1747 C   0  0  0  0  0  0  0  0  0  0  0  0
   24.2337  -30.5819   -9.5521 C   0  0  0  0  0  0  0  0  0  0  0  0
   17.8500  -28.0302   -9.7319 O   0  0  0  0  0  0  0  0  0  0  0  0
  1  2  1  0
  3  2  1  0
  4  5  1  0
  4  3  1  0
  5  1  1  0
  5  6  1  1
  6  7  2  0
  8  6  1  0
  8  9  1  0
  9 20  1  0
  9 10  1  6
 11 10  1  0
 11 12  2  0
 13 12  1  0
 14 13  1  0
 15 14  2  0
 16 15  1  0
 17 16  2  0
 17 18  1  0
 18 19  2  0
 19 14  1  0
 19 11  1  0
 20 21  2  0
 22 23  1  0
 23 33  2  0
 23 24  1  0
 24 25  2  0
 25 26  1  0
 26 27  1  0
 28 27  1  1
 28 30  1  0
 29 28  1  0
 29 20  1  0
 30 31  1  0
 32 26  2  0
 33 32  1  0
 34 30  2  0
M  END
$$$$
