PWY.pdb
     RDKit          3D

 34 37  0  0  1  0  0  0  0  0999 V2000
   22.0543  -10.8819  -19.8930 N   0  0  0  0  0  0  0  0  0  0  0  0
   22.4499  -11.7104  -21.0355 C   0  0  0  0  0  0  0  0  0  0  0  0
   23.2506  -12.8546  -20.4833 C   0  0  0  0  0  0  0  0  0  0  0  0
   23.2144  -12.6319  -18.9771 C   0  0  0  0  0  0  0  0  0  0  0  0
   21.8783  -11.8835  -18.8619 C   0  0  1  0  0  0  0  0  0  0  0  0
   21.6963  -11.3121  -17.5266 C   0  0  0  0  0  0  0  0  0  0  0  0
   21.5155  -12.0311  -16.4852 O   0  0  0  0  0  0  0  0  0  0  0  0
   21.7225   -9.9056  -17.3901 N   0  0  0  0  0  0  0  0  0  0  0  0
   21.6142   -9.2206  -16.0868 C   0  0  1  0  0  0  0  0  0  0  0  0
   22.4306   -7.9894  -16.1205 C   0  0  0  0  0  0  0  0  0  0  0  0
   22.2854   -7.0263  -15.0309 C   0  0  0  0  0  0  0  0  0  0  0  0
   22.4471   -7.2281  -13.6634 C   0  0  0  0  0  0  0  0  0  0  0  0
   22.2203   -6.0954  -12.9899 N   0  0  0  0  0  0  0  0  0  0  0  0
   21.9067   -5.1239  -13.8778 C   0  0  0  0  0  0  0  0  0  0  0  0
   21.6015   -3.7812  -13.7063 C   0  0  0  0  0  0  0  0  0  0  0  0
   21.3291   -2.9826  -14.7951 C   0  0  0  0  0  0  0  0  0  0  0  0
   21.3647   -3.5403  -16.0547 C   0  0  0  0  0  0  0  0  0  0  0  0
   21.6722   -4.8919  -16.2176 C   0  0  0  0  0  0  0  0  0  0  0  0
   21.9401   -5.6712  -15.1327 C   0  0  0  0  0  0  0  0  0  0  0  0
   20.2306   -9.1717  -15.7117 C   0  0  0  0  0  0  0  0  0  0  0  0
   19.3444   -9.0729  -16.6283 O   0  0  0  0  0  0  0  0  0  0  0  0
   12.8048  -10.4751  -11.4663 O   0  0  0  0  0  0  0  0  0  0  0  0
   14.1274  -10.4046  -11.8228 C   0  0  0  0  0  0  0  0  0  0  0  0
   14.5529  -10.9731  -13.0109 C   0  0  0  0  0  0  0  0  0  0  0  0
   15.8708  -10.9292  -13.4139 C   0  0  0  0  0  0  0  0  0  0  0  0
   16.7728  -10.2827  -12.5708 C   0  0  0  0  0  0  0  0  0  0  0  0
   18.1788  -10.2309  -12.9751 C   0  0  0  0  0  0  0  0  0  0  0  0
   18.3809   -9.1172  -14.0101 C   0  0  2  0  0  0  0  0  0  0  0  0
   19.8058   -9.2370  -14.3631 N   0  0  0  0  0  0  0  0  0  0  0  0
   18.1139   -7.8017  -13.4552 C   0  0  0  0  0  0  0  0  0  0  0  0
   19.0588   -7.1295  -12.6938 O   0  0  0  0  0  0  0  0  0  0  0  0
   16.3656   -9.7131  -11.3873 C   0  0  0  0  0  0  0  0  0  0  0  0
   15.0463   -9.7633  -10.9951 C   0  0  0  0  0  0  0  0  0  0  0  0
   17.0197   -7.2082  -13.6344 O   0  0  0  0  0  0  0  0  0  0  0  0
  1  2  1  0
  3  2  1  0
  4  5  1  0
  4  3  1  0
  5  1  1  0
  5  6  1  1
  6  7  2  0
  8  6  1  0
  8  9  1  0
  9 20  1  0
  9 10  1  6
 11 10  1  0
 11 12  2  0
 13 12  1  0
 14 13  1  0
 15 14  2  0
 16 15  1  0
 17 16  2  0
 17 18  1  0
 18 19  2  0
 19 14  1  0
 19 11  1  0
 20 21  2  0
 22 23  1  0
 23 33  2  0
 23 24  1  0
 24 25  2  0
 25 26  1  0
 26 27  1  0
 28 27  1  1
 28 30  1  0
 29 28  1  0
 29 20  1  0
 30 31  1  0
 32 26  2  0
 33 32  1  0
 34 30  2  0
M  END
$$$$
