EAA.pdb
     RDKit          3D

 20 19  0  0  1  0  0  0  0  0999 V2000
    8.0377  -18.0922   20.5772 N   0  0  0  0  0  0  0  0  0  0  0  0
    9.0810  -17.8522   21.5610 C   0  0  1  0  0  0  0  0  0  0  0  0
   10.1706  -16.9848   21.0457 C   0  0  0  0  0  0  0  0  0  0  0  0
   10.8862  -17.6003   19.8762 C   0  0  0  0  0  0  0  0  0  0  0  0
   12.3427  -17.5456   19.9634 C   0  0  0  0  0  0  0  0  0  0  0  0
   12.9778  -17.0658   20.9216 O   0  0  0  0  0  0  0  0  0  0  0  0
    8.4118  -17.1865   22.7332 C   0  0  0  0  0  0  0  0  0  0  0  0
    7.7717  -16.1101   22.6249 O   0  0  0  0  0  0  0  0  0  0  0  0
   13.0653  -18.0757   18.8815 O   0  0  0  0  0  0  0  0  0  0  0  0
    7.5871  -18.1737   26.2474 C   0  0  0  0  0  0  0  0  0  0  0  0
    7.8081  -17.1502   25.1533 C   0  0  2  0  0  0  0  0  0  0  0  0
    8.4817  -17.7637   24.0305 N   0  0  0  0  0  0  0  0  0  0  0  0
    8.5276  -15.9472   25.6377 C   0  0  0  0  0  0  0  0  0  0  0  0
    9.7848  -15.7922   25.4924 O   0  0  0  0  0  0  0  0  0  0  0  0
    7.5765  -12.5889   27.1102 C   0  0  0  0  0  0  0  0  0  0  0  0
    8.5306  -13.7235   26.8114 C   0  0  2  0  0  0  0  0  0  0  0  0
    7.8537  -14.8862   26.2983 N   0  0  0  0  0  0  0  0  0  0  0  0
    9.2149  -14.1011   28.0706 C   0  0  0  0  0  0  0  0  0  0  0  0
   10.1001  -13.2249   28.6781 O   0  0  0  0  0  0  0  0  0  0  0  0
    9.0347  -15.2083   28.6420 O   0  0  0  0  0  0  0  0  0  0  0  0
  2  1  1  6
  3  2  1  0
  4  5  1  0
  4  3  1  0
  5  6  2  0
  7  2  1  0
  8  7  2  0
  9  5  1  0
 11 10  1  1
 11 13  1  0
 11 12  1  0
 12  7  1  0
 13 17  1  0
 14 13  2  0
 16 18  1  0
 16 15  1  1
 17 16  1  0
 18 20  2  0
 18 19  1  0
M  END
$$$$
