EAA.pdb
     RDKit          3D

 20 19  0  0  1  0  0  0  0  0999 V2000
    9.3447  -18.5086   21.0407 N   0  0  0  0  0  0  0  0  0  0  0  0
   10.5270  -18.0562   21.7557 C   0  0  1  0  0  0  0  0  0  0  0  0
   11.6644  -17.7481   20.8520 C   0  0  0  0  0  0  0  0  0  0  0  0
   11.3999  -18.1736   19.4351 C   0  0  0  0  0  0  0  0  0  0  0  0
   12.5828  -18.6317   18.7120 C   0  0  0  0  0  0  0  0  0  0  0  0
   13.0608  -19.7793   18.7901 O   0  0  0  0  0  0  0  0  0  0  0  0
   10.1201  -16.8148   22.5030 C   0  0  0  0  0  0  0  0  0  0  0  0
   10.9336  -16.1345   23.1780 O   0  0  0  0  0  0  0  0  0  0  0  0
   13.2159  -17.7001   17.8724 O   0  0  0  0  0  0  0  0  0  0  0  0
    7.3081  -14.4343   22.6448 C   0  0  0  0  0  0  0  0  0  0  0  0
    8.3263  -15.3038   23.3526 C   0  0  2  0  0  0  0  0  0  0  0  0
    8.7739  -16.3590   22.4710 N   0  0  0  0  0  0  0  0  0  0  0  0
    7.8198  -15.8386   24.6398 C   0  0  0  0  0  0  0  0  0  0  0  0
    6.7589  -15.4024   25.1965 O   0  0  0  0  0  0  0  0  0  0  0  0
    7.1720  -18.6892   26.3312 C   0  0  0  0  0  0  0  0  0  0  0  0
    8.0013  -17.4464   26.5646 C   0  0  2  0  0  0  0  0  0  0  0  0
    8.4919  -16.8779   25.3359 N   0  0  0  0  0  0  0  0  0  0  0  0
    9.1654  -17.8137   27.4050 C   0  0  0  0  0  0  0  0  0  0  0  0
   10.4555  -17.6559   26.9241 O   0  0  0  0  0  0  0  0  0  0  0  0
    9.0497  -18.2766   28.5699 O   0  0  0  0  0  0  0  0  0  0  0  0
  2  1  1  6
  3  2  1  0
  4  5  1  0
  4  3  1  0
  5  6  2  0
  7  2  1  0
  8  7  2  0
  9  5  1  0
 11 10  1  6
 11 13  1  0
 11 12  1  0
 12  7  1  0
 13 17  1  0
 14 13  2  0
 16 18  1  0
 16 15  1  6
 17 16  1  0
 18 20  2  0
 18 19  1  0
M  END
$$$$
