EAA.pdb
     RDKit          3D

 20 19  0  0  1  0  0  0  0  0999 V2000
    7.3739  -17.3035   17.9742 N   0  0  0  0  0  0  0  0  0  0  0  0
    8.7675  -17.0444   17.6512 C   0  0  1  0  0  0  0  0  0  0  0  0
    9.0344  -17.0663   16.1906 C   0  0  0  0  0  0  0  0  0  0  0  0
   10.4845  -16.8340   15.8712 C   0  0  0  0  0  0  0  0  0  0  0  0
   10.7945  -16.8275   14.4444 C   0  0  0  0  0  0  0  0  0  0  0  0
   10.3370  -16.0098   13.6235 O   0  0  0  0  0  0  0  0  0  0  0  0
    9.0839  -15.6817   18.2060 C   0  0  0  0  0  0  0  0  0  0  0  0
   10.2501  -15.2128   18.2240 O   0  0  0  0  0  0  0  0  0  0  0  0
   11.6726  -17.8206   13.9794 O   0  0  0  0  0  0  0  0  0  0  0  0
    7.1304  -12.7097   19.3771 C   0  0  0  0  0  0  0  0  0  0  0  0
    8.3626  -13.5900   19.3582 C   0  0  2  0  0  0  0  0  0  0  0  0
    8.0538  -14.8602   18.7400 N   0  0  0  0  0  0  0  0  0  0  0  0
    8.9580  -13.7628   20.7054 C   0  0  0  0  0  0  0  0  0  0  0  0
    9.3514  -12.7795   21.4153 O   0  0  0  0  0  0  0  0  0  0  0  0
    8.9241  -16.0988   23.4961 C   0  0  0  0  0  0  0  0  0  0  0  0
    9.7622  -15.2491   22.5674 C   0  0  2  0  0  0  0  0  0  0  0  0
    9.1274  -15.0453   21.2911 N   0  0  0  0  0  0  0  0  0  0  0  0
   11.0530  -15.9409   22.3401 C   0  0  0  0  0  0  0  0  0  0  0  0
   11.9563  -16.1000   23.3789 O   0  0  0  0  0  0  0  0  0  0  0  0
   11.3908  -16.4091   21.2214 O   0  0  0  0  0  0  0  0  0  0  0  0
  2  1  1  6
  3  2  1  0
  4  5  1  0
  4  3  1  0
  5  6  2  0
  7  2  1  0
  8  7  2  0
  9  5  1  0
 11 10  1  1
 11 13  1  0
 11 12  1  0
 12  7  1  0
 13 17  1  0
 14 13  2  0
 16 18  1  0
 16 15  1  1
 17 16  1  0
 18 20  2  0
 18 19  1  0
M  END
$$$$
