EAA.pdb
     RDKit          3D

 20 19  0  0  1  0  0  0  0  0999 V2000
    8.7214  -16.4342   20.3126 N   0  0  0  0  0  0  0  0  0  0  0  0
    9.6264  -16.9495   21.3271 C   0  0  1  0  0  0  0  0  0  0  0  0
   11.0373  -16.5462   21.0995 C   0  0  0  0  0  0  0  0  0  0  0  0
   11.7253  -17.4198   20.0886 C   0  0  0  0  0  0  0  0  0  0  0  0
   12.7266  -18.3209   20.6518 C   0  0  0  0  0  0  0  0  0  0  0  0
   12.7940  -19.5421   20.4153 O   0  0  0  0  0  0  0  0  0  0  0  0
    9.1453  -16.3982   22.6423 C   0  0  0  0  0  0  0  0  0  0  0  0
    8.9577  -15.1699   22.8328 O   0  0  0  0  0  0  0  0  0  0  0  0
   13.6746  -17.7555   21.5208 O   0  0  0  0  0  0  0  0  0  0  0  0
    7.5731  -17.8692   25.6889 C   0  0  0  0  0  0  0  0  0  0  0  0
    8.3028  -16.7587   24.9624 C   0  0  2  0  0  0  0  0  0  0  0  0
    8.8808  -17.2651   23.7375 N   0  0  0  0  0  0  0  0  0  0  0  0
    9.3160  -16.0917   25.8156 C   0  0  0  0  0  0  0  0  0  0  0  0
   10.5419  -16.4418   25.8299 O   0  0  0  0  0  0  0  0  0  0  0  0
    9.4681  -13.0636   28.0802 C   0  0  0  0  0  0  0  0  0  0  0  0
    9.9085  -14.4312   27.6086 C   0  0  2  0  0  0  0  0  0  0  0  0
    8.9787  -15.0133   26.6757 N   0  0  0  0  0  0  0  0  0  0  0  0
   10.0038  -15.3230   28.7885 C   0  0  0  0  0  0  0  0  0  0  0  0
   10.9834  -15.1165   29.7467 O   0  0  0  0  0  0  0  0  0  0  0  0
    9.2218  -16.2907   28.9799 O   0  0  0  0  0  0  0  0  0  0  0  0
  2  1  1  6
  3  2  1  0
  4  5  1  0
  4  3  1  0
  5  6  2  0
  7  2  1  0
  8  7  2  0
  9  5  1  0
 11 10  1  1
 11 13  1  0
 11 12  1  0
 12  7  1  0
 13 17  1  0
 14 13  2  0
 16 18  1  0
 16 15  1  1
 17 16  1  0
 18 20  2  0
 18 19  1  0
M  END
$$$$
