EAA.pdb
     RDKit          3D

 20 19  0  0  1  0  0  0  0  0999 V2000
    6.4418  -17.3237   17.9618 N   0  0  0  0  0  0  0  0  0  0  0  0
    7.6508  -18.0268   18.3587 C   0  0  1  0  0  0  0  0  0  0  0  0
    8.5365  -18.3441   17.2098 C   0  0  0  0  0  0  0  0  0  0  0  0
    7.8069  -18.3002   15.8966 C   0  0  0  0  0  0  0  0  0  0  0  0
    7.8724  -19.5400   15.1283 C   0  0  0  0  0  0  0  0  0  0  0  0
    8.4416  -20.5805   15.5092 O   0  0  0  0  0  0  0  0  0  0  0  0
    8.3705  -17.1207   19.3210 C   0  0  0  0  0  0  0  0  0  0  0  0
    9.6231  -17.1013   19.4238 O   0  0  0  0  0  0  0  0  0  0  0  0
    7.2441  -19.5440   13.8718 O   0  0  0  0  0  0  0  0  0  0  0  0
    7.3620  -14.3874   21.7084 C   0  0  0  0  0  0  0  0  0  0  0  0
    8.3258  -15.4009   21.1273 C   0  0  2  0  0  0  0  0  0  0  0  0
    7.6437  -16.2369   20.1647 N   0  0  0  0  0  0  0  0  0  0  0  0
    9.0037  -16.2047   22.1732 C   0  0  0  0  0  0  0  0  0  0  0  0
    8.4517  -17.2060   22.7374 O   0  0  0  0  0  0  0  0  0  0  0  0
   12.4986  -16.3871   23.6304 C   0  0  0  0  0  0  0  0  0  0  0  0
   11.0170  -16.6884   23.5999 C   0  0  2  0  0  0  0  0  0  0  0  0
   10.3201  -15.9047   22.6132 N   0  0  0  0  0  0  0  0  0  0  0  0
   10.4492  -16.3718   24.9317 C   0  0  0  0  0  0  0  0  0  0  0  0
   10.8266  -17.1026   26.0470 O   0  0  0  0  0  0  0  0  0  0  0  0
    9.6157  -15.4471   25.1180 O   0  0  0  0  0  0  0  0  0  0  0  0
  2  1  1  6
  3  2  1  0
  4  5  1  0
  4  3  1  0
  5  6  2  0
  7  2  1  0
  8  7  2  0
  9  5  1  0
 11 10  1  1
 11 13  1  0
 11 12  1  0
 12  7  1  0
 13 17  1  0
 14 13  2  0
 16 18  1  0
 16 15  1  1
 17 16  1  0
 18 20  2  0
 18 19  1  0
M  END
$$$$
