EAA.pdb
     RDKit          3D

 20 19  0  0  1  0  0  0  0  0999 V2000
    8.2843  -17.4336   17.9916 N   0  0  0  0  0  0  0  0  0  0  0  0
    8.3715  -17.3506   19.4404 C   0  0  1  0  0  0  0  0  0  0  0  0
    9.4360  -18.2187   20.0046 C   0  0  0  0  0  0  0  0  0  0  0  0
   10.6819  -18.2146   19.1641 C   0  0  0  0  0  0  0  0  0  0  0  0
   11.7370  -19.1020   19.6448 C   0  0  0  0  0  0  0  0  0  0  0  0
   11.6848  -19.7566   20.7034 O   0  0  0  0  0  0  0  0  0  0  0  0
    8.6641  -15.9104   19.7647 C   0  0  0  0  0  0  0  0  0  0  0  0
    9.8146  -15.5061   20.0698 O   0  0  0  0  0  0  0  0  0  0  0  0
   12.8869  -19.2148   18.8458 O   0  0  0  0  0  0  0  0  0  0  0  0
    6.7066  -12.6940   19.6873 C   0  0  0  0  0  0  0  0  0  0  0  0
    7.9039  -13.5508   20.0423 C   0  0  2  0  0  0  0  0  0  0  0  0
    7.6284  -14.9370   19.7367 N   0  0  0  0  0  0  0  0  0  0  0  0
    8.3333  -13.3714   21.4504 C   0  0  0  0  0  0  0  0  0  0  0  0
    8.6687  -12.2382   21.9287 O   0  0  0  0  0  0  0  0  0  0  0  0
    7.5475  -14.1378   24.6365 C   0  0  0  0  0  0  0  0  0  0  0  0
    8.7570  -14.3087   23.7450 C   0  0  2  0  0  0  0  0  0  0  0  0
    8.3972  -14.4609   22.3590 N   0  0  0  0  0  0  0  0  0  0  0  0
    9.4838  -15.5271   24.1737 C   0  0  0  0  0  0  0  0  0  0  0  0
    9.5908  -16.6160   23.3231 O   0  0  0  0  0  0  0  0  0  0  0  0
   10.0288  -15.6371   25.3031 O   0  0  0  0  0  0  0  0  0  0  0  0
  2  1  1  6
  3  2  1  0
  4  5  1  0
  4  3  1  0
  5  6  2  0
  7  2  1  0
  8  7  2  0
  9  5  1  0
 11 10  1  1
 11 13  1  0
 11 12  1  0
 12  7  1  0
 13 17  1  0
 14 13  2  0
 16 18  1  0
 16 15  1  1
 17 16  1  0
 18 20  2  0
 18 19  1  0
M  END
$$$$
