EAA.pdb
     RDKit          3D

 20 19  0  0  1  0  0  0  0  0999 V2000
    7.9558  -14.6668   19.8812 N   0  0  0  0  0  0  0  0  0  0  0  0
    7.1287  -15.3056   20.8919 C   0  0  1  0  0  0  0  0  0  0  0  0
    7.0684  -16.7814   20.7389 C   0  0  0  0  0  0  0  0  0  0  0  0
    7.4299  -17.2272   19.3500 C   0  0  0  0  0  0  0  0  0  0  0  0
    7.2641  -18.6584   19.1134 C   0  0  0  0  0  0  0  0  0  0  0  0
    8.0612  -19.3674   18.4703 O   0  0  0  0  0  0  0  0  0  0  0  0
    7.7407  -14.9564   22.2218 C   0  0  0  0  0  0  0  0  0  0  0  0
    8.9404  -15.2074   22.5011 O   0  0  0  0  0  0  0  0  0  0  0  0
    6.1188  -19.2647   19.6559 O   0  0  0  0  0  0  0  0  0  0  0  0
    6.5465  -13.2624   25.3723 C   0  0  0  0  0  0  0  0  0  0  0  0
    7.5091  -14.0950   24.5513 C   0  0  2  0  0  0  0  0  0  0  0  0
    6.9676  -14.3173   23.2292 N   0  0  0  0  0  0  0  0  0  0  0  0
    7.8717  -15.3682   25.2199 C   0  0  0  0  0  0  0  0  0  0  0  0
    7.3860  -16.4931   24.8678 O   0  0  0  0  0  0  0  0  0  0  0  0
    8.0075  -17.6550   26.9075 C   0  0  0  0  0  0  0  0  0  0  0  0
    9.1041  -16.6199   27.0192 C   0  0  2  0  0  0  0  0  0  0  0  0
    8.7901  -15.4112   26.3022 N   0  0  0  0  0  0  0  0  0  0  0  0
   10.3454  -17.1919   26.4459 C   0  0  0  0  0  0  0  0  0  0  0  0
   10.9196  -18.3230   27.0040 O   0  0  0  0  0  0  0  0  0  0  0  0
   10.9305  -16.6954   25.4480 O   0  0  0  0  0  0  0  0  0  0  0  0
  2  1  1  6
  3  2  1  0
  4  5  1  0
  4  3  1  0
  5  6  2  0
  7  2  1  0
  8  7  2  0
  9  5  1  0
 11 10  1  1
 11 13  1  0
 11 12  1  0
 12  7  1  0
 13 17  1  0
 14 13  2  0
 16 18  1  0
 16 15  1  6
 17 16  1  0
 18 20  2  0
 18 19  1  0
M  END
$$$$
