EAA.pdb
     RDKit          3D

 20 19  0  0  1  0  0  0  0  0999 V2000
   11.7206  -17.9387   21.6417 N   0  0  0  0  0  0  0  0  0  0  0  0
   10.8573  -16.7820   21.4678 C   0  0  1  0  0  0  0  0  0  0  0  0
    9.8776  -16.9545   20.3652 C   0  0  0  0  0  0  0  0  0  0  0  0
   10.5244  -16.8858   19.0103 C   0  0  0  0  0  0  0  0  0  0  0  0
   11.1218  -18.1406   18.5627 C   0  0  0  0  0  0  0  0  0  0  0  0
   10.8889  -19.2559   19.0664 O   0  0  0  0  0  0  0  0  0  0  0  0
   10.1287  -16.5982   22.7717 C   0  0  0  0  0  0  0  0  0  0  0  0
    9.3063  -15.6666   22.9615 O   0  0  0  0  0  0  0  0  0  0  0  0
   12.0216  -18.0688   17.4862 O   0  0  0  0  0  0  0  0  0  0  0  0
    9.5614  -18.6560   25.8321 C   0  0  0  0  0  0  0  0  0  0  0  0
    9.6399  -17.3291   25.1061 C   0  0  2  0  0  0  0  0  0  0  0  0
   10.3495  -17.4900   23.8566 N   0  0  0  0  0  0  0  0  0  0  0  0
   10.2330  -16.2580   25.9431 C   0  0  0  0  0  0  0  0  0  0  0  0
   11.4890  -16.0465   26.0019 O   0  0  0  0  0  0  0  0  0  0  0  0
    8.9958  -13.2299   27.8007 C   0  0  0  0  0  0  0  0  0  0  0  0
    9.9786  -14.3552   27.5670 C   0  0  2  0  0  0  0  0  0  0  0  0
    9.4306  -15.3959   26.7363 N   0  0  0  0  0  0  0  0  0  0  0  0
   10.3327  -14.9453   28.8796 C   0  0  0  0  0  0  0  0  0  0  0  0
   11.0821  -14.2229   29.7944 O   0  0  0  0  0  0  0  0  0  0  0  0
    9.9818  -16.1035   29.2263 O   0  0  0  0  0  0  0  0  0  0  0  0
  2  1  1  1
  3  2  1  0
  4  5  1  0
  4  3  1  0
  5  6  2  0
  7  2  1  0
  8  7  2  0
  9  5  1  0
 11 10  1  1
 11 13  1  0
 11 12  1  0
 12  7  1  0
 13 17  1  0
 14 13  2  0
 16 18  1  0
 16 15  1  1
 17 16  1  0
 18 20  2  0
 18 19  1  0
M  END
$$$$
