EAA.pdb
     RDKit          3D

 20 19  0  0  1  0  0  0  0  0999 V2000
   -1.1756  -26.3977   29.5152 N   0  0  0  0  0  0  0  0  0  0  0  0
   -2.1806  -26.1079   28.5055 C   0  0  1  0  0  0  0  0  0  0  0  0
   -3.1574  -27.2126   28.3306 C   0  0  0  0  0  0  0  0  0  0  0  0
   -2.5284  -28.4433   27.7403 C   0  0  0  0  0  0  0  0  0  0  0  0
   -3.4739  -29.5074   27.4153 C   0  0  0  0  0  0  0  0  0  0  0  0
   -4.7023  -29.4489   27.6136 O   0  0  0  0  0  0  0  0  0  0  0  0
   -2.8947  -24.8650   28.9641 C   0  0  0  0  0  0  0  0  0  0  0  0
   -3.2715  -24.7008   30.1520 O   0  0  0  0  0  0  0  0  0  0  0  0
   -2.9453  -30.6742   26.8384 O   0  0  0  0  0  0  0  0  0  0  0  0
   -3.8189  -21.5556   27.4369 C   0  0  0  0  0  0  0  0  0  0  0  0
   -3.9601  -22.6675   28.4554 C   0  0  2  0  0  0  0  0  0  0  0  0
   -3.1737  -23.8117   28.0510 N   0  0  0  0  0  0  0  0  0  0  0  0
   -5.3756  -23.0321   28.7058 C   0  0  0  0  0  0  0  0  0  0  0  0
   -6.0318  -23.8109   27.9387 O   0  0  0  0  0  0  0  0  0  0  0  0
   -7.6160  -23.5799   31.4344 C   0  0  0  0  0  0  0  0  0  0  0  0
   -7.4609  -22.8804   30.1027 C   0  0  2  0  0  0  0  0  0  0  0  0
   -6.0918  -22.5311   29.8249 N   0  0  0  0  0  0  0  0  0  0  0  0
   -8.2620  -21.6339   30.1347 C   0  0  0  0  0  0  0  0  0  0  0  0
   -9.6042  -21.6534   29.7903 O   0  0  0  0  0  0  0  0  0  0  0  0
   -7.7805  -20.5193   30.4671 O   0  0  0  0  0  0  0  0  0  0  0  0
  2  1  1  1
  3  2  1  0
  4  5  1  0
  4  3  1  0
  5  6  2  0
  7  2  1  0
  8  7  2  0
  9  5  1  0
 11 10  1  6
 11 13  1  0
 11 12  1  0
 12  7  1  0
 13 17  1  0
 14 13  2  0
 16 18  1  0
 16 15  1  1
 17 16  1  0
 18 20  2  0
 18 19  1  0
M  END
$$$$
