FAY.pdb
     RDKit          3D

 29 30  0  0  1  0  0  0  0  0999 V2000
   25.4593  -21.2588   -7.1252 N   0  0  0  0  0  0  0  0  0  0  0  0
   26.2545  -20.5711   -8.1510 C   0  0  1  0  0  0  0  0  0  0  0  0
   27.7113  -20.6865   -7.8585 C   0  0  0  0  0  0  0  0  0  0  0  0
   28.1151  -20.0888   -6.5855 C   0  0  0  0  0  0  0  0  0  0  0  0
   28.5789  -20.8742   -5.5276 C   0  0  0  0  0  0  0  0  0  0  0  0
   28.9664  -20.3383   -4.3196 C   0  0  0  0  0  0  0  0  0  0  0  0
   28.8988  -18.9734   -4.1344 C   0  0  0  0  0  0  0  0  0  0  0  0
   28.4439  -18.1554   -5.1591 C   0  0  0  0  0  0  0  0  0  0  0  0
   28.0661  -18.7266   -6.3501 C   0  0  0  0  0  0  0  0  0  0  0  0
   25.8534  -21.0078   -9.5081 C   0  0  0  0  0  0  0  0  0  0  0  0
   26.2577  -22.1081   -9.9550 O   0  0  0  0  0  0  0  0  0  0  0  0
   23.3710  -20.9494  -12.0034 C   0  0  0  0  0  0  0  0  0  0  0  0
   24.8344  -20.6086  -11.7397 C   0  0  2  0  0  0  0  0  0  0  0  0
   25.0155  -20.2305  -10.3526 N   0  0  0  0  0  0  0  0  0  0  0  0
   25.2819  -19.4975  -12.6347 C   0  0  0  0  0  0  0  0  0  0  0  0
   25.0191  -18.3021  -12.3377 O   0  0  0  0  0  0  0  0  0  0  0  0
   30.1097  -23.1726  -17.0893 O   0  0  0  0  0  0  0  0  0  0  0  0
   29.5559  -22.0371  -16.5132 C   0  0  0  0  0  0  0  0  0  0  0  0
   29.2929  -22.0184  -15.1609 C   0  0  0  0  0  0  0  0  0  0  0  0
   28.7474  -20.8882  -14.6173 C   0  0  0  0  0  0  0  0  0  0  0  0
   28.4572  -19.7752  -15.3880 C   0  0  0  0  0  0  0  0  0  0  0  0
   27.8718  -18.5688  -14.7992 C   0  0  0  0  0  0  0  0  0  0  0  0
   26.3579  -18.6258  -14.7053 C   0  0  2  0  0  0  0  0  0  0  0  0
   26.0004  -19.7248  -13.8230 N   0  0  0  0  0  0  0  0  0  0  0  0
   25.6778  -18.6939  -15.9926 C   0  0  0  0  0  0  0  0  0  0  0  0
   25.7798  -17.6628  -16.9175 O   0  0  0  0  0  0  0  0  0  0  0  0
   28.7325  -19.8243  -16.7424 C   0  0  0  0  0  0  0  0  0  0  0  0
   29.2821  -20.9548  -17.3073 C   0  0  0  0  0  0  0  0  0  0  0  0
   24.9730  -19.6770  -16.3279 O   0  0  0  0  0  0  0  0  0  0  0  0
  2  1  1  1
  2  3  1  0
  4  3  1  0
  4  9  1  0
  5  4  2  0
  6  5  1  0
  6  7  2  0
  7  8  1  0
  8  9  2  0
 10  2  1  0
 11 10  2  0
 13 12  1  1
 13 14  1  0
 14 10  1  0
 15 13  1  0
 15 16  2  0
 18 17  1  0
 19 18  2  0
 20 19  1  0
 21 20  2  0
 21 27  1  0
 23 22  1  6
 22 21  1  0
 23 24  1  0
 24 15  1  0
 25 23  1  0
 26 25  1  0
 27 28  2  0
 28 18  1  0
 29 25  2  0
M  END
$$$$
