FAY.pdb
     RDKit          3D

 29 30  0  0  1  0  0  0  0  0999 V2000
   29.0872  -21.9140  -11.1369 N   0  0  0  0  0  0  0  0  0  0  0  0
   27.7655  -21.3579  -10.8183 C   0  0  1  0  0  0  0  0  0  0  0  0
   27.8934  -20.0116  -10.1922 C   0  0  0  0  0  0  0  0  0  0  0  0
   28.0515  -20.0405   -8.7379 C   0  0  0  0  0  0  0  0  0  0  0  0
   26.9579  -19.8803   -7.8839 C   0  0  0  0  0  0  0  0  0  0  0  0
   27.0775  -19.9043   -6.5121 C   0  0  0  0  0  0  0  0  0  0  0  0
   28.3211  -20.0933   -5.9467 C   0  0  0  0  0  0  0  0  0  0  0  0
   29.4351  -20.2567   -6.7581 C   0  0  0  0  0  0  0  0  0  0  0  0
   29.2761  -20.2268   -8.1224 C   0  0  0  0  0  0  0  0  0  0  0  0
   26.8720  -21.4159  -11.9980 C   0  0  0  0  0  0  0  0  0  0  0  0
   27.3368  -21.2066  -13.1442 O   0  0  0  0  0  0  0  0  0  0  0  0
   24.0237  -23.1871  -13.1701 C   0  0  0  0  0  0  0  0  0  0  0  0
   24.6809  -21.8120  -13.1023 C   0  0  2  0  0  0  0  0  0  0  0  0
   25.4835  -21.7024  -11.9009 N   0  0  0  0  0  0  0  0  0  0  0  0
   23.6436  -20.7353  -13.1239 C   0  0  0  0  0  0  0  0  0  0  0  0
   23.0597  -20.3990  -12.0598 O   0  0  0  0  0  0  0  0  0  0  0  0
   27.5795  -16.0482  -15.9082 O   0  0  0  0  0  0  0  0  0  0  0  0
   26.3005  -16.5813  -15.8167 C   0  0  0  0  0  0  0  0  0  0  0  0
   25.9676  -17.6862  -16.5693 C   0  0  0  0  0  0  0  0  0  0  0  0
   24.7016  -18.1924  -16.4614 C   0  0  0  0  0  0  0  0  0  0  0  0
   23.7585  -17.6248  -15.6216 C   0  0  0  0  0  0  0  0  0  0  0  0
   22.4043  -18.1716  -15.5121 C   0  0  0  0  0  0  0  0  0  0  0  0
   22.2182  -19.0638  -14.2983 C   0  0  2  0  0  0  0  0  0  0  0  0
   23.2766  -20.0606  -14.3029 N   0  0  0  0  0  0  0  0  0  0  0  0
   20.8904  -19.6538  -14.1837 C   0  0  0  0  0  0  0  0  0  0  0  0
   19.8704  -19.0069  -13.4980 O   0  0  0  0  0  0  0  0  0  0  0  0
   24.1226  -16.5165  -14.8789 C   0  0  0  0  0  0  0  0  0  0  0  0
   25.3938  -15.9929  -14.9750 C   0  0  0  0  0  0  0  0  0  0  0  0
   20.6035  -20.7645  -14.6934 O   0  0  0  0  0  0  0  0  0  0  0  0
  2  1  1  6
  2  3  1  0
  4  3  1  0
  4  9  1  0
  5  4  2  0
  6  5  1  0
  6  7  2  0
  7  8  1  0
  8  9  2  0
 10  2  1  0
 11 10  2  0
 13 12  1  1
 13 14  1  0
 14 10  1  0
 15 13  1  0
 15 16  2  0
 18 17  1  0
 19 18  2  0
 20 19  1  0
 21 20  2  0
 21 27  1  0
 23 22  1  6
 22 21  1  0
 23 24  1  0
 24 15  1  0
 25 23  1  0
 26 25  1  0
 27 28  2  0
 28 18  1  0
 29 25  2  0
M  END
$$$$
