FAY.pdb
     RDKit          3D

 29 30  0  0  1  0  0  0  0  0999 V2000
   28.2722  -20.8214  -15.0912 N   0  0  0  0  0  0  0  0  0  0  0  0
   26.9952  -20.6404  -14.3881 C   0  0  1  0  0  0  0  0  0  0  0  0
   27.1531  -19.7134  -13.2320 C   0  0  0  0  0  0  0  0  0  0  0  0
   28.0323  -20.2173  -12.1767 C   0  0  0  0  0  0  0  0  0  0  0  0
   29.4219  -20.1193  -12.2788 C   0  0  0  0  0  0  0  0  0  0  0  0
   30.2728  -20.5839  -11.3007 C   0  0  0  0  0  0  0  0  0  0  0  0
   29.7444  -21.1714  -10.1704 C   0  0  0  0  0  0  0  0  0  0  0  0
   28.3689  -21.2894  -10.0277 C   0  0  0  0  0  0  0  0  0  0  0  0
   27.5521  -20.8140  -11.0249 C   0  0  0  0  0  0  0  0  0  0  0  0
   25.9187  -20.2767  -15.3380 C   0  0  0  0  0  0  0  0  0  0  0  0
   26.0137  -19.2264  -16.0173 O   0  0  0  0  0  0  0  0  0  0  0  0
   23.3389  -21.3960  -17.4849 C   0  0  0  0  0  0  0  0  0  0  0  0
   23.6241  -20.5364  -16.2573 C   0  0  2  0  0  0  0  0  0  0  0  0
   24.7556  -21.0711  -15.5270 N   0  0  0  0  0  0  0  0  0  0  0  0
   22.4230  -20.4794  -15.3685 C   0  0  0  0  0  0  0  0  0  0  0  0
   21.3780  -19.8923  -15.7555 O   0  0  0  0  0  0  0  0  0  0  0  0
   17.8886  -23.8148  -17.6818 O   0  0  0  0  0  0  0  0  0  0  0  0
   18.5392  -23.4057  -16.5252 C   0  0  0  0  0  0  0  0  0  0  0  0
   17.8395  -22.7203  -15.5562 C   0  0  0  0  0  0  0  0  0  0  0  0
   18.5027  -22.3283  -14.4262 C   0  0  0  0  0  0  0  0  0  0  0  0
   19.8467  -22.6023  -14.2374 C   0  0  0  0  0  0  0  0  0  0  0  0
   20.5507  -22.1782  -13.0253 C   0  0  0  0  0  0  0  0  0  0  0  0
   21.2759  -20.8549  -13.1896 C   0  0  2  0  0  0  0  0  0  0  0  0
   22.3995  -21.0632  -14.0885 N   0  0  0  0  0  0  0  0  0  0  0  0
   21.6684  -20.2247  -11.9353 C   0  0  0  0  0  0  0  0  0  0  0  0
   20.7334  -19.9359  -10.9497 O   0  0  0  0  0  0  0  0  0  0  0  0
   20.5219  -23.2919  -15.2280 C   0  0  0  0  0  0  0  0  0  0  0  0
   19.8696  -23.6947  -16.3732 C   0  0  0  0  0  0  0  0  0  0  0  0
   22.8584  -19.9142  -11.6841 O   0  0  0  0  0  0  0  0  0  0  0  0
  2  1  1  6
  2  3  1  0
  4  3  1  0
  4  9  1  0
  5  4  2  0
  6  5  1  0
  6  7  2  0
  7  8  1  0
  8  9  2  0
 10  2  1  0
 11 10  2  0
 13 12  1  6
 13 14  1  0
 14 10  1  0
 15 13  1  0
 15 16  2  0
 18 17  1  0
 19 18  2  0
 20 19  1  0
 21 20  2  0
 21 27  1  0
 23 22  1  1
 22 21  1  0
 23 24  1  0
 24 15  1  0
 25 23  1  0
 26 25  1  0
 27 28  2  0
 28 18  1  0
 29 25  2  0
M  END
$$$$
