FAY.pdb
     RDKit          3D

 29 30  0  0  1  0  0  0  0  0999 V2000
   16.3271  -25.6772   -6.2010 N   0  0  0  0  0  0  0  0  0  0  0  0
   16.2449  -25.4647   -4.7498 C   0  0  1  0  0  0  0  0  0  0  0  0
   14.8271  -25.3173   -4.3149 C   0  0  0  0  0  0  0  0  0  0  0  0
   14.1342  -24.1746   -4.9107 C   0  0  0  0  0  0  0  0  0  0  0  0
   14.4568  -22.8626   -4.5564 C   0  0  0  0  0  0  0  0  0  0  0  0
   13.8220  -21.7689   -5.1018 C   0  0  0  0  0  0  0  0  0  0  0  0
   12.8262  -21.9634   -6.0360 C   0  0  0  0  0  0  0  0  0  0  0  0
   12.4736  -23.2505   -6.4171 C   0  0  0  0  0  0  0  0  0  0  0  0
   13.1296  -24.3166   -5.8509 C   0  0  0  0  0  0  0  0  0  0  0  0
   17.0173  -26.4977   -4.0222 C   0  0  0  0  0  0  0  0  0  0  0  0
   16.8432  -27.7111   -4.2889 O   0  0  0  0  0  0  0  0  0  0  0  0
   20.1138  -26.7722   -2.0168 C   0  0  0  0  0  0  0  0  0  0  0  0
   18.7029  -27.2436   -2.3547 C   0  0  2  0  0  0  0  0  0  0  0  0
   17.9679  -26.1829   -3.0139 N   0  0  0  0  0  0  0  0  0  0  0  0
   17.9833  -27.6700   -1.1153 C   0  0  0  0  0  0  0  0  0  0  0  0
   18.4236  -28.6287   -0.4273 O   0  0  0  0  0  0  0  0  0  0  0  0
   13.1770  -21.9168   -0.1603 O   0  0  0  0  0  0  0  0  0  0  0  0
   13.8807  -23.0366    0.2629 C   0  0  0  0  0  0  0  0  0  0  0  0
   13.2202  -24.0432    0.9328 C   0  0  0  0  0  0  0  0  0  0  0  0
   13.9354  -25.1357    1.3392 C   0  0  0  0  0  0  0  0  0  0  0  0
   15.2933  -25.2505    1.0947 C   0  0  0  0  0  0  0  0  0  0  0  0
   16.0531  -26.4229    1.5341 C   0  0  0  0  0  0  0  0  0  0  0  0
   16.0903  -27.5315    0.4979 C   0  0  2  0  0  0  0  0  0  0  0  0
   16.8086  -27.0388   -0.6663 N   0  0  0  0  0  0  0  0  0  0  0  0
   14.7841  -28.0835    0.1609 C   0  0  0  0  0  0  0  0  0  0  0  0
   13.9671  -28.6474    1.1322 O   0  0  0  0  0  0  0  0  0  0  0  0
   15.9283  -24.2237    0.4201 C   0  0  0  0  0  0  0  0  0  0  0  0
   15.2235  -23.1153    0.0031 C   0  0  0  0  0  0  0  0  0  0  0  0
   14.3354  -28.0775   -1.0114 O   0  0  0  0  0  0  0  0  0  0  0  0
  2  1  1  6
  2  3  1  0
  4  3  1  0
  4  9  1  0
  5  4  2  0
  6  5  1  0
  6  7  2  0
  7  8  1  0
  8  9  2  0
 10  2  1  0
 11 10  2  0
 13 12  1  1
 13 14  1  0
 14 10  1  0
 15 13  1  0
 15 16  2  0
 18 17  1  0
 19 18  2  0
 20 19  1  0
 21 20  2  0
 21 27  1  0
 23 22  1  1
 22 21  1  0
 23 24  1  0
 24 15  1  0
 25 23  1  0
 26 25  1  0
 27 28  2  0
 28 18  1  0
 29 25  2  0
M  END
$$$$
