FAY.pdb
     RDKit          3D

 29 30  0  0  1  0  0  0  0  0999 V2000
   28.2198  -22.7575  -11.6186 N   0  0  0  0  0  0  0  0  0  0  0  0
   28.3518  -21.3362  -11.9655 C   0  0  1  0  0  0  0  0  0  0  0  0
   29.7625  -20.8812  -11.8103 C   0  0  0  0  0  0  0  0  0  0  0  0
   30.3554  -21.2026  -10.5119 C   0  0  0  0  0  0  0  0  0  0  0  0
   31.4639  -22.0460  -10.4069 C   0  0  0  0  0  0  0  0  0  0  0  0
   32.0426  -22.3644   -9.1985 C   0  0  0  0  0  0  0  0  0  0  0  0
   31.5163  -21.8359   -8.0384 C   0  0  0  0  0  0  0  0  0  0  0  0
   30.4151  -20.9932   -8.0966 C   0  0  0  0  0  0  0  0  0  0  0  0
   29.8652  -20.6986   -9.3206 C   0  0  0  0  0  0  0  0  0  0  0  0
   27.7483  -21.0595  -13.2892 C   0  0  0  0  0  0  0  0  0  0  0  0
   27.9352  -19.9484  -13.8409 O   0  0  0  0  0  0  0  0  0  0  0  0
   26.4774  -22.6923  -16.2779 C   0  0  0  0  0  0  0  0  0  0  0  0
   26.2739  -21.6227  -15.2094 C   0  0  2  0  0  0  0  0  0  0  0  0
   26.9496  -22.0060  -13.9862 N   0  0  0  0  0  0  0  0  0  0  0  0
   24.8164  -21.4179  -14.9455 C   0  0  0  0  0  0  0  0  0  0  0  0
   24.1298  -22.3444  -14.4391 O   0  0  0  0  0  0  0  0  0  0  0  0
   23.5756  -21.7139   -8.8668 O   0  0  0  0  0  0  0  0  0  0  0  0
   23.3493  -21.0667  -10.0743 C   0  0  0  0  0  0  0  0  0  0  0  0
   24.3452  -20.2934  -10.6297 C   0  0  0  0  0  0  0  0  0  0  0  0
   24.0979  -19.6662  -11.8196 C   0  0  0  0  0  0  0  0  0  0  0  0
   22.8821  -19.7903  -12.4704 C   0  0  0  0  0  0  0  0  0  0  0  0
   22.6239  -19.1146  -13.7438 C   0  0  0  0  0  0  0  0  0  0  0  0
   22.7429  -20.0376  -14.9430 C   0  0  2  0  0  0  0  0  0  0  0  0
   24.1552  -20.2117  -15.2415 N   0  0  0  0  0  0  0  0  0  0  0  0
   21.9702  -19.6164  -16.1049 C   0  0  0  0  0  0  0  0  0  0  0  0
   20.6064  -19.8644  -16.1925 O   0  0  0  0  0  0  0  0  0  0  0  0
   21.9022  -20.5733  -11.8879 C   0  0  0  0  0  0  0  0  0  0  0  0
   22.1339  -21.2127  -10.6893 C   0  0  0  0  0  0  0  0  0  0  0  0
   22.4917  -19.0145  -17.0751 O   0  0  0  0  0  0  0  0  0  0  0  0
  2  1  1  6
  2  3  1  0
  4  3  1  0
  4  9  1  0
  5  4  2  0
  6  5  1  0
  6  7  2  0
  7  8  1  0
  8  9  2  0
 10  2  1  0
 11 10  2  0
 13 12  1  6
 13 14  1  0
 14 10  1  0
 15 13  1  0
 15 16  2  0
 18 17  1  0
 19 18  2  0
 20 19  1  0
 21 20  2  0
 21 27  1  0
 23 22  1  1
 22 21  1  0
 23 24  1  0
 24 15  1  0
 25 23  1  0
 26 25  1  0
 27 28  2  0
 28 18  1  0
 29 25  2  0
M  END
$$$$
