FAY.pdb
     RDKit          3D

 29 30  0  0  1  0  0  0  0  0999 V2000
   27.4432  -15.3627  -19.7703 N   0  0  0  0  0  0  0  0  0  0  0  0
   27.7028  -16.0441  -18.4951 C   0  0  1  0  0  0  0  0  0  0  0  0
   27.2338  -15.2176  -17.3471 C   0  0  0  0  0  0  0  0  0  0  0  0
   27.9099  -13.9259  -17.2242 C   0  0  0  0  0  0  0  0  0  0  0  0
   27.1915  -12.7445  -17.0257 C   0  0  0  0  0  0  0  0  0  0  0  0
   27.8018  -11.5159  -16.9055 C   0  0  0  0  0  0  0  0  0  0  0  0
   29.1764  -11.4350  -16.9824 C   0  0  0  0  0  0  0  0  0  0  0  0
   29.9295  -12.5841  -17.1790 C   0  0  0  0  0  0  0  0  0  0  0  0
   29.2849  -13.7919  -17.2943 C   0  0  0  0  0  0  0  0  0  0  0  0
   27.1792  -17.4292  -18.5226 C   0  0  0  0  0  0  0  0  0  0  0  0
   26.0401  -17.6569  -18.9962 O   0  0  0  0  0  0  0  0  0  0  0  0
   28.2963  -20.8824  -17.4642 C   0  0  0  0  0  0  0  0  0  0  0  0
   27.2953  -19.8509  -17.9754 C   0  0  2  0  0  0  0  0  0  0  0  0
   27.9137  -18.5416  -18.0302 N   0  0  0  0  0  0  0  0  0  0  0  0
   26.0896  -19.8100  -17.0920 C   0  0  0  0  0  0  0  0  0  0  0  0
   26.1806  -19.3598  -15.9192 O   0  0  0  0  0  0  0  0  0  0  0  0
   18.5690  -17.5785  -13.8370 O   0  0  0  0  0  0  0  0  0  0  0  0
   19.7841  -17.8468  -14.4532 C   0  0  0  0  0  0  0  0  0  0  0  0
   19.9305  -17.6099  -15.8026 C   0  0  0  0  0  0  0  0  0  0  0  0
   21.1371  -17.8822  -16.3861 C   0  0  0  0  0  0  0  0  0  0  0  0
   22.2021  -18.3850  -15.6583 C   0  0  0  0  0  0  0  0  0  0  0  0
   23.4910  -18.6755  -16.2902 C   0  0  0  0  0  0  0  0  0  0  0  0
   23.6597  -20.1395  -16.6540 C   0  0  2  0  0  0  0  0  0  0  0  0
   24.8254  -20.2604  -17.5146 N   0  0  0  0  0  0  0  0  0  0  0  0
   22.4707  -20.7574  -17.2273 C   0  0  0  0  0  0  0  0  0  0  0  0
   22.2110  -20.6942  -18.5903 O   0  0  0  0  0  0  0  0  0  0  0  0
   22.0244  -18.6123  -14.3057 C   0  0  0  0  0  0  0  0  0  0  0  0
   20.8156  -18.3437  -13.7009 C   0  0  0  0  0  0  0  0  0  0  0  0
   21.6297  -21.3718  -16.5267 O   0  0  0  0  0  0  0  0  0  0  0  0
  2  1  1  6
  2  3  1  0
  4  3  1  0
  4  9  1  0
  5  4  2  0
  6  5  1  0
  6  7  2  0
  7  8  1  0
  8  9  2  0
 10  2  1  0
 11 10  2  0
 13 12  1  1
 13 14  1  0
 14 10  1  0
 15 13  1  0
 15 16  2  0
 18 17  1  0
 19 18  2  0
 20 19  1  0
 21 20  2  0
 21 27  1  0
 23 22  1  6
 22 21  1  0
 23 24  1  0
 24 15  1  0
 25 23  1  0
 26 25  1  0
 27 28  2  0
 28 18  1  0
 29 25  2  0
M  END
$$$$
