YMM.pdb
     RDKit          3D

 29 29  0  0  1  0  0  0  0  0999 V2000
    8.2917  -21.3259   29.6371 O   0  0  0  0  0  0  0  0  0  0  0  0
    8.1284  -21.0164   28.2795 C   0  0  0  0  0  0  0  0  0  0  0  0
    7.2142  -21.6747   27.4886 C   0  0  0  0  0  0  0  0  0  0  0  0
    7.0653  -21.3587   26.1554 C   0  0  0  0  0  0  0  0  0  0  0  0
    7.8228  -20.3690   25.5472 C   0  0  0  0  0  0  0  0  0  0  0  0
    7.6795  -20.0118   24.1142 C   0  0  0  0  0  0  0  0  0  0  0  0
    6.5359  -19.0340   23.9980 C   0  0  2  0  0  0  0  0  0  0  0  0
    5.4852  -19.6772   23.2370 N   0  0  0  0  0  0  0  0  0  0  0  0
    6.9609  -17.7514   23.3851 C   0  0  0  0  0  0  0  0  0  0  0  0
    7.1172  -17.6154   22.1557 O   0  0  0  0  0  0  0  0  0  0  0  0
    8.7384  -19.7091   26.3373 C   0  0  0  0  0  0  0  0  0  0  0  0
    8.8906  -20.0288   27.6907 C   0  0  0  0  0  0  0  0  0  0  0  0
    5.6948  -11.7527   26.3160 C   0  0  0  0  0  0  0  0  0  0  0  0
    7.2298  -12.0568   25.4128 S   0  0  0  0  0  0  0  0  0  0  0  0
    6.7841  -12.9583   23.8726 C   0  0  0  0  0  0  0  0  0  0  0  0
    6.5618  -14.3903   24.2600 C   0  0  0  0  0  0  0  0  0  0  0  0
    7.5794  -15.3512   23.6508 C   0  0  2  0  0  0  0  0  0  0  0  0
    7.1906  -16.6546   24.2577 N   0  0  0  0  0  0  0  0  0  0  0  0
    8.9643  -15.0872   24.1119 C   0  0  0  0  0  0  0  0  0  0  0  0
    9.2084  -14.0311   24.8011 O   0  0  0  0  0  0  0  0  0  0  0  0
   10.1436  -14.0549   29.5722 C   0  0  0  0  0  0  0  0  0  0  0  0
    9.4675  -14.8685   28.0918 S   0  0  0  0  0  0  0  0  0  0  0  0
   10.8054  -15.9062   27.3806 C   0  0  0  0  0  0  0  0  0  0  0  0
   10.2400  -16.5309   26.1480 C   0  0  0  0  0  0  0  0  0  0  0  0
   11.0360  -16.1880   24.9300 C   0  0  2  0  0  0  0  0  0  0  0  0
   10.0683  -15.9063   23.8640 N   0  0  0  0  0  0  0  0  0  0  0  0
   11.9422  -17.2282   24.4507 C   0  0  0  0  0  0  0  0  0  0  0  0
   13.1592  -16.9988   24.2971 O   0  0  0  0  0  0  0  0  0  0  0  0
   11.4715  -18.4931   24.1570 O   0  0  0  0  0  0  0  0  0  0  0  0
  2 12  2  0
  2  1  1  0
  3  2  1  0
  4  5  1  0
  4  3  2  0
  5 11  2  0
  6  5  1  0
  6  7  1  0
  7  9  1  0
  7  8  1  6
  9 18  1  0
 10  9  2  0
 11 12  1  0
 13 14  1  0
 14 15  1  0
 16 15  1  0
 17 16  1  1
 18 17  1  0
 19 17  1  0
 19 20  2  0
 22 21  1  0
 22 23  1  0
 23 24  1  0
 25 24  1  1
 25 27  1  0
 26 25  1  0
 26 19  1  0
 27 28  2  0
 27 29  1  0
M  END
$$$$
