YMM.pdb
     RDKit          3D

 29 29  0  0  1  0  0  0  0  0999 V2000
    6.6563  -23.1163   29.3215 O   0  0  0  0  0  0  0  0  0  0  0  0
    7.0174  -22.0937   28.4330 C   0  0  0  0  0  0  0  0  0  0  0  0
    6.3397  -20.8965   28.3882 C   0  0  0  0  0  0  0  0  0  0  0  0
    6.7071  -19.9007   27.5091 C   0  0  0  0  0  0  0  0  0  0  0  0
    7.7702  -20.0527   26.6316 C   0  0  0  0  0  0  0  0  0  0  0  0
    8.1837  -18.9946   25.6769 C   0  0  0  0  0  0  0  0  0  0  0  0
    7.0070  -18.7035   24.7781 C   0  0  2  0  0  0  0  0  0  0  0  0
    6.9130  -19.7819   23.8164 N   0  0  0  0  0  0  0  0  0  0  0  0
    7.1249  -17.3795   24.1189 C   0  0  0  0  0  0  0  0  0  0  0  0
    7.5798  -17.2428   22.9662 O   0  0  0  0  0  0  0  0  0  0  0  0
    8.4496  -21.2503   26.6750 C   0  0  0  0  0  0  0  0  0  0  0  0
    8.0777  -22.2620   27.5668 C   0  0  0  0  0  0  0  0  0  0  0  0
    4.1681  -11.4800   26.0671 C   0  0  0  0  0  0  0  0  0  0  0  0
    5.9296  -11.5709   26.4583 S   0  0  0  0  0  0  0  0  0  0  0  0
    6.7394  -12.5119   25.1010 C   0  0  0  0  0  0  0  0  0  0  0  0
    6.4051  -13.9577   25.3193 C   0  0  0  0  0  0  0  0  0  0  0  0
    7.2144  -14.9093   24.4420 C   0  0  2  0  0  0  0  0  0  0  0  0
    6.6948  -16.2429   24.8541 N   0  0  0  0  0  0  0  0  0  0  0  0
    8.6580  -14.9147   24.7824 C   0  0  0  0  0  0  0  0  0  0  0  0
    9.1638  -13.9077   25.3990 O   0  0  0  0  0  0  0  0  0  0  0  0
   11.3459  -13.5614   28.8591 C   0  0  0  0  0  0  0  0  0  0  0  0
   12.0835  -15.2226   28.7758 S   0  0  0  0  0  0  0  0  0  0  0  0
   12.2919  -15.6386   26.9993 C   0  0  0  0  0  0  0  0  0  0  0  0
   10.9216  -15.6410   26.4065 C   0  0  0  0  0  0  0  0  0  0  0  0
   10.9507  -15.8609   24.9281 C   0  0  2  0  0  0  0  0  0  0  0  0
    9.5531  -15.9467   24.4908 N   0  0  0  0  0  0  0  0  0  0  0  0
   11.6367  -17.0698   24.4799 C   0  0  0  0  0  0  0  0  0  0  0  0
   12.8812  -17.1534   24.5177 O   0  0  0  0  0  0  0  0  0  0  0  0
   10.9213  -18.1513   24.0040 O   0  0  0  0  0  0  0  0  0  0  0  0
  2 12  2  0
  2  1  1  0
  3  2  1  0
  4  5  1  0
  4  3  2  0
  5 11  2  0
  6  5  1  0
  6  7  1  0
  7  9  1  0
  7  8  1  6
  9 18  1  0
 10  9  2  0
 11 12  1  0
 13 14  1  0
 14 15  1  0
 16 15  1  0
 17 16  1  1
 18 17  1  0
 19 17  1  0
 19 20  2  0
 22 21  1  0
 22 23  1  0
 23 24  1  0
 25 24  1  1
 25 27  1  0
 26 25  1  0
 26 19  1  0
 27 28  2  0
 27 29  1  0
M  END
$$$$
