YMM.pdb
     RDKit          3D

 29 29  0  0  1  0  0  0  0  0999 V2000
    6.5459  -20.7378   16.1640 O   0  0  0  0  0  0  0  0  0  0  0  0
    6.7954  -19.6467   17.0083 C   0  0  0  0  0  0  0  0  0  0  0  0
    8.0743  -19.2689   17.3494 C   0  0  0  0  0  0  0  0  0  0  0  0
    8.3033  -18.1935   18.1805 C   0  0  0  0  0  0  0  0  0  0  0  0
    7.2650  -17.4430   18.7115 C   0  0  0  0  0  0  0  0  0  0  0  0
    7.4876  -16.2816   19.6079 C   0  0  0  0  0  0  0  0  0  0  0  0
    8.2879  -16.7644   20.7927 C   0  0  2  0  0  0  0  0  0  0  0  0
    7.4474  -17.6682   21.5500 N   0  0  0  0  0  0  0  0  0  0  0  0
    8.7850  -15.6400   21.6234 C   0  0  0  0  0  0  0  0  0  0  0  0
    9.5162  -14.7402   21.1650 O   0  0  0  0  0  0  0  0  0  0  0  0
    5.9843  -17.8198   18.3713 C   0  0  0  0  0  0  0  0  0  0  0  0
    5.7505  -18.9111   17.5278 C   0  0  0  0  0  0  0  0  0  0  0  0
    6.0612  -11.0045   26.1286 C   0  0  0  0  0  0  0  0  0  0  0  0
    6.4535  -12.7114   26.5725 S   0  0  0  0  0  0  0  0  0  0  0  0
    8.0475  -13.1320   25.7568 C   0  0  0  0  0  0  0  0  0  0  0  0
    7.7270  -14.1005   24.6572 C   0  0  0  0  0  0  0  0  0  0  0  0
    8.9488  -14.5329   23.8509 C   0  0  2  0  0  0  0  0  0  0  0  0
    8.3959  -15.6146   22.9891 N   0  0  0  0  0  0  0  0  0  0  0  0
    9.9902  -15.1759   24.6889 C   0  0  0  0  0  0  0  0  0  0  0  0
   10.4173  -14.5703   25.7382 O   0  0  0  0  0  0  0  0  0  0  0  0
   10.9369  -13.7135   28.7852 C   0  0  0  0  0  0  0  0  0  0  0  0
   10.5980  -15.4682   29.1270 S   0  0  0  0  0  0  0  0  0  0  0  0
   11.5197  -16.4545   27.8819 C   0  0  0  0  0  0  0  0  0  0  0  0
   10.5485  -16.7643   26.7911 C   0  0  0  0  0  0  0  0  0  0  0  0
   11.2360  -17.1571   25.5231 C   0  0  2  0  0  0  0  0  0  0  0  0
   10.5704  -16.4223   24.4418 N   0  0  0  0  0  0  0  0  0  0  0  0
   11.1933  -18.5790   25.1925 C   0  0  0  0  0  0  0  0  0  0  0  0
   10.2440  -19.0581   24.5395 O   0  0  0  0  0  0  0  0  0  0  0  0
   12.2062  -19.4274   25.5950 O   0  0  0  0  0  0  0  0  0  0  0  0
  2 12  2  0
  2  1  1  0
  3  2  1  0
  4  5  1  0
  4  3  2  0
  5 11  2  0
  6  5  1  0
  6  7  1  0
  7  9  1  0
  7  8  1  1
  9 18  1  0
 10  9  2  0
 11 12  1  0
 13 14  1  0
 14 15  1  0
 16 15  1  0
 17 16  1  1
 18 17  1  0
 19 17  1  0
 19 20  2  0
 22 21  1  0
 22 23  1  0
 23 24  1  0
 25 24  1  1
 25 27  1  0
 26 25  1  0
 26 19  1  0
 27 28  2  0
 27 29  1  0
M  END
$$$$
