YMM.pdb
     RDKit          3D

 29 29  0  0  1  0  0  0  0  0999 V2000
   10.1845  -19.8953   29.1147 O   0  0  0  0  0  0  0  0  0  0  0  0
    9.0956  -19.6661   28.2618 C   0  0  0  0  0  0  0  0  0  0  0  0
    8.5884  -18.4036   28.0536 C   0  0  0  0  0  0  0  0  0  0  0  0
    7.5174  -18.1945   27.2117 C   0  0  0  0  0  0  0  0  0  0  0  0
    6.9009  -19.2372   26.5365 C   0  0  0  0  0  0  0  0  0  0  0  0
    5.7471  -19.0359   25.6255 C   0  0  0  0  0  0  0  0  0  0  0  0
    6.1186  -19.6131   24.2815 C   0  0  2  0  0  0  0  0  0  0  0  0
    6.5338  -20.9841   24.4932 N   0  0  0  0  0  0  0  0  0  0  0  0
    7.1680  -18.8127   23.6035 C   0  0  0  0  0  0  0  0  0  0  0  0
    8.2753  -19.2902   23.2870 O   0  0  0  0  0  0  0  0  0  0  0  0
    7.4071  -20.5016   26.7439 C   0  0  0  0  0  0  0  0  0  0  0  0
    8.4942  -20.7152   27.5981 C   0  0  0  0  0  0  0  0  0  0  0  0
    7.9755  -11.8597   20.0477 C   0  0  0  0  0  0  0  0  0  0  0  0
    6.9365  -13.0950   20.8594 S   0  0  0  0  0  0  0  0  0  0  0  0
    8.0563  -14.3934   21.5254 C   0  0  0  0  0  0  0  0  0  0  0  0
    7.1848  -15.4076   22.2050 C   0  0  0  0  0  0  0  0  0  0  0  0
    7.9559  -16.6083   22.7467 C   0  0  2  0  0  0  0  0  0  0  0  0
    6.8704  -17.4539   23.3169 N   0  0  0  0  0  0  0  0  0  0  0  0
    8.8363  -16.2567   23.8875 C   0  0  0  0  0  0  0  0  0  0  0  0
    8.4457  -16.5069   25.0854 O   0  0  0  0  0  0  0  0  0  0  0  0
    8.7173  -14.1939   28.7445 C   0  0  0  0  0  0  0  0  0  0  0  0
   10.4918  -14.1695   28.3431 S   0  0  0  0  0  0  0  0  0  0  0  0
   10.8653  -15.7167   27.4271 C   0  0  0  0  0  0  0  0  0  0  0  0
   10.0838  -15.6499   26.1567 C   0  0  0  0  0  0  0  0  0  0  0  0
   10.9710  -15.5685   24.9563 C   0  0  2  0  0  0  0  0  0  0  0  0
   10.0959  -15.6619   23.7827 N   0  0  0  0  0  0  0  0  0  0  0  0
   11.9850  -16.6137   24.8448 C   0  0  0  0  0  0  0  0  0  0  0  0
   11.7974  -17.6161   24.1254 O   0  0  0  0  0  0  0  0  0  0  0  0
   13.1780  -16.5154   25.5337 O   0  0  0  0  0  0  0  0  0  0  0  0
  2 12  2  0
  2  1  1  0
  3  2  1  0
  4  5  1  0
  4  3  2  0
  5 11  2  0
  6  5  1  0
  6  7  1  0
  7  9  1  0
  7  8  1  1
  9 18  1  0
 10  9  2  0
 11 12  1  0
 13 14  1  0
 14 15  1  0
 16 15  1  0
 17 16  1  1
 18 17  1  0
 19 17  1  0
 19 20  2  0
 22 21  1  0
 22 23  1  0
 23 24  1  0
 25 24  1  1
 25 27  1  0
 26 25  1  0
 26 19  1  0
 27 28  2  0
 27 29  1  0
M  END
$$$$
