YMM.pdb
     RDKit          3D

 29 29  0  0  1  0  0  0  0  0999 V2000
    5.7486  -22.5028   29.2177 O   0  0  0  0  0  0  0  0  0  0  0  0
    6.3322  -21.7732   28.1723 C   0  0  0  0  0  0  0  0  0  0  0  0
    6.3708  -20.3973   28.1791 C   0  0  0  0  0  0  0  0  0  0  0  0
    6.9483  -19.6943   27.1439 C   0  0  0  0  0  0  0  0  0  0  0  0
    7.5158  -20.3322   26.0510 C   0  0  0  0  0  0  0  0  0  0  0  0
    8.1430  -19.5963   24.9255 C   0  0  0  0  0  0  0  0  0  0  0  0
    7.0341  -18.9973   24.0954 C   0  0  2  0  0  0  0  0  0  0  0  0
    6.8723  -19.8248   22.9182 N   0  0  0  0  0  0  0  0  0  0  0  0
    7.3038  -17.5807   23.7463 C   0  0  0  0  0  0  0  0  0  0  0  0
    7.7849  -17.2410   22.6475 O   0  0  0  0  0  0  0  0  0  0  0  0
    7.4779  -21.7093   26.0425 C   0  0  0  0  0  0  0  0  0  0  0  0
    6.8920  -22.4241   27.0926 C   0  0  0  0  0  0  0  0  0  0  0  0
    5.8432  -10.4363   26.6904 C   0  0  0  0  0  0  0  0  0  0  0  0
    5.5692  -12.2222   26.6924 S   0  0  0  0  0  0  0  0  0  0  0  0
    6.5940  -12.9303   25.3390 C   0  0  0  0  0  0  0  0  0  0  0  0
    6.4372  -14.4201   25.4135 C   0  0  0  0  0  0  0  0  0  0  0  0
    7.2896  -15.1741   24.3961 C   0  0  2  0  0  0  0  0  0  0  0  0
    6.9912  -16.5966   24.7215 N   0  0  0  0  0  0  0  0  0  0  0  0
    8.7445  -15.0025   24.6282 C   0  0  0  0  0  0  0  0  0  0  0  0
    9.2488  -13.8211   24.6209 O   0  0  0  0  0  0  0  0  0  0  0  0
   12.5229  -14.1875   29.3215 C   0  0  0  0  0  0  0  0  0  0  0  0
   10.9529  -13.7501   28.5126 S   0  0  0  0  0  0  0  0  0  0  0  0
   10.5686  -15.0840   27.3102 C   0  0  0  0  0  0  0  0  0  0  0  0
   11.2280  -14.6947   26.0285 C   0  0  0  0  0  0  0  0  0  0  0  0
   11.0867  -15.7524   24.9815 C   0  0  2  0  0  0  0  0  0  0  0  0
    9.6523  -16.0372   24.8662 N   0  0  0  0  0  0  0  0  0  0  0  0
   11.7741  -17.0116   25.2549 C   0  0  0  0  0  0  0  0  0  0  0  0
   13.0201  -17.0795   25.2397 O   0  0  0  0  0  0  0  0  0  0  0  0
   11.0587  -18.1586   25.5387 O   0  0  0  0  0  0  0  0  0  0  0  0
  2 12  2  0
  2  1  1  0
  3  2  1  0
  4  5  1  0
  4  3  2  0
  5 11  2  0
  6  5  1  0
  6  7  1  0
  7  9  1  0
  7  8  1  6
  9 18  1  0
 10  9  2  0
 11 12  1  0
 13 14  1  0
 14 15  1  0
 16 15  1  0
 17 16  1  1
 18 17  1  0
 19 17  1  0
 19 20  2  0
 22 21  1  0
 22 23  1  0
 23 24  1  0
 25 24  1  1
 25 27  1  0
 26 25  1  0
 26 19  1  0
 27 28  2  0
 27 29  1  0
M  END
$$$$
