YMM.pdb
     RDKit          3D

 29 29  0  0  1  0  0  0  0  0999 V2000
    8.0861  -15.1419   14.2078 O   0  0  0  0  0  0  0  0  0  0  0  0
    8.3714  -14.8219   15.5427 C   0  0  0  0  0  0  0  0  0  0  0  0
    9.3678  -15.4597   16.2462 C   0  0  0  0  0  0  0  0  0  0  0  0
    9.6364  -15.1335   17.5581 C   0  0  0  0  0  0  0  0  0  0  0  0
    8.9221  -14.1537   18.2311 C   0  0  0  0  0  0  0  0  0  0  0  0
    9.1937  -13.7860   19.6428 C   0  0  0  0  0  0  0  0  0  0  0  0
    9.3378  -15.0656   20.4298 C   0  0  2  0  0  0  0  0  0  0  0  0
    8.1133  -15.8209   20.2659 N   0  0  0  0  0  0  0  0  0  0  0  0
    9.6452  -14.8082   21.8583 C   0  0  0  0  0  0  0  0  0  0  0  0
   10.6969  -14.2496   22.2274 O   0  0  0  0  0  0  0  0  0  0  0  0
    7.9243  -13.5145   17.5286 C   0  0  0  0  0  0  0  0  0  0  0  0
    7.6506  -13.8445   16.1969 C   0  0  0  0  0  0  0  0  0  0  0  0
    5.8032  -11.4542   27.1892 C   0  0  0  0  0  0  0  0  0  0  0  0
    5.9418  -13.0891   26.4327 S   0  0  0  0  0  0  0  0  0  0  0  0
    7.4347  -13.0654   25.3584 C   0  0  0  0  0  0  0  0  0  0  0  0
    7.4817  -14.3900   24.6561 C   0  0  0  0  0  0  0  0  0  0  0  0
    8.8883  -14.8058   24.2334 C   0  0  2  0  0  0  0  0  0  0  0  0
    8.6855  -15.2251   22.8187 N   0  0  0  0  0  0  0  0  0  0  0  0
    9.3680  -16.0136   24.9485 C   0  0  0  0  0  0  0  0  0  0  0  0
    9.3037  -17.1572   24.3671 O   0  0  0  0  0  0  0  0  0  0  0  0
    9.7629  -14.6787   29.4378 C   0  0  0  0  0  0  0  0  0  0  0  0
   11.5329  -14.3700   29.1511 S   0  0  0  0  0  0  0  0  0  0  0  0
   12.0258  -15.3493   27.6778 C   0  0  0  0  0  0  0  0  0  0  0  0
   11.4719  -16.7206   27.8824 C   0  0  0  0  0  0  0  0  0  0  0  0
   10.6777  -17.1859   26.7045 C   0  0  2  0  0  0  0  0  0  0  0  0
    9.9057  -16.0291   26.2376 N   0  0  0  0  0  0  0  0  0  0  0  0
    9.7411  -18.2766   26.9617 C   0  0  0  0  0  0  0  0  0  0  0  0
    8.5083  -18.0854   26.9297 O   0  0  0  0  0  0  0  0  0  0  0  0
   10.1999  -19.5481   27.2456 O   0  0  0  0  0  0  0  0  0  0  0  0
  2 12  2  0
  2  1  1  0
  3  2  1  0
  4  5  1  0
  4  3  2  0
  5 11  2  0
  6  5  1  0
  6  7  1  0
  7  9  1  0
  7  8  1  1
  9 18  1  0
 10  9  2  0
 11 12  1  0
 13 14  1  0
 14 15  1  0
 16 15  1  0
 17 16  1  1
 18 17  1  0
 19 17  1  0
 19 20  2  0
 22 21  1  0
 22 23  1  0
 23 24  1  0
 25 24  1  1
 25 27  1  0
 26 25  1  0
 26 19  1  0
 27 28  2  0
 27 29  1  0
M  END
$$$$
