YMM.pdb
     RDKit          3D

 29 29  0  0  1  0  0  0  0  0999 V2000
    6.3288  -22.1468   29.3198 O   0  0  0  0  0  0  0  0  0  0  0  0
    6.8505  -21.5883   28.1444 C   0  0  0  0  0  0  0  0  0  0  0  0
    7.4424  -22.3623   27.1722 C   0  0  0  0  0  0  0  0  0  0  0  0
    7.9504  -21.7983   26.0219 C   0  0  0  0  0  0  0  0  0  0  0  0
    7.8916  -20.4329   25.7868 C   0  0  0  0  0  0  0  0  0  0  0  0
    8.4316  -19.8038   24.5561 C   0  0  0  0  0  0  0  0  0  0  0  0
    7.2711  -19.2012   23.8027 C   0  0  2  0  0  0  0  0  0  0  0  0
    7.0351  -20.0213   22.6328 N   0  0  0  0  0  0  0  0  0  0  0  0
    7.5161  -17.7819   23.4466 C   0  0  0  0  0  0  0  0  0  0  0  0
    8.0123  -17.4409   22.3549 O   0  0  0  0  0  0  0  0  0  0  0  0
    7.2997  -19.6566   26.7589 C   0  0  0  0  0  0  0  0  0  0  0  0
    6.7836  -20.2277   27.9270 C   0  0  0  0  0  0  0  0  0  0  0  0
    6.8217  -11.1309   27.1793 C   0  0  0  0  0  0  0  0  0  0  0  0
    5.8147  -12.5165   26.6044 S   0  0  0  0  0  0  0  0  0  0  0  0
    6.6053  -13.1648   25.0754 C   0  0  0  0  0  0  0  0  0  0  0  0
    6.5200  -14.6607   25.1467 C   0  0  0  0  0  0  0  0  0  0  0  0
    7.2299  -15.3670   23.9947 C   0  0  2  0  0  0  0  0  0  0  0  0
    7.1612  -16.7968   24.4062 N   0  0  0  0  0  0  0  0  0  0  0  0
    8.6739  -15.0358   23.9222 C   0  0  0  0  0  0  0  0  0  0  0  0
    9.0315  -13.8343   23.6420 O   0  0  0  0  0  0  0  0  0  0  0  0
   11.1009  -13.8646   29.8118 C   0  0  0  0  0  0  0  0  0  0  0  0
   10.1586  -14.1298   28.2781 S   0  0  0  0  0  0  0  0  0  0  0  0
   10.3605  -15.8946   27.8120 C   0  0  0  0  0  0  0  0  0  0  0  0
    9.6511  -16.0673   26.5097 C   0  0  0  0  0  0  0  0  0  0  0  0
   10.5536  -15.8239   25.3430 C   0  0  2  0  0  0  0  0  0  0  0  0
    9.7209  -15.9344   24.1403 N   0  0  0  0  0  0  0  0  0  0  0  0
   11.6722  -16.7521   25.2017 C   0  0  0  0  0  0  0  0  0  0  0  0
   11.4936  -17.9135   24.7815 O   0  0  0  0  0  0  0  0  0  0  0  0
   12.9566  -16.3640   25.5296 O   0  0  0  0  0  0  0  0  0  0  0  0
  2 12  2  0
  2  1  1  0
  3  2  1  0
  4  5  1  0
  4  3  2  0
  5 11  2  0
  6  5  1  0
  6  7  1  0
  7  9  1  0
  7  8  1  6
  9 18  1  0
 10  9  2  0
 11 12  1  0
 13 14  1  0
 14 15  1  0
 16 15  1  0
 17 16  1  1
 18 17  1  0
 19 17  1  0
 19 20  2  0
 22 21  1  0
 22 23  1  0
 23 24  1  0
 25 24  1  1
 25 27  1  0
 26 25  1  0
 26 19  1  0
 27 28  2  0
 27 29  1  0
M  END
$$$$
