YMM.pdb
     RDKit          3D

 29 29  0  0  1  0  0  0  0  0999 V2000
   10.5830  -15.5255   30.3308 O   0  0  0  0  0  0  0  0  0  0  0  0
    9.6379  -15.9805   29.4005 C   0  0  0  0  0  0  0  0  0  0  0  0
    8.8027  -15.1157   28.7304 C   0  0  0  0  0  0  0  0  0  0  0  0
    7.8788  -15.5786   27.8184 C   0  0  0  0  0  0  0  0  0  0  0  0
    7.7445  -16.9287   27.5315 C   0  0  0  0  0  0  0  0  0  0  0  0
    6.7573  -17.4496   26.5537 C   0  0  0  0  0  0  0  0  0  0  0  0
    7.5196  -17.9164   25.3378 C   0  0  2  0  0  0  0  0  0  0  0  0
    8.9219  -17.6362   25.5657 N   0  0  0  0  0  0  0  0  0  0  0  0
    7.0213  -17.2830   24.0921 C   0  0  0  0  0  0  0  0  0  0  0  0
    6.1851  -17.8329   23.3487 O   0  0  0  0  0  0  0  0  0  0  0  0
    8.5795  -17.7957   28.2014 C   0  0  0  0  0  0  0  0  0  0  0  0
    9.5178  -17.3273   29.1273 C   0  0  0  0  0  0  0  0  0  0  0  0
    7.3474  -11.8497   18.6763 C   0  0  0  0  0  0  0  0  0  0  0  0
    6.8244  -12.4777   20.2877 S   0  0  0  0  0  0  0  0  0  0  0  0
    7.8103  -13.9933   20.6259 C   0  0  0  0  0  0  0  0  0  0  0  0
    7.3050  -14.5564   21.9211 C   0  0  0  0  0  0  0  0  0  0  0  0
    8.0640  -15.7975   22.3832 C   0  0  2  0  0  0  0  0  0  0  0  0
    7.5347  -16.0009   23.7604 N   0  0  0  0  0  0  0  0  0  0  0  0
    9.5187  -15.5540   22.5406 C   0  0  0  0  0  0  0  0  0  0  0  0
    9.9387  -14.3577   22.7465 O   0  0  0  0  0  0  0  0  0  0  0  0
   11.0343  -13.6844   26.8829 C   0  0  0  0  0  0  0  0  0  0  0  0
   11.6882  -15.3460   27.2319 S   0  0  0  0  0  0  0  0  0  0  0  0
   12.3872  -15.9977   25.6636 C   0  0  0  0  0  0  0  0  0  0  0  0
   11.2599  -16.0317   24.6853 C   0  0  0  0  0  0  0  0  0  0  0  0
   11.7188  -16.4109   23.3140 C   0  0  2  0  0  0  0  0  0  0  0  0
   10.5123  -16.5345   22.4888 N   0  0  0  0  0  0  0  0  0  0  0  0
   12.4596  -17.6658   23.2174 C   0  0  0  0  0  0  0  0  0  0  0  0
   13.7044  -17.6715   23.1288 O   0  0  0  0  0  0  0  0  0  0  0  0
   11.7974  -18.8780   23.2231 O   0  0  0  0  0  0  0  0  0  0  0  0
  2 12  2  0
  2  1  1  0
  3  2  1  0
  4  5  1  0
  4  3  2  0
  5 11  2  0
  6  5  1  0
  6  7  1  0
  7  9  1  0
  7  8  1  1
  9 18  1  0
 10  9  2  0
 11 12  1  0
 13 14  1  0
 14 15  1  0
 16 15  1  0
 17 16  1  1
 18 17  1  0
 19 17  1  0
 19 20  2  0
 22 21  1  0
 22 23  1  0
 23 24  1  0
 25 24  1  1
 25 27  1  0
 26 25  1  0
 26 19  1  0
 27 28  2  0
 27 29  1  0
M  END
$$$$
