YMM.pdb
     RDKit          3D

 29 29  0  0  1  0  0  0  0  0999 V2000
    9.5617  -22.6585   29.9696 O   0  0  0  0  0  0  0  0  0  0  0  0
    9.1200  -22.1014   28.7611 C   0  0  0  0  0  0  0  0  0  0  0  0
    8.9379  -22.8665   27.6315 C   0  0  0  0  0  0  0  0  0  0  0  0
    8.5029  -22.3040   26.4509 C   0  0  0  0  0  0  0  0  0  0  0  0
    8.2285  -20.9490   26.3415 C   0  0  0  0  0  0  0  0  0  0  0  0
    7.7591  -20.3218   25.0813 C   0  0  0  0  0  0  0  0  0  0  0  0
    7.6113  -18.8413   25.3340 C   0  0  2  0  0  0  0  0  0  0  0  0
    6.4540  -18.6555   26.1842 N   0  0  0  0  0  0  0  0  0  0  0  0
    7.5032  -18.0698   24.0713 C   0  0  0  0  0  0  0  0  0  0  0  0
    8.2069  -18.3172   23.0723 O   0  0  0  0  0  0  0  0  0  0  0  0
    8.4104  -20.1817   27.4711 C   0  0  0  0  0  0  0  0  0  0  0  0
    8.8519  -20.7514   28.6702 C   0  0  0  0  0  0  0  0  0  0  0  0
    6.8961  -10.8228   26.0531 C   0  0  0  0  0  0  0  0  0  0  0  0
    6.5879  -12.5921   26.2504 S   0  0  0  0  0  0  0  0  0  0  0  0
    6.4895  -13.3176   24.5630 C   0  0  0  0  0  0  0  0  0  0  0  0
    6.2781  -14.7921   24.7391 C   0  0  0  0  0  0  0  0  0  0  0  0
    7.0478  -15.6425   23.7320 C   0  0  2  0  0  0  0  0  0  0  0  0
    6.5525  -17.0154   24.0291 N   0  0  0  0  0  0  0  0  0  0  0  0
    8.5060  -15.6711   24.0020 C   0  0  0  0  0  0  0  0  0  0  0  0
    9.3136  -15.1353   23.1590 O   0  0  0  0  0  0  0  0  0  0  0  0
   11.2033  -14.9751   29.6815 C   0  0  0  0  0  0  0  0  0  0  0  0
    9.8862  -13.9428   28.9673 S   0  0  0  0  0  0  0  0  0  0  0  0
    9.9340  -14.1796   27.1468 C   0  0  0  0  0  0  0  0  0  0  0  0
   10.5013  -15.5414   26.9167 C   0  0  0  0  0  0  0  0  0  0  0  0
   10.4967  -15.9133   25.4688 C   0  0  2  0  0  0  0  0  0  0  0  0
    9.1085  -16.2412   25.1260 N   0  0  0  0  0  0  0  0  0  0  0  0
   11.3310  -17.0553   25.1045 C   0  0  0  0  0  0  0  0  0  0  0  0
   10.8208  -18.1219   24.7055 O   0  0  0  0  0  0  0  0  0  0  0  0
   12.7074  -16.9798   25.1925 O   0  0  0  0  0  0  0  0  0  0  0  0
  2 12  2  0
  2  1  1  0
  3  2  1  0
  4  5  1  0
  4  3  2  0
  5 11  2  0
  6  5  1  0
  6  7  1  0
  7  9  1  0
  7  8  1  1
  9 18  1  0
 10  9  2  0
 11 12  1  0
 13 14  1  0
 14 15  1  0
 16 15  1  0
 17 16  1  1
 18 17  1  0
 19 17  1  0
 19 20  2  0
 22 21  1  0
 22 23  1  0
 23 24  1  0
 25 24  1  1
 25 27  1  0
 26 25  1  0
 26 19  1  0
 27 28  2  0
 27 29  1  0
M  END
$$$$
