FQC.pdb
     RDKit          3D

 27 27  0  0  1  0  0  0  0  0999 V2000
   23.5572  -10.5425  -17.2742 N   0  0  0  0  0  0  0  0  0  0  0  0
   23.6173   -9.1340  -16.9293 C   0  0  1  0  0  0  0  0  0  0  0  0
   24.9610   -8.5222  -17.0278 C   0  0  0  0  0  0  0  0  0  0  0  0
   26.0879   -9.3585  -16.5633 C   0  0  0  0  0  0  0  0  0  0  0  0
   26.3515   -9.5448  -15.2222 C   0  0  0  0  0  0  0  0  0  0  0  0
   27.4019  -10.3215  -14.7805 C   0  0  0  0  0  0  0  0  0  0  0  0
   28.2443  -10.9535  -15.6784 C   0  0  0  0  0  0  0  0  0  0  0  0
   27.9892  -10.7737  -17.0188 C   0  0  0  0  0  0  0  0  0  0  0  0
   26.9407   -9.9982  -17.4589 C   0  0  0  0  0  0  0  0  0  0  0  0
   22.5023   -8.3848  -17.5521 C   0  0  0  0  0  0  0  0  0  0  0  0
   21.9186   -8.7379  -18.5956 O   0  0  0  0  0  0  0  0  0  0  0  0
   17.4220   -8.6310  -18.7220 N   0  0  0  0  0  0  0  0  0  0  0  0
   17.7305   -8.5391  -17.3227 C   0  0  0  0  0  0  0  0  0  0  0  0
   16.9309   -9.0519  -16.5071 O   0  0  0  0  0  0  0  0  0  0  0  0
   18.9390   -7.8631  -16.8883 C   0  0  0  0  0  0  0  0  0  0  0  0
   19.7570   -7.1852  -17.9350 C   0  0  0  0  0  0  0  0  0  0  0  0
   20.9570   -6.4419  -17.4762 C   0  0  2  0  0  0  0  0  0  0  0  0
   22.0443   -7.1578  -16.9347 N   0  0  0  0  0  0  0  0  0  0  0  0
   20.5602   -5.1845  -16.8120 C   0  0  0  0  0  0  0  0  0  0  0  0
   20.5727   -5.2030  -15.5333 O   0  0  0  0  0  0  0  0  0  0  0  0
   20.1673   -3.9769  -17.4169 N   0  0  0  0  0  0  0  0  0  0  0  0
   19.7837   -2.8032  -16.6383 C   0  0  1  0  0  0  0  0  0  0  0  0
   19.7825   -1.5300  -17.4098 C   0  0  0  0  0  0  0  0  0  0  0  0
   19.4587   -0.1865  -16.1984 S   0  0  0  0  0  0  0  0  0  0  0  0
   18.4534   -3.0708  -16.0428 C   0  0  0  0  0  0  0  0  0  0  0  0
   17.5107   -3.5871  -16.7193 O   0  0  0  0  0  0  0  0  0  0  0  0
   18.1543   -2.7772  -14.7190 O   0  0  0  0  0  0  0  0  0  0  0  0
  2  1  1  6
  2  3  1  0
  4  3  1  0
  5  4  2  0
  6  5  1  0
  7  6  2  0
  7  8  1  0
  8  9  2  0
  9  4  1  0
 10 18  1  0
 10  2  1  0
 11 10  2  0
 13 12  1  0
 14 13  2  0
 15 13  1  0
 17 16  1  1
 16 15  1  0
 17 18  1  0
 19 21  1  0
 19 17  1  0
 20 19  2  0
 22 25  1  0
 22 21  1  0
 22 23  1  6
 24 23  1  0
 25 27  1  0
 26 25  2  0
M  END
$$$$
