FQC.pdb
     RDKit          3D

 27 27  0  0  1  0  0  0  0  0999 V2000
   23.8690  -10.4101  -17.2406 N   0  0  0  0  0  0  0  0  0  0  0  0
   23.9054   -9.9095  -15.8788 C   0  0  1  0  0  0  0  0  0  0  0  0
   25.2389   -9.4750  -15.4071 C   0  0  0  0  0  0  0  0  0  0  0  0
   26.3622  -10.3848  -15.7161 C   0  0  0  0  0  0  0  0  0  0  0  0
   26.4362  -11.6560  -15.1858 C   0  0  0  0  0  0  0  0  0  0  0  0
   27.4815  -12.5103  -15.4673 C   0  0  0  0  0  0  0  0  0  0  0  0
   28.5118  -12.1197  -16.3048 C   0  0  0  0  0  0  0  0  0  0  0  0
   28.4467  -10.8530  -16.8389 C   0  0  0  0  0  0  0  0  0  0  0  0
   27.4031  -10.0010  -16.5575 C   0  0  0  0  0  0  0  0  0  0  0  0
   22.7788   -8.9838  -15.6211 C   0  0  0  0  0  0  0  0  0  0  0  0
   22.1840   -8.3412  -16.5085 O   0  0  0  0  0  0  0  0  0  0  0  0
   18.3814   -9.0289  -10.8744 N   0  0  0  0  0  0  0  0  0  0  0  0
   18.0749   -7.9361  -11.7540 C   0  0  0  0  0  0  0  0  0  0  0  0
   16.9708   -7.3614  -11.6190 O   0  0  0  0  0  0  0  0  0  0  0  0
   19.0317   -7.5283  -12.7662 C   0  0  0  0  0  0  0  0  0  0  0  0
   20.2594   -8.3608  -12.9214 C   0  0  0  0  0  0  0  0  0  0  0  0
   21.2144   -7.9616  -13.9852 C   0  0  2  0  0  0  0  0  0  0  0  0
   22.3223   -8.7889  -14.2609 N   0  0  0  0  0  0  0  0  0  0  0  0
   21.4339   -6.5019  -13.9580 C   0  0  0  0  0  0  0  0  0  0  0  0
   22.5245   -6.1135  -13.4145 O   0  0  0  0  0  0  0  0  0  0  0  0
   20.5868   -5.4935  -14.4520 N   0  0  0  0  0  0  0  0  0  0  0  0
   21.0592   -4.1376  -14.7154 C   0  0  1  0  0  0  0  0  0  0  0  0
   22.1222   -4.0504  -15.7539 C   0  0  0  0  0  0  0  0  0  0  0  0
   22.6301   -2.2860  -15.8333 S   0  0  0  0  0  0  0  0  0  0  0  0
   19.8838   -3.3123  -15.0803 C   0  0  0  0  0  0  0  0  0  0  0  0
   19.7598   -2.1134  -14.6802 O   0  0  0  0  0  0  0  0  0  0  0  0
   18.8516   -3.7919  -15.8757 O   0  0  0  0  0  0  0  0  0  0  0  0
  2  1  1  6
  2  3  1  0
  4  3  1  0
  5  4  2  0
  6  5  1  0
  7  6  2  0
  7  8  1  0
  8  9  2  0
  9  4  1  0
 10 18  1  0
 10  2  1  0
 11 10  2  0
 13 12  1  0
 14 13  2  0
 15 13  1  0
 17 16  1  1
 16 15  1  0
 17 18  1  0
 19 21  1  0
 19 17  1  0
 20 19  2  0
 22 25  1  0
 22 21  1  0
 22 23  1  6
 24 23  1  0
 25 27  1  0
 26 25  2  0
M  END
$$$$
