FQC.pdb
     RDKit          3D

 27 27  0  0  1  0  0  0  0  0999 V2000
   28.5908  -20.7324   -8.8982 N   0  0  0  0  0  0  0  0  0  0  0  0
   27.1532  -20.5941   -8.7553 C   0  0  1  0  0  0  0  0  0  0  0  0
   26.7170  -19.6203   -7.7301 C   0  0  0  0  0  0  0  0  0  0  0  0
   27.4554  -19.6544   -6.4501 C   0  0  0  0  0  0  0  0  0  0  0  0
   27.2410  -20.6429   -5.5122 C   0  0  0  0  0  0  0  0  0  0  0  0
   27.9241  -20.6808   -4.3149 C   0  0  0  0  0  0  0  0  0  0  0  0
   28.8650  -19.7148   -4.0033 C   0  0  0  0  0  0  0  0  0  0  0  0
   29.0859  -18.7244   -4.9330 C   0  0  0  0  0  0  0  0  0  0  0  0
   28.4037  -18.6871   -6.1278 C   0  0  0  0  0  0  0  0  0  0  0  0
   26.4925  -20.5031  -10.0773 C   0  0  0  0  0  0  0  0  0  0  0  0
   26.5967  -19.5273  -10.8461 O   0  0  0  0  0  0  0  0  0  0  0  0
   25.2660  -20.6405  -16.0209 N   0  0  0  0  0  0  0  0  0  0  0  0
   25.6269  -21.7751  -15.2182 C   0  0  0  0  0  0  0  0  0  0  0  0
   26.7239  -22.3340  -15.4455 O   0  0  0  0  0  0  0  0  0  0  0  0
   24.7282  -22.2459  -14.1804 C   0  0  0  0  0  0  0  0  0  0  0  0
   25.3135  -22.4979  -12.8320 C   0  0  0  0  0  0  0  0  0  0  0  0
   24.9797  -21.5269  -11.7601 C   0  0  2  0  0  0  0  0  0  0  0  0
   25.6622  -21.6001  -10.5286 N   0  0  0  0  0  0  0  0  0  0  0  0
   23.5253  -21.2759  -11.7284 C   0  0  0  0  0  0  0  0  0  0  0  0
   22.9982  -21.2060  -10.5652 O   0  0  0  0  0  0  0  0  0  0  0  0
   22.6550  -21.1106  -12.8211 N   0  0  0  0  0  0  0  0  0  0  0  0
   21.4009  -20.3711  -12.7145 C   0  0  1  0  0  0  0  0  0  0  0  0
   21.5597  -18.9546  -12.2849 C   0  0  0  0  0  0  0  0  0  0  0  0
   19.8698  -18.3238  -11.9333 S   0  0  0  0  0  0  0  0  0  0  0  0
   20.7108  -20.4607  -14.0228 C   0  0  0  0  0  0  0  0  0  0  0  0
   19.4536  -20.6212  -14.1049 O   0  0  0  0  0  0  0  0  0  0  0  0
   21.3877  -20.3759  -15.2323 O   0  0  0  0  0  0  0  0  0  0  0  0
  2  1  1  6
  2  3  1  0
  4  3  1  0
  5  4  2  0
  6  5  1  0
  7  6  2  0
  7  8  1  0
  8  9  2  0
  9  4  1  0
 10 18  1  0
 10  2  1  0
 11 10  2  0
 13 12  1  0
 14 13  2  0
 15 13  1  0
 17 16  1  1
 16 15  1  0
 17 18  1  0
 19 21  1  0
 19 17  1  0
 20 19  2  0
 22 25  1  0
 22 21  1  0
 22 23  1  6
 24 23  1  0
 25 27  1  0
 26 25  2  0
M  END
$$$$
