FQC.pdb
     RDKit          3D

 27 27  0  0  1  0  0  0  0  0999 V2000
   22.9744  -16.4913  -20.1411 N   0  0  0  0  0  0  0  0  0  0  0  0
   23.7527  -16.6276  -18.9237 C   0  0  1  0  0  0  0  0  0  0  0  0
   24.0174  -15.3616  -18.2050 C   0  0  0  0  0  0  0  0  0  0  0  0
   24.7248  -14.3167  -18.9749 C   0  0  0  0  0  0  0  0  0  0  0  0
   26.0624  -14.4273  -19.2934 C   0  0  0  0  0  0  0  0  0  0  0  0
   26.7303  -13.4562  -20.0094 C   0  0  0  0  0  0  0  0  0  0  0  0
   26.0751  -12.3167  -20.4426 C   0  0  0  0  0  0  0  0  0  0  0  0
   24.7402  -12.1974  -20.1297 C   0  0  0  0  0  0  0  0  0  0  0  0
   24.0743  -13.1670  -19.4150 C   0  0  0  0  0  0  0  0  0  0  0  0
   23.2687  -17.7634  -18.1062 C   0  0  0  0  0  0  0  0  0  0  0  0
   22.0649  -18.0208  -17.9089 O   0  0  0  0  0  0  0  0  0  0  0  0
   26.2909  -23.2956  -16.4480 N   0  0  0  0  0  0  0  0  0  0  0  0
   25.0752  -23.2400  -15.6859 C   0  0  0  0  0  0  0  0  0  0  0  0
   24.7721  -24.2320  -14.9848 O   0  0  0  0  0  0  0  0  0  0  0  0
   24.2349  -22.0581  -15.7444 C   0  0  0  0  0  0  0  0  0  0  0  0
   24.7373  -20.9008  -16.5396 C   0  0  0  0  0  0  0  0  0  0  0  0
   23.8075  -19.7596  -16.7301 C   0  0  2  0  0  0  0  0  0  0  0  0
   24.2326  -18.6436  -17.4796 N   0  0  0  0  0  0  0  0  0  0  0  0
   23.0416  -19.5082  -15.4933 C   0  0  0  0  0  0  0  0  0  0  0  0
   23.6727  -18.8990  -14.5625 O   0  0  0  0  0  0  0  0  0  0  0  0
   21.7085  -19.8624  -15.2178 N   0  0  0  0  0  0  0  0  0  0  0  0
   21.0628  -19.5426  -13.9483 C   0  0  1  0  0  0  0  0  0  0  0  0
   20.0293  -18.4750  -14.0386 C   0  0  0  0  0  0  0  0  0  0  0  0
   18.7337  -19.0989  -15.1829 S   0  0  0  0  0  0  0  0  0  0  0  0
   20.4922  -20.7967  -13.4028 C   0  0  0  0  0  0  0  0  0  0  0  0
   19.9372  -20.8366  -12.2612 O   0  0  0  0  0  0  0  0  0  0  0  0
   20.5272  -21.9982  -14.0981 O   0  0  0  0  0  0  0  0  0  0  0  0
  2  1  1  6
  2  3  1  0
  4  3  1  0
  5  4  2  0
  6  5  1  0
  7  6  2  0
  7  8  1  0
  8  9  2  0
  9  4  1  0
 10 18  1  0
 10  2  1  0
 11 10  2  0
 13 12  1  0
 14 13  2  0
 15 13  1  0
 17 16  1  1
 16 15  1  0
 17 18  1  0
 19 21  1  0
 19 17  1  0
 20 19  2  0
 22 25  1  0
 22 21  1  0
 22 23  1  6
 24 23  1  0
 25 27  1  0
 26 25  2  0
M  END
$$$$
