FQC.pdb
     RDKit          3D

 27 27  0  0  1  0  0  0  0  0999 V2000
   27.3607  -21.9942  -10.7712 N   0  0  0  0  0  0  0  0  0  0  0  0
   26.3655  -20.9408  -10.6919 C   0  0  1  0  0  0  0  0  0  0  0  0
   26.8324  -19.6846  -10.0646 C   0  0  0  0  0  0  0  0  0  0  0  0
   27.2546  -19.7855   -8.6516 C   0  0  0  0  0  0  0  0  0  0  0  0
   26.3436  -19.9581   -7.6303 C   0  0  0  0  0  0  0  0  0  0  0  0
   26.7289  -20.0510   -6.3095 C   0  0  0  0  0  0  0  0  0  0  0  0
   28.0638  -19.9737   -5.9522 C   0  0  0  0  0  0  0  0  0  0  0  0
   28.9802  -19.8016   -6.9643 C   0  0  0  0  0  0  0  0  0  0  0  0
   28.5949  -19.7089   -8.2824 C   0  0  0  0  0  0  0  0  0  0  0  0
   25.6274  -20.8079  -11.9687 C   0  0  0  0  0  0  0  0  0  0  0  0
   26.1280  -21.0158  -13.0914 O   0  0  0  0  0  0  0  0  0  0  0  0
   21.7439  -23.1328  -14.4381 N   0  0  0  0  0  0  0  0  0  0  0  0
   21.1690  -21.9634  -15.0413 C   0  0  0  0  0  0  0  0  0  0  0  0
   20.5521  -22.0994  -16.1222 O   0  0  0  0  0  0  0  0  0  0  0  0
   21.3143  -20.6695  -14.4001 C   0  0  0  0  0  0  0  0  0  0  0  0
   22.0330  -20.6307  -13.0939 C   0  0  0  0  0  0  0  0  0  0  0  0
   23.4861  -20.3304  -13.1328 C   0  0  2  0  0  0  0  0  0  0  0  0
   24.2365  -20.4067  -11.9416 N   0  0  0  0  0  0  0  0  0  0  0  0
   23.7535  -19.2007  -14.0448 C   0  0  0  0  0  0  0  0  0  0  0  0
   23.4919  -18.0378  -13.5814 O   0  0  0  0  0  0  0  0  0  0  0  0
   24.2544  -19.2531  -15.3582 N   0  0  0  0  0  0  0  0  0  0  0  0
   25.1887  -18.2587  -15.8770 C   0  0  1  0  0  0  0  0  0  0  0  0
   26.4776  -18.1838  -15.1358 C   0  0  0  0  0  0  0  0  0  0  0  0
   27.5789  -17.0852  -16.1143 S   0  0  0  0  0  0  0  0  0  0  0  0
   25.4115  -18.5531  -17.3121 C   0  0  0  0  0  0  0  0  0  0  0  0
   25.9467  -17.7058  -18.0922 O   0  0  0  0  0  0  0  0  0  0  0  0
   25.0529  -19.7632  -17.8913 O   0  0  0  0  0  0  0  0  0  0  0  0
  2  1  1  6
  2  3  1  0
  4  3  1  0
  5  4  2  0
  6  5  1  0
  7  6  2  0
  7  8  1  0
  8  9  2  0
  9  4  1  0
 10 18  1  0
 10  2  1  0
 11 10  2  0
 13 12  1  0
 14 13  2  0
 15 13  1  0
 17 16  1  1
 16 15  1  0
 17 18  1  0
 19 21  1  0
 19 17  1  0
 20 19  2  0
 22 25  1  0
 22 21  1  0
 22 23  1  1
 24 23  1  0
 25 27  1  0
 26 25  2  0
M  END
$$$$
