FQC.pdb
     RDKit          3D

 27 27  0  0  1  0  0  0  0  0999 V2000
   23.8057   -9.6613  -18.2873 N   0  0  0  0  0  0  0  0  0  0  0  0
   23.5105   -8.5209  -17.4394 C   0  0  1  0  0  0  0  0  0  0  0  0
   24.6940   -7.8544  -16.8524 C   0  0  0  0  0  0  0  0  0  0  0  0
   25.6962   -8.7457  -16.2310 C   0  0  0  0  0  0  0  0  0  0  0  0
   26.9580   -8.9062  -16.7647 C   0  0  0  0  0  0  0  0  0  0  0  0
   27.8980   -9.7371  -16.1925 C   0  0  0  0  0  0  0  0  0  0  0  0
   27.6079  -10.4526  -15.0439 C   0  0  0  0  0  0  0  0  0  0  0  0
   26.3514  -10.2990  -14.5038 C   0  0  0  0  0  0  0  0  0  0  0  0
   25.4136   -9.4694  -15.0755 C   0  0  0  0  0  0  0  0  0  0  0  0
   22.4977   -7.6400  -18.0646 C   0  0  0  0  0  0  0  0  0  0  0  0
   22.5009   -7.3140  -19.2679 O   0  0  0  0  0  0  0  0  0  0  0  0
   16.4344   -7.8007  -18.3722 N   0  0  0  0  0  0  0  0  0  0  0  0
   16.9801   -7.7430  -17.0454 C   0  0  0  0  0  0  0  0  0  0  0  0
   16.2568   -8.1135  -16.0930 O   0  0  0  0  0  0  0  0  0  0  0  0
   18.3334   -7.2618  -16.8369 C   0  0  0  0  0  0  0  0  0  0  0  0
   19.0805   -6.7821  -18.0353 C   0  0  0  0  0  0  0  0  0  0  0  0
   20.4504   -6.2572  -17.8098 C   0  0  2  0  0  0  0  0  0  0  0  0
   21.4281   -7.1042  -17.2490 N   0  0  0  0  0  0  0  0  0  0  0  0
   20.3943   -4.8603  -17.3353 C   0  0  0  0  0  0  0  0  0  0  0  0
   20.6429   -4.6845  -16.0931 O   0  0  0  0  0  0  0  0  0  0  0  0
   20.0960   -3.7071  -18.0834 N   0  0  0  0  0  0  0  0  0  0  0  0
   20.0744   -2.3747  -17.4875 C   0  0  1  0  0  0  0  0  0  0  0  0
   20.0738   -1.2616  -18.4760 C   0  0  0  0  0  0  0  0  0  0  0  0
   21.7649   -1.1997  -19.1927 S   0  0  0  0  0  0  0  0  0  0  0  0
   18.8953   -2.2985  -16.5931 C   0  0  0  0  0  0  0  0  0  0  0  0
   17.8563   -2.9997  -16.7970 O   0  0  0  0  0  0  0  0  0  0  0  0
   18.8507   -1.4633  -15.4847 O   0  0  0  0  0  0  0  0  0  0  0  0
  2  1  1  6
  2  3  1  0
  4  3  1  0
  5  4  2  0
  6  5  1  0
  7  6  2  0
  7  8  1  0
  8  9  2  0
  9  4  1  0
 10 18  1  0
 10  2  1  0
 11 10  2  0
 13 12  1  0
 14 13  2  0
 15 13  1  0
 17 16  1  1
 16 15  1  0
 17 18  1  0
 19 21  1  0
 19 17  1  0
 20 19  2  0
 22 25  1  0
 22 21  1  0
 22 23  1  6
 24 23  1  0
 25 27  1  0
 26 25  2  0
M  END
$$$$
