FQC.pdb
     RDKit          3D

 27 27  0  0  1  0  0  0  0  0999 V2000
   16.6629  -11.8427  -18.9789 N   0  0  0  0  0  0  0  0  0  0  0  0
   17.1687  -10.5092  -19.2476 C   0  0  1  0  0  0  0  0  0  0  0  0
   16.4343   -9.7595  -20.2906 C   0  0  0  0  0  0  0  0  0  0  0  0
   16.2576  -10.4546  -21.5831 C   0  0  0  0  0  0  0  0  0  0  0  0
   15.0540  -11.0228  -21.9454 C   0  0  0  0  0  0  0  0  0  0  0  0
   14.8813  -11.6748  -23.1482 C   0  0  0  0  0  0  0  0  0  0  0  0
   15.9238  -11.7858  -24.0517 C   0  0  0  0  0  0  0  0  0  0  0  0
   17.1286  -11.2219  -23.6992 C   0  0  0  0  0  0  0  0  0  0  0  0
   17.3003  -10.5713  -22.4985 C   0  0  0  0  0  0  0  0  0  0  0  0
   17.4536   -9.7837  -17.9886 C   0  0  0  0  0  0  0  0  0  0  0  0
   16.7020   -9.7862  -16.9940 O   0  0  0  0  0  0  0  0  0  0  0  0
   22.3590   -9.2158  -14.2173 N   0  0  0  0  0  0  0  0  0  0  0  0
   21.4773   -8.1543  -13.8203 C   0  0  0  0  0  0  0  0  0  0  0  0
   21.7005   -7.5776  -12.7316 O   0  0  0  0  0  0  0  0  0  0  0  0
   20.3629   -7.7793  -14.6711 C   0  0  0  0  0  0  0  0  0  0  0  0
   20.1113   -8.6190  -15.8776 C   0  0  0  0  0  0  0  0  0  0  0  0
   18.9450   -8.2551  -16.7207 C   0  0  2  0  0  0  0  0  0  0  0  0
   18.6723   -9.0095  -17.8802 N   0  0  0  0  0  0  0  0  0  0  0  0
   18.8096   -6.7875  -16.8053 C   0  0  0  0  0  0  0  0  0  0  0  0
   19.5161   -6.2147  -17.7045 O   0  0  0  0  0  0  0  0  0  0  0  0
   18.0034   -5.9491  -16.0143 N   0  0  0  0  0  0  0  0  0  0  0  0
   17.9567   -4.5029  -16.2076 C   0  0  1  0  0  0  0  0  0  0  0  0
   16.6285   -3.8905  -15.9301 C   0  0  0  0  0  0  0  0  0  0  0  0
   16.8217   -2.0827  -16.1980 S   0  0  0  0  0  0  0  0  0  0  0  0
   19.0130   -3.8995  -15.3613 C   0  0  0  0  0  0  0  0  0  0  0  0
   19.6254   -2.8430  -15.7101 O   0  0  0  0  0  0  0  0  0  0  0  0
   19.3978   -4.4451  -14.1437 O   0  0  0  0  0  0  0  0  0  0  0  0
  2  1  1  1
  2  3  1  0
  4  3  1  0
  5  4  2  0
  6  5  1  0
  7  6  2  0
  7  8  1  0
  8  9  2  0
  9  4  1  0
 10 18  1  0
 10  2  1  0
 11 10  2  0
 13 12  1  0
 14 13  2  0
 15 13  1  0
 17 16  1  6
 16 15  1  0
 17 18  1  0
 19 21  1  0
 19 17  1  0
 20 19  2  0
 22 25  1  0
 22 21  1  0
 22 23  1  1
 24 23  1  0
 25 27  1  0
 26 25  2  0
M  END
$$$$
