KHM.pdb
     RDKit          3D

 28 28  0  0  1  0  0  0  0  0999 V2000
   32.0271  -30.8658  -19.6849 N   0  0  0  0  0  0  0  0  0  0  0  0
   31.9205  -30.1040  -18.4725 C   0  0  1  0  0  0  0  0  0  0  0  0
   32.8702  -28.9541  -18.4673 C   0  0  0  0  0  0  0  0  0  0  0  0
   32.8926  -28.0572  -19.6361 C   0  0  0  0  0  0  0  0  0  0  0  0
   33.9159  -26.9749  -19.5293 C   0  0  0  0  0  0  0  0  0  0  0  0
   33.8825  -26.0645  -20.7152 C   0  0  0  0  0  0  0  0  0  0  0  0
   34.8868  -25.0122  -20.6237 N   0  0  0  0  0  0  0  0  0  0  0  0
   30.5448  -29.5031  -18.3110 C   0  0  0  0  0  0  0  0  0  0  0  0
   29.8352  -29.2026  -19.2778 O   0  0  0  0  0  0  0  0  0  0  0  0
   30.0854  -29.2905  -17.0100 N   0  0  0  0  0  0  0  0  0  0  0  0
   28.7256  -28.7983  -16.7234 C   0  0  1  0  0  0  0  0  0  0  0  0
   28.2922  -29.4769  -15.4635 C   0  0  0  0  0  0  0  0  0  0  0  0
   27.8462  -30.8615  -15.6446 C   0  0  0  0  0  0  0  0  0  0  0  0
   27.8107  -31.4969  -16.8859 C   0  0  0  0  0  0  0  0  0  0  0  0
   27.3468  -32.7539  -16.6427 N   0  0  0  0  0  0  0  0  0  0  0  0
   27.1018  -32.9167  -15.3437 C   0  0  0  0  0  0  0  0  0  0  0  0
   27.4101  -31.7526  -14.7376 N   0  0  0  0  0  0  0  0  0  0  0  0
   28.7724  -27.3330  -16.6397 C   0  0  0  0  0  0  0  0  0  0  0  0
   29.9076  -26.7820  -16.5777 O   0  0  0  0  0  0  0  0  0  0  0  0
   29.1008  -21.1617  -20.1718 C   0  0  0  0  0  0  0  0  0  0  0  0
   29.2260  -22.9184  -19.8138 S   0  0  0  0  0  0  0  0  0  0  0  0
   28.4259  -23.2138  -18.1906 C   0  0  0  0  0  0  0  0  0  0  0  0
   28.4226  -24.6983  -17.9800 C   0  0  0  0  0  0  0  0  0  0  0  0
   27.7316  -25.0237  -16.6819 C   0  0  2  0  0  0  0  0  0  0  0  0
   27.6337  -26.5109  -16.6244 N   0  0  0  0  0  0  0  0  0  0  0  0
   26.3438  -24.5386  -16.7335 C   0  0  0  0  0  0  0  0  0  0  0  0
   25.4441  -25.2992  -17.1696 O   0  0  0  0  0  0  0  0  0  0  0  0
   25.9270  -23.2869  -16.3313 O   0  0  0  0  0  0  0  0  0  0  0  0
  2  1  1  6
  2  3  1  0
  3  4  1  0
  5  4  1  0
  5  6  1  0
  7  6  1  0
  8  9  2  0
  8  2  1  0
 10  8  1  0
 11 10  1  0
 11 12  1  1
 12 13  1  0
 13 17  1  0
 13 14  2  0
 14 15  1  0
 16 15  1  0
 17 16  2  0
 18 25  1  0
 18 11  1  0
 19 18  2  0
 20 21  1  0
 21 22  1  0
 23 22  1  0
 24 23  1  6
 24 25  1  0
 26 28  1  0
 26 24  1  0
 27 26  2  0
M  END
$$$$
