KHM.pdb
     RDKit          3D

 28 28  0  0  1  0  0  0  0  0999 V2000
   26.4087  -22.4795  -15.7704 N   0  0  0  0  0  0  0  0  0  0  0  0
   27.4457  -21.6173  -15.2774 C   0  0  1  0  0  0  0  0  0  0  0  0
   27.9406  -20.6976  -16.3420 C   0  0  0  0  0  0  0  0  0  0  0  0
   28.4083  -21.2811  -17.6116 C   0  0  0  0  0  0  0  0  0  0  0  0
   27.8279  -20.6153  -18.8157 C   0  0  0  0  0  0  0  0  0  0  0  0
   28.8827  -19.9511  -19.6416 C   0  0  0  0  0  0  0  0  0  0  0  0
   29.9381  -20.8793  -20.0281 N   0  0  0  0  0  0  0  0  0  0  0  0
   26.9483  -20.7282  -14.1630 C   0  0  0  0  0  0  0  0  0  0  0  0
   27.4437  -19.6201  -13.9280 O   0  0  0  0  0  0  0  0  0  0  0  0
   25.8894  -21.2026  -13.3868 N   0  0  0  0  0  0  0  0  0  0  0  0
   25.2671  -20.3948  -12.3221 C   0  0  1  0  0  0  0  0  0  0  0  0
   23.8081  -20.3321  -12.6435 C   0  0  0  0  0  0  0  0  0  0  0  0
   23.4625  -19.3808  -13.7039 C   0  0  0  0  0  0  0  0  0  0  0  0
   24.3924  -18.5274  -14.2980 C   0  0  0  0  0  0  0  0  0  0  0  0
   23.6958  -17.8110  -15.2231 N   0  0  0  0  0  0  0  0  0  0  0  0
   22.4144  -18.1746  -15.2255 C   0  0  0  0  0  0  0  0  0  0  0  0
   22.2783  -19.1374  -14.2917 N   0  0  0  0  0  0  0  0  0  0  0  0
   25.5785  -21.0161  -11.0286 C   0  0  0  0  0  0  0  0  0  0  0  0
   25.3425  -22.2500  -10.8952 O   0  0  0  0  0  0  0  0  0  0  0  0
   28.9349  -18.2237   -6.6134 C   0  0  0  0  0  0  0  0  0  0  0  0
   28.4047  -19.5180   -5.4849 S   0  0  0  0  0  0  0  0  0  0  0  0
   27.1184  -20.5077   -6.3383 C   0  0  0  0  0  0  0  0  0  0  0  0
   27.0954  -20.0405   -7.7628 C   0  0  0  0  0  0  0  0  0  0  0  0
   26.1709  -20.9158   -8.5675 C   0  0  2  0  0  0  0  0  0  0  0  0
   26.1213  -20.3220   -9.9348 N   0  0  0  0  0  0  0  0  0  0  0  0
   24.8039  -20.7987   -8.0367 C   0  0  0  0  0  0  0  0  0  0  0  0
   24.5403  -21.2849   -6.9087 O   0  0  0  0  0  0  0  0  0  0  0  0
   23.7535  -20.1819   -8.6834 O   0  0  0  0  0  0  0  0  0  0  0  0
  2  1  1  6
  2  3  1  0
  3  4  1  0
  5  4  1  0
  5  6  1  0
  7  6  1  0
  8  9  2  0
  8  2  1  0
 10  8  1  0
 11 10  1  0
 11 12  1  6
 12 13  1  0
 13 17  1  0
 13 14  2  0
 14 15  1  0
 16 15  1  0
 17 16  2  0
 18 25  1  0
 18 11  1  0
 19 18  2  0
 20 21  1  0
 21 22  1  0
 23 22  1  0
 24 23  1  1
 24 25  1  0
 26 28  1  0
 26 24  1  0
 27 26  2  0
M  END
$$$$
