KHM.pdb
     RDKit          3D

 28 28  0  0  1  0  0  0  0  0999 V2000
   29.0128  -24.0408  -18.0530 N   0  0  0  0  0  0  0  0  0  0  0  0
   27.6922  -23.5684  -17.7452 C   0  0  1  0  0  0  0  0  0  0  0  0
   26.7519  -24.7005  -17.5041 C   0  0  0  0  0  0  0  0  0  0  0  0
   27.2610  -26.0765  -17.6394 C   0  0  0  0  0  0  0  0  0  0  0  0
   27.7429  -26.6564  -16.3504 C   0  0  0  0  0  0  0  0  0  0  0  0
   27.8253  -28.1482  -16.4126 C   0  0  0  0  0  0  0  0  0  0  0  0
   29.1192  -28.6031  -16.9059 N   0  0  0  0  0  0  0  0  0  0  0  0
   27.6762  -22.7428  -16.4811 C   0  0  0  0  0  0  0  0  0  0  0  0
   28.6715  -22.6182  -15.7583 O   0  0  0  0  0  0  0  0  0  0  0  0
   26.4789  -22.1099  -16.1423 N   0  0  0  0  0  0  0  0  0  0  0  0
   26.4340  -20.9149  -15.2802 C   0  0  1  0  0  0  0  0  0  0  0  0
   25.6794  -19.8753  -16.0456 C   0  0  0  0  0  0  0  0  0  0  0  0
   26.5032  -18.7639  -16.5302 C   0  0  0  0  0  0  0  0  0  0  0  0
   27.8499  -18.6103  -16.2006 C   0  0  0  0  0  0  0  0  0  0  0  0
   28.2570  -17.4762  -16.8351 N   0  0  0  0  0  0  0  0  0  0  0  0
   27.2496  -16.9394  -17.5215 C   0  0  0  0  0  0  0  0  0  0  0  0
   26.1774  -17.7339  -17.3302 N   0  0  0  0  0  0  0  0  0  0  0  0
   25.8215  -21.2913  -13.9998 C   0  0  0  0  0  0  0  0  0  0  0  0
   24.8426  -22.0895  -14.0266 O   0  0  0  0  0  0  0  0  0  0  0  0
   25.9360  -20.2624   -6.1897 C   0  0  0  0  0  0  0  0  0  0  0  0
   26.6483  -19.8777   -7.7942 S   0  0  0  0  0  0  0  0  0  0  0  0
   25.6529  -20.7443   -9.0671 C   0  0  0  0  0  0  0  0  0  0  0  0
   26.3645  -20.5481  -10.3722 C   0  0  0  0  0  0  0  0  0  0  0  0
   25.5790  -21.1998  -11.4798 C   0  0  2  0  0  0  0  0  0  0  0  0
   26.2581  -20.8179  -12.7516 N   0  0  0  0  0  0  0  0  0  0  0  0
   24.2403  -20.5938  -11.5499 C   0  0  0  0  0  0  0  0  0  0  0  0
   24.0905  -19.5070  -12.1619 O   0  0  0  0  0  0  0  0  0  0  0  0
   23.0989  -21.1284  -10.9901 O   0  0  0  0  0  0  0  0  0  0  0  0
  2  1  1  1
  2  3  1  0
  3  4  1  0
  5  4  1  0
  5  6  1  0
  7  6  1  0
  8  9  2  0
  8  2  1  0
 10  8  1  0
 11 10  1  0
 11 12  1  6
 12 13  1  0
 13 17  1  0
 13 14  2  0
 14 15  1  0
 16 15  1  0
 17 16  2  0
 18 25  1  0
 18 11  1  0
 19 18  2  0
 20 21  1  0
 21 22  1  0
 23 22  1  0
 24 23  1  1
 24 25  1  0
 26 28  1  0
 26 24  1  0
 27 26  2  0
M  END
$$$$
