KHM.pdb
     RDKit          3D

 28 28  0  0  1  0  0  0  0  0999 V2000
   24.5324  -21.8858  -16.0908 N   0  0  0  0  0  0  0  0  0  0  0  0
   25.9070  -22.1953  -16.3674 C   0  0  1  0  0  0  0  0  0  0  0  0
   26.3714  -21.5358  -17.6217 C   0  0  0  0  0  0  0  0  0  0  0  0
   26.6677  -22.3819  -18.7911 C   0  0  0  0  0  0  0  0  0  0  0  0
   25.8825  -23.6518  -18.8142 C   0  0  0  0  0  0  0  0  0  0  0  0
   26.2295  -24.4940  -20.0001 C   0  0  0  0  0  0  0  0  0  0  0  0
   25.4303  -25.7117  -20.0573 N   0  0  0  0  0  0  0  0  0  0  0  0
   26.8216  -21.6943  -15.2754 C   0  0  0  0  0  0  0  0  0  0  0  0
   27.9379  -21.2185  -15.5122 O   0  0  0  0  0  0  0  0  0  0  0  0
   26.3621  -21.7858  -13.9603 N   0  0  0  0  0  0  0  0  0  0  0  0
   26.6367  -20.7442  -12.9538 C   0  0  1  0  0  0  0  0  0  0  0  0
   25.9644  -19.5017  -13.4437 C   0  0  0  0  0  0  0  0  0  0  0  0
   26.7774  -18.6942  -14.3579 C   0  0  0  0  0  0  0  0  0  0  0  0
   28.1395  -18.9126  -14.5650 C   0  0  0  0  0  0  0  0  0  0  0  0
   28.5294  -17.9726  -15.4700 N   0  0  0  0  0  0  0  0  0  0  0  0
   27.4975  -17.2065  -15.8198 C   0  0  0  0  0  0  0  0  0  0  0  0
   26.4265  -17.6544  -15.1342 N   0  0  0  0  0  0  0  0  0  0  0  0
   26.1563  -21.2222  -11.6511 C   0  0  0  0  0  0  0  0  0  0  0  0
   25.0751  -21.8754  -11.6249 O   0  0  0  0  0  0  0  0  0  0  0  0
   27.5481  -18.4676   -5.8279 C   0  0  0  0  0  0  0  0  0  0  0  0
   27.6264  -20.2321   -5.4959 S   0  0  0  0  0  0  0  0  0  0  0  0
   26.5429  -21.0756   -6.7111 C   0  0  0  0  0  0  0  0  0  0  0  0
   27.1118  -20.7815   -8.0668 C   0  0  0  0  0  0  0  0  0  0  0  0
   26.2454  -21.4102   -9.1263 C   0  0  2  0  0  0  0  0  0  0  0  0
   26.8252  -20.9966  -10.4368 N   0  0  0  0  0  0  0  0  0  0  0  0
   24.9043  -20.8074   -9.0803 C   0  0  0  0  0  0  0  0  0  0  0  0
   24.6820  -19.7557   -9.7306 O   0  0  0  0  0  0  0  0  0  0  0  0
   23.8347  -21.3090   -8.3687 O   0  0  0  0  0  0  0  0  0  0  0  0
  2  1  1  1
  2  3  1  0
  3  4  1  0
  5  4  1  0
  5  6  1  0
  7  6  1  0
  8  9  2  0
  8  2  1  0
 10  8  1  0
 11 10  1  0
 11 12  1  6
 12 13  1  0
 13 17  1  0
 13 14  2  0
 14 15  1  0
 16 15  1  0
 17 16  2  0
 18 25  1  0
 18 11  1  0
 19 18  2  0
 20 21  1  0
 21 22  1  0
 23 22  1  0
 24 23  1  1
 24 25  1  0
 26 28  1  0
 26 24  1  0
 27 26  2  0
M  END
$$$$
