KHM.pdb
     RDKit          3D

 28 28  0  0  1  0  0  0  0  0999 V2000
   27.6738  -22.5328  -15.5052 N   0  0  0  0  0  0  0  0  0  0  0  0
   27.9618  -21.1269  -15.4560 C   0  0  1  0  0  0  0  0  0  0  0  0
   27.7043  -20.4725  -16.7711 C   0  0  0  0  0  0  0  0  0  0  0  0
   28.3253  -21.0504  -17.9759 C   0  0  0  0  0  0  0  0  0  0  0  0
   28.1029  -20.2312  -19.2045 C   0  0  0  0  0  0  0  0  0  0  0  0
   28.7254  -20.8621  -20.4089 C   0  0  0  0  0  0  0  0  0  0  0  0
   28.6226  -20.0091  -21.5864 N   0  0  0  0  0  0  0  0  0  0  0  0
   27.0801  -20.4120  -14.4603 C   0  0  0  0  0  0  0  0  0  0  0  0
   27.0829  -19.1820  -14.3359 O   0  0  0  0  0  0  0  0  0  0  0  0
   26.2426  -21.1961  -13.6649 N   0  0  0  0  0  0  0  0  0  0  0  0
   25.3283  -20.6124  -12.6664 C   0  0  1  0  0  0  0  0  0  0  0  0
   23.9536  -21.0626  -13.0447 C   0  0  0  0  0  0  0  0  0  0  0  0
   23.3631  -20.3264  -14.1663 C   0  0  0  0  0  0  0  0  0  0  0  0
   23.0173  -18.9768  -14.0973 C   0  0  0  0  0  0  0  0  0  0  0  0
   22.5080  -18.6644  -15.3211 N   0  0  0  0  0  0  0  0  0  0  0  0
   22.5241  -19.7312  -16.1184 C   0  0  0  0  0  0  0  0  0  0  0  0
   23.0496  -20.7467  -15.4041 N   0  0  0  0  0  0  0  0  0  0  0  0
   25.7641  -21.0445  -11.3324 C   0  0  0  0  0  0  0  0  0  0  0  0
   25.9482  -22.2801  -11.1437 O   0  0  0  0  0  0  0  0  0  0  0  0
   28.8362  -18.8896   -4.4562 C   0  0  0  0  0  0  0  0  0  0  0  0
   28.5194  -18.5443   -6.1912 S   0  0  0  0  0  0  0  0  0  0  0  0
   27.4735  -19.9004   -6.8464 C   0  0  0  0  0  0  0  0  0  0  0  0
   27.2443  -19.5999   -8.2974 C   0  0  0  0  0  0  0  0  0  0  0  0
   26.3622  -20.6612   -8.9006 C   0  0  2  0  0  0  0  0  0  0  0  0
   25.9872  -20.1683  -10.2575 N   0  0  0  0  0  0  0  0  0  0  0  0
   25.1020  -20.7349   -8.1454 C   0  0  0  0  0  0  0  0  0  0  0  0
   25.1268  -21.1069   -6.9457 O   0  0  0  0  0  0  0  0  0  0  0  0
   23.8573  -20.4201   -8.6492 O   0  0  0  0  0  0  0  0  0  0  0  0
  2  1  1  6
  2  3  1  0
  3  4  1  0
  5  4  1  0
  5  6  1  0
  7  6  1  0
  8  9  2  0
  8  2  1  0
 10  8  1  0
 11 10  1  0
 11 12  1  6
 12 13  1  0
 13 17  1  0
 13 14  2  0
 14 15  1  0
 16 15  1  0
 17 16  2  0
 18 25  1  0
 18 11  1  0
 19 18  2  0
 20 21  1  0
 21 22  1  0
 23 22  1  0
 24 23  1  1
 24 25  1  0
 26 28  1  0
 26 24  1  0
 27 26  2  0
M  END
$$$$
