KGA.pdb
     RDKit          3D

 19 18  0  0  1  0  0  0  0  0999 V2000
   23.6278  -21.7742  -15.4985 N   0  0  0  0  0  0  0  0  0  0  0  0
   24.2400  -21.2694  -14.2574 C   0  0  1  0  0  0  0  0  0  0  0  0
   24.9559  -19.9807  -14.5137 C   0  0  0  0  0  0  0  0  0  0  0  0
   26.0125  -20.0373  -15.5745 C   0  0  0  0  0  0  0  0  0  0  0  0
   26.9940  -21.1612  -15.3238 C   0  0  0  0  0  0  0  0  0  0  0  0
   28.0158  -21.2647  -16.4353 C   0  0  0  0  0  0  0  0  0  0  0  0
   28.9232  -22.3697  -16.2446 N   0  0  0  0  0  0  0  0  0  0  0  0
   23.1697  -21.0601  -13.2508 C   0  0  0  0  0  0  0  0  0  0  0  0
   23.3513  -20.4948  -12.1599 O   0  0  0  0  0  0  0  0  0  0  0  0
   21.8647  -21.5281  -13.5423 N   0  0  0  0  0  0  0  0  0  0  0  0
   20.8398  -21.3852  -12.5343 C   0  0  0  0  0  0  0  0  0  0  0  0
   20.1268  -22.6571  -12.3689 C   0  0  0  0  0  0  0  0  0  0  0  0
   20.0237  -23.5334  -13.2665 O   0  0  0  0  0  0  0  0  0  0  0  0
   18.4918  -24.1780   -9.3533 C   0  0  0  0  0  0  0  0  0  0  0  0
   18.7754  -24.1229  -10.8380 C   0  0  2  0  0  0  0  0  0  0  0  0
   19.5085  -22.9090  -11.0935 N   0  0  0  0  0  0  0  0  0  0  0  0
   17.5641  -24.1461  -11.6535 C   0  0  0  0  0  0  0  0  0  0  0  0
   17.0044  -23.0862  -12.0538 O   0  0  0  0  0  0  0  0  0  0  0  0
   17.0006  -25.3583  -12.0065 O   0  0  0  0  0  0  0  0  0  0  0  0
  2  1  1  6
  3  2  1  0
  4  3  1  0
  5  4  1  0
  6  5  1  0
  7  6  1  0
  8  9  2  0
  8  2  1  0
 10  8  1  0
 11 10  1  0
 11 12  1  0
 12 16  1  0
 12 13  2  0
 15 14  1  1
 15 17  1  0
 16 15  1  0
 17 19  1  0
 18 17  2  0
M  END
$$$$
