KGA.pdb
     RDKit          3D

 19 18  0  0  1  0  0  0  0  0999 V2000
   19.9606  -12.8506  -17.3652 N   0  0  0  0  0  0  0  0  0  0  0  0
   18.6081  -13.1675  -16.8749 C   0  0  1  0  0  0  0  0  0  0  0  0
   18.6290  -14.4176  -16.0531 C   0  0  0  0  0  0  0  0  0  0  0  0
   18.6448  -15.6956  -16.8350 C   0  0  0  0  0  0  0  0  0  0  0  0
   18.5744  -16.9046  -15.9279 C   0  0  0  0  0  0  0  0  0  0  0  0
   18.7258  -18.1933  -16.7069 C   0  0  0  0  0  0  0  0  0  0  0  0
   18.7750  -19.3508  -15.8475 N   0  0  0  0  0  0  0  0  0  0  0  0
   18.1228  -12.0314  -16.0525 C   0  0  0  0  0  0  0  0  0  0  0  0
   17.0121  -12.0085  -15.4969 O   0  0  0  0  0  0  0  0  0  0  0  0
   18.9669  -10.9060  -15.8865 N   0  0  0  0  0  0  0  0  0  0  0  0
   18.5001   -9.8081  -15.0719 C   0  0  0  0  0  0  0  0  0  0  0  0
   18.4210   -8.5878  -15.8831 C   0  0  0  0  0  0  0  0  0  0  0  0
   18.7822   -8.5124  -17.0865 O   0  0  0  0  0  0  0  0  0  0  0  0
   16.8571   -5.2647  -15.1456 C   0  0  0  0  0  0  0  0  0  0  0  0
   17.7369   -6.1709  -15.9778 C   0  0  2  0  0  0  0  0  0  0  0  0
   17.8947   -7.4057  -15.2522 N   0  0  0  0  0  0  0  0  0  0  0  0
   19.0493   -5.5947  -16.2583 C   0  0  0  0  0  0  0  0  0  0  0  0
   20.0882   -5.9583  -15.6376 O   0  0  0  0  0  0  0  0  0  0  0  0
   19.1744   -4.6199  -17.2308 O   0  0  0  0  0  0  0  0  0  0  0  0
  2  1  1  1
  3  2  1  0
  4  3  1  0
  5  4  1  0
  6  5  1  0
  7  6  1  0
  8  9  2  0
  8  2  1  0
 10  8  1  0
 11 10  1  0
 11 12  1  0
 12 16  1  0
 12 13  2  0
 15 14  1  1
 15 17  1  0
 16 15  1  0
 17 19  1  0
 18 17  2  0
M  END
$$$$
