KGA.pdb
     RDKit          3D

 19 18  0  0  1  0  0  0  0  0999 V2000
   21.8013  -11.6928  -19.9969 N   0  0  0  0  0  0  0  0  0  0  0  0
   21.3093  -11.4135  -18.6367 C   0  0  1  0  0  0  0  0  0  0  0  0
   21.3948  -12.6420  -17.7869 C   0  0  0  0  0  0  0  0  0  0  0  0
   20.5641  -13.7991  -18.2517 C   0  0  0  0  0  0  0  0  0  0  0  0
   19.2209  -13.8355  -17.5560 C   0  0  0  0  0  0  0  0  0  0  0  0
   18.4242  -15.0603  -17.9501 C   0  0  0  0  0  0  0  0  0  0  0  0
   17.0955  -15.0542  -17.3884 N   0  0  0  0  0  0  0  0  0  0  0  0
   22.1365  -10.3326  -18.0451 C   0  0  0  0  0  0  0  0  0  0  0  0
   23.2868  -10.5057  -17.6097 O   0  0  0  0  0  0  0  0  0  0  0  0
   21.5916   -9.0272  -17.9689 N   0  0  0  0  0  0  0  0  0  0  0  0
   22.3664   -7.9932  -17.3228 C   0  0  0  0  0  0  0  0  0  0  0  0
   21.5780   -7.3827  -16.2461 C   0  0  0  0  0  0  0  0  0  0  0  0
   20.3804   -7.6751  -15.9917 O   0  0  0  0  0  0  0  0  0  0  0  0
   22.5705   -4.9753  -13.5465 C   0  0  0  0  0  0  0  0  0  0  0  0
   21.5373   -5.7349  -14.3484 C   0  0  2  0  0  0  0  0  0  0  0  0
   22.2254   -6.3859  -15.4341 N   0  0  0  0  0  0  0  0  0  0  0  0
   20.4813   -4.8775  -14.8799 C   0  0  0  0  0  0  0  0  0  0  0  0
   19.4922   -4.5188  -14.1799 O   0  0  0  0  0  0  0  0  0  0  0  0
   20.5524   -4.4364  -16.1884 O   0  0  0  0  0  0  0  0  0  0  0  0
  2  1  1  6
  3  2  1  0
  4  3  1  0
  5  4  1  0
  6  5  1  0
  7  6  1  0
  8  9  2  0
  8  2  1  0
 10  8  1  0
 11 10  1  0
 11 12  1  0
 12 16  1  0
 12 13  2  0
 15 14  1  6
 15 17  1  0
 16 15  1  0
 17 19  1  0
 18 17  2  0
M  END
$$$$
