KGA.pdb
     RDKit          3D

 19 18  0  0  1  0  0  0  0  0999 V2000
   24.7726  -33.3693  -10.4425 N   0  0  0  0  0  0  0  0  0  0  0  0
   24.7021  -32.8515   -9.0652 C   0  0  1  0  0  0  0  0  0  0  0  0
   23.4534  -33.3260   -8.3911 C   0  0  0  0  0  0  0  0  0  0  0  0
   22.1778  -32.7664   -8.9429 C   0  0  0  0  0  0  0  0  0  0  0  0
   20.9856  -33.1595   -8.0982 C   0  0  0  0  0  0  0  0  0  0  0  0
   19.6944  -32.6196   -8.6740 C   0  0  0  0  0  0  0  0  0  0  0  0
   18.5426  -33.0104   -7.8984 N   0  0  0  0  0  0  0  0  0  0  0  0
   25.8916  -33.3287   -8.3170 C   0  0  0  0  0  0  0  0  0  0  0  0
   26.6616  -34.2085   -8.7364 O   0  0  0  0  0  0  0  0  0  0  0  0
   26.1723  -32.7542   -7.0529 N   0  0  0  0  0  0  0  0  0  0  0  0
   27.3299  -33.2205   -6.3252 C   0  0  0  0  0  0  0  0  0  0  0  0
   26.9057  -34.1032   -5.2324 C   0  0  0  0  0  0  0  0  0  0  0  0
   25.7095  -34.4188   -5.0002 O   0  0  0  0  0  0  0  0  0  0  0  0
   28.9087  -35.9951   -2.6803 C   0  0  0  0  0  0  0  0  0  0  0  0
   27.6099  -35.4460   -3.2275 C   0  0  2  0  0  0  0  0  0  0  0  0
   27.9320  -34.6376   -4.3760 N   0  0  0  0  0  0  0  0  0  0  0  0
   26.8717  -34.6452   -2.2546 C   0  0  0  0  0  0  0  0  0  0  0  0
   26.9597  -33.3851   -2.2178 O   0  0  0  0  0  0  0  0  0  0  0  0
   26.0467  -35.2715   -1.3387 O   0  0  0  0  0  0  0  0  0  0  0  0
  2  1  1  6
  3  2  1  0
  4  3  1  0
  5  4  1  0
  6  5  1  0
  7  6  1  0
  8  9  2  0
  8  2  1  0
 10  8  1  0
 11 10  1  0
 11 12  1  0
 12 16  1  0
 12 13  2  0
 15 14  1  1
 15 17  1  0
 16 15  1  0
 17 19  1  0
 18 17  2  0
M  END
$$$$
