KGA.pdb
     RDKit          3D

 19 18  0  0  1  0  0  0  0  0999 V2000
   26.6702  -34.7995  -14.9673 N   0  0  0  0  0  0  0  0  0  0  0  0
   25.5492  -34.5576  -14.0427 C   0  0  1  0  0  0  0  0  0  0  0  0
   24.8370  -35.8375  -13.7376 C   0  0  0  0  0  0  0  0  0  0  0  0
   23.9860  -36.3750  -14.8475 C   0  0  0  0  0  0  0  0  0  0  0  0
   22.7894  -35.4874  -15.1118 C   0  0  0  0  0  0  0  0  0  0  0  0
   21.8493  -36.1085  -16.1221 C   0  0  0  0  0  0  0  0  0  0  0  0
   20.7247  -35.2559  -16.4209 N   0  0  0  0  0  0  0  0  0  0  0  0
   26.0852  -33.9678  -12.7907 C   0  0  0  0  0  0  0  0  0  0  0  0
   27.2262  -34.1951  -12.3558 O   0  0  0  0  0  0  0  0  0  0  0  0
   25.2558  -33.0958  -12.0433 N   0  0  0  0  0  0  0  0  0  0  0  0
   25.8198  -32.4220  -10.8966 C   0  0  0  0  0  0  0  0  0  0  0  0
   25.6505  -33.2543   -9.7000 C   0  0  0  0  0  0  0  0  0  0  0  0
   25.2119  -34.4341   -9.7138 O   0  0  0  0  0  0  0  0  0  0  0  0
   26.5756  -32.6212   -6.1196 C   0  0  0  0  0  0  0  0  0  0  0  0
   25.8649  -33.4055   -7.2001 C   0  0  2  0  0  0  0  0  0  0  0  0
   26.0123  -32.6746   -8.4330 N   0  0  0  0  0  0  0  0  0  0  0  0
   24.4469  -33.6127   -6.9184 C   0  0  0  0  0  0  0  0  0  0  0  0
   23.5425  -32.9598   -7.5122 O   0  0  0  0  0  0  0  0  0  0  0  0
   24.0669  -34.5492   -5.9748 O   0  0  0  0  0  0  0  0  0  0  0  0
  2  1  1  6
  3  2  1  0
  4  3  1  0
  5  4  1  0
  6  5  1  0
  7  6  1  0
  8  9  2  0
  8  2  1  0
 10  8  1  0
 11 10  1  0
 11 12  1  0
 12 16  1  0
 12 13  2  0
 15 14  1  1
 15 17  1  0
 16 15  1  0
 17 19  1  0
 18 17  2  0
M  END
$$$$
