GMM.pdb
     RDKit          3D

 21 20  0  0  1  0  0  0  0  0999 V2000
   24.2590  -14.1990  -20.0526 N   0  0  0  0  0  0  0  0  0  0  0  0
   24.4317  -12.7770  -20.2668 C   0  0  0  0  0  0  0  0  0  0  0  0
   24.2979  -12.0820  -18.9724 C   0  0  0  0  0  0  0  0  0  0  0  0
   23.3589  -12.3658  -18.1947 O   0  0  0  0  0  0  0  0  0  0  0  0
   27.9743  -13.2914  -15.0806 C   0  0  0  0  0  0  0  0  0  0  0  0
   27.1091  -12.3120  -16.3227 S   0  0  0  0  0  0  0  0  0  0  0  0
   27.0799  -10.5427  -15.8814 C   0  0  0  0  0  0  0  0  0  0  0  0
   26.3587   -9.7759  -16.9374 C   0  0  0  0  0  0  0  0  0  0  0  0
   25.0125  -10.3173  -17.3035 C   0  0  2  0  0  0  0  0  0  0  0  0
   25.1928  -11.0744  -18.5277 N   0  0  0  0  0  0  0  0  0  0  0  0
   23.9558   -9.3282  -17.4257 C   0  0  0  0  0  0  0  0  0  0  0  0
   23.8876   -8.5713  -18.4143 O   0  0  0  0  0  0  0  0  0  0  0  0
   17.6647  -10.5352  -16.5416 C   0  0  0  0  0  0  0  0  0  0  0  0
   17.7765   -8.8114  -16.0988 S   0  0  0  0  0  0  0  0  0  0  0  0
   19.3582   -8.0272  -16.3074 C   0  0  0  0  0  0  0  0  0  0  0  0
   20.5534   -8.8982  -16.2967 C   0  0  0  0  0  0  0  0  0  0  0  0
   21.8527   -8.2201  -16.5512 C   0  0  2  0  0  0  0  0  0  0  0  0
   22.9663   -9.1878  -16.4279 N   0  0  0  0  0  0  0  0  0  0  0  0
   22.0735   -7.2072  -15.4697 C   0  0  0  0  0  0  0  0  0  0  0  0
   22.8578   -7.5009  -14.5257 O   0  0  0  0  0  0  0  0  0  0  0  0
   21.4670   -5.9756  -15.4508 O   0  0  0  0  0  0  0  0  0  0  0  0
  1  2  1  0
  2  3  1  0
  3  4  2  0
  6  5  1  0
  7  6  1  0
  8  7  1  0
  9  8  1  6
  9 11  1  0
 10  9  1  0
 10  3  1  0
 11 12  2  0
 13 14  1  0
 15 14  1  0
 16 15  1  0
 17 16  1  1
 18 11  1  0
 18 17  1  0
 19 17  1  0
 19 21  1  0
 20 19  2  0
M  END
$$$$
