GMM.pdb
     RDKit          3D

 21 20  0  0  1  0  0  0  0  0999 V2000
   17.7212  -11.4235  -17.3976 N   0  0  0  0  0  0  0  0  0  0  0  0
   18.4207  -10.2673  -17.9186 C   0  0  0  0  0  0  0  0  0  0  0  0
   19.2467   -9.6872  -16.8427 C   0  0  0  0  0  0  0  0  0  0  0  0
   18.7093   -9.2177  -15.8143 O   0  0  0  0  0  0  0  0  0  0  0  0
   25.3475  -10.9666  -14.5268 C   0  0  0  0  0  0  0  0  0  0  0  0
   24.0113  -12.0954  -14.9634 S   0  0  0  0  0  0  0  0  0  0  0  0
   22.4310  -11.2119  -15.1829 C   0  0  0  0  0  0  0  0  0  0  0  0
   22.6934   -9.8406  -15.7065 C   0  0  0  0  0  0  0  0  0  0  0  0
   21.4775   -8.9844  -15.8733 C   0  0  2  0  0  0  0  0  0  0  0  0
   20.6634   -9.6203  -16.8918 N   0  0  0  0  0  0  0  0  0  0  0  0
   21.7365   -7.5877  -16.1768 C   0  0  0  0  0  0  0  0  0  0  0  0
   22.0944   -7.2274  -17.3156 O   0  0  0  0  0  0  0  0  0  0  0  0
   19.2748   -0.2858  -16.1648 C   0  0  0  0  0  0  0  0  0  0  0  0
   19.1377   -2.0464  -15.9166 S   0  0  0  0  0  0  0  0  0  0  0  0
   20.6553   -2.9557  -15.7413 C   0  0  0  0  0  0  0  0  0  0  0  0
   20.5538   -4.4254  -15.6119 C   0  0  0  0  0  0  0  0  0  0  0  0
   21.8430   -5.1554  -15.4780 C   0  0  2  0  0  0  0  0  0  0  0  0
   21.5920   -6.5861  -15.1918 N   0  0  0  0  0  0  0  0  0  0  0  0
   22.5625   -4.6215  -14.2774 C   0  0  0  0  0  0  0  0  0  0  0  0
   22.4666   -5.2560  -13.1908 O   0  0  0  0  0  0  0  0  0  0  0  0
   23.3210   -3.4771  -14.2965 O   0  0  0  0  0  0  0  0  0  0  0  0
  1  2  1  0
  2  3  1  0
  3  4  2  0
  6  5  1  0
  7  6  1  0
  8  7  1  0
  9  8  1  6
  9 11  1  0
 10  9  1  0
 10  3  1  0
 11 12  2  0
 13 14  1  0
 15 14  1  0
 16 15  1  0
 17 16  1  1
 18 11  1  0
 18 17  1  0
 19 17  1  0
 19 21  1  0
 20 19  2  0
M  END
$$$$
