GMM.pdb
     RDKit          3D

 21 20  0  0  1  0  0  0  0  0999 V2000
   28.3143  -22.1016  -15.4126 N   0  0  0  0  0  0  0  0  0  0  0  0
   28.0217  -20.9722  -14.5544 C   0  0  0  0  0  0  0  0  0  0  0  0
   27.0707  -21.4018  -13.5116 C   0  0  0  0  0  0  0  0  0  0  0  0
   26.1122  -22.1540  -13.7991 O   0  0  0  0  0  0  0  0  0  0  0  0
   27.7126  -19.2177   -7.3602 C   0  0  0  0  0  0  0  0  0  0  0  0
   26.5410  -20.5723   -7.1536 S   0  0  0  0  0  0  0  0  0  0  0  0
   25.6948  -20.9723   -8.7188 C   0  0  0  0  0  0  0  0  0  0  0  0
   26.6594  -20.8634   -9.8507 C   0  0  0  0  0  0  0  0  0  0  0  0
   26.0694  -21.0871  -11.2076 C   0  0  2  0  0  0  0  0  0  0  0  0
   27.1680  -21.0079  -12.1518 N   0  0  0  0  0  0  0  0  0  0  0  0
   24.9781  -20.1981  -11.5662 C   0  0  0  0  0  0  0  0  0  0  0  0
   25.1873  -19.1210  -12.1586 O   0  0  0  0  0  0  0  0  0  0  0  0
   20.7942  -20.7846  -17.2481 C   0  0  0  0  0  0  0  0  0  0  0  0
   22.0900  -20.8199  -16.0234 S   0  0  0  0  0  0  0  0  0  0  0  0
   21.6283  -21.3028  -14.3760 C   0  0  0  0  0  0  0  0  0  0  0  0
   22.6947  -21.3235  -13.3517 C   0  0  0  0  0  0  0  0  0  0  0  0
   22.5397  -20.3541  -12.2340 C   0  0  2  0  0  0  0  0  0  0  0  0
   23.6388  -20.5221  -11.2565 N   0  0  0  0  0  0  0  0  0  0  0  0
   21.2821  -20.6896  -11.4924 C   0  0  0  0  0  0  0  0  0  0  0  0
   21.2868  -21.6955  -10.7304 O   0  0  0  0  0  0  0  0  0  0  0  0
   20.1236  -19.9604  -11.5983 O   0  0  0  0  0  0  0  0  0  0  0  0
  1  2  1  0
  2  3  1  0
  3  4  2  0
  6  5  1  0
  7  6  1  0
  8  7  1  0
  9  8  1  1
  9 11  1  0
 10  9  1  0
 10  3  1  0
 11 12  2  0
 13 14  1  0
 15 14  1  0
 16 15  1  0
 17 16  1  6
 18 11  1  0
 18 17  1  0
 19 17  1  0
 19 21  1  0
 20 19  2  0
M  END
$$$$
