GMM.pdb
     RDKit          3D

 21 20  0  0  1  0  0  0  0  0999 V2000
   22.3460   -4.9836  -14.2467 N   0  0  0  0  0  0  0  0  0  0  0  0
   22.2702   -6.3248  -13.7052 C   0  0  0  0  0  0  0  0  0  0  0  0
   22.2789   -7.2890  -14.8217 C   0  0  0  0  0  0  0  0  0  0  0  0
   21.9491   -6.9275  -15.9739 O   0  0  0  0  0  0  0  0  0  0  0  0
   27.9262  -11.4390  -16.0538 C   0  0  0  0  0  0  0  0  0  0  0  0
   26.2557  -11.6956  -15.4262 S   0  0  0  0  0  0  0  0  0  0  0  0
   25.1618  -10.2955  -15.8375 C   0  0  0  0  0  0  0  0  0  0  0  0
   23.7710  -10.6010  -15.3952 C   0  0  0  0  0  0  0  0  0  0  0  0
   22.7457   -9.5832  -15.7855 C   0  0  2  0  0  0  0  0  0  0  0  0
   22.6488   -8.6515  -14.6778 N   0  0  0  0  0  0  0  0  0  0  0  0
   21.4489  -10.1185  -16.1618 C   0  0  0  0  0  0  0  0  0  0  0  0
   20.6268  -10.4907  -15.3014 O   0  0  0  0  0  0  0  0  0  0  0  0
   18.5443   -8.5921  -22.0959 C   0  0  0  0  0  0  0  0  0  0  0  0
   17.7540  -10.0897  -21.5367 S   0  0  0  0  0  0  0  0  0  0  0  0
   18.1415  -10.6387  -19.8909 C   0  0  0  0  0  0  0  0  0  0  0  0
   19.4476  -10.2307  -19.3301 C   0  0  0  0  0  0  0  0  0  0  0  0
   19.7081  -10.6442  -17.9251 C   0  0  2  0  0  0  0  0  0  0  0  0
   21.0719  -10.2368  -17.5176 N   0  0  0  0  0  0  0  0  0  0  0  0
   19.6971  -12.1411  -17.8664 C   0  0  0  0  0  0  0  0  0  0  0  0
   18.6211  -12.7198  -17.5503 O   0  0  0  0  0  0  0  0  0  0  0  0
   20.7966  -12.9173  -18.1379 O   0  0  0  0  0  0  0  0  0  0  0  0
  1  2  1  0
  2  3  1  0
  3  4  2  0
  6  5  1  0
  7  6  1  0
  8  7  1  0
  9  8  1  1
  9 11  1  0
 10  9  1  0
 10  3  1  0
 11 12  2  0
 13 14  1  0
 15 14  1  0
 16 15  1  0
 17 16  1  6
 18 11  1  0
 18 17  1  0
 19 17  1  0
 19 21  1  0
 20 19  2  0
M  END
$$$$
