GMM.pdb
     RDKit          3D

 21 20  0  0  1  0  0  0  0  0999 V2000
   28.5381  -22.3441  -15.8985 N   0  0  0  0  0  0  0  0  0  0  0  0
   28.2446  -21.1918  -15.0717 C   0  0  0  0  0  0  0  0  0  0  0  0
   27.2134  -21.5653  -14.0851 C   0  0  0  0  0  0  0  0  0  0  0  0
   26.3761  -22.4573  -14.3504 O   0  0  0  0  0  0  0  0  0  0  0  0
   27.9246  -20.5624   -7.8023 C   0  0  0  0  0  0  0  0  0  0  0  0
   26.1462  -20.2790   -7.8887 S   0  0  0  0  0  0  0  0  0  0  0  0
   25.4442  -20.8926   -9.4561 C   0  0  0  0  0  0  0  0  0  0  0  0
   26.4299  -20.6937  -10.5571 C   0  0  0  0  0  0  0  0  0  0  0  0
   25.9963  -21.2077  -11.8940 C   0  0  2  0  0  0  0  0  0  0  0  0
   27.0976  -20.9621  -12.8059 N   0  0  0  0  0  0  0  0  0  0  0  0
   24.7447  -20.6656  -12.3933 C   0  0  0  0  0  0  0  0  0  0  0  0
   24.6679  -19.4948  -12.8154 O   0  0  0  0  0  0  0  0  0  0  0  0
   18.4459  -22.8320  -16.6484 C   0  0  0  0  0  0  0  0  0  0  0  0
   19.9149  -23.1915  -15.7035 S   0  0  0  0  0  0  0  0  0  0  0  0
   20.5693  -21.8774  -14.7009 C   0  0  0  0  0  0  0  0  0  0  0  0
   21.8034  -22.1585  -13.9360 C   0  0  0  0  0  0  0  0  0  0  0  0
   22.3543  -21.0205  -13.1522 C   0  0  2  0  0  0  0  0  0  0  0  0
   23.5680  -21.4460  -12.4188 N   0  0  0  0  0  0  0  0  0  0  0  0
   21.3547  -20.6470  -12.1007 C   0  0  0  0  0  0  0  0  0  0  0  0
   21.4713  -21.1615  -10.9543 O   0  0  0  0  0  0  0  0  0  0  0  0
   20.3175  -19.7741  -12.3185 O   0  0  0  0  0  0  0  0  0  0  0  0
  1  2  1  0
  2  3  1  0
  3  4  2  0
  6  5  1  0
  7  6  1  0
  8  7  1  0
  9  8  1  1
  9 11  1  0
 10  9  1  0
 10  3  1  0
 11 12  2  0
 13 14  1  0
 15 14  1  0
 16 15  1  0
 17 16  1  1
 18 11  1  0
 18 17  1  0
 19 17  1  0
 19 21  1  0
 20 19  2  0
M  END
$$$$
