GMM.pdb
     RDKit          3D

 21 20  0  0  1  0  0  0  0  0999 V2000
   27.1799  -23.9101  -16.5760 N   0  0  0  0  0  0  0  0  0  0  0  0
   26.7049  -22.5842  -16.2385 C   0  0  0  0  0  0  0  0  0  0  0  0
   25.5954  -22.7082  -15.2742 C   0  0  0  0  0  0  0  0  0  0  0  0
   24.9371  -23.7703  -15.1987 O   0  0  0  0  0  0  0  0  0  0  0  0
   26.2702  -20.7065   -9.4013 C   0  0  0  0  0  0  0  0  0  0  0  0
   24.5207  -20.3068   -9.5741 S   0  0  0  0  0  0  0  0  0  0  0  0
   23.7654  -21.1925  -10.9780 C   0  0  0  0  0  0  0  0  0  0  0  0
   24.6427  -21.0692  -12.1773 C   0  0  0  0  0  0  0  0  0  0  0  0
   24.1662  -21.8088  -13.3878 C   0  0  2  0  0  0  0  0  0  0  0  0
   25.2048  -21.6686  -14.3908 N   0  0  0  0  0  0  0  0  0  0  0  0
   22.8648  -21.4055  -13.8915 C   0  0  0  0  0  0  0  0  0  0  0  0
   22.6897  -20.2861  -14.4121 O   0  0  0  0  0  0  0  0  0  0  0  0
   17.3324  -25.5569  -13.8081 C   0  0  0  0  0  0  0  0  0  0  0  0
   17.0258  -24.1840  -14.9041 S   0  0  0  0  0  0  0  0  0  0  0  0
   18.1173  -22.7872  -14.7702 C   0  0  0  0  0  0  0  0  0  0  0  0
   19.5103  -23.0532  -14.3507 C   0  0  0  0  0  0  0  0  0  0  0  0
   20.4051  -21.8668  -14.2827 C   0  0  2  0  0  0  0  0  0  0  0  0
   21.7494  -22.2679  -13.8096 N   0  0  0  0  0  0  0  0  0  0  0  0
   19.8696  -20.9338  -13.2401 C   0  0  0  0  0  0  0  0  0  0  0  0
   20.1838  -21.1388  -12.0352 O   0  0  0  0  0  0  0  0  0  0  0  0
   19.0539  -19.8670  -13.5261 O   0  0  0  0  0  0  0  0  0  0  0  0
  1  2  1  0
  2  3  1  0
  3  4  2  0
  6  5  1  0
  7  6  1  0
  8  7  1  0
  9  8  1  1
  9 11  1  0
 10  9  1  0
 10  3  1  0
 11 12  2  0
 13 14  1  0
 15 14  1  0
 16 15  1  0
 17 16  1  1
 18 11  1  0
 18 17  1  0
 19 17  1  0
 19 21  1  0
 20 19  2  0
M  END
$$$$
