GMM.pdb
     RDKit          3D

 21 20  0  0  1  0  0  0  0  0999 V2000
   31.0896  -22.3958  -10.6686 N   0  0  0  0  0  0  0  0  0  0  0  0
   30.7245  -21.1578  -10.0115 C   0  0  0  0  0  0  0  0  0  0  0  0
   29.3565  -21.2900   -9.4754 C   0  0  0  0  0  0  0  0  0  0  0  0
   28.6119  -22.2195   -9.8609 O   0  0  0  0  0  0  0  0  0  0  0  0
   27.4787  -18.2036   -4.1665 C   0  0  0  0  0  0  0  0  0  0  0  0
   28.2362  -19.8364   -4.0647 S   0  0  0  0  0  0  0  0  0  0  0  0
   28.3309  -20.6355   -5.7013 C   0  0  0  0  0  0  0  0  0  0  0  0
   27.4278  -19.9299   -6.6552 C   0  0  0  0  0  0  0  0  0  0  0  0
   27.4301  -20.4753   -8.0487 C   0  0  2  0  0  0  0  0  0  0  0  0
   28.8016  -20.4037   -8.5160 N   0  0  0  0  0  0  0  0  0  0  0  0
   26.5071  -19.8348   -8.9694 C   0  0  0  0  0  0  0  0  0  0  0  0
   26.7621  -18.7240   -9.4751 O   0  0  0  0  0  0  0  0  0  0  0  0
   27.6509  -21.1581  -14.4880 C   0  0  0  0  0  0  0  0  0  0  0  0
   26.0547  -21.9218  -14.2669 S   0  0  0  0  0  0  0  0  0  0  0  0
   24.9925  -21.2227  -13.0246 C   0  0  0  0  0  0  0  0  0  0  0  0
   25.5248  -21.1370  -11.6476 C   0  0  0  0  0  0  0  0  0  0  0  0
   24.7156  -20.3393  -10.6876 C   0  0  2  0  0  0  0  0  0  0  0  0
   25.2858  -20.4481   -9.3256 N   0  0  0  0  0  0  0  0  0  0  0  0
   23.3494  -20.9484  -10.6054 C   0  0  0  0  0  0  0  0  0  0  0  0
   23.0864  -21.6985   -9.6252 O   0  0  0  0  0  0  0  0  0  0  0  0
   22.3677  -20.7340  -11.5410 O   0  0  0  0  0  0  0  0  0  0  0  0
  1  2  1  0
  2  3  1  0
  3  4  2  0
  6  5  1  0
  7  6  1  0
  8  7  1  0
  9  8  1  1
  9 11  1  0
 10  9  1  0
 10  3  1  0
 11 12  2  0
 13 14  1  0
 15 14  1  0
 16 15  1  0
 17 16  1  6
 18 11  1  0
 18 17  1  0
 19 17  1  0
 19 21  1  0
 20 19  2  0
M  END
$$$$
