GMM.pdb
     RDKit          3D

 21 20  0  0  1  0  0  0  0  0999 V2000
   25.5576  -13.2576  -16.7663 N   0  0  0  0  0  0  0  0  0  0  0  0
   25.1885  -12.3961  -15.6620 C   0  0  0  0  0  0  0  0  0  0  0  0
   24.3349  -11.3072  -16.1739 C   0  0  0  0  0  0  0  0  0  0  0  0
   24.7822  -10.4919  -17.0118 O   0  0  0  0  0  0  0  0  0  0  0  0
   18.2491  -12.5204  -15.7690 C   0  0  0  0  0  0  0  0  0  0  0  0
   18.8499  -12.3551  -17.4608 S   0  0  0  0  0  0  0  0  0  0  0  0
   20.5566  -11.7140  -17.5073 C   0  0  0  0  0  0  0  0  0  0  0  0
   20.7494  -10.7253  -16.4079 C   0  0  0  0  0  0  0  0  0  0  0  0
   22.1113  -10.1086  -16.3442 C   0  0  2  0  0  0  0  0  0  0  0  0
   22.9895  -11.1095  -15.7683 N   0  0  0  0  0  0  0  0  0  0  0  0
   22.1892   -8.8432  -15.6351 C   0  0  0  0  0  0  0  0  0  0  0  0
   22.3513   -8.8014  -14.3995 O   0  0  0  0  0  0  0  0  0  0  0  0
   24.8353   -2.6481  -18.0225 C   0  0  0  0  0  0  0  0  0  0  0  0
   23.2032   -2.6169  -17.3047 S   0  0  0  0  0  0  0  0  0  0  0  0
   22.8141   -3.8959  -16.1329 C   0  0  0  0  0  0  0  0  0  0  0  0
   22.5975   -5.2589  -16.6642 C   0  0  0  0  0  0  0  0  0  0  0  0
   22.3231   -6.3139  -15.6520 C   0  0  2  0  0  0  0  0  0  0  0  0
   22.0840   -7.6130  -16.3205 N   0  0  0  0  0  0  0  0  0  0  0  0
   21.0412   -5.9740  -14.9552 C   0  0  0  0  0  0  0  0  0  0  0  0
   19.9664   -6.4517  -15.4125 O   0  0  0  0  0  0  0  0  0  0  0  0
   20.9737   -5.1694  -13.8447 O   0  0  0  0  0  0  0  0  0  0  0  0
  1  2  1  0
  2  3  1  0
  3  4  2  0
  6  5  1  0
  7  6  1  0
  8  7  1  0
  9  8  1  1
  9 11  1  0
 10  9  1  0
 10  3  1  0
 11 12  2  0
 13 14  1  0
 15 14  1  0
 16 15  1  0
 17 16  1  6
 18 11  1  0
 18 17  1  0
 19 17  1  0
 19 21  1  0
 20 19  2  0
M  END
$$$$
