GMM.pdb
     RDKit          3D

 21 20  0  0  1  0  0  0  0  0999 V2000
   28.4057  -21.9065  -15.8232 N   0  0  0  0  0  0  0  0  0  0  0  0
   28.0409  -20.7873  -14.9793 C   0  0  0  0  0  0  0  0  0  0  0  0
   27.0963  -21.2578  -13.9484 C   0  0  0  0  0  0  0  0  0  0  0  0
   26.3360  -22.2250  -14.1796 O   0  0  0  0  0  0  0  0  0  0  0  0
   27.7477  -20.6764   -7.3621 C   0  0  0  0  0  0  0  0  0  0  0  0
   26.1082  -20.0205   -7.7259 S   0  0  0  0  0  0  0  0  0  0  0  0
   25.4299  -20.7252   -9.2651 C   0  0  0  0  0  0  0  0  0  0  0  0
   26.3567  -20.4381  -10.3974 C   0  0  0  0  0  0  0  0  0  0  0  0
   25.9215  -20.9791  -11.7230 C   0  0  2  0  0  0  0  0  0  0  0  0
   26.9830  -20.6693  -12.6621 N   0  0  0  0  0  0  0  0  0  0  0  0
   24.6276  -20.5136  -12.1910 C   0  0  0  0  0  0  0  0  0  0  0  0
   24.4521  -19.3296  -12.5405 O   0  0  0  0  0  0  0  0  0  0  0  0
   20.7007  -24.9551  -15.2215 C   0  0  0  0  0  0  0  0  0  0  0  0
   19.9418  -23.3654  -15.4983 S   0  0  0  0  0  0  0  0  0  0  0  0
   20.5269  -22.0101  -14.5077 C   0  0  0  0  0  0  0  0  0  0  0  0
   21.8273  -22.1815  -13.8248 C   0  0  0  0  0  0  0  0  0  0  0  0
   22.2836  -21.0309  -12.9997 C   0  0  2  0  0  0  0  0  0  0  0  0
   23.5200  -21.3865  -12.2671 N   0  0  0  0  0  0  0  0  0  0  0  0
   21.2498  -20.7682  -11.9478 C   0  0  0  0  0  0  0  0  0  0  0  0
   21.3204  -21.4125  -10.8650 O   0  0  0  0  0  0  0  0  0  0  0  0
   20.2286  -19.8631  -12.0996 O   0  0  0  0  0  0  0  0  0  0  0  0
  1  2  1  0
  2  3  1  0
  3  4  2  0
  6  5  1  0
  7  6  1  0
  8  7  1  0
  9  8  1  1
  9 11  1  0
 10  9  1  0
 10  3  1  0
 11 12  2  0
 13 14  1  0
 15 14  1  0
 16 15  1  0
 17 16  1  6
 18 11  1  0
 18 17  1  0
 19 17  1  0
 19 21  1  0
 20 19  2  0
M  END
$$$$
