GMM.pdb
     RDKit          3D

 21 20  0  0  1  0  0  0  0  0999 V2000
   16.1228  -12.5635  -15.1256 N   0  0  0  0  0  0  0  0  0  0  0  0
   15.3930  -11.4107  -14.6397 C   0  0  0  0  0  0  0  0  0  0  0  0
   16.1933  -10.7490  -13.5918 C   0  0  0  0  0  0  0  0  0  0  0  0
   15.8715  -10.8553  -12.3867 O   0  0  0  0  0  0  0  0  0  0  0  0
   22.8402   -9.4745  -13.5349 C   0  0  0  0  0  0  0  0  0  0  0  0
   21.9433   -7.9189  -13.3738 S   0  0  0  0  0  0  0  0  0  0  0  0
   20.3358   -8.1538  -12.5449 C   0  0  0  0  0  0  0  0  0  0  0  0
   19.4275   -8.9393  -13.4289 C   0  0  0  0  0  0  0  0  0  0  0  0
   18.0787   -9.2307  -12.8501 C   0  0  2  0  0  0  0  0  0  0  0  0
   17.3477   -9.9693  -13.8623 N   0  0  0  0  0  0  0  0  0  0  0  0
   17.3389   -8.0719  -12.3812 C   0  0  0  0  0  0  0  0  0  0  0  0
   16.8013   -7.2793  -13.1797 O   0  0  0  0  0  0  0  0  0  0  0  0
   13.2723   -5.1613   -6.1411 C   0  0  0  0  0  0  0  0  0  0  0  0
   14.2709   -6.4169   -6.9197 S   0  0  0  0  0  0  0  0  0  0  0  0
   14.9445   -6.0331   -8.5194 C   0  0  0  0  0  0  0  0  0  0  0  0
   15.7707   -7.0706   -9.1737 C   0  0  0  0  0  0  0  0  0  0  0  0
   16.3478   -6.7029  -10.4946 C   0  0  2  0  0  0  0  0  0  0  0  0
   17.2016   -7.8008  -11.0020 N   0  0  0  0  0  0  0  0  0  0  0  0
   17.2640   -5.5340  -10.2978 C   0  0  0  0  0  0  0  0  0  0  0  0
   16.7515   -4.4030  -10.0731 O   0  0  0  0  0  0  0  0  0  0  0  0
   18.6328   -5.6282  -10.3494 O   0  0  0  0  0  0  0  0  0  0  0  0
  1  2  1  0
  2  3  1  0
  3  4  2  0
  6  5  1  0
  7  6  1  0
  8  7  1  0
  9  8  1  6
  9 11  1  0
 10  9  1  0
 10  3  1  0
 11 12  2  0
 13 14  1  0
 15 14  1  0
 16 15  1  0
 17 16  1  1
 18 11  1  0
 18 17  1  0
 19 17  1  0
 19 21  1  0
 20 19  2  0
M  END
$$$$
