CYH.pdb
     RDKit          3D

 29 30  0  0  1  0  0  0  0  0999 V2000
   27.7327  -20.8543  -14.7218 N   0  0  0  0  0  0  0  0  0  0  0  0
   26.6392  -21.5784  -14.1261 C   0  0  1  0  0  0  0  0  0  0  0  0
   26.5807  -21.1781  -12.6626 C   0  0  0  0  0  0  0  0  0  0  0  0
   28.1431  -21.6606  -11.8633 S   0  0  0  0  0  0  0  0  0  0  0  0
   25.3434  -21.2839  -14.7865 C   0  0  0  0  0  0  0  0  0  0  0  0
   25.1483  -20.1294  -15.2213 O   0  0  0  0  0  0  0  0  0  0  0  0
   17.9088  -22.4654  -19.4885 O   0  0  0  0  0  0  0  0  0  0  0  0
   19.0995  -22.6038  -18.7769 C   0  0  0  0  0  0  0  0  0  0  0  0
   19.1348  -23.3147  -17.5960 C   0  0  0  0  0  0  0  0  0  0  0  0
   20.3143  -23.4608  -16.8762 C   0  0  0  0  0  0  0  0  0  0  0  0
   21.4997  -22.9036  -17.3080 C   0  0  0  0  0  0  0  0  0  0  0  0
   22.7741  -23.0359  -16.5617 C   0  0  0  0  0  0  0  0  0  0  0  0
   23.0520  -21.9507  -15.5857 C   0  0  2  0  0  0  0  0  0  0  0  0
   24.3191  -22.2484  -14.9469 N   0  0  0  0  0  0  0  0  0  0  0  0
   22.0185  -21.8607  -14.5547 C   0  0  0  0  0  0  0  0  0  0  0  0
   22.2040  -22.4274  -13.4470 O   0  0  0  0  0  0  0  0  0  0  0  0
   21.4512  -22.1910  -18.4974 C   0  0  0  0  0  0  0  0  0  0  0  0
   20.2820  -22.0449  -19.2130 C   0  0  0  0  0  0  0  0  0  0  0  0
   20.7917  -21.1581  -14.7297 N   0  0  0  0  0  0  0  0  0  0  0  0
   20.2299  -20.3898  -13.6414 C   0  0  1  0  0  0  0  0  0  0  0  0
   21.2013  -19.3657  -13.1013 C   0  0  0  0  0  0  0  0  0  0  0  0
   21.9313  -19.8855  -11.9062 C   0  0  0  0  0  0  0  0  0  0  0  0
   21.7656  -21.1090  -11.2719 C   0  0  0  0  0  0  0  0  0  0  0  0
   22.6087  -21.2117  -10.2275 N   0  0  0  0  0  0  0  0  0  0  0  0
   23.3031  -20.0698  -10.1953 C   0  0  0  0  0  0  0  0  0  0  0  0
   22.8993  -19.2623  -11.2073 N   0  0  0  0  0  0  0  0  0  0  0  0
   18.9363  -19.7679  -14.0116 C   0  0  0  0  0  0  0  0  0  0  0  0
   18.5505  -19.7399  -15.3403 O   0  0  0  0  0  0  0  0  0  0  0  0
   18.1707  -19.2616  -13.1613 O   0  0  0  0  0  0  0  0  0  0  0  0
  2  1  1  6
  3  2  1  0
  4  3  1  0
  5  2  1  0
  5  6  2  0
  7  8  1  0
  8  9  2  0
  9 10  1  0
 11 10  2  0
 11 12  1  0
 13 14  1  0
 13 12  1  6
 14  5  1  0
 15 13  1  0
 16 15  2  0
 17 11  1  0
 18  8  1  0
 18 17  2  0
 19 15  1  0
 20 21  1  6
 20 19  1  0
 21 22  1  0
 22 26  1  0
 23 22  2  0
 23 24  1  0
 24 25  1  0
 26 25  2  0
 27 28  1  0
 27 20  1  0
 29 27  2  0
M  END
$$$$
