CYH.pdb
     RDKit          3D

 29 30  0  0  1  0  0  0  0  0999 V2000
   29.0336  -22.1930  -18.5303 N   0  0  0  0  0  0  0  0  0  0  0  0
   28.7105  -20.9839  -17.8173 C   0  0  1  0  0  0  0  0  0  0  0  0
   27.9551  -20.0842  -18.7792 C   0  0  0  0  0  0  0  0  0  0  0  0
   29.0981  -19.5374  -20.0858 S   0  0  0  0  0  0  0  0  0  0  0  0
   27.8865  -21.2451  -16.6111 C   0  0  0  0  0  0  0  0  0  0  0  0
   27.1402  -22.2466  -16.6083 O   0  0  0  0  0  0  0  0  0  0  0  0
   24.7562  -20.3138   -8.2590 O   0  0  0  0  0  0  0  0  0  0  0  0
   25.4767  -20.2456   -9.4506 C   0  0  0  0  0  0  0  0  0  0  0  0
   26.1964  -21.3321   -9.9007 C   0  0  0  0  0  0  0  0  0  0  0  0
   26.9190  -21.2784  -11.0863 C   0  0  0  0  0  0  0  0  0  0  0  0
   26.9497  -20.1403  -11.8645 C   0  0  0  0  0  0  0  0  0  0  0  0
   27.7145  -20.0479  -13.1315 C   0  0  0  0  0  0  0  0  0  0  0  0
   27.0422  -20.6316  -14.3210 C   0  0  2  0  0  0  0  0  0  0  0  0
   27.9063  -20.4140  -15.4648 N   0  0  0  0  0  0  0  0  0  0  0  0
   25.7490  -20.0018  -14.5857 C   0  0  0  0  0  0  0  0  0  0  0  0
   25.6829  -19.0577  -15.4145 O   0  0  0  0  0  0  0  0  0  0  0  0
   26.2217  -19.0541  -11.4011 C   0  0  0  0  0  0  0  0  0  0  0  0
   25.5040  -19.1053  -10.2251 C   0  0  0  0  0  0  0  0  0  0  0  0
   24.5364  -20.3981  -13.9516 N   0  0  0  0  0  0  0  0  0  0  0  0
   23.2612  -19.9926  -14.4990 C   0  0  1  0  0  0  0  0  0  0  0  0
   23.0338  -20.5401  -15.8892 C   0  0  0  0  0  0  0  0  0  0  0  0
   23.1701  -19.4712  -16.9238 C   0  0  0  0  0  0  0  0  0  0  0  0
   23.3905  -18.1154  -16.7247 C   0  0  0  0  0  0  0  0  0  0  0  0
   23.4548  -17.4740  -17.9064 N   0  0  0  0  0  0  0  0  0  0  0  0
   23.2779  -18.4072  -18.8472 C   0  0  0  0  0  0  0  0  0  0  0  0
   23.1051  -19.6179  -18.2611 N   0  0  0  0  0  0  0  0  0  0  0  0
   22.1370  -20.3285  -13.5932 C   0  0  0  0  0  0  0  0  0  0  0  0
   22.0571  -21.5989  -13.0503 O   0  0  0  0  0  0  0  0  0  0  0  0
   21.2474  -19.5002  -13.2965 O   0  0  0  0  0  0  0  0  0  0  0  0
  2  1  1  6
  3  2  1  0
  4  3  1  0
  5  2  1  0
  5  6  2  0
  7  8  1  0
  8  9  2  0
  9 10  1  0
 11 10  2  0
 11 12  1  0
 13 14  1  0
 13 12  1  1
 14  5  1  0
 15 13  1  0
 16 15  2  0
 17 11  1  0
 18  8  1  0
 18 17  2  0
 19 15  1  0
 20 21  1  6
 20 19  1  0
 21 22  1  0
 22 26  1  0
 23 22  2  0
 23 24  1  0
 24 25  1  0
 26 25  2  0
 27 28  1  0
 27 20  1  0
 29 27  2  0
M  END
$$$$
