CYH.pdb
     RDKit          3D

 29 30  0  0  1  0  0  0  0  0999 V2000
   39.5684   -8.5967  -11.8077 N   0  0  0  0  0  0  0  0  0  0  0  0
   38.9776   -8.7714  -13.1098 C   0  0  1  0  0  0  0  0  0  0  0  0
   38.8745  -10.2656  -13.3587 C   0  0  0  0  0  0  0  0  0  0  0  0
   37.9972  -10.5356  -14.9304 S   0  0  0  0  0  0  0  0  0  0  0  0
   37.6357   -8.1454  -13.2072 C   0  0  0  0  0  0  0  0  0  0  0  0
   36.8128   -8.3612  -12.2927 O   0  0  0  0  0  0  0  0  0  0  0  0
   31.6410   -1.8373  -14.8615 O   0  0  0  0  0  0  0  0  0  0  0  0
   32.7684   -2.6497  -14.7501 C   0  0  0  0  0  0  0  0  0  0  0  0
   33.4185   -3.1093  -15.8758 C   0  0  0  0  0  0  0  0  0  0  0  0
   34.5431   -3.9197  -15.7798 C   0  0  0  0  0  0  0  0  0  0  0  0
   35.0591   -4.3003  -14.5588 C   0  0  0  0  0  0  0  0  0  0  0  0
   36.2537   -5.1679  -14.4211 C   0  0  0  0  0  0  0  0  0  0  0  0
   35.9713   -6.6234  -14.3240 C   0  0  2  0  0  0  0  0  0  0  0  0
   37.2445   -7.3162  -14.2863 N   0  0  0  0  0  0  0  0  0  0  0  0
   35.2068   -7.1127  -15.4708 C   0  0  0  0  0  0  0  0  0  0  0  0
   35.8069   -7.3662  -16.5470 O   0  0  0  0  0  0  0  0  0  0  0  0
   34.3964   -3.8314  -13.4338 C   0  0  0  0  0  0  0  0  0  0  0  0
   33.2804   -3.0273  -13.5269 C   0  0  0  0  0  0  0  0  0  0  0  0
   33.7982   -7.3243  -15.4449 N   0  0  0  0  0  0  0  0  0  0  0  0
   33.1104   -7.7988  -16.6248 C   0  0  1  0  0  0  0  0  0  0  0  0
   32.6145   -9.2177  -16.4675 C   0  0  0  0  0  0  0  0  0  0  0  0
   31.9343   -9.6969  -17.7081 C   0  0  0  0  0  0  0  0  0  0  0  0
   31.7566   -9.0112  -18.9017 C   0  0  0  0  0  0  0  0  0  0  0  0
   31.0943   -9.7788  -19.7873 N   0  0  0  0  0  0  0  0  0  0  0  0
   30.8524  -10.9385  -19.1678 C   0  0  0  0  0  0  0  0  0  0  0  0
   31.3573  -10.8970  -17.9098 N   0  0  0  0  0  0  0  0  0  0  0  0
   32.0180   -6.8847  -17.0349 C   0  0  0  0  0  0  0  0  0  0  0  0
   31.9276   -6.4824  -18.3560 O   0  0  0  0  0  0  0  0  0  0  0  0
   31.1648   -6.4575  -16.2256 O   0  0  0  0  0  0  0  0  0  0  0  0
  2  1  1  1
  3  2  1  0
  4  3  1  0
  5  2  1  0
  5  6  2  0
  7  8  1  0
  8  9  2  0
  9 10  1  0
 11 10  2  0
 11 12  1  0
 13 14  1  0
 13 12  1  6
 14  5  1  0
 15 13  1  0
 16 15  2  0
 17 11  1  0
 18  8  1  0
 18 17  2  0
 19 15  1  0
 20 21  1  1
 20 19  1  0
 21 22  1  0
 22 26  1  0
 23 22  2  0
 23 24  1  0
 24 25  1  0
 26 25  2  0
 27 28  1  0
 27 20  1  0
 29 27  2  0
M  END
$$$$
