CYH.pdb
     RDKit          3D

 29 30  0  0  1  0  0  0  0  0999 V2000
   30.4203  -35.6263   -0.7337 N   0  0  0  0  0  0  0  0  0  0  0  0
   29.4687  -36.2859   -1.5906 C   0  0  1  0  0  0  0  0  0  0  0  0
   28.6597  -37.2302   -0.7192 C   0  0  0  0  0  0  0  0  0  0  0  0
   29.5145  -38.8355   -0.6494 S   0  0  0  0  0  0  0  0  0  0  0  0
   28.5670  -35.3257   -2.2740 C   0  0  0  0  0  0  0  0  0  0  0  0
   28.2144  -34.2997   -1.6550 O   0  0  0  0  0  0  0  0  0  0  0  0
   24.4925  -31.0609   -8.9442 O   0  0  0  0  0  0  0  0  0  0  0  0
   25.3146  -31.7940   -8.0896 C   0  0  0  0  0  0  0  0  0  0  0  0
   26.1543  -32.7685   -8.5856 C   0  0  0  0  0  0  0  0  0  0  0  0
   26.9790  -33.5069   -7.7456 C   0  0  0  0  0  0  0  0  0  0  0  0
   26.9955  -33.2999   -6.3822 C   0  0  0  0  0  0  0  0  0  0  0  0
   27.8589  -34.0734   -5.4576 C   0  0  0  0  0  0  0  0  0  0  0  0
   27.1802  -34.5913   -4.2416 C   0  0  2  0  0  0  0  0  0  0  0  0
   28.0880  -35.5172   -3.5927 N   0  0  0  0  0  0  0  0  0  0  0  0
   25.9414  -35.2993   -4.5630 C   0  0  0  0  0  0  0  0  0  0  0  0
   26.0039  -36.4415   -5.0864 O   0  0  0  0  0  0  0  0  0  0  0  0
   26.1463  -32.3167   -5.8954 C   0  0  0  0  0  0  0  0  0  0  0  0
   25.3274  -31.5830   -6.7271 C   0  0  0  0  0  0  0  0  0  0  0  0
   24.6437  -34.7661   -4.3156 N   0  0  0  0  0  0  0  0  0  0  0  0
   23.4671  -35.4670   -4.7790 C   0  0  1  0  0  0  0  0  0  0  0  0
   22.5466  -35.8544   -3.6447 C   0  0  0  0  0  0  0  0  0  0  0  0
   22.4190  -37.3384   -3.5303 C   0  0  0  0  0  0  0  0  0  0  0  0
   23.0448  -38.3095   -4.2997 C   0  0  0  0  0  0  0  0  0  0  0  0
   22.6760  -39.5381   -3.8916 N   0  0  0  0  0  0  0  0  0  0  0  0
   21.8266  -39.3542   -2.8758 C   0  0  0  0  0  0  0  0  0  0  0  0
   21.6658  -38.0265   -2.6510 N   0  0  0  0  0  0  0  0  0  0  0  0
   22.7458  -34.7067   -5.8273 C   0  0  0  0  0  0  0  0  0  0  0  0
   22.6098  -33.3354   -5.7010 O   0  0  0  0  0  0  0  0  0  0  0  0
   22.2495  -35.2614   -6.8330 O   0  0  0  0  0  0  0  0  0  0  0  0
  2  1  1  1
  3  2  1  0
  4  3  1  0
  5  2  1  0
  5  6  2  0
  7  8  1  0
  8  9  2  0
  9 10  1  0
 11 10  2  0
 11 12  1  0
 13 14  1  0
 13 12  1  6
 14  5  1  0
 15 13  1  0
 16 15  2  0
 17 11  1  0
 18  8  1  0
 18 17  2  0
 19 15  1  0
 20 21  1  1
 20 19  1  0
 21 22  1  0
 22 26  1  0
 23 22  2  0
 23 24  1  0
 24 25  1  0
 26 25  2  0
 27 28  1  0
 27 20  1  0
 29 27  2  0
M  END
$$$$
