CYH.pdb
     RDKit          3D

 29 30  0  0  1  0  0  0  0  0999 V2000
   18.9416  -14.3976  -16.4701 N   0  0  0  0  0  0  0  0  0  0  0  0
   19.0509  -13.1870  -17.2431 C   0  0  1  0  0  0  0  0  0  0  0  0
   17.8111  -13.0984  -18.1152 C   0  0  0  0  0  0  0  0  0  0  0  0
   17.9817  -14.2758  -19.4925 S   0  0  0  0  0  0  0  0  0  0  0  0
   19.1578  -11.9802  -16.3863 C   0  0  0  0  0  0  0  0  0  0  0  0
   18.2739  -11.7835  -15.5260 O   0  0  0  0  0  0  0  0  0  0  0  0
   22.4572   -4.1884  -13.4044 O   0  0  0  0  0  0  0  0  0  0  0  0
   22.2622   -5.4638  -13.9326 C   0  0  0  0  0  0  0  0  0  0  0  0
   22.4199   -5.6981  -15.2821 C   0  0  0  0  0  0  0  0  0  0  0  0
   22.2288   -6.9640  -15.8223 C   0  0  0  0  0  0  0  0  0  0  0  0
   21.8738   -8.0403  -15.0365 C   0  0  0  0  0  0  0  0  0  0  0  0
   21.6570   -9.4022  -15.5815 C   0  0  0  0  0  0  0  0  0  0  0  0
   20.2349   -9.7928  -15.7625 C   0  0  2  0  0  0  0  0  0  0  0  0
   20.2129  -11.0424  -16.4976 N   0  0  0  0  0  0  0  0  0  0  0  0
   19.4821   -8.7924  -16.5185 C   0  0  0  0  0  0  0  0  0  0  0  0
   19.6185   -8.7348  -17.7678 O   0  0  0  0  0  0  0  0  0  0  0  0
   21.7182   -7.7918  -13.6805 C   0  0  0  0  0  0  0  0  0  0  0  0
   21.9075   -6.5367  -13.1426 C   0  0  0  0  0  0  0  0  0  0  0  0
   18.5869   -7.8615  -15.9172 N   0  0  0  0  0  0  0  0  0  0  0  0
   18.0049   -6.7973  -16.7042 C   0  0  1  0  0  0  0  0  0  0  0  0
   16.5599   -7.0680  -17.0547 C   0  0  0  0  0  0  0  0  0  0  0  0
   16.0018   -5.9933  -17.9293 C   0  0  0  0  0  0  0  0  0  0  0  0
   15.3270   -4.8438  -17.5418 C   0  0  0  0  0  0  0  0  0  0  0  0
   14.9798   -4.1195  -18.6220 N   0  0  0  0  0  0  0  0  0  0  0  0
   15.4266   -4.7969  -19.6845 C   0  0  0  0  0  0  0  0  0  0  0  0
   16.0459   -5.9314  -19.2739 N   0  0  0  0  0  0  0  0  0  0  0  0
   18.1668   -5.4750  -16.0543 C   0  0  0  0  0  0  0  0  0  0  0  0
   18.4798   -4.3708  -16.8276 O   0  0  0  0  0  0  0  0  0  0  0  0
   18.0304   -5.3154  -14.8209 O   0  0  0  0  0  0  0  0  0  0  0  0
  2  1  1  1
  3  2  1  0
  4  3  1  0
  5  2  1  0
  5  6  2  0
  7  8  1  0
  8  9  2  0
  9 10  1  0
 11 10  2  0
 11 12  1  0
 13 14  1  0
 13 12  1  6
 14  5  1  0
 15 13  1  0
 16 15  2  0
 17 11  1  0
 18  8  1  0
 18 17  2  0
 19 15  1  0
 20 21  1  1
 20 19  1  0
 21 22  1  0
 22 26  1  0
 23 22  2  0
 23 24  1  0
 24 25  1  0
 26 25  2  0
 27 28  1  0
 27 20  1  0
 29 27  2  0
M  END
$$$$
