PNP.pdb
     RDKit          3D

 23 24  0  0  1  0  0  0  0  0999 V2000
    8.4380  -14.8665   19.3270 N   0  0  0  0  0  0  0  0  0  0  0  0
    8.7487  -14.2438   18.0297 C   0  0  0  0  0  0  0  0  0  0  0  0
    7.8071  -13.0373   18.0845 C   0  0  0  0  0  0  0  0  0  0  0  0
    7.7510  -12.6436   19.5444 C   0  0  0  0  0  0  0  0  0  0  0  0
    8.5421  -13.7449   20.2045 C   0  0  1  0  0  0  0  0  0  0  0  0
    8.0928  -14.0273   21.5835 C   0  0  0  0  0  0  0  0  0  0  0  0
    8.1139  -13.0980   22.4398 O   0  0  0  0  0  0  0  0  0  0  0  0
    7.4875  -17.8467   25.9419 N   0  0  0  0  0  0  0  0  0  0  0  0
    6.5850  -17.1576   25.0838 C   0  0  0  0  0  0  0  0  0  0  0  0
    5.5138  -16.7158   25.5326 O   0  0  0  0  0  0  0  0  0  0  0  0
    6.9042  -16.9522   23.6363 C   0  0  0  0  0  0  0  0  0  0  0  0
    7.2287  -15.4748   23.3696 C   0  0  2  0  0  0  0  0  0  0  0  0
    7.6305  -15.2895   22.0261 N   0  0  0  0  0  0  0  0  0  0  0  0
    8.1224  -15.0386   24.4353 C   0  0  0  0  0  0  0  0  0  0  0  0
    9.3570  -15.3400   24.1804 O   0  0  0  0  0  0  0  0  0  0  0  0
    7.8206  -14.3700   25.6335 N   0  0  0  0  0  0  0  0  0  0  0  0
    6.4847  -14.2797   26.1934 C   0  0  0  0  0  0  0  0  0  0  0  0
    6.4650  -13.0125   26.9734 C   0  0  0  0  0  0  0  0  0  0  0  0
    7.8573  -12.4286   26.8867 C   0  0  0  0  0  0  0  0  0  0  0  0
    8.6794  -13.6764   26.5484 C   0  0  1  0  0  0  0  0  0  0  0  0
    8.9544  -14.4745   27.7785 C   0  0  0  0  0  0  0  0  0  0  0  0
    9.6857  -14.0054   28.6873 O   0  0  0  0  0  0  0  0  0  0  0  0
    8.4355  -15.7450   27.9884 O   0  0  0  0  0  0  0  0  0  0  0  0
  1  5  1  0
  2  3  1  0
  2  1  1  0
  3  4  1  0
  4  5  1  0
  5  6  1  1
  6  7  2  0
  8  9  1  0
  9 10  2  0
  9 11  1  0
 12 11  1  1
 12 14  1  0
 13 12  1  0
 13  6  1  0
 14 15  2  0
 14 16  1  0
 16 20  1  0
 16 17  1  0
 17 18  1  0
 19 18  1  0
 20 19  1  0
 21 23  1  0
 20 21  1  1
 22 21  2  0
M  END
$$$$
