PNP.pdb
     RDKit          3D

 23 24  0  0  1  0  0  0  0  0999 V2000
    8.6041  -14.8720   19.5028 N   0  0  0  0  0  0  0  0  0  0  0  0
    8.7633  -14.2039   18.2007 C   0  0  0  0  0  0  0  0  0  0  0  0
    7.5693  -13.2460   18.2484 C   0  0  0  0  0  0  0  0  0  0  0  0
    7.4240  -12.8654   19.7057 C   0  0  0  0  0  0  0  0  0  0  0  0
    8.4472  -13.7504   20.3723 C   0  0  1  0  0  0  0  0  0  0  0  0
    8.0748  -14.1187   21.7539 C   0  0  0  0  0  0  0  0  0  0  0  0
    7.9007  -13.2042   22.6086 O   0  0  0  0  0  0  0  0  0  0  0  0
    5.6536  -17.8060   25.5661 N   0  0  0  0  0  0  0  0  0  0  0  0
    6.9906  -17.4891   25.1950 C   0  0  0  0  0  0  0  0  0  0  0  0
    7.8804  -17.4330   26.0606 O   0  0  0  0  0  0  0  0  0  0  0  0
    7.3499  -17.2194   23.7675 C   0  0  0  0  0  0  0  0  0  0  0  0
    7.5560  -15.7132   23.5485 C   0  0  2  0  0  0  0  0  0  0  0  0
    7.8945  -15.4494   22.2006 N   0  0  0  0  0  0  0  0  0  0  0  0
    8.4533  -15.2513   24.6002 C   0  0  0  0  0  0  0  0  0  0  0  0
    9.6887  -15.5460   24.3415 O   0  0  0  0  0  0  0  0  0  0  0  0
    8.1540  -14.5654   25.7892 N   0  0  0  0  0  0  0  0  0  0  0  0
    6.8098  -14.4043   26.3120 C   0  0  0  0  0  0  0  0  0  0  0  0
    6.8349  -13.1361   27.0904 C   0  0  0  0  0  0  0  0  0  0  0  0
    8.2576  -12.6258   27.0416 C   0  0  0  0  0  0  0  0  0  0  0  0
    9.0224  -13.9155   26.7269 C   0  0  1  0  0  0  0  0  0  0  0  0
    9.2215  -14.7244   27.9647 C   0  0  0  0  0  0  0  0  0  0  0  0
    9.9679  -14.3018   28.8839 O   0  0  0  0  0  0  0  0  0  0  0  0
    8.6132  -15.9553   28.1707 O   0  0  0  0  0  0  0  0  0  0  0  0
  1  5  1  0
  2  3  1  0
  2  1  1  0
  3  4  1  0
  4  5  1  0
  5  6  1  1
  6  7  2  0
  8  9  1  0
  9 10  2  0
  9 11  1  0
 12 11  1  6
 12 14  1  0
 13 12  1  0
 13  6  1  0
 14 15  2  0
 14 16  1  0
 16 20  1  0
 16 17  1  0
 17 18  1  0
 19 18  1  0
 20 19  1  0
 21 23  1  0
 20 21  1  1
 22 21  2  0
M  END
$$$$
