PNP.pdb
     RDKit          3D

 23 24  0  0  1  0  0  0  0  0999 V2000
    8.6892  -14.8239   19.3909 N   0  0  0  0  0  0  0  0  0  0  0  0
    8.9489  -14.1815   18.0921 C   0  0  0  0  0  0  0  0  0  0  0  0
    7.7312  -13.2566   18.0076 C   0  0  0  0  0  0  0  0  0  0  0  0
    7.4440  -12.8471   19.4357 C   0  0  0  0  0  0  0  0  0  0  0  0
    8.4249  -13.6876   20.2141 C   0  0  1  0  0  0  0  0  0  0  0  0
    7.9379  -14.0346   21.5653 C   0  0  0  0  0  0  0  0  0  0  0  0
    7.6541  -13.1059   22.3742 O   0  0  0  0  0  0  0  0  0  0  0  0
    5.7688  -18.0777   25.4583 N   0  0  0  0  0  0  0  0  0  0  0  0
    6.9374  -17.3649   25.0686 C   0  0  0  0  0  0  0  0  0  0  0  0
    7.7256  -16.9423   25.9314 O   0  0  0  0  0  0  0  0  0  0  0  0
    7.2390  -17.1116   23.6249 C   0  0  0  0  0  0  0  0  0  0  0  0
    7.3661  -15.6029   23.3669 C   0  0  2  0  0  0  0  0  0  0  0  0
    7.7619  -15.3594   22.0309 N   0  0  0  0  0  0  0  0  0  0  0  0
    8.1749  -15.0550   24.4488 C   0  0  0  0  0  0  0  0  0  0  0  0
    9.4429  -15.1891   24.2161 O   0  0  0  0  0  0  0  0  0  0  0  0
    7.7656  -14.4358   25.6416 N   0  0  0  0  0  0  0  0  0  0  0  0
    6.4107  -14.4945   26.1582 C   0  0  0  0  0  0  0  0  0  0  0  0
    6.2311  -13.2454   26.9471 C   0  0  0  0  0  0  0  0  0  0  0  0
    7.5552  -12.5157   26.9104 C   0  0  0  0  0  0  0  0  0  0  0  0
    8.5160  -13.6650   26.5894 C   0  0  1  0  0  0  0  0  0  0  0  0
    8.8356  -14.4431   27.8217 C   0  0  0  0  0  0  0  0  0  0  0  0
    9.4367  -13.8934   28.7795 O   0  0  0  0  0  0  0  0  0  0  0  0
    8.4992  -15.7806   27.9810 O   0  0  0  0  0  0  0  0  0  0  0  0
  1  5  1  0
  2  3  1  0
  2  1  1  0
  3  4  1  0
  4  5  1  0
  5  6  1  1
  6  7  2  0
  8  9  1  0
  9 10  2  0
  9 11  1  0
 12 11  1  1
 12 14  1  0
 13 12  1  0
 13  6  1  0
 14 15  2  0
 14 16  1  0
 16 20  1  0
 16 17  1  0
 17 18  1  0
 19 18  1  0
 20 19  1  0
 21 23  1  0
 20 21  1  1
 22 21  2  0
M  END
$$$$
