PNP.pdb
     RDKit          3D

 23 24  0  0  1  0  0  0  0  0999 V2000
    8.4336  -15.2868   19.5028 N   0  0  0  0  0  0  0  0  0  0  0  0
    8.8190  -14.8871   18.1394 C   0  0  0  0  0  0  0  0  0  0  0  0
    7.8989  -13.6776   17.9495 C   0  0  0  0  0  0  0  0  0  0  0  0
    7.7791  -13.0509   19.3215 C   0  0  0  0  0  0  0  0  0  0  0  0
    8.5160  -14.0385   20.1911 C   0  0  1  0  0  0  0  0  0  0  0  0
    7.9946  -14.0877   21.5728 C   0  0  0  0  0  0  0  0  0  0  0  0
    7.8792  -13.0116   22.2253 O   0  0  0  0  0  0  0  0  0  0  0  0
    6.0947  -16.8379   21.5586 N   0  0  0  0  0  0  0  0  0  0  0  0
    6.1479  -17.4094   22.8609 C   0  0  0  0  0  0  0  0  0  0  0  0
    5.7478  -18.5709   23.0479 O   0  0  0  0  0  0  0  0  0  0  0  0
    6.6818  -16.6309   24.0221 C   0  0  0  0  0  0  0  0  0  0  0  0
    7.1265  -15.2340   23.5639 C   0  0  2  0  0  0  0  0  0  0  0  0
    7.6064  -15.2772   22.2339 N   0  0  0  0  0  0  0  0  0  0  0  0
    7.9964  -14.7035   24.6063 C   0  0  0  0  0  0  0  0  0  0  0  0
    9.2455  -14.9450   24.3588 O   0  0  0  0  0  0  0  0  0  0  0  0
    7.6596  -14.0031   25.7767 N   0  0  0  0  0  0  0  0  0  0  0  0
    6.2956  -13.7303   26.1904 C   0  0  0  0  0  0  0  0  0  0  0  0
    6.3647  -12.4749   26.9866 C   0  0  0  0  0  0  0  0  0  0  0  0
    7.8250  -12.0893   27.0616 C   0  0  0  0  0  0  0  0  0  0  0  0
    8.5000  -13.4379   26.7916 C   0  0  1  0  0  0  0  0  0  0  0  0
    8.5262  -14.2702   28.0296 C   0  0  0  0  0  0  0  0  0  0  0  0
    7.7020  -15.2076   28.1798 O   0  0  0  0  0  0  0  0  0  0  0  0
    9.4345  -14.0665   29.0597 O   0  0  0  0  0  0  0  0  0  0  0  0
  1  5  1  0
  2  3  1  0
  2  1  1  0
  3  4  1  0
  4  5  1  0
  5  6  1  1
  6  7  2  0
  8  9  1  0
  9 10  2  0
  9 11  1  0
 12 11  1  1
 12 14  1  0
 13 12  1  0
 13  6  1  0
 14 15  2  0
 14 16  1  0
 16 20  1  0
 16 17  1  0
 17 18  1  0
 19 18  1  0
 20 19  1  0
 21 23  1  0
 20 21  1  1
 22 21  2  0
M  END
$$$$
