PNP.pdb
     RDKit          3D

 23 24  0  0  1  0  0  0  0  0999 V2000
    8.8761  -15.0383   19.4897 N   0  0  0  0  0  0  0  0  0  0  0  0
    9.2906  -14.5377   18.1688 C   0  0  0  0  0  0  0  0  0  0  0  0
    8.2267  -13.4579   17.9507 C   0  0  0  0  0  0  0  0  0  0  0  0
    7.9325  -12.9066   19.3288 C   0  0  0  0  0  0  0  0  0  0  0  0
    8.7405  -13.8178   20.2184 C   0  0  1  0  0  0  0  0  0  0  0  0
    8.1420  -13.9906   21.5583 C   0  0  0  0  0  0  0  0  0  0  0  0
    7.9267  -12.9700   22.2720 O   0  0  0  0  0  0  0  0  0  0  0  0
    6.5595  -18.0869   21.6024 N   0  0  0  0  0  0  0  0  0  0  0  0
    5.9860  -17.2799   22.6250 C   0  0  0  0  0  0  0  0  0  0  0  0
    4.7750  -17.0029   22.5937 O   0  0  0  0  0  0  0  0  0  0  0  0
    6.8215  -16.7530   23.7492 C   0  0  0  0  0  0  0  0  0  0  0  0
    7.2900  -15.3241   23.4365 C   0  0  2  0  0  0  0  0  0  0  0  0
    7.7842  -15.2420   22.1137 N   0  0  0  0  0  0  0  0  0  0  0  0
    8.1552  -14.9124   24.5351 C   0  0  0  0  0  0  0  0  0  0  0  0
    9.3963  -15.2078   24.3059 O   0  0  0  0  0  0  0  0  0  0  0  0
    7.8215  -14.2714   25.7399 N   0  0  0  0  0  0  0  0  0  0  0  0
    6.4584  -14.0385   26.1800 C   0  0  0  0  0  0  0  0  0  0  0  0
    6.5181  -12.8199   27.0322 C   0  0  0  0  0  0  0  0  0  0  0  0
    7.9734  -12.4160   27.1093 C   0  0  0  0  0  0  0  0  0  0  0  0
    8.6650  -13.7405   26.7706 C   0  0  1  0  0  0  0  0  0  0  0  0
    8.7174  -14.6280   27.9688 C   0  0  0  0  0  0  0  0  0  0  0  0
    7.9028  -15.5782   28.0889 O   0  0  0  0  0  0  0  0  0  0  0  0
    9.6404  -14.4638   28.9928 O   0  0  0  0  0  0  0  0  0  0  0  0
  1  5  1  0
  2  3  1  0
  2  1  1  0
  3  4  1  0
  4  5  1  0
  5  6  1  1
  6  7  2  0
  8  9  1  0
  9 10  2  0
  9 11  1  0
 12 11  1  1
 12 14  1  0
 13 12  1  0
 13  6  1  0
 14 15  2  0
 14 16  1  0
 16 20  1  0
 16 17  1  0
 17 18  1  0
 19 18  1  0
 20 19  1  0
 21 23  1  0
 20 21  1  1
 22 21  2  0
M  END
$$$$
