PNP.pdb
     RDKit          3D

 23 24  0  0  1  0  0  0  0  0999 V2000
    8.4758  -15.0494   19.8709 N   0  0  0  0  0  0  0  0  0  0  0  0
    8.6343  -14.3658   18.5768 C   0  0  0  0  0  0  0  0  0  0  0  0
    7.7730  -13.1246   18.8273 C   0  0  0  0  0  0  0  0  0  0  0  0
    7.9413  -12.8153   20.2990 C   0  0  0  0  0  0  0  0  0  0  0  0
    8.7588  -13.9870   20.7819 C   0  0  1  0  0  0  0  0  0  0  0  0
    8.4921  -14.3300   22.1941 C   0  0  0  0  0  0  0  0  0  0  0  0
    8.7215  -13.4687   23.0902 O   0  0  0  0  0  0  0  0  0  0  0  0
    7.2381  -16.4916   26.6422 N   0  0  0  0  0  0  0  0  0  0  0  0
    6.8466  -17.4395   25.6553 C   0  0  0  0  0  0  0  0  0  0  0  0
    6.2219  -18.4613   25.9867 O   0  0  0  0  0  0  0  0  0  0  0  0
    7.1759  -17.2276   24.2110 C   0  0  0  0  0  0  0  0  0  0  0  0
    7.7670  -15.8254   24.0024 C   0  0  2  0  0  0  0  0  0  0  0  0
    7.9876  -15.5793   22.6271 N   0  0  0  0  0  0  0  0  0  0  0  0
    8.8871  -15.6964   24.9264 C   0  0  0  0  0  0  0  0  0  0  0  0
    9.9705  -16.2195   24.4440 O   0  0  0  0  0  0  0  0  0  0  0  0
    8.9273  -15.1069   26.2009 N   0  0  0  0  0  0  0  0  0  0  0  0
    7.7462  -14.7056   26.9426 C   0  0  0  0  0  0  0  0  0  0  0  0
    8.1851  -13.5790   27.8104 C   0  0  0  0  0  0  0  0  0  0  0  0
    9.6695  -13.4063   27.5787 C   0  0  0  0  0  0  0  0  0  0  0  0
   10.0463  -14.7900   27.0396 C   0  0  1  0  0  0  0  0  0  0  0  0
   10.2063  -15.7646   28.1578 C   0  0  0  0  0  0  0  0  0  0  0  0
    9.3570  -16.6755   28.3301 O   0  0  0  0  0  0  0  0  0  0  0  0
   11.2701  -15.7263   29.0491 O   0  0  0  0  0  0  0  0  0  0  0  0
  1  5  1  0
  2  3  1  0
  2  1  1  0
  3  4  1  0
  4  5  1  0
  5  6  1  1
  6  7  2  0
  8  9  1  0
  9 10  2  0
  9 11  1  0
 12 11  1  6
 12 14  1  0
 13 12  1  0
 13  6  1  0
 14 15  2  0
 14 16  1  0
 16 20  1  0
 16 17  1  0
 17 18  1  0
 19 18  1  0
 20 19  1  0
 21 23  1  0
 20 21  1  1
 22 21  2  0
M  END
$$$$
