PNP.pdb
     RDKit          3D

 23 24  0  0  1  0  0  0  0  0999 V2000
    8.4936  -14.9389   19.3866 N   0  0  0  0  0  0  0  0  0  0  0  0
    8.7265  -14.3130   18.0747 C   0  0  0  0  0  0  0  0  0  0  0  0
    7.6445  -13.2296   18.1040 C   0  0  0  0  0  0  0  0  0  0  0  0
    7.5400  -12.8122   19.5547 C   0  0  0  0  0  0  0  0  0  0  0  0
    8.4595  -13.7931   20.2380 C   0  0  1  0  0  0  0  0  0  0  0  0
    8.0474  -14.0964   21.6242 C   0  0  0  0  0  0  0  0  0  0  0  0
    7.9780  -13.1555   22.4651 O   0  0  0  0  0  0  0  0  0  0  0  0
    5.6589  -17.1168   25.7027 N   0  0  0  0  0  0  0  0  0  0  0  0
    6.9731  -17.3241   25.1970 C   0  0  0  0  0  0  0  0  0  0  0  0
    7.8830  -17.6909   25.9597 O   0  0  0  0  0  0  0  0  0  0  0  0
    7.2840  -17.1069   23.7494 C   0  0  0  0  0  0  0  0  0  0  0  0
    7.4060  -15.6048   23.4532 C   0  0  2  0  0  0  0  0  0  0  0  0
    7.7173  -15.3913   22.0900 N   0  0  0  0  0  0  0  0  0  0  0  0
    8.2865  -15.0429   24.4699 C   0  0  0  0  0  0  0  0  0  0  0  0
    9.5329  -15.1213   24.1227 O   0  0  0  0  0  0  0  0  0  0  0  0
    7.9620  -14.4613   25.7069 N   0  0  0  0  0  0  0  0  0  0  0  0
    6.6347  -14.4971   26.2927 C   0  0  0  0  0  0  0  0  0  0  0  0
    6.5405  -13.2770   27.1396 C   0  0  0  0  0  0  0  0  0  0  0  0
    7.8856  -12.5903   27.0614 C   0  0  0  0  0  0  0  0  0  0  0  0
    8.7875  -13.7561   26.6434 C   0  0  1  0  0  0  0  0  0  0  0  0
    9.1435  -14.5954   27.8244 C   0  0  0  0  0  0  0  0  0  0  0  0
    8.5839  -15.7070   28.0029 O   0  0  0  0  0  0  0  0  0  0  0  0
   10.0856  -14.2119   28.7694 O   0  0  0  0  0  0  0  0  0  0  0  0
  1  5  1  0
  2  3  1  0
  2  1  1  0
  3  4  1  0
  4  5  1  0
  5  6  1  1
  6  7  2  0
  8  9  1  0
  9 10  2  0
  9 11  1  0
 12 11  1  6
 12 14  1  0
 13 12  1  0
 13  6  1  0
 14 15  2  0
 14 16  1  0
 16 20  1  0
 16 17  1  0
 17 18  1  0
 19 18  1  0
 20 19  1  0
 21 23  1  0
 20 21  1  1
 22 21  2  0
M  END
$$$$
