PNP.pdb
     RDKit          3D

 23 24  0  0  1  0  0  0  0  0999 V2000
    8.5937  -15.1710   19.7647 N   0  0  0  0  0  0  0  0  0  0  0  0
    8.9253  -14.6541   18.4268 C   0  0  0  0  0  0  0  0  0  0  0  0
    7.8498  -13.5727   18.2883 C   0  0  0  0  0  0  0  0  0  0  0  0
    7.6415  -13.0384   19.6886 C   0  0  0  0  0  0  0  0  0  0  0  0
    8.5033  -13.9596   20.5151 C   0  0  1  0  0  0  0  0  0  0  0  0
    7.9892  -14.1492   21.8874 C   0  0  0  0  0  0  0  0  0  0  0  0
    7.6860  -13.1340   22.5763 O   0  0  0  0  0  0  0  0  0  0  0  0
    5.5601  -16.5692   22.1271 N   0  0  0  0  0  0  0  0  0  0  0  0
    6.0022  -17.4160   23.1822 C   0  0  0  0  0  0  0  0  0  0  0  0
    5.5779  -18.5810   23.2648 O   0  0  0  0  0  0  0  0  0  0  0  0
    6.9785  -16.9258   24.2050 C   0  0  0  0  0  0  0  0  0  0  0  0
    7.4338  -15.4996   23.8622 C   0  0  2  0  0  0  0  0  0  0  0  0
    7.8072  -15.4115   22.5007 N   0  0  0  0  0  0  0  0  0  0  0  0
    8.3995  -15.1071   24.8811 C   0  0  0  0  0  0  0  0  0  0  0  0
    9.6057  -15.4562   24.5597 O   0  0  0  0  0  0  0  0  0  0  0  0
    8.1887  -14.4351   26.0967 N   0  0  0  0  0  0  0  0  0  0  0  0
    6.8754  -14.1465   26.6426 C   0  0  0  0  0  0  0  0  0  0  0  0
    7.0471  -12.9171   27.4635 C   0  0  0  0  0  0  0  0  0  0  0  0
    8.5167  -12.5642   27.4132 C   0  0  0  0  0  0  0  0  0  0  0  0
    9.1321  -13.9179   27.0444 C   0  0  1  0  0  0  0  0  0  0  0  0
    9.2530  -14.7871   28.2510 C   0  0  0  0  0  0  0  0  0  0  0  0
    8.4629  -15.7506   28.4188 O   0  0  0  0  0  0  0  0  0  0  0  0
   10.2156  -14.5910   29.2320 O   0  0  0  0  0  0  0  0  0  0  0  0
  1  5  1  0
  2  3  1  0
  2  1  1  0
  3  4  1  0
  4  5  1  0
  5  6  1  1
  6  7  2  0
  8  9  1  0
  9 10  2  0
  9 11  1  0
 12 11  1  1
 12 14  1  0
 13 12  1  0
 13  6  1  0
 14 15  2  0
 14 16  1  0
 16 20  1  0
 16 17  1  0
 17 18  1  0
 19 18  1  0
 20 19  1  0
 21 23  1  0
 20 21  1  1
 22 21  2  0
M  END
$$$$
