RDP.pdb
     RDKit          3D

 27 27  0  0  1  0  0  0  0  0999 V2000
   31.5726  -22.4709  -11.3322 N   0  0  0  0  0  0  0  0  0  0  0  0
   31.2849  -22.0652  -10.0009 C   0  0  0  0  0  0  0  0  0  0  0  0
   32.0453  -22.4495   -9.0335 N   0  0  0  0  0  0  0  0  0  0  0  0
   30.1709  -21.2396   -9.7043 N   0  0  0  0  0  0  0  0  0  0  0  0
   29.2041  -20.8127  -10.7012 C   0  0  0  0  0  0  0  0  0  0  0  0
   28.6930  -21.9904  -11.5144 C   0  0  0  0  0  0  0  0  0  0  0  0
   27.6000  -21.5302  -12.4445 C   0  0  0  0  0  0  0  0  0  0  0  0
   26.3852  -21.0415  -11.6589 C   0  0  2  0  0  0  0  0  0  0  0  0
   26.2368  -21.7362  -10.4330 N   0  0  0  0  0  0  0  0  0  0  0  0
   25.2116  -21.0928  -12.5652 C   0  0  0  0  0  0  0  0  0  0  0  0
   25.4674  -21.3912  -13.7731 O   0  0  0  0  0  0  0  0  0  0  0  0
   31.8175  -22.2233   -8.0568 N   0  0  0  0  0  0  0  0  0  0  0  0
   23.9063  -20.8395  -12.1576 C   0  0  1  0  0  0  0  0  0  0  0  0
   22.8099  -20.9500  -13.1459 C   0  0  0  0  0  0  0  0  0  0  0  0
   21.5785  -20.9472  -12.2280 C   0  0  0  0  0  0  0  0  0  0  0  0
   20.3699  -21.2120  -12.9938 O   0  0  0  0  0  0  0  0  0  0  0  0
   19.2825  -21.3291  -12.3456 C   0  0  0  0  0  0  0  0  0  0  0  0
   22.8437  -19.7918  -14.0533 O   0  0  0  0  0  0  0  0  0  0  0  0
   23.0974  -18.6511  -13.5172 O   0  0  0  0  0  0  0  0  0  0  0  0
   20.2964  -21.3494  -14.3714 N   0  0  0  0  0  0  0  0  0  0  0  0
   22.6338  -19.8025  -15.4482 C   0  0  0  0  0  0  0  0  0  0  0  0
   22.2445  -20.9879  -16.2452 C   0  0  0  0  0  0  0  0  0  0  0  0
   22.5670  -20.6985  -17.6650 C   0  0  0  0  0  0  0  0  0  0  0  0
   23.2947  -19.3795  -17.6236 C   0  0  1  0  0  0  0  0  0  0  0  0
   22.6621  -18.7314  -16.4127 C   0  0  0  0  0  0  0  0  0  0  0  0
   21.2483  -18.3399  -16.7600 O   0  0  0  0  0  0  0  0  0  0  0  0
   20.9744  -17.3177  -17.6484 O   0  0  0  0  0  0  0  0  0  0  0  0
  2  4  1  0
  2  1  1  0
  3  2  2  0
  5  4  1  0
  6  5  1  0
  7  6  1  0
  8  7  1  0
  8  9  1  1
 10 11  2  0
 10  8  1  0
 12 10  1  0
 13 12  1  0
 14 15  1  0
 13 14  1  6
 15 16  2  0
 17 20  1  0
 17 13  1  0
 18 17  2  0
 19 15  1  0
 20 21  1  0
 22 21  1  0
 23 24  1  0
 23 22  1  0
 24 20  1  0
 24 25  1  6
 25 26  1  0
 27 25  2  0
M  END
$$$$
