RDP.pdb
     RDKit          3D

 27 27  0  0  1  0  0  0  0  0999 V2000
   20.8255  -21.8843  -10.5485 N   0  0  0  0  0  0  0  0  0  0  0  0
   20.7835  -20.4731  -10.3863 C   0  0  0  0  0  0  0  0  0  0  0  0
   19.8016  -19.9279   -9.7536 N   0  0  0  0  0  0  0  0  0  0  0  0
   21.8045  -19.6386  -10.9077 N   0  0  0  0  0  0  0  0  0  0  0  0
   22.6800  -20.0323  -11.9981 C   0  0  0  0  0  0  0  0  0  0  0  0
   23.3490  -21.3670  -11.7145 C   0  0  0  0  0  0  0  0  0  0  0  0
   24.3060  -21.7034  -12.8294 C   0  0  0  0  0  0  0  0  0  0  0  0
   25.7521  -21.4819  -12.3922 C   0  0  2  0  0  0  0  0  0  0  0  0
   25.8487  -21.2282  -11.0015 N   0  0  0  0  0  0  0  0  0  0  0  0
   26.3340  -20.4378  -13.2711 C   0  0  0  0  0  0  0  0  0  0  0  0
   26.6900  -19.3680  -12.6859 O   0  0  0  0  0  0  0  0  0  0  0  0
   19.7451  -18.9079   -9.6379 N   0  0  0  0  0  0  0  0  0  0  0  0
   26.4964  -20.5834  -14.6446 C   0  0  2  0  0  0  0  0  0  0  0  0
   27.1127  -19.4813  -15.4170 C   0  0  0  0  0  0  0  0  0  0  0  0
   27.9833  -20.2636  -16.4115 C   0  0  0  0  0  0  0  0  0  0  0  0
   28.6397  -19.3557  -17.3400 O   0  0  0  0  0  0  0  0  0  0  0  0
   29.5505  -19.8394  -18.0834 C   0  0  0  0  0  0  0  0  0  0  0  0
   26.0610  -18.6942  -16.0806 O   0  0  0  0  0  0  0  0  0  0  0  0
   25.1355  -19.3602  -16.6745 O   0  0  0  0  0  0  0  0  0  0  0  0
   28.3613  -18.0055  -17.4877 N   0  0  0  0  0  0  0  0  0  0  0  0
   25.9583  -17.2882  -16.1278 C   0  0  0  0  0  0  0  0  0  0  0  0
   27.0147  -16.3391  -15.7093 C   0  0  0  0  0  0  0  0  0  0  0  0
   26.3698  -15.0206  -15.4873 C   0  0  0  0  0  0  0  0  0  0  0  0
   24.8955  -15.2931  -15.6392 C   0  0  1  0  0  0  0  0  0  0  0  0
   24.9074  -16.4373  -16.6278 C   0  0  0  0  0  0  0  0  0  0  0  0
   25.3048  -15.9011  -17.9796 O   0  0  0  0  0  0  0  0  0  0  0  0
   26.5203  -16.2142  -18.5571 O   0  0  0  0  0  0  0  0  0  0  0  0
  2  4  1  0
  2  1  1  0
  3  2  2  0
  5  4  1  0
  6  5  1  0
  7  6  1  0
  8  7  1  0
  8  9  1  1
 10 11  2  0
 10  8  1  0
 12 10  1  0
 13 12  1  0
 14 15  1  0
 13 14  1  6
 15 16  2  0
 17 20  1  0
 17 13  1  0
 18 17  2  0
 19 15  1  0
 20 21  1  0
 22 21  1  0
 23 24  1  0
 23 22  1  0
 24 20  1  0
 24 25  1  6
 25 26  1  0
 27 25  2  0
M  END
$$$$
