RDP.pdb
     RDKit          3D

 27 27  0  0  1  0  0  0  0  0999 V2000
   17.9503  -21.6007  -13.9597 N   0  0  0  0  0  0  0  0  0  0  0  0
   18.6349  -22.8368  -13.8084 C   0  0  0  0  0  0  0  0  0  0  0  0
   18.0466  -23.8316  -13.2375 N   0  0  0  0  0  0  0  0  0  0  0  0
   19.9633  -23.0077  -14.2740 N   0  0  0  0  0  0  0  0  0  0  0  0
   20.7314  -21.9489  -14.9063 C   0  0  0  0  0  0  0  0  0  0  0  0
   22.0791  -22.4580  -15.3901 C   0  0  0  0  0  0  0  0  0  0  0  0
   22.8633  -21.3231  -15.9974 C   0  0  0  0  0  0  0  0  0  0  0  0
   24.1413  -21.8353  -16.6577 C   0  0  2  0  0  0  0  0  0  0  0  0
   23.9808  -23.1473  -17.1679 N   0  0  0  0  0  0  0  0  0  0  0  0
   25.2508  -21.6612  -15.6882 C   0  0  0  0  0  0  0  0  0  0  0  0
   25.5667  -22.6994  -15.0280 O   0  0  0  0  0  0  0  0  0  0  0  0
   18.5022  -24.7508  -13.1701 N   0  0  0  0  0  0  0  0  0  0  0  0
   25.9240  -20.4608  -15.4884 C   0  0  2  0  0  0  0  0  0  0  0  0
   26.8761  -20.3490  -14.3605 C   0  0  0  0  0  0  0  0  0  0  0  0
   27.4348  -18.9353  -14.5798 C   0  0  0  0  0  0  0  0  0  0  0  0
   26.5856  -18.1865  -15.4938 O   0  0  0  0  0  0  0  0  0  0  0  0
   26.0860  -17.0981  -15.0670 C   0  0  0  0  0  0  0  0  0  0  0  0
   26.1511  -20.4813  -13.0866 O   0  0  0  0  0  0  0  0  0  0  0  0
   24.8675  -20.4511  -13.1520 O   0  0  0  0  0  0  0  0  0  0  0  0
   26.2701  -18.5539  -16.7929 N   0  0  0  0  0  0  0  0  0  0  0  0
   26.7156  -20.6440  -11.8041 C   0  0  0  0  0  0  0  0  0  0  0  0
   28.1378  -20.4176  -11.4608 C   0  0  0  0  0  0  0  0  0  0  0  0
   28.4054  -21.1152  -10.1781 C   0  0  0  0  0  0  0  0  0  0  0  0
   27.1348  -21.8726   -9.8902 C   0  0  1  0  0  0  0  0  0  0  0  0
   26.1043  -20.9784  -10.5421 C   0  0  0  0  0  0  0  0  0  0  0  0
   25.9604  -19.7268   -9.7141 O   0  0  0  0  0  0  0  0  0  0  0  0
   25.1638  -19.6891   -8.5858 O   0  0  0  0  0  0  0  0  0  0  0  0
  2  4  1  0
  2  1  1  0
  3  2  2  0
  5  4  1  0
  6  5  1  0
  7  6  1  0
  8  7  1  0
  8  9  1  1
 10 11  2  0
 10  8  1  0
 12 10  1  0
 13 12  1  0
 14 15  1  0
 13 14  1  6
 15 16  2  0
 17 20  1  0
 17 13  1  0
 18 17  2  0
 19 15  1  0
 20 21  1  0
 22 21  1  0
 23 24  1  0
 23 22  1  0
 24 20  1  0
 24 25  1  1
 25 26  1  0
 27 25  2  0
M  END
$$$$
