RDP.pdb
     RDKit          3D

 27 27  0  0  1  0  0  0  0  0999 V2000
   27.9077  -19.3720  -16.2353 N   0  0  0  0  0  0  0  0  0  0  0  0
   28.1194  -20.1563  -15.0692 C   0  0  0  0  0  0  0  0  0  0  0  0
   28.3847  -21.4130  -15.1795 N   0  0  0  0  0  0  0  0  0  0  0  0
   28.0460  -19.5873  -13.7725 N   0  0  0  0  0  0  0  0  0  0  0  0
   28.2359  -20.3520  -12.5518 C   0  0  0  0  0  0  0  0  0  0  0  0
   26.9335  -20.9819  -12.0867 C   0  0  0  0  0  0  0  0  0  0  0  0
   25.9968  -19.9086  -11.5942 C   0  0  0  0  0  0  0  0  0  0  0  0
   24.7602  -20.5217  -10.9411 C   0  0  2  0  0  0  0  0  0  0  0  0
   25.0969  -21.5977  -10.0830 N   0  0  0  0  0  0  0  0  0  0  0  0
   23.7947  -20.8465  -12.0197 C   0  0  0  0  0  0  0  0  0  0  0  0
   23.9598  -21.9754  -12.5783 O   0  0  0  0  0  0  0  0  0  0  0  0
   28.5535  -21.8415  -16.0986 N   0  0  0  0  0  0  0  0  0  0  0  0
   22.7658  -20.0005  -12.4193 C   0  0  1  0  0  0  0  0  0  0  0  0
   21.8404  -20.4467  -13.4849 C   0  0  0  0  0  0  0  0  0  0  0  0
   20.6949  -19.4356  -13.3289 C   0  0  0  0  0  0  0  0  0  0  0  0
   19.8450  -19.7960  -12.2041 O   0  0  0  0  0  0  0  0  0  0  0  0
   19.5536  -21.0255  -12.0635 C   0  0  0  0  0  0  0  0  0  0  0  0
   22.5085  -20.3497  -14.7926 O   0  0  0  0  0  0  0  0  0  0  0  0
   23.4239  -19.4536  -14.9033 O   0  0  0  0  0  0  0  0  0  0  0  0
   19.3216  -18.9168  -11.2686 N   0  0  0  0  0  0  0  0  0  0  0  0
   22.2553  -21.1395  -15.9335 C   0  0  0  0  0  0  0  0  0  0  0  0
   21.1602  -22.1273  -16.0638 C   0  0  0  0  0  0  0  0  0  0  0  0
   21.5069  -23.0349  -17.1861 C   0  0  0  0  0  0  0  0  0  0  0  0
   22.9029  -22.6275  -17.5812 C   0  0  1  0  0  0  0  0  0  0  0  0
   22.8928  -21.1577  -17.2264 C   0  0  0  0  0  0  0  0  0  0  0  0
   22.0223  -20.4292  -18.2184 O   0  0  0  0  0  0  0  0  0  0  0  0
   22.4662  -20.1283  -19.4918 O   0  0  0  0  0  0  0  0  0  0  0  0
  2  4  1  0
  2  1  1  0
  3  2  2  0
  5  4  1  0
  6  5  1  0
  7  6  1  0
  8  7  1  0
  8  9  1  6
 10 11  2  0
 10  8  1  0
 12 10  1  0
 13 12  1  0
 14 15  1  0
 13 14  1  6
 15 16  2  0
 17 20  1  0
 17 13  1  0
 18 17  2  0
 19 15  1  0
 20 21  1  0
 22 21  1  0
 23 24  1  0
 23 22  1  0
 24 20  1  0
 24 25  1  6
 25 26  1  0
 27 25  2  0
M  END
$$$$
