RDP.pdb
     RDKit          3D

 27 27  0  0  1  0  0  0  0  0999 V2000
   26.7169  -20.8459   -9.2915 N   0  0  0  0  0  0  0  0  0  0  0  0
   25.7127  -20.2352  -10.0905 C   0  0  0  0  0  0  0  0  0  0  0  0
   24.4764  -20.3036   -9.7319 N   0  0  0  0  0  0  0  0  0  0  0  0
   26.0377  -19.5445  -11.2854 N   0  0  0  0  0  0  0  0  0  0  0  0
   27.3801  -19.4914  -11.8385 C   0  0  0  0  0  0  0  0  0  0  0  0
   27.6275  -20.6430  -12.7987 C   0  0  0  0  0  0  0  0  0  0  0  0
   26.9081  -20.3855  -14.0979 C   0  0  0  0  0  0  0  0  0  0  0  0
   27.1864  -21.4987  -15.1053 C   0  0  2  0  0  0  0  0  0  0  0  0
   28.1790  -21.1230  -16.0440 N   0  0  0  0  0  0  0  0  0  0  0  0
   25.8868  -21.9161  -15.6866 C   0  0  0  0  0  0  0  0  0  0  0  0
   25.6042  -21.4053  -16.8148 O   0  0  0  0  0  0  0  0  0  0  0  0
   23.7325  -19.8898  -10.3085 N   0  0  0  0  0  0  0  0  0  0  0  0
   25.0118  -22.8042  -15.0703 C   0  0  2  0  0  0  0  0  0  0  0  0
   23.7163  -23.1053  -15.7200 C   0  0  0  0  0  0  0  0  0  0  0  0
   23.3939  -24.4820  -15.1204 C   0  0  0  0  0  0  0  0  0  0  0  0
   24.2822  -25.4974  -15.6654 O   0  0  0  0  0  0  0  0  0  0  0  0
   24.4896  -25.4787  -16.9196 C   0  0  0  0  0  0  0  0  0  0  0  0
   22.7276  -22.0798  -15.3503 O   0  0  0  0  0  0  0  0  0  0  0  0
   22.9191  -21.4763  -14.2313 O   0  0  0  0  0  0  0  0  0  0  0  0
   24.9251  -26.4875  -14.9385 N   0  0  0  0  0  0  0  0  0  0  0  0
   21.5974  -21.6853  -16.0964 C   0  0  0  0  0  0  0  0  0  0  0  0
   21.1463  -22.3106  -17.3603 C   0  0  0  0  0  0  0  0  0  0  0  0
   20.2377  -21.3504  -18.0356 C   0  0  0  0  0  0  0  0  0  0  0  0
   20.3154  -20.1034  -17.1931 C   0  0  1  0  0  0  0  0  0  0  0  0
   20.5922  -20.6878  -15.8262 C   0  0  0  0  0  0  0  0  0  0  0  0
   19.3408  -21.3669  -15.3308 O   0  0  0  0  0  0  0  0  0  0  0  0
   18.2726  -20.6474  -14.8305 O   0  0  0  0  0  0  0  0  0  0  0  0
  2  4  1  0
  2  1  1  0
  3  2  2  0
  5  4  1  0
  6  5  1  0
  7  6  1  0
  8  7  1  0
  8  9  1  6
 10 11  2  0
 10  8  1  0
 12 10  1  0
 13 12  1  0
 14 15  1  0
 13 14  1  1
 15 16  2  0
 17 20  1  0
 17 13  1  0
 18 17  2  0
 19 15  1  0
 20 21  1  0
 22 21  1  0
 23 24  1  0
 23 22  1  0
 24 20  1  0
 24 25  1  1
 25 26  1  0
 27 25  2  0
M  END
$$$$
