QLD.pdb
     RDKit          3D

 26 25  0  0  1  0  0  0  0  0999 V2000
    9.5023  -12.7112   18.2167 N   0  0  0  0  0  0  0  0  0  0  0  0
    8.2607  -13.3839   17.9386 C   0  0  0  0  0  0  0  0  0  0  0  0
    7.9657  -13.6067   16.7310 O   0  0  0  0  0  0  0  0  0  0  0  0
    7.3510  -13.8052   19.0327 C   0  0  0  0  0  0  0  0  0  0  0  0
    8.0135  -13.4765   20.3441 C   0  0  0  0  0  0  0  0  0  0  0  0
    8.4155  -14.6949   21.1255 C   0  0  2  0  0  0  0  0  0  0  0  0
    7.2638  -15.5759   21.1623 N   0  0  0  0  0  0  0  0  0  0  0  0
    8.9384  -14.4043   22.4732 C   0  0  0  0  0  0  0  0  0  0  0  0
   10.1218  -14.0041   22.6547 O   0  0  0  0  0  0  0  0  0  0  0  0
    5.5003  -12.5454   26.5883 C   0  0  0  0  0  0  0  0  0  0  0  0
    6.5956  -12.7382   25.5835 C   0  0  1  0  0  0  0  0  0  0  0  0
    7.4928  -11.4970   25.6986 C   0  0  0  0  0  0  0  0  0  0  0  0
    7.4186  -13.9206   25.9138 C   0  0  0  0  0  0  0  0  0  0  0  0
    8.4942  -14.3053   24.9635 C   0  0  2  0  0  0  0  0  0  0  0  0
    8.1096  -14.5694   23.6188 N   0  0  0  0  0  0  0  0  0  0  0  0
    9.2294  -15.4620   25.5910 C   0  0  0  0  0  0  0  0  0  0  0  0
    9.5109  -15.3882   26.8131 O   0  0  0  0  0  0  0  0  0  0  0  0
    9.6083  -16.6137   24.8616 N   0  0  0  0  0  0  0  0  0  0  0  0
   10.3657  -17.6717   25.5687 C   0  0  1  0  0  0  0  0  0  0  0  0
    9.8709  -18.9840   25.0252 C   0  0  0  0  0  0  0  0  0  0  0  0
    9.9070  -20.1047   25.9765 C   0  0  0  0  0  0  0  0  0  0  0  0
   10.4060  -19.9809   27.1130 O   0  0  0  0  0  0  0  0  0  0  0  0
   11.8019  -17.4957   25.1584 C   0  0  0  0  0  0  0  0  0  0  0  0
   12.1357  -17.1316   23.8389 O   0  0  0  0  0  0  0  0  0  0  0  0
    9.3741  -21.3358   25.6078 O   0  0  0  0  0  0  0  0  0  0  0  0
   12.7622  -17.6562   25.9388 O   0  0  0  0  0  0  0  0  0  0  0  0
  2  1  1  0
  3  2  2  0
  4  2  1  0
  5  6  1  0
  5  4  1  0
  6  8  1  0
  6  7  1  1
  8  9  2  0
 11 10  1  1
 11 12  1  0
 13 11  1  0
 14 13  1  1
 15  8  1  0
 15 14  1  0
 16 14  1  0
 16 17  2  0
 18 16  1  0
 19 23  1  0
 19 18  1  0
 19 20  1  6
 21 20  1  0
 21 25  1  0
 22 21  2  0
 23 24  1  0
 26 23  2  0
M  END
$$$$
