QLD.pdb
     RDKit          3D

 26 25  0  0  1  0  0  0  0  0999 V2000
    9.2872  -12.4659   18.2324 N   0  0  0  0  0  0  0  0  0  0  0  0
    8.1894  -13.3079   17.8360 C   0  0  0  0  0  0  0  0  0  0  0  0
    7.9539  -13.4315   16.6013 O   0  0  0  0  0  0  0  0  0  0  0  0
    7.3562  -14.0118   18.8421 C   0  0  0  0  0  0  0  0  0  0  0  0
    7.9421  -13.7452   20.2031 C   0  0  0  0  0  0  0  0  0  0  0  0
    8.2274  -14.9987   20.9802 C   0  0  2  0  0  0  0  0  0  0  0  0
    7.0079  -15.7840   20.9839 N   0  0  0  0  0  0  0  0  0  0  0  0
    8.7428  -14.7630   22.3414 C   0  0  0  0  0  0  0  0  0  0  0  0
    9.9178  -14.3486   22.5445 O   0  0  0  0  0  0  0  0  0  0  0  0
    5.7086  -12.6043   26.4800 C   0  0  0  0  0  0  0  0  0  0  0  0
    6.8195  -12.9504   25.5352 C   0  0  1  0  0  0  0  0  0  0  0  0
    7.9545  -11.9628   25.8437 C   0  0  0  0  0  0  0  0  0  0  0  0
    7.3284  -14.3145   25.7893 C   0  0  0  0  0  0  0  0  0  0  0  0
    8.3203  -14.8744   24.8349 C   0  0  2  0  0  0  0  0  0  0  0  0
    7.9160  -14.9992   23.4760 N   0  0  0  0  0  0  0  0  0  0  0  0
    8.7892  -16.1822   25.4197 C   0  0  0  0  0  0  0  0  0  0  0  0
    7.9889  -17.1506   25.4153 O   0  0  0  0  0  0  0  0  0  0  0  0
   10.0828  -16.3558   25.9660 N   0  0  0  0  0  0  0  0  0  0  0  0
   10.4388  -17.6853   26.5126 C   0  0  1  0  0  0  0  0  0  0  0  0
   11.9225  -17.8405   26.3203 C   0  0  0  0  0  0  0  0  0  0  0  0
   12.3590  -17.9633   24.9215 C   0  0  0  0  0  0  0  0  0  0  0  0
   11.5470  -18.1845   24.0009 O   0  0  0  0  0  0  0  0  0  0  0  0
   10.1528  -17.6155   27.9874 C   0  0  0  0  0  0  0  0  0  0  0  0
   10.2850  -18.7570   28.8026 O   0  0  0  0  0  0  0  0  0  0  0  0
   13.7082  -17.8308   24.6092 O   0  0  0  0  0  0  0  0  0  0  0  0
    9.7908  -16.5713   28.5667 O   0  0  0  0  0  0  0  0  0  0  0  0
  2  1  1  0
  3  2  2  0
  4  2  1  0
  5  6  1  0
  5  4  1  0
  6  8  1  0
  6  7  1  1
  8  9  2  0
 11 10  1  1
 11 12  1  0
 13 11  1  0
 14 13  1  1
 15  8  1  0
 15 14  1  0
 16 14  1  0
 16 17  2  0
 18 16  1  0
 19 23  1  0
 19 18  1  0
 19 20  1  1
 21 20  1  0
 21 25  1  0
 22 21  2  0
 23 24  1  0
 26 23  2  0
M  END
$$$$
