QLD.pdb
     RDKit          3D

 26 25  0  0  1  0  0  0  0  0999 V2000
    9.1521  -12.5672   18.2284 N   0  0  0  0  0  0  0  0  0  0  0  0
    8.1269  -13.5220   17.8987 C   0  0  0  0  0  0  0  0  0  0  0  0
    7.9244  -13.7754   16.6781 O   0  0  0  0  0  0  0  0  0  0  0  0
    7.3292  -14.1914   18.9557 C   0  0  0  0  0  0  0  0  0  0  0  0
    7.8505  -13.7372   20.2931 C   0  0  0  0  0  0  0  0  0  0  0  0
    8.3300  -14.8690   21.1566 C   0  0  2  0  0  0  0  0  0  0  0  0
    7.2371  -15.8168   21.2615 N   0  0  0  0  0  0  0  0  0  0  0  0
    8.8341  -14.4509   22.4776 C   0  0  0  0  0  0  0  0  0  0  0  0
    9.9005  -13.7870   22.6022 O   0  0  0  0  0  0  0  0  0  0  0  0
    5.6490  -12.7391   26.7465 C   0  0  0  0  0  0  0  0  0  0  0  0
    6.7338  -12.9136   25.7270 C   0  0  1  0  0  0  0  0  0  0  0  0
    7.6803  -11.7186   25.9140 C   0  0  0  0  0  0  0  0  0  0  0  0
    7.5093  -14.1460   25.9808 C   0  0  0  0  0  0  0  0  0  0  0  0
    8.5514  -14.5263   24.9922 C   0  0  2  0  0  0  0  0  0  0  0  0
    8.1199  -14.7896   23.6617 N   0  0  0  0  0  0  0  0  0  0  0  0
    9.3115  -15.6819   25.5915 C   0  0  0  0  0  0  0  0  0  0  0  0
    9.5255  -15.6682   26.8293 O   0  0  0  0  0  0  0  0  0  0  0  0
    9.7861  -16.7682   24.8189 N   0  0  0  0  0  0  0  0  0  0  0  0
   10.6334  -17.7834   25.4857 C   0  0  1  0  0  0  0  0  0  0  0  0
   10.3307  -19.0957   24.8158 C   0  0  0  0  0  0  0  0  0  0  0  0
    9.0558  -19.7148   25.2078 C   0  0  0  0  0  0  0  0  0  0  0  0
    8.4745  -19.3995   26.2654 O   0  0  0  0  0  0  0  0  0  0  0  0
   12.0549  -17.4044   25.1738 C   0  0  0  0  0  0  0  0  0  0  0  0
   13.1298  -18.0239   25.8416 O   0  0  0  0  0  0  0  0  0  0  0  0
    8.4777  -20.6761   24.3848 O   0  0  0  0  0  0  0  0  0  0  0  0
   12.3642  -16.5414   24.3272 O   0  0  0  0  0  0  0  0  0  0  0  0
  2  1  1  0
  3  2  2  0
  4  2  1  0
  5  6  1  0
  5  4  1  0
  6  8  1  0
  6  7  1  1
  8  9  2  0
 11 10  1  1
 11 12  1  0
 13 11  1  0
 14 13  1  1
 15  8  1  0
 15 14  1  0
 16 14  1  0
 16 17  2  0
 18 16  1  0
 19 23  1  0
 19 18  1  0
 19 20  1  6
 21 20  1  0
 21 25  1  0
 22 21  2  0
 23 24  1  0
 26 23  2  0
M  END
$$$$
