QLD.pdb
     RDKit          3D

 26 25  0  0  1  0  0  0  0  0999 V2000
   11.2414  -17.9174   18.0552 N   0  0  0  0  0  0  0  0  0  0  0  0
   11.1675  -17.2685   19.3377 C   0  0  0  0  0  0  0  0  0  0  0  0
   12.1703  -16.6051   19.7242 O   0  0  0  0  0  0  0  0  0  0  0  0
    9.9533  -17.3720   20.1845 C   0  0  0  0  0  0  0  0  0  0  0  0
    9.7845  -16.0697   20.9207 C   0  0  0  0  0  0  0  0  0  0  0  0
    8.8644  -16.1738   22.1036 C   0  0  2  0  0  0  0  0  0  0  0  0
    7.5263  -15.8764   21.6292 N   0  0  0  0  0  0  0  0  0  0  0  0
    9.2511  -15.3279   23.2476 C   0  0  0  0  0  0  0  0  0  0  0  0
    9.7724  -14.1896   23.0861 O   0  0  0  0  0  0  0  0  0  0  0  0
    6.1699  -13.1633   26.0810 C   0  0  0  0  0  0  0  0  0  0  0  0
    7.2758  -13.5759   25.1574 C   0  0  1  0  0  0  0  0  0  0  0  0
    7.4424  -12.4194   24.1606 C   0  0  0  0  0  0  0  0  0  0  0  0
    8.5513  -13.7269   25.8887 C   0  0  0  0  0  0  0  0  0  0  0  0
    9.2768  -15.0173   25.7599 C   0  0  2  0  0  0  0  0  0  0  0  0
    9.0423  -15.7800   24.5813 N   0  0  0  0  0  0  0  0  0  0  0  0
    8.9933  -15.7978   27.0179 C   0  0  0  0  0  0  0  0  0  0  0  0
    9.1138  -15.2051   28.1191 O   0  0  0  0  0  0  0  0  0  0  0  0
    8.6005  -17.1570   27.0028 N   0  0  0  0  0  0  0  0  0  0  0  0
    9.6417  -18.1884   27.2157 C   0  0  1  0  0  0  0  0  0  0  0  0
   10.6571  -17.9992   26.1222 C   0  0  0  0  0  0  0  0  0  0  0  0
   11.4411  -19.1973   25.7874 C   0  0  0  0  0  0  0  0  0  0  0  0
   11.2467  -20.2870   26.3625 O   0  0  0  0  0  0  0  0  0  0  0  0
   10.2892  -17.8560   28.5317 C   0  0  0  0  0  0  0  0  0  0  0  0
   10.7950  -16.5648   28.7811 O   0  0  0  0  0  0  0  0  0  0  0  0
   12.4252  -19.1219   24.8069 O   0  0  0  0  0  0  0  0  0  0  0  0
   10.4159  -18.6795   29.4607 O   0  0  0  0  0  0  0  0  0  0  0  0
  2  1  1  0
  3  2  2  0
  4  2  1  0
  5  6  1  0
  5  4  1  0
  6  8  1  0
  6  7  1  6
  8  9  2  0
 11 10  1  1
 11 12  1  0
 13 11  1  0
 14 13  1  6
 15  8  1  0
 15 14  1  0
 16 14  1  0
 16 17  2  0
 18 16  1  0
 19 23  1  0
 19 18  1  0
 19 20  1  6
 21 20  1  0
 21 25  1  0
 22 21  2  0
 23 24  1  0
 26 23  2  0
M  END
$$$$
