QLD.pdb
     RDKit          3D

 26 25  0  0  1  0  0  0  0  0999 V2000
    8.6049  -12.2242   17.9315 N   0  0  0  0  0  0  0  0  0  0  0  0
    8.3096  -13.5243   17.3894 C   0  0  0  0  0  0  0  0  0  0  0  0
    8.2109  -13.6342   16.1351 O   0  0  0  0  0  0  0  0  0  0  0  0
    8.1259  -14.7031   18.2717 C   0  0  0  0  0  0  0  0  0  0  0  0
    8.2360  -14.2397   19.6999 C   0  0  0  0  0  0  0  0  0  0  0  0
    8.2844  -15.3710   20.6869 C   0  0  2  0  0  0  0  0  0  0  0  0
    6.9693  -15.9828   20.6979 N   0  0  0  0  0  0  0  0  0  0  0  0
    8.7277  -14.9779   22.0371 C   0  0  0  0  0  0  0  0  0  0  0  0
    9.9267  -14.6653   22.2781 O   0  0  0  0  0  0  0  0  0  0  0  0
    8.3642  -12.1724   26.3833 C   0  0  0  0  0  0  0  0  0  0  0  0
    7.4352  -13.3354   26.5584 C   0  0  1  0  0  0  0  0  0  0  0  0
    6.1641  -12.7627   27.2028 C   0  0  0  0  0  0  0  0  0  0  0  0
    7.0560  -13.9148   25.2526 C   0  0  0  0  0  0  0  0  0  0  0  0
    8.1129  -14.5991   24.4635 C   0  0  2  0  0  0  0  0  0  0  0  0
    7.8010  -14.9396   23.1172 N   0  0  0  0  0  0  0  0  0  0  0  0
    8.5502  -15.7925   25.2739 C   0  0  0  0  0  0  0  0  0  0  0  0
    7.7067  -16.6974   25.4929 O   0  0  0  0  0  0  0  0  0  0  0  0
    9.8607  -15.9283   25.7896 N   0  0  0  0  0  0  0  0  0  0  0  0
   10.1957  -17.1652   26.5319 C   0  0  1  0  0  0  0  0  0  0  0  0
   11.5915  -17.5441   26.1184 C   0  0  0  0  0  0  0  0  0  0  0  0
   11.6883  -18.2579   24.8365 C   0  0  0  0  0  0  0  0  0  0  0  0
   10.6739  -18.5401   24.1678 O   0  0  0  0  0  0  0  0  0  0  0  0
   10.2157  -16.7817   27.9859 C   0  0  0  0  0  0  0  0  0  0  0  0
   10.3190  -15.4314   28.3744 O   0  0  0  0  0  0  0  0  0  0  0  0
   12.9376  -18.6312   24.3512 O   0  0  0  0  0  0  0  0  0  0  0  0
   10.1437  -17.6119   28.9148 O   0  0  0  0  0  0  0  0  0  0  0  0
  2  1  1  0
  3  2  2  0
  4  2  1  0
  5  6  1  0
  5  4  1  0
  6  8  1  0
  6  7  1  1
  8  9  2  0
 11 10  1  6
 11 12  1  0
 13 11  1  0
 14 13  1  1
 15  8  1  0
 15 14  1  0
 16 14  1  0
 16 17  2  0
 18 16  1  0
 19 23  1  0
 19 18  1  0
 19 20  1  6
 21 20  1  0
 21 25  1  0
 22 21  2  0
 23 24  1  0
 26 23  2  0
M  END
$$$$
