QLD.pdb
     RDKit          3D

 26 25  0  0  1  0  0  0  0  0999 V2000
    8.5612  -21.3672   18.2816 N   0  0  0  0  0  0  0  0  0  0  0  0
    9.2587  -20.5446   17.3286 C   0  0  0  0  0  0  0  0  0  0  0  0
    8.6074  -20.0988   16.3426 O   0  0  0  0  0  0  0  0  0  0  0  0
   10.6986  -20.2264   17.4940 C   0  0  0  0  0  0  0  0  0  0  0  0
   10.8255  -19.1792   18.5683 C   0  0  0  0  0  0  0  0  0  0  0  0
   10.4251  -17.8069   18.1071 C   0  0  2  0  0  0  0  0  0  0  0  0
   11.1226  -17.5567   16.8601 N   0  0  0  0  0  0  0  0  0  0  0  0
   10.6592  -16.7423   19.1000 C   0  0  0  0  0  0  0  0  0  0  0  0
   11.7634  -16.1353   19.1756 O   0  0  0  0  0  0  0  0  0  0  0  0
    6.4229  -13.3805   20.6600 C   0  0  0  0  0  0  0  0  0  0  0  0
    7.7382  -13.9263   20.1926 C   0  0  1  0  0  0  0  0  0  0  0  0
    8.5682  -12.7077   19.7627 C   0  0  0  0  0  0  0  0  0  0  0  0
    8.4590  -14.5952   21.2960 C   0  0  0  0  0  0  0  0  0  0  0  0
    9.7156  -15.3171   20.9674 C   0  0  2  0  0  0  0  0  0  0  0  0
    9.6308  -16.3669   20.0101 N   0  0  0  0  0  0  0  0  0  0  0  0
   10.3028  -15.7769   22.2774 C   0  0  0  0  0  0  0  0  0  0  0  0
   10.5201  -14.9117   23.1619 O   0  0  0  0  0  0  0  0  0  0  0  0
   10.6133  -17.1315   22.5429 N   0  0  0  0  0  0  0  0  0  0  0  0
   11.2706  -17.4595   23.8288 C   0  0  1  0  0  0  0  0  0  0  0  0
   12.4999  -16.5965   23.9099 C   0  0  0  0  0  0  0  0  0  0  0  0
   13.6539  -17.0839   23.1399 C   0  0  0  0  0  0  0  0  0  0  0  0
   13.9660  -18.2914   23.1246 O   0  0  0  0  0  0  0  0  0  0  0  0
   10.3120  -17.0279   24.9043 C   0  0  0  0  0  0  0  0  0  0  0  0
    9.0679  -16.4548   24.5743 O   0  0  0  0  0  0  0  0  0  0  0  0
   14.4212  -16.1828   22.4085 O   0  0  0  0  0  0  0  0  0  0  0  0
   10.5508  -17.1469   26.1233 O   0  0  0  0  0  0  0  0  0  0  0  0
  2  1  1  0
  3  2  2  0
  4  2  1  0
  5  6  1  0
  5  4  1  0
  6  8  1  0
  6  7  1  6
  8  9  2  0
 11 10  1  1
 11 12  1  0
 13 11  1  0
 14 13  1  1
 15  8  1  0
 15 14  1  0
 16 14  1  0
 16 17  2  0
 18 16  1  0
 19 23  1  0
 19 18  1  0
 19 20  1  1
 21 20  1  0
 21 25  1  0
 22 21  2  0
 23 24  1  0
 26 23  2  0
M  END
$$$$
