QLD.pdb
     RDKit          3D

 26 25  0  0  1  0  0  0  0  0999 V2000
    8.4439  -16.9123   13.5481 N   0  0  0  0  0  0  0  0  0  0  0  0
    8.8540  -16.0758   14.6451 C   0  0  0  0  0  0  0  0  0  0  0  0
    9.1592  -14.8764   14.3930 O   0  0  0  0  0  0  0  0  0  0  0  0
    8.9182  -16.6003   16.0317 C   0  0  0  0  0  0  0  0  0  0  0  0
   10.3311  -17.0470   16.2975 C   0  0  0  0  0  0  0  0  0  0  0  0
   10.5581  -17.4773   17.7187 C   0  0  2  0  0  0  0  0  0  0  0  0
    9.4767  -18.3786   18.0683 N   0  0  0  0  0  0  0  0  0  0  0  0
   10.6862  -16.3628   18.6755 C   0  0  0  0  0  0  0  0  0  0  0  0
   11.7397  -15.6716   18.7533 O   0  0  0  0  0  0  0  0  0  0  0  0
    6.1852  -13.3901   20.4527 C   0  0  0  0  0  0  0  0  0  0  0  0
    7.5023  -13.8480   19.9033 C   0  0  1  0  0  0  0  0  0  0  0  0
    8.2052  -12.5821   19.3911 C   0  0  0  0  0  0  0  0  0  0  0  0
    8.3472  -14.4336   20.9652 C   0  0  0  0  0  0  0  0  0  0  0  0
    9.6434  -15.0402   20.5655 C   0  0  2  0  0  0  0  0  0  0  0  0
    9.6095  -16.0335   19.5467 N   0  0  0  0  0  0  0  0  0  0  0  0
   10.2957  -15.5344   21.8314 C   0  0  0  0  0  0  0  0  0  0  0  0
   10.3732  -14.7416   22.8029 O   0  0  0  0  0  0  0  0  0  0  0  0
   10.8167  -16.8434   21.9629 N   0  0  0  0  0  0  0  0  0  0  0  0
   11.4625  -17.2139   23.2430 C   0  0  1  0  0  0  0  0  0  0  0  0
   10.6312  -18.3194   23.8340 C   0  0  0  0  0  0  0  0  0  0  0  0
   11.1726  -18.9150   25.0646 C   0  0  0  0  0  0  0  0  0  0  0  0
   11.3919  -18.2270   26.0816 O   0  0  0  0  0  0  0  0  0  0  0  0
   12.8106  -17.7723   22.8789 C   0  0  0  0  0  0  0  0  0  0  0  0
   13.8290  -17.8869   23.8458 O   0  0  0  0  0  0  0  0  0  0  0  0
   11.4496  -20.2779   25.1034 O   0  0  0  0  0  0  0  0  0  0  0  0
   13.1047  -18.1591   21.7296 O   0  0  0  0  0  0  0  0  0  0  0  0
  2  1  1  0
  3  2  2  0
  4  2  1  0
  5  6  1  0
  5  4  1  0
  6  8  1  0
  6  7  1  1
  8  9  2  0
 11 10  1  1
 11 12  1  0
 13 11  1  0
 14 13  1  1
 15  8  1  0
 15 14  1  0
 16 14  1  0
 16 17  2  0
 18 16  1  0
 19 23  1  0
 19 18  1  0
 19 20  1  6
 21 20  1  0
 21 25  1  0
 22 21  2  0
 23 24  1  0
 26 23  2  0
M  END
$$$$
