QLD.pdb
     RDKit          3D

 26 25  0  0  1  0  0  0  0  0999 V2000
    7.9260  -11.9332   18.9511 N   0  0  0  0  0  0  0  0  0  0  0  0
    7.7567  -13.3606   18.8802 C   0  0  0  0  0  0  0  0  0  0  0  0
    7.7283  -13.8974   17.7373 O   0  0  0  0  0  0  0  0  0  0  0  0
    7.6193  -14.1820   20.1084 C   0  0  0  0  0  0  0  0  0  0  0  0
    8.9008  -14.9475   20.3046 C   0  0  0  0  0  0  0  0  0  0  0  0
    8.8888  -15.8173   21.5293 C   0  0  2  0  0  0  0  0  0  0  0  0
    7.5740  -16.4250   21.6067 N   0  0  0  0  0  0  0  0  0  0  0  0
    9.2525  -15.1154   22.7739 C   0  0  0  0  0  0  0  0  0  0  0  0
   10.3597  -14.5230   22.9034 O   0  0  0  0  0  0  0  0  0  0  0  0
    5.5433  -12.6376   26.3149 C   0  0  0  0  0  0  0  0  0  0  0  0
    6.6967  -12.9725   25.4182 C   0  0  1  0  0  0  0  0  0  0  0  0
    7.5805  -11.7168   25.3862 C   0  0  0  0  0  0  0  0  0  0  0  0
    7.5036  -14.0766   25.9791 C   0  0  0  0  0  0  0  0  0  0  0  0
    8.6451  -14.5813   25.1727 C   0  0  2  0  0  0  0  0  0  0  0  0
    8.3509  -15.0872   23.8753 N   0  0  0  0  0  0  0  0  0  0  0  0
    9.3688  -15.5855   26.0330 C   0  0  0  0  0  0  0  0  0  0  0  0
    9.6096  -15.2746   27.2262 O   0  0  0  0  0  0  0  0  0  0  0  0
    9.7808  -16.8502   25.5505 N   0  0  0  0  0  0  0  0  0  0  0  0
   10.5386  -17.7348   26.4649 C   0  0  1  0  0  0  0  0  0  0  0  0
    9.6690  -18.9373   26.7104 C   0  0  0  0  0  0  0  0  0  0  0  0
   10.2083  -19.9087   27.6736 C   0  0  0  0  0  0  0  0  0  0  0  0
   11.2634  -19.6892   28.3015 O   0  0  0  0  0  0  0  0  0  0  0  0
   11.7564  -18.1740   25.6996 C   0  0  0  0  0  0  0  0  0  0  0  0
   12.8296  -18.8099   26.3546 O   0  0  0  0  0  0  0  0  0  0  0  0
    9.5313  -21.1038   27.8955 O   0  0  0  0  0  0  0  0  0  0  0  0
   11.8900  -18.0082   24.4701 O   0  0  0  0  0  0  0  0  0  0  0  0
  2  1  1  0
  3  2  2  0
  4  2  1  0
  5  6  1  0
  5  4  1  0
  6  8  1  0
  6  7  1  1
  8  9  2  0
 11 10  1  1
 11 12  1  0
 13 11  1  0
 14 13  1  1
 15  8  1  0
 15 14  1  0
 16 14  1  0
 16 17  2  0
 18 16  1  0
 19 23  1  0
 19 18  1  0
 19 20  1  6
 21 20  1  0
 21 25  1  0
 22 21  2  0
 23 24  1  0
 26 23  2  0
M  END
$$$$
