QLD.pdb
     RDKit          3D

 26 25  0  0  1  0  0  0  0  0999 V2000
    8.8722  -12.3090   18.4196 N   0  0  0  0  0  0  0  0  0  0  0  0
    8.0383  -13.3592   17.8969 C   0  0  0  0  0  0  0  0  0  0  0  0
    7.9174  -13.4505   16.6431 O   0  0  0  0  0  0  0  0  0  0  0  0
    7.3396  -14.3086   18.7983 C   0  0  0  0  0  0  0  0  0  0  0  0
    7.6921  -13.9510   20.2177 C   0  0  0  0  0  0  0  0  0  0  0  0
    8.1817  -15.1235   21.0190 C   0  0  2  0  0  0  0  0  0  0  0  0
    7.1032  -16.0928   21.0574 N   0  0  0  0  0  0  0  0  0  0  0  0
    8.6664  -14.7753   22.3672 C   0  0  0  0  0  0  0  0  0  0  0  0
    9.8419  -14.3591   22.5637 O   0  0  0  0  0  0  0  0  0  0  0  0
    5.6679  -12.5621   26.6284 C   0  0  0  0  0  0  0  0  0  0  0  0
    6.7851  -12.8832   25.6823 C   0  0  1  0  0  0  0  0  0  0  0  0
    7.9586  -11.9846   26.0996 C   0  0  0  0  0  0  0  0  0  0  0  0
    7.2197  -14.2882   25.8294 C   0  0  0  0  0  0  0  0  0  0  0  0
    8.2140  -14.8128   24.8577 C   0  0  2  0  0  0  0  0  0  0  0  0
    7.8084  -14.9007   23.4962 N   0  0  0  0  0  0  0  0  0  0  0  0
    8.6932  -16.1337   25.4032 C   0  0  0  0  0  0  0  0  0  0  0  0
    7.8779  -17.0891   25.4350 O   0  0  0  0  0  0  0  0  0  0  0  0
   10.0124  -16.3335   25.8743 N   0  0  0  0  0  0  0  0  0  0  0  0
   10.4116  -17.7014   26.2776 C   0  0  1  0  0  0  0  0  0  0  0  0
   11.8255  -17.8895   25.8002 C   0  0  0  0  0  0  0  0  0  0  0  0
   12.4538  -19.1572   26.2009 C   0  0  0  0  0  0  0  0  0  0  0  0
   13.1521  -19.2432   27.2308 O   0  0  0  0  0  0  0  0  0  0  0  0
   10.4105  -17.7054   27.7815 C   0  0  0  0  0  0  0  0  0  0  0  0
   10.4158  -18.9176   28.4996 O   0  0  0  0  0  0  0  0  0  0  0  0
   12.2699  -20.2922   25.4177 O   0  0  0  0  0  0  0  0  0  0  0  0
   10.4054  -16.6645   28.4697 O   0  0  0  0  0  0  0  0  0  0  0  0
  2  1  1  0
  3  2  2  0
  4  2  1  0
  5  6  1  0
  5  4  1  0
  6  8  1  0
  6  7  1  1
  8  9  2  0
 11 10  1  1
 11 12  1  0
 13 11  1  0
 14 13  1  1
 15  8  1  0
 15 14  1  0
 16 14  1  0
 16 17  2  0
 18 16  1  0
 19 23  1  0
 19 18  1  0
 19 20  1  1
 21 20  1  0
 21 25  1  0
 22 21  2  0
 23 24  1  0
 26 23  2  0
M  END
$$$$
