SFS.pdb
     RDKit          3D

 24 24  0  0  1  0  0  0  0  0999 V2000
   35.1007  -27.9468    5.2958 O   0  0  0  0  0  0  0  0  0  0  0  0
   34.8832  -26.8528    4.4676 C   0  0  0  0  0  0  0  0  0  0  0  0
   36.0300  -25.8692    4.5473 C   0  0  2  0  0  0  0  0  0  0  0  0
   37.3074  -26.5142    4.4470 N   0  0  0  0  0  0  0  0  0  0  0  0
   35.9808  -25.0496    5.7600 C   0  0  0  0  0  0  0  0  0  0  0  0
   36.6738  -25.3484    6.7580 O   0  0  0  0  0  0  0  0  0  0  0  0
   35.1350  -23.9099    5.7882 N   0  0  0  0  0  0  0  0  0  0  0  0
   35.0628  -23.0232    6.9122 C   0  0  1  0  0  0  0  0  0  0  0  0
   34.7821  -21.6320    6.3824 C   0  0  0  0  0  0  0  0  0  0  0  0
   33.4050  -21.5417    5.8478 C   0  0  0  0  0  0  0  0  0  0  0  0
   33.0870  -21.9777    4.5624 C   0  0  0  0  0  0  0  0  0  0  0  0
   31.8056  -21.8935    4.0652 C   0  0  0  0  0  0  0  0  0  0  0  0
   30.8108  -21.3651    4.8570 C   0  0  0  0  0  0  0  0  0  0  0  0
   31.1027  -20.9272    6.1327 C   0  0  0  0  0  0  0  0  0  0  0  0
   32.3816  -21.0126    6.6254 C   0  0  0  0  0  0  0  0  0  0  0  0
   34.0120  -23.4853    7.8326 C   0  0  0  0  0  0  0  0  0  0  0  0
   33.0102  -24.1164    7.4075 O   0  0  0  0  0  0  0  0  0  0  0  0
   34.5141  -23.6113   12.0401 O   0  0  0  0  0  0  0  0  0  0  0  0
   33.7502  -24.4730   11.2908 C   0  0  0  0  0  0  0  0  0  0  0  0
   33.0617  -23.7839   10.1243 C   0  0  2  0  0  0  0  0  0  0  0  0
   34.0601  -23.2523    9.2393 N   0  0  0  0  0  0  0  0  0  0  0  0
   32.1390  -22.7368   10.5542 C   0  0  0  0  0  0  0  0  0  0  0  0
   32.3373  -21.5343   10.2661 O   0  0  0  0  0  0  0  0  0  0  0  0
   31.0168  -23.0573   11.2955 O   0  0  0  0  0  0  0  0  0  0  0  0
  2  1  1  0
  3  2  1  0
  3  4  1  1
  5  3  1  0
  5  6  2  0
  7  5  1  0
  8  7  1  0
  9 10  1  0
  8  9  1  6
 10 15  2  0
 11 10  1  0
 11 12  2  0
 12 13  1  0
 13 14  2  0
 15 14  1  0
 16 21  1  0
 16  8  1  0
 17 16  2  0
 18 19  1  0
 20 19  1  1
 20 21  1  0
 20 22  1  0
 22 23  2  0
 22 24  1  0
M  END
$$$$
