SFS.pdb
     RDKit          3D

 24 24  0  0  1  0  0  0  0  0999 V2000
   13.2415  -19.7455    3.3270 O   0  0  0  0  0  0  0  0  0  0  0  0
   13.8115  -19.1526    2.2074 C   0  0  0  0  0  0  0  0  0  0  0  0
   15.0717  -19.8764    1.7865 C   0  0  2  0  0  0  0  0  0  0  0  0
   14.8294  -21.2566    1.4801 N   0  0  0  0  0  0  0  0  0  0  0  0
   16.1384  -19.7685    2.7842 C   0  0  0  0  0  0  0  0  0  0  0  0
   16.4883  -20.7674    3.4516 O   0  0  0  0  0  0  0  0  0  0  0  0
   16.7711  -18.5137    2.9843 N   0  0  0  0  0  0  0  0  0  0  0  0
   17.7353  -18.2857    4.0203 C   0  0  1  0  0  0  0  0  0  0  0  0
   18.8190  -17.3935    3.4509 C   0  0  0  0  0  0  0  0  0  0  0  0
   18.3514  -15.9924    3.3593 C   0  0  0  0  0  0  0  0  0  0  0  0
   18.6971  -15.0395    4.3164 C   0  0  0  0  0  0  0  0  0  0  0  0
   18.2618  -13.7358    4.2310 C   0  0  0  0  0  0  0  0  0  0  0  0
   17.4640  -13.3617    3.1730 C   0  0  0  0  0  0  0  0  0  0  0  0
   17.1092  -14.2881    2.2138 C   0  0  0  0  0  0  0  0  0  0  0  0
   17.5451  -15.5873    2.3021 C   0  0  0  0  0  0  0  0  0  0  0  0
   17.0700  -17.6733    5.1810 C   0  0  0  0  0  0  0  0  0  0  0  0
   15.9491  -17.1141    5.0646 O   0  0  0  0  0  0  0  0  0  0  0  0
   16.0808  -17.5962    9.7727 O   0  0  0  0  0  0  0  0  0  0  0  0
   16.7581  -18.0965    8.6873 C   0  0  0  0  0  0  0  0  0  0  0  0
   16.9755  -17.0564    7.6007 C   0  0  2  0  0  0  0  0  0  0  0  0
   17.6415  -17.6740    6.4882 N   0  0  0  0  0  0  0  0  0  0  0  0
   17.7243  -15.8957    8.0744 C   0  0  0  0  0  0  0  0  0  0  0  0
   17.1416  -14.8866    8.5331 O   0  0  0  0  0  0  0  0  0  0  0  0
   19.1060  -15.8893    8.0245 O   0  0  0  0  0  0  0  0  0  0  0  0
  2  1  1  0
  3  2  1  0
  3  4  1  1
  5  3  1  0
  5  6  2  0
  7  5  1  0
  8  7  1  0
  9 10  1  0
  8  9  1  6
 10 15  2  0
 11 10  1  0
 11 12  2  0
 12 13  1  0
 13 14  2  0
 15 14  1  0
 16 21  1  0
 16  8  1  0
 17 16  2  0
 18 19  1  0
 20 19  1  1
 20 21  1  0
 20 22  1  0
 22 23  2  0
 22 24  1  0
M  END
$$$$
