SFS.pdb
     RDKit          3D

 24 24  0  0  1  0  0  0  0  0999 V2000
   25.2503  -17.5401  -15.5506 O   0  0  0  0  0  0  0  0  0  0  0  0
   25.9630  -17.0559  -14.4608 C   0  0  0  0  0  0  0  0  0  0  0  0
   27.2209  -17.8634  -14.2268 C   0  0  2  0  0  0  0  0  0  0  0  0
   28.1762  -17.7004  -15.2843 N   0  0  0  0  0  0  0  0  0  0  0  0
   26.9422  -19.2867  -14.0236 C   0  0  0  0  0  0  0  0  0  0  0  0
   27.4499  -20.1479  -14.7763 O   0  0  0  0  0  0  0  0  0  0  0  0
   26.0871  -19.6771  -12.9599 N   0  0  0  0  0  0  0  0  0  0  0  0
   25.8262  -21.0488  -12.6356 C   0  0  1  0  0  0  0  0  0  0  0  0
   25.3648  -21.1001  -11.1937 C   0  0  0  0  0  0  0  0  0  0  0  0
   26.5051  -20.9063  -10.2703 C   0  0  0  0  0  0  0  0  0  0  0  0
   27.7868  -21.3572  -10.5826 C   0  0  0  0  0  0  0  0  0  0  0  0
   28.8476  -21.1767   -9.7233 C   0  0  0  0  0  0  0  0  0  0  0  0
   28.6388  -20.5342   -8.5236 C   0  0  0  0  0  0  0  0  0  0  0  0
   27.3785  -20.0794   -8.1935 C   0  0  0  0  0  0  0  0  0  0  0  0
   26.3229  -20.2611   -9.0528 C   0  0  0  0  0  0  0  0  0  0  0  0
   24.8134  -21.5851  -13.5583 C   0  0  0  0  0  0  0  0  0  0  0  0
   23.7638  -20.9403  -13.8138 O   0  0  0  0  0  0  0  0  0  0  0  0
   25.0564  -25.4697  -15.2897 O   0  0  0  0  0  0  0  0  0  0  0  0
   24.6025  -24.3969  -16.0180 C   0  0  0  0  0  0  0  0  0  0  0  0
   23.9742  -23.3207  -15.1481 C   0  0  2  0  0  0  0  0  0  0  0  0
   24.9530  -22.8463  -14.2103 N   0  0  0  0  0  0  0  0  0  0  0  0
   22.7752  -23.7853  -14.4560 C   0  0  0  0  0  0  0  0  0  0  0  0
   21.7987  -24.2529  -15.0855 O   0  0  0  0  0  0  0  0  0  0  0  0
   22.6949  -23.7166  -13.0775 O   0  0  0  0  0  0  0  0  0  0  0  0
  2  1  1  0
  3  2  1  0
  3  4  1  6
  5  3  1  0
  5  6  2  0
  7  5  1  0
  8  7  1  0
  9 10  1  0
  8  9  1  1
 10 15  2  0
 11 10  1  0
 11 12  2  0
 12 13  1  0
 13 14  2  0
 15 14  1  0
 16 21  1  0
 16  8  1  0
 17 16  2  0
 18 19  1  0
 20 19  1  1
 20 21  1  0
 20 22  1  0
 22 23  2  0
 22 24  1  0
M  END
$$$$
