SFS.pdb
     RDKit          3D

 24 24  0  0  1  0  0  0  0  0999 V2000
   26.0623  -21.3225  -18.3464 O   0  0  0  0  0  0  0  0  0  0  0  0
   27.2105  -20.7741  -17.7887 C   0  0  0  0  0  0  0  0  0  0  0  0
   27.8044  -21.6933  -16.7440 C   0  0  2  0  0  0  0  0  0  0  0  0
   28.2913  -22.9178  -17.3108 N   0  0  0  0  0  0  0  0  0  0  0  0
   26.8661  -21.9865  -15.6585 C   0  0  0  0  0  0  0  0  0  0  0  0
   26.3568  -23.1241  -15.5480 O   0  0  0  0  0  0  0  0  0  0  0  0
   26.5415  -20.9614  -14.7317 N   0  0  0  0  0  0  0  0  0  0  0  0
   25.7001  -21.1815  -13.5922 C   0  0  1  0  0  0  0  0  0  0  0  0
   26.0772  -20.1603  -12.5387 C   0  0  0  0  0  0  0  0  0  0  0  0
   25.2533  -20.3330  -11.3215 C   0  0  0  0  0  0  0  0  0  0  0  0
   25.7282  -21.0206  -10.2056 C   0  0  0  0  0  0  0  0  0  0  0  0
   24.9615  -21.1811   -9.0731 C   0  0  0  0  0  0  0  0  0  0  0  0
   23.6919  -20.6492   -9.0401 C   0  0  0  0  0  0  0  0  0  0  0  0
   23.2010  -19.9647  -10.1331 C   0  0  0  0  0  0  0  0  0  0  0  0
   23.9684  -19.8064  -11.2609 C   0  0  0  0  0  0  0  0  0  0  0  0
   24.2901  -21.0631  -13.9955 C   0  0  0  0  0  0  0  0  0  0  0  0
   23.8929  -20.0874  -14.6831 O   0  0  0  0  0  0  0  0  0  0  0  0
   19.9706  -23.1837  -14.5345 O   0  0  0  0  0  0  0  0  0  0  0  0
   21.3058  -23.2446  -14.2173 C   0  0  0  0  0  0  0  0  0  0  0  0
   21.9255  -21.8708  -14.0212 C   0  0  2  0  0  0  0  0  0  0  0  0
   23.3013  -22.0281  -13.6401 N   0  0  0  0  0  0  0  0  0  0  0  0
   21.2050  -21.0630  -13.0411 C   0  0  0  0  0  0  0  0  0  0  0  0
   20.4769  -20.1067  -13.3931 O   0  0  0  0  0  0  0  0  0  0  0  0
   21.3144  -21.3420  -11.6914 O   0  0  0  0  0  0  0  0  0  0  0  0
  2  1  1  0
  3  2  1  0
  3  4  1  6
  5  3  1  0
  5  6  2  0
  7  5  1  0
  8  7  1  0
  9 10  1  0
  8  9  1  1
 10 15  2  0
 11 10  1  0
 11 12  2  0
 12 13  1  0
 13 14  2  0
 15 14  1  0
 16 21  1  0
 16  8  1  0
 17 16  2  0
 18 19  1  0
 20 19  1  1
 20 21  1  0
 20 22  1  0
 22 23  2  0
 22 24  1  0
M  END
$$$$
