SFS.pdb
     RDKit          3D

 24 24  0  0  1  0  0  0  0  0999 V2000
   14.2853  -20.7970    8.4708 O   0  0  0  0  0  0  0  0  0  0  0  0
   15.6518  -20.5653    8.3771 C   0  0  0  0  0  0  0  0  0  0  0  0
   16.0673  -20.3132    6.9442 C   0  0  2  0  0  0  0  0  0  0  0  0
   15.0527  -19.6283    6.1964 N   0  0  0  0  0  0  0  0  0  0  0  0
   16.4524  -21.5432    6.2489 C   0  0  0  0  0  0  0  0  0  0  0  0
   15.6459  -22.1225    5.4875 O   0  0  0  0  0  0  0  0  0  0  0  0
   17.7549  -22.0704    6.4503 N   0  0  0  0  0  0  0  0  0  0  0  0
   18.2054  -23.2851    5.8367 C   0  0  1  0  0  0  0  0  0  0  0  0
   19.7061  -23.1806    5.6585 C   0  0  0  0  0  0  0  0  0  0  0  0
   20.2224  -24.3237    4.8731 C   0  0  0  0  0  0  0  0  0  0  0  0
   20.6693  -25.4931    5.4866 C   0  0  0  0  0  0  0  0  0  0  0  0
   21.1498  -26.5567    4.7557 C   0  0  0  0  0  0  0  0  0  0  0  0
   21.1906  -26.4646    3.3825 C   0  0  0  0  0  0  0  0  0  0  0  0
   20.7533  -25.3167    2.7537 C   0  0  0  0  0  0  0  0  0  0  0  0
   20.2749  -24.2580    3.4857 C   0  0  0  0  0  0  0  0  0  0  0  0
   17.8286  -24.4288    6.6822 C   0  0  0  0  0  0  0  0  0  0  0  0
   18.0372  -24.4136    7.9227 O   0  0  0  0  0  0  0  0  0  0  0  0
   16.3052  -28.1571    5.1816 O   0  0  0  0  0  0  0  0  0  0  0  0
   15.7664  -27.5255    6.2762 C   0  0  0  0  0  0  0  0  0  0  0  0
   16.7807  -26.6721    7.0194 C   0  0  2  0  0  0  0  0  0  0  0  0
   17.2145  -25.6060    6.1604 N   0  0  0  0  0  0  0  0  0  0  0  0
   17.9212  -27.4457    7.5024 C   0  0  0  0  0  0  0  0  0  0  0  0
   19.0592  -27.3152    6.9961 O   0  0  0  0  0  0  0  0  0  0  0  0
   17.7639  -28.3468    8.5391 O   0  0  0  0  0  0  0  0  0  0  0  0
  2  1  1  0
  3  2  1  0
  3  4  1  6
  5  3  1  0
  5  6  2  0
  7  5  1  0
  8  7  1  0
  9 10  1  0
  8  9  1  1
 10 15  2  0
 11 10  1  0
 11 12  2  0
 12 13  1  0
 13 14  2  0
 15 14  1  0
 16 21  1  0
 16  8  1  0
 17 16  2  0
 18 19  1  0
 20 19  1  6
 20 21  1  0
 20 22  1  0
 22 23  2  0
 22 24  1  0
M  END
$$$$
