SFS.pdb
     RDKit          3D

 24 24  0  0  1  0  0  0  0  0999 V2000
   22.6112   -8.7679  -21.8821 O   0  0  0  0  0  0  0  0  0  0  0  0
   22.0002   -8.6873  -20.6370 C   0  0  0  0  0  0  0  0  0  0  0  0
   22.9314   -9.1528  -19.5391 C   0  0  2  0  0  0  0  0  0  0  0  0
   23.1924  -10.5616  -19.6087 N   0  0  0  0  0  0  0  0  0  0  0  0
   22.4409   -8.8034  -18.2041 C   0  0  0  0  0  0  0  0  0  0  0  0
   21.7745   -9.6254  -17.5362 O   0  0  0  0  0  0  0  0  0  0  0  0
   22.7319   -7.5179  -17.6771 N   0  0  0  0  0  0  0  0  0  0  0  0
   22.2348   -7.0661  -16.4108 C   0  0  1  0  0  0  0  0  0  0  0  0
   23.4240   -6.6314  -15.5791 C   0  0  0  0  0  0  0  0  0  0  0  0
   24.2919   -7.7869  -15.2598 C   0  0  0  0  0  0  0  0  0  0  0  0
   25.5469   -7.9458  -15.8457 C   0  0  0  0  0  0  0  0  0  0  0  0
   26.3543   -9.0210  -15.5484 C   0  0  0  0  0  0  0  0  0  0  0  0
   25.9121   -9.9651  -14.6491 C   0  0  0  0  0  0  0  0  0  0  0  0
   24.6732   -9.8283  -14.0569 C   0  0  0  0  0  0  0  0  0  0  0  0
   23.8706   -8.7548  -14.3556 C   0  0  0  0  0  0  0  0  0  0  0  0
   21.2798   -5.9674  -16.6243 C   0  0  0  0  0  0  0  0  0  0  0  0
   21.5509   -5.0153  -17.4005 O   0  0  0  0  0  0  0  0  0  0  0  0
   17.2962   -6.2904  -16.9154 O   0  0  0  0  0  0  0  0  0  0  0  0
   17.6713   -5.3388  -15.9984 C   0  0  0  0  0  0  0  0  0  0  0  0
   19.0884   -4.8365  -16.2202 C   0  0  2  0  0  0  0  0  0  0  0  0
   20.0093   -5.9116  -15.9776 N   0  0  0  0  0  0  0  0  0  0  0  0
   19.4118   -3.6793  -15.3903 C   0  0  0  0  0  0  0  0  0  0  0  0
   20.3898   -3.6906  -14.6082 O   0  0  0  0  0  0  0  0  0  0  0  0
   18.6355   -2.5370  -15.4536 O   0  0  0  0  0  0  0  0  0  0  0  0
  2  1  1  0
  3  2  1  0
  3  4  1  1
  5  3  1  0
  5  6  2  0
  7  5  1  0
  8  7  1  0
  9 10  1  0
  8  9  1  1
 10 15  2  0
 11 10  1  0
 11 12  2  0
 12 13  1  0
 13 14  2  0
 15 14  1  0
 16 21  1  0
 16  8  1  0
 17 16  2  0
 18 19  1  0
 20 19  1  1
 20 21  1  0
 20 22  1  0
 22 23  2  0
 22 24  1  0
M  END
$$$$
