SFS.pdb
     RDKit          3D

 24 24  0  0  1  0  0  0  0  0999 V2000
   28.0844  -19.6654  -13.5983 O   0  0  0  0  0  0  0  0  0  0  0  0
   29.0501  -19.4254  -12.6288 C   0  0  0  0  0  0  0  0  0  0  0  0
   29.2289  -20.6258  -11.7253 C   0  0  2  0  0  0  0  0  0  0  0  0
   29.6936  -21.7796  -12.4398 N   0  0  0  0  0  0  0  0  0  0  0  0
   28.0084  -20.9567  -10.9867 C   0  0  0  0  0  0  0  0  0  0  0  0
   27.4163  -22.0403  -11.1896 O   0  0  0  0  0  0  0  0  0  0  0  0
   27.5050  -20.0304  -10.0361 N   0  0  0  0  0  0  0  0  0  0  0  0
   26.2744  -20.2330   -9.3294 C   0  0  1  0  0  0  0  0  0  0  0  0
   26.2225  -19.2255   -8.1993 C   0  0  0  0  0  0  0  0  0  0  0  0
   27.0519  -19.6732   -7.0583 C   0  0  0  0  0  0  0  0  0  0  0  0
   26.6880  -20.7639   -6.2701 C   0  0  0  0  0  0  0  0  0  0  0  0
   27.4599  -21.1803   -5.2084 C   0  0  0  0  0  0  0  0  0  0  0  0
   28.6223  -20.5025   -4.9162 C   0  0  0  0  0  0  0  0  0  0  0  0
   29.0022  -19.4199   -5.6829 C   0  0  0  0  0  0  0  0  0  0  0  0
   28.2300  -19.0075   -6.7409 C   0  0  0  0  0  0  0  0  0  0  0  0
   25.1452  -20.0773  -10.2597 C   0  0  0  0  0  0  0  0  0  0  0  0
   24.8574  -18.9536  -10.7466 O   0  0  0  0  0  0  0  0  0  0  0  0
   23.5757  -23.3003  -12.4115 O   0  0  0  0  0  0  0  0  0  0  0  0
   23.6122  -21.9869  -12.8126 C   0  0  0  0  0  0  0  0  0  0  0  0
   23.3167  -21.0187  -11.6791 C   0  0  2  0  0  0  0  0  0  0  0  0
   24.3195  -21.1689  -10.6619 N   0  0  0  0  0  0  0  0  0  0  0  0
   21.9797  -21.1979  -11.1199 C   0  0  0  0  0  0  0  0  0  0  0  0
   21.8080  -21.4253   -9.9004 O   0  0  0  0  0  0  0  0  0  0  0  0
   20.8662  -21.1188  -11.9356 O   0  0  0  0  0  0  0  0  0  0  0  0
  2  1  1  0
  3  2  1  0
  3  4  1  6
  5  3  1  0
  5  6  2  0
  7  5  1  0
  8  7  1  0
  9 10  1  0
  8  9  1  1
 10 15  2  0
 11 10  1  0
 11 12  2  0
 12 13  1  0
 13 14  2  0
 15 14  1  0
 16 21  1  0
 16  8  1  0
 17 16  2  0
 18 19  1  0
 20 19  1  6
 20 21  1  0
 20 22  1  0
 22 23  2  0
 22 24  1  0
M  END
$$$$
