SFS.pdb
     RDKit          3D

 24 24  0  0  1  0  0  0  0  0999 V2000
   20.7889   -8.9800  -21.5215 O   0  0  0  0  0  0  0  0  0  0  0  0
   21.3578   -8.2406  -20.4921 C   0  0  0  0  0  0  0  0  0  0  0  0
   21.8755   -9.1415  -19.3923 C   0  0  2  0  0  0  0  0  0  0  0  0
   21.5880  -10.5245  -19.6420 N   0  0  0  0  0  0  0  0  0  0  0  0
   21.3702   -8.7593  -18.0719 C   0  0  0  0  0  0  0  0  0  0  0  0
   20.6450   -9.5415  -17.4176 O   0  0  0  0  0  0  0  0  0  0  0  0
   21.7146   -7.4877  -17.5433 N   0  0  0  0  0  0  0  0  0  0  0  0
   21.2636   -7.0306  -16.2617 C   0  0  1  0  0  0  0  0  0  0  0  0
   22.4877   -6.6640  -15.4480 C   0  0  0  0  0  0  0  0  0  0  0  0
   23.1812   -7.8795  -14.9663 C   0  0  0  0  0  0  0  0  0  0  0  0
   24.3939   -8.2973  -15.5124 C   0  0  0  0  0  0  0  0  0  0  0  0
   25.0390   -9.4283  -15.0640 C   0  0  0  0  0  0  0  0  0  0  0  0
   24.4728  -10.1673  -14.0496 C   0  0  0  0  0  0  0  0  0  0  0  0
   23.2729   -9.7725  -13.4940 C   0  0  0  0  0  0  0  0  0  0  0  0
   22.6323   -8.6441  -13.9435 C   0  0  0  0  0  0  0  0  0  0  0  0
   20.3580   -5.8852  -16.4421 C   0  0  0  0  0  0  0  0  0  0  0  0
   20.6696   -4.9251  -17.1930 O   0  0  0  0  0  0  0  0  0  0  0  0
   16.3700   -6.0399  -15.1081 O   0  0  0  0  0  0  0  0  0  0  0  0
   16.7638   -5.3984  -16.2573 C   0  0  0  0  0  0  0  0  0  0  0  0
   18.1425   -4.7706  -16.1359 C   0  0  2  0  0  0  0  0  0  0  0  0
   19.0925   -5.7907  -15.7902 N   0  0  0  0  0  0  0  0  0  0  0  0
   18.1800   -3.6775  -15.1684 C   0  0  0  0  0  0  0  0  0  0  0  0
   18.9333   -3.7169  -14.1688 O   0  0  0  0  0  0  0  0  0  0  0  0
   17.3754   -2.5663  -15.3401 O   0  0  0  0  0  0  0  0  0  0  0  0
  2  1  1  0
  3  2  1  0
  3  4  1  6
  5  3  1  0
  5  6  2  0
  7  5  1  0
  8  7  1  0
  9 10  1  0
  8  9  1  1
 10 15  2  0
 11 10  1  0
 11 12  2  0
 12 13  1  0
 13 14  2  0
 15 14  1  0
 16 21  1  0
 16  8  1  0
 17 16  2  0
 18 19  1  0
 20 19  1  1
 20 21  1  0
 20 22  1  0
 22 23  2  0
 22 24  1  0
M  END
$$$$
