SFS.pdb
     RDKit          3D

 24 24  0  0  1  0  0  0  0  0999 V2000
   26.2619  -23.3788  -17.8701 O   0  0  0  0  0  0  0  0  0  0  0  0
   26.9087  -22.9506  -16.7176 C   0  0  0  0  0  0  0  0  0  0  0  0
   26.4139  -23.7019  -15.5010 C   0  0  2  0  0  0  0  0  0  0  0  0
   26.0955  -25.0686  -15.7984 N   0  0  0  0  0  0  0  0  0  0  0  0
   25.2646  -23.0496  -14.8699 C   0  0  0  0  0  0  0  0  0  0  0  0
   24.2119  -23.6894  -14.6501 O   0  0  0  0  0  0  0  0  0  0  0  0
   25.3607  -21.6798  -14.5104 N   0  0  0  0  0  0  0  0  0  0  0  0
   24.2856  -20.9611  -13.8918 C   0  0  1  0  0  0  0  0  0  0  0  0
   24.8934  -19.8438  -13.0691 C   0  0  0  0  0  0  0  0  0  0  0  0
   25.0675  -20.2637  -11.6607 C   0  0  0  0  0  0  0  0  0  0  0  0
   24.0199  -20.2054  -10.7429 C   0  0  0  0  0  0  0  0  0  0  0  0
   24.1822  -20.5962   -9.4324 C   0  0  0  0  0  0  0  0  0  0  0  0
   25.4109  -21.0570   -9.0159 C   0  0  0  0  0  0  0  0  0  0  0  0
   26.4624  -21.1234   -9.9071 C   0  0  0  0  0  0  0  0  0  0  0  0
   26.2970  -20.7328  -11.2132 C   0  0  0  0  0  0  0  0  0  0  0  0
   23.3776  -20.4502  -14.9308 C   0  0  0  0  0  0  0  0  0  0  0  0
   23.8171  -19.7899  -15.9073 O   0  0  0  0  0  0  0  0  0  0  0  0
   20.1276  -22.3243  -16.3501 O   0  0  0  0  0  0  0  0  0  0  0  0
   20.8117  -21.2780  -16.9197 C   0  0  0  0  0  0  0  0  0  0  0  0
   21.1060  -20.1618  -15.9312 C   0  0  2  0  0  0  0  0  0  0  0  0
   21.9678  -20.6660  -14.8989 N   0  0  0  0  0  0  0  0  0  0  0  0
   19.8939  -19.5832  -15.3584 C   0  0  0  0  0  0  0  0  0  0  0  0
   19.7068  -19.5548  -14.1204 O   0  0  0  0  0  0  0  0  0  0  0  0
   18.9193  -19.0499  -16.1814 O   0  0  0  0  0  0  0  0  0  0  0  0
  2  1  1  0
  3  2  1  0
  3  4  1  6
  5  3  1  0
  5  6  2  0
  7  5  1  0
  8  7  1  0
  9 10  1  0
  8  9  1  6
 10 15  2  0
 11 10  1  0
 11 12  2  0
 12 13  1  0
 13 14  2  0
 15 14  1  0
 16 21  1  0
 16  8  1  0
 17 16  2  0
 18 19  1  0
 20 19  1  6
 20 21  1  0
 20 22  1  0
 22 23  2  0
 22 24  1  0
M  END
$$$$
