SFS.pdb
     RDKit          3D

 24 24  0  0  1  0  0  0  0  0999 V2000
   18.3818  -13.2299  -17.0462 O   0  0  0  0  0  0  0  0  0  0  0  0
   17.6082  -12.4909  -17.9324 C   0  0  0  0  0  0  0  0  0  0  0  0
   18.3471  -11.2596  -18.4089 C   0  0  2  0  0  0  0  0  0  0  0  0
   19.6612  -11.5681  -18.8943 N   0  0  0  0  0  0  0  0  0  0  0  0
   18.4287  -10.2224  -17.3782 C   0  0  0  0  0  0  0  0  0  0  0  0
   17.3926   -9.7996  -16.8181 O   0  0  0  0  0  0  0  0  0  0  0  0
   19.7006   -9.7021  -17.0224 N   0  0  0  0  0  0  0  0  0  0  0  0
   19.8762   -8.7027  -16.0099 C   0  0  1  0  0  0  0  0  0  0  0  0
   21.2839   -8.8406  -15.4676 C   0  0  0  0  0  0  0  0  0  0  0  0
   21.5403   -7.8364  -14.4112 C   0  0  0  0  0  0  0  0  0  0  0  0
   22.1482   -6.6139  -14.6930 C   0  0  0  0  0  0  0  0  0  0  0  0
   22.3867   -5.6796  -13.7098 C   0  0  0  0  0  0  0  0  0  0  0  0
   22.0157   -5.9586  -12.4136 C   0  0  0  0  0  0  0  0  0  0  0  0
   21.4125   -7.1624  -12.1114 C   0  0  0  0  0  0  0  0  0  0  0  0
   21.1762   -8.0917  -13.0943 C   0  0  0  0  0  0  0  0  0  0  0  0
   19.6363   -7.3719  -16.5898 C   0  0  0  0  0  0  0  0  0  0  0  0
   20.1549   -7.0405  -17.6871 O   0  0  0  0  0  0  0  0  0  0  0  0
   16.7082   -3.6448  -17.0670 O   0  0  0  0  0  0  0  0  0  0  0  0
   17.0458   -4.8975  -16.6153 C   0  0  0  0  0  0  0  0  0  0  0  0
   18.5484   -5.1224  -16.5771 C   0  0  2  0  0  0  0  0  0  0  0  0
   18.8163   -6.3903  -15.9580 N   0  0  0  0  0  0  0  0  0  0  0  0
   19.2609   -4.0487  -15.8902 C   0  0  0  0  0  0  0  0  0  0  0  0
   19.5232   -2.9677  -16.4655 O   0  0  0  0  0  0  0  0  0  0  0  0
   19.6637   -4.2077  -14.5771 O   0  0  0  0  0  0  0  0  0  0  0  0
  2  1  1  0
  3  2  1  0
  3  4  1  1
  5  3  1  0
  5  6  2  0
  7  5  1  0
  8  7  1  0
  9 10  1  0
  8  9  1  6
 10 15  2  0
 11 10  1  0
 11 12  2  0
 12 13  1  0
 13 14  2  0
 15 14  1  0
 16 21  1  0
 16  8  1  0
 17 16  2  0
 18 19  1  0
 20 19  1  1
 20 21  1  0
 20 22  1  0
 22 23  2  0
 22 24  1  0
M  END
$$$$
