SFS.pdb
     RDKit          3D

 24 24  0  0  1  0  0  0  0  0999 V2000
   21.6984  -21.4685  -10.6747 O   0  0  0  0  0  0  0  0  0  0  0  0
   22.0667  -22.2493   -9.5862 C   0  0  0  0  0  0  0  0  0  0  0  0
   22.5054  -21.3908   -8.4201 C   0  0  2  0  0  0  0  0  0  0  0  0
   21.4388  -20.5770   -7.9126 N   0  0  0  0  0  0  0  0  0  0  0  0
   23.6595  -20.5506   -8.7471 C   0  0  0  0  0  0  0  0  0  0  0  0
   23.5036  -19.3478   -9.0548 O   0  0  0  0  0  0  0  0  0  0  0  0
   24.9594  -21.1197   -8.7104 N   0  0  0  0  0  0  0  0  0  0  0  0
   26.1355  -20.3976   -9.0980 C   0  0  1  0  0  0  0  0  0  0  0  0
   27.3029  -20.9696   -8.3204 C   0  0  0  0  0  0  0  0  0  0  0  0
   27.4394  -20.2982   -7.0086 C   0  0  0  0  0  0  0  0  0  0  0  0
   27.4566  -21.0175   -5.8146 C   0  0  0  0  0  0  0  0  0  0  0  0
   27.5836  -20.3925   -4.5941 C   0  0  0  0  0  0  0  0  0  0  0  0
   27.6968  -19.0210   -4.5500 C   0  0  0  0  0  0  0  0  0  0  0  0
   27.6823  -18.2886   -5.7194 C   0  0  0  0  0  0  0  0  0  0  0  0
   27.5555  -18.9151   -6.9347 C   0  0  0  0  0  0  0  0  0  0  0  0
   26.3276  -20.5204  -10.5516 C   0  0  0  0  0  0  0  0  0  0  0  0
   26.1008  -21.6060  -11.1454 O   0  0  0  0  0  0  0  0  0  0  0  0
   27.4900  -18.2750  -14.7364 O   0  0  0  0  0  0  0  0  0  0  0  0
   27.2984  -18.2228  -13.3771 C   0  0  0  0  0  0  0  0  0  0  0  0
   26.8588  -19.5560  -12.7948 C   0  0  2  0  0  0  0  0  0  0  0  0
   26.7747  -19.4377  -11.3659 N   0  0  0  0  0  0  0  0  0  0  0  0
   27.7432  -20.6546  -13.1732 C   0  0  0  0  0  0  0  0  0  0  0  0
   28.6517  -21.0533  -12.4090 O   0  0  0  0  0  0  0  0  0  0  0  0
   27.5922  -21.2819  -14.3960 O   0  0  0  0  0  0  0  0  0  0  0  0
  2  1  1  0
  3  2  1  0
  3  4  1  6
  5  3  1  0
  5  6  2  0
  7  5  1  0
  8  7  1  0
  9 10  1  0
  8  9  1  1
 10 15  2  0
 11 10  1  0
 11 12  2  0
 12 13  1  0
 13 14  2  0
 15 14  1  0
 16 21  1  0
 16  8  1  0
 17 16  2  0
 18 19  1  0
 20 19  1  6
 20 21  1  0
 20 22  1  0
 22 23  2  0
 22 24  1  0
M  END
$$$$
