RMI.pdb
     RDKit          3D

 28 27  0  0  1  0  0  0  0  0999 V2000
   20.8378  -18.9412  -15.0055 N   0  0  0  0  0  0  0  0  0  0  0  0
   21.0582  -20.2125  -14.3604 C   0  0  0  0  0  0  0  0  0  0  0  0
   20.0683  -21.0071  -14.1769 N   0  0  0  0  0  0  0  0  0  0  0  0
   22.3413  -20.6041  -13.9249 N   0  0  0  0  0  0  0  0  0  0  0  0
   23.5626  -19.8582  -14.2244 C   0  0  0  0  0  0  0  0  0  0  0  0
   24.0546  -19.2131  -12.9646 C   0  0  0  0  0  0  0  0  0  0  0  0
   24.5021  -20.2683  -11.9914 C   0  0  0  0  0  0  0  0  0  0  0  0
   25.8073  -20.9047  -12.3625 C   0  0  2  0  0  0  0  0  0  0  0  0
   25.5573  -22.0755  -13.1795 N   0  0  0  0  0  0  0  0  0  0  0  0
   26.5665  -21.3466  -11.1492 C   0  0  0  0  0  0  0  0  0  0  0  0
   26.1976  -22.3614  -10.5001 O   0  0  0  0  0  0  0  0  0  0  0  0
   20.2062  -21.9449  -13.7742 C   0  0  0  0  0  0  0  0  0  0  0  0
   32.8792  -22.1207   -8.9600 S   0  0  0  0  0  0  0  0  0  0  0  0
   32.1462  -22.0112  -10.6231 C   0  0  0  0  0  0  0  0  0  0  0  0
   30.3401  -22.0458  -10.5418 C   0  0  0  0  0  0  0  0  0  0  0  0
   29.8545  -21.0511   -9.5437 C   0  0  2  0  0  0  0  0  0  0  0  0
   28.3468  -21.0453   -9.4439 N   0  0  0  0  0  0  0  0  0  0  0  0
   27.7071  -20.6733  -10.6737 C   0  0  0  0  0  0  0  0  0  0  0  0
   27.8987  -20.2298   -8.2912 O   0  0  0  0  0  0  0  0  0  0  0  0
   27.3248  -19.1352   -8.5272 C   0  0  0  0  0  0  0  0  0  0  0  0
   29.9888  -20.9549   -3.0567 C   0  0  0  0  0  0  0  0  0  0  0  0
   29.6567  -20.4052   -4.4250 C   0  0  2  0  0  0  0  0  0  0  0  0
   28.1825  -20.2056   -4.5196 C   0  0  0  0  0  0  0  0  0  0  0  0
   27.5200  -21.5675   -4.3317 C   0  0  1  0  0  0  0  0  0  0  0  0
   27.7407  -19.6963   -5.8733 N   0  0  0  0  0  0  0  0  0  0  0  0
   28.0795  -20.6122   -6.9355 C   0  0  0  0  0  0  0  0  0  0  0  0
   28.4765  -18.4299   -6.0997 O   0  0  0  0  0  0  0  0  0  0  0  0
   28.1869  -17.2535   -5.4227 O   0  0  0  0  0  0  0  0  0  0  0  0
  1  2  1  0
  2  3  2  0
  4  2  1  0
  5  6  1  0
  5  4  1  0
  7  6  1  0
  8  7  1  0
  8  9  1  6
 10  8  1  0
 10 11  2  0
 12 13  1  0
 13 14  1  0
 16 15  1  6
 15 14  1  0
 16 17  1  0
 17 10  1  0
 18 16  1  0
 19 18  2  0
 21 20  1  0
 22 21  1  0
 22 23  1  1
 24 22  1  0
 24 25  1  6
 25 18  1  0
 26 24  1  0
 27 26  1  0
 28 26  2  0
M  END
$$$$
