RMI.pdb
     RDKit          3D

 28 27  0  0  1  0  0  0  0  0999 V2000
   26.9102  -26.2842  -15.7809 N   0  0  0  0  0  0  0  0  0  0  0  0
   25.9189  -25.6445  -16.6110 C   0  0  0  0  0  0  0  0  0  0  0  0
   25.7985  -25.9996  -17.8375 N   0  0  0  0  0  0  0  0  0  0  0  0
   25.0755  -24.6342  -16.1039 N   0  0  0  0  0  0  0  0  0  0  0  0
   25.5219  -23.5924  -15.1803 C   0  0  0  0  0  0  0  0  0  0  0  0
   26.8231  -23.0363  -15.6732 C   0  0  0  0  0  0  0  0  0  0  0  0
   27.3625  -22.0429  -14.6818 C   0  0  0  0  0  0  0  0  0  0  0  0
   26.6862  -20.7071  -14.7502 C   0  0  2  0  0  0  0  0  0  0  0  0
   27.6052  -19.7294  -15.2981 N   0  0  0  0  0  0  0  0  0  0  0  0
   26.2696  -20.2332  -13.3917 C   0  0  0  0  0  0  0  0  0  0  0  0
   26.9024  -19.3079  -12.8167 O   0  0  0  0  0  0  0  0  0  0  0  0
   25.0908  -25.5686  -18.4493 C   0  0  0  0  0  0  0  0  0  0  0  0
   20.0037  -19.1232  -11.0010 S   0  0  0  0  0  0  0  0  0  0  0  0
   20.9702  -20.0742   -9.7858 C   0  0  0  0  0  0  0  0  0  0  0  0
   22.7429  -19.7830   -9.9930 C   0  0  0  0  0  0  0  0  0  0  0  0
   23.2058  -20.3520  -11.2904 C   0  0  1  0  0  0  0  0  0  0  0  0
   24.6991  -20.2040  -11.4679 N   0  0  0  0  0  0  0  0  0  0  0  0
   25.1753  -20.7779  -12.6942 C   0  0  0  0  0  0  0  0  0  0  0  0
   25.4231  -20.7061  -10.2770 O   0  0  0  0  0  0  0  0  0  0  0  0
   25.5586  -21.9502  -10.1468 C   0  0  0  0  0  0  0  0  0  0  0  0
   28.9130  -18.9271   -5.4764 C   0  0  0  0  0  0  0  0  0  0  0  0
   28.0867  -20.0036   -6.1421 C   0  0  2  0  0  0  0  0  0  0  0  0
   27.4609  -19.4397   -7.3719 C   0  0  0  0  0  0  0  0  0  0  0  0
   26.5363  -18.3051   -6.9398 C   0  0  2  0  0  0  0  0  0  0  0  0
   26.5981  -20.4401   -8.1080 N   0  0  0  0  0  0  0  0  0  0  0  0
   25.9729  -19.8643   -9.2741 C   0  0  0  0  0  0  0  0  0  0  0  0
   25.5319  -20.8437   -7.1609 O   0  0  0  0  0  0  0  0  0  0  0  0
   25.6407  -21.9429   -6.3208 O   0  0  0  0  0  0  0  0  0  0  0  0
  1  2  1  0
  2  3  2  0
  4  2  1  0
  5  6  1  0
  5  4  1  0
  7  6  1  0
  8  7  1  0
  8  9  1  1
 10  8  1  0
 10 11  2  0
 12 13  1  0
 13 14  1  0
 16 15  1  6
 15 14  1  0
 16 17  1  0
 17 10  1  0
 18 16  1  0
 19 18  2  0
 21 20  1  0
 22 21  1  0
 22 23  1  6
 24 22  1  0
 24 25  1  1
 25 18  1  0
 26 24  1  0
 27 26  1  0
 28 26  2  0
M  END
$$$$
