RMI.pdb
     RDKit          3D

 28 27  0  0  1  0  0  0  0  0999 V2000
   19.1793  -24.3076   -6.2570 N   0  0  0  0  0  0  0  0  0  0  0  0
   18.2057  -24.5201   -7.3000 C   0  0  0  0  0  0  0  0  0  0  0  0
   17.1024  -25.1122   -7.0222 N   0  0  0  0  0  0  0  0  0  0  0  0
   18.4390  -24.0906   -8.6230 N   0  0  0  0  0  0  0  0  0  0  0  0
   19.6314  -23.3538   -9.0386 C   0  0  0  0  0  0  0  0  0  0  0  0
   19.5360  -23.0710  -10.5070 C   0  0  0  0  0  0  0  0  0  0  0  0
   20.7737  -22.3539  -10.9706 C   0  0  0  0  0  0  0  0  0  0  0  0
   21.0445  -21.0869  -10.2173 C   0  0  2  0  0  0  0  0  0  0  0  0
   20.1808  -20.0355  -10.7167 N   0  0  0  0  0  0  0  0  0  0  0  0
   22.4624  -20.6369  -10.3929 C   0  0  0  0  0  0  0  0  0  0  0  0
   22.7969  -19.9602  -11.4015 O   0  0  0  0  0  0  0  0  0  0  0  0
   16.3932  -25.2843   -7.7490 C   0  0  0  0  0  0  0  0  0  0  0  0
   26.9438  -19.2163   -5.8336 S   0  0  0  0  0  0  0  0  0  0  0  0
   27.9724  -20.0269   -7.0985 C   0  0  0  0  0  0  0  0  0  0  0  0
   27.0823  -20.1722   -8.6658 C   0  0  0  0  0  0  0  0  0  0  0  0
   25.6696  -20.5763   -8.4155 C   0  0  1  0  0  0  0  0  0  0  0  0
   24.8370  -20.5185   -9.6752 N   0  0  0  0  0  0  0  0  0  0  0  0
   23.4794  -20.9347   -9.4669 C   0  0  0  0  0  0  0  0  0  0  0  0
   25.5013  -21.2496  -10.7792 O   0  0  0  0  0  0  0  0  0  0  0  0
   25.7614  -22.4690  -10.6102 C   0  0  0  0  0  0  0  0  0  0  0  0
   24.9139  -22.9357  -16.2382 C   0  0  0  0  0  0  0  0  0  0  0  0
   26.0193  -22.5618  -15.2775 C   0  0  2  0  0  0  0  0  0  0  0  0
   25.4414  -21.7468  -14.1712 C   0  0  0  0  0  0  0  0  0  0  0  0
   25.0382  -20.3960  -14.7558 C   0  0  2  0  0  0  0  0  0  0  0  0
   26.4351  -21.4581  -13.0684 N   0  0  0  0  0  0  0  0  0  0  0  0
   25.8613  -20.6536  -12.0169 C   0  0  0  0  0  0  0  0  0  0  0  0
   27.5361  -20.6881  -13.6940 O   0  0  0  0  0  0  0  0  0  0  0  0
   27.6733  -19.3139  -13.5568 O   0  0  0  0  0  0  0  0  0  0  0  0
  1  2  1  0
  2  3  2  0
  4  2  1  0
  5  6  1  0
  5  4  1  0
  7  6  1  0
  8  7  1  0
  8  9  1  6
 10  8  1  0
 10 11  2  0
 12 13  1  0
 13 14  1  0
 16 15  1  1
 15 14  1  0
 16 17  1  0
 17 10  1  0
 18 16  1  0
 19 18  2  0
 21 20  1  0
 22 21  1  0
 22 23  1  1
 24 22  1  0
 24 25  1  6
 25 18  1  0
 26 24  1  0
 27 26  1  0
 28 26  2  0
M  END
$$$$
