RMI.pdb
     RDKit          3D

 28 27  0  0  1  0  0  0  0  0999 V2000
   31.2874  -21.8636  -19.0387 N   0  0  0  0  0  0  0  0  0  0  0  0
   30.1481  -22.7257  -19.2381 C   0  0  0  0  0  0  0  0  0  0  0  0
   30.2708  -23.7759  -19.9639 N   0  0  0  0  0  0  0  0  0  0  0  0
   28.8977  -22.4400  -18.6516 N   0  0  0  0  0  0  0  0  0  0  0  0
   28.6299  -21.2448  -17.8532 C   0  0  0  0  0  0  0  0  0  0  0  0
   29.3061  -21.3914  -16.5241 C   0  0  0  0  0  0  0  0  0  0  0  0
   28.3154  -21.8629  -15.4960 C   0  0  0  0  0  0  0  0  0  0  0  0
   27.3685  -20.7913  -15.0471 C   0  0  2  0  0  0  0  0  0  0  0  0
   28.1232  -19.6674  -14.5296 N   0  0  0  0  0  0  0  0  0  0  0  0
   26.4664  -21.2789  -13.9552 C   0  0  0  0  0  0  0  0  0  0  0  0
   25.7018  -22.2611  -14.1499 O   0  0  0  0  0  0  0  0  0  0  0  0
   29.4784  -24.4175  -20.1098 C   0  0  0  0  0  0  0  0  0  0  0  0
   26.9133  -19.6610   -7.6850 S   0  0  0  0  0  0  0  0  0  0  0  0
   25.3887  -20.6542   -7.6212 C   0  0  0  0  0  0  0  0  0  0  0  0
   24.8533  -21.1320   -9.2811 C   0  0  0  0  0  0  0  0  0  0  0  0
   25.8686  -20.7087  -10.2868 C   0  0  1  0  0  0  0  0  0  0  0  0
   25.4635  -21.0942  -11.6906 N   0  0  0  0  0  0  0  0  0  0  0  0
   26.4197  -20.6857  -12.6799 C   0  0  0  0  0  0  0  0  0  0  0  0
   24.0897  -20.6271  -11.9891 O   0  0  0  0  0  0  0  0  0  0  0  0
   23.9131  -19.3983  -12.1936 C   0  0  0  0  0  0  0  0  0  0  0  0
   21.8554  -21.9105  -16.2831 C   0  0  0  0  0  0  0  0  0  0  0  0
   22.2513  -21.1853  -15.0174 C   0  0  2  0  0  0  0  0  0  0  0  0
   21.3590  -21.6285  -13.9085 C   0  0  0  0  0  0  0  0  0  0  0  0
   19.9425  -21.1724  -14.2464 C   0  0  2  0  0  0  0  0  0  0  0  0
   21.7085  -20.9960  -12.5800 N   0  0  0  0  0  0  0  0  0  0  0  0
   22.9610  -21.4862  -12.0576 C   0  0  0  0  0  0  0  0  0  0  0  0
   20.6299  -21.3834  -11.6403 O   0  0  0  0  0  0  0  0  0  0  0  0
   19.6643  -20.4955  -11.1871 O   0  0  0  0  0  0  0  0  0  0  0  0
  1  2  1  0
  2  3  2  0
  4  2  1  0
  5  6  1  0
  5  4  1  0
  7  6  1  0
  8  7  1  0
  8  9  1  1
 10  8  1  0
 10 11  2  0
 12 13  1  0
 13 14  1  0
 16 15  1  1
 15 14  1  0
 16 17  1  0
 17 10  1  0
 18 16  1  0
 19 18  2  0
 21 20  1  0
 22 21  1  0
 22 23  1  1
 24 22  1  0
 24 25  1  1
 25 18  1  0
 26 24  1  0
 27 26  1  0
 28 26  2  0
M  END
$$$$
