RMI.pdb
     RDKit          3D

 28 27  0  0  1  0  0  0  0  0999 V2000
   31.7399  -32.6240  -15.7709 N   0  0  0  0  0  0  0  0  0  0  0  0
   32.2389  -31.4175  -16.3844 C   0  0  0  0  0  0  0  0  0  0  0  0
   33.4858  -31.1316  -16.2916 N   0  0  0  0  0  0  0  0  0  0  0  0
   31.3852  -30.5416  -17.0866 N   0  0  0  0  0  0  0  0  0  0  0  0
   29.9267  -30.6402  -17.0661 C   0  0  0  0  0  0  0  0  0  0  0  0
   29.4970  -31.6469  -18.0894 C   0  0  0  0  0  0  0  0  0  0  0  0
   27.9958  -31.6991  -18.1559 C   0  0  0  0  0  0  0  0  0  0  0  0
   27.3781  -32.4876  -17.0410 C   0  0  2  0  0  0  0  0  0  0  0  0
   27.5357  -33.9035  -17.3073 N   0  0  0  0  0  0  0  0  0  0  0  0
   25.9123  -32.2054  -16.9164 C   0  0  0  0  0  0  0  0  0  0  0  0
   25.1033  -32.6391  -17.7794 O   0  0  0  0  0  0  0  0  0  0  0  0
   33.8713  -30.2834  -16.7306 C   0  0  0  0  0  0  0  0  0  0  0  0
   22.1663  -35.0323  -12.3855 S   0  0  0  0  0  0  0  0  0  0  0  0
   22.4780  -33.2540  -12.6217 C   0  0  0  0  0  0  0  0  0  0  0  0
   23.0844  -32.9159  -14.2915 C   0  0  0  0  0  0  0  0  0  0  0  0
   23.3490  -31.4580  -14.4534 C   0  0  2  0  0  0  0  0  0  0  0  0
   23.9655  -31.1447  -15.7969 N   0  0  0  0  0  0  0  0  0  0  0  0
   25.3646  -31.4592  -15.8564 C   0  0  0  0  0  0  0  0  0  0  0  0
   23.6704  -29.7498  -16.1990 O   0  0  0  0  0  0  0  0  0  0  0  0
   24.4206  -28.8371  -15.7663 C   0  0  0  0  0  0  0  0  0  0  0  0
   21.5975  -26.3163  -20.7262 C   0  0  0  0  0  0  0  0  0  0  0  0
   21.7972  -26.4023  -19.2304 C   0  0  2  0  0  0  0  0  0  0  0  0
   22.0828  -27.8184  -18.8627 C   0  0  0  0  0  0  0  0  0  0  0  0
   20.8262  -28.6332  -19.1557 C   0  0  2  0  0  0  0  0  0  0  0  0
   22.3782  -27.9988  -17.3905 N   0  0  0  0  0  0  0  0  0  0  0  0
   22.5898  -29.3835  -17.0445 C   0  0  0  0  0  0  0  0  0  0  0  0
   21.1788  -27.5170  -16.6654 O   0  0  0  0  0  0  0  0  0  0  0  0
   20.9226  -26.1729  -16.4331 O   0  0  0  0  0  0  0  0  0  0  0  0
  1  2  1  0
  2  3  2  0
  4  2  1  0
  5  6  1  0
  5  4  1  0
  7  6  1  0
  8  7  1  0
  8  9  1  6
 10  8  1  0
 10 11  2  0
 12 13  1  0
 13 14  1  0
 16 15  1  6
 15 14  1  0
 16 17  1  0
 17 10  1  0
 18 16  1  0
 19 18  2  0
 21 20  1  0
 22 21  1  0
 22 23  1  6
 24 22  1  0
 24 25  1  1
 25 18  1  0
 26 24  1  0
 27 26  1  0
 28 26  2  0
M  END
$$$$
