RMI.pdb
     RDKit          3D

 28 27  0  0  1  0  0  0  0  0999 V2000
   19.3455  -21.3402  -10.9533 N   0  0  0  0  0  0  0  0  0  0  0  0
   19.4254  -22.4004  -11.9283 C   0  0  0  0  0  0  0  0  0  0  0  0
   18.5806  -23.3645  -11.8828 N   0  0  0  0  0  0  0  0  0  0  0  0
   20.4139  -22.4020  -12.9342 N   0  0  0  0  0  0  0  0  0  0  0  0
   21.5455  -21.4767  -12.9615 C   0  0  0  0  0  0  0  0  0  0  0  0
   22.1096  -21.3641  -11.5779 C   0  0  0  0  0  0  0  0  0  0  0  0
   23.3031  -20.4496  -11.5856 C   0  0  0  0  0  0  0  0  0  0  0  0
   24.5798  -21.1408  -11.9578 C   0  0  2  0  0  0  0  0  0  0  0  0
   25.3532  -21.4018  -10.7602 N   0  0  0  0  0  0  0  0  0  0  0  0
   25.4163  -20.2947  -12.8678 C   0  0  0  0  0  0  0  0  0  0  0  0
   26.1743  -19.4061  -12.3954 O   0  0  0  0  0  0  0  0  0  0  0  0
   18.5656  -24.0935  -12.6101 C   0  0  0  0  0  0  0  0  0  0  0  0
   29.8005  -23.6847  -16.4740 S   0  0  0  0  0  0  0  0  0  0  0  0
   28.4584  -22.5929  -17.0416 C   0  0  0  0  0  0  0  0  0  0  0  0
   27.8371  -21.5677  -15.6877 C   0  0  0  0  0  0  0  0  0  0  0  0
   26.8982  -20.5378  -16.2162 C   0  0  2  0  0  0  0  0  0  0  0  0
   26.3043  -19.6981  -15.1092 N   0  0  0  0  0  0  0  0  0  0  0  0
   25.4067  -20.4372  -14.2679 C   0  0  0  0  0  0  0  0  0  0  0  0
   25.6973  -18.4616  -15.6543 O   0  0  0  0  0  0  0  0  0  0  0  0
   24.4692  -18.4751  -15.9274 C   0  0  0  0  0  0  0  0  0  0  0  0
   26.3590  -12.3690  -15.8919 C   0  0  0  0  0  0  0  0  0  0  0  0
   25.7738  -13.5989  -16.5471 C   0  0  2  0  0  0  0  0  0  0  0  0
   26.3563  -14.8112  -15.9043 C   0  0  0  0  0  0  0  0  0  0  0  0
   27.8376  -14.8590  -16.2682 C   0  0  2  0  0  0  0  0  0  0  0  0
   25.7477  -16.0994  -16.4114 N   0  0  0  0  0  0  0  0  0  0  0  0
   26.4216  -17.2623  -15.8863 C   0  0  0  0  0  0  0  0  0  0  0  0
   25.9203  -16.0878  -17.8834 O   0  0  0  0  0  0  0  0  0  0  0  0
   26.8771  -16.8486  -18.5403 O   0  0  0  0  0  0  0  0  0  0  0  0
  1  2  1  0
  2  3  2  0
  4  2  1  0
  5  6  1  0
  5  4  1  0
  7  6  1  0
  8  7  1  0
  8  9  1  1
 10  8  1  0
 10 11  2  0
 12 13  1  0
 13 14  1  0
 16 15  1  1
 15 14  1  0
 16 17  1  0
 17 10  1  0
 18 16  1  0
 19 18  2  0
 21 20  1  0
 22 21  1  0
 22 23  1  1
 24 22  1  0
 24 25  1  6
 25 18  1  0
 26 24  1  0
 27 26  1  0
 28 26  2  0
M  END
$$$$
