RMI.pdb
     RDKit          3D

 28 27  0  0  1  0  0  0  0  0999 V2000
   29.9659  -17.7703  -16.9974 N   0  0  0  0  0  0  0  0  0  0  0  0
   29.1091  -17.3111  -18.0633 C   0  0  0  0  0  0  0  0  0  0  0  0
   29.5956  -16.5673  -18.9880 N   0  0  0  0  0  0  0  0  0  0  0  0
   27.7439  -17.6621  -18.1130 N   0  0  0  0  0  0  0  0  0  0  0  0
   27.1038  -18.5682  -17.1608 C   0  0  0  0  0  0  0  0  0  0  0  0
   27.4546  -18.1330  -15.7706 C   0  0  0  0  0  0  0  0  0  0  0  0
   26.7264  -18.9861  -14.7691 C   0  0  0  0  0  0  0  0  0  0  0  0
   27.5513  -20.1215  -14.2433 C   0  0  2  0  0  0  0  0  0  0  0  0
   27.7186  -21.1174  -15.2830 N   0  0  0  0  0  0  0  0  0  0  0  0
   26.8890  -20.7856  -13.0754 C   0  0  0  0  0  0  0  0  0  0  0  0
   26.0980  -21.7499  -13.2537 O   0  0  0  0  0  0  0  0  0  0  0  0
   29.0012  -16.2041  -19.7466 C   0  0  0  0  0  0  0  0  0  0  0  0
   27.8707  -20.3783   -6.3155 S   0  0  0  0  0  0  0  0  0  0  0  0
   26.1719  -19.8447   -6.6954 C   0  0  0  0  0  0  0  0  0  0  0  0
   25.6196  -20.5126   -8.2825 C   0  0  0  0  0  0  0  0  0  0  0  0
   26.5805  -20.1353   -9.3576 C   0  0  2  0  0  0  0  0  0  0  0  0
   26.1734  -20.7003  -10.6987 N   0  0  0  0  0  0  0  0  0  0  0  0
   27.1045  -20.3838  -11.7440 C   0  0  0  0  0  0  0  0  0  0  0  0
   24.7815  -20.3171  -11.0307 O   0  0  0  0  0  0  0  0  0  0  0  0
   24.5288  -19.0972  -11.2068 C   0  0  0  0  0  0  0  0  0  0  0  0
   22.4783  -21.4826  -15.3608 C   0  0  0  0  0  0  0  0  0  0  0  0
   22.8879  -20.8216  -14.0647 C   0  0  2  0  0  0  0  0  0  0  0  0
   22.0523  -21.3699  -12.9586 C   0  0  0  0  0  0  0  0  0  0  0  0
   20.6071  -20.9590  -13.2257 C   0  0  2  0  0  0  0  0  0  0  0  0
   22.4171  -20.8024  -11.6051 N   0  0  0  0  0  0  0  0  0  0  0  0
   23.7163  -21.2471  -11.1617 C   0  0  0  0  0  0  0  0  0  0  0  0
   21.4017  -21.3138  -10.6543 O   0  0  0  0  0  0  0  0  0  0  0  0
   20.1094  -20.8128  -10.5835 O   0  0  0  0  0  0  0  0  0  0  0  0
  1  2  1  0
  2  3  2  0
  4  2  1  0
  5  6  1  0
  5  4  1  0
  7  6  1  0
  8  7  1  0
  8  9  1  6
 10  8  1  0
 10 11  2  0
 12 13  1  0
 13 14  1  0
 16 15  1  1
 15 14  1  0
 16 17  1  0
 17 10  1  0
 18 16  1  0
 19 18  2  0
 21 20  1  0
 22 21  1  0
 22 23  1  1
 24 22  1  0
 24 25  1  1
 25 18  1  0
 26 24  1  0
 27 26  1  0
 28 26  2  0
M  END
$$$$
