RMI.pdb
     RDKit          3D

 28 27  0  0  1  0  0  0  0  0999 V2000
   18.4846  -23.9633   -7.4632 N   0  0  0  0  0  0  0  0  0  0  0  0
   18.0217  -25.2630   -7.8843 C   0  0  0  0  0  0  0  0  0  0  0  0
   17.1119  -25.8595   -7.2049 N   0  0  0  0  0  0  0  0  0  0  0  0
   18.5475  -25.8958   -9.0299 N   0  0  0  0  0  0  0  0  0  0  0  0
   18.7888  -25.2089  -10.2977 C   0  0  0  0  0  0  0  0  0  0  0  0
   17.5672  -24.4199  -10.6587 C   0  0  0  0  0  0  0  0  0  0  0  0
   17.9651  -23.0467  -11.1246 C   0  0  0  0  0  0  0  0  0  0  0  0
   18.6179  -23.0422  -12.4736 C   0  0  2  0  0  0  0  0  0  0  0  0
   19.1829  -24.3500  -12.7398 N   0  0  0  0  0  0  0  0  0  0  0  0
   19.7296  -22.0406  -12.5414 C   0  0  0  0  0  0  0  0  0  0  0  0
   19.4929  -20.8129  -12.3870 O   0  0  0  0  0  0  0  0  0  0  0  0
   16.8586  -26.8386   -7.3992 C   0  0  0  0  0  0  0  0  0  0  0  0
   25.3487  -21.1965   -9.3928 S   0  0  0  0  0  0  0  0  0  0  0  0
   25.7959  -21.0996  -11.1551 C   0  0  0  0  0  0  0  0  0  0  0  0
   24.3612  -20.6683  -12.1677 C   0  0  0  0  0  0  0  0  0  0  0  0
   23.3222  -21.7316  -12.0608 C   0  0  2  0  0  0  0  0  0  0  0  0
   22.1064  -21.4156  -12.9005 N   0  0  0  0  0  0  0  0  0  0  0  0
   21.0699  -22.4005  -12.7753 C   0  0  0  0  0  0  0  0  0  0  0  0
   22.4909  -21.1589  -14.3079 O   0  0  0  0  0  0  0  0  0  0  0  0
   22.8008  -22.1441  -15.0266 C   0  0  0  0  0  0  0  0  0  0  0  0
   19.9906  -17.5238  -17.5098 C   0  0  0  0  0  0  0  0  0  0  0  0
   20.6563  -18.7917  -17.0261 C   0  0  2  0  0  0  0  0  0  0  0  0
   22.1251  -18.5575  -16.9268 C   0  0  0  0  0  0  0  0  0  0  0  0
   22.6682  -18.4279  -18.3470 C   0  0  2  0  0  0  0  0  0  0  0  0
   22.8656  -19.7106  -16.2873 N   0  0  0  0  0  0  0  0  0  0  0  0
   22.5298  -19.8653  -14.8925 C   0  0  0  0  0  0  0  0  0  0  0  0
   24.3075  -19.3817  -16.3842 O   0  0  0  0  0  0  0  0  0  0  0  0
   25.1029  -19.7686  -17.4535 O   0  0  0  0  0  0  0  0  0  0  0  0
  1  2  1  0
  2  3  2  0
  4  2  1  0
  5  6  1  0
  5  4  1  0
  7  6  1  0
  8  7  1  0
  8  9  1  1
 10  8  1  0
 10 11  2  0
 12 13  1  0
 13 14  1  0
 16 15  1  1
 15 14  1  0
 16 17  1  0
 17 10  1  0
 18 16  1  0
 19 18  2  0
 21 20  1  0
 22 21  1  0
 22 23  1  1
 24 22  1  0
 24 25  1  6
 25 18  1  0
 26 24  1  0
 27 26  1  0
 28 26  2  0
M  END
$$$$
