LPP.pdb
     RDKit          3D

 23 24  0  0  1  0  0  0  0  0999 V2000
   21.4918  -20.2209  -13.7510 C   0  0  0  0  0  0  0  0  0  0  0  0
   22.0765  -21.2549  -12.8291 C   0  0  2  0  0  0  0  0  0  0  0  0
   21.2124  -22.5139  -12.8941 C   0  0  0  0  0  0  0  0  0  0  0  0
   22.1774  -20.7647  -11.4132 C   0  0  0  0  0  0  0  0  0  0  0  0
   23.5980  -20.9960  -10.9371 C   0  0  2  0  0  0  0  0  0  0  0  0
   23.6081  -20.7487   -9.5078 N   0  0  0  0  0  0  0  0  0  0  0  0
   24.5740  -20.1336  -11.6442 C   0  0  0  0  0  0  0  0  0  0  0  0
   24.5635  -18.8928  -11.3259 O   0  0  0  0  0  0  0  0  0  0  0  0
   25.4774  -20.6268  -12.6190 N   0  0  0  0  0  0  0  0  0  0  0  0
   25.5842  -21.9805  -13.0748 C   0  0  0  0  0  0  0  0  0  0  0  0
   27.1141  -22.1520  -13.0231 C   0  0  0  0  0  0  0  0  0  0  0  0
   27.6178  -20.7924  -13.4848 C   0  0  0  0  0  0  0  0  0  0  0  0
   26.4512  -19.8502  -13.3130 C   0  0  1  0  0  0  0  0  0  0  0  0
   25.8978  -19.4743  -14.6591 C   0  0  0  0  0  0  0  0  0  0  0  0
   25.3179  -20.3821  -15.2859 O   0  0  0  0  0  0  0  0  0  0  0  0
   26.0334  -18.1704  -15.1697 N   0  0  0  0  0  0  0  0  0  0  0  0
   26.4239  -17.0257  -14.3127 C   0  0  0  0  0  0  0  0  0  0  0  0
   27.4937  -16.4143  -15.1788 C   0  0  0  0  0  0  0  0  0  0  0  0
   27.1016  -16.7061  -16.5997 C   0  0  0  0  0  0  0  0  0  0  0  0
   25.8514  -17.6318  -16.4558 C   0  0  1  0  0  0  0  0  0  0  0  0
   25.7708  -18.4938  -17.6166 C   0  0  0  0  0  0  0  0  0  0  0  0
   24.7394  -18.2326  -18.5379 O   0  0  0  0  0  0  0  0  0  0  0  0
   26.5165  -19.4292  -17.8719 O   0  0  0  0  0  0  0  0  0  0  0  0
  2  1  1  6
  2  3  1  0
  4  5  1  0
  4  2  1  0
  5  7  1  0
  5  6  1  1
  7  8  2  0
  9 13  1  0
  9  7  1  0
 10  9  1  0
 11 10  1  0
 11 12  1  0
 12 13  1  0
 13 14  1  6
 14 15  2  0
 16 14  1  0
 16 17  1  0
 17 18  1  0
 19 18  1  0
 20 16  1  0
 20 19  1  0
 20 21  1  6
 22 21  1  0
 23 21  2  0
M  END
$$$$
