LPP.pdb
     RDKit          3D

 23 24  0  0  1  0  0  0  0  0999 V2000
   27.4130  -16.2926  -15.8551 C   0  0  0  0  0  0  0  0  0  0  0  0
   25.9521  -16.6472  -15.8261 C   0  0  2  0  0  0  0  0  0  0  0  0
   25.1348  -15.3750  -16.0489 C   0  0  0  0  0  0  0  0  0  0  0  0
   25.5506  -17.3056  -14.5375 C   0  0  0  0  0  0  0  0  0  0  0  0
   25.4291  -18.7954  -14.7902 C   0  0  2  0  0  0  0  0  0  0  0  0
   24.2633  -18.9856  -15.6321 N   0  0  0  0  0  0  0  0  0  0  0  0
   25.3223  -19.5709  -13.5319 C   0  0  0  0  0  0  0  0  0  0  0  0
   24.1348  -19.7882  -13.1032 O   0  0  0  0  0  0  0  0  0  0  0  0
   26.4510  -20.0558  -12.8244 N   0  0  0  0  0  0  0  0  0  0  0  0
   27.8262  -19.8294  -13.1551 C   0  0  0  0  0  0  0  0  0  0  0  0
   28.3695  -21.2626  -13.0022 C   0  0  0  0  0  0  0  0  0  0  0  0
   27.5986  -21.7846  -11.7986 C   0  0  0  0  0  0  0  0  0  0  0  0
   26.4076  -20.8688  -11.6539 C   0  0  1  0  0  0  0  0  0  0  0  0
   26.5857  -19.9885  -10.4486 C   0  0  0  0  0  0  0  0  0  0  0  0
   27.4298  -19.0779  -10.5553 O   0  0  0  0  0  0  0  0  0  0  0  0
   25.8368  -20.1915   -9.2750 N   0  0  0  0  0  0  0  0  0  0  0  0
   24.5037  -20.8394   -9.2937 C   0  0  0  0  0  0  0  0  0  0  0  0
   24.6849  -21.8242   -8.1687 C   0  0  0  0  0  0  0  0  0  0  0  0
   25.6394  -21.1848   -7.2003 C   0  0  0  0  0  0  0  0  0  0  0  0
   26.0814  -19.8744   -7.9271 C   0  0  1  0  0  0  0  0  0  0  0  0
   27.4108  -19.5157   -7.4787 C   0  0  0  0  0  0  0  0  0  0  0  0
   27.5115  -18.4595   -6.5540 O   0  0  0  0  0  0  0  0  0  0  0  0
   28.4561  -20.0457   -7.8289 O   0  0  0  0  0  0  0  0  0  0  0  0
  2  1  1  1
  2  3  1  0
  4  5  1  0
  4  2  1  0
  5  7  1  0
  5  6  1  6
  7  8  2  0
  9 13  1  0
  9  7  1  0
 10  9  1  0
 11 10  1  0
 11 12  1  0
 12 13  1  0
 13 14  1  1
 14 15  2  0
 16 14  1  0
 16 17  1  0
 17 18  1  0
 19 18  1  0
 20 16  1  0
 20 19  1  0
 20 21  1  6
 22 21  1  0
 23 21  2  0
M  END
$$$$
