LPP.pdb
     RDKit          3D

 23 24  0  0  1  0  0  0  0  0999 V2000
   22.4915  -20.6133  -12.2353 C   0  0  0  0  0  0  0  0  0  0  0  0
   23.7556  -20.8396  -11.4534 C   0  0  2  0  0  0  0  0  0  0  0  0
   23.6614  -20.0699  -10.1363 C   0  0  0  0  0  0  0  0  0  0  0  0
   24.9801  -20.4207  -12.2153 C   0  0  0  0  0  0  0  0  0  0  0  0
   25.8793  -21.6325  -12.3605 C   0  0  2  0  0  0  0  0  0  0  0  0
   25.0328  -22.7381  -12.7671 N   0  0  0  0  0  0  0  0  0  0  0  0
   26.6114  -21.9409  -11.1095 C   0  0  0  0  0  0  0  0  0  0  0  0
   26.1579  -22.9194  -10.4180 O   0  0  0  0  0  0  0  0  0  0  0  0
   27.7493  -21.2126  -10.6800 N   0  0  0  0  0  0  0  0  0  0  0  0
   28.3802  -20.1300  -11.3739 C   0  0  0  0  0  0  0  0  0  0  0  0
   29.8531  -20.5622  -11.2455 C   0  0  0  0  0  0  0  0  0  0  0  0
   29.9066  -21.1507   -9.8432 C   0  0  0  0  0  0  0  0  0  0  0  0
   28.4729  -21.4437   -9.4734 C   0  0  1  0  0  0  0  0  0  0  0  0
   28.0044  -20.4631   -8.4350 C   0  0  0  0  0  0  0  0  0  0  0  0
   27.5522  -19.3842   -8.8649 O   0  0  0  0  0  0  0  0  0  0  0  0
   28.0774  -20.7585   -7.0614 N   0  0  0  0  0  0  0  0  0  0  0  0
   28.4614  -22.1010   -6.5639 C   0  0  0  0  0  0  0  0  0  0  0  0
   29.4772  -21.7050   -5.5248 C   0  0  0  0  0  0  0  0  0  0  0  0
   29.0422  -20.3655   -5.0012 C   0  0  0  0  0  0  0  0  0  0  0  0
   27.8296  -19.9885   -5.9112 C   0  0  1  0  0  0  0  0  0  0  0  0
   27.7344  -18.5457   -5.9906 C   0  0  0  0  0  0  0  0  0  0  0  0
   26.8542  -17.9117   -5.0939 O   0  0  0  0  0  0  0  0  0  0  0  0
   28.3484  -17.8251   -6.7652 O   0  0  0  0  0  0  0  0  0  0  0  0
  2  1  1  6
  2  3  1  0
  4  5  1  0
  4  2  1  0
  5  7  1  0
  5  6  1  1
  7  8  2  0
  9 13  1  0
  9  7  1  0
 10  9  1  0
 11 10  1  0
 11 12  1  0
 12 13  1  0
 13 14  1  1
 14 15  2  0
 16 14  1  0
 16 17  1  0
 17 18  1  0
 19 18  1  0
 20 16  1  0
 20 19  1  0
 20 21  1  6
 22 21  1  0
 23 21  2  0
M  END
$$$$
