LPP.pdb
     RDKit          3D

 23 24  0  0  1  0  0  0  0  0999 V2000
   27.6086  -16.3041  -15.8719 C   0  0  0  0  0  0  0  0  0  0  0  0
   26.1343  -16.5593  -16.0206 C   0  0  2  0  0  0  0  0  0  0  0  0
   25.4314  -15.2289  -16.2887 C   0  0  0  0  0  0  0  0  0  0  0  0
   25.5459  -17.2249  -14.8098 C   0  0  0  0  0  0  0  0  0  0  0  0
   25.4126  -18.7055  -15.1071 C   0  0  2  0  0  0  0  0  0  0  0  0
   24.2459  -18.8610  -15.9548 N   0  0  0  0  0  0  0  0  0  0  0  0
   25.2987  -19.5174  -13.8725 C   0  0  0  0  0  0  0  0  0  0  0  0
   24.1082  -19.7725  -13.4740 O   0  0  0  0  0  0  0  0  0  0  0  0
   26.4240  -19.9966  -13.1557 N   0  0  0  0  0  0  0  0  0  0  0  0
   27.7996  -19.7250  -13.4480 C   0  0  0  0  0  0  0  0  0  0  0  0
   28.3764  -21.1483  -13.3289 C   0  0  0  0  0  0  0  0  0  0  0  0
   27.5934  -21.7285  -12.1603 C   0  0  0  0  0  0  0  0  0  0  0  0
   26.3762  -20.8481  -12.0132 C   0  0  1  0  0  0  0  0  0  0  0  0
   26.5053  -20.0034  -10.7765 C   0  0  0  0  0  0  0  0  0  0  0  0
   27.3156  -19.0586  -10.8407 O   0  0  0  0  0  0  0  0  0  0  0  0
   25.7497  -20.2743   -9.6211 N   0  0  0  0  0  0  0  0  0  0  0  0
   24.4405  -20.9670   -9.6808 C   0  0  0  0  0  0  0  0  0  0  0  0
   24.6425  -21.9846   -8.5890 C   0  0  0  0  0  0  0  0  0  0  0  0
   25.5619  -21.3475   -7.5858 C   0  0  0  0  0  0  0  0  0  0  0  0
   25.9664  -19.9973   -8.2596 C   0  0  1  0  0  0  0  0  0  0  0  0
   27.2767  -19.6090   -7.7809 C   0  0  0  0  0  0  0  0  0  0  0  0
   27.3313  -18.5597   -6.8446 O   0  0  0  0  0  0  0  0  0  0  0  0
   28.3423  -20.1083   -8.1147 O   0  0  0  0  0  0  0  0  0  0  0  0
  2  1  1  1
  2  3  1  0
  4  5  1  0
  4  2  1  0
  5  7  1  0
  5  6  1  6
  7  8  2  0
  9 13  1  0
  9  7  1  0
 10  9  1  0
 11 10  1  0
 11 12  1  0
 12 13  1  0
 13 14  1  1
 14 15  2  0
 16 14  1  0
 16 17  1  0
 17 18  1  0
 19 18  1  0
 20 16  1  0
 20 19  1  0
 20 21  1  6
 22 21  1  0
 23 21  2  0
M  END
$$$$
