LPP.pdb
     RDKit          3D

 23 24  0  0  1  0  0  0  0  0999 V2000
   25.7818  -22.8427  -13.0481 C   0  0  0  0  0  0  0  0  0  0  0  0
   25.9614  -21.3529  -13.1442 C   0  0  2  0  0  0  0  0  0  0  0  0
   26.9803  -21.0522  -14.2431 C   0  0  0  0  0  0  0  0  0  0  0  0
   26.4039  -20.7468  -11.8434 C   0  0  0  0  0  0  0  0  0  0  0  0
   25.1722  -20.5179  -10.9898 C   0  0  2  0  0  0  0  0  0  0  0  0
   24.2892  -19.6528  -11.7489 N   0  0  0  0  0  0  0  0  0  0  0  0
   25.5051  -19.9306   -9.6706 C   0  0  0  0  0  0  0  0  0  0  0  0
   25.7695  -18.6771   -9.6625 O   0  0  0  0  0  0  0  0  0  0  0  0
   25.5361  -20.6881   -8.4727 N   0  0  0  0  0  0  0  0  0  0  0  0
   25.2369  -22.0824   -8.3379 C   0  0  0  0  0  0  0  0  0  0  0  0
   24.3208  -22.0330   -7.1006 C   0  0  0  0  0  0  0  0  0  0  0  0
   24.9761  -20.9602   -6.2433 C   0  0  0  0  0  0  0  0  0  0  0  0
   25.8659  -20.1815   -7.1814 C   0  0  1  0  0  0  0  0  0  0  0  0
   27.3075  -20.4958   -6.8940 C   0  0  0  0  0  0  0  0  0  0  0  0
   27.7063  -21.6193   -7.2575 O   0  0  0  0  0  0  0  0  0  0  0  0
   28.1468  -19.5670   -6.2518 N   0  0  0  0  0  0  0  0  0  0  0  0
   28.0342  -18.1082   -6.4894 C   0  0  0  0  0  0  0  0  0  0  0  0
   28.0515  -17.6177   -5.0655 C   0  0  0  0  0  0  0  0  0  0  0  0
   28.8918  -18.5960   -4.2944 C   0  0  0  0  0  0  0  0  0  0  0  0
   29.2029  -19.7180   -5.3359 C   0  0  1  0  0  0  0  0  0  0  0  0
   29.4018  -20.9680   -4.6323 C   0  0  0  0  0  0  0  0  0  0  0  0
   28.2556  -21.7363   -4.3552 O   0  0  0  0  0  0  0  0  0  0  0  0
   30.4745  -21.4195   -4.2556 O   0  0  0  0  0  0  0  0  0  0  0  0
  2  1  1  1
  2  3  1  0
  4  5  1  0
  4  2  1  0
  5  7  1  0
  5  6  1  6
  7  8  2  0
  9 13  1  0
  9  7  1  0
 10  9  1  0
 11 10  1  0
 11 12  1  0
 12 13  1  0
 13 14  1  1
 14 15  2  0
 16 14  1  0
 16 17  1  0
 17 18  1  0
 19 18  1  0
 20 16  1  0
 20 19  1  0
 20 21  1  1
 22 21  1  0
 23 21  2  0
M  END
$$$$
