YFM.pdb
     RDKit          3D

 32 33  0  0  1  0  0  0  0  0999 V2000
    7.7847  -23.9547   18.0413 O   0  0  0  0  0  0  0  0  0  0  0  0
    8.1193  -22.9108   18.8882 C   0  0  0  0  0  0  0  0  0  0  0  0
    7.1369  -22.3192   19.6485 C   0  0  0  0  0  0  0  0  0  0  0  0
    7.4805  -21.2799   20.4894 C   0  0  0  0  0  0  0  0  0  0  0  0
    8.7778  -20.8120   20.5947 C   0  0  0  0  0  0  0  0  0  0  0  0
    9.1248  -19.6914   21.5069 C   0  0  0  0  0  0  0  0  0  0  0  0
    8.8610  -18.3906   20.7969 C   0  0  2  0  0  0  0  0  0  0  0  0
    9.5973  -18.2882   19.5605 N   0  0  0  0  0  0  0  0  0  0  0  0
    9.0226  -17.2092   21.6570 C   0  0  0  0  0  0  0  0  0  0  0  0
   10.1115  -16.5924   21.7646 O   0  0  0  0  0  0  0  0  0  0  0  0
    9.7320  -21.4337   19.8143 C   0  0  0  0  0  0  0  0  0  0  0  0
    9.4233  -22.4758   18.9627 C   0  0  0  0  0  0  0  0  0  0  0  0
    7.9180  -16.7115   22.4178 N   0  0  0  0  0  0  0  0  0  0  0  0
    8.0189  -15.6329   23.3446 C   0  0  1  0  0  0  0  0  0  0  0  0
    6.7647  -14.8145   23.4624 C   0  0  0  0  0  0  0  0  0  0  0  0
    6.8790  -13.6825   24.3989 C   0  0  0  0  0  0  0  0  0  0  0  0
    6.3757  -13.7934   25.6602 C   0  0  0  0  0  0  0  0  0  0  0  0
    6.4887  -12.7262   26.5249 C   0  0  0  0  0  0  0  0  0  0  0  0
    7.0979  -11.5533   26.1420 C   0  0  0  0  0  0  0  0  0  0  0  0
    7.5953  -11.4752   24.8610 C   0  0  0  0  0  0  0  0  0  0  0  0
    7.4866  -12.5343   23.9933 C   0  0  0  0  0  0  0  0  0  0  0  0
    8.5532  -16.1082   24.6210 C   0  0  0  0  0  0  0  0  0  0  0  0
    7.8142  -16.1525   25.6280 O   0  0  0  0  0  0  0  0  0  0  0  0
   10.2920  -13.0145   29.0670 C   0  0  0  0  0  0  0  0  0  0  0  0
   10.5304  -14.7258   29.4177 S   0  0  0  0  0  0  0  0  0  0  0  0
   11.2917  -15.7562   28.1972 C   0  0  0  0  0  0  0  0  0  0  0  0
   10.3504  -16.1223   27.0964 C   0  0  0  0  0  0  0  0  0  0  0  0
   10.8402  -15.9420   25.7121 C   0  0  2  0  0  0  0  0  0  0  0  0
    9.8997  -16.5214   24.7360 N   0  0  0  0  0  0  0  0  0  0  0  0
   12.1817  -16.5788   25.4891 C   0  0  0  0  0  0  0  0  0  0  0  0
   13.3204  -16.2332   26.1692 O   0  0  0  0  0  0  0  0  0  0  0  0
   12.3122  -17.5023   24.6225 O   0  0  0  0  0  0  0  0  0  0  0  0
  2  1  1  0
  2  3  2  0
  4  3  1  0
  5  4  2  0
  6  7  1  0
  6  5  1  0
  7  8  1  6
  9 13  1  0
  9  7  1  0
 10  9  2  0
 11 12  2  0
 11  5  1  0
 12  2  1  0
 14 13  1  0
 14 15  1  1
 16 21  1  0
 16 15  1  0
 17 16  2  0
 18 19  2  0
 18 17  1  0
 19 20  1  0
 20 21  2  0
 22 23  2  0
 22 14  1  0
 24 25  1  0
 26 25  1  0
 27 26  1  0
 28 27  1  1
 28 29  1  0
 29 22  1  0
 30 28  1  0
 31 30  1  0
 32 30  2  0
M  END
$$$$
