YFM.pdb
     RDKit          3D

 32 33  0  0  1  0  0  0  0  0999 V2000
    7.7449  -14.2143   15.1216 O   0  0  0  0  0  0  0  0  0  0  0  0
    7.8279  -14.0694   16.4967 C   0  0  0  0  0  0  0  0  0  0  0  0
    8.2885  -15.1192   17.2578 C   0  0  0  0  0  0  0  0  0  0  0  0
    8.3675  -14.9647   18.6272 C   0  0  0  0  0  0  0  0  0  0  0  0
    8.0000  -13.7920   19.2615 C   0  0  0  0  0  0  0  0  0  0  0  0
    8.0935  -13.6482   20.7376 C   0  0  0  0  0  0  0  0  0  0  0  0
    8.4296  -14.9890   21.3337 C   0  0  2  0  0  0  0  0  0  0  0  0
    7.6661  -16.0561   20.7340 N   0  0  0  0  0  0  0  0  0  0  0  0
    8.3798  -15.0073   22.8029 C   0  0  0  0  0  0  0  0  0  0  0  0
    7.9058  -14.0595   23.4773 O   0  0  0  0  0  0  0  0  0  0  0  0
    7.5436  -12.7644   18.4604 C   0  0  0  0  0  0  0  0  0  0  0  0
    7.4517  -12.8845   17.0880 C   0  0  0  0  0  0  0  0  0  0  0  0
    8.8819  -16.1324   23.5300 N   0  0  0  0  0  0  0  0  0  0  0  0
    8.8803  -16.2182   24.9531 C   0  0  1  0  0  0  0  0  0  0  0  0
    7.5224  -16.0396   25.5704 C   0  0  0  0  0  0  0  0  0  0  0  0
    7.1663  -14.6331   25.8275 C   0  0  0  0  0  0  0  0  0  0  0  0
    8.1418  -13.6825   25.8612 C   0  0  0  0  0  0  0  0  0  0  0  0
    7.7942  -12.3712   26.1040 C   0  0  0  0  0  0  0  0  0  0  0  0
    6.4850  -12.0024   26.3126 C   0  0  0  0  0  0  0  0  0  0  0  0
    5.5249  -12.9877   26.2717 C   0  0  0  0  0  0  0  0  0  0  0  0
    5.8632  -14.2968   26.0304 C   0  0  0  0  0  0  0  0  0  0  0  0
    9.5901  -17.4206   25.3903 C   0  0  0  0  0  0  0  0  0  0  0  0
    8.9475  -18.3976   25.8316 O   0  0  0  0  0  0  0  0  0  0  0  0
   11.5438  -13.0950   28.6928 C   0  0  0  0  0  0  0  0  0  0  0  0
   10.9213  -14.5772   27.9690 S   0  0  0  0  0  0  0  0  0  0  0  0
   11.9567  -15.4981   26.8687 C   0  0  0  0  0  0  0  0  0  0  0  0
   12.2012  -16.8905   27.3516 C   0  0  0  0  0  0  0  0  0  0  0  0
   11.8352  -17.9897   26.4314 C   0  0  2  0  0  0  0  0  0  0  0  0
   10.9995  -17.4973   25.3214 N   0  0  0  0  0  0  0  0  0  0  0  0
   11.0796  -19.0892   27.1207 C   0  0  0  0  0  0  0  0  0  0  0  0
    9.8139  -19.4866   26.7763 O   0  0  0  0  0  0  0  0  0  0  0  0
   11.6133  -19.7173   28.0911 O   0  0  0  0  0  0  0  0  0  0  0  0
  2  1  1  0
  2  3  2  0
  4  3  1  0
  5  4  2  0
  6  7  1  0
  6  5  1  0
  7  8  1  6
  9 13  1  0
  9  7  1  0
 10  9  2  0
 11 12  2  0
 11  5  1  0
 12  2  1  0
 14 13  1  0
 14 15  1  6
 16 21  1  0
 16 15  1  0
 17 16  2  0
 18 19  2  0
 18 17  1  0
 19 20  1  0
 20 21  2  0
 22 23  2  0
 22 14  1  0
 24 25  1  0
 26 25  1  0
 27 26  1  0
 28 27  1  1
 28 29  1  0
 29 22  1  0
 30 28  1  0
 31 30  1  0
 32 30  2  0
M  END
$$$$
