YFM.pdb
     RDKit          3D

 32 33  0  0  1  0  0  0  0  0999 V2000
   10.1326  -24.3387   18.5794 O   0  0  0  0  0  0  0  0  0  0  0  0
   10.2676  -23.1340   19.2497 C   0  0  0  0  0  0  0  0  0  0  0  0
    9.2658  -22.7186   20.0966 C   0  0  0  0  0  0  0  0  0  0  0  0
    9.4099  -21.5167   20.7598 C   0  0  0  0  0  0  0  0  0  0  0  0
   10.5258  -20.7148   20.6032 C   0  0  0  0  0  0  0  0  0  0  0  0
   10.6595  -19.4244   21.3277 C   0  0  0  0  0  0  0  0  0  0  0  0
    9.8204  -18.3883   20.6288 C   0  0  2  0  0  0  0  0  0  0  0  0
   10.2440  -18.1759   19.2662 N   0  0  0  0  0  0  0  0  0  0  0  0
    9.6837  -17.1355   21.3859 C   0  0  0  0  0  0  0  0  0  0  0  0
   10.4399  -16.1487   21.2067 O   0  0  0  0  0  0  0  0  0  0  0  0
   11.5067  -21.1692   19.7444 C   0  0  0  0  0  0  0  0  0  0  0  0
   11.3952  -22.3661   19.0651 C   0  0  0  0  0  0  0  0  0  0  0  0
    8.6600  -16.9961   22.3756 N   0  0  0  0  0  0  0  0  0  0  0  0
    8.4841  -15.8262   23.1711 C   0  0  1  0  0  0  0  0  0  0  0  0
    7.1201  -15.7125   23.7902 C   0  0  0  0  0  0  0  0  0  0  0  0
    6.9534  -14.5264   24.6485 C   0  0  0  0  0  0  0  0  0  0  0  0
    7.4188  -13.3163   24.2296 C   0  0  0  0  0  0  0  0  0  0  0  0
    7.2569  -12.2159   25.0434 C   0  0  0  0  0  0  0  0  0  0  0  0
    6.6362  -12.3134   26.2676 C   0  0  0  0  0  0  0  0  0  0  0  0
    6.1780  -13.5505   26.6598 C   0  0  0  0  0  0  0  0  0  0  0  0
    6.3355  -14.6520   25.8547 C   0  0  0  0  0  0  0  0  0  0  0  0
    9.5914  -15.6837   24.1168 C   0  0  0  0  0  0  0  0  0  0  0  0
   10.4710  -14.8178   23.9202 O   0  0  0  0  0  0  0  0  0  0  0  0
   10.5517  -12.7476   29.3245 C   0  0  0  0  0  0  0  0  0  0  0  0
    9.4439  -14.1094   29.1624 S   0  0  0  0  0  0  0  0  0  0  0  0
    9.3743  -14.9836   27.6255 C   0  0  0  0  0  0  0  0  0  0  0  0
   10.3982  -16.0684   27.5429 C   0  0  0  0  0  0  0  0  0  0  0  0
   10.8266  -16.4796   26.1878 C   0  0  2  0  0  0  0  0  0  0  0  0
    9.6841  -16.5136   25.2568 N   0  0  0  0  0  0  0  0  0  0  0  0
   11.4685  -17.8371   26.1747 C   0  0  0  0  0  0  0  0  0  0  0  0
   12.7322  -18.0954   26.6383 O   0  0  0  0  0  0  0  0  0  0  0  0
   10.8321  -18.8381   25.7121 O   0  0  0  0  0  0  0  0  0  0  0  0
  2  1  1  0
  2  3  2  0
  4  3  1  0
  5  4  2  0
  6  7  1  0
  6  5  1  0
  7  8  1  6
  9 13  1  0
  9  7  1  0
 10  9  2  0
 11 12  2  0
 11  5  1  0
 12  2  1  0
 14 13  1  0
 14 15  1  1
 16 21  1  0
 16 15  1  0
 17 16  2  0
 18 19  2  0
 18 17  1  0
 19 20  1  0
 20 21  2  0
 22 23  2  0
 22 14  1  0
 24 25  1  0
 26 25  1  0
 27 26  1  0
 28 27  1  1
 28 29  1  0
 29 22  1  0
 30 28  1  0
 31 30  1  0
 32 30  2  0
M  END
$$$$
