YFM.pdb
     RDKit          3D

 32 33  0  0  1  0  0  0  0  0999 V2000
    6.7043  -13.1469   17.2131 O   0  0  0  0  0  0  0  0  0  0  0  0
    7.7914  -13.8278   17.7360 C   0  0  0  0  0  0  0  0  0  0  0  0
    7.9995  -15.1401   17.3783 C   0  0  0  0  0  0  0  0  0  0  0  0
    9.0856  -15.8098   17.9048 C   0  0  0  0  0  0  0  0  0  0  0  0
    9.9722  -15.2085   18.7795 C   0  0  0  0  0  0  0  0  0  0  0  0
   11.1350  -15.9491   19.3340 C   0  0  0  0  0  0  0  0  0  0  0  0
   10.6460  -16.8813   20.4100 C   0  0  2  0  0  0  0  0  0  0  0  0
    9.5457  -17.6991   19.9606 N   0  0  0  0  0  0  0  0  0  0  0  0
   10.3727  -16.2096   21.6890 C   0  0  0  0  0  0  0  0  0  0  0  0
   11.2440  -15.5500   22.3083 O   0  0  0  0  0  0  0  0  0  0  0  0
    9.7262  -13.8912   19.1118 C   0  0  0  0  0  0  0  0  0  0  0  0
    8.6497  -13.1914   18.6039 C   0  0  0  0  0  0  0  0  0  0  0  0
    9.0741  -16.2872   22.2841 N   0  0  0  0  0  0  0  0  0  0  0  0
    8.7613  -15.7572   23.5701 C   0  0  1  0  0  0  0  0  0  0  0  0
    7.3618  -15.2229   23.6824 C   0  0  0  0  0  0  0  0  0  0  0  0
    7.1400  -14.3813   24.8715 C   0  0  0  0  0  0  0  0  0  0  0  0
    7.6002  -13.0990   24.8893 C   0  0  0  0  0  0  0  0  0  0  0  0
    7.3865  -12.3239   26.0086 C   0  0  0  0  0  0  0  0  0  0  0  0
    6.7194  -12.8169   27.1066 C   0  0  0  0  0  0  0  0  0  0  0  0
    6.2680  -14.1160   27.0551 C   0  0  0  0  0  0  0  0  0  0  0  0
    6.4769  -14.8950   25.9433 C   0  0  0  0  0  0  0  0  0  0  0  0
    9.1303  -16.7112   24.6162 C   0  0  0  0  0  0  0  0  0  0  0  0
    8.9062  -17.9301   24.4550 O   0  0  0  0  0  0  0  0  0  0  0  0
    9.3691  -13.4864   29.5111 C   0  0  0  0  0  0  0  0  0  0  0  0
   11.0188  -14.0267   29.2031 S   0  0  0  0  0  0  0  0  0  0  0  0
   11.3195  -15.1608   27.8786 C   0  0  0  0  0  0  0  0  0  0  0  0
   10.6187  -16.4651   28.0783 C   0  0  0  0  0  0  0  0  0  0  0  0
   10.2166  -17.1999   26.8588 C   0  0  2  0  0  0  0  0  0  0  0  0
    9.7404  -16.2754   25.8141 N   0  0  0  0  0  0  0  0  0  0  0  0
    9.1240  -18.1960   27.1216 C   0  0  0  0  0  0  0  0  0  0  0  0
    7.8449  -18.0795   26.6434 O   0  0  0  0  0  0  0  0  0  0  0  0
    9.3599  -19.2283   27.8285 O   0  0  0  0  0  0  0  0  0  0  0  0
  2  1  1  0
  2  3  2  0
  4  3  1  0
  5  4  2  0
  6  7  1  0
  6  5  1  0
  7  8  1  6
  9 13  1  0
  9  7  1  0
 10  9  2  0
 11 12  2  0
 11  5  1  0
 12  2  1  0
 14 13  1  0
 14 15  1  6
 16 21  1  0
 16 15  1  0
 17 16  2  0
 18 19  2  0
 18 17  1  0
 19 20  1  0
 20 21  2  0
 22 23  2  0
 22 14  1  0
 24 25  1  0
 26 25  1  0
 27 26  1  0
 28 27  1  1
 28 29  1  0
 29 22  1  0
 30 28  1  0
 31 30  1  0
 32 30  2  0
M  END
$$$$
