YFM.pdb
     RDKit          3D

 32 33  0  0  1  0  0  0  0  0999 V2000
    8.4183  -24.0644   18.5425 O   0  0  0  0  0  0  0  0  0  0  0  0
    8.9307  -22.9256   19.1419 C   0  0  0  0  0  0  0  0  0  0  0  0
    8.0991  -22.1287   19.8948 C   0  0  0  0  0  0  0  0  0  0  0  0
    8.6193  -20.9961   20.4880 C   0  0  0  0  0  0  0  0  0  0  0  0
    9.9471  -20.6337   20.3524 C   0  0  0  0  0  0  0  0  0  0  0  0
   10.4854  -19.4095   21.0002 C   0  0  0  0  0  0  0  0  0  0  0  0
    9.8012  -18.2074   20.4064 C   0  0  2  0  0  0  0  0  0  0  0  0
   10.3419  -17.8579   19.1154 N   0  0  0  0  0  0  0  0  0  0  0  0
    9.7277  -17.0610   21.3239 C   0  0  0  0  0  0  0  0  0  0  0  0
   10.6861  -16.2674   21.4958 O   0  0  0  0  0  0  0  0  0  0  0  0
   10.7461  -21.4610   19.5887 C   0  0  0  0  0  0  0  0  0  0  0  0
   10.2589  -22.6013   18.9813 C   0  0  0  0  0  0  0  0  0  0  0  0
    8.5333  -16.8057   22.0689 N   0  0  0  0  0  0  0  0  0  0  0  0
    8.3929  -15.7285   22.9921 C   0  0  1  0  0  0  0  0  0  0  0  0
    7.0113  -15.5982   23.5673 C   0  0  0  0  0  0  0  0  0  0  0  0
    6.8570  -14.4619   24.4926 C   0  0  0  0  0  0  0  0  0  0  0  0
    6.0953  -14.5999   25.6139 C   0  0  0  0  0  0  0  0  0  0  0  0
    5.9590  -13.5283   26.4697 C   0  0  0  0  0  0  0  0  0  0  0  0
    6.5748  -12.3241   26.2160 C   0  0  0  0  0  0  0  0  0  0  0  0
    7.3367  -12.2191   25.0747 C   0  0  0  0  0  0  0  0  0  0  0  0
    7.4775  -13.2824   24.2168 C   0  0  0  0  0  0  0  0  0  0  0  0
    9.4620  -15.7722   23.9901 C   0  0  0  0  0  0  0  0  0  0  0  0
   10.4067  -14.9562   23.9272 O   0  0  0  0  0  0  0  0  0  0  0  0
   10.9878  -12.2065   27.8089 C   0  0  0  0  0  0  0  0  0  0  0  0
   10.7639  -13.5885   28.8805 S   0  0  0  0  0  0  0  0  0  0  0  0
   10.8985  -15.2229   28.2161 C   0  0  0  0  0  0  0  0  0  0  0  0
   10.1695  -15.3707   26.9206 C   0  0  0  0  0  0  0  0  0  0  0  0
   10.3331  -16.6556   26.2057 C   0  0  2  0  0  0  0  0  0  0  0  0
    9.4448  -16.7273   25.0315 N   0  0  0  0  0  0  0  0  0  0  0  0
   10.0355  -17.8411   27.0781 C   0  0  0  0  0  0  0  0  0  0  0  0
   10.8416  -18.2647   28.1024 O   0  0  0  0  0  0  0  0  0  0  0  0
    8.9772  -18.5226   26.8871 O   0  0  0  0  0  0  0  0  0  0  0  0
  2  1  1  0
  2  3  2  0
  4  3  1  0
  5  4  2  0
  6  7  1  0
  6  5  1  0
  7  8  1  6
  9 13  1  0
  9  7  1  0
 10  9  2  0
 11 12  2  0
 11  5  1  0
 12  2  1  0
 14 13  1  0
 14 15  1  1
 16 21  1  0
 16 15  1  0
 17 16  2  0
 18 19  2  0
 18 17  1  0
 19 20  1  0
 20 21  2  0
 22 23  2  0
 22 14  1  0
 24 25  1  0
 26 25  1  0
 27 26  1  0
 28 27  1  1
 28 29  1  0
 29 22  1  0
 30 28  1  0
 31 30  1  0
 32 30  2  0
M  END
$$$$
