YFM.pdb
     RDKit          3D

 32 33  0  0  1  0  0  0  0  0999 V2000
   10.7922  -22.1170   15.6664 O   0  0  0  0  0  0  0  0  0  0  0  0
   10.8200  -21.3662   16.8302 C   0  0  0  0  0  0  0  0  0  0  0  0
    9.6411  -20.8766   17.3439 C   0  0  0  0  0  0  0  0  0  0  0  0
    9.6794  -20.1297   18.5041 C   0  0  0  0  0  0  0  0  0  0  0  0
   10.8611  -19.8560   19.1687 C   0  0  0  0  0  0  0  0  0  0  0  0
   10.8784  -19.0495   20.4166 C   0  0  0  0  0  0  0  0  0  0  0  0
   10.6822  -17.6006   20.0587 C   0  0  2  0  0  0  0  0  0  0  0  0
   11.7273  -17.1089   19.1943 N   0  0  0  0  0  0  0  0  0  0  0  0
   10.4502  -16.7344   21.2238 C   0  0  0  0  0  0  0  0  0  0  0  0
   11.3671  -16.0711   21.7689 O   0  0  0  0  0  0  0  0  0  0  0  0
   12.0202  -20.3664   18.6191 C   0  0  0  0  0  0  0  0  0  0  0  0
   12.0183  -21.1172   17.4603 C   0  0  0  0  0  0  0  0  0  0  0  0
    9.1411  -16.6159   21.7882 N   0  0  0  0  0  0  0  0  0  0  0  0
    8.8342  -15.7841   22.9047 C   0  0  1  0  0  0  0  0  0  0  0  0
    7.4192  -15.2797   22.9151 C   0  0  0  0  0  0  0  0  0  0  0  0
    7.1063  -14.4098   24.0626 C   0  0  0  0  0  0  0  0  0  0  0  0
    6.4681  -14.9262   25.1500 C   0  0  0  0  0  0  0  0  0  0  0  0
    6.1809  -14.1006   26.2154 C   0  0  0  0  0  0  0  0  0  0  0  0
    6.5244  -12.7681   26.2041 C   0  0  0  0  0  0  0  0  0  0  0  0
    7.1680  -12.2792   25.0901 C   0  0  0  0  0  0  0  0  0  0  0  0
    7.4578  -13.0955   24.0243 C   0  0  0  0  0  0  0  0  0  0  0  0
    9.2561  -16.4280   24.1489 C   0  0  0  0  0  0  0  0  0  0  0  0
    8.9672  -17.6256   24.3597 O   0  0  0  0  0  0  0  0  0  0  0  0
    9.9865  -12.0783   29.0842 C   0  0  0  0  0  0  0  0  0  0  0  0
   10.3985  -13.7646   29.3926 S   0  0  0  0  0  0  0  0  0  0  0  0
    9.9020  -14.9987   28.2258 C   0  0  0  0  0  0  0  0  0  0  0  0
   11.0143  -15.3940   27.3101 C   0  0  0  0  0  0  0  0  0  0  0  0
   10.6877  -16.3680   26.2454 C   0  0  2  0  0  0  0  0  0  0  0  0
    9.9899  -15.7145   25.1233 N   0  0  0  0  0  0  0  0  0  0  0  0
    9.8158  -17.4872   26.7374 C   0  0  0  0  0  0  0  0  0  0  0  0
   10.2921  -18.6659   27.2494 O   0  0  0  0  0  0  0  0  0  0  0  0
    8.5484  -17.3735   26.6937 O   0  0  0  0  0  0  0  0  0  0  0  0
  2  1  1  0
  2  3  2  0
  4  3  1  0
  5  4  2  0
  6  7  1  0
  6  5  1  0
  7  8  1  1
  9 13  1  0
  9  7  1  0
 10  9  2  0
 11 12  2  0
 11  5  1  0
 12  2  1  0
 14 13  1  0
 14 15  1  1
 16 21  1  0
 16 15  1  0
 17 16  2  0
 18 19  2  0
 18 17  1  0
 19 20  1  0
 20 21  2  0
 22 23  2  0
 22 14  1  0
 24 25  1  0
 26 25  1  0
 27 26  1  0
 28 27  1  1
 28 29  1  0
 29 22  1  0
 30 28  1  0
 31 30  1  0
 32 30  2  0
M  END
$$$$
