YFM.pdb
     RDKit          3D

 32 33  0  0  1  0  0  0  0  0999 V2000
    7.7706  -14.8257   13.6117 O   0  0  0  0  0  0  0  0  0  0  0  0
    8.3318  -14.6950   14.8714 C   0  0  0  0  0  0  0  0  0  0  0  0
    9.2375  -15.6353   15.3059 C   0  0  0  0  0  0  0  0  0  0  0  0
    9.7910  -15.4960   16.5627 C   0  0  0  0  0  0  0  0  0  0  0  0
    9.4674  -14.4446   17.4009 C   0  0  0  0  0  0  0  0  0  0  0  0
   10.0760  -14.3149   18.7503 C   0  0  0  0  0  0  0  0  0  0  0  0
    9.8742  -15.6057   19.4979 C   0  0  2  0  0  0  0  0  0  0  0  0
    8.7361  -16.3445   19.0077 N   0  0  0  0  0  0  0  0  0  0  0  0
    9.8624  -15.4422   20.9590 C   0  0  0  0  0  0  0  0  0  0  0  0
   10.8401  -14.9796   21.5976 O   0  0  0  0  0  0  0  0  0  0  0  0
    8.5547  -13.5242   16.9256 C   0  0  0  0  0  0  0  0  0  0  0  0
    7.9818  -13.6327   15.6740 C   0  0  0  0  0  0  0  0  0  0  0  0
    8.7090  -15.8138   21.7194 N   0  0  0  0  0  0  0  0  0  0  0  0
    8.4981  -15.4269   23.0752 C   0  0  1  0  0  0  0  0  0  0  0  0
    7.0747  -15.0628   23.3882 C   0  0  0  0  0  0  0  0  0  0  0  0
    6.8999  -14.4235   24.7043 C   0  0  0  0  0  0  0  0  0  0  0  0
    6.3762  -15.1373   25.7400 C   0  0  0  0  0  0  0  0  0  0  0  0
    6.2173  -14.5261   26.9649 C   0  0  0  0  0  0  0  0  0  0  0  0
    6.5759  -13.2125   27.1637 C   0  0  0  0  0  0  0  0  0  0  0  0
    7.1018  -12.5208   26.0963 C   0  0  0  0  0  0  0  0  0  0  0  0
    7.2632  -13.1227   24.8724 C   0  0  0  0  0  0  0  0  0  0  0  0
    9.0833  -16.4147   23.9822 C   0  0  0  0  0  0  0  0  0  0  0  0
    8.8951  -17.6338   23.7809 O   0  0  0  0  0  0  0  0  0  0  0  0
   11.5885  -13.1956   28.6349 C   0  0  0  0  0  0  0  0  0  0  0  0
   10.3940  -14.4871   28.7518 S   0  0  0  0  0  0  0  0  0  0  0  0
   10.8736  -16.1417   28.3479 C   0  0  0  0  0  0  0  0  0  0  0  0
   11.4081  -16.2541   26.9574 C   0  0  0  0  0  0  0  0  0  0  0  0
   10.5618  -16.9631   25.9726 C   0  0  2  0  0  0  0  0  0  0  0  0
    9.8635  -16.0116   25.0894 N   0  0  0  0  0  0  0  0  0  0  0  0
    9.5231  -17.8295   26.6249 C   0  0  0  0  0  0  0  0  0  0  0  0
    9.7785  -19.0626   27.1658 O   0  0  0  0  0  0  0  0  0  0  0  0
    8.3167  -17.4297   26.7009 O   0  0  0  0  0  0  0  0  0  0  0  0
  2  1  1  0
  2  3  2  0
  4  3  1  0
  5  4  2  0
  6  7  1  0
  6  5  1  0
  7  8  1  6
  9 13  1  0
  9  7  1  0
 10  9  2  0
 11 12  2  0
 11  5  1  0
 12  2  1  0
 14 13  1  0
 14 15  1  1
 16 21  1  0
 16 15  1  0
 17 16  2  0
 18 19  2  0
 18 17  1  0
 19 20  1  0
 20 21  2  0
 22 23  2  0
 22 14  1  0
 24 25  1  0
 26 25  1  0
 27 26  1  0
 28 27  1  1
 28 29  1  0
 29 22  1  0
 30 28  1  0
 31 30  1  0
 32 30  2  0
M  END
$$$$
