KYE.pdb
     RDKit          3D

 31 31  0  0  1  0  0  0  0  0999 V2000
    7.1241  -15.8381   21.0120 N   0  0  0  0  0  0  0  0  0  0  0  0
    8.3750  -15.1110   20.9903 C   0  0  1  0  0  0  0  0  0  0  0  0
    8.0850  -13.7106   20.4641 C   0  0  0  0  0  0  0  0  0  0  0  0
    7.4603  -13.8273   19.0921 C   0  0  0  0  0  0  0  0  0  0  0  0
    8.4007  -13.4443   17.9964 C   0  0  0  0  0  0  0  0  0  0  0  0
    7.7643  -13.4128   16.6422 C   0  0  0  0  0  0  0  0  0  0  0  0
    8.7973  -12.9782   15.6953 N   0  0  0  0  0  0  0  0  0  0  0  0
    8.9035  -15.0623   22.3750 C   0  0  0  0  0  0  0  0  0  0  0  0
    9.9641  -14.4276   22.6093 O   0  0  0  0  0  0  0  0  0  0  0  0
    5.8601  -10.3114   26.4940 O   0  0  0  0  0  0  0  0  0  0  0  0
    6.3303  -11.6213   26.3320 C   0  0  0  0  0  0  0  0  0  0  0  0
    5.5584  -12.5901   25.7295 C   0  0  0  0  0  0  0  0  0  0  0  0
    6.0236  -13.8892   25.5684 C   0  0  0  0  0  0  0  0  0  0  0  0
    7.2736  -14.2741   26.0000 C   0  0  0  0  0  0  0  0  0  0  0  0
    7.8131  -15.6509   25.8481 C   0  0  0  0  0  0  0  0  0  0  0  0
    8.8730  -15.7358   24.7628 C   0  0  2  0  0  0  0  0  0  0  0  0
    8.2365  -15.7191   23.4496 N   0  0  0  0  0  0  0  0  0  0  0  0
    9.7198  -16.9420   24.9097 C   0  0  0  0  0  0  0  0  0  0  0  0
    9.2799  -18.0861   24.7273 O   0  0  0  0  0  0  0  0  0  0  0  0
    8.0430  -13.2840   26.6073 C   0  0  0  0  0  0  0  0  0  0  0  0
    7.5830  -11.9957   26.7677 C   0  0  0  0  0  0  0  0  0  0  0  0
   11.0822  -16.7668   25.2698 N   0  0  0  0  0  0  0  0  0  0  0  0
   11.9019  -17.9136   25.5813 C   0  0  1  0  0  0  0  0  0  0  0  0
   13.3736  -17.5552   25.3970 C   0  0  0  0  0  0  0  0  0  0  0  0
   13.5440  -17.0825   23.9899 C   0  0  0  0  0  0  0  0  0  0  0  0
   14.8428  -16.4128   23.7621 C   0  0  0  0  0  0  0  0  0  0  0  0
   15.8877  -16.8062   24.3027 O   0  0  0  0  0  0  0  0  0  0  0  0
   11.7702  -18.3982   26.9648 C   0  0  0  0  0  0  0  0  0  0  0  0
   10.9334  -17.7229   27.8301 O   0  0  0  0  0  0  0  0  0  0  0  0
   14.8850  -15.3166   22.9205 O   0  0  0  0  0  0  0  0  0  0  0  0
   12.4155  -19.4068   27.3273 O   0  0  0  0  0  0  0  0  0  0  0  0
  2  3  1  0
  2  1  1  1
  3  4  1  0
  4  5  1  0
  5  6  1  0
  6  7  1  0
  8  2  1  0
  8  9  2  0
 10 11  1  0
 11 21  2  0
 12 13  2  0
 12 11  1  0
 13 14  1  0
 14 15  1  0
 14 20  2  0
 16 15  1  1
 16 18  1  0
 16 17  1  0
 17  8  1  0
 18 19  2  0
 21 20  1  0
 22 23  1  0
 22 18  1  0
 23 24  1  1
 24 25  1  0
 25 26  1  0
 26 27  2  0
 28 29  1  0
 28 23  1  0
 30 26  1  0
 31 28  2  0
M  END
$$$$
