KYE.pdb
     RDKit          3D

 31 31  0  0  1  0  0  0  0  0999 V2000
    7.2464  -15.9785   20.4304 N   0  0  0  0  0  0  0  0  0  0  0  0
    8.0738  -14.7915   20.4388 C   0  0  1  0  0  0  0  0  0  0  0  0
    7.1612  -13.5919   20.2147 C   0  0  0  0  0  0  0  0  0  0  0  0
    7.4704  -12.9929   18.8612 C   0  0  0  0  0  0  0  0  0  0  0  0
    7.0162  -13.8578   17.7311 C   0  0  0  0  0  0  0  0  0  0  0  0
    7.3141  -13.2867   16.3802 C   0  0  0  0  0  0  0  0  0  0  0  0
    6.8604  -14.2709   15.3913 N   0  0  0  0  0  0  0  0  0  0  0  0
    8.7488  -14.7100   21.7567 C   0  0  0  0  0  0  0  0  0  0  0  0
    9.9012  -14.2109   21.8305 O   0  0  0  0  0  0  0  0  0  0  0  0
   10.6681  -15.1482   30.3856 O   0  0  0  0  0  0  0  0  0  0  0  0
   10.0059  -15.0682   29.1534 C   0  0  0  0  0  0  0  0  0  0  0  0
    9.8519  -13.8656   28.4997 C   0  0  0  0  0  0  0  0  0  0  0  0
    9.1955  -13.7852   27.2779 C   0  0  0  0  0  0  0  0  0  0  0  0
    8.6675  -14.8971   26.6601 C   0  0  0  0  0  0  0  0  0  0  0  0
    7.9588  -14.8589   25.3540 C   0  0  0  0  0  0  0  0  0  0  0  0
    8.8824  -15.1761   24.1900 C   0  0  2  0  0  0  0  0  0  0  0  0
    8.1213  -15.1849   22.9448 N   0  0  0  0  0  0  0  0  0  0  0  0
    9.5824  -16.4682   24.3754 C   0  0  0  0  0  0  0  0  0  0  0  0
    8.9864  -17.5543   24.3453 O   0  0  0  0  0  0  0  0  0  0  0  0
    8.8307  -16.1063   27.3328 C   0  0  0  0  0  0  0  0  0  0  0  0
    9.4812  -16.1873   28.5440 C   0  0  0  0  0  0  0  0  0  0  0  0
   10.9858  -16.4473   24.5913 N   0  0  0  0  0  0  0  0  0  0  0  0
   11.6994  -17.6785   24.8334 C   0  0  1  0  0  0  0  0  0  0  0  0
   12.9375  -17.7354   23.9433 C   0  0  0  0  0  0  0  0  0  0  0  0
   12.4752  -17.6035   22.5285 C   0  0  0  0  0  0  0  0  0  0  0  0
   13.5803  -17.7071   21.5512 C   0  0  0  0  0  0  0  0  0  0  0  0
   14.7634  -17.8166   21.9075 O   0  0  0  0  0  0  0  0  0  0  0  0
   12.1819  -17.8411   26.2143 C   0  0  0  0  0  0  0  0  0  0  0  0
   11.9315  -16.8386   27.1295 O   0  0  0  0  0  0  0  0  0  0  0  0
   13.2772  -17.6802   20.2024 O   0  0  0  0  0  0  0  0  0  0  0  0
   12.8059  -18.8784   26.5298 O   0  0  0  0  0  0  0  0  0  0  0  0
  2  3  1  0
  2  1  1  1
  3  4  1  0
  4  5  1  0
  5  6  1  0
  6  7  1  0
  8  2  1  0
  8  9  2  0
 10 11  1  0
 11 21  2  0
 12 13  2  0
 12 11  1  0
 13 14  1  0
 14 15  1  0
 14 20  2  0
 16 15  1  1
 16 18  1  0
 16 17  1  0
 17  8  1  0
 18 19  2  0
 21 20  1  0
 22 23  1  0
 22 18  1  0
 23 24  1  6
 24 25  1  0
 25 26  1  0
 26 27  2  0
 28 29  1  0
 28 23  1  0
 30 26  1  0
 31 28  2  0
M  END
$$$$
