KYE.pdb
     RDKit          3D

 31 31  0  0  1  0  0  0  0  0999 V2000
    7.4072  -15.9410   18.7974 N   0  0  0  0  0  0  0  0  0  0  0  0
    8.4295  -14.9181   18.8442 C   0  0  1  0  0  0  0  0  0  0  0  0
    7.9264  -13.7264   18.0388 C   0  0  0  0  0  0  0  0  0  0  0  0
    7.3513  -14.2303   16.7343 C   0  0  0  0  0  0  0  0  0  0  0  0
    8.3407  -14.1923   15.6157 C   0  0  0  0  0  0  0  0  0  0  0  0
    7.7705  -14.6055   14.2951 C   0  0  0  0  0  0  0  0  0  0  0  0
    8.8277  -14.4155   13.2957 N   0  0  0  0  0  0  0  0  0  0  0  0
    8.6473  -14.5494   20.2640 C   0  0  0  0  0  0  0  0  0  0  0  0
    9.6165  -13.8070   20.5676 O   0  0  0  0  0  0  0  0  0  0  0  0
    7.7330  -12.5780   28.7820 O   0  0  0  0  0  0  0  0  0  0  0  0
    7.5087  -12.9708   27.4559 C   0  0  0  0  0  0  0  0  0  0  0  0
    7.8005  -12.1336   26.4016 C   0  0  0  0  0  0  0  0  0  0  0  0
    7.5784  -12.5221   25.0864 C   0  0  0  0  0  0  0  0  0  0  0  0
    7.0581  -13.7574   24.7697 C   0  0  0  0  0  0  0  0  0  0  0  0
    6.8049  -14.2158   23.3785 C   0  0  0  0  0  0  0  0  0  0  0  0
    8.0797  -14.6533   22.6771 C   0  0  2  0  0  0  0  0  0  0  0  0
    7.7824  -15.0172   21.2955 N   0  0  0  0  0  0  0  0  0  0  0  0
    8.7372  -15.7809   23.3770 C   0  0  0  0  0  0  0  0  0  0  0  0
    8.3021  -16.9399   23.3196 O   0  0  0  0  0  0  0  0  0  0  0  0
    6.7678  -14.5933   25.8458 C   0  0  0  0  0  0  0  0  0  0  0  0
    6.9875  -14.2094   27.1501 C   0  0  0  0  0  0  0  0  0  0  0  0
    9.9077  -15.5111   24.1343 N   0  0  0  0  0  0  0  0  0  0  0  0
   10.6457  -16.5953   24.7374 C   0  0  1  0  0  0  0  0  0  0  0  0
   12.1361  -16.4124   24.4661 C   0  0  0  0  0  0  0  0  0  0  0  0
   12.4985  -17.3231   23.3383 C   0  0  0  0  0  0  0  0  0  0  0  0
   13.9180  -17.2073   22.9399 C   0  0  0  0  0  0  0  0  0  0  0  0
   14.3836  -17.8387   21.9790 O   0  0  0  0  0  0  0  0  0  0  0  0
   10.5056  -16.6880   26.1996 C   0  0  0  0  0  0  0  0  0  0  0  0
   11.0475  -17.7764   26.8529 O   0  0  0  0  0  0  0  0  0  0  0  0
   14.7439  -16.3684   23.6652 O   0  0  0  0  0  0  0  0  0  0  0  0
    9.9016  -15.7838   26.8182 O   0  0  0  0  0  0  0  0  0  0  0  0
  2  3  1  0
  2  1  1  1
  3  4  1  0
  4  5  1  0
  5  6  1  0
  6  7  1  0
  8  2  1  0
  8  9  2  0
 10 11  1  0
 11 21  2  0
 12 13  2  0
 12 11  1  0
 13 14  1  0
 14 15  1  0
 14 20  2  0
 16 15  1  1
 16 18  1  0
 16 17  1  0
 17  8  1  0
 18 19  2  0
 21 20  1  0
 22 23  1  0
 22 18  1  0
 23 24  1  1
 24 25  1  0
 25 26  1  0
 26 27  2  0
 28 29  1  0
 28 23  1  0
 30 26  1  0
 31 28  2  0
M  END
$$$$
