KYE.pdb
     RDKit          3D

 31 31  0  0  1  0  0  0  0  0999 V2000
    6.9531  -15.4224   19.8650 N   0  0  0  0  0  0  0  0  0  0  0  0
    8.2042  -14.7075   19.7329 C   0  0  1  0  0  0  0  0  0  0  0  0
    7.8964  -13.3511   19.1104 C   0  0  0  0  0  0  0  0  0  0  0  0
    7.2169  -13.5717   17.7777 C   0  0  0  0  0  0  0  0  0  0  0  0
    8.1721  -13.5288   16.6300 C   0  0  0  0  0  0  0  0  0  0  0  0
    7.5171  -13.7083   15.2963 C   0  0  0  0  0  0  0  0  0  0  0  0
    8.5590  -13.5210   14.2805 N   0  0  0  0  0  0  0  0  0  0  0  0
    8.7914  -14.5531   21.0859 C   0  0  0  0  0  0  0  0  0  0  0  0
    9.9690  -14.1265   21.2030 O   0  0  0  0  0  0  0  0  0  0  0  0
    9.9344  -14.2998   29.8804 O   0  0  0  0  0  0  0  0  0  0  0  0
    9.3761  -14.3630   28.5968 C   0  0  0  0  0  0  0  0  0  0  0  0
    9.0797  -15.5702   28.0032 C   0  0  0  0  0  0  0  0  0  0  0  0
    8.5262  -15.6339   26.7306 C   0  0  0  0  0  0  0  0  0  0  0  0
    8.2465  -14.5003   26.0002 C   0  0  0  0  0  0  0  0  0  0  0  0
    7.6540  -14.5203   24.6371 C   0  0  0  0  0  0  0  0  0  0  0  0
    8.7020  -14.7374   23.5586 C   0  0  2  0  0  0  0  0  0  0  0  0
    8.0513  -14.8774   22.2598 N   0  0  0  0  0  0  0  0  0  0  0  0
    9.5495  -15.9189   23.8405 C   0  0  0  0  0  0  0  0  0  0  0  0
    9.1101  -17.0764   23.7888 O   0  0  0  0  0  0  0  0  0  0  0  0
    8.5515  -13.2868   26.6131 C   0  0  0  0  0  0  0  0  0  0  0  0
    9.1002  -13.2222   27.8746 C   0  0  0  0  0  0  0  0  0  0  0  0
   10.9120  -15.7035   24.1777 N   0  0  0  0  0  0  0  0  0  0  0  0
   11.8211  -16.8213   24.2669 C   0  0  1  0  0  0  0  0  0  0  0  0
   13.2150  -16.3830   23.8271 C   0  0  0  0  0  0  0  0  0  0  0  0
   14.1185  -17.5648   23.9680 C   0  0  0  0  0  0  0  0  0  0  0  0
   15.5020  -17.2860   23.5260 C   0  0  0  0  0  0  0  0  0  0  0  0
   16.4778  -17.8784   24.0112 O   0  0  0  0  0  0  0  0  0  0  0  0
   11.9759  -17.3734   25.6225 C   0  0  0  0  0  0  0  0  0  0  0  0
   12.4721  -18.6532   25.7676 O   0  0  0  0  0  0  0  0  0  0  0  0
   15.7050  -16.3355   22.5425 O   0  0  0  0  0  0  0  0  0  0  0  0
   11.6565  -16.6762   26.6108 O   0  0  0  0  0  0  0  0  0  0  0  0
  2  3  1  0
  2  1  1  1
  3  4  1  0
  4  5  1  0
  5  6  1  0
  6  7  1  0
  8  2  1  0
  8  9  2  0
 10 11  1  0
 11 21  2  0
 12 13  2  0
 12 11  1  0
 13 14  1  0
 14 15  1  0
 14 20  2  0
 16 15  1  1
 16 18  1  0
 16 17  1  0
 17  8  1  0
 18 19  2  0
 21 20  1  0
 22 23  1  0
 22 18  1  0
 23 24  1  1
 24 25  1  0
 25 26  1  0
 26 27  2  0
 28 29  1  0
 28 23  1  0
 30 26  1  0
 31 28  2  0
M  END
$$$$
