KYE.pdb
     RDKit          3D

 31 31  0  0  1  0  0  0  0  0999 V2000
    8.0205  -14.4847   19.4092 N   0  0  0  0  0  0  0  0  0  0  0  0
    7.6129  -15.4381   20.4184 C   0  0  1  0  0  0  0  0  0  0  0  0
    7.9083  -16.8330   19.8807 C   0  0  0  0  0  0  0  0  0  0  0  0
    7.4312  -16.9120   18.4480 C   0  0  0  0  0  0  0  0  0  0  0  0
    7.6251  -18.2671   17.8501 C   0  0  0  0  0  0  0  0  0  0  0  0
    7.2748  -18.3382   16.3968 C   0  0  0  0  0  0  0  0  0  0  0  0
    7.3781  -19.7473   16.0014 N   0  0  0  0  0  0  0  0  0  0  0  0
    8.3912  -15.1652   21.6509 C   0  0  0  0  0  0  0  0  0  0  0  0
    9.6352  -14.9960   21.5709 O   0  0  0  0  0  0  0  0  0  0  0  0
   10.7744  -14.4738   30.1678 O   0  0  0  0  0  0  0  0  0  0  0  0
   10.0308  -14.5090   28.9808 C   0  0  0  0  0  0  0  0  0  0  0  0
    9.8141  -13.3699   28.2371 C   0  0  0  0  0  0  0  0  0  0  0  0
    9.0769  -13.4038   27.0601 C   0  0  0  0  0  0  0  0  0  0  0  0
    8.5274  -14.5711   26.5781 C   0  0  0  0  0  0  0  0  0  0  0  0
    7.7331  -14.6548   25.3244 C   0  0  0  0  0  0  0  0  0  0  0  0
    8.5999  -14.9617   24.1148 C   0  0  2  0  0  0  0  0  0  0  0  0
    7.7616  -15.0898   22.9271 N   0  0  0  0  0  0  0  0  0  0  0  0
    9.4079  -16.1876   24.3100 C   0  0  0  0  0  0  0  0  0  0  0  0
    8.9253  -17.3235   24.1978 O   0  0  0  0  0  0  0  0  0  0  0  0
    8.7546  -15.7148   27.3404 C   0  0  0  0  0  0  0  0  0  0  0  0
    9.4852  -15.6827   28.5075 C   0  0  0  0  0  0  0  0  0  0  0  0
   10.7829  -16.0417   24.6336 N   0  0  0  0  0  0  0  0  0  0  0  0
   11.6448  -17.1992   24.6701 C   0  0  1  0  0  0  0  0  0  0  0  0
   12.9525  -16.8858   23.9490 C   0  0  0  0  0  0  0  0  0  0  0  0
   13.8094  -18.1072   24.0299 C   0  0  0  0  0  0  0  0  0  0  0  0
   15.1540  -17.9051   23.4482 C   0  0  0  0  0  0  0  0  0  0  0  0
   16.1686  -18.4143   23.9480 O   0  0  0  0  0  0  0  0  0  0  0  0
   12.0203  -17.6362   26.0244 C   0  0  0  0  0  0  0  0  0  0  0  0
   12.5768  -18.8885   26.1897 O   0  0  0  0  0  0  0  0  0  0  0  0
   15.2749  -17.1240   22.3137 O   0  0  0  0  0  0  0  0  0  0  0  0
   11.8287  -16.8688   26.9936 O   0  0  0  0  0  0  0  0  0  0  0  0
  2  3  1  0
  2  1  1  6
  3  4  1  0
  4  5  1  0
  5  6  1  0
  6  7  1  0
  8  2  1  0
  8  9  2  0
 10 11  1  0
 11 21  2  0
 12 13  2  0
 12 11  1  0
 13 14  1  0
 14 15  1  0
 14 20  2  0
 16 15  1  1
 16 18  1  0
 16 17  1  0
 17  8  1  0
 18 19  2  0
 21 20  1  0
 22 23  1  0
 22 18  1  0
 23 24  1  6
 24 25  1  0
 25 26  1  0
 26 27  2  0
 28 29  1  0
 28 23  1  0
 30 26  1  0
 31 28  2  0
M  END
$$$$
