KYE.pdb
     RDKit          3D

 31 31  0  0  1  0  0  0  0  0999 V2000
    7.4008  -16.5187   19.0776 N   0  0  0  0  0  0  0  0  0  0  0  0
    8.4355  -15.5102   18.9998 C   0  0  1  0  0  0  0  0  0  0  0  0
    7.9488  -14.4228   18.0496 C   0  0  0  0  0  0  0  0  0  0  0  0
    7.9494  -14.9730   16.6412 C   0  0  0  0  0  0  0  0  0  0  0  0
    7.5989  -13.9411   15.6195 C   0  0  0  0  0  0  0  0  0  0  0  0
    7.5378  -14.4753   14.2228 C   0  0  0  0  0  0  0  0  0  0  0  0
    7.1738  -13.3520   13.3520 N   0  0  0  0  0  0  0  0  0  0  0  0
    8.6547  -14.9691   20.3630 C   0  0  0  0  0  0  0  0  0  0  0  0
    9.6530  -14.2360   20.5833 O   0  0  0  0  0  0  0  0  0  0  0  0
    7.8607  -12.8935   28.9349 O   0  0  0  0  0  0  0  0  0  0  0  0
    7.6081  -13.2563   27.6053 C   0  0  0  0  0  0  0  0  0  0  0  0
    7.6457  -12.3266   26.5896 C   0  0  0  0  0  0  0  0  0  0  0  0
    7.3953  -12.6853   25.2710 C   0  0  0  0  0  0  0  0  0  0  0  0
    7.0981  -13.9815   24.9125 C   0  0  0  0  0  0  0  0  0  0  0  0
    6.8245  -14.4110   23.5160 C   0  0  0  0  0  0  0  0  0  0  0  0
    8.0939  -14.7930   22.7735 C   0  0  2  0  0  0  0  0  0  0  0  0
    7.7589  -15.2607   21.4323 N   0  0  0  0  0  0  0  0  0  0  0  0
    8.8707  -15.8239   23.4998 C   0  0  0  0  0  0  0  0  0  0  0  0
    8.4737  -16.9920   23.6164 O   0  0  0  0  0  0  0  0  0  0  0  0
    7.0635  -14.9107   25.9500 C   0  0  0  0  0  0  0  0  0  0  0  0
    7.3116  -14.5565   27.2576 C   0  0  0  0  0  0  0  0  0  0  0  0
   10.1132  -15.4478   24.0753 N   0  0  0  0  0  0  0  0  0  0  0  0
   11.0245  -16.4593   24.5553 C   0  0  1  0  0  0  0  0  0  0  0  0
   12.4597  -16.0403   24.2509 C   0  0  0  0  0  0  0  0  0  0  0  0
   13.3604  -17.0806   24.8334 C   0  0  0  0  0  0  0  0  0  0  0  0
   14.7890  -16.8311   24.5436 C   0  0  0  0  0  0  0  0  0  0  0  0
   15.6598  -17.6905   24.7477 O   0  0  0  0  0  0  0  0  0  0  0  0
   10.9665  -16.6912   26.0075 C   0  0  0  0  0  0  0  0  0  0  0  0
   11.6164  -17.7897   26.5329 O   0  0  0  0  0  0  0  0  0  0  0  0
   15.1563  -15.6009   24.0302 O   0  0  0  0  0  0  0  0  0  0  0  0
   10.3330  -15.8930   26.7332 O   0  0  0  0  0  0  0  0  0  0  0  0
  2  3  1  0
  2  1  1  1
  3  4  1  0
  4  5  1  0
  5  6  1  0
  6  7  1  0
  8  2  1  0
  8  9  2  0
 10 11  1  0
 11 21  2  0
 12 13  2  0
 12 11  1  0
 13 14  1  0
 14 15  1  0
 14 20  2  0
 16 15  1  1
 16 18  1  0
 16 17  1  0
 17  8  1  0
 18 19  2  0
 21 20  1  0
 22 23  1  0
 22 18  1  0
 23 24  1  1
 24 25  1  0
 25 26  1  0
 26 27  2  0
 28 29  1  0
 28 23  1  0
 30 26  1  0
 31 28  2  0
M  END
$$$$
