KYE.pdb
     RDKit          3D

 31 31  0  0  1  0  0  0  0  0999 V2000
    8.3847  -16.0793   18.1506 N   0  0  0  0  0  0  0  0  0  0  0  0
    7.5889  -16.5553   19.2614 C   0  0  1  0  0  0  0  0  0  0  0  0
    7.8387  -18.0522   19.3993 C   0  0  0  0  0  0  0  0  0  0  0  0
    8.0109  -18.6447   18.0189 C   0  0  0  0  0  0  0  0  0  0  0  0
    6.9937  -19.6948   17.7117 C   0  0  0  0  0  0  0  0  0  0  0  0
    7.1790  -20.3372   16.3728 C   0  0  0  0  0  0  0  0  0  0  0  0
    6.1180  -21.3405   16.2304 N   0  0  0  0  0  0  0  0  0  0  0  0
    8.0178  -15.8278   20.4804 C   0  0  0  0  0  0  0  0  0  0  0  0
    9.2400  -15.5899   20.6596 O   0  0  0  0  0  0  0  0  0  0  0  0
    7.9679  -12.1899   28.5799 O   0  0  0  0  0  0  0  0  0  0  0  0
    7.5947  -12.6404   27.3067 C   0  0  0  0  0  0  0  0  0  0  0  0
    7.7613  -11.8511   26.1902 C   0  0  0  0  0  0  0  0  0  0  0  0
    7.3915  -12.2969   24.9274 C   0  0  0  0  0  0  0  0  0  0  0  0
    6.8423  -13.5439   24.7270 C   0  0  0  0  0  0  0  0  0  0  0  0
    6.4331  -14.0628   23.3955 C   0  0  0  0  0  0  0  0  0  0  0  0
    7.5724  -14.7679   22.6791 C   0  0  2  0  0  0  0  0  0  0  0  0
    7.0757  -15.3905   21.4562 N   0  0  0  0  0  0  0  0  0  0  0  0
    8.2278  -15.7776   23.5420 C   0  0  0  0  0  0  0  0  0  0  0  0
    7.7475  -16.9055   23.7235 O   0  0  0  0  0  0  0  0  0  0  0  0
    6.6797  -14.3310   25.8650 C   0  0  0  0  0  0  0  0  0  0  0  0
    7.0459  -13.8903   27.1175 C   0  0  0  0  0  0  0  0  0  0  0  0
    9.4503  -15.4290   24.1750 N   0  0  0  0  0  0  0  0  0  0  0  0
   10.3293  -16.4614   24.6702 C   0  0  1  0  0  0  0  0  0  0  0  0
   11.7758  -16.1006   24.3451 C   0  0  0  0  0  0  0  0  0  0  0  0
   12.6449  -17.1510   24.9568 C   0  0  0  0  0  0  0  0  0  0  0  0
   14.0829  -16.9356   24.6865 C   0  0  0  0  0  0  0  0  0  0  0  0
   14.9272  -16.9264   25.5952 O   0  0  0  0  0  0  0  0  0  0  0  0
   10.2758  -16.6590   26.1278 C   0  0  0  0  0  0  0  0  0  0  0  0
   10.8572  -17.7880   26.6685 O   0  0  0  0  0  0  0  0  0  0  0  0
   14.4897  -16.7394   23.3797 O   0  0  0  0  0  0  0  0  0  0  0  0
    9.7077  -15.8049   26.8439 O   0  0  0  0  0  0  0  0  0  0  0  0
  2  3  1  0
  2  1  1  6
  3  4  1  0
  4  5  1  0
  5  6  1  0
  6  7  1  0
  8  2  1  0
  8  9  2  0
 10 11  1  0
 11 21  2  0
 12 13  2  0
 12 11  1  0
 13 14  1  0
 14 15  1  0
 14 20  2  0
 16 15  1  1
 16 18  1  0
 16 17  1  0
 17  8  1  0
 18 19  2  0
 21 20  1  0
 22 23  1  0
 22 18  1  0
 23 24  1  1
 24 25  1  0
 25 26  1  0
 26 27  2  0
 28 29  1  0
 28 23  1  0
 30 26  1  0
 31 28  2  0
M  END
$$$$
