KYE.pdb
     RDKit          3D

 31 31  0  0  1  0  0  0  0  0999 V2000
    6.9132  -15.4311   20.6549 N   0  0  0  0  0  0  0  0  0  0  0  0
    8.2247  -14.8655   20.4228 C   0  0  1  0  0  0  0  0  0  0  0  0
    8.0305  -13.5141   19.7458 C   0  0  0  0  0  0  0  0  0  0  0  0
    7.2457  -13.7189   18.4697 C   0  0  0  0  0  0  0  0  0  0  0  0
    8.0735  -13.5084   17.2441 C   0  0  0  0  0  0  0  0  0  0  0  0
    7.2943  -13.6006   15.9697 C   0  0  0  0  0  0  0  0  0  0  0  0
    8.2181  -13.2672   14.8797 N   0  0  0  0  0  0  0  0  0  0  0  0
    8.8994  -14.7135   21.7346 C   0  0  0  0  0  0  0  0  0  0  0  0
   10.0718  -14.2594   21.7770 O   0  0  0  0  0  0  0  0  0  0  0  0
   10.8668  -14.8378   30.3729 O   0  0  0  0  0  0  0  0  0  0  0  0
   10.1844  -14.8605   29.1494 C   0  0  0  0  0  0  0  0  0  0  0  0
   10.0073  -13.7141   28.4066 C   0  0  0  0  0  0  0  0  0  0  0  0
    9.3308  -13.7355   27.1933 C   0  0  0  0  0  0  0  0  0  0  0  0
    8.8050  -14.8972   26.6729 C   0  0  0  0  0  0  0  0  0  0  0  0
    8.0754  -14.9677   25.3797 C   0  0  0  0  0  0  0  0  0  0  0  0
    9.0191  -15.0405   24.1911 C   0  0  2  0  0  0  0  0  0  0  0  0
    8.2495  -15.0705   22.9515 N   0  0  0  0  0  0  0  0  0  0  0  0
    9.9170  -16.2159   24.2689 C   0  0  0  0  0  0  0  0  0  0  0  0
    9.5154  -17.3704   24.0654 O   0  0  0  0  0  0  0  0  0  0  0  0
    8.9917  -16.0485   27.4348 C   0  0  0  0  0  0  0  0  0  0  0  0
    9.6621  -16.0287   28.6377 C   0  0  0  0  0  0  0  0  0  0  0  0
   11.2840  -15.9975   24.5856 N   0  0  0  0  0  0  0  0  0  0  0  0
   12.2242  -17.0913   24.5275 C   0  0  1  0  0  0  0  0  0  0  0  0
   13.4647  -16.6585   23.7515 C   0  0  0  0  0  0  0  0  0  0  0  0
   14.3963  -17.8261   23.7139 C   0  0  0  0  0  0  0  0  0  0  0  0
   15.7294  -17.4802   23.1749 C   0  0  0  0  0  0  0  0  0  0  0  0
   16.7130  -18.2192   23.3328 O   0  0  0  0  0  0  0  0  0  0  0  0
   12.7044  -17.5518   25.8404 C   0  0  0  0  0  0  0  0  0  0  0  0
   12.7398  -16.6545   26.8886 O   0  0  0  0  0  0  0  0  0  0  0  0
   15.8750  -16.2963   22.4757 O   0  0  0  0  0  0  0  0  0  0  0  0
   13.0689  -18.7403   25.9799 O   0  0  0  0  0  0  0  0  0  0  0  0
  2  3  1  0
  2  1  1  1
  3  4  1  0
  4  5  1  0
  5  6  1  0
  6  7  1  0
  8  2  1  0
  8  9  2  0
 10 11  1  0
 11 21  2  0
 12 13  2  0
 12 11  1  0
 13 14  1  0
 14 15  1  0
 14 20  2  0
 16 15  1  1
 16 18  1  0
 16 17  1  0
 17  8  1  0
 18 19  2  0
 21 20  1  0
 22 23  1  0
 22 18  1  0
 23 24  1  6
 24 25  1  0
 25 26  1  0
 26 27  2  0
 28 29  1  0
 28 23  1  0
 30 26  1  0
 31 28  2  0
M  END
$$$$
