MEM.pdb
     RDKit          3D

 26 25  0  0  1  0  0  0  0  0999 V2000
   13.4552   -9.4221  -15.8061 C   0  0  0  0  0  0  0  0  0  0  0  0
   13.8442  -11.1674  -15.7036 S   0  0  0  0  0  0  0  0  0  0  0  0
   15.3887  -11.6479  -16.4349 C   0  0  0  0  0  0  0  0  0  0  0  0
   16.5476  -10.8404  -15.9540 C   0  0  0  0  0  0  0  0  0  0  0  0
   17.8283  -11.2843  -16.5771 C   0  0  2  0  0  0  0  0  0  0  0  0
   18.1466  -12.6069  -16.0680 N   0  0  0  0  0  0  0  0  0  0  0  0
   18.9359  -10.3365  -16.1927 C   0  0  0  0  0  0  0  0  0  0  0  0
   19.1905  -10.1542  -14.9815 O   0  0  0  0  0  0  0  0  0  0  0  0
   19.6445   -9.6906  -17.1978 N   0  0  0  0  0  0  0  0  0  0  0  0
   20.6815   -8.6998  -16.8202 C   0  0  1  0  0  0  0  0  0  0  0  0
   21.9202   -9.1292  -17.5253 C   0  0  0  0  0  0  0  0  0  0  0  0
   22.8880   -8.0889  -17.9344 C   0  0  0  0  0  0  0  0  0  0  0  0
   24.0602   -8.7859  -18.5844 C   0  0  0  0  0  0  0  0  0  0  0  0
   24.1171  -10.0356  -18.6133 O   0  0  0  0  0  0  0  0  0  0  0  0
   20.1191   -7.4025  -17.2242 C   0  0  0  0  0  0  0  0  0  0  0  0
   19.4390   -7.2151  -18.2746 O   0  0  0  0  0  0  0  0  0  0  0  0
   25.1015   -8.0816  -19.1649 O   0  0  0  0  0  0  0  0  0  0  0  0
   14.5918   -2.9287  -16.2901 C   0  0  0  0  0  0  0  0  0  0  0  0
   15.6191   -4.3991  -16.3103 S   0  0  0  0  0  0  0  0  0  0  0  0
   17.3604   -4.0227  -16.5952 C   0  0  0  0  0  0  0  0  0  0  0  0
   18.1729   -5.2849  -16.5340 C   0  0  0  0  0  0  0  0  0  0  0  0
   19.6655   -5.0095  -16.7497 C   0  0  2  0  0  0  0  0  0  0  0  0
   20.3305   -6.2718  -16.4052 N   0  0  0  0  0  0  0  0  0  0  0  0
   20.1650   -3.9054  -15.9189 C   0  0  0  0  0  0  0  0  0  0  0  0
   19.7863   -2.6081  -16.2224 O   0  0  0  0  0  0  0  0  0  0  0  0
   20.9252   -4.0803  -14.9382 O   0  0  0  0  0  0  0  0  0  0  0  0
  2  3  1  0
  2  1  1  0
  3  4  1  0
  5  4  1  0
  5  6  1  1
  7  5  1  0
  7  9  1  0
  8  7  2  0
  9 10  1  0
 10 11  1  6
 11 12  1  0
 12 13  1  0
 13 17  1  0
 13 14  2  0
 15 16  2  0
 15 10  1  0
 18 19  1  0
 20 19  1  0
 20 21  1  0
 22 21  1  1
 22 23  1  0
 22 24  1  0
 23 15  1  0
 24 25  1  0
 26 24  2  0
M  END
$$$$
