MEM.pdb
     RDKit          3D

 26 25  0  0  1  0  0  0  0  0999 V2000
   26.2835  -19.5590   -6.5074 C   0  0  0  0  0  0  0  0  0  0  0  0
   27.9616  -20.1438   -6.7312 S   0  0  0  0  0  0  0  0  0  0  0  0
   28.2954  -20.9224   -8.2911 C   0  0  0  0  0  0  0  0  0  0  0  0
   27.1627  -20.8213   -9.2572 C   0  0  0  0  0  0  0  0  0  0  0  0
   27.4874  -21.4699  -10.5608 C   0  0  2  0  0  0  0  0  0  0  0  0
   28.8951  -21.2472  -10.8408 N   0  0  0  0  0  0  0  0  0  0  0  0
   26.6684  -20.8410  -11.6593 C   0  0  0  0  0  0  0  0  0  0  0  0
   26.9422  -19.6801  -12.0367 O   0  0  0  0  0  0  0  0  0  0  0  0
   25.6298  -21.5711  -12.2230 N   0  0  0  0  0  0  0  0  0  0  0  0
   25.0275  -21.0972  -13.4927 C   0  0  1  0  0  0  0  0  0  0  0  0
   25.6187  -21.9515  -14.5588 C   0  0  0  0  0  0  0  0  0  0  0  0
   25.1214  -21.7878  -15.9417 C   0  0  0  0  0  0  0  0  0  0  0  0
   25.8691  -22.7681  -16.8149 C   0  0  0  0  0  0  0  0  0  0  0  0
   26.2274  -23.8768  -16.3588 O   0  0  0  0  0  0  0  0  0  0  0  0
   23.5772  -21.2253  -13.2854 C   0  0  0  0  0  0  0  0  0  0  0  0
   23.0390  -22.0599  -12.5015 O   0  0  0  0  0  0  0  0  0  0  0  0
   26.1826  -22.4839  -18.1333 O   0  0  0  0  0  0  0  0  0  0  0  0
   19.6636  -16.4675  -11.8859 C   0  0  0  0  0  0  0  0  0  0  0  0
   18.7232  -17.3274  -13.1484 S   0  0  0  0  0  0  0  0  0  0  0  0
   19.2631  -19.0344  -13.3711 C   0  0  0  0  0  0  0  0  0  0  0  0
   20.7476  -19.0756  -13.5984 C   0  0  0  0  0  0  0  0  0  0  0  0
   21.2535  -20.5109  -13.7827 C   0  0  2  0  0  0  0  0  0  0  0  0
   22.6999  -20.3721  -13.9900 N   0  0  0  0  0  0  0  0  0  0  0  0
   20.6204  -21.1946  -14.9188 C   0  0  0  0  0  0  0  0  0  0  0  0
   19.5731  -22.0693  -14.6811 O   0  0  0  0  0  0  0  0  0  0  0  0
   20.9845  -21.0242  -16.1056 O   0  0  0  0  0  0  0  0  0  0  0  0
  2  3  1  0
  2  1  1  0
  3  4  1  0
  5  4  1  0
  5  6  1  6
  7  5  1  0
  7  9  1  0
  8  7  2  0
  9 10  1  0
 10 11  1  6
 11 12  1  0
 12 13  1  0
 13 17  1  0
 13 14  2  0
 15 16  2  0
 15 10  1  0
 18 19  1  0
 20 19  1  0
 20 21  1  0
 22 21  1  6
 22 23  1  0
 22 24  1  0
 23 15  1  0
 24 25  1  0
 26 24  2  0
M  END
$$$$
