MEM.pdb
     RDKit          3D

 26 25  0  0  1  0  0  0  0  0999 V2000
   18.3769  -12.9517  -15.3141 C   0  0  0  0  0  0  0  0  0  0  0  0
   17.3777  -12.8661  -16.7981 S   0  0  0  0  0  0  0  0  0  0  0  0
   18.1650  -12.1228  -18.2048 C   0  0  0  0  0  0  0  0  0  0  0  0
   18.6169  -10.7222  -17.9583 C   0  0  0  0  0  0  0  0  0  0  0  0
   19.3306  -10.1550  -19.1392 C   0  0  2  0  0  0  0  0  0  0  0  0
   20.4807  -10.9958  -19.4218 N   0  0  0  0  0  0  0  0  0  0  0  0
   19.8136   -8.7628  -18.8205 C   0  0  0  0  0  0  0  0  0  0  0  0
   21.0335   -8.5706  -18.6207 O   0  0  0  0  0  0  0  0  0  0  0  0
   18.8871   -7.7297  -18.7577 N   0  0  0  0  0  0  0  0  0  0  0  0
   19.3626   -6.3583  -18.4530 C   0  0  1  0  0  0  0  0  0  0  0  0
   18.2879   -5.4469  -18.9327 C   0  0  0  0  0  0  0  0  0  0  0  0
   18.2696   -5.0809  -20.3652 C   0  0  0  0  0  0  0  0  0  0  0  0
   17.0761   -4.1827  -20.5919 C   0  0  0  0  0  0  0  0  0  0  0  0
   16.1423   -4.5477  -21.3408 O   0  0  0  0  0  0  0  0  0  0  0  0
   19.6109   -6.3658  -17.0036 C   0  0  0  0  0  0  0  0  0  0  0  0
   18.9855   -7.0901  -16.1758 O   0  0  0  0  0  0  0  0  0  0  0  0
   16.9691   -2.9403  -19.9902 O   0  0  0  0  0  0  0  0  0  0  0  0
   24.4424   -9.6550  -12.9276 C   0  0  0  0  0  0  0  0  0  0  0  0
   23.5484   -9.1016  -14.3810 S   0  0  0  0  0  0  0  0  0  0  0  0
   22.7623   -7.4957  -14.1399 C   0  0  0  0  0  0  0  0  0  0  0  0
   21.9637   -7.1293  -15.3585 C   0  0  0  0  0  0  0  0  0  0  0  0
   21.1709   -5.8341  -15.1486 C   0  0  2  0  0  0  0  0  0  0  0  0
   20.6098   -5.5230  -16.4687 N   0  0  0  0  0  0  0  0  0  0  0  0
   22.0065   -4.7303  -14.6565 C   0  0  0  0  0  0  0  0  0  0  0  0
   22.1413   -4.5433  -13.2908 O   0  0  0  0  0  0  0  0  0  0  0  0
   22.6104   -3.9403  -15.4191 O   0  0  0  0  0  0  0  0  0  0  0  0
  2  3  1  0
  2  1  1  0
  3  4  1  0
  5  4  1  0
  5  6  1  1
  7  5  1  0
  7  9  1  0
  8  7  2  0
  9 10  1  0
 10 11  1  1
 11 12  1  0
 12 13  1  0
 13 17  1  0
 13 14  2  0
 15 16  2  0
 15 10  1  0
 18 19  1  0
 20 19  1  0
 20 21  1  0
 22 21  1  6
 22 23  1  0
 22 24  1  0
 23 15  1  0
 24 25  1  0
 26 24  2  0
M  END
$$$$
