MEM.pdb
     RDKit          3D

 26 25  0  0  1  0  0  0  0  0999 V2000
   17.5571  -16.4381  -15.5560 C   0  0  0  0  0  0  0  0  0  0  0  0
   18.2532  -14.9054  -14.9442 S   0  0  0  0  0  0  0  0  0  0  0  0
   18.1865  -13.5352  -16.0707 C   0  0  0  0  0  0  0  0  0  0  0  0
   18.7653  -12.2794  -15.5099 C   0  0  0  0  0  0  0  0  0  0  0  0
   18.6439  -11.1394  -16.4644 C   0  0  2  0  0  0  0  0  0  0  0  0
   19.1264  -11.5798  -17.7616 N   0  0  0  0  0  0  0  0  0  0  0  0
   19.4977   -9.9894  -15.9936 C   0  0  0  0  0  0  0  0  0  0  0  0
   19.3026   -9.5104  -14.8546 O   0  0  0  0  0  0  0  0  0  0  0  0
   20.4801   -9.4930  -16.8411 N   0  0  0  0  0  0  0  0  0  0  0  0
   21.3803   -8.4236  -16.3456 C   0  0  1  0  0  0  0  0  0  0  0  0
   22.7061   -8.6986  -16.9641 C   0  0  0  0  0  0  0  0  0  0  0  0
   23.7866   -7.7081  -16.7707 C   0  0  0  0  0  0  0  0  0  0  0  0
   25.0305   -8.2541  -17.4319 C   0  0  0  0  0  0  0  0  0  0  0  0
   25.0180   -9.3844  -17.9687 O   0  0  0  0  0  0  0  0  0  0  0  0
   20.7227   -7.1706  -16.7458 C   0  0  0  0  0  0  0  0  0  0  0  0
   20.2585   -6.9453  -17.9012 O   0  0  0  0  0  0  0  0  0  0  0  0
   26.2148   -7.5377  -17.4699 O   0  0  0  0  0  0  0  0  0  0  0  0
   16.1760   -7.5786  -16.6251 C   0  0  0  0  0  0  0  0  0  0  0  0
   16.1568   -5.8074  -16.9082 S   0  0  0  0  0  0  0  0  0  0  0  0
   17.7949   -5.1479  -17.2779 C   0  0  0  0  0  0  0  0  0  0  0  0
   18.5510   -4.9118  -16.0014 C   0  0  0  0  0  0  0  0  0  0  0  0
   20.0626   -4.8318  -16.2442 C   0  0  2  0  0  0  0  0  0  0  0  0
   20.5802   -6.1316  -15.8002 N   0  0  0  0  0  0  0  0  0  0  0  0
   20.6984   -3.7307  -15.5078 C   0  0  0  0  0  0  0  0  0  0  0  0
   20.7666   -2.4779  -16.0944 O   0  0  0  0  0  0  0  0  0  0  0  0
   21.1877   -3.8696  -14.3627 O   0  0  0  0  0  0  0  0  0  0  0  0
  2  3  1  0
  2  1  1  0
  3  4  1  0
  5  4  1  0
  5  6  1  6
  7  5  1  0
  7  9  1  0
  8  7  2  0
  9 10  1  0
 10 11  1  6
 11 12  1  0
 12 13  1  0
 13 17  1  0
 13 14  2  0
 15 16  2  0
 15 10  1  0
 18 19  1  0
 20 19  1  0
 20 21  1  0
 22 21  1  1
 22 23  1  0
 22 24  1  0
 23 15  1  0
 24 25  1  0
 26 24  2  0
M  END
$$$$
