MEM.pdb
     RDKit          3D

 26 25  0  0  1  0  0  0  0  0999 V2000
   26.5799  -18.1174   -7.6295 C   0  0  0  0  0  0  0  0  0  0  0  0
   27.3969  -19.7039   -7.4758 S   0  0  0  0  0  0  0  0  0  0  0  0
   26.8235  -20.9666   -8.5839 C   0  0  0  0  0  0  0  0  0  0  0  0
   25.7393  -20.5034   -9.4985 C   0  0  0  0  0  0  0  0  0  0  0  0
   25.3161  -21.5771  -10.4437 C   0  0  2  0  0  0  0  0  0  0  0  0
   26.4638  -21.9482  -11.2529 N   0  0  0  0  0  0  0  0  0  0  0  0
   24.2303  -21.0564  -11.3510 C   0  0  0  0  0  0  0  0  0  0  0  0
   24.4690  -20.9167  -12.5710 O   0  0  0  0  0  0  0  0  0  0  0  0
   22.9916  -20.7459  -10.8044 N   0  0  0  0  0  0  0  0  0  0  0  0
   21.8137  -20.6601  -11.7015 C   0  0  1  0  0  0  0  0  0  0  0  0
   20.6252  -20.7171  -10.8072 C   0  0  0  0  0  0  0  0  0  0  0  0
   20.2774  -22.0142  -10.1886 C   0  0  0  0  0  0  0  0  0  0  0  0
   19.5379  -22.8300  -11.2231 C   0  0  0  0  0  0  0  0  0  0  0  0
   19.3082  -22.3551  -12.3579 O   0  0  0  0  0  0  0  0  0  0  0  0
   22.0071  -19.4080  -12.4482 C   0  0  0  0  0  0  0  0  0  0  0  0
   22.8809  -18.5370  -12.1675 O   0  0  0  0  0  0  0  0  0  0  0  0
   19.0921  -24.1145  -10.9618 O   0  0  0  0  0  0  0  0  0  0  0  0
   26.4518  -19.2104  -17.2088 C   0  0  0  0  0  0  0  0  0  0  0  0
   24.9097  -20.0651  -16.8787 S   0  0  0  0  0  0  0  0  0  0  0  0
   23.5771  -18.9372  -16.4236 C   0  0  0  0  0  0  0  0  0  0  0  0
   22.9167  -19.4096  -15.1596 C   0  0  0  0  0  0  0  0  0  0  0  0
   21.7697  -18.4837  -14.7387 C   0  0  2  0  0  0  0  0  0  0  0  0
   21.1818  -19.1314  -13.5601 N   0  0  0  0  0  0  0  0  0  0  0  0
   20.7673  -18.3041  -15.7978 C   0  0  0  0  0  0  0  0  0  0  0  0
   20.8028  -17.1565  -16.5725 O   0  0  0  0  0  0  0  0  0  0  0  0
   19.8714  -19.1466  -16.0382 O   0  0  0  0  0  0  0  0  0  0  0  0
  2  3  1  0
  2  1  1  0
  3  4  1  0
  5  4  1  0
  5  6  1  6
  7  5  1  0
  7  9  1  0
  8  7  2  0
  9 10  1  0
 10 11  1  1
 11 12  1  0
 12 13  1  0
 13 17  1  0
 13 14  2  0
 15 16  2  0
 15 10  1  0
 18 19  1  0
 20 19  1  0
 20 21  1  0
 22 21  1  6
 22 23  1  0
 22 24  1  0
 23 15  1  0
 24 25  1  0
 26 24  2  0
M  END
$$$$
