MEM.pdb
     RDKit          3D

 26 25  0  0  1  0  0  0  0  0999 V2000
   28.2626  -18.4814   -5.4379 C   0  0  0  0  0  0  0  0  0  0  0  0
   28.1486  -20.1997   -5.9303 S   0  0  0  0  0  0  0  0  0  0  0  0
   28.4884  -20.5259   -7.6418 C   0  0  0  0  0  0  0  0  0  0  0  0
   27.4939  -19.9123   -8.5698 C   0  0  0  0  0  0  0  0  0  0  0  0
   26.5727  -20.9333   -9.1479 C   0  0  2  0  0  0  0  0  0  0  0  0
   27.3643  -22.0817   -9.5532 N   0  0  0  0  0  0  0  0  0  0  0  0
   25.8831  -20.3659  -10.3626 C   0  0  0  0  0  0  0  0  0  0  0  0
   25.2157  -19.3138  -10.2500 O   0  0  0  0  0  0  0  0  0  0  0  0
   26.0090  -21.0298  -11.5763 N   0  0  0  0  0  0  0  0  0  0  0  0
   25.3945  -20.4326  -12.7868 C   0  0  1  0  0  0  0  0  0  0  0  0
   26.1867  -20.9521  -13.9350 C   0  0  0  0  0  0  0  0  0  0  0  0
   25.7530  -20.5939  -15.3024 C   0  0  0  0  0  0  0  0  0  0  0  0
   26.7723  -21.1545  -16.2664 C   0  0  0  0  0  0  0  0  0  0  0  0
   26.5955  -22.2755  -16.7937 O   0  0  0  0  0  0  0  0  0  0  0  0
   23.9844  -20.8459  -12.7287 C   0  0  0  0  0  0  0  0  0  0  0  0
   23.5798  -21.9357  -12.2292 O   0  0  0  0  0  0  0  0  0  0  0  0
   27.9240  -20.4619  -16.5998 O   0  0  0  0  0  0  0  0  0  0  0  0
   19.7203  -16.2208  -12.6729 C   0  0  0  0  0  0  0  0  0  0  0  0
   18.5526  -17.5820  -12.7096 S   0  0  0  0  0  0  0  0  0  0  0  0
   19.3666  -19.1898  -12.7967 C   0  0  0  0  0  0  0  0  0  0  0  0
   20.8445  -19.0045  -12.9932 C   0  0  0  0  0  0  0  0  0  0  0  0
   21.5783  -20.3480  -13.0758 C   0  0  2  0  0  0  0  0  0  0  0  0
   22.9908  -19.9903  -13.2530 N   0  0  0  0  0  0  0  0  0  0  0  0
   21.1030  -21.1874  -14.1841 C   0  0  0  0  0  0  0  0  0  0  0  0
   21.8138  -21.2009  -15.3728 O   0  0  0  0  0  0  0  0  0  0  0  0
   20.0751  -21.8998  -14.1072 O   0  0  0  0  0  0  0  0  0  0  0  0
  2  3  1  0
  2  1  1  0
  3  4  1  0
  5  4  1  0
  5  6  1  6
  7  5  1  0
  7  9  1  0
  8  7  2  0
  9 10  1  0
 10 11  1  6
 11 12  1  0
 12 13  1  0
 13 17  1  0
 13 14  2  0
 15 16  2  0
 15 10  1  0
 18 19  1  0
 20 19  1  0
 20 21  1  0
 22 21  1  6
 22 23  1  0
 22 24  1  0
 23 15  1  0
 24 25  1  0
 26 24  2  0
M  END
$$$$
