MEM.pdb
     RDKit          3D

 26 25  0  0  1  0  0  0  0  0999 V2000
   27.4532  -15.1950  -15.3998 C   0  0  0  0  0  0  0  0  0  0  0  0
   26.4619  -14.0932  -16.4055 S   0  0  0  0  0  0  0  0  0  0  0  0
   24.7524  -13.9708  -15.9431 C   0  0  0  0  0  0  0  0  0  0  0  0
   24.2328  -15.1961  -15.2684 C   0  0  0  0  0  0  0  0  0  0  0  0
   24.1312  -16.3469  -16.2122 C   0  0  2  0  0  0  0  0  0  0  0  0
   22.9999  -16.1135  -17.0928 N   0  0  0  0  0  0  0  0  0  0  0  0
   23.8903  -17.6186  -15.4389 C   0  0  0  0  0  0  0  0  0  0  0  0
   22.7361  -17.8755  -15.0306 O   0  0  0  0  0  0  0  0  0  0  0  0
   24.9606  -18.4715  -15.2013 N   0  0  0  0  0  0  0  0  0  0  0  0
   24.6924  -19.8199  -14.6449 C   0  0  1  0  0  0  0  0  0  0  0  0
   25.0574  -20.7776  -15.7245 C   0  0  0  0  0  0  0  0  0  0  0  0
   24.1981  -20.8366  -16.9264 C   0  0  0  0  0  0  0  0  0  0  0  0
   24.8076  -21.8424  -17.8747 C   0  0  0  0  0  0  0  0  0  0  0  0
   25.6668  -22.6562  -17.4679 O   0  0  0  0  0  0  0  0  0  0  0  0
   25.5015  -19.8824  -13.4185 C   0  0  0  0  0  0  0  0  0  0  0  0
   26.3317  -18.9954  -13.0649 O   0  0  0  0  0  0  0  0  0  0  0  0
   24.4459  -21.9035  -19.2098 O   0  0  0  0  0  0  0  0  0  0  0  0
   27.4343  -18.9984   -6.5588 C   0  0  0  0  0  0  0  0  0  0  0  0
   26.4513  -18.9196   -8.0573 S   0  0  0  0  0  0  0  0  0  0  0  0
   26.8301  -20.2595   -9.2045 C   0  0  0  0  0  0  0  0  0  0  0  0
   26.0850  -20.0554  -10.4930 C   0  0  0  0  0  0  0  0  0  0  0  0
   26.3529  -21.1896  -11.4889 C   0  0  2  0  0  0  0  0  0  0  0  0
   25.3634  -20.9908  -12.5546 N   0  0  0  0  0  0  0  0  0  0  0  0
   26.2162  -22.5212  -10.8830 C   0  0  0  0  0  0  0  0  0  0  0  0
   27.2752  -23.0452  -10.1602 O   0  0  0  0  0  0  0  0  0  0  0  0
   25.1779  -23.2147  -10.9886 O   0  0  0  0  0  0  0  0  0  0  0  0
  2  3  1  0
  2  1  1  0
  3  4  1  0
  5  4  1  0
  5  6  1  6
  7  5  1  0
  7  9  1  0
  8  7  2  0
  9 10  1  0
 10 11  1  6
 11 12  1  0
 12 13  1  0
 13 17  1  0
 13 14  2  0
 15 16  2  0
 15 10  1  0
 18 19  1  0
 20 19  1  0
 20 21  1  0
 22 21  1  1
 22 23  1  0
 22 24  1  0
 23 15  1  0
 24 25  1  0
 26 24  2  0
M  END
$$$$
