MEM.pdb
     RDKit          3D

 26 25  0  0  1  0  0  0  0  0999 V2000
   27.2704  -19.0261   -6.7906 C   0  0  0  0  0  0  0  0  0  0  0  0
   28.5930  -19.9366   -7.5841 S   0  0  0  0  0  0  0  0  0  0  0  0
   28.1256  -20.8536   -9.0305 C   0  0  0  0  0  0  0  0  0  0  0  0
   26.8503  -20.3809   -9.6442 C   0  0  0  0  0  0  0  0  0  0  0  0
   26.4784  -21.1905  -10.8407 C   0  0  2  0  0  0  0  0  0  0  0  0
   27.6494  -21.3074  -11.6919 N   0  0  0  0  0  0  0  0  0  0  0  0
   25.3873  -20.4894  -11.6095 C   0  0  0  0  0  0  0  0  0  0  0  0
   25.4305  -19.2453  -11.7336 O   0  0  0  0  0  0  0  0  0  0  0  0
   24.3618  -21.2475  -12.1601 N   0  0  0  0  0  0  0  0  0  0  0  0
   23.3644  -20.5789  -13.0307 C   0  0  1  0  0  0  0  0  0  0  0  0
   24.0162  -20.4553  -14.3633 C   0  0  0  0  0  0  0  0  0  0  0  0
   23.3097  -19.6992  -15.4195 C   0  0  0  0  0  0  0  0  0  0  0  0
   24.1693  -19.7375  -16.6613 C   0  0  0  0  0  0  0  0  0  0  0  0
   25.2855  -20.3029  -16.6415 O   0  0  0  0  0  0  0  0  0  0  0  0
   22.1765  -21.4432  -12.9648 C   0  0  0  0  0  0  0  0  0  0  0  0
   22.2152  -22.7063  -12.9014 O   0  0  0  0  0  0  0  0  0  0  0  0
   23.7635  -19.1583  -17.8517 O   0  0  0  0  0  0  0  0  0  0  0  0
   17.6327  -24.4285   -8.3926 C   0  0  0  0  0  0  0  0  0  0  0  0
   18.9924  -23.4538   -9.0400 S   0  0  0  0  0  0  0  0  0  0  0  0
   18.7334  -22.9584  -10.7554 C   0  0  0  0  0  0  0  0  0  0  0  0
   19.9066  -22.1536  -11.2378 C   0  0  0  0  0  0  0  0  0  0  0  0
   19.7236  -21.6990  -12.6904 C   0  0  2  0  0  0  0  0  0  0  0  0
   20.8926  -20.8553  -12.9665 N   0  0  0  0  0  0  0  0  0  0  0  0
   18.4741  -20.9548  -12.8993 C   0  0  0  0  0  0  0  0  0  0  0  0
   17.3014  -21.6560  -13.1265 O   0  0  0  0  0  0  0  0  0  0  0  0
   18.4152  -19.7032  -12.8821 O   0  0  0  0  0  0  0  0  0  0  0  0
  2  3  1  0
  2  1  1  0
  3  4  1  0
  5  4  1  0
  5  6  1  6
  7  5  1  0
  7  9  1  0
  8  7  2  0
  9 10  1  0
 10 11  1  6
 11 12  1  0
 12 13  1  0
 13 17  1  0
 13 14  2  0
 15 16  2  0
 15 10  1  0
 18 19  1  0
 20 19  1  0
 20 21  1  0
 22 21  1  1
 22 23  1  0
 22 24  1  0
 23 15  1  0
 24 25  1  0
 26 24  2  0
M  END
$$$$
