MEM.pdb
     RDKit          3D

 26 25  0  0  1  0  0  0  0  0999 V2000
   19.3761  -23.5886   -8.3190 C   0  0  0  0  0  0  0  0  0  0  0  0
   18.8394  -25.2180   -8.8338 S   0  0  0  0  0  0  0  0  0  0  0  0
   18.3615  -25.3598  -10.5375 C   0  0  0  0  0  0  0  0  0  0  0  0
   19.1294  -24.4574  -11.4444 C   0  0  0  0  0  0  0  0  0  0  0  0
   18.8137  -24.7156  -12.8794 C   0  0  2  0  0  0  0  0  0  0  0  0
   19.3533  -26.0160  -13.2363 N   0  0  0  0  0  0  0  0  0  0  0  0
   19.4681  -23.6653  -13.7406 C   0  0  0  0  0  0  0  0  0  0  0  0
   20.5503  -23.9299  -14.3097 O   0  0  0  0  0  0  0  0  0  0  0  0
   18.8485  -22.4297  -13.8782 N   0  0  0  0  0  0  0  0  0  0  0  0
   19.4194  -21.4436  -14.8276 C   0  0  1  0  0  0  0  0  0  0  0  0
   18.2700  -20.6130  -15.2803 C   0  0  0  0  0  0  0  0  0  0  0  0
   18.5460  -19.4605  -16.1644 C   0  0  0  0  0  0  0  0  0  0  0  0
   17.2288  -18.7776  -16.4493 C   0  0  0  0  0  0  0  0  0  0  0  0
   16.8791  -18.5430  -17.6276 O   0  0  0  0  0  0  0  0  0  0  0  0
   20.4616  -20.7484  -14.0575 C   0  0  0  0  0  0  0  0  0  0  0  0
   20.7630  -21.0178  -12.8586 O   0  0  0  0  0  0  0  0  0  0  0  0
   16.3697  -18.3904  -15.4348 O   0  0  0  0  0  0  0  0  0  0  0  0
   26.4534  -22.4183  -11.6175 C   0  0  0  0  0  0  0  0  0  0  0  0
   24.7090  -22.1892  -11.9673 S   0  0  0  0  0  0  0  0  0  0  0  0
   24.4073  -20.8431  -13.1300 C   0  0  0  0  0  0  0  0  0  0  0  0
   22.9407  -20.7583  -13.4446 C   0  0  0  0  0  0  0  0  0  0  0  0
   22.6264  -19.5763  -14.3689 C   0  0  2  0  0  0  0  0  0  0  0  0
   21.1959  -19.7088  -14.6693 N   0  0  0  0  0  0  0  0  0  0  0  0
   23.4281  -19.5896  -15.6001 C   0  0  0  0  0  0  0  0  0  0  0  0
   22.9829  -20.3239  -16.6869 O   0  0  0  0  0  0  0  0  0  0  0  0
   24.5067  -18.9628  -15.7179 O   0  0  0  0  0  0  0  0  0  0  0  0
  2  3  1  0
  2  1  1  0
  3  4  1  0
  5  4  1  0
  5  6  1  6
  7  5  1  0
  7  9  1  0
  8  7  2  0
  9 10  1  0
 10 11  1  1
 11 12  1  0
 12 13  1  0
 13 17  1  0
 13 14  2  0
 15 16  2  0
 15 10  1  0
 18 19  1  0
 20 19  1  0
 20 21  1  0
 22 21  1  1
 22 23  1  0
 22 24  1  0
 23 15  1  0
 24 25  1  0
 26 24  2  0
M  END
$$$$
