TGK.pdb
     RDKit          3D

 21 20  0  0  1  0  0  0  0  0999 V2000
   26.2959  -22.8997  -17.7801 C   0  0  0  0  0  0  0  0  0  0  0  0
   25.3650  -22.5218  -16.6582 C   0  0  1  0  0  0  0  0  0  0  0  0
   25.6013  -23.4355  -15.6151 O   0  0  0  0  0  0  0  0  0  0  0  0
   25.7216  -21.1558  -16.1103 C   0  0  2  0  0  0  0  0  0  0  0  0
   27.1355  -21.1523  -15.8305 N   0  0  0  0  0  0  0  0  0  0  0  0
   24.9706  -20.8089  -14.9095 C   0  0  0  0  0  0  0  0  0  0  0  0
   25.5217  -20.4931  -13.8189 O   0  0  0  0  0  0  0  0  0  0  0  0
   23.5460  -20.8158  -14.9299 N   0  0  0  0  0  0  0  0  0  0  0  0
   22.7573  -20.4905  -13.7667 C   0  0  0  0  0  0  0  0  0  0  0  0
   21.7797  -21.5804  -13.5258 C   0  0  0  0  0  0  0  0  0  0  0  0
   21.6931  -22.5276  -14.3867 O   0  0  0  0  0  0  0  0  0  0  0  0
   20.9476  -21.6021  -12.3813 N   0  0  0  0  0  0  0  0  0  0  0  0
   20.0518  -22.7402  -12.2078 C   0  0  1  0  0  0  0  0  0  0  0  0
   19.7762  -22.9642  -10.7438 C   0  0  0  0  0  0  0  0  0  0  0  0
   18.8704  -24.1289  -10.5507 C   0  0  0  0  0  0  0  0  0  0  0  0
   18.4889  -24.3193   -9.0853 C   0  0  0  0  0  0  0  0  0  0  0  0
   17.6022  -25.5288   -8.9056 C   0  0  0  0  0  0  0  0  0  0  0  0
   17.2276  -25.7265   -7.5368 N   0  0  0  0  0  0  0  0  0  0  0  0
   18.7826  -22.4633  -12.9126 C   0  0  0  0  0  0  0  0  0  0  0  0
   18.4221  -21.2373  -12.9959 O   0  0  0  0  0  0  0  0  0  0  0  0
   17.9575  -23.3997  -13.4890 O   0  0  0  0  0  0  0  0  0  0  0  0
  2  1  1  6
  2  3  1  0
  4  2  1  0
  4  5  1  1
  6  7  2  0
  6  4  1  0
  8  6  1  0
  9  8  1  0
  9 10  1  0
 10 11  2  0
 12 10  1  0
 12 13  1  0
 13 14  1  1
 14 15  1  0
 15 16  1  0
 16 17  1  0
 17 18  1  0
 19 13  1  0
 19 21  1  0
 20 19  2  0
M  END
$$$$
