TGK.pdb
     RDKit          3D

 21 20  0  0  1  0  0  0  0  0999 V2000
   28.7531  -19.6814  -18.9714 C   0  0  0  0  0  0  0  0  0  0  0  0
   28.5642  -18.4863  -18.0748 C   0  0  1  0  0  0  0  0  0  0  0  0
   28.2149  -17.4091  -18.9093 O   0  0  0  0  0  0  0  0  0  0  0  0
   27.3862  -18.6998  -17.1474 C   0  0  2  0  0  0  0  0  0  0  0  0
   26.9575  -17.4056  -16.6800 N   0  0  0  0  0  0  0  0  0  0  0  0
   27.7003  -19.5642  -16.0159 C   0  0  0  0  0  0  0  0  0  0  0  0
   28.0757  -20.7620  -16.1466 O   0  0  0  0  0  0  0  0  0  0  0  0
   27.5898  -19.0685  -14.6847 N   0  0  0  0  0  0  0  0  0  0  0  0
   27.8203  -19.9024  -13.5304 C   0  0  0  0  0  0  0  0  0  0  0  0
   26.5305  -20.4941  -13.0967 C   0  0  0  0  0  0  0  0  0  0  0  0
   25.9019  -21.2591  -13.9124 O   0  0  0  0  0  0  0  0  0  0  0  0
   25.9806  -20.2387  -11.8179 N   0  0  0  0  0  0  0  0  0  0  0  0
   24.7100  -20.8708  -11.4807 C   0  0  1  0  0  0  0  0  0  0  0  0
   24.4738  -20.7986   -9.9946 C   0  0  0  0  0  0  0  0  0  0  0  0
   23.1525  -21.3854   -9.6423 C   0  0  0  0  0  0  0  0  0  0  0  0
   22.8605  -21.2802   -8.1481 C   0  0  0  0  0  0  0  0  0  0  0  0
   21.5187  -21.8863   -7.8108 C   0  0  0  0  0  0  0  0  0  0  0  0
   21.1617  -21.6805   -6.4384 N   0  0  0  0  0  0  0  0  0  0  0  0
   23.6208  -20.1660  -12.1887 C   0  0  0  0  0  0  0  0  0  0  0  0
   23.7786  -18.9114  -12.3912 O   0  0  0  0  0  0  0  0  0  0  0  0
   22.4579  -20.7342  -12.6520 O   0  0  0  0  0  0  0  0  0  0  0  0
  2  1  1  6
  2  3  1  0
  4  2  1  0
  4  5  1  1
  6  7  2  0
  6  4  1  0
  8  6  1  0
  9  8  1  0
  9 10  1  0
 10 11  2  0
 12 10  1  0
 12 13  1  0
 13 14  1  1
 14 15  1  0
 15 16  1  0
 16 17  1  0
 17 18  1  0
 19 13  1  0
 19 21  1  0
 20 19  2  0
M  END
$$$$
