TGK.pdb
     RDKit          3D

 21 20  0  0  1  0  0  0  0  0999 V2000
   30.9378  -26.3114  -17.5418 C   0  0  0  0  0  0  0  0  0  0  0  0
   30.3860  -25.5409  -18.7122 C   0  0  1  0  0  0  0  0  0  0  0  0
   30.1356  -26.4799  -19.7292 O   0  0  0  0  0  0  0  0  0  0  0  0
   29.0445  -24.9321  -18.3615 C   0  0  2  0  0  0  0  0  0  0  0  0
   28.5635  -24.2331  -19.5266 N   0  0  0  0  0  0  0  0  0  0  0  0
   29.1102  -24.0243  -17.2223 C   0  0  0  0  0  0  0  0  0  0  0  0
   29.4383  -24.3969  -16.0619 O   0  0  0  0  0  0  0  0  0  0  0  0
   28.7963  -22.6445  -17.3880 N   0  0  0  0  0  0  0  0  0  0  0  0
   28.9096  -21.6936  -16.3092 C   0  0  0  0  0  0  0  0  0  0  0  0
   27.6288  -21.6572  -15.5610 C   0  0  0  0  0  0  0  0  0  0  0  0
   26.6516  -22.3733  -15.9831 O   0  0  0  0  0  0  0  0  0  0  0  0
   27.4585  -20.8600  -14.4041 N   0  0  0  0  0  0  0  0  0  0  0  0
   26.1713  -20.9130  -13.7199 C   0  0  1  0  0  0  0  0  0  0  0  0
   26.2646  -20.2187  -12.3862 C   0  0  0  0  0  0  0  0  0  0  0  0
   24.9454  -20.2214  -11.6977 C   0  0  0  0  0  0  0  0  0  0  0  0
   25.0309  -20.8303  -10.3010 C   0  0  0  0  0  0  0  0  0  0  0  0
   23.6652  -20.9245   -9.6628 C   0  0  0  0  0  0  0  0  0  0  0  0
   23.7204  -21.4908   -8.3477 N   0  0  0  0  0  0  0  0  0  0  0  0
   25.1553  -20.2408  -14.5566 C   0  0  0  0  0  0  0  0  0  0  0  0
   25.5669  -19.3041  -15.3267 O   0  0  0  0  0  0  0  0  0  0  0  0
   23.8119  -20.5316  -14.5862 O   0  0  0  0  0  0  0  0  0  0  0  0
  2  1  1  1
  2  3  1  0
  4  2  1  0
  4  5  1  6
  6  7  2  0
  6  4  1  0
  8  6  1  0
  9  8  1  0
  9 10  1  0
 10 11  2  0
 12 10  1  0
 12 13  1  0
 13 14  1  1
 14 15  1  0
 15 16  1  0
 16 17  1  0
 17 18  1  0
 19 13  1  0
 19 21  1  0
 20 19  2  0
M  END
$$$$
