TGK.pdb
     RDKit          3D

 21 20  0  0  1  0  0  0  0  0999 V2000
   14.8366  -14.2731  -17.8146 C   0  0  0  0  0  0  0  0  0  0  0  0
   14.7624  -13.8169  -16.3814 C   0  0  1  0  0  0  0  0  0  0  0  0
   14.1556  -14.8601  -15.6586 O   0  0  0  0  0  0  0  0  0  0  0  0
   16.1527  -13.6568  -15.8029 C   0  0  2  0  0  0  0  0  0  0  0  0
   16.0099  -13.2848  -14.4178 N   0  0  0  0  0  0  0  0  0  0  0  0
   16.9540  -12.6647  -16.5098 C   0  0  0  0  0  0  0  0  0  0  0  0
   17.3406  -12.8131  -17.7020 O   0  0  0  0  0  0  0  0  0  0  0  0
   17.3382  -11.4582  -15.8565 N   0  0  0  0  0  0  0  0  0  0  0  0
   18.1837  -10.4752  -16.4887 C   0  0  0  0  0  0  0  0  0  0  0  0
   19.3958  -10.2741  -15.6568 C   0  0  0  0  0  0  0  0  0  0  0  0
   19.3632  -10.6396  -14.4275 O   0  0  0  0  0  0  0  0  0  0  0  0
   20.5764   -9.6946  -16.1794 N   0  0  0  0  0  0  0  0  0  0  0  0
   21.7487   -9.6307  -15.3137 C   0  0  1  0  0  0  0  0  0  0  0  0
   22.9921   -9.9532  -16.1007 C   0  0  0  0  0  0  0  0  0  0  0  0
   24.1898   -9.9506  -15.2175 C   0  0  0  0  0  0  0  0  0  0  0  0
   25.4677  -10.2732  -15.9868 C   0  0  0  0  0  0  0  0  0  0  0  0
   26.6470  -10.4080  -15.0526 C   0  0  0  0  0  0  0  0  0  0  0  0
   27.8326  -10.8329  -15.7358 N   0  0  0  0  0  0  0  0  0  0  0  0
   21.8580   -8.2672  -14.7542 C   0  0  0  0  0  0  0  0  0  0  0  0
   21.5257   -7.2978  -15.5222 O   0  0  0  0  0  0  0  0  0  0  0  0
   22.2794   -7.9457  -13.4857 O   0  0  0  0  0  0  0  0  0  0  0  0
  2  1  1  6
  2  3  1  0
  4  2  1  0
  4  5  1  1
  6  7  2  0
  6  4  1  0
  8  6  1  0
  9  8  1  0
  9 10  1  0
 10 11  2  0
 12 10  1  0
 12 13  1  0
 13 14  1  6
 14 15  1  0
 15 16  1  0
 16 17  1  0
 17 18  1  0
 19 13  1  0
 19 21  1  0
 20 19  2  0
M  END
$$$$
