TGK.pdb
     RDKit          3D

 21 20  0  0  1  0  0  0  0  0999 V2000
   23.9590  -13.0412  -22.9010 C   0  0  0  0  0  0  0  0  0  0  0  0
   24.2267  -12.4117  -21.5594 C   0  0  1  0  0  0  0  0  0  0  0  0
   25.0534  -11.2983  -21.7959 O   0  0  0  0  0  0  0  0  0  0  0  0
   22.9456  -11.8662  -20.9641 C   0  0  2  0  0  0  0  0  0  0  0  0
   22.4397  -10.8594  -21.8629 N   0  0  0  0  0  0  0  0  0  0  0  0
   23.1299  -11.3037  -19.6316 C   0  0  0  0  0  0  0  0  0  0  0  0
   23.5018  -11.9890  -18.6392 O   0  0  0  0  0  0  0  0  0  0  0  0
   22.8885   -9.9186  -19.4002 N   0  0  0  0  0  0  0  0  0  0  0  0
   23.2042   -9.2807  -18.1455 C   0  0  0  0  0  0  0  0  0  0  0  0
   21.9525   -8.7666  -17.5367 C   0  0  0  0  0  0  0  0  0  0  0  0
   21.0531   -8.2742  -18.3076 O   0  0  0  0  0  0  0  0  0  0  0  0
   21.7270   -8.8050  -16.1401 N   0  0  0  0  0  0  0  0  0  0  0  0
   20.4678   -8.2690  -15.6351 C   0  0  1  0  0  0  0  0  0  0  0  0
   19.6713   -9.3594  -14.9673 C   0  0  0  0  0  0  0  0  0  0  0  0
   19.1243  -10.3058  -15.9771 C   0  0  0  0  0  0  0  0  0  0  0  0
   18.2791  -11.4018  -15.3342 C   0  0  0  0  0  0  0  0  0  0  0  0
   17.7392  -12.3546  -16.3745 C   0  0  0  0  0  0  0  0  0  0  0  0
   17.1262  -13.5081  -15.7855 N   0  0  0  0  0  0  0  0  0  0  0  0
   20.7595   -7.2005  -14.6566 C   0  0  0  0  0  0  0  0  0  0  0  0
   21.9558   -7.1412  -14.2033 O   0  0  0  0  0  0  0  0  0  0  0  0
   19.8664   -6.2639  -14.1927 O   0  0  0  0  0  0  0  0  0  0  0  0
  2  1  1  6
  2  3  1  0
  4  2  1  0
  4  5  1  6
  6  7  2  0
  6  4  1  0
  8  6  1  0
  9  8  1  0
  9 10  1  0
 10 11  2  0
 12 10  1  0
 12 13  1  0
 13 14  1  1
 14 15  1  0
 15 16  1  0
 16 17  1  0
 17 18  1  0
 19 13  1  0
 19 21  1  0
 20 19  2  0
M  END
$$$$
