TGK.pdb
     RDKit          3D

 21 20  0  0  1  0  0  0  0  0999 V2000
   15.5142  -14.4970  -17.5142 C   0  0  0  0  0  0  0  0  0  0  0  0
   16.1931  -14.4767  -16.1701 C   0  0  1  0  0  0  0  0  0  0  0  0
   15.8079  -15.6564  -15.5076 O   0  0  0  0  0  0  0  0  0  0  0  0
   17.6964  -14.5572  -16.3337 C   0  0  2  0  0  0  0  0  0  0  0  0
   18.2703  -14.7312  -15.0231 N   0  0  0  0  0  0  0  0  0  0  0  0
   18.2640  -13.3790  -16.9786 C   0  0  0  0  0  0  0  0  0  0  0  0
   18.0079  -13.0551  -18.1712 O   0  0  0  0  0  0  0  0  0  0  0  0
   19.1539  -12.5292  -16.2602 N   0  0  0  0  0  0  0  0  0  0  0  0
   19.8221  -11.4119  -16.8816 C   0  0  0  0  0  0  0  0  0  0  0  0
   20.5743  -10.6620  -15.8454 C   0  0  0  0  0  0  0  0  0  0  0  0
   20.3357  -10.9157  -14.6107 O   0  0  0  0  0  0  0  0  0  0  0  0
   21.5394   -9.6828  -16.1808 N   0  0  0  0  0  0  0  0  0  0  0  0
   22.3668   -9.1419  -15.1081 C   0  0  1  0  0  0  0  0  0  0  0  0
   23.8008   -9.0435  -15.5594 C   0  0  0  0  0  0  0  0  0  0  0  0
   24.4537  -10.3804  -15.5341 C   0  0  0  0  0  0  0  0  0  0  0  0
   25.8951  -10.3220  -16.0319 C   0  0  0  0  0  0  0  0  0  0  0  0
   26.5744  -11.6640  -15.8936 C   0  0  0  0  0  0  0  0  0  0  0  0
   27.9607  -11.6081  -16.2516 N   0  0  0  0  0  0  0  0  0  0  0  0
   21.8686   -7.7975  -14.7496 C   0  0  0  0  0  0  0  0  0  0  0  0
   21.2939   -7.1266  -15.6768 O   0  0  0  0  0  0  0  0  0  0  0  0
   21.9621   -7.2044  -13.5128 O   0  0  0  0  0  0  0  0  0  0  0  0
  2  1  1  6
  2  3  1  0
  4  2  1  0
  4  5  1  1
  6  7  2  0
  6  4  1  0
  8  6  1  0
  9  8  1  0
  9 10  1  0
 10 11  2  0
 12 10  1  0
 12 13  1  0
 13 14  1  6
 14 15  1  0
 15 16  1  0
 16 17  1  0
 17 18  1  0
 19 13  1  0
 19 21  1  0
 20 19  2  0
M  END
$$$$
