TGK.pdb
     RDKit          3D

 21 20  0  0  1  0  0  0  0  0999 V2000
   16.9258  -11.7856  -14.6352 C   0  0  0  0  0  0  0  0  0  0  0  0
   17.6145  -13.1200  -14.5217 C   0  0  1  0  0  0  0  0  0  0  0  0
   16.7131  -13.9835  -13.8732 O   0  0  0  0  0  0  0  0  0  0  0  0
   17.8518  -13.7130  -15.8948 C   0  0  2  0  0  0  0  0  0  0  0  0
   18.2241  -15.0939  -15.7164 N   0  0  0  0  0  0  0  0  0  0  0  0
   18.8808  -13.0085  -16.6504 C   0  0  0  0  0  0  0  0  0  0  0  0
   19.9322  -13.5667  -17.0697 O   0  0  0  0  0  0  0  0  0  0  0  0
   18.7272  -11.6238  -16.9489 N   0  0  0  0  0  0  0  0  0  0  0  0
   19.6118  -10.9273  -17.8508 C   0  0  0  0  0  0  0  0  0  0  0  0
   20.7893  -10.4391  -17.0913 C   0  0  0  0  0  0  0  0  0  0  0  0
   20.7947  -10.5736  -15.8155 O   0  0  0  0  0  0  0  0  0  0  0  0
   21.8968   -9.8344  -17.7320 N   0  0  0  0  0  0  0  0  0  0  0  0
   23.0414   -9.4579  -16.9098 C   0  0  1  0  0  0  0  0  0  0  0  0
   24.2705   -9.3121  -17.7686 C   0  0  0  0  0  0  0  0  0  0  0  0
   25.4588   -8.9826  -16.9356 C   0  0  0  0  0  0  0  0  0  0  0  0
   26.7035   -8.7425  -17.7853 C   0  0  0  0  0  0  0  0  0  0  0  0
   27.9223   -8.5299  -16.9188 C   0  0  0  0  0  0  0  0  0  0  0  0
   29.1205   -8.3980  -17.6935 N   0  0  0  0  0  0  0  0  0  0  0  0
   22.7500   -8.1719  -16.2422 C   0  0  0  0  0  0  0  0  0  0  0  0
   22.0658   -7.3168  -16.9060 O   0  0  0  0  0  0  0  0  0  0  0  0
   23.1425   -7.8124  -14.9746 O   0  0  0  0  0  0  0  0  0  0  0  0
  2  1  1  6
  2  3  1  0
  4  2  1  0
  4  5  1  1
  6  7  2  0
  6  4  1  0
  8  6  1  0
  9  8  1  0
  9 10  1  0
 10 11  2  0
 12 10  1  0
 12 13  1  0
 13 14  1  6
 14 15  1  0
 15 16  1  0
 16 17  1  0
 17 18  1  0
 19 13  1  0
 19 21  1  0
 20 19  2  0
M  END
$$$$
