TGK.pdb
     RDKit          3D

 21 20  0  0  1  0  0  0  0  0999 V2000
   17.8824  -10.7732  -16.7947 C   0  0  0  0  0  0  0  0  0  0  0  0
   17.3775  -10.8266  -15.3769 C   0  0  1  0  0  0  0  0  0  0  0  0
   18.1143  -11.8325  -14.7256 O   0  0  0  0  0  0  0  0  0  0  0  0
   17.6949   -9.5356  -14.6518 C   0  0  2  0  0  0  0  0  0  0  0  0
   19.1293   -9.4214  -14.5696 N   0  0  0  0  0  0  0  0  0  0  0  0
   17.1084   -9.4712  -13.3183 C   0  0  0  0  0  0  0  0  0  0  0  0
   15.8634   -9.4824  -13.1115 O   0  0  0  0  0  0  0  0  0  0  0  0
   17.9485   -9.3910  -12.1704 N   0  0  0  0  0  0  0  0  0  0  0  0
   17.4235   -9.4276  -10.8273 C   0  0  0  0  0  0  0  0  0  0  0  0
   16.8284   -8.1071  -10.5052 C   0  0  0  0  0  0  0  0  0  0  0  0
   17.1062   -7.1086  -11.2613 O   0  0  0  0  0  0  0  0  0  0  0  0
   15.9700   -7.9220   -9.3954 N   0  0  0  0  0  0  0  0  0  0  0  0
   15.3860   -6.6004   -9.1948 C   0  0  1  0  0  0  0  0  0  0  0  0
   14.2262   -6.6865   -8.2373 C   0  0  0  0  0  0  0  0  0  0  0  0
   13.2251   -7.6805   -8.7109 C   0  0  0  0  0  0  0  0  0  0  0  0
   12.0767   -7.8513   -7.7205 C   0  0  0  0  0  0  0  0  0  0  0  0
   11.0384   -8.8120   -8.2501 C   0  0  0  0  0  0  0  0  0  0  0  0
   10.0007   -9.0673   -7.2956 N   0  0  0  0  0  0  0  0  0  0  0  0
   16.4180   -5.6991   -8.6407 C   0  0  0  0  0  0  0  0  0  0  0  0
   16.1119   -4.4595   -8.5423 O   0  0  0  0  0  0  0  0  0  0  0  0
   17.6727   -6.0703   -8.2186 O   0  0  0  0  0  0  0  0  0  0  0  0
  2  1  1  6
  2  3  1  0
  4  2  1  0
  4  5  1  1
  6  7  2  0
  6  4  1  0
  8  6  1  0
  9  8  1  0
  9 10  1  0
 10 11  2  0
 12 10  1  0
 12 13  1  0
 13 14  1  1
 14 15  1  0
 15 16  1  0
 16 17  1  0
 17 18  1  0
 19 13  1  0
 19 21  1  0
 20 19  2  0
M  END
$$$$
