TGK.pdb
     RDKit          3D

 21 20  0  0  1  0  0  0  0  0999 V2000
   17.6447   -5.9472  -18.3984 C   0  0  0  0  0  0  0  0  0  0  0  0
   18.1405   -6.8232  -17.2784 C   0  0  1  0  0  0  0  0  0  0  0  0
   19.3414   -7.4045  -17.7244 O   0  0  0  0  0  0  0  0  0  0  0  0
   18.5017   -5.9855  -16.0697 C   0  0  2  0  0  0  0  0  0  0  0  0
   19.3177   -6.7977  -15.2026 N   0  0  0  0  0  0  0  0  0  0  0  0
   17.3346   -5.4942  -15.3467 C   0  0  0  0  0  0  0  0  0  0  0  0
   16.5027   -4.6877  -15.8471 O   0  0  0  0  0  0  0  0  0  0  0  0
   17.0886   -5.9223  -14.0102 N   0  0  0  0  0  0  0  0  0  0  0  0
   15.9042   -5.5359  -13.2831 C   0  0  0  0  0  0  0  0  0  0  0  0
   15.5894   -6.5838  -12.2809 C   0  0  0  0  0  0  0  0  0  0  0  0
   16.4020   -7.5674  -12.1464 O   0  0  0  0  0  0  0  0  0  0  0  0
   14.4264   -6.5270  -11.4765 N   0  0  0  0  0  0  0  0  0  0  0  0
   14.2508   -7.5523  -10.4538 C   0  0  1  0  0  0  0  0  0  0  0  0
   13.2543   -7.0903   -9.4228 C   0  0  0  0  0  0  0  0  0  0  0  0
   13.7767   -5.9142   -8.6755 C   0  0  0  0  0  0  0  0  0  0  0  0
   12.7746   -5.4005   -7.6455 C   0  0  0  0  0  0  0  0  0  0  0  0
   13.3356   -4.2273   -6.8773 C   0  0  0  0  0  0  0  0  0  0  0  0
   12.4129   -3.7290   -5.9007 N   0  0  0  0  0  0  0  0  0  0  0  0
   13.7601   -8.7902  -11.0950 C   0  0  0  0  0  0  0  0  0  0  0  0
   13.1630   -8.6617  -12.2207 O   0  0  0  0  0  0  0  0  0  0  0  0
   13.8894  -10.0646  -10.5960 O   0  0  0  0  0  0  0  0  0  0  0  0
  2  1  1  6
  2  3  1  0
  4  2  1  0
  4  5  1  1
  6  7  2  0
  6  4  1  0
  8  6  1  0
  9  8  1  0
  9 10  1  0
 10 11  2  0
 12 10  1  0
 12 13  1  0
 13 14  1  1
 14 15  1  0
 15 16  1  0
 16 17  1  0
 17 18  1  0
 19 13  1  0
 19 21  1  0
 20 19  2  0
M  END
$$$$
