DYQ.pdb
     RDKit          3D

 30 30  0  0  1  0  0  0  0  0999 V2000
    9.2014  -18.3149   21.0996 N   0  0  0  0  0  0  0  0  0  0  0  0
   10.4296  -17.5645   21.2805 C   0  0  1  0  0  0  0  0  0  0  0  0
   10.8045  -17.0117   19.9181 C   0  0  0  0  0  0  0  0  0  0  0  0
   11.3486  -18.0815   19.0423 C   0  0  0  0  0  0  0  0  0  0  0  0
   11.3180  -19.3030   19.3763 O   0  0  0  0  0  0  0  0  0  0  0  0
   10.1487  -16.4742   22.2470 C   0  0  0  0  0  0  0  0  0  0  0  0
   11.0594  -15.7281   22.6877 O   0  0  0  0  0  0  0  0  0  0  0  0
   11.9199  -17.7999   17.8108 O   0  0  0  0  0  0  0  0  0  0  0  0
    7.9007  -12.6887   17.6968 O   0  0  0  0  0  0  0  0  0  0  0  0
    7.7409  -13.1130   19.0281 C   0  0  0  0  0  0  0  0  0  0  0  0
    7.0381  -14.2525   19.2982 C   0  0  0  0  0  0  0  0  0  0  0  0
    6.8927  -14.6534   20.6244 C   0  0  0  0  0  0  0  0  0  0  0  0
    7.4341  -13.9380   21.6647 C   0  0  0  0  0  0  0  0  0  0  0  0
    7.2562  -14.3990   23.0428 C   0  0  0  0  0  0  0  0  0  0  0  0
    8.4459  -15.1675   23.5840 C   0  0  2  0  0  0  0  0  0  0  0  0
    8.8104  -16.2546   22.6980 N   0  0  0  0  0  0  0  0  0  0  0  0
    8.2431  -15.6694   24.9627 C   0  0  0  0  0  0  0  0  0  0  0  0
    7.5218  -14.9947   25.7625 O   0  0  0  0  0  0  0  0  0  0  0  0
    8.1441  -12.7880   21.4015 C   0  0  0  0  0  0  0  0  0  0  0  0
    8.2800  -12.4002   20.0619 C   0  0  0  0  0  0  0  0  0  0  0  0
    7.2101  -20.8066   27.5973 N   0  0  0  0  0  0  0  0  0  0  0  0
    7.1026  -20.5968   26.1981 C   0  0  0  0  0  0  0  0  0  0  0  0
    6.9797  -21.6186   25.4469 O   0  0  0  0  0  0  0  0  0  0  0  0
    7.1316  -19.2223   25.6810 C   0  0  0  0  0  0  0  0  0  0  0  0
    7.2003  -18.1415   26.6730 C   0  0  0  0  0  0  0  0  0  0  0  0
    8.5121  -17.4157   26.8004 C   0  0  2  0  0  0  0  0  0  0  0  0
    8.7984  -16.8583   25.4586 N   0  0  0  0  0  0  0  0  0  0  0  0
    9.6267  -18.1101   27.3810 C   0  0  0  0  0  0  0  0  0  0  0  0
    9.6312  -18.5274   28.6982 O   0  0  0  0  0  0  0  0  0  0  0  0
   10.6566  -18.3606   26.7058 O   0  0  0  0  0  0  0  0  0  0  0  0
  2  1  1  6
  2  3  1  0
  3  4  1  0
  4  5  2  0
  6  2  1  0
  7  6  2  0
  8  4  1  0
  9 10  1  0
 10 20  2  0
 10 11  1  0
 11 12  2  0
 12 13  1  0
 13 14  1  0
 15 14  1  6
 15 16  1  0
 16  6  1  0
 17 15  1  0
 17 27  1  0
 18 17  2  0
 19 13  2  0
 20 19  1  0
 22 21  1  0
 23 22  2  0
 24 22  1  0
 25 24  1  0
 26 27  1  0
 26 25  1  6
 28 26  1  0
 29 28  1  0
 30 28  2  0
M  END
$$$$
