DYQ.pdb
     RDKit          3D

 30 30  0  0  1  0  0  0  0  0999 V2000
   10.1280  -16.7034   18.4513 N   0  0  0  0  0  0  0  0  0  0  0  0
    8.9918  -17.0191   19.2962 C   0  0  1  0  0  0  0  0  0  0  0  0
    8.9972  -18.5245   19.4852 C   0  0  0  0  0  0  0  0  0  0  0  0
    8.6215  -19.2192   18.2267 C   0  0  0  0  0  0  0  0  0  0  0  0
    7.4128  -19.3784   17.8827 O   0  0  0  0  0  0  0  0  0  0  0  0
    9.1847  -16.3121   20.5865 C   0  0  0  0  0  0  0  0  0  0  0  0
   10.2998  -16.2826   21.1659 O   0  0  0  0  0  0  0  0  0  0  0  0
    9.5750  -19.7311   17.3600 O   0  0  0  0  0  0  0  0  0  0  0  0
    6.8971  -11.9792   28.0010 O   0  0  0  0  0  0  0  0  0  0  0  0
    6.8946  -12.5507   26.7161 C   0  0  0  0  0  0  0  0  0  0  0  0
    7.4545  -11.8736   25.6704 C   0  0  0  0  0  0  0  0  0  0  0  0
    7.4405  -12.4593   24.4065 C   0  0  0  0  0  0  0  0  0  0  0  0
    6.8819  -13.6941   24.1825 C   0  0  0  0  0  0  0  0  0  0  0  0
    6.8917  -14.2704   22.8367 C   0  0  0  0  0  0  0  0  0  0  0  0
    8.1533  -15.0491   22.5192 C   0  0  2  0  0  0  0  0  0  0  0  0
    8.0809  -15.6419   21.1990 N   0  0  0  0  0  0  0  0  0  0  0  0
    8.4780  -16.0798   23.5322 C   0  0  0  0  0  0  0  0  0  0  0  0
    7.9671  -17.2377   23.4165 O   0  0  0  0  0  0  0  0  0  0  0  0
    6.3153  -14.3837   25.2310 C   0  0  0  0  0  0  0  0  0  0  0  0
    6.3385  -13.7792   26.4949 C   0  0  0  0  0  0  0  0  0  0  0  0
   12.6983  -19.0846   22.9238 N   0  0  0  0  0  0  0  0  0  0  0  0
   12.7042  -19.3744   24.3129 C   0  0  0  0  0  0  0  0  0  0  0  0
   13.5248  -20.2513   24.7383 O   0  0  0  0  0  0  0  0  0  0  0  0
   11.7761  -18.6529   25.1936 C   0  0  0  0  0  0  0  0  0  0  0  0
   10.9411  -17.6171   24.5717 C   0  0  0  0  0  0  0  0  0  0  0  0
    9.9161  -16.9506   25.4486 C   0  0  2  0  0  0  0  0  0  0  0  0
    9.3256  -15.8673   24.6296 N   0  0  0  0  0  0  0  0  0  0  0  0
   10.3098  -16.5248   26.7621 C   0  0  0  0  0  0  0  0  0  0  0  0
   10.4355  -17.4079   27.8173 O   0  0  0  0  0  0  0  0  0  0  0  0
   10.5502  -15.3156   27.0060 O   0  0  0  0  0  0  0  0  0  0  0  0
  2  1  1  6
  2  3  1  0
  3  4  1  0
  4  5  2  0
  6  2  1  0
  7  6  2  0
  8  4  1  0
  9 10  1  0
 10 20  2  0
 10 11  1  0
 11 12  2  0
 12 13  1  0
 13 14  1  0
 15 14  1  1
 15 16  1  0
 16  6  1  0
 17 15  1  0
 17 27  1  0
 18 17  2  0
 19 13  2  0
 20 19  1  0
 22 21  1  0
 23 22  2  0
 24 22  1  0
 25 24  1  0
 26 27  1  0
 26 25  1  6
 28 26  1  0
 29 28  1  0
 30 28  2  0
M  END
$$$$
