DYQ.pdb
     RDKit          3D

 30 30  0  0  1  0  0  0  0  0999 V2000
    9.7178  -17.3401   19.8569 N   0  0  0  0  0  0  0  0  0  0  0  0
   10.8872  -17.4535   20.7078 C   0  0  1  0  0  0  0  0  0  0  0  0
   12.0638  -16.9419   19.8979 C   0  0  0  0  0  0  0  0  0  0  0  0
   12.1907  -17.6852   18.6177 C   0  0  0  0  0  0  0  0  0  0  0  0
   11.1937  -18.2261   18.0537 O   0  0  0  0  0  0  0  0  0  0  0  0
   10.6503  -16.6121   21.9068 C   0  0  0  0  0  0  0  0  0  0  0  0
   11.5659  -16.3581   22.7298 O   0  0  0  0  0  0  0  0  0  0  0  0
   13.4087  -17.8268   17.9706 O   0  0  0  0  0  0  0  0  0  0  0  0
    6.2168  -11.4854   27.6519 O   0  0  0  0  0  0  0  0  0  0  0  0
    6.6074  -12.2255   26.5216 C   0  0  0  0  0  0  0  0  0  0  0  0
    6.0112  -13.4252   26.2559 C   0  0  0  0  0  0  0  0  0  0  0  0
    6.4142  -14.1408   25.1306 C   0  0  0  0  0  0  0  0  0  0  0  0
    7.3905  -13.6759   24.2834 C   0  0  0  0  0  0  0  0  0  0  0  0
    7.7804  -14.4625   23.1119 C   0  0  0  0  0  0  0  0  0  0  0  0
    9.0204  -15.3065   23.3329 C   0  0  2  0  0  0  0  0  0  0  0  0
    9.3501  -16.0686   22.1454 N   0  0  0  0  0  0  0  0  0  0  0  0
    8.9207  -16.2000   24.5101 C   0  0  0  0  0  0  0  0  0  0  0  0
    8.0636  -17.1382   24.4987 O   0  0  0  0  0  0  0  0  0  0  0  0
    7.9969  -12.4674   24.5437 C   0  0  0  0  0  0  0  0  0  0  0  0
    7.5788  -11.7616   25.6798 C   0  0  0  0  0  0  0  0  0  0  0  0
   12.5931  -21.1362   27.0334 N   0  0  0  0  0  0  0  0  0  0  0  0
   11.4495  -20.5818   26.4024 C   0  0  0  0  0  0  0  0  0  0  0  0
   11.0309  -21.1309   25.3316 O   0  0  0  0  0  0  0  0  0  0  0  0
   10.7997  -19.4124   27.0090 C   0  0  0  0  0  0  0  0  0  0  0  0
   10.4433  -18.3093   26.1072 C   0  0  0  0  0  0  0  0  0  0  0  0
    9.7913  -17.1043   26.7289 C   0  0  2  0  0  0  0  0  0  0  0  0
    9.7196  -16.0847   25.6574 N   0  0  0  0  0  0  0  0  0  0  0  0
   10.3200  -16.5992   27.9646 C   0  0  0  0  0  0  0  0  0  0  0  0
   10.3734  -17.3661   29.1127 O   0  0  0  0  0  0  0  0  0  0  0  0
   10.7525  -15.4224   28.0510 O   0  0  0  0  0  0  0  0  0  0  0  0
  2  1  1  6
  2  3  1  0
  3  4  1  0
  4  5  2  0
  6  2  1  0
  7  6  2  0
  8  4  1  0
  9 10  1  0
 10 20  2  0
 10 11  1  0
 11 12  2  0
 12 13  1  0
 13 14  1  0
 15 14  1  6
 15 16  1  0
 16  6  1  0
 17 15  1  0
 17 27  1  0
 18 17  2  0
 19 13  2  0
 20 19  1  0
 22 21  1  0
 23 22  2  0
 24 22  1  0
 25 24  1  0
 26 27  1  0
 26 25  1  6
 28 26  1  0
 29 28  1  0
 30 28  2  0
M  END
$$$$
