DYQ.pdb
     RDKit          3D

 30 30  0  0  1  0  0  0  0  0999 V2000
   11.1763  -16.9083   18.8968 N   0  0  0  0  0  0  0  0  0  0  0  0
   10.1243  -17.3528   19.7911 C   0  0  1  0  0  0  0  0  0  0  0  0
   10.4450  -18.7898   20.1575 C   0  0  0  0  0  0  0  0  0  0  0  0
   10.0316  -19.7189   19.0743 C   0  0  0  0  0  0  0  0  0  0  0  0
   10.8539  -20.1596   18.2174 O   0  0  0  0  0  0  0  0  0  0  0  0
   10.1514  -16.4722   20.9852 C   0  0  0  0  0  0  0  0  0  0  0  0
   11.2210  -15.9705   21.4146 O   0  0  0  0  0  0  0  0  0  0  0  0
    8.7218  -20.1543   18.9430 O   0  0  0  0  0  0  0  0  0  0  0  0
    6.6796  -11.7176   27.6739 O   0  0  0  0  0  0  0  0  0  0  0  0
    6.8869  -12.4360   26.4828 C   0  0  0  0  0  0  0  0  0  0  0  0
    6.3262  -13.6718   26.3286 C   0  0  0  0  0  0  0  0  0  0  0  0
    6.5451  -14.3650   25.1402 C   0  0  0  0  0  0  0  0  0  0  0  0
    7.3060  -13.8431   24.1225 C   0  0  0  0  0  0  0  0  0  0  0  0
    7.5075  -14.6082   22.8908 C   0  0  0  0  0  0  0  0  0  0  0  0
    8.8695  -15.2684   22.8024 C   0  0  2  0  0  0  0  0  0  0  0  0
    8.9354  -16.1777   21.6761 N   0  0  0  0  0  0  0  0  0  0  0  0
    9.2692  -15.9599   24.0498 C   0  0  0  0  0  0  0  0  0  0  0  0
    8.6335  -17.0012   24.4060 O   0  0  0  0  0  0  0  0  0  0  0  0
    7.8751  -12.5979   24.2696 C   0  0  0  0  0  0  0  0  0  0  0  0
    7.6442  -11.9154   25.4714 C   0  0  0  0  0  0  0  0  0  0  0  0
   10.7423  -13.9232   29.3360 N   0  0  0  0  0  0  0  0  0  0  0  0
   10.6872  -15.3242   29.5543 C   0  0  0  0  0  0  0  0  0  0  0  0
   11.2360  -15.7886   30.6063 O   0  0  0  0  0  0  0  0  0  0  0  0
   10.0008  -16.1707   28.5695 C   0  0  0  0  0  0  0  0  0  0  0  0
    9.8487  -15.6233   27.2152 C   0  0  0  0  0  0  0  0  0  0  0  0
   10.7092  -16.2236   26.1369 C   0  0  2  0  0  0  0  0  0  0  0  0
   10.3190  -15.5422   24.8813 N   0  0  0  0  0  0  0  0  0  0  0  0
   10.7630  -17.6535   26.0187 C   0  0  0  0  0  0  0  0  0  0  0  0
    9.7156  -18.3911   25.5006 O   0  0  0  0  0  0  0  0  0  0  0  0
   11.7751  -18.2968   26.3944 O   0  0  0  0  0  0  0  0  0  0  0  0
  2  1  1  6
  2  3  1  0
  3  4  1  0
  4  5  2  0
  6  2  1  0
  7  6  2  0
  8  4  1  0
  9 10  1  0
 10 20  2  0
 10 11  1  0
 11 12  2  0
 12 13  1  0
 13 14  1  0
 15 14  1  1
 15 16  1  0
 16  6  1  0
 17 15  1  0
 17 27  1  0
 18 17  2  0
 19 13  2  0
 20 19  1  0
 22 21  1  0
 23 22  2  0
 24 22  1  0
 25 24  1  0
 26 27  1  0
 26 25  1  1
 28 26  1  0
 29 28  1  0
 30 28  2  0
M  END
$$$$
