DYQ.pdb
     RDKit          3D

 30 30  0  0  1  0  0  0  0  0999 V2000
    9.4146  -17.4792   20.0419 N   0  0  0  0  0  0  0  0  0  0  0  0
   10.6718  -17.4884   20.7656 C   0  0  1  0  0  0  0  0  0  0  0  0
   11.7253  -16.9580   19.8112 C   0  0  0  0  0  0  0  0  0  0  0  0
   11.8539  -17.8371   18.6203 C   0  0  0  0  0  0  0  0  0  0  0  0
   10.8786  -18.0633   17.8443 O   0  0  0  0  0  0  0  0  0  0  0  0
   10.5151  -16.6008   21.9443 C   0  0  0  0  0  0  0  0  0  0  0  0
   11.4936  -16.2733   22.6623 O   0  0  0  0  0  0  0  0  0  0  0  0
   13.0499  -18.4579   18.2940 O   0  0  0  0  0  0  0  0  0  0  0  0
    6.3077  -11.6730   28.0312 O   0  0  0  0  0  0  0  0  0  0  0  0
    6.6597  -12.3710   26.8621 C   0  0  0  0  0  0  0  0  0  0  0  0
    6.1701  -13.6279   26.6480 C   0  0  0  0  0  0  0  0  0  0  0  0
    6.5323  -14.3002   25.4828 C   0  0  0  0  0  0  0  0  0  0  0  0
    7.3648  -13.7373   24.5464 C   0  0  0  0  0  0  0  0  0  0  0  0
    7.7170  -14.4818   23.3361 C   0  0  0  0  0  0  0  0  0  0  0  0
    8.9672  -15.3264   23.4854 C   0  0  2  0  0  0  0  0  0  0  0  0
    9.2217  -16.0968   22.2847 N   0  0  0  0  0  0  0  0  0  0  0  0
    8.9395  -16.2121   24.6723 C   0  0  0  0  0  0  0  0  0  0  0  0
    8.1114  -17.1757   24.7009 O   0  0  0  0  0  0  0  0  0  0  0  0
    7.8631  -12.4706   24.7543 C   0  0  0  0  0  0  0  0  0  0  0  0
    7.4881  -11.8096   25.9315 C   0  0  0  0  0  0  0  0  0  0  0  0
   13.1186  -19.4775   24.4253 N   0  0  0  0  0  0  0  0  0  0  0  0
   12.9600  -19.7623   25.8062 C   0  0  0  0  0  0  0  0  0  0  0  0
   13.7151  -20.6473   26.3259 O   0  0  0  0  0  0  0  0  0  0  0  0
   11.9449  -19.0267   26.5719 C   0  0  0  0  0  0  0  0  0  0  0  0
   11.2883  -17.9018   25.8936 C   0  0  0  0  0  0  0  0  0  0  0  0
   10.2128  -17.1788   26.6580 C   0  0  2  0  0  0  0  0  0  0  0  0
    9.7776  -16.0629   25.7872 N   0  0  0  0  0  0  0  0  0  0  0  0
   10.4839  -16.7773   28.0097 C   0  0  0  0  0  0  0  0  0  0  0  0
   10.4398  -17.6663   29.0665 O   0  0  0  0  0  0  0  0  0  0  0  0
   10.7674  -15.5847   28.2865 O   0  0  0  0  0  0  0  0  0  0  0  0
  2  1  1  6
  2  3  1  0
  3  4  1  0
  4  5  2  0
  6  2  1  0
  7  6  2  0
  8  4  1  0
  9 10  1  0
 10 20  2  0
 10 11  1  0
 11 12  2  0
 12 13  1  0
 13 14  1  0
 15 14  1  6
 15 16  1  0
 16  6  1  0
 17 15  1  0
 17 27  1  0
 18 17  2  0
 19 13  2  0
 20 19  1  0
 22 21  1  0
 23 22  2  0
 24 22  1  0
 25 24  1  0
 26 27  1  0
 26 25  1  6
 28 26  1  0
 29 28  1  0
 30 28  2  0
M  END
$$$$
