HAQ.pdb
     RDKit          3D

 25 25  0  0  1  0  0  0  0  0999 V2000
    9.8143  -13.2065   19.9953 N   0  0  0  0  0  0  0  0  0  0  0  0
    8.6150  -13.6724   20.6159 C   0  0  1  0  0  0  0  0  0  0  0  0
    8.0263  -14.8393   19.8474 C   0  0  0  0  0  0  0  0  0  0  0  0
    7.8984  -14.4577   18.4315 C   0  0  0  0  0  0  0  0  0  0  0  0
    7.4702  -13.2318   17.9678 C   0  0  0  0  0  0  0  0  0  0  0  0
    7.5055  -13.3158   16.6162 N   0  0  0  0  0  0  0  0  0  0  0  0
    7.9361  -14.5386   16.2573 C   0  0  0  0  0  0  0  0  0  0  0  0
    8.1762  -15.2363   17.3823 N   0  0  0  0  0  0  0  0  0  0  0  0
    8.7553  -13.9662   22.0514 C   0  0  0  0  0  0  0  0  0  0  0  0
    9.8095  -14.5139   22.4424 O   0  0  0  0  0  0  0  0  0  0  0  0
    6.7476  -13.4152   25.2469 C   0  0  0  0  0  0  0  0  0  0  0  0
    7.9357  -13.8827   24.4289 C   0  0  2  0  0  0  0  0  0  0  0  0
    7.7453  -13.6562   23.0220 N   0  0  0  0  0  0  0  0  0  0  0  0
    8.1300  -15.3313   24.6688 C   0  0  0  0  0  0  0  0  0  0  0  0
    7.3879  -16.1698   24.0734 O   0  0  0  0  0  0  0  0  0  0  0  0
   13.4359  -18.0435   23.9217 N   0  0  0  0  0  0  0  0  0  0  0  0
   12.6740  -19.0350   24.6351 C   0  0  0  0  0  0  0  0  0  0  0  0
   13.2423  -20.1366   24.7587 O   0  0  0  0  0  0  0  0  0  0  0  0
   11.3533  -18.7833   25.1659 C   0  0  0  0  0  0  0  0  0  0  0  0
   10.7417  -17.4523   25.0678 C   0  0  0  0  0  0  0  0  0  0  0  0
    9.4089  -17.2250   25.6903 C   0  0  2  0  0  0  0  0  0  0  0  0
    9.1416  -15.7713   25.5600 N   0  0  0  0  0  0  0  0  0  0  0  0
    9.2568  -17.5539   27.1011 C   0  0  0  0  0  0  0  0  0  0  0  0
    9.0671  -18.8310   27.5785 O   0  0  0  0  0  0  0  0  0  0  0  0
    9.2980  -16.6166   27.9752 O   0  0  0  0  0  0  0  0  0  0  0  0
  2  1  1  6
  2  9  1  0
  3  2  1  0
  4  5  2  0
  4  3  1  0
  6  5  1  0
  7  8  2  0
  7  6  1  0
  8  4  1  0
  9 10  2  0
 12 11  1  1
 12 14  1  0
 13 12  1  0
 13  9  1  0
 14 15  2  0
 16 17  1  0
 17 19  1  0
 18 17  2  0
 19 20  1  0
 21 20  1  1
 21 23  1  0
 22 14  1  0
 22 21  1  0
 23 25  2  0
 23 24  1  0
M  END
$$$$
