HAQ.pdb
     RDKit          3D

 25 25  0  0  1  0  0  0  0  0999 V2000
   11.6739  -14.8112   15.9925 N   0  0  0  0  0  0  0  0  0  0  0  0
   10.4561  -15.2350   16.6072 C   0  0  1  0  0  0  0  0  0  0  0  0
   10.3629  -16.7480   16.6366 C   0  0  0  0  0  0  0  0  0  0  0  0
   10.2504  -17.2424   15.2547 C   0  0  0  0  0  0  0  0  0  0  0  0
   11.2882  -17.7387   14.4945 C   0  0  0  0  0  0  0  0  0  0  0  0
   10.7432  -18.0744   13.3005 N   0  0  0  0  0  0  0  0  0  0  0  0
    9.4267  -17.7989   13.3190 C   0  0  0  0  0  0  0  0  0  0  0  0
    9.1310  -17.2863   14.5272 N   0  0  0  0  0  0  0  0  0  0  0  0
   10.2100  -14.6371   17.9296 C   0  0  0  0  0  0  0  0  0  0  0  0
   11.1578  -14.5936   18.7445 O   0  0  0  0  0  0  0  0  0  0  0  0
    7.3334  -12.9569   19.7816 C   0  0  0  0  0  0  0  0  0  0  0  0
    8.6979  -13.6060   19.6564 C   0  0  2  0  0  0  0  0  0  0  0  0
    8.9398  -14.1032   18.3293 N   0  0  0  0  0  0  0  0  0  0  0  0
    8.7741  -14.7282   20.6201 C   0  0  0  0  0  0  0  0  0  0  0  0
    8.3866  -15.8834   20.2681 O   0  0  0  0  0  0  0  0  0  0  0  0
   13.7257  -16.6106   22.1412 N   0  0  0  0  0  0  0  0  0  0  0  0
   13.1952  -16.8109   23.4644 C   0  0  0  0  0  0  0  0  0  0  0  0
   13.8653  -17.5779   24.1817 O   0  0  0  0  0  0  0  0  0  0  0  0
   11.9811  -16.1804   23.9311 C   0  0  0  0  0  0  0  0  0  0  0  0
   11.2127  -15.2844   23.0585 C   0  0  0  0  0  0  0  0  0  0  0  0
    9.8156  -15.6523   22.7002 C   0  0  2  0  0  0  0  0  0  0  0  0
    9.2784  -14.5056   21.9268 N   0  0  0  0  0  0  0  0  0  0  0  0
    8.8805  -15.8974   23.7897 C   0  0  0  0  0  0  0  0  0  0  0  0
    7.8787  -15.0274   24.1559 O   0  0  0  0  0  0  0  0  0  0  0  0
    8.9721  -16.9823   24.4674 O   0  0  0  0  0  0  0  0  0  0  0  0
  2  1  1  1
  2  9  1  0
  3  2  1  0
  4  5  2  0
  4  3  1  0
  6  5  1  0
  7  8  2  0
  7  6  1  0
  8  4  1  0
  9 10  2  0
 12 11  1  6
 12 14  1  0
 13 12  1  0
 13  9  1  0
 14 15  2  0
 16 17  1  0
 17 19  1  0
 18 17  2  0
 19 20  1  0
 21 20  1  1
 21 23  1  0
 22 14  1  0
 22 21  1  0
 23 25  2  0
 23 24  1  0
M  END
$$$$
