HAQ.pdb
     RDKit          3D

 25 25  0  0  1  0  0  0  0  0999 V2000
   10.5355  -15.5296   13.4319 N   0  0  0  0  0  0  0  0  0  0  0  0
   11.6676  -16.1515   14.0419 C   0  0  1  0  0  0  0  0  0  0  0  0
   12.9146  -15.3100   13.8523 C   0  0  0  0  0  0  0  0  0  0  0  0
   13.1714  -15.1622   12.4105 C   0  0  0  0  0  0  0  0  0  0  0  0
   13.7831  -16.0998   11.6056 C   0  0  0  0  0  0  0  0  0  0  0  0
   13.8135  -15.5572   10.3646 N   0  0  0  0  0  0  0  0  0  0  0  0
   13.2462  -14.3380   10.3980 C   0  0  0  0  0  0  0  0  0  0  0  0
   12.8530  -14.1021   11.6628 N   0  0  0  0  0  0  0  0  0  0  0  0
   11.4607  -16.5294   15.4494 C   0  0  0  0  0  0  0  0  0  0  0  0
   11.0527  -15.6530   16.2430 O   0  0  0  0  0  0  0  0  0  0  0  0
   11.4059  -19.7311   17.4967 C   0  0  0  0  0  0  0  0  0  0  0  0
   11.3836  -18.2271   17.3050 C   0  0  2  0  0  0  0  0  0  0  0  0
   11.7031  -17.8499   15.9550 N   0  0  0  0  0  0  0  0  0  0  0  0
   12.3709  -17.6215   18.2283 C   0  0  0  0  0  0  0  0  0  0  0  0
   13.5586  -17.4209   17.8314 O   0  0  0  0  0  0  0  0  0  0  0  0
   15.3448  -14.8363   18.8531 N   0  0  0  0  0  0  0  0  0  0  0  0
   14.2264  -13.9710   19.1234 C   0  0  0  0  0  0  0  0  0  0  0  0
   13.9969  -13.1269   18.2365 O   0  0  0  0  0  0  0  0  0  0  0  0
   13.4300  -14.0640   20.3260 C   0  0  0  0  0  0  0  0  0  0  0  0
   12.4692  -15.1582   20.5121 C   0  0  0  0  0  0  0  0  0  0  0  0
   12.9521  -16.5632   20.4209 C   0  0  2  0  0  0  0  0  0  0  0  0
   11.9839  -17.2703   19.5467 N   0  0  0  0  0  0  0  0  0  0  0  0
   13.0382  -17.3299   21.6564 C   0  0  0  0  0  0  0  0  0  0  0  0
   12.2026  -18.3768   21.9735 O   0  0  0  0  0  0  0  0  0  0  0  0
   13.9381  -17.0341   22.5207 O   0  0  0  0  0  0  0  0  0  0  0  0
  2  1  1  1
  2  9  1  0
  3  2  1  0
  4  5  2  0
  4  3  1  0
  6  5  1  0
  7  8  2  0
  7  6  1  0
  8  4  1  0
  9 10  2  0
 12 11  1  6
 12 14  1  0
 13 12  1  0
 13  9  1  0
 14 15  2  0
 16 17  1  0
 17 19  1  0
 18 17  2  0
 19 20  1  0
 21 20  1  1
 21 23  1  0
 22 14  1  0
 22 21  1  0
 23 25  2  0
 23 24  1  0
M  END
$$$$
