HAQ.pdb
     RDKit          3D

 25 25  0  0  1  0  0  0  0  0999 V2000
    8.6096  -14.1095   15.6990 N   0  0  0  0  0  0  0  0  0  0  0  0
    9.1677  -15.3568   16.1151 C   0  0  1  0  0  0  0  0  0  0  0  0
   10.3931  -15.7027   15.2920 C   0  0  0  0  0  0  0  0  0  0  0  0
   10.0046  -15.7809   13.8743 C   0  0  0  0  0  0  0  0  0  0  0  0
    8.7366  -16.0514   13.4050 C   0  0  0  0  0  0  0  0  0  0  0  0
    8.8302  -16.0263   12.0538 N   0  0  0  0  0  0  0  0  0  0  0  0
   10.0990  -15.7528   11.7005 C   0  0  0  0  0  0  0  0  0  0  0  0
   10.8165  -15.6029   12.8287 N   0  0  0  0  0  0  0  0  0  0  0  0
    9.4257  -15.4478   17.5614 C   0  0  0  0  0  0  0  0  0  0  0  0
   10.1546  -14.5783   18.0878 O   0  0  0  0  0  0  0  0  0  0  0  0
    8.4525  -17.7149   20.4684 C   0  0  0  0  0  0  0  0  0  0  0  0
    9.2476  -16.6231   19.7792 C   0  0  2  0  0  0  0  0  0  0  0  0
    8.8840  -16.4818   18.3954 N   0  0  0  0  0  0  0  0  0  0  0  0
   10.6870  -16.9591   19.8743 C   0  0  0  0  0  0  0  0  0  0  0  0
   11.2790  -17.4670   18.8743 O   0  0  0  0  0  0  0  0  0  0  0  0
   13.6742  -13.8562   17.5916 N   0  0  0  0  0  0  0  0  0  0  0  0
   14.6178  -14.1367   18.6421 C   0  0  0  0  0  0  0  0  0  0  0  0
   15.8132  -14.0583   18.3006 O   0  0  0  0  0  0  0  0  0  0  0  0
   14.2199  -14.4860   19.9871 C   0  0  0  0  0  0  0  0  0  0  0  0
   12.9043  -15.0796   20.2546 C   0  0  0  0  0  0  0  0  0  0  0  0
   12.8323  -16.3573   21.0148 C   0  0  2  0  0  0  0  0  0  0  0  0
   11.3930  -16.7119   21.0792 N   0  0  0  0  0  0  0  0  0  0  0  0
   13.3253  -16.3571   22.3854 C   0  0  0  0  0  0  0  0  0  0  0  0
   12.5157  -16.2755   23.4956 O   0  0  0  0  0  0  0  0  0  0  0  0
   14.5868  -16.4367   22.6019 O   0  0  0  0  0  0  0  0  0  0  0  0
  2  1  1  1
  2  9  1  0
  3  2  1  0
  4  5  2  0
  4  3  1  0
  6  5  1  0
  7  8  2  0
  7  6  1  0
  8  4  1  0
  9 10  2  0
 12 11  1  6
 12 14  1  0
 13 12  1  0
 13  9  1  0
 14 15  2  0
 16 17  1  0
 17 19  1  0
 18 17  2  0
 19 20  1  0
 21 20  1  1
 21 23  1  0
 22 14  1  0
 22 21  1  0
 23 25  2  0
 23 24  1  0
M  END
$$$$
