HAQ.pdb
     RDKit          3D

 25 25  0  0  1  0  0  0  0  0999 V2000
    9.1577  -15.5973   14.9667 N   0  0  0  0  0  0  0  0  0  0  0  0
    8.2175  -15.7532   16.0307 C   0  0  1  0  0  0  0  0  0  0  0  0
    7.7669  -17.1962   16.1474 C   0  0  0  0  0  0  0  0  0  0  0  0
    7.0816  -17.5804   14.9027 C   0  0  0  0  0  0  0  0  0  0  0  0
    5.9021  -17.0385   14.4376 C   0  0  0  0  0  0  0  0  0  0  0  0
    5.6366  -17.6773   13.2728 N   0  0  0  0  0  0  0  0  0  0  0  0
    6.6076  -18.5750   13.0262 C   0  0  0  0  0  0  0  0  0  0  0  0
    7.4944  -18.5090   14.0358 N   0  0  0  0  0  0  0  0  0  0  0  0
    8.6716  -15.2065   17.3197 C   0  0  0  0  0  0  0  0  0  0  0  0
    9.7929  -15.5573   17.7485 O   0  0  0  0  0  0  0  0  0  0  0  0
    7.3440  -12.8469   20.0065 C   0  0  0  0  0  0  0  0  0  0  0  0
    8.3441  -13.7985   19.3792 C   0  0  2  0  0  0  0  0  0  0  0  0
    7.8937  -14.2935   18.1068 N   0  0  0  0  0  0  0  0  0  0  0  0
    8.5499  -14.9386   20.3021 C   0  0  0  0  0  0  0  0  0  0  0  0
    7.8240  -15.9726   20.1917 O   0  0  0  0  0  0  0  0  0  0  0  0
   12.9780  -19.9095   21.8290 N   0  0  0  0  0  0  0  0  0  0  0  0
   12.8310  -18.4779   21.7905 C   0  0  0  0  0  0  0  0  0  0  0  0
   13.7756  -17.8735   21.2481 O   0  0  0  0  0  0  0  0  0  0  0  0
   11.6850  -17.7878   22.3378 C   0  0  0  0  0  0  0  0  0  0  0  0
   11.1287  -16.6034   21.6724 C   0  0  0  0  0  0  0  0  0  0  0  0
    9.8244  -16.0606   22.1412 C   0  0  2  0  0  0  0  0  0  0  0  0
    9.5544  -14.8679   21.3008 N   0  0  0  0  0  0  0  0  0  0  0  0
    9.7327  -15.6251   23.5281 C   0  0  0  0  0  0  0  0  0  0  0  0
    9.4691  -14.3301   23.9133 O   0  0  0  0  0  0  0  0  0  0  0  0
    9.9035  -16.4786   24.4697 O   0  0  0  0  0  0  0  0  0  0  0  0
  2  1  1  6
  2  9  1  0
  3  2  1  0
  4  5  2  0
  4  3  1  0
  6  5  1  0
  7  8  2  0
  7  6  1  0
  8  4  1  0
  9 10  2  0
 12 11  1  1
 12 14  1  0
 13 12  1  0
 13  9  1  0
 14 15  2  0
 16 17  1  0
 17 19  1  0
 18 17  2  0
 19 20  1  0
 21 20  1  6
 21 23  1  0
 22 14  1  0
 22 21  1  0
 23 25  2  0
 23 24  1  0
M  END
$$$$
