HAQ.pdb
     RDKit          3D

 25 25  0  0  1  0  0  0  0  0999 V2000
    9.1575  -17.2338   19.5918 N   0  0  0  0  0  0  0  0  0  0  0  0
    9.2571  -16.4398   20.7751 C   0  0  1  0  0  0  0  0  0  0  0  0
    7.9372  -15.7603   21.0833 C   0  0  0  0  0  0  0  0  0  0  0  0
    7.8519  -14.5153   20.3026 C   0  0  0  0  0  0  0  0  0  0  0  0
    8.8026  -14.0608   19.4132 C   0  0  0  0  0  0  0  0  0  0  0  0
    8.3227  -12.8914   18.9260 N   0  0  0  0  0  0  0  0  0  0  0  0
    7.1283  -12.6319   19.4876 C   0  0  0  0  0  0  0  0  0  0  0  0
    6.8454  -13.6378   20.3350 N   0  0  0  0  0  0  0  0  0  0  0  0
    9.7964  -17.1607   21.9396 C   0  0  0  0  0  0  0  0  0  0  0  0
    9.1547  -18.1410   22.3773 O   0  0  0  0  0  0  0  0  0  0  0  0
   12.9362  -17.0675   24.0971 C   0  0  0  0  0  0  0  0  0  0  0  0
   11.5554  -17.5493   23.6964 C   0  0  2  0  0  0  0  0  0  0  0  0
   11.0188  -16.7957   22.5959 N   0  0  0  0  0  0  0  0  0  0  0  0
   10.6546  -17.4169   24.8647 C   0  0  0  0  0  0  0  0  0  0  0  0
   10.1307  -16.2922   25.1272 O   0  0  0  0  0  0  0  0  0  0  0  0
    6.6023  -21.8948   26.5574 N   0  0  0  0  0  0  0  0  0  0  0  0
    6.5643  -20.9248   27.6205 C   0  0  0  0  0  0  0  0  0  0  0  0
    5.6880  -21.1322   28.4813 O   0  0  0  0  0  0  0  0  0  0  0  0
    7.4639  -19.7956   27.6904 C   0  0  0  0  0  0  0  0  0  0  0  0
    8.4920  -19.5853   26.6639 C   0  0  0  0  0  0  0  0  0  0  0  0
    9.4065  -18.4176   26.7898 C   0  0  2  0  0  0  0  0  0  0  0  0
   10.3838  -18.5448   25.6806 N   0  0  0  0  0  0  0  0  0  0  0  0
   10.1803  -18.2944   28.0177 C   0  0  0  0  0  0  0  0  0  0  0  0
    9.6994  -17.7321   29.1784 O   0  0  0  0  0  0  0  0  0  0  0  0
   11.3868  -18.7276   28.0489 O   0  0  0  0  0  0  0  0  0  0  0  0
  2  1  1  6
  2  9  1  0
  3  2  1  0
  4  5  2  0
  4  3  1  0
  6  5  1  0
  7  8  2  0
  7  6  1  0
  8  4  1  0
  9 10  2  0
 12 11  1  1
 12 14  1  0
 13 12  1  0
 13  9  1  0
 14 15  2  0
 16 17  1  0
 17 19  1  0
 18 17  2  0
 19 20  1  0
 21 20  1  1
 21 23  1  0
 22 14  1  0
 22 21  1  0
 23 25  2  0
 23 24  1  0
M  END
$$$$
