HAQ.pdb
     RDKit          3D

 25 25  0  0  1  0  0  0  0  0999 V2000
   10.7472  -16.5502   18.6977 N   0  0  0  0  0  0  0  0  0  0  0  0
   11.4044  -15.7844   19.7088 C   0  0  1  0  0  0  0  0  0  0  0  0
   12.2468  -14.6847   19.0926 C   0  0  0  0  0  0  0  0  0  0  0  0
   13.1798  -15.2876   18.1268 C   0  0  0  0  0  0  0  0  0  0  0  0
   12.9655  -15.4003   16.7693 C   0  0  0  0  0  0  0  0  0  0  0  0
   14.0677  -16.0104   16.2713 N   0  0  0  0  0  0  0  0  0  0  0  0
   14.9271  -16.2649   17.2743 C   0  0  0  0  0  0  0  0  0  0  0  0
   14.3722  -15.8162   18.4148 N   0  0  0  0  0  0  0  0  0  0  0  0
   10.5055  -15.2749   20.7572 C   0  0  0  0  0  0  0  0  0  0  0  0
   10.9961  -14.5659   21.6632 O   0  0  0  0  0  0  0  0  0  0  0  0
    6.7910  -15.4002   21.6031 C   0  0  0  0  0  0  0  0  0  0  0  0
    8.2565  -15.1213   21.8750 C   0  0  2  0  0  0  0  0  0  0  0  0
    9.0980  -15.5505   20.7912 N   0  0  0  0  0  0  0  0  0  0  0  0
    8.6490  -15.8365   23.1112 C   0  0  0  0  0  0  0  0  0  0  0  0
    9.2940  -16.9252   23.0269 O   0  0  0  0  0  0  0  0  0  0  0  0
    9.7588  -14.6688   30.4121 N   0  0  0  0  0  0  0  0  0  0  0  0
    9.3026  -14.3558   29.0830 C   0  0  0  0  0  0  0  0  0  0  0  0
    8.8793  -13.1930   28.9399 O   0  0  0  0  0  0  0  0  0  0  0  0
    9.3264  -15.3085   27.9963 C   0  0  0  0  0  0  0  0  0  0  0  0
    8.8457  -14.9400   26.6591 C   0  0  0  0  0  0  0  0  0  0  0  0
    8.7706  -15.9899   25.6066 C   0  0  2  0  0  0  0  0  0  0  0  0
    8.3025  -15.3017   24.3782 N   0  0  0  0  0  0  0  0  0  0  0  0
    7.8650  -17.1084   25.8310 C   0  0  0  0  0  0  0  0  0  0  0  0
    8.1948  -18.2347   26.5502 O   0  0  0  0  0  0  0  0  0  0  0  0
    6.6809  -17.0694   25.3402 O   0  0  0  0  0  0  0  0  0  0  0  0
  2  1  1  6
  2  9  1  0
  3  2  1  0
  4  5  2  0
  4  3  1  0
  6  5  1  0
  7  8  2  0
  7  6  1  0
  8  4  1  0
  9 10  2  0
 12 11  1  6
 12 14  1  0
 13 12  1  0
 13  9  1  0
 14 15  2  0
 16 17  1  0
 17 19  1  0
 18 17  2  0
 19 20  1  0
 21 20  1  1
 21 23  1  0
 22 14  1  0
 22 21  1  0
 23 25  2  0
 23 24  1  0
M  END
$$$$
