HAQ.pdb
     RDKit          3D

 25 25  0  0  1  0  0  0  0  0999 V2000
   10.6762  -16.1275   18.8238 N   0  0  0  0  0  0  0  0  0  0  0  0
    9.6305  -16.5744   19.6883 C   0  0  1  0  0  0  0  0  0  0  0  0
    9.3788  -18.0589   19.5102 C   0  0  0  0  0  0  0  0  0  0  0  0
    9.1426  -18.3313   18.0831 C   0  0  0  0  0  0  0  0  0  0  0  0
    8.2737  -17.6369   17.2681 C   0  0  0  0  0  0  0  0  0  0  0  0
    8.3705  -18.2160   16.0473 N   0  0  0  0  0  0  0  0  0  0  0  0
    9.2592  -19.2242   16.1021 C   0  0  0  0  0  0  0  0  0  0  0  0
    9.7306  -19.2886   17.3606 N   0  0  0  0  0  0  0  0  0  0  0  0
    9.8204  -16.2083   21.1013 C   0  0  0  0  0  0  0  0  0  0  0  0
   10.8818  -16.5555   21.6644 O   0  0  0  0  0  0  0  0  0  0  0  0
    7.9309  -14.2727   23.7896 C   0  0  0  0  0  0  0  0  0  0  0  0
    9.0699  -15.1058   23.2350 C   0  0  2  0  0  0  0  0  0  0  0  0
    8.8508  -15.4748   21.8628 N   0  0  0  0  0  0  0  0  0  0  0  0
    9.1980  -16.3318   24.0562 C   0  0  0  0  0  0  0  0  0  0  0  0
    8.4706  -17.3379   23.7973 O   0  0  0  0  0  0  0  0  0  0  0  0
   14.3603  -19.2229   24.9425 N   0  0  0  0  0  0  0  0  0  0  0  0
   13.4215  -18.8140   23.9306 C   0  0  0  0  0  0  0  0  0  0  0  0
   13.8285  -18.9470   22.7608 O   0  0  0  0  0  0  0  0  0  0  0  0
   12.1112  -18.2866   24.2374 C   0  0  0  0  0  0  0  0  0  0  0  0
   11.6805  -18.0976   25.6280 C   0  0  0  0  0  0  0  0  0  0  0  0
   10.2921  -17.6315   25.8944 C   0  0  2  0  0  0  0  0  0  0  0  0
   10.1303  -16.3738   25.1241 N   0  0  0  0  0  0  0  0  0  0  0  0
    9.9341  -17.3273   27.2731 C   0  0  0  0  0  0  0  0  0  0  0  0
    9.8640  -18.2670   28.2764 O   0  0  0  0  0  0  0  0  0  0  0  0
    9.6623  -16.1180   27.6019 O   0  0  0  0  0  0  0  0  0  0  0  0
  2  1  1  6
  2  9  1  0
  3  2  1  0
  4  5  2  0
  4  3  1  0
  6  5  1  0
  7  8  2  0
  7  6  1  0
  8  4  1  0
  9 10  2  0
 12 11  1  1
 12 14  1  0
 13 12  1  0
 13  9  1  0
 14 15  2  0
 16 17  1  0
 17 19  1  0
 18 17  2  0
 19 20  1  0
 21 20  1  1
 21 23  1  0
 22 14  1  0
 22 21  1  0
 23 25  2  0
 23 24  1  0
M  END
$$$$
