HAQ.pdb
     RDKit          3D

 25 25  0  0  1  0  0  0  0  0999 V2000
    7.3001  -17.0715   18.7051 N   0  0  0  0  0  0  0  0  0  0  0  0
    8.3850  -16.5034   19.4403 C   0  0  1  0  0  0  0  0  0  0  0  0
    8.2108  -15.0047   19.5904 C   0  0  0  0  0  0  0  0  0  0  0  0
    8.1556  -14.3979   18.2505 C   0  0  0  0  0  0  0  0  0  0  0  0
    8.3340  -15.0690   17.0592 C   0  0  0  0  0  0  0  0  0  0  0  0
    8.2014  -14.1355   16.0865 N   0  0  0  0  0  0  0  0  0  0  0  0
    7.9520  -12.9392   16.6487 C   0  0  0  0  0  0  0  0  0  0  0  0
    7.9254  -13.1096   17.9830 N   0  0  0  0  0  0  0  0  0  0  0  0
    8.6500  -17.1641   20.7287 C   0  0  0  0  0  0  0  0  0  0  0  0
    7.7343  -17.1878   21.5803 O   0  0  0  0  0  0  0  0  0  0  0  0
   10.9842  -19.6878   22.1503 C   0  0  0  0  0  0  0  0  0  0  0  0
   10.1295  -18.4456   22.3099 C   0  0  2  0  0  0  0  0  0  0  0  0
    9.9035  -17.7807   21.0554 N   0  0  0  0  0  0  0  0  0  0  0  0
   10.8177  -17.5182   23.2374 C   0  0  0  0  0  0  0  0  0  0  0  0
   11.6148  -16.6469   22.7750 O   0  0  0  0  0  0  0  0  0  0  0  0
    8.7231  -13.4934   27.1470 N   0  0  0  0  0  0  0  0  0  0  0  0
    9.9252  -13.9321   27.8066 C   0  0  0  0  0  0  0  0  0  0  0  0
   10.1396  -13.3917   28.9083 O   0  0  0  0  0  0  0  0  0  0  0  0
   10.8199  -14.9172   27.2422 C   0  0  0  0  0  0  0  0  0  0  0  0
   10.3795  -15.8028   26.1574 C   0  0  0  0  0  0  0  0  0  0  0  0
   11.3606  -16.7469   25.5560 C   0  0  2  0  0  0  0  0  0  0  0  0
   10.5822  -17.6093   24.6330 N   0  0  0  0  0  0  0  0  0  0  0  0
   12.0798  -17.6384   26.4557 C   0  0  0  0  0  0  0  0  0  0  0  0
   11.6684  -18.9144   26.7678 O   0  0  0  0  0  0  0  0  0  0  0  0
   13.1665  -17.2371   27.0057 O   0  0  0  0  0  0  0  0  0  0  0  0
  2  1  1  1
  2  9  1  0
  3  2  1  0
  4  5  2  0
  4  3  1  0
  6  5  1  0
  7  8  2  0
  7  6  1  0
  8  4  1  0
  9 10  2  0
 12 11  1  6
 12 14  1  0
 13 12  1  0
 13  9  1  0
 14 15  2  0
 16 17  1  0
 17 19  1  0
 18 17  2  0
 19 20  1  0
 21 20  1  1
 21 23  1  0
 22 14  1  0
 22 21  1  0
 23 25  2  0
 23 24  1  0
M  END
$$$$
