HAQ.pdb
     RDKit          3D

 25 25  0  0  1  0  0  0  0  0999 V2000
    7.3212  -17.0576   20.1644 N   0  0  0  0  0  0  0  0  0  0  0  0
    8.2902  -16.1905   20.7556 C   0  0  1  0  0  0  0  0  0  0  0  0
    7.8882  -14.7378   20.5910 C   0  0  0  0  0  0  0  0  0  0  0  0
    7.9500  -14.3883   19.1625 C   0  0  0  0  0  0  0  0  0  0  0  0
    8.3306  -15.2382   18.1456 C   0  0  0  0  0  0  0  0  0  0  0  0
    8.2429  -14.5119   17.0054 N   0  0  0  0  0  0  0  0  0  0  0  0
    7.8267  -13.2674   17.3014 C   0  0  0  0  0  0  0  0  0  0  0  0
    7.6485  -13.1995   18.6332 N   0  0  0  0  0  0  0  0  0  0  0  0
    8.6214  -16.5210   22.1512 C   0  0  0  0  0  0  0  0  0  0  0  0
    7.7178  -16.4283   23.0110 O   0  0  0  0  0  0  0  0  0  0  0  0
   11.5951  -17.8804   24.1026 C   0  0  0  0  0  0  0  0  0  0  0  0
   10.2337  -17.2310   23.9478 C   0  0  2  0  0  0  0  0  0  0  0  0
    9.9259  -16.9431   22.5732 N   0  0  0  0  0  0  0  0  0  0  0  0
   10.2237  -15.9703   24.7252 C   0  0  0  0  0  0  0  0  0  0  0  0
   10.3758  -14.8633   24.1252 O   0  0  0  0  0  0  0  0  0  0  0  0
    6.4101  -11.5014   26.1802 N   0  0  0  0  0  0  0  0  0  0  0  0
    6.9104  -12.4217   27.1678 C   0  0  0  0  0  0  0  0  0  0  0  0
    6.0627  -12.8061   27.9957 O   0  0  0  0  0  0  0  0  0  0  0  0
    8.2850  -12.8669   27.2062 C   0  0  0  0  0  0  0  0  0  0  0  0
    8.7027  -14.0875   26.5057 C   0  0  0  0  0  0  0  0  0  0  0  0
    9.9885  -14.7326   26.8881 C   0  0  2  0  0  0  0  0  0  0  0  0
   10.0447  -16.0078   26.1315 N   0  0  0  0  0  0  0  0  0  0  0  0
   10.1848  -15.0693   28.2915 C   0  0  0  0  0  0  0  0  0  0  0  0
   10.1474  -16.3523   28.7888 O   0  0  0  0  0  0  0  0  0  0  0  0
   10.4080  -14.1335   29.1394 O   0  0  0  0  0  0  0  0  0  0  0  0
  2  1  1  1
  2  9  1  0
  3  2  1  0
  4  5  2  0
  4  3  1  0
  6  5  1  0
  7  8  2  0
  7  6  1  0
  8  4  1  0
  9 10  2  0
 12 11  1  6
 12 14  1  0
 13 12  1  0
 13  9  1  0
 14 15  2  0
 16 17  1  0
 17 19  1  0
 18 17  2  0
 19 20  1  0
 21 20  1  1
 21 23  1  0
 22 14  1  0
 22 21  1  0
 23 25  2  0
 23 24  1  0
M  END
$$$$
