SHW.pdb
     RDKit          3D

 31 33  0  0  1  0  0  0  0  0999 V2000
   28.7086  -24.5162  -18.9516 O   0  0  0  0  0  0  0  0  0  0  0  0
   28.2015  -23.9033  -17.7986 C   0  0  0  0  0  0  0  0  0  0  0  0
   29.2842  -22.9991  -17.2585 C   0  0  2  0  0  0  0  0  0  0  0  0
   30.4455  -23.7008  -16.7956 N   0  0  0  0  0  0  0  0  0  0  0  0
   28.7612  -22.1260  -16.1697 C   0  0  0  0  0  0  0  0  0  0  0  0
   29.2222  -22.3427  -15.0043 O   0  0  0  0  0  0  0  0  0  0  0  0
   27.8142  -21.1085  -16.3584 N   0  0  0  0  0  0  0  0  0  0  0  0
   27.4734  -20.2231  -15.2810 C   0  0  1  0  0  0  0  0  0  0  0  0
   26.9900  -18.8837  -15.7376 C   0  0  0  0  0  0  0  0  0  0  0  0
   28.0806  -18.1101  -16.3486 C   0  0  0  0  0  0  0  0  0  0  0  0
   29.4124  -18.5028  -16.3535 C   0  0  0  0  0  0  0  0  0  0  0  0
   30.0939  -17.5481  -16.9972 N   0  0  0  0  0  0  0  0  0  0  0  0
   29.2628  -16.5745  -17.3982 C   0  0  0  0  0  0  0  0  0  0  0  0
   28.0150  -16.9390  -16.9873 N   0  0  0  0  0  0  0  0  0  0  0  0
   26.4368  -20.8962  -14.4309 C   0  0  0  0  0  0  0  0  0  0  0  0
   25.5935  -21.6739  -14.9450 O   0  0  0  0  0  0  0  0  0  0  0  0
   26.3608  -20.6920  -13.0317 N   0  0  0  0  0  0  0  0  0  0  0  0
   25.3196  -21.3342  -12.2453 C   0  0  1  0  0  0  0  0  0  0  0  0
   26.0373  -21.9959  -11.0990 C   0  0  0  0  0  0  0  0  0  0  0  0
   26.3242  -21.0999   -9.9863 C   0  0  0  0  0  0  0  0  0  0  0  0
   25.4756  -20.1378   -9.4283 C   0  0  0  0  0  0  0  0  0  0  0  0
   26.1268  -19.5150   -8.4540 N   0  0  0  0  0  0  0  0  0  0  0  0
   27.3749  -20.0110   -8.3265 C   0  0  0  0  0  0  0  0  0  0  0  0
   28.3769  -19.6553   -7.4237 C   0  0  0  0  0  0  0  0  0  0  0  0
   29.5669  -20.3465   -7.4997 C   0  0  0  0  0  0  0  0  0  0  0  0
   29.7369  -21.3506   -8.4443 C   0  0  0  0  0  0  0  0  0  0  0  0
   28.7206  -21.6670   -9.3154 C   0  0  0  0  0  0  0  0  0  0  0  0
   27.5084  -20.9886   -9.2654 C   0  0  0  0  0  0  0  0  0  0  0  0
   24.2287  -20.4750  -11.8580 C   0  0  0  0  0  0  0  0  0  0  0  0
   24.3648  -19.2268  -11.8668 O   0  0  0  0  0  0  0  0  0  0  0  0
   22.9878  -20.9469  -11.4665 O   0  0  0  0  0  0  0  0  0  0  0  0
  1  2  1  0
  3  2  1  0
  3  4  1  1
  5  7  1  0
  5  3  1  0
  6  5  2  0
  8  7  1  0
  8  9  1  6
 10  9  1  0
 11 10  2  0
 12 13  1  0
 12 11  1  0
 13 14  2  0
 14 10  1  0
 15 17  1  0
 15  8  1  0
 16 15  2  0
 18 17  1  0
 18 29  1  0
 18 19  1  1
 20 19  1  0
 21 20  2  0
 22 23  1  0
 22 21  1  0
 23 28  2  0
 24 23  1  0
 24 25  2  0
 25 26  1  0
 26 27  2  0
 28 20  1  0
 28 27  1  0
 29 31  1  0
 30 29  2  0
M  END
$$$$
