SHW.pdb
     RDKit          3D

 31 33  0  0  1  0  0  0  0  0999 V2000
   38.7683  -24.8974   11.8134 O   0  0  0  0  0  0  0  0  0  0  0  0
   38.5731  -26.2269   12.2090 C   0  0  0  0  0  0  0  0  0  0  0  0
   39.2899  -27.1022   11.2083 C   0  0  2  0  0  0  0  0  0  0  0  0
   40.7167  -26.9658   11.2388 N   0  0  0  0  0  0  0  0  0  0  0  0
   38.7939  -26.8539    9.8250 C   0  0  0  0  0  0  0  0  0  0  0  0
   39.6635  -26.4860    8.9730 O   0  0  0  0  0  0  0  0  0  0  0  0
   37.4568  -27.0000    9.4265 N   0  0  0  0  0  0  0  0  0  0  0  0
   37.0842  -26.8234    8.0515 C   0  0  1  0  0  0  0  0  0  0  0  0
   35.8487  -27.5722    7.6656 C   0  0  0  0  0  0  0  0  0  0  0  0
   35.5049  -27.3310    6.2567 C   0  0  0  0  0  0  0  0  0  0  0  0
   36.1827  -27.8848    5.1790 C   0  0  0  0  0  0  0  0  0  0  0  0
   35.5804  -27.4353    4.0719 N   0  0  0  0  0  0  0  0  0  0  0  0
   34.5591  -26.6276    4.3943 C   0  0  0  0  0  0  0  0  0  0  0  0
   34.5255  -26.5732    5.7562 N   0  0  0  0  0  0  0  0  0  0  0  0
   36.9120  -25.3550    7.7971 C   0  0  0  0  0  0  0  0  0  0  0  0
   37.0692  -24.8824    6.6429 O   0  0  0  0  0  0  0  0  0  0  0  0
   36.5687  -24.4467    8.8277 N   0  0  0  0  0  0  0  0  0  0  0  0
   35.9005  -23.1929    8.5171 C   0  0  1  0  0  0  0  0  0  0  0  0
   34.6088  -23.5845    7.8500 C   0  0  0  0  0  0  0  0  0  0  0  0
   34.4779  -23.0948    6.4839 C   0  0  0  0  0  0  0  0  0  0  0  0
   35.2741  -23.4251    5.3819 C   0  0  0  0  0  0  0  0  0  0  0  0
   34.8424  -22.7414    4.3296 N   0  0  0  0  0  0  0  0  0  0  0  0
   33.7920  -21.9653    4.6678 C   0  0  0  0  0  0  0  0  0  0  0  0
   33.0356  -21.1083    3.8683 C   0  0  0  0  0  0  0  0  0  0  0  0
   31.9909  -20.4425    4.4724 C   0  0  0  0  0  0  0  0  0  0  0  0
   31.7228  -20.6334    5.8219 C   0  0  0  0  0  0  0  0  0  0  0  0
   32.4966  -21.4883    6.5718 C   0  0  0  0  0  0  0  0  0  0  0  0
   33.5578  -22.1746    5.9930 C   0  0  0  0  0  0  0  0  0  0  0  0
   35.7542  -22.2868    9.6289 C   0  0  0  0  0  0  0  0  0  0  0  0
   35.5668  -22.7260   10.7902 O   0  0  0  0  0  0  0  0  0  0  0  0
   35.8141  -20.9096    9.5037 O   0  0  0  0  0  0  0  0  0  0  0  0
  1  2  1  0
  3  2  1  0
  3  4  1  6
  5  7  1  0
  5  3  1  0
  6  5  2  0
  8  7  1  0
  8  9  1  1
 10  9  1  0
 11 10  2  0
 12 13  1  0
 12 11  1  0
 13 14  2  0
 14 10  1  0
 15 17  1  0
 15  8  1  0
 16 15  2  0
 18 17  1  0
 18 29  1  0
 18 19  1  1
 20 19  1  0
 21 20  2  0
 22 23  1  0
 22 21  1  0
 23 28  2  0
 24 23  1  0
 24 25  2  0
 25 26  1  0
 26 27  2  0
 28 20  1  0
 28 27  1  0
 29 31  1  0
 30 29  2  0
M  END
$$$$
