SHW.pdb
     RDKit          3D

 31 33  0  0  1  0  0  0  0  0999 V2000
   24.4664  -33.4333   -6.9765 O   0  0  0  0  0  0  0  0  0  0  0  0
   24.9841  -34.2443   -7.9944 C   0  0  0  0  0  0  0  0  0  0  0  0
   25.7958  -33.3553   -8.9068 C   0  0  2  0  0  0  0  0  0  0  0  0
   26.5685  -32.3670   -8.2131 N   0  0  0  0  0  0  0  0  0  0  0  0
   24.9282  -32.6904   -9.9199 C   0  0  0  0  0  0  0  0  0  0  0  0
   24.8511  -31.4228   -9.8496 O   0  0  0  0  0  0  0  0  0  0  0  0
   24.2128  -33.3705  -10.9166 N   0  0  0  0  0  0  0  0  0  0  0  0
   23.4264  -32.6430  -11.8722 C   0  0  1  0  0  0  0  0  0  0  0  0
   23.6513  -33.0762  -13.2857 C   0  0  0  0  0  0  0  0  0  0  0  0
   24.9904  -32.6854  -13.7498 C   0  0  0  0  0  0  0  0  0  0  0  0
   26.0834  -33.5404  -13.7976 C   0  0  0  0  0  0  0  0  0  0  0  0
   27.1114  -32.8267  -14.2710 N   0  0  0  0  0  0  0  0  0  0  0  0
   26.7247  -31.5674  -14.5242 C   0  0  0  0  0  0  0  0  0  0  0  0
   25.4036  -31.4959  -14.1949 N   0  0  0  0  0  0  0  0  0  0  0  0
   21.9808  -32.7902  -11.4993 C   0  0  0  0  0  0  0  0  0  0  0  0
   21.5568  -33.8578  -10.9888 O   0  0  0  0  0  0  0  0  0  0  0  0
   21.0409  -31.7503  -11.7001 N   0  0  0  0  0  0  0  0  0  0  0  0
   19.6489  -31.9267  -11.3176 C   0  0  1  0  0  0  0  0  0  0  0  0
   19.0443  -30.5488  -11.3686 C   0  0  0  0  0  0  0  0  0  0  0  0
   18.8734  -30.0288  -12.7191 C   0  0  0  0  0  0  0  0  0  0  0  0
   19.5796  -28.9836  -13.3239 C   0  0  0  0  0  0  0  0  0  0  0  0
   19.0996  -28.8028  -14.5478 N   0  0  0  0  0  0  0  0  0  0  0  0
   18.1029  -29.6766  -14.7992 C   0  0  0  0  0  0  0  0  0  0  0  0
   17.3438  -29.8384  -15.9582 C   0  0  0  0  0  0  0  0  0  0  0  0
   16.3915  -30.8347  -15.9529 C   0  0  0  0  0  0  0  0  0  0  0  0
   16.2140  -31.6307  -14.8284 C   0  0  0  0  0  0  0  0  0  0  0  0
   16.9856  -31.4342  -13.7068 C   0  0  0  0  0  0  0  0  0  0  0  0
   17.9543  -30.4377  -13.6796 C   0  0  0  0  0  0  0  0  0  0  0  0
   18.9315  -32.9279  -12.0670 C   0  0  0  0  0  0  0  0  0  0  0  0
   19.4187  -33.4084  -13.1198 O   0  0  0  0  0  0  0  0  0  0  0  0
   17.6951  -33.4226  -11.6900 O   0  0  0  0  0  0  0  0  0  0  0  0
  1  2  1  0
  3  2  1  0
  3  4  1  1
  5  7  1  0
  5  3  1  0
  6  5  2  0
  8  7  1  0
  8  9  1  6
 10  9  1  0
 11 10  2  0
 12 13  1  0
 12 11  1  0
 13 14  2  0
 14 10  1  0
 15 17  1  0
 15  8  1  0
 16 15  2  0
 18 17  1  0
 18 29  1  0
 18 19  1  6
 20 19  1  0
 21 20  2  0
 22 23  1  0
 22 21  1  0
 23 28  2  0
 24 23  1  0
 24 25  2  0
 25 26  1  0
 26 27  2  0
 28 20  1  0
 28 27  1  0
 29 31  1  0
 30 29  2  0
M  END
$$$$
