SHW.pdb
     RDKit          3D

 31 33  0  0  1  0  0  0  0  0999 V2000
   21.9937  -10.6682    6.1286 O   0  0  0  0  0  0  0  0  0  0  0  0
   21.2671  -11.8330    6.4068 C   0  0  0  0  0  0  0  0  0  0  0  0
   19.8238  -11.4276    6.5917 C   0  0  2  0  0  0  0  0  0  0  0  0
   19.5691  -10.7441    7.8258 N   0  0  0  0  0  0  0  0  0  0  0  0
   18.9165  -12.6043    6.4759 C   0  0  0  0  0  0  0  0  0  0  0  0
   18.5871  -13.1702    7.5662 O   0  0  0  0  0  0  0  0  0  0  0  0
   18.4224  -13.1053    5.2623 N   0  0  0  0  0  0  0  0  0  0  0  0
   17.4782  -14.1864    5.2523 C   0  0  1  0  0  0  0  0  0  0  0  0
   16.8572  -14.4259    3.9132 C   0  0  0  0  0  0  0  0  0  0  0  0
   15.8179  -15.4627    3.9922 C   0  0  0  0  0  0  0  0  0  0  0  0
   15.5080  -16.1753    5.1429 C   0  0  0  0  0  0  0  0  0  0  0  0
   14.5199  -17.0180    4.8207 N   0  0  0  0  0  0  0  0  0  0  0  0
   14.1905  -16.8748    3.5283 C   0  0  0  0  0  0  0  0  0  0  0  0
   15.0065  -15.9041    3.0275 N   0  0  0  0  0  0  0  0  0  0  0  0
   18.1752  -15.4224    5.7390 C   0  0  0  0  0  0  0  0  0  0  0  0
   19.2053  -15.8476    5.1573 O   0  0  0  0  0  0  0  0  0  0  0  0
   17.7144  -16.1563    6.8589 N   0  0  0  0  0  0  0  0  0  0  0  0
   18.3828  -17.3816    7.2670 C   0  0  1  0  0  0  0  0  0  0  0  0
   18.9908  -17.0754    8.6099 C   0  0  0  0  0  0  0  0  0  0  0  0
   20.4444  -16.9755    8.5907 C   0  0  0  0  0  0  0  0  0  0  0  0
   21.3363  -17.6998    7.7926 C   0  0  0  0  0  0  0  0  0  0  0  0
   22.5734  -17.3326    8.1023 N   0  0  0  0  0  0  0  0  0  0  0  0
   22.5599  -16.3940    9.0713 C   0  0  0  0  0  0  0  0  0  0  0  0
   23.6305  -15.7317    9.6720 C   0  0  0  0  0  0  0  0  0  0  0  0
   23.3293  -14.7911   10.6333 C   0  0  0  0  0  0  0  0  0  0  0  0
   22.0074  -14.5318   10.9724 C   0  0  0  0  0  0  0  0  0  0  0  0
   20.9834  -15.2105   10.3538 C   0  0  0  0  0  0  0  0  0  0  0  0
   21.2534  -16.1655    9.3805 C   0  0  0  0  0  0  0  0  0  0  0  0
   17.5615  -18.5661    7.2331 C   0  0  0  0  0  0  0  0  0  0  0  0
   17.7356  -19.4386    6.3471 O   0  0  0  0  0  0  0  0  0  0  0  0
   16.5566  -18.8241    8.1493 O   0  0  0  0  0  0  0  0  0  0  0  0
  1  2  1  0
  3  2  1  0
  3  4  1  1
  5  7  1  0
  5  3  1  0
  6  5  2  0
  8  7  1  0
  8  9  1  6
 10  9  1  0
 11 10  2  0
 12 13  1  0
 12 11  1  0
 13 14  2  0
 14 10  1  0
 15 17  1  0
 15  8  1  0
 16 15  2  0
 18 17  1  0
 18 29  1  0
 18 19  1  1
 20 19  1  0
 21 20  2  0
 22 23  1  0
 22 21  1  0
 23 28  2  0
 24 23  1  0
 24 25  2  0
 25 26  1  0
 26 27  2  0
 28 20  1  0
 28 27  1  0
 29 31  1  0
 30 29  2  0
M  END
$$$$
