SHW.pdb
     RDKit          3D

 31 33  0  0  1  0  0  0  0  0999 V2000
   20.4251  -14.7281  -20.2337 O   0  0  0  0  0  0  0  0  0  0  0  0
   20.9171  -14.4291  -21.5107 C   0  0  0  0  0  0  0  0  0  0  0  0
   22.4246  -14.4116  -21.4175 C   0  0  2  0  0  0  0  0  0  0  0  0
   22.9719  -15.5225  -20.6953 N   0  0  0  0  0  0  0  0  0  0  0  0
   22.9108  -13.1371  -20.8171 C   0  0  0  0  0  0  0  0  0  0  0  0
   23.5843  -13.2419  -19.7434 O   0  0  0  0  0  0  0  0  0  0  0  0
   22.6702  -11.8656  -21.3588 N   0  0  0  0  0  0  0  0  0  0  0  0
   23.3066  -10.7056  -20.8022 C   0  0  1  0  0  0  0  0  0  0  0  0
   23.4216   -9.5667  -21.7644 C   0  0  0  0  0  0  0  0  0  0  0  0
   24.2594   -8.4926  -21.2118 C   0  0  0  0  0  0  0  0  0  0  0  0
   25.6328   -8.5853  -21.0296 C   0  0  0  0  0  0  0  0  0  0  0  0
   26.0330   -7.4186  -20.5110 N   0  0  0  0  0  0  0  0  0  0  0  0
   24.9852   -6.5954  -20.3564 C   0  0  0  0  0  0  0  0  0  0  0  0
   23.8902   -7.2780  -20.7968 N   0  0  0  0  0  0  0  0  0  0  0  0
   22.5392  -10.2896  -19.5821 C   0  0  0  0  0  0  0  0  0  0  0  0
   21.3083  -10.5266  -19.4883 O   0  0  0  0  0  0  0  0  0  0  0  0
   23.1550   -9.6224  -18.4955 N   0  0  0  0  0  0  0  0  0  0  0  0
   22.3817   -9.2496  -17.3216 C   0  0  1  0  0  0  0  0  0  0  0  0
   23.3918   -9.0717  -16.2193 C   0  0  0  0  0  0  0  0  0  0  0  0
   22.8790   -8.3549  -15.0589 C   0  0  0  0  0  0  0  0  0  0  0  0
   22.3437   -8.9033  -13.8885 C   0  0  0  0  0  0  0  0  0  0  0  0
   21.9653   -7.9111  -13.0925 N   0  0  0  0  0  0  0  0  0  0  0  0
   22.2201   -6.7183  -13.6689 C   0  0  0  0  0  0  0  0  0  0  0  0
   21.9954   -5.4339  -13.1736 C   0  0  0  0  0  0  0  0  0  0  0  0
   22.3740   -4.3762  -13.9720 C   0  0  0  0  0  0  0  0  0  0  0  0
   22.9528   -4.6055  -15.2138 C   0  0  0  0  0  0  0  0  0  0  0  0
   23.1545   -5.8901  -15.6619 C   0  0  0  0  0  0  0  0  0  0  0  0
   22.7834   -6.9787  -14.8813 C   0  0  0  0  0  0  0  0  0  0  0  0
   21.4891   -8.1327  -17.5072 C   0  0  0  0  0  0  0  0  0  0  0  0
   21.7903   -7.1978  -18.2895 O   0  0  0  0  0  0  0  0  0  0  0  0
   20.2700   -8.0150  -16.8625 O   0  0  0  0  0  0  0  0  0  0  0  0
  1  2  1  0
  3  2  1  0
  3  4  1  1
  5  7  1  0
  5  3  1  0
  6  5  2  0
  8  7  1  0
  8  9  1  6
 10  9  1  0
 11 10  2  0
 12 13  1  0
 12 11  1  0
 13 14  2  0
 14 10  1  0
 15 17  1  0
 15  8  1  0
 16 15  2  0
 18 17  1  0
 18 29  1  0
 18 19  1  1
 20 19  1  0
 21 20  2  0
 22 23  1  0
 22 21  1  0
 23 28  2  0
 24 23  1  0
 24 25  2  0
 25 26  1  0
 26 27  2  0
 28 20  1  0
 28 27  1  0
 29 31  1  0
 30 29  2  0
M  END
$$$$
