SHW.pdb
     RDKit          3D

 31 33  0  0  1  0  0  0  0  0999 V2000
   24.2482  -27.2030  -16.7636 O   0  0  0  0  0  0  0  0  0  0  0  0
   24.9601  -26.9575  -17.9447 C   0  0  0  0  0  0  0  0  0  0  0  0
   26.4192  -26.8397  -17.5724 C   0  0  2  0  0  0  0  0  0  0  0  0
   26.9058  -27.9364  -16.7879 N   0  0  0  0  0  0  0  0  0  0  0  0
   26.6904  -25.5581  -16.8618 C   0  0  0  0  0  0  0  0  0  0  0  0
   27.7900  -25.4887  -16.2266 O   0  0  0  0  0  0  0  0  0  0  0  0
   25.8206  -24.4574  -16.8569 N   0  0  0  0  0  0  0  0  0  0  0  0
   26.2752  -23.1732  -16.4041 C   0  0  1  0  0  0  0  0  0  0  0  0
   26.3336  -22.1435  -17.4869 C   0  0  0  0  0  0  0  0  0  0  0  0
   26.8178  -20.8572  -16.9651 C   0  0  0  0  0  0  0  0  0  0  0  0
   28.1581  -20.5152  -16.8445 C   0  0  0  0  0  0  0  0  0  0  0  0
   28.1966  -19.2779  -16.3368 N   0  0  0  0  0  0  0  0  0  0  0  0
   26.9521  -18.8216  -16.1308 C   0  0  0  0  0  0  0  0  0  0  0  0
   26.1066  -19.8153  -16.5265 N   0  0  0  0  0  0  0  0  0  0  0  0
   25.3729  -22.7209  -15.2943 C   0  0  0  0  0  0  0  0  0  0  0  0
   24.1250  -22.8307  -15.3986 O   0  0  0  0  0  0  0  0  0  0  0  0
   25.8757  -22.1590  -14.0957 N   0  0  0  0  0  0  0  0  0  0  0  0
   24.9686  -21.7040  -13.0540 C   0  0  1  0  0  0  0  0  0  0  0  0
   25.8053  -21.6231  -11.8048 C   0  0  0  0  0  0  0  0  0  0  0  0
   27.0316  -20.8525  -11.9648 C   0  0  0  0  0  0  0  0  0  0  0  0
   27.2048  -19.6709  -12.6934 C   0  0  0  0  0  0  0  0  0  0  0  0
   28.4783  -19.3069  -12.6103 N   0  0  0  0  0  0  0  0  0  0  0  0
   29.1739  -20.1859  -11.8595 C   0  0  0  0  0  0  0  0  0  0  0  0
   30.5239  -20.1713  -11.5091 C   0  0  0  0  0  0  0  0  0  0  0  0
   30.9761  -21.1942  -10.7037 C   0  0  0  0  0  0  0  0  0  0  0  0
   30.1047  -22.1863  -10.2723 C   0  0  0  0  0  0  0  0  0  0  0  0
   28.7807  -22.1605  -10.6440 C   0  0  0  0  0  0  0  0  0  0  0  0
   28.2930  -21.1430  -11.4559 C   0  0  0  0  0  0  0  0  0  0  0  0
   24.2330  -20.5039  -13.3656 C   0  0  0  0  0  0  0  0  0  0  0  0
   24.4879  -19.8513  -14.4077 O   0  0  0  0  0  0  0  0  0  0  0  0
   23.2193  -20.0017  -12.5682 O   0  0  0  0  0  0  0  0  0  0  0  0
  1  2  1  0
  3  2  1  0
  3  4  1  1
  5  7  1  0
  5  3  1  0
  6  5  2  0
  8  7  1  0
  8  9  1  6
 10  9  1  0
 11 10  2  0
 12 13  1  0
 12 11  1  0
 13 14  2  0
 14 10  1  0
 15 17  1  0
 15  8  1  0
 16 15  2  0
 18 17  1  0
 18 29  1  0
 18 19  1  1
 20 19  1  0
 21 20  2  0
 22 23  1  0
 22 21  1  0
 23 28  2  0
 24 23  1  0
 24 25  2  0
 25 26  1  0
 26 27  2  0
 28 20  1  0
 28 27  1  0
 29 31  1  0
 30 29  2  0
M  END
$$$$
