NWV.pdb
     RDKit          3D

 30 31  0  0  1  0  0  0  0  0999 V2000
   12.6332  -16.5139   18.0191 N   0  0  0  0  0  0  0  0  0  0  0  0
   13.0930  -16.6386   19.3751 C   0  0  0  0  0  0  0  0  0  0  0  0
   14.0920  -17.3757   19.5570 O   0  0  0  0  0  0  0  0  0  0  0  0
   12.3929  -15.9162   20.4632 C   0  0  0  0  0  0  0  0  0  0  0  0
   11.9135  -16.9044   21.4945 C   0  0  2  0  0  0  0  0  0  0  0  0
   11.0416  -17.8918   20.9402 N   0  0  0  0  0  0  0  0  0  0  0  0
   11.3033  -16.2934   22.6730 C   0  0  0  0  0  0  0  0  0  0  0  0
   11.8637  -15.2738   23.1839 O   0  0  0  0  0  0  0  0  0  0  0  0
   10.0981  -16.7950   23.2779 N   0  0  0  0  0  0  0  0  0  0  0  0
    9.5821  -16.1087   24.4275 C   0  0  1  0  0  0  0  0  0  0  0  0
    8.0954  -16.2882   24.5848 C   0  0  0  0  0  0  0  0  0  0  0  0
    7.3466  -15.0641   24.2285 C   0  0  0  0  0  0  0  0  0  0  0  0
    6.8379  -14.7929   22.9774 C   0  0  0  0  0  0  0  0  0  0  0  0
    6.2164  -13.6053   22.9910 N   0  0  0  0  0  0  0  0  0  0  0  0
    6.3069  -13.0850   24.2375 C   0  0  0  0  0  0  0  0  0  0  0  0
    5.8300  -11.8954   24.7541 C   0  0  0  0  0  0  0  0  0  0  0  0
    6.0687  -11.6141   26.0818 C   0  0  0  0  0  0  0  0  0  0  0  0
    6.7641  -12.5011   26.8619 C   0  0  0  0  0  0  0  0  0  0  0  0
    7.2429  -13.6941   26.3458 C   0  0  0  0  0  0  0  0  0  0  0  0
    7.0077  -13.9856   25.0114 C   0  0  0  0  0  0  0  0  0  0  0  0
   10.2716  -16.5985   25.6769 C   0  0  0  0  0  0  0  0  0  0  0  0
   10.8562  -17.7107   25.6842 O   0  0  0  0  0  0  0  0  0  0  0  0
    9.6526  -14.9638   29.6374 C   0  0  0  0  0  0  0  0  0  0  0  0
   11.0490  -15.2091   29.1096 C   0  0  2  0  0  0  0  0  0  0  0  0
   11.5940  -13.9317   28.5427 C   0  0  0  0  0  0  0  0  0  0  0  0
   10.9619  -16.3004   28.0470 C   0  0  2  0  0  0  0  0  0  0  0  0
   10.2759  -15.8182   26.8663 N   0  0  0  0  0  0  0  0  0  0  0  0
   10.2769  -17.4958   28.5789 C   0  0  0  0  0  0  0  0  0  0  0  0
    9.0732  -17.7179   28.2717 O   0  0  0  0  0  0  0  0  0  0  0  0
   10.8918  -18.4073   29.4132 O   0  0  0  0  0  0  0  0  0  0  0  0
  2  1  1  0
  2  3  2  0
  4  5  1  0
  4  2  1  0
  5  7  1  0
  5  6  1  6
  7  8  2  0
  9 10  1  0
  9  7  1  0
 11 12  1  0
 10 11  1  1
 12 13  2  0
 14 13  1  0
 15 14  1  0
 16 15  2  0
 17 16  1  0
 18 19  1  0
 18 17  2  0
 19 20  2  0
 20 15  1  0
 20 12  1  0
 21 10  1  0
 21 22  2  0
 24 23  1  6
 24 26  1  0
 25 24  1  0
 26 27  1  6
 26 28  1  0
 27 21  1  0
 28 29  2  0
 28 30  1  0
M  END
$$$$
