NWV.pdb
     RDKit          3D

 30 31  0  0  1  0  0  0  0  0999 V2000
   11.2327  -18.7083   19.3135 N   0  0  0  0  0  0  0  0  0  0  0  0
   11.3065  -17.2738   19.3614 C   0  0  0  0  0  0  0  0  0  0  0  0
   11.3692  -16.6840   18.2557 O   0  0  0  0  0  0  0  0  0  0  0  0
   11.3047  -16.5759   20.6686 C   0  0  0  0  0  0  0  0  0  0  0  0
    9.9992  -16.8356   21.3745 C   0  0  2  0  0  0  0  0  0  0  0  0
    8.8720  -16.3850   20.6203 N   0  0  0  0  0  0  0  0  0  0  0  0
    9.9394  -16.3123   22.7372 C   0  0  0  0  0  0  0  0  0  0  0  0
   10.5682  -15.2401   23.0012 O   0  0  0  0  0  0  0  0  0  0  0  0
    9.2005  -16.9567   23.7902 N   0  0  0  0  0  0  0  0  0  0  0  0
    9.2101  -16.3518   25.0912 C   0  0  1  0  0  0  0  0  0  0  0  0
    7.8996  -16.5207   25.8134 C   0  0  0  0  0  0  0  0  0  0  0  0
    6.9098  -15.4966   25.4164 C   0  0  0  0  0  0  0  0  0  0  0  0
    5.6764  -15.7701   24.8673 C   0  0  0  0  0  0  0  0  0  0  0  0
    5.0270  -14.6231   24.6236 N   0  0  0  0  0  0  0  0  0  0  0  0
    5.8156  -13.5911   25.0050 C   0  0  0  0  0  0  0  0  0  0  0  0
    5.5990  -12.2270   24.9598 C   0  0  0  0  0  0  0  0  0  0  0  0
    6.5899  -11.3895   25.4241 C   0  0  0  0  0  0  0  0  0  0  0  0
    7.7588  -11.9089   25.9170 C   0  0  0  0  0  0  0  0  0  0  0  0
    7.9777  -13.2760   25.9631 C   0  0  0  0  0  0  0  0  0  0  0  0
    6.9867  -14.1261   25.4983 C   0  0  0  0  0  0  0  0  0  0  0  0
   10.3144  -16.9448   25.9310 C   0  0  0  0  0  0  0  0  0  0  0  0
   10.9491  -17.9507   25.5256 O   0  0  0  0  0  0  0  0  0  0  0  0
   10.8947  -15.9205   30.0557 C   0  0  0  0  0  0  0  0  0  0  0  0
   12.0973  -16.0809   29.1520 C   0  0  2  0  0  0  0  0  0  0  0  0
   12.5289  -14.7310   28.6605 C   0  0  0  0  0  0  0  0  0  0  0  0
   11.6958  -16.9944   27.9979 C   0  0  2  0  0  0  0  0  0  0  0  0
   10.6600  -16.3831   27.1914 N   0  0  0  0  0  0  0  0  0  0  0  0
   11.2389  -18.3051   28.5019 C   0  0  0  0  0  0  0  0  0  0  0  0
   10.0097  -18.5903   28.4846 O   0  0  0  0  0  0  0  0  0  0  0  0
   12.0994  -19.2607   29.0034 O   0  0  0  0  0  0  0  0  0  0  0  0
  2  1  1  0
  2  3  2  0
  4  5  1  0
  4  2  1  0
  5  7  1  0
  5  6  1  6
  7  8  2  0
  9 10  1  0
  9  7  1  0
 11 12  1  0
 10 11  1  1
 12 13  2  0
 14 13  1  0
 15 14  1  0
 16 15  2  0
 17 16  1  0
 18 19  1  0
 18 17  2  0
 19 20  2  0
 20 15  1  0
 20 12  1  0
 21 10  1  0
 21 22  2  0
 24 23  1  1
 24 26  1  0
 25 24  1  0
 26 27  1  1
 26 28  1  0
 27 21  1  0
 28 29  2  0
 28 30  1  0
M  END
$$$$
