NWV.pdb
     RDKit          3D

 30 31  0  0  1  0  0  0  0  0999 V2000
   13.4385  -17.8117   19.7758 N   0  0  0  0  0  0  0  0  0  0  0  0
   12.7812  -16.5911   19.3966 C   0  0  0  0  0  0  0  0  0  0  0  0
   12.9108  -16.2397   18.1991 O   0  0  0  0  0  0  0  0  0  0  0  0
   12.0048  -15.8260   20.4005 C   0  0  0  0  0  0  0  0  0  0  0  0
   11.1247  -16.7688   21.1793 C   0  0  2  0  0  0  0  0  0  0  0  0
   10.0519  -17.2898   20.3919 N   0  0  0  0  0  0  0  0  0  0  0  0
   10.6128  -16.2159   22.4310 C   0  0  0  0  0  0  0  0  0  0  0  0
   10.8153  -14.9856   22.6759 O   0  0  0  0  0  0  0  0  0  0  0  0
    9.8906  -17.0024   23.3954 N   0  0  0  0  0  0  0  0  0  0  0  0
    9.4518  -16.3591   24.6005 C   0  0  1  0  0  0  0  0  0  0  0  0
    8.0533  -16.7596   24.9895 C   0  0  0  0  0  0  0  0  0  0  0  0
    7.0863  -15.6572   24.8007 C   0  0  0  0  0  0  0  0  0  0  0  0
    5.9861  -15.7128   23.9737 C   0  0  0  0  0  0  0  0  0  0  0  0
    5.3194  -14.5514   24.0314 N   0  0  0  0  0  0  0  0  0  0  0  0
    5.9649  -13.7253   24.8877 C   0  0  0  0  0  0  0  0  0  0  0  0
    5.6759  -12.4331   25.2833 C   0  0  0  0  0  0  0  0  0  0  0  0
    6.5178  -11.8191   26.1851 C   0  0  0  0  0  0  0  0  0  0  0  0
    7.6131  -12.4845   26.6714 C   0  0  0  0  0  0  0  0  0  0  0  0
    7.9044  -13.7798   26.2760 C   0  0  0  0  0  0  0  0  0  0  0  0
    7.0633  -14.4054   25.3694 C   0  0  0  0  0  0  0  0  0  0  0  0
   10.3908  -16.6867   25.7350 C   0  0  0  0  0  0  0  0  0  0  0  0
   11.1024  -17.7214   25.6908 O   0  0  0  0  0  0  0  0  0  0  0  0
   10.1067  -14.9271   29.6397 C   0  0  0  0  0  0  0  0  0  0  0  0
   11.4625  -15.0562   28.9811 C   0  0  2  0  0  0  0  0  0  0  0  0
   11.8210  -13.7533   28.3299 C   0  0  0  0  0  0  0  0  0  0  0  0
   11.3806  -16.1875   27.9608 C   0  0  2  0  0  0  0  0  0  0  0  0
   10.4915  -15.8382   26.8723 N   0  0  0  0  0  0  0  0  0  0  0  0
   10.9300  -17.4393   28.6019 C   0  0  0  0  0  0  0  0  0  0  0  0
    9.7313  -17.8131   28.4751 O   0  0  0  0  0  0  0  0  0  0  0  0
   11.7643  -18.2447   29.3504 O   0  0  0  0  0  0  0  0  0  0  0  0
  2  1  1  0
  2  3  2  0
  4  5  1  0
  4  2  1  0
  5  7  1  0
  5  6  1  6
  7  8  2  0
  9 10  1  0
  9  7  1  0
 11 12  1  0
 10 11  1  1
 12 13  2  0
 14 13  1  0
 15 14  1  0
 16 15  2  0
 17 16  1  0
 18 19  1  0
 18 17  2  0
 19 20  2  0
 20 15  1  0
 20 12  1  0
 21 10  1  0
 21 22  2  0
 24 23  1  6
 24 26  1  0
 25 24  1  0
 26 27  1  6
 26 28  1  0
 27 21  1  0
 28 29  2  0
 28 30  1  0
M  END
$$$$
