NWV.pdb
     RDKit          3D

 30 31  0  0  1  0  0  0  0  0999 V2000
    8.1734  -16.3522   17.9809 N   0  0  0  0  0  0  0  0  0  0  0  0
    7.9192  -15.0510   18.5356 C   0  0  0  0  0  0  0  0  0  0  0  0
    7.4732  -14.1869   17.7427 O   0  0  0  0  0  0  0  0  0  0  0  0
    8.1847  -14.7936   19.9706 C   0  0  0  0  0  0  0  0  0  0  0  0
    8.6480  -16.0659   20.6315 C   0  0  2  0  0  0  0  0  0  0  0  0
    7.6295  -17.0680   20.6602 N   0  0  0  0  0  0  0  0  0  0  0  0
    9.2121  -15.8779   21.9660 C   0  0  0  0  0  0  0  0  0  0  0  0
   10.2881  -15.2116   22.0791 O   0  0  0  0  0  0  0  0  0  0  0  0
    8.6029  -16.4130   23.1546 N   0  0  0  0  0  0  0  0  0  0  0  0
    9.3219  -16.3029   24.3913 C   0  0  1  0  0  0  0  0  0  0  0  0
    8.4140  -16.3609   25.5912 C   0  0  0  0  0  0  0  0  0  0  0  0
    7.4130  -15.2727   25.5842 C   0  0  0  0  0  0  0  0  0  0  0  0
    6.0622  -15.4518   25.3822 C   0  0  0  0  0  0  0  0  0  0  0  0
    5.4371  -14.2673   25.4370 N   0  0  0  0  0  0  0  0  0  0  0  0
    6.3581  -13.3037   25.6733 C   0  0  0  0  0  0  0  0  0  0  0  0
    6.2156  -11.9366   25.8155 C   0  0  0  0  0  0  0  0  0  0  0  0
    7.3426  -11.1810   26.0563 C   0  0  0  0  0  0  0  0  0  0  0  0
    8.5707  -11.7824   26.1504 C   0  0  0  0  0  0  0  0  0  0  0  0
    8.7155  -13.1527   26.0082 C   0  0  0  0  0  0  0  0  0  0  0  0
    7.5876  -13.9209   25.7658 C   0  0  0  0  0  0  0  0  0  0  0  0
   10.3461  -17.4058   24.4959 C   0  0  0  0  0  0  0  0  0  0  0  0
   10.0433  -18.5845   24.1827 O   0  0  0  0  0  0  0  0  0  0  0  0
   14.4965  -16.6421   25.0902 C   0  0  0  0  0  0  0  0  0  0  0  0
   13.9426  -17.8801   24.4197 C   0  0  2  0  0  0  0  0  0  0  0  0
   13.7616  -17.6094   22.9555 C   0  0  0  0  0  0  0  0  0  0  0  0
   12.6173  -18.2229   25.0933 C   0  0  2  0  0  0  0  0  0  0  0  0
   11.6683  -17.1388   24.9478 N   0  0  0  0  0  0  0  0  0  0  0  0
   12.8207  -18.5305   26.5232 C   0  0  0  0  0  0  0  0  0  0  0  0
   13.4828  -19.5516   26.8575 O   0  0  0  0  0  0  0  0  0  0  0  0
   12.3164  -17.7467   27.5413 O   0  0  0  0  0  0  0  0  0  0  0  0
  2  1  1  0
  2  3  2  0
  4  5  1  0
  4  2  1  0
  5  7  1  0
  5  6  1  1
  7  8  2  0
  9 10  1  0
  9  7  1  0
 11 12  1  0
 10 11  1  1
 12 13  2  0
 14 13  1  0
 15 14  1  0
 16 15  2  0
 17 16  1  0
 18 19  1  0
 18 17  2  0
 19 20  2  0
 20 15  1  0
 20 12  1  0
 21 10  1  0
 21 22  2  0
 24 23  1  1
 24 26  1  0
 25 24  1  0
 26 27  1  1
 26 28  1  0
 27 21  1  0
 28 29  2  0
 28 30  1  0
M  END
$$$$
