NWV.pdb
     RDKit          3D

 30 31  0  0  1  0  0  0  0  0999 V2000
   12.7575  -17.8389   19.2425 N   0  0  0  0  0  0  0  0  0  0  0  0
   12.0568  -16.6159   18.9616 C   0  0  0  0  0  0  0  0  0  0  0  0
   12.2788  -16.0933   17.8427 O   0  0  0  0  0  0  0  0  0  0  0  0
   11.1333  -16.0439   19.9695 C   0  0  0  0  0  0  0  0  0  0  0  0
   11.0420  -16.9737   21.1515 C   0  0  2  0  0  0  0  0  0  0  0  0
   10.3213  -18.1704   20.8499 N   0  0  0  0  0  0  0  0  0  0  0  0
   10.5107  -16.3537   22.3631 C   0  0  0  0  0  0  0  0  0  0  0  0
   10.8551  -15.1606   22.6325 O   0  0  0  0  0  0  0  0  0  0  0  0
    9.6163  -17.0340   23.2615 N   0  0  0  0  0  0  0  0  0  0  0  0
    9.1547  -16.3261   24.4210 C   0  0  1  0  0  0  0  0  0  0  0  0
    7.7998  -16.7964   24.8801 C   0  0  0  0  0  0  0  0  0  0  0  0
    6.8249  -15.6879   24.9626 C   0  0  0  0  0  0  0  0  0  0  0  0
    5.5219  -15.7558   24.5210 C   0  0  0  0  0  0  0  0  0  0  0  0
    4.9092  -14.5843   24.7420 N   0  0  0  0  0  0  0  0  0  0  0  0
    5.7911  -13.7394   25.3257 C   0  0  0  0  0  0  0  0  0  0  0  0
    5.6427  -12.4312   25.7458 C   0  0  0  0  0  0  0  0  0  0  0  0
    6.7249  -11.7994   26.3190 C   0  0  0  0  0  0  0  0  0  0  0  0
    7.9155  -12.4631   26.4639 C   0  0  0  0  0  0  0  0  0  0  0  0
    8.0661  -13.7744   26.0434 C   0  0  0  0  0  0  0  0  0  0  0  0
    6.9831  -14.4180   25.4657 C   0  0  0  0  0  0  0  0  0  0  0  0
   10.1400  -16.4853   25.5525 C   0  0  0  0  0  0  0  0  0  0  0  0
   11.0479  -17.3513   25.4858 O   0  0  0  0  0  0  0  0  0  0  0  0
   10.9587  -13.4552   28.2822 C   0  0  0  0  0  0  0  0  0  0  0  0
   10.7801  -14.8249   28.8991 C   0  0  2  0  0  0  0  0  0  0  0  0
   11.7642  -14.9942   30.0186 C   0  0  0  0  0  0  0  0  0  0  0  0
   10.9965  -15.8631   27.8023 C   0  0  2  0  0  0  0  0  0  0  0  0
   10.0644  -15.6647   26.7120 N   0  0  0  0  0  0  0  0  0  0  0  0
   10.8619  -17.2311   28.3421 C   0  0  0  0  0  0  0  0  0  0  0  0
    9.7192  -17.7579   28.4388 O   0  0  0  0  0  0  0  0  0  0  0  0
   11.9399  -17.9863   28.7575 O   0  0  0  0  0  0  0  0  0  0  0  0
  2  1  1  0
  2  3  2  0
  4  5  1  0
  4  2  1  0
  5  7  1  0
  5  6  1  6
  7  8  2  0
  9 10  1  0
  9  7  1  0
 11 12  1  0
 10 11  1  1
 12 13  2  0
 14 13  1  0
 15 14  1  0
 16 15  2  0
 17 16  1  0
 18 19  1  0
 18 17  2  0
 19 20  2  0
 20 15  1  0
 20 12  1  0
 21 10  1  0
 21 22  2  0
 24 23  1  6
 24 26  1  0
 25 24  1  0
 26 27  1  6
 26 28  1  0
 27 21  1  0
 28 29  2  0
 28 30  1  0
M  END
$$$$
