NWV.pdb
     RDKit          3D

 30 31  0  0  1  0  0  0  0  0999 V2000
   14.3822  -18.3359   19.9811 N   0  0  0  0  0  0  0  0  0  0  0  0
   14.0092  -16.9830   19.6712 C   0  0  0  0  0  0  0  0  0  0  0  0
   14.3391  -16.5624   18.5360 O   0  0  0  0  0  0  0  0  0  0  0  0
   13.2759  -16.1703   20.6700 C   0  0  0  0  0  0  0  0  0  0  0  0
   11.9807  -16.8552   21.0211 C   0  0  2  0  0  0  0  0  0  0  0  0
   11.1818  -17.1352   19.8696 N   0  0  0  0  0  0  0  0  0  0  0  0
   11.1876  -16.1579   22.0309 C   0  0  0  0  0  0  0  0  0  0  0  0
   11.6264  -15.0575   22.4902 O   0  0  0  0  0  0  0  0  0  0  0  0
    9.9343  -16.6623   22.5257 N   0  0  0  0  0  0  0  0  0  0  0  0
    9.2948  -15.9522   23.5960 C   0  0  1  0  0  0  0  0  0  0  0  0
    7.8037  -16.1613   23.6144 C   0  0  0  0  0  0  0  0  0  0  0  0
    7.1383  -15.3305   24.6405 C   0  0  0  0  0  0  0  0  0  0  0  0
    6.4898  -15.8258   25.7503 C   0  0  0  0  0  0  0  0  0  0  0  0
    5.9979  -14.8114   26.4754 N   0  0  0  0  0  0  0  0  0  0  0  0
    6.3128  -13.6479   25.8593 C   0  0  0  0  0  0  0  0  0  0  0  0
    6.0359  -12.3398   26.2083 C   0  0  0  0  0  0  0  0  0  0  0  0
    6.4864  -11.3314   25.3842 C   0  0  0  0  0  0  0  0  0  0  0  0
    7.1916  -11.6310   24.2476 C   0  0  0  0  0  0  0  0  0  0  0  0
    7.4701  -12.9417   23.8961 C   0  0  0  0  0  0  0  0  0  0  0  0
    7.0211  -13.9626   24.7189 C   0  0  0  0  0  0  0  0  0  0  0  0
    9.8687  -16.3862   24.9222 C   0  0  0  0  0  0  0  0  0  0  0  0
   10.4210  -17.5089   25.0374 O   0  0  0  0  0  0  0  0  0  0  0  0
   10.7516  -13.4864   27.8062 C   0  0  0  0  0  0  0  0  0  0  0  0
   10.3193  -14.8304   28.3498 C   0  0  2  0  0  0  0  0  0  0  0  0
   11.1144  -15.1430   29.5828 C   0  0  0  0  0  0  0  0  0  0  0  0
   10.5478  -15.8714   27.2581 C   0  0  2  0  0  0  0  0  0  0  0  0
    9.7983  -15.5406   26.0639 N   0  0  0  0  0  0  0  0  0  0  0  0
   10.1756  -17.2191   27.7334 C   0  0  0  0  0  0  0  0  0  0  0  0
   10.8896  -17.7992   28.5975 O   0  0  0  0  0  0  0  0  0  0  0  0
    9.0645  -17.8986   27.2765 O   0  0  0  0  0  0  0  0  0  0  0  0
  2  1  1  0
  2  3  2  0
  4  5  1  0
  4  2  1  0
  5  7  1  0
  5  6  1  6
  7  8  2  0
  9 10  1  0
  9  7  1  0
 11 12  1  0
 10 11  1  1
 12 13  2  0
 14 13  1  0
 15 14  1  0
 16 15  2  0
 17 16  1  0
 18 19  1  0
 18 17  2  0
 19 20  2  0
 20 15  1  0
 20 12  1  0
 21 10  1  0
 21 22  2  0
 24 23  1  6
 24 26  1  0
 25 24  1  0
 26 27  1  6
 26 28  1  0
 27 21  1  0
 28 29  2  0
 28 30  1  0
M  END
$$$$
