NWV.pdb
     RDKit          3D

 30 31  0  0  1  0  0  0  0  0999 V2000
    8.5553  -17.3739   17.8894 N   0  0  0  0  0  0  0  0  0  0  0  0
    8.1850  -16.0077   18.1383 C   0  0  0  0  0  0  0  0  0  0  0  0
    7.8943  -15.3189   17.1306 O   0  0  0  0  0  0  0  0  0  0  0  0
    8.1621  -15.4882   19.5259 C   0  0  0  0  0  0  0  0  0  0  0  0
    8.4833  -16.6047   20.4852 C   0  0  2  0  0  0  0  0  0  0  0  0
    7.3571  -17.4473   20.7385 N   0  0  0  0  0  0  0  0  0  0  0  0
    9.0784  -16.1618   21.7439 C   0  0  0  0  0  0  0  0  0  0  0  0
   10.0276  -15.3182   21.7000 O   0  0  0  0  0  0  0  0  0  0  0  0
    8.6365  -16.6382   23.0276 N   0  0  0  0  0  0  0  0  0  0  0  0
    9.4001  -16.2698   24.1851 C   0  0  1  0  0  0  0  0  0  0  0  0
    8.6108  -16.4024   25.4606 C   0  0  0  0  0  0  0  0  0  0  0  0
    7.5359  -15.3918   25.5569 C   0  0  0  0  0  0  0  0  0  0  0  0
    6.1921  -15.6614   25.4191 C   0  0  0  0  0  0  0  0  0  0  0  0
    5.4881  -14.5297   25.5614 N   0  0  0  0  0  0  0  0  0  0  0  0
    6.3497  -13.5115   25.7924 C   0  0  0  0  0  0  0  0  0  0  0  0
    6.1182  -12.1658   26.0046 C   0  0  0  0  0  0  0  0  0  0  0  0
    7.2001  -11.3398   26.2196 C   0  0  0  0  0  0  0  0  0  0  0  0
    8.4714  -11.8523   26.2205 C   0  0  0  0  0  0  0  0  0  0  0  0
    8.7054  -13.2010   26.0079 C   0  0  0  0  0  0  0  0  0  0  0  0
    7.6234  -14.0396   25.7909 C   0  0  0  0  0  0  0  0  0  0  0  0
   10.6395  -17.1248   24.2827 C   0  0  0  0  0  0  0  0  0  0  0  0
   10.5691  -18.3666   24.1041 O   0  0  0  0  0  0  0  0  0  0  0  0
   14.0136  -15.9746   22.7561 C   0  0  0  0  0  0  0  0  0  0  0  0
   14.3133  -16.5584   24.1193 C   0  0  2  0  0  0  0  0  0  0  0  0
   15.5435  -17.4121   24.0310 C   0  0  0  0  0  0  0  0  0  0  0  0
   13.0985  -17.3713   24.5566 C   0  0  2  0  0  0  0  0  0  0  0  0
   11.9066  -16.5490   24.5766 N   0  0  0  0  0  0  0  0  0  0  0  0
   13.3222  -17.9728   25.8867 C   0  0  0  0  0  0  0  0  0  0  0  0
   12.9023  -17.3833   26.9206 O   0  0  0  0  0  0  0  0  0  0  0  0
   13.9800  -19.1723   26.0698 O   0  0  0  0  0  0  0  0  0  0  0  0
  2  1  1  0
  2  3  2  0
  4  5  1  0
  4  2  1  0
  5  7  1  0
  5  6  1  1
  7  8  2  0
  9 10  1  0
  9  7  1  0
 11 12  1  0
 10 11  1  1
 12 13  2  0
 14 13  1  0
 15 14  1  0
 16 15  2  0
 17 16  1  0
 18 19  1  0
 18 17  2  0
 19 20  2  0
 20 15  1  0
 20 12  1  0
 21 10  1  0
 21 22  2  0
 24 23  1  6
 24 26  1  0
 25 24  1  0
 26 27  1  1
 26 28  1  0
 27 21  1  0
 28 29  2  0
 28 30  1  0
M  END
$$$$
