VTC.pdb
     RDKit          3D

 21 20  0  0  1  0  0  0  0  0999 V2000
   19.9631  -10.2717  -21.0630 C   0  0  0  0  0  0  0  0  0  0  0  0
   20.9484  -11.1298  -20.3336 C   0  0  2  0  0  0  0  0  0  0  0  0
   20.5064  -12.5676  -20.4605 C   0  0  0  0  0  0  0  0  0  0  0  0
   21.0430  -10.8039  -18.8667 C   0  0  2  0  0  0  0  0  0  0  0  0
   19.7837  -10.7760  -18.2004 N   0  0  0  0  0  0  0  0  0  0  0  0
   21.7660   -9.5151  -18.7205 C   0  0  0  0  0  0  0  0  0  0  0  0
   22.9641   -9.3619  -19.0500 O   0  0  0  0  0  0  0  0  0  0  0  0
   22.2156   -7.0098  -20.5335 C   0  0  0  0  0  0  0  0  0  0  0  0
   21.4575   -6.3829  -19.3860 C   0  0  1  0  0  0  0  0  0  0  0  0
   20.0928   -6.6519  -19.6802 O   0  0  0  0  0  0  0  0  0  0  0  0
   21.7299   -7.0946  -18.0973 C   0  0  2  0  0  0  0  0  0  0  0  0
   21.0690   -8.4138  -18.1854 N   0  0  0  0  0  0  0  0  0  0  0  0
   21.2606   -6.4519  -16.8772 C   0  0  0  0  0  0  0  0  0  0  0  0
   20.0133   -6.6031  -16.5893 O   0  0  0  0  0  0  0  0  0  0  0  0
   22.0439   -5.6813  -15.9819 N   0  0  0  0  0  0  0  0  0  0  0  0
   21.4615   -5.1097  -14.8174 C   0  0  1  0  0  0  0  0  0  0  0  0
   22.2156   -5.5468  -13.5518 C   0  0  0  0  0  0  0  0  0  0  0  0
   22.0588   -7.3551  -13.4753 S   0  0  0  0  0  0  0  0  0  0  0  0
   21.3414   -3.6427  -14.8642 C   0  0  0  0  0  0  0  0  0  0  0  0
   20.6455   -2.9844  -13.8805 O   0  0  0  0  0  0  0  0  0  0  0  0
   21.8667   -3.0004  -15.7889 O   0  0  0  0  0  0  0  0  0  0  0  0
  2  1  1  6
  2  3  1  0
  4  2  1  0
  4  5  1  6
  6  4  1  0
  6 12  1  0
  7  6  2  0
  9  8  1  6
  9 11  1  0
 10  9  1  0
 11 12  1  6
 11 13  1  0
 13 15  1  0
 14 13  2  0
 15 16  1  0
 16 17  1  1
 17 18  1  0
 19 16  1  0
 19 20  1  0
 21 19  2  0
M  END
$$$$
