VTC.pdb
     RDKit          3D

 21 20  0  0  1  0  0  0  0  0999 V2000
    9.2317  -10.3188   -8.7305 C   0  0  0  0  0  0  0  0  0  0  0  0
   10.6360  -10.2760   -9.2455 C   0  0  2  0  0  0  0  0  0  0  0  0
   11.0723   -8.8321   -9.3060 C   0  0  0  0  0  0  0  0  0  0  0  0
   10.7763  -10.8586  -10.6267 C   0  0  2  0  0  0  0  0  0  0  0  0
   10.3306  -12.2081  -10.7308 N   0  0  0  0  0  0  0  0  0  0  0  0
   12.1924  -10.7179  -11.0511 C   0  0  0  0  0  0  0  0  0  0  0  0
   13.0752  -11.5630  -10.7787 O   0  0  0  0  0  0  0  0  0  0  0  0
   13.4148  -10.9404  -14.2580 C   0  0  0  0  0  0  0  0  0  0  0  0
   13.8265   -9.5530  -13.8218 C   0  0  1  0  0  0  0  0  0  0  0  0
   12.7194   -8.7331  -14.1733 O   0  0  0  0  0  0  0  0  0  0  0  0
   13.9299   -9.4568  -12.3314 C   0  0  2  0  0  0  0  0  0  0  0  0
   12.5578   -9.5788  -11.7953 N   0  0  0  0  0  0  0  0  0  0  0  0
   14.5037   -8.2332  -11.7878 C   0  0  0  0  0  0  0  0  0  0  0  0
   13.7388   -7.1957  -11.7716 O   0  0  0  0  0  0  0  0  0  0  0  0
   15.8168   -8.0786  -11.2771 N   0  0  0  0  0  0  0  0  0  0  0  0
   16.2760   -6.8089  -10.8312 C   0  0  1  0  0  0  0  0  0  0  0  0
   17.3032   -6.9600   -9.6984 C   0  0  0  0  0  0  0  0  0  0  0  0
   16.4539   -7.8622   -8.3699 S   0  0  0  0  0  0  0  0  0  0  0  0
   16.8140   -5.9544  -11.9033 C   0  0  0  0  0  0  0  0  0  0  0  0
   16.9913   -6.4720  -13.1626 O   0  0  0  0  0  0  0  0  0  0  0  0
   17.1071   -4.7694  -11.6722 O   0  0  0  0  0  0  0  0  0  0  0  0
  2  1  1  6
  2  3  1  0
  4  2  1  0
  4  5  1  1
  6  4  1  0
  6 12  1  0
  7  6  2  0
  9  8  1  1
  9 11  1  0
 10  9  1  0
 11 12  1  1
 11 13  1  0
 13 15  1  0
 14 13  2  0
 15 16  1  0
 16 17  1  1
 17 18  1  0
 19 16  1  0
 19 20  1  0
 21 19  2  0
M  END
$$$$
