VTC.pdb
     RDKit          3D

 21 20  0  0  1  0  0  0  0  0999 V2000
   15.0720  -15.0031  -16.6235 C   0  0  0  0  0  0  0  0  0  0  0  0
   16.2999  -14.1864  -16.8774 C   0  0  2  0  0  0  0  0  0  0  0  0
   17.4874  -15.1178  -16.9096 C   0  0  0  0  0  0  0  0  0  0  0  0
   16.5526  -13.1532  -15.8118 C   0  0  2  0  0  0  0  0  0  0  0  0
   15.4863  -12.2224  -15.6474 N   0  0  0  0  0  0  0  0  0  0  0  0
   17.8326  -12.4669  -16.1213 C   0  0  0  0  0  0  0  0  0  0  0  0
   18.9410  -13.0490  -16.1091 O   0  0  0  0  0  0  0  0  0  0  0  0
   19.4005  -11.2433  -18.9812 C   0  0  0  0  0  0  0  0  0  0  0  0
   19.0939  -10.0242  -18.1418 C   0  0  1  0  0  0  0  0  0  0  0  0
   17.7546   -9.6920  -18.4841 O   0  0  0  0  0  0  0  0  0  0  0  0
   19.0555  -10.3604  -16.6834 C   0  0  2  0  0  0  0  0  0  0  0  0
   17.7959  -11.0958  -16.4436 N   0  0  0  0  0  0  0  0  0  0  0  0
   19.0940   -9.2443  -15.7482 C   0  0  0  0  0  0  0  0  0  0  0  0
   17.9805   -8.6298  -15.5380 O   0  0  0  0  0  0  0  0  0  0  0  0
   20.2353   -8.7746  -15.0511 N   0  0  0  0  0  0  0  0  0  0  0  0
   20.1327   -7.6835  -14.1451 C   0  0  1  0  0  0  0  0  0  0  0  0
   20.7276   -8.0456  -12.7754 C   0  0  0  0  0  0  0  0  0  0  0  0
   19.5811   -9.2431  -12.0326 S   0  0  0  0  0  0  0  0  0  0  0  0
   20.7203   -6.4295  -14.6463 C   0  0  0  0  0  0  0  0  0  0  0  0
   20.4827   -5.2522  -13.9810 O   0  0  0  0  0  0  0  0  0  0  0  0
   21.4287   -6.4337  -15.6670 O   0  0  0  0  0  0  0  0  0  0  0  0
  2  1  1  1
  2  3  1  0
  4  2  1  0
  4  5  1  6
  6  4  1  0
  6 12  1  0
  7  6  2  0
  9  8  1  6
  9 11  1  0
 10  9  1  0
 11 12  1  6
 11 13  1  0
 13 15  1  0
 14 13  2  0
 15 16  1  0
 16 17  1  1
 17 18  1  0
 19 16  1  0
 19 20  1  0
 21 19  2  0
M  END
$$$$
