VTC.pdb
     RDKit          3D

 21 20  0  0  1  0  0  0  0  0999 V2000
   18.2981  -12.4656  -14.5361 C   0  0  0  0  0  0  0  0  0  0  0  0
   17.7838  -12.2675  -15.9273 C   0  0  2  0  0  0  0  0  0  0  0  0
   16.4942  -13.0395  -16.0677 C   0  0  0  0  0  0  0  0  0  0  0  0
   18.7350  -12.7619  -16.9844 C   0  0  2  0  0  0  0  0  0  0  0  0
   18.9369  -14.1723  -16.9637 N   0  0  0  0  0  0  0  0  0  0  0  0
   20.0166  -12.0255  -16.8405 C   0  0  0  0  0  0  0  0  0  0  0  0
   21.0063  -12.4884  -16.2290 O   0  0  0  0  0  0  0  0  0  0  0  0
   22.2293  -11.0663  -19.4226 C   0  0  0  0  0  0  0  0  0  0  0  0
   21.8578   -9.7686  -18.7424 C   0  0  1  0  0  0  0  0  0  0  0  0
   20.7056   -9.3227  -19.4458 O   0  0  0  0  0  0  0  0  0  0  0  0
   21.3957  -10.0008  -17.3374 C   0  0  2  0  0  0  0  0  0  0  0  0
   20.1217  -10.7457  -17.4202 N   0  0  0  0  0  0  0  0  0  0  0  0
   21.1585   -8.8202  -16.5177 C   0  0  0  0  0  0  0  0  0  0  0  0
   19.9283   -8.5394  -16.2540 O   0  0  0  0  0  0  0  0  0  0  0  0
   22.1489   -7.9573  -15.9855 N   0  0  0  0  0  0  0  0  0  0  0  0
   21.7808   -6.8160  -15.2213 C   0  0  1  0  0  0  0  0  0  0  0  0
   22.5729   -6.7535  -13.9060 C   0  0  0  0  0  0  0  0  0  0  0  0
   22.0585   -5.2170  -13.0847 S   0  0  0  0  0  0  0  0  0  0  0  0
   21.8943   -5.5421  -15.9516 C   0  0  0  0  0  0  0  0  0  0  0  0
   21.0264   -4.5160  -15.6703 O   0  0  0  0  0  0  0  0  0  0  0  0
   22.7708   -5.3936  -16.8194 O   0  0  0  0  0  0  0  0  0  0  0  0
  2  1  1  1
  2  3  1  0
  4  2  1  0
  4  5  1  1
  6  4  1  0
  6 12  1  0
  7  6  2  0
  9  8  1  6
  9 11  1  0
 10  9  1  0
 11 12  1  6
 11 13  1  0
 13 15  1  0
 14 13  2  0
 15 16  1  0
 16 17  1  1
 17 18  1  0
 19 16  1  0
 19 20  1  0
 21 19  2  0
M  END
$$$$
