VTC.pdb
     RDKit          3D

 21 20  0  0  1  0  0  0  0  0999 V2000
   29.8437  -20.9514  -18.8365 C   0  0  0  0  0  0  0  0  0  0  0  0
   29.5566  -22.2007  -18.0647 C   0  0  2  0  0  0  0  0  0  0  0  0
   29.7805  -23.3814  -18.9783 C   0  0  0  0  0  0  0  0  0  0  0  0
   28.1399  -22.2703  -17.5596 C   0  0  2  0  0  0  0  0  0  0  0  0
   27.7306  -21.1159  -16.8314 N   0  0  0  0  0  0  0  0  0  0  0  0
   27.9932  -23.5063  -16.7497 C   0  0  0  0  0  0  0  0  0  0  0  0
   27.8398  -23.4955  -15.5071 O   0  0  0  0  0  0  0  0  0  0  0  0
   25.8981  -24.4914  -15.6077 C   0  0  0  0  0  0  0  0  0  0  0  0
   26.1112  -25.7590  -16.4029 C   0  0  1  0  0  0  0  0  0  0  0  0
   25.4881  -25.4961  -17.6534 O   0  0  0  0  0  0  0  0  0  0  0  0
   27.5592  -25.9678  -16.7209 C   0  0  2  0  0  0  0  0  0  0  0  0
   28.0287  -24.7489  -17.4127 N   0  0  0  0  0  0  0  0  0  0  0  0
   27.8909  -27.1056  -17.5678 C   0  0  0  0  0  0  0  0  0  0  0  0
   27.7594  -26.9355  -18.8388 O   0  0  0  0  0  0  0  0  0  0  0  0
   28.3431  -28.3744  -17.1268 N   0  0  0  0  0  0  0  0  0  0  0  0
   28.7302  -29.3715  -18.0639 C   0  0  1  0  0  0  0  0  0  0  0  0
   29.8303  -30.2751  -17.4854 C   0  0  0  0  0  0  0  0  0  0  0  0
   31.2028  -29.1710  -17.0413 S   0  0  0  0  0  0  0  0  0  0  0  0
   27.6121  -30.1833  -18.5733 C   0  0  0  0  0  0  0  0  0  0  0  0
   27.8441  -31.1346  -19.5359 O   0  0  0  0  0  0  0  0  0  0  0  0
   26.4623  -30.0105  -18.1357 O   0  0  0  0  0  0  0  0  0  0  0  0
  2  1  1  6
  2  3  1  0
  4  2  1  0
  4  5  1  1
  6  4  1  0
  6 12  1  0
  7  6  2  0
  9  8  1  1
  9 11  1  0
 10  9  1  0
 11 12  1  6
 11 13  1  0
 13 15  1  0
 14 13  2  0
 15 16  1  0
 16 17  1  1
 17 18  1  0
 19 16  1  0
 19 20  1  0
 21 19  2  0
M  END
$$$$
