VTC.pdb
     RDKit          3D

 21 20  0  0  1  0  0  0  0  0999 V2000
   18.9417  -11.2353  -14.8050 C   0  0  0  0  0  0  0  0  0  0  0  0
   18.4872  -11.2017  -16.2303 C   0  0  2  0  0  0  0  0  0  0  0  0
   17.3330  -12.1631  -16.3800 C   0  0  0  0  0  0  0  0  0  0  0  0
   19.5605  -11.6144  -17.2022 C   0  0  2  0  0  0  0  0  0  0  0  0
   19.8508  -13.0093  -17.1818 N   0  0  0  0  0  0  0  0  0  0  0  0
   20.7731  -10.8011  -16.9316 C   0  0  0  0  0  0  0  0  0  0  0  0
   21.7505  -11.2279  -16.2757 O   0  0  0  0  0  0  0  0  0  0  0  0
   23.0959   -9.4812  -19.2864 C   0  0  0  0  0  0  0  0  0  0  0  0
   22.5607   -8.2755  -18.5485 C   0  0  1  0  0  0  0  0  0  0  0  0
   21.4265   -7.8765  -19.3072 O   0  0  0  0  0  0  0  0  0  0  0  0
   22.0216   -8.6527  -17.2037 C   0  0  2  0  0  0  0  0  0  0  0  0
   20.8243   -9.4873  -17.4378 N   0  0  0  0  0  0  0  0  0  0  0  0
   21.6279   -7.5623  -16.3217 C   0  0  0  0  0  0  0  0  0  0  0  0
   20.3660   -7.3108  -16.2442 O   0  0  0  0  0  0  0  0  0  0  0  0
   22.4983   -6.7577  -15.5445 N   0  0  0  0  0  0  0  0  0  0  0  0
   21.9844   -5.7088  -14.7335 C   0  0  1  0  0  0  0  0  0  0  0  0
   22.5918   -5.7539  -13.3227 C   0  0  0  0  0  0  0  0  0  0  0  0
   21.8799   -4.3435  -12.4261 S   0  0  0  0  0  0  0  0  0  0  0  0
   22.1398   -4.3662  -15.3183 C   0  0  0  0  0  0  0  0  0  0  0  0
   21.1072   -3.4648  -15.2388 O   0  0  0  0  0  0  0  0  0  0  0  0
   23.2001   -4.0475  -15.8820 O   0  0  0  0  0  0  0  0  0  0  0  0
  2  1  1  1
  2  3  1  0
  4  2  1  0
  4  5  1  1
  6  4  1  0
  6 12  1  0
  7  6  2  0
  9  8  1  6
  9 11  1  0
 10  9  1  0
 11 12  1  6
 11 13  1  0
 13 15  1  0
 14 13  2  0
 15 16  1  0
 16 17  1  1
 17 18  1  0
 19 16  1  0
 19 20  1  0
 21 19  2  0
M  END
$$$$
