VTC.pdb
     RDKit          3D

 21 20  0  0  1  0  0  0  0  0999 V2000
   18.8296  -15.1653  -16.6269 C   0  0  0  0  0  0  0  0  0  0  0  0
   20.0194  -15.2858  -17.5264 C   0  0  2  0  0  0  0  0  0  0  0  0
   19.6786  -16.2556  -18.6318 C   0  0  0  0  0  0  0  0  0  0  0  0
   21.2438  -15.8034  -16.8196 C   0  0  2  0  0  0  0  0  0  0  0  0
   21.0948  -17.1217  -16.2996 N   0  0  0  0  0  0  0  0  0  0  0  0
   21.6125  -14.8358  -15.7551 C   0  0  0  0  0  0  0  0  0  0  0  0
   21.3648  -15.0258  -14.5426 O   0  0  0  0  0  0  0  0  0  0  0  0
   24.8999  -13.7164  -14.8944 C   0  0  0  0  0  0  0  0  0  0  0  0
   24.1354  -12.4548  -15.2237 C   0  0  1  0  0  0  0  0  0  0  0  0
   24.3682  -12.2572  -16.6122 O   0  0  0  0  0  0  0  0  0  0  0  0
   22.6580  -12.6625  -15.0981 C   0  0  2  0  0  0  0  0  0  0  0  0
   22.2721  -13.6485  -16.1294 N   0  0  0  0  0  0  0  0  0  0  0  0
   21.8101  -11.4913  -15.2749 C   0  0  0  0  0  0  0  0  0  0  0  0
   21.1707  -11.4061  -16.3910 O   0  0  0  0  0  0  0  0  0  0  0  0
   21.6232  -10.4435  -14.3390 N   0  0  0  0  0  0  0  0  0  0  0  0
   20.7981   -9.3291  -14.6541 C   0  0  1  0  0  0  0  0  0  0  0  0
   20.1213   -8.7693  -13.3932 C   0  0  0  0  0  0  0  0  0  0  0  0
   19.1986   -7.2998  -13.9310 S   0  0  0  0  0  0  0  0  0  0  0  0
   21.4922   -8.2557  -15.3855 C   0  0  0  0  0  0  0  0  0  0  0  0
   20.8111   -7.5197  -16.3233 O   0  0  0  0  0  0  0  0  0  0  0  0
   22.6894   -8.0147  -15.1569 O   0  0  0  0  0  0  0  0  0  0  0  0
  2  1  1  1
  2  3  1  0
  4  2  1  0
  4  5  1  1
  6  4  1  0
  6 12  1  0
  7  6  2  0
  9  8  1  6
  9 11  1  0
 10  9  1  0
 11 12  1  6
 11 13  1  0
 13 15  1  0
 14 13  2  0
 15 16  1  0
 16 17  1  1
 17 18  1  0
 19 16  1  0
 19 20  1  0
 21 19  2  0
M  END
$$$$
