KVK.pdb
     RDKit          3D

 26 25  0  0  1  0  0  0  0  0999 V2000
   14.1309  -13.7013  -13.5827 N   0  0  0  0  0  0  0  0  0  0  0  0
   14.9250  -12.8584  -14.4163 C   0  0  1  0  0  0  0  0  0  0  0  0
   14.5796  -12.8449  -15.8680 C   0  0  0  0  0  0  0  0  0  0  0  0
   14.7300  -14.1605  -16.5311 C   0  0  0  0  0  0  0  0  0  0  0  0
   14.5381  -14.2440  -17.9913 C   0  0  0  0  0  0  0  0  0  0  0  0
   14.7700  -15.6109  -18.5476 C   0  0  0  0  0  0  0  0  0  0  0  0
   14.6302  -15.7304  -19.9611 N   0  0  0  0  0  0  0  0  0  0  0  0
   14.8396  -11.4330  -13.9398 C   0  0  0  0  0  0  0  0  0  0  0  0
   13.6933  -10.9051  -13.9384 O   0  0  0  0  0  0  0  0  0  0  0  0
   15.3641   -9.9205  -10.6942 C   0  0  0  0  0  0  0  0  0  0  0  0
   16.2717   -9.1790  -11.6355 C   0  0  1  0  0  0  0  0  0  0  0  0
   17.6873   -9.6534  -11.3884 C   0  0  0  0  0  0  0  0  0  0  0  0
   15.8556   -9.3647  -13.0898 C   0  0  2  0  0  0  0  0  0  0  0  0
   15.9937  -10.7140  -13.5105 N   0  0  0  0  0  0  0  0  0  0  0  0
   16.6229   -8.3973  -13.9022 C   0  0  0  0  0  0  0  0  0  0  0  0
   17.7428   -8.8060  -14.3501 O   0  0  0  0  0  0  0  0  0  0  0  0
   16.2024   -7.0799  -14.2051 N   0  0  0  0  0  0  0  0  0  0  0  0
   17.0228   -6.1798  -14.9796 C   0  0  1  0  0  0  0  0  0  0  0  0
   16.3989   -5.9270  -16.3339 C   0  0  0  0  0  0  0  0  0  0  0  0
   17.1721   -4.9796  -17.1857 C   0  0  0  0  0  0  0  0  0  0  0  0
   16.5592   -4.7413  -18.5476 C   0  0  0  0  0  0  0  0  0  0  0  0
   17.4565   -3.8550  -19.3536 C   0  0  0  0  0  0  0  0  0  0  0  0
   16.8124   -3.4876  -20.6144 N   0  0  0  0  0  0  0  0  0  0  0  0
   17.2573   -4.9274  -14.2238 C   0  0  0  0  0  0  0  0  0  0  0  0
   18.4169   -4.2153  -14.4587 O   0  0  0  0  0  0  0  0  0  0  0  0
   16.4565   -4.4701  -13.3737 O   0  0  0  0  0  0  0  0  0  0  0  0
  2  1  1  1
  3  2  1  0
  4  3  1  0
  4  5  1  0
  6  5  1  0
  6  7  1  0
  8  9  2  0
  8  2  1  0
 11 10  1  1
 11 13  1  0
 12 11  1  0
 13 14  1  6
 14  8  1  0
 15 17  1  0
 15 13  1  0
 16 15  2  0
 18 17  1  0
 18 24  1  0
 18 19  1  6
 20 21  1  0
 20 19  1  0
 21 22  1  0
 23 22  1  0
 24 25  1  0
 26 24  2  0
M  END
$$$$
