KVK.pdb
     RDKit          3D

 26 25  0  0  1  0  0  0  0  0999 V2000
   20.9764  -20.5110  -10.7709 N   0  0  0  0  0  0  0  0  0  0  0  0
   21.6701  -21.3000  -11.7363 C   0  0  1  0  0  0  0  0  0  0  0  0
   20.8801  -21.7449  -12.9216 C   0  0  0  0  0  0  0  0  0  0  0  0
   19.8132  -22.7196  -12.5979 C   0  0  0  0  0  0  0  0  0  0  0  0
   19.0117  -23.2848  -13.6998 C   0  0  0  0  0  0  0  0  0  0  0  0
   17.9619  -24.2449  -13.2441 C   0  0  0  0  0  0  0  0  0  0  0  0
   17.0708  -24.7063  -14.2565 N   0  0  0  0  0  0  0  0  0  0  0  0
   22.8550  -20.5395  -12.2691 C   0  0  0  0  0  0  0  0  0  0  0  0
   22.7180  -19.2907  -12.3887 O   0  0  0  0  0  0  0  0  0  0  0  0
   26.7990  -22.2955  -12.8052 C   0  0  0  0  0  0  0  0  0  0  0  0
   26.4845  -20.8567  -12.5036 C   0  0  1  0  0  0  0  0  0  0  0  0
   27.6375  -20.0133  -13.0027 C   0  0  0  0  0  0  0  0  0  0  0  0
   25.1575  -20.4252  -13.1164 C   0  0  2  0  0  0  0  0  0  0  0  0
   24.0717  -21.1946  -12.6206 N   0  0  0  0  0  0  0  0  0  0  0  0
   25.3076  -20.4693  -14.5862 C   0  0  0  0  0  0  0  0  0  0  0  0
   25.0751  -21.5925  -15.1394 O   0  0  0  0  0  0  0  0  0  0  0  0
   25.6839  -19.3706  -15.3958 N   0  0  0  0  0  0  0  0  0  0  0  0
   25.7581  -19.4765  -16.8332 C   0  0  1  0  0  0  0  0  0  0  0  0
   25.5047  -18.1317  -17.4773 C   0  0  0  0  0  0  0  0  0  0  0  0
   25.5987  -18.1490  -18.9645 C   0  0  0  0  0  0  0  0  0  0  0  0
   25.4276  -16.7894  -19.6043 C   0  0  0  0  0  0  0  0  0  0  0  0
   25.5742  -16.9113  -21.0889 C   0  0  0  0  0  0  0  0  0  0  0  0
   25.5369  -15.5903  -21.7156 N   0  0  0  0  0  0  0  0  0  0  0  0
   27.0606  -20.0576  -17.2340 C   0  0  0  0  0  0  0  0  0  0  0  0
   27.1014  -20.9199  -18.3117 O   0  0  0  0  0  0  0  0  0  0  0  0
   28.1407  -19.8103  -16.6463 O   0  0  0  0  0  0  0  0  0  0  0  0
  2  1  1  1
  3  2  1  0
  4  3  1  0
  4  5  1  0
  6  5  1  0
  6  7  1  0
  8  9  2  0
  8  2  1  0
 11 10  1  6
 11 13  1  0
 12 11  1  0
 13 14  1  6
 14  8  1  0
 15 17  1  0
 15 13  1  0
 16 15  2  0
 18 17  1  0
 18 24  1  0
 18 19  1  6
 20 21  1  0
 20 19  1  0
 21 22  1  0
 23 22  1  0
 24 25  1  0
 26 24  2  0
M  END
$$$$
