KVK.pdb
     RDKit          3D

 26 25  0  0  1  0  0  0  0  0999 V2000
   21.5859  -22.2460   -8.1113 N   0  0  0  0  0  0  0  0  0  0  0  0
   21.0053  -22.2477   -9.4147 C   0  0  1  0  0  0  0  0  0  0  0  0
   19.5669  -21.8599   -9.5012 C   0  0  0  0  0  0  0  0  0  0  0  0
   18.6625  -22.7388   -8.7249 C   0  0  0  0  0  0  0  0  0  0  0  0
   18.6516  -24.1837   -9.0220 C   0  0  0  0  0  0  0  0  0  0  0  0
   17.6780  -24.9569   -8.1939 C   0  0  0  0  0  0  0  0  0  0  0  0
   17.6977  -26.3698   -8.3823 N   0  0  0  0  0  0  0  0  0  0  0  0
   21.7599  -21.3082  -10.3169 C   0  0  0  0  0  0  0  0  0  0  0  0
   21.1695  -20.2419  -10.6438 O   0  0  0  0  0  0  0  0  0  0  0  0
   25.5806  -20.2517   -9.9254 C   0  0  0  0  0  0  0  0  0  0  0  0
   25.2568  -20.6652  -11.3339 C   0  0  1  0  0  0  0  0  0  0  0  0
   25.8689  -22.0285  -11.5718 C   0  0  0  0  0  0  0  0  0  0  0  0
   23.7553  -20.6628  -11.5954 C   0  0  2  0  0  0  0  0  0  0  0  0
   23.0756  -21.6055  -10.7794 N   0  0  0  0  0  0  0  0  0  0  0  0
   23.5531  -20.8625  -13.0458 C   0  0  0  0  0  0  0  0  0  0  0  0
   23.4916  -22.0714  -13.4415 O   0  0  0  0  0  0  0  0  0  0  0  0
   23.4272  -19.8220  -13.9975 N   0  0  0  0  0  0  0  0  0  0  0  0
   23.1740  -20.0945  -15.3920 C   0  0  1  0  0  0  0  0  0  0  0  0
   22.2926  -19.0208  -15.9901 C   0  0  0  0  0  0  0  0  0  0  0  0
   21.9341  -19.2615  -17.4164 C   0  0  0  0  0  0  0  0  0  0  0  0
   21.1521  -18.1325  -18.0497 C   0  0  0  0  0  0  0  0  0  0  0  0
   20.8068  -18.4912  -19.4613 C   0  0  0  0  0  0  0  0  0  0  0  0
   20.0694  -17.4009  -20.0991 N   0  0  0  0  0  0  0  0  0  0  0  0
   24.4545  -20.2446  -16.1217 C   0  0  0  0  0  0  0  0  0  0  0  0
   24.4910  -21.0483  -17.2440 O   0  0  0  0  0  0  0  0  0  0  0  0
   25.5196  -19.6789  -15.7772 O   0  0  0  0  0  0  0  0  0  0  0  0
  2  1  1  1
  3  2  1  0
  4  3  1  0
  4  5  1  0
  6  5  1  0
  6  7  1  0
  8  9  2  0
  8  2  1  0
 11 10  1  1
 11 13  1  0
 12 11  1  0
 13 14  1  1
 14  8  1  0
 15 17  1  0
 15 13  1  0
 16 15  2  0
 18 17  1  0
 18 24  1  0
 18 19  1  6
 20 21  1  0
 20 19  1  0
 21 22  1  0
 23 22  1  0
 24 25  1  0
 26 24  2  0
M  END
$$$$
