KVK.pdb
     RDKit          3D

 26 25  0  0  1  0  0  0  0  0999 V2000
   25.4004  -21.9681  -11.7255 N   0  0  0  0  0  0  0  0  0  0  0  0
   24.4643  -20.9889  -12.1734 C   0  0  1  0  0  0  0  0  0  0  0  0
   23.9006  -20.0832  -11.1300 C   0  0  0  0  0  0  0  0  0  0  0  0
   23.1968  -20.7937  -10.0376 C   0  0  0  0  0  0  0  0  0  0  0  0
   23.9733  -21.2338   -8.8631 C   0  0  0  0  0  0  0  0  0  0  0  0
   23.1843  -21.2445   -7.5947 C   0  0  0  0  0  0  0  0  0  0  0  0
   21.8798  -21.8117   -7.6879 N   0  0  0  0  0  0  0  0  0  0  0  0
   25.0995  -20.1053  -13.2134 C   0  0  0  0  0  0  0  0  0  0  0  0
   24.5440  -18.9922  -13.4254 O   0  0  0  0  0  0  0  0  0  0  0  0
   29.1226  -18.7035  -15.6001 C   0  0  0  0  0  0  0  0  0  0  0  0
   28.4355  -19.6955  -14.7036 C   0  0  1  0  0  0  0  0  0  0  0  0
   28.9540  -19.4895  -13.2970 C   0  0  0  0  0  0  0  0  0  0  0  0
   26.9184  -19.5690  -14.7745 C   0  0  2  0  0  0  0  0  0  0  0  0
   26.2702  -20.5032  -13.9237 N   0  0  0  0  0  0  0  0  0  0  0  0
   26.5263  -19.6733  -16.1958 C   0  0  0  0  0  0  0  0  0  0  0  0
   26.7191  -20.8044  -16.7484 O   0  0  0  0  0  0  0  0  0  0  0  0
   25.9652  -18.6227  -16.9610 N   0  0  0  0  0  0  0  0  0  0  0  0
   25.3342  -18.8649  -18.2362 C   0  0  1  0  0  0  0  0  0  0  0  0
   23.8398  -19.0241  -18.0661 C   0  0  0  0  0  0  0  0  0  0  0  0
   23.4030  -20.4354  -17.8707 C   0  0  0  0  0  0  0  0  0  0  0  0
   21.9081  -20.5963  -17.7078 C   0  0  0  0  0  0  0  0  0  0  0  0
   21.6007  -21.9850  -17.2413 C   0  0  0  0  0  0  0  0  0  0  0  0
   22.0053  -22.1560  -15.8462 N   0  0  0  0  0  0  0  0  0  0  0  0
   25.6818  -17.7851  -19.1891 C   0  0  0  0  0  0  0  0  0  0  0  0
   25.5370  -18.0192  -20.5422 O   0  0  0  0  0  0  0  0  0  0  0  0
   26.1043  -16.6581  -18.8362 O   0  0  0  0  0  0  0  0  0  0  0  0
  2  1  1  1
  3  2  1  0
  4  3  1  0
  4  5  1  0
  6  5  1  0
  6  7  1  0
  8  9  2  0
  8  2  1  0
 11 10  1  6
 11 13  1  0
 12 11  1  0
 13 14  1  1
 14  8  1  0
 15 17  1  0
 15 13  1  0
 16 15  2  0
 18 17  1  0
 18 24  1  0
 18 19  1  1
 20 21  1  0
 20 19  1  0
 21 22  1  0
 23 22  1  0
 24 25  1  0
 26 24  2  0
M  END
$$$$
