KVK.pdb
     RDKit          3D

 26 25  0  0  1  0  0  0  0  0999 V2000
   19.8489  -21.0305  -12.2229 N   0  0  0  0  0  0  0  0  0  0  0  0
   20.7994  -21.1689  -13.2779 C   0  0  1  0  0  0  0  0  0  0  0  0
   20.4042  -20.6120  -14.6048 C   0  0  0  0  0  0  0  0  0  0  0  0
   19.5023  -21.4948  -15.3797 C   0  0  0  0  0  0  0  0  0  0  0  0
   19.4301  -22.9240  -15.0213 C   0  0  0  0  0  0  0  0  0  0  0  0
   18.6319  -23.7419  -15.9834 C   0  0  0  0  0  0  0  0  0  0  0  0
   18.6226  -25.1456  -15.7356 N   0  0  0  0  0  0  0  0  0  0  0  0
   22.0932  -20.4998  -12.8979 C   0  0  0  0  0  0  0  0  0  0  0  0
   22.0072  -19.3414  -12.4047 O   0  0  0  0  0  0  0  0  0  0  0  0
   25.9592  -22.5155  -12.8116 C   0  0  0  0  0  0  0  0  0  0  0  0
   25.5224  -21.3376  -11.9861 C   0  0  1  0  0  0  0  0  0  0  0  0
   26.7621  -20.5811  -11.5610 C   0  0  0  0  0  0  0  0  0  0  0  0
   24.5438  -20.4463  -12.7416 C   0  0  2  0  0  0  0  0  0  0  0  0
   23.3533  -21.1407  -13.0841 N   0  0  0  0  0  0  0  0  0  0  0  0
   25.2625  -19.8724  -13.8987 C   0  0  0  0  0  0  0  0  0  0  0  0
   25.4381  -20.6509  -14.8911 O   0  0  0  0  0  0  0  0  0  0  0  0
   25.7549  -18.5471  -13.9709 N   0  0  0  0  0  0  0  0  0  0  0  0
   26.4972  -18.0738  -15.1145 C   0  0  1  0  0  0  0  0  0  0  0  0
   26.9142  -16.6336  -14.9163 C   0  0  0  0  0  0  0  0  0  0  0  0
   27.7932  -16.1068  -15.9983 C   0  0  0  0  0  0  0  0  0  0  0  0
   27.0791  -15.8843  -17.3128 C   0  0  0  0  0  0  0  0  0  0  0  0
   28.0512  -15.3791  -18.3327 C   0  0  0  0  0  0  0  0  0  0  0  0
   28.3046  -13.9524  -18.1337 N   0  0  0  0  0  0  0  0  0  0  0  0
   27.6516  -18.9646  -15.3759 C   0  0  0  0  0  0  0  0  0  0  0  0
   27.9772  -19.2659  -16.6836 O   0  0  0  0  0  0  0  0  0  0  0  0
   28.3589  -19.4672  -14.4703 O   0  0  0  0  0  0  0  0  0  0  0  0
  2  1  1  1
  3  2  1  0
  4  3  1  0
  4  5  1  0
  6  5  1  0
  6  7  1  0
  8  9  2  0
  8  2  1  0
 11 10  1  6
 11 13  1  0
 12 11  1  0
 13 14  1  6
 14  8  1  0
 15 17  1  0
 15 13  1  0
 16 15  2  0
 18 17  1  0
 18 24  1  0
 18 19  1  1
 20 21  1  0
 20 19  1  0
 21 22  1  0
 23 22  1  0
 24 25  1  0
 26 24  2  0
M  END
$$$$
