KVK.pdb
     RDKit          3D

 26 25  0  0  1  0  0  0  0  0999 V2000
   25.5385  -22.9744  -15.0913 N   0  0  0  0  0  0  0  0  0  0  0  0
   25.8114  -21.9481  -14.1384 C   0  0  1  0  0  0  0  0  0  0  0  0
   26.7565  -20.8766  -14.5691 C   0  0  0  0  0  0  0  0  0  0  0  0
   26.6651  -20.5412  -16.0087 C   0  0  0  0  0  0  0  0  0  0  0  0
   27.7253  -19.7116  -16.6117 C   0  0  0  0  0  0  0  0  0  0  0  0
   27.4843  -19.3856  -18.0495 C   0  0  0  0  0  0  0  0  0  0  0  0
   28.5006  -18.6119  -18.6823 N   0  0  0  0  0  0  0  0  0  0  0  0
   24.5329  -21.2604  -13.7402 C   0  0  0  0  0  0  0  0  0  0  0  0
   24.6123  -20.4168  -12.8050 O   0  0  0  0  0  0  0  0  0  0  0  0
   21.3820  -20.7439  -16.4294 C   0  0  0  0  0  0  0  0  0  0  0  0
   21.6589  -19.9278  -15.1978 C   0  0  1  0  0  0  0  0  0  0  0  0
   20.3974  -19.1684  -14.8486 C   0  0  0  0  0  0  0  0  0  0  0  0
   22.1402  -20.7935  -14.0394 C   0  0  2  0  0  0  0  0  0  0  0  0
   23.2940  -21.5454  -14.3860 N   0  0  0  0  0  0  0  0  0  0  0  0
   20.9969  -21.6147  -13.5889 C   0  0  0  0  0  0  0  0  0  0  0  0
   20.5965  -22.5106  -14.4007 O   0  0  0  0  0  0  0  0  0  0  0  0
   20.3364  -21.4716  -12.3450 N   0  0  0  0  0  0  0  0  0  0  0  0
   19.3683  -22.4373  -11.8833 C   0  0  1  0  0  0  0  0  0  0  0  0
   19.5825  -22.7432  -10.4177 C   0  0  0  0  0  0  0  0  0  0  0  0
   18.5751  -23.6799   -9.8446 C   0  0  0  0  0  0  0  0  0  0  0  0
   18.8016  -24.0040   -8.3849 C   0  0  0  0  0  0  0  0  0  0  0  0
   17.8312  -25.0565   -7.9479 C   0  0  0  0  0  0  0  0  0  0  0  0
   18.0038  -25.3511   -6.5257 N   0  0  0  0  0  0  0  0  0  0  0  0
   17.9957  -21.9561  -12.1646 C   0  0  0  0  0  0  0  0  0  0  0  0
   17.0364  -22.8701  -12.5534 O   0  0  0  0  0  0  0  0  0  0  0  0
   17.6489  -20.7545  -12.0695 O   0  0  0  0  0  0  0  0  0  0  0  0
  2  1  1  6
  3  2  1  0
  4  3  1  0
  4  5  1  0
  6  5  1  0
  6  7  1  0
  8  9  2  0
  8  2  1  0
 11 10  1  6
 11 13  1  0
 12 11  1  0
 13 14  1  6
 14  8  1  0
 15 17  1  0
 15 13  1  0
 16 15  2  0
 18 17  1  0
 18 24  1  0
 18 19  1  1
 20 21  1  0
 20 19  1  0
 21 22  1  0
 23 22  1  0
 24 25  1  0
 26 24  2  0
M  END
$$$$
