EMH.pdb
     RDKit          3D

 28 28  0  0  1  0  0  0  0  0999 V2000
   10.2146  -16.3748   19.6897 N   0  0  0  0  0  0  0  0  0  0  0  0
    8.9624  -16.2166   20.3921 C   0  0  1  0  0  0  0  0  0  0  0  0
    8.1456  -17.4775   20.3190 C   0  0  0  0  0  0  0  0  0  0  0  0
    8.9915  -18.6934   20.6673 C   0  0  0  0  0  0  0  0  0  0  0  0
    8.1753  -19.9182   20.6944 C   0  0  0  0  0  0  0  0  0  0  0  0
    8.1605  -20.6845   21.6807 O   0  0  0  0  0  0  0  0  0  0  0  0
    9.1660  -15.8581   21.8142 C   0  0  0  0  0  0  0  0  0  0  0  0
   10.2352  -16.2009   22.3621 O   0  0  0  0  0  0  0  0  0  0  0  0
    7.3928  -20.2125   19.5602 O   0  0  0  0  0  0  0  0  0  0  0  0
    6.6905  -11.6277   28.0393 C   0  0  0  0  0  0  0  0  0  0  0  0
    6.2156  -12.2973   26.4221 S   0  0  0  0  0  0  0  0  0  0  0  0
    7.5275  -13.4131   25.8632 C   0  0  0  0  0  0  0  0  0  0  0  0
    7.2839  -13.8975   24.4566 C   0  0  0  0  0  0  0  0  0  0  0  0
    8.3768  -14.7803   23.9619 C   0  0  2  0  0  0  0  0  0  0  0  0
    8.2100  -15.1506   22.5808 N   0  0  0  0  0  0  0  0  0  0  0  0
    8.6109  -15.9811   24.7819 C   0  0  0  0  0  0  0  0  0  0  0  0
    8.3586  -17.0993   24.2080 O   0  0  0  0  0  0  0  0  0  0  0  0
    9.0777  -15.9640   26.1092 N   0  0  0  0  0  0  0  0  0  0  0  0
    9.9475  -17.0093   26.5799 C   0  0  1  0  0  0  0  0  0  0  0  0
   11.1823  -17.1423   25.7524 C   0  0  0  0  0  0  0  0  0  0  0  0
   12.1005  -18.1223   26.3631 C   0  0  0  0  0  0  0  0  0  0  0  0
   12.2356  -18.3451   27.7437 C   0  0  0  0  0  0  0  0  0  0  0  0
   13.1481  -19.2842   27.9651 N   0  0  0  0  0  0  0  0  0  0  0  0
   13.6072  -19.6766   26.7725 C   0  0  0  0  0  0  0  0  0  0  0  0
   12.9791  -18.9805   25.8152 N   0  0  0  0  0  0  0  0  0  0  0  0
   10.3104  -16.6884   27.9749 C   0  0  0  0  0  0  0  0  0  0  0  0
   10.5607  -17.6290   28.7963 O   0  0  0  0  0  0  0  0  0  0  0  0
   10.3834  -15.3913   28.3950 O   0  0  0  0  0  0  0  0  0  0  0  0
  2  3  1  0
  2  1  1  1
  3  4  1  0
  4  5  1  0
  5  9  1  0
  5  6  2  0
  7  2  1  0
  8  7  2  0
 11 12  1  0
 11 10  1  0
 12 13  1  0
 14 13  1  1
 14 15  1  0
 15  7  1  0
 16 14  1  0
 16 17  2  0
 18 16  1  0
 19 18  1  0
 19 20  1  6
 21 20  1  0
 22 21  2  0
 23 22  1  0
 24 23  1  0
 24 25  2  0
 25 21  1  0
 26 19  1  0
 26 28  1  0
 27 26  2  0
M  END
$$$$
