EMH.pdb
     RDKit          3D

 28 28  0  0  1  0  0  0  0  0999 V2000
    9.8520  -16.1615   19.3757 N   0  0  0  0  0  0  0  0  0  0  0  0
    8.6393  -16.1193   20.1592 C   0  0  1  0  0  0  0  0  0  0  0  0
    7.9111  -17.4335   20.0885 C   0  0  0  0  0  0  0  0  0  0  0  0
    8.8568  -18.5937   20.3619 C   0  0  0  0  0  0  0  0  0  0  0  0
    8.1605  -19.8854   20.2455 C   0  0  0  0  0  0  0  0  0  0  0  0
    7.3065  -20.1018   19.3600 O   0  0  0  0  0  0  0  0  0  0  0  0
    8.9075  -15.7948   21.5788 C   0  0  0  0  0  0  0  0  0  0  0  0
    9.9809  -16.1894   22.0818 O   0  0  0  0  0  0  0  0  0  0  0  0
    8.4867  -20.8946   21.1731 O   0  0  0  0  0  0  0  0  0  0  0  0
    6.8741  -11.4656   27.8843 C   0  0  0  0  0  0  0  0  0  0  0  0
    6.2602  -12.2160   26.3515 S   0  0  0  0  0  0  0  0  0  0  0  0
    7.5622  -13.2804   25.6805 C   0  0  0  0  0  0  0  0  0  0  0  0
    7.1857  -13.8361   24.3307 C   0  0  0  0  0  0  0  0  0  0  0  0
    8.2317  -14.7398   23.7759 C   0  0  2  0  0  0  0  0  0  0  0  0
    8.0085  -15.0641   22.3912 N   0  0  0  0  0  0  0  0  0  0  0  0
    8.4510  -15.9710   24.5538 C   0  0  0  0  0  0  0  0  0  0  0  0
    8.2163  -17.0666   23.9311 O   0  0  0  0  0  0  0  0  0  0  0  0
    8.8864  -16.0044   25.8915 N   0  0  0  0  0  0  0  0  0  0  0  0
   10.0468  -16.7754   26.2517 C   0  0  1  0  0  0  0  0  0  0  0  0
   11.2698  -16.3495   25.5101 C   0  0  0  0  0  0  0  0  0  0  0  0
   11.7103  -17.4215   24.5974 C   0  0  0  0  0  0  0  0  0  0  0  0
   10.8633  -18.3791   24.0146 C   0  0  0  0  0  0  0  0  0  0  0  0
   11.5694  -19.2060   23.2521 N   0  0  0  0  0  0  0  0  0  0  0  0
   12.8455  -18.8139   23.3221 C   0  0  0  0  0  0  0  0  0  0  0  0
   12.9278  -17.7460   24.1273 N   0  0  0  0  0  0  0  0  0  0  0  0
   10.2564  -16.6075   27.7038 C   0  0  0  0  0  0  0  0  0  0  0  0
   10.7186  -17.5739   28.3926 O   0  0  0  0  0  0  0  0  0  0  0  0
    9.9619  -15.4241   28.3178 O   0  0  0  0  0  0  0  0  0  0  0  0
  2  3  1  0
  2  1  1  6
  3  4  1  0
  4  5  1  0
  5  9  1  0
  5  6  2  0
  7  2  1  0
  8  7  2  0
 11 12  1  0
 11 10  1  0
 12 13  1  0
 14 13  1  1
 14 15  1  0
 15  7  1  0
 16 14  1  0
 16 17  2  0
 18 16  1  0
 19 18  1  0
 19 20  1  6
 21 20  1  0
 22 21  2  0
 23 22  1  0
 24 23  1  0
 24 25  2  0
 25 21  1  0
 26 19  1  0
 26 28  1  0
 27 26  2  0
M  END
$$$$
