EMH.pdb
     RDKit          3D

 28 28  0  0  1  0  0  0  0  0999 V2000
    7.3186  -18.5696   21.3642 N   0  0  0  0  0  0  0  0  0  0  0  0
    8.7148  -18.1999   21.3513 C   0  0  1  0  0  0  0  0  0  0  0  0
    9.1455  -17.7860   19.9709 C   0  0  0  0  0  0  0  0  0  0  0  0
    8.0638  -16.9613   19.2890 C   0  0  0  0  0  0  0  0  0  0  0  0
    8.5135  -16.4801   17.9725 C   0  0  0  0  0  0  0  0  0  0  0  0
    8.0284  -16.9133   16.9061 O   0  0  0  0  0  0  0  0  0  0  0  0
    9.0049  -17.0970   22.2957 C   0  0  0  0  0  0  0  0  0  0  0  0
   10.1634  -16.6299   22.3198 O   0  0  0  0  0  0  0  0  0  0  0  0
    9.5232  -15.4978   17.9408 O   0  0  0  0  0  0  0  0  0  0  0  0
    6.8397  -11.0195   26.7287 C   0  0  0  0  0  0  0  0  0  0  0  0
    6.3849  -12.1675   25.4003 S   0  0  0  0  0  0  0  0  0  0  0  0
    7.5959  -13.5133   25.3749 C   0  0  0  0  0  0  0  0  0  0  0  0
    7.3123  -14.4960   24.2676 C   0  0  0  0  0  0  0  0  0  0  0  0
    8.3174  -15.5937   24.2101 C   0  0  2  0  0  0  0  0  0  0  0  0
    8.0370  -16.5501   23.1713 N   0  0  0  0  0  0  0  0  0  0  0  0
    8.5376  -16.2884   25.4899 C   0  0  0  0  0  0  0  0  0  0  0  0
    7.4892  -16.7833   26.0370 O   0  0  0  0  0  0  0  0  0  0  0  0
    9.7890  -16.4301   26.1175 N   0  0  0  0  0  0  0  0  0  0  0  0
   10.0741  -17.6051   26.8977 C   0  0  1  0  0  0  0  0  0  0  0  0
    9.8948  -18.8660   26.1199 C   0  0  0  0  0  0  0  0  0  0  0  0
    8.6470  -19.5406   26.5254 C   0  0  0  0  0  0  0  0  0  0  0  0
    7.8041  -19.1136   27.5652 C   0  0  0  0  0  0  0  0  0  0  0  0
    6.7711  -19.9401   27.6808 N   0  0  0  0  0  0  0  0  0  0  0  0
    6.9179  -20.8873   26.7491 C   0  0  0  0  0  0  0  0  0  0  0  0
    8.0407  -20.6465   26.0586 N   0  0  0  0  0  0  0  0  0  0  0  0
   11.4710  -17.4980   27.3647 C   0  0  0  0  0  0  0  0  0  0  0  0
   11.8122  -18.0340   28.4686 O   0  0  0  0  0  0  0  0  0  0  0  0
   12.4041  -16.8314   26.6238 O   0  0  0  0  0  0  0  0  0  0  0  0
  2  3  1  0
  2  1  1  6
  3  4  1  0
  4  5  1  0
  5  9  1  0
  5  6  2  0
  7  2  1  0
  8  7  2  0
 11 12  1  0
 11 10  1  0
 12 13  1  0
 14 13  1  1
 14 15  1  0
 15  7  1  0
 16 14  1  0
 16 17  2  0
 18 16  1  0
 19 18  1  0
 19 20  1  6
 21 20  1  0
 22 21  2  0
 23 22  1  0
 24 23  1  0
 24 25  2  0
 25 21  1  0
 26 19  1  0
 26 28  1  0
 27 26  2  0
M  END
$$$$
