EMH.pdb
     RDKit          3D

 28 28  0  0  1  0  0  0  0  0999 V2000
    7.7370  -17.6131   20.3716 N   0  0  0  0  0  0  0  0  0  0  0  0
    9.1474  -17.3974   20.5961 C   0  0  1  0  0  0  0  0  0  0  0  0
    9.7851  -16.7437   19.4009 C   0  0  0  0  0  0  0  0  0  0  0  0
    9.4810  -17.5222   18.1294 C   0  0  0  0  0  0  0  0  0  0  0  0
   10.0675  -16.8642   16.9506 C   0  0  0  0  0  0  0  0  0  0  0  0
   11.2938  -16.8939   16.7151 O   0  0  0  0  0  0  0  0  0  0  0  0
    9.3967  -16.5600   21.7914 C   0  0  0  0  0  0  0  0  0  0  0  0
   10.5735  -16.2220   22.0404 O   0  0  0  0  0  0  0  0  0  0  0  0
    9.1967  -16.1872   16.0737 O   0  0  0  0  0  0  0  0  0  0  0  0
    6.8320  -11.5846   27.2973 C   0  0  0  0  0  0  0  0  0  0  0  0
    6.2986  -12.8362   26.0979 S   0  0  0  0  0  0  0  0  0  0  0  0
    7.7755  -13.5855   25.3660 C   0  0  0  0  0  0  0  0  0  0  0  0
    7.4190  -14.6052   24.3145 C   0  0  0  0  0  0  0  0  0  0  0  0
    8.5874  -15.4340   23.9067 C   0  0  2  0  0  0  0  0  0  0  0  0
    8.3702  -16.1277   22.6641 N   0  0  0  0  0  0  0  0  0  0  0  0
    9.0569  -16.3770   24.9360 C   0  0  0  0  0  0  0  0  0  0  0  0
    8.2807  -17.3700   25.1702 O   0  0  0  0  0  0  0  0  0  0  0  0
   10.2643  -16.2483   25.6470 N   0  0  0  0  0  0  0  0  0  0  0  0
   10.6410  -17.2464   26.6126 C   0  0  1  0  0  0  0  0  0  0  0  0
   12.1150  -17.4762   26.6531 C   0  0  0  0  0  0  0  0  0  0  0  0
   12.5322  -18.3048   25.5060 C   0  0  0  0  0  0  0  0  0  0  0  0
   11.6563  -18.8849   24.5731 C   0  0  0  0  0  0  0  0  0  0  0  0
   12.3453  -19.5741   23.6709 N   0  0  0  0  0  0  0  0  0  0  0  0
   13.6383  -19.4579   23.9894 C   0  0  0  0  0  0  0  0  0  0  0  0
   13.7483  -18.6980   25.0875 N   0  0  0  0  0  0  0  0  0  0  0  0
   10.1687  -16.7847   27.9335 C   0  0  0  0  0  0  0  0  0  0  0  0
    9.6718  -15.6184   28.0559 O   0  0  0  0  0  0  0  0  0  0  0  0
   10.2564  -17.5968   29.0275 O   0  0  0  0  0  0  0  0  0  0  0  0
  2  3  1  0
  2  1  1  6
  3  4  1  0
  4  5  1  0
  5  9  1  0
  5  6  2  0
  7  2  1  0
  8  7  2  0
 11 12  1  0
 11 10  1  0
 12 13  1  0
 14 13  1  1
 14 15  1  0
 15  7  1  0
 16 14  1  0
 16 17  2  0
 18 16  1  0
 19 18  1  0
 19 20  1  1
 21 20  1  0
 22 21  2  0
 23 22  1  0
 24 23  1  0
 24 25  2  0
 25 21  1  0
 26 19  1  0
 26 28  1  0
 27 26  2  0
M  END
$$$$
