EMH.pdb
     RDKit          3D

 28 28  0  0  1  0  0  0  0  0999 V2000
    8.8645  -19.2402   19.0491 N   0  0  0  0  0  0  0  0  0  0  0  0
   10.1716  -18.6709   19.2812 C   0  0  1  0  0  0  0  0  0  0  0  0
   10.8748  -18.3985   17.9798 C   0  0  0  0  0  0  0  0  0  0  0  0
   10.0403  -18.8774   16.8010 C   0  0  0  0  0  0  0  0  0  0  0  0
   10.8918  -19.2067   15.6464 C   0  0  0  0  0  0  0  0  0  0  0  0
   10.4185  -19.6386   14.5742 O   0  0  0  0  0  0  0  0  0  0  0  0
   10.0982  -17.4136   20.0598 C   0  0  0  0  0  0  0  0  0  0  0  0
   11.1681  -16.8461   20.3667 O   0  0  0  0  0  0  0  0  0  0  0  0
   12.2819  -19.0184   15.7791 O   0  0  0  0  0  0  0  0  0  0  0  0
    7.9319  -12.1385   19.3071 C   0  0  0  0  0  0  0  0  0  0  0  0
    8.2051  -12.1560   21.1000 S   0  0  0  0  0  0  0  0  0  0  0  0
    7.3832  -13.6171   21.7843 C   0  0  0  0  0  0  0  0  0  0  0  0
    7.5575  -14.8212   20.8943 C   0  0  0  0  0  0  0  0  0  0  0  0
    8.7706  -15.6132   21.2401 C   0  0  2  0  0  0  0  0  0  0  0  0
    8.8789  -16.8272   20.4740 N   0  0  0  0  0  0  0  0  0  0  0  0
    8.9200  -15.9070   22.6755 C   0  0  0  0  0  0  0  0  0  0  0  0
    8.0493  -16.7084   23.1686 O   0  0  0  0  0  0  0  0  0  0  0  0
    9.9282  -15.3740   23.4998 N   0  0  0  0  0  0  0  0  0  0  0  0
    9.8683  -15.5644   24.9249 C   0  0  1  0  0  0  0  0  0  0  0  0
    8.5030  -15.9408   25.3953 C   0  0  0  0  0  0  0  0  0  0  0  0
    7.5963  -14.7805   25.3056 C   0  0  0  0  0  0  0  0  0  0  0  0
    7.9978  -13.4685   25.0032 C   0  0  0  0  0  0  0  0  0  0  0  0
    6.9451  -12.6589   25.0078 N   0  0  0  0  0  0  0  0  0  0  0  0
    5.8756  -13.4047   25.3026 C   0  0  0  0  0  0  0  0  0  0  0  0
    6.2671  -14.6738   25.4802 N   0  0  0  0  0  0  0  0  0  0  0  0
   10.8296  -16.6310   25.2696 C   0  0  0  0  0  0  0  0  0  0  0  0
   11.0569  -16.9077   26.4919 O   0  0  0  0  0  0  0  0  0  0  0  0
   11.4777  -17.3278   24.2905 O   0  0  0  0  0  0  0  0  0  0  0  0
  2  3  1  0
  2  1  1  6
  3  4  1  0
  4  5  1  0
  5  9  1  0
  5  6  2  0
  7  2  1  0
  8  7  2  0
 11 12  1  0
 11 10  1  0
 12 13  1  0
 14 13  1  1
 14 15  1  0
 15  7  1  0
 16 14  1  0
 16 17  2  0
 18 16  1  0
 19 18  1  0
 19 20  1  6
 21 20  1  0
 22 21  2  0
 23 22  1  0
 24 23  1  0
 24 25  2  0
 25 21  1  0
 26 19  1  0
 26 28  1  0
 27 26  2  0
M  END
$$$$
