EMH.pdb
     RDKit          3D

 28 28  0  0  1  0  0  0  0  0999 V2000
    9.0814  -16.2555   20.3180 N   0  0  0  0  0  0  0  0  0  0  0  0
    9.5242  -16.9835   21.4843 C   0  0  1  0  0  0  0  0  0  0  0  0
   10.8294  -17.6809   21.2154 C   0  0  0  0  0  0  0  0  0  0  0  0
   10.6811  -18.6963   20.0919 C   0  0  0  0  0  0  0  0  0  0  0  0
   11.9270  -19.4547   19.8934 C   0  0  0  0  0  0  0  0  0  0  0  0
   12.1807  -20.4950   20.5365 O   0  0  0  0  0  0  0  0  0  0  0  0
    9.6856  -16.0996   22.6612 C   0  0  0  0  0  0  0  0  0  0  0  0
   10.8353  -15.7049   22.9497 O   0  0  0  0  0  0  0  0  0  0  0  0
   12.8461  -18.9723   18.9404 O   0  0  0  0  0  0  0  0  0  0  0  0
    6.3439  -11.1089   27.7907 C   0  0  0  0  0  0  0  0  0  0  0  0
    6.0695  -12.2172   26.3816 S   0  0  0  0  0  0  0  0  0  0  0  0
    7.6068  -13.1191   26.0622 C   0  0  0  0  0  0  0  0  0  0  0  0
    7.4848  -14.0171   24.8576 C   0  0  0  0  0  0  0  0  0  0  0  0
    8.7216  -14.8099   24.6117 C   0  0  2  0  0  0  0  0  0  0  0  0
    8.6044  -15.6840   23.4739 N   0  0  0  0  0  0  0  0  0  0  0  0
    9.2064  -15.5642   25.7800 C   0  0  0  0  0  0  0  0  0  0  0  0
    8.5992  -16.6686   26.0149 O   0  0  0  0  0  0  0  0  0  0  0  0
   10.2586  -15.1509   26.6179 N   0  0  0  0  0  0  0  0  0  0  0  0
   10.7923  -16.0545   27.6024 C   0  0  1  0  0  0  0  0  0  0  0  0
   12.2845  -16.0622   27.6232 C   0  0  0  0  0  0  0  0  0  0  0  0
   12.8087  -16.5347   26.3277 C   0  0  0  0  0  0  0  0  0  0  0  0
   13.3675  -15.7092   25.3377 C   0  0  0  0  0  0  0  0  0  0  0  0
   13.7355  -16.4398   24.2916 N   0  0  0  0  0  0  0  0  0  0  0  0
   13.4336  -17.7112   24.5731 C   0  0  0  0  0  0  0  0  0  0  0  0
   12.8793  -17.7661   25.7917 N   0  0  0  0  0  0  0  0  0  0  0  0
   10.2743  -15.6309   28.9188 C   0  0  0  0  0  0  0  0  0  0  0  0
    9.5699  -14.5738   29.0116 O   0  0  0  0  0  0  0  0  0  0  0  0
   10.5404  -16.3625   30.0405 O   0  0  0  0  0  0  0  0  0  0  0  0
  2  3  1  0
  2  1  1  6
  3  4  1  0
  4  5  1  0
  5  9  1  0
  5  6  2  0
  7  2  1  0
  8  7  2  0
 11 12  1  0
 11 10  1  0
 12 13  1  0
 14 13  1  1
 14 15  1  0
 15  7  1  0
 16 14  1  0
 16 17  2  0
 18 16  1  0
 19 18  1  0
 19 20  1  1
 21 20  1  0
 22 21  2  0
 23 22  1  0
 24 23  1  0
 24 25  2  0
 25 21  1  0
 26 19  1  0
 26 28  1  0
 27 26  2  0
M  END
$$$$
