EMH.pdb
     RDKit          3D

 28 28  0  0  1  0  0  0  0  0999 V2000
    9.9350  -15.8997   19.4870 N   0  0  0  0  0  0  0  0  0  0  0  0
    9.0399  -16.4872   20.4565 C   0  0  1  0  0  0  0  0  0  0  0  0
    9.2287  -17.9779   20.5238 C   0  0  0  0  0  0  0  0  0  0  0  0
    8.5273  -18.6671   19.3626 C   0  0  0  0  0  0  0  0  0  0  0  0
    8.6563  -20.1304   19.4571 C   0  0  0  0  0  0  0  0  0  0  0  0
    9.3068  -20.6819   20.3697 O   0  0  0  0  0  0  0  0  0  0  0  0
    9.2358  -15.9169   21.8088 C   0  0  0  0  0  0  0  0  0  0  0  0
   10.3936  -15.8942   22.2778 O   0  0  0  0  0  0  0  0  0  0  0  0
    8.0147  -20.9121   18.4759 O   0  0  0  0  0  0  0  0  0  0  0  0
    6.9384  -11.1079   26.7568 C   0  0  0  0  0  0  0  0  0  0  0  0
    8.0732  -12.3279   26.0403 S   0  0  0  0  0  0  0  0  0  0  0  0
    7.2042  -13.9123   25.9271 C   0  0  0  0  0  0  0  0  0  0  0  0
    7.0578  -14.3655   24.4968 C   0  0  0  0  0  0  0  0  0  0  0  0
    8.2976  -15.0031   23.9726 C   0  0  2  0  0  0  0  0  0  0  0  0
    8.1781  -15.4004   22.5941 N   0  0  0  0  0  0  0  0  0  0  0  0
    8.7947  -16.1291   24.7813 C   0  0  0  0  0  0  0  0  0  0  0  0
    7.9926  -17.1224   24.8968 O   0  0  0  0  0  0  0  0  0  0  0  0
   10.0537  -16.1682   25.4086 N   0  0  0  0  0  0  0  0  0  0  0  0
   10.4306  -17.3125   26.1954 C   0  0  1  0  0  0  0  0  0  0  0  0
   11.9105  -17.4580   26.3216 C   0  0  0  0  0  0  0  0  0  0  0  0
   12.4741  -18.0196   25.0793 C   0  0  0  0  0  0  0  0  0  0  0  0
   11.7191  -18.4261   23.9663 C   0  0  0  0  0  0  0  0  0  0  0  0
   12.5232  -18.8922   23.0177 N   0  0  0  0  0  0  0  0  0  0  0  0
   13.7738  -18.7997   23.4806 C   0  0  0  0  0  0  0  0  0  0  0  0
   13.7425  -18.2772   24.7141 N   0  0  0  0  0  0  0  0  0  0  0  0
    9.8267  -17.1485   27.5329 C   0  0  0  0  0  0  0  0  0  0  0  0
    9.2433  -16.0572   27.8346 O   0  0  0  0  0  0  0  0  0  0  0  0
    9.8843  -18.1567   28.4517 O   0  0  0  0  0  0  0  0  0  0  0  0
  2  3  1  0
  2  1  1  6
  3  4  1  0
  4  5  1  0
  5  9  1  0
  5  6  2  0
  7  2  1  0
  8  7  2  0
 11 12  1  0
 11 10  1  0
 12 13  1  0
 14 13  1  1
 14 15  1  0
 15  7  1  0
 16 14  1  0
 16 17  2  0
 18 16  1  0
 19 18  1  0
 19 20  1  1
 21 20  1  0
 22 21  2  0
 23 22  1  0
 24 23  1  0
 24 25  2  0
 25 21  1  0
 26 19  1  0
 26 28  1  0
 27 26  2  0
M  END
$$$$
