EMH.pdb
     RDKit          3D

 28 28  0  0  1  0  0  0  0  0999 V2000
    8.2340  -17.3149   21.4120 N   0  0  0  0  0  0  0  0  0  0  0  0
    9.6363  -17.1620   21.7227 C   0  0  1  0  0  0  0  0  0  0  0  0
   10.3834  -16.5848   20.5519 C   0  0  0  0  0  0  0  0  0  0  0  0
    9.8178  -17.1030   19.2378 C   0  0  0  0  0  0  0  0  0  0  0  0
   10.5978  -16.6081   18.0918 C   0  0  0  0  0  0  0  0  0  0  0  0
   11.5592  -15.8233   18.2323 O   0  0  0  0  0  0  0  0  0  0  0  0
    9.8511  -16.2953   22.9039 C   0  0  0  0  0  0  0  0  0  0  0  0
   11.0171  -15.9294   23.1633 O   0  0  0  0  0  0  0  0  0  0  0  0
   10.2297  -17.0500   16.8054 O   0  0  0  0  0  0  0  0  0  0  0  0
    6.1165  -11.5117   25.3575 C   0  0  0  0  0  0  0  0  0  0  0  0
    6.5347  -12.4055   26.8792 S   0  0  0  0  0  0  0  0  0  0  0  0
    7.9685  -13.4586   26.5421 C   0  0  0  0  0  0  0  0  0  0  0  0
    7.7759  -14.2766   25.2906 C   0  0  0  0  0  0  0  0  0  0  0  0
    8.9824  -15.0782   24.9438 C   0  0  2  0  0  0  0  0  0  0  0  0
    8.8030  -15.8652   23.7518 N   0  0  0  0  0  0  0  0  0  0  0  0
    9.4881  -15.9257   26.0370 C   0  0  0  0  0  0  0  0  0  0  0  0
    8.7327  -16.9065   26.3698 O   0  0  0  0  0  0  0  0  0  0  0  0
   10.7080  -15.7214   26.7079 N   0  0  0  0  0  0  0  0  0  0  0  0
   11.0750  -16.5718   27.8092 C   0  0  1  0  0  0  0  0  0  0  0  0
   12.5446  -16.8240   27.8727 C   0  0  0  0  0  0  0  0  0  0  0  0
   12.9261  -17.8573   26.8912 C   0  0  0  0  0  0  0  0  0  0  0  0
   12.0412  -18.4801   25.9951 C   0  0  0  0  0  0  0  0  0  0  0  0
   12.6950  -19.3669   25.2537 N   0  0  0  0  0  0  0  0  0  0  0  0
   13.9743  -19.3372   25.6405 C   0  0  0  0  0  0  0  0  0  0  0  0
   14.1107  -18.4333   26.6202 N   0  0  0  0  0  0  0  0  0  0  0  0
   10.6257  -15.9083   29.0496 C   0  0  0  0  0  0  0  0  0  0  0  0
   10.2136  -14.7038   29.0096 O   0  0  0  0  0  0  0  0  0  0  0  0
   10.6448  -16.5736   30.2417 O   0  0  0  0  0  0  0  0  0  0  0  0
  2  3  1  0
  2  1  1  6
  3  4  1  0
  4  5  1  0
  5  9  1  0
  5  6  2  0
  7  2  1  0
  8  7  2  0
 11 12  1  0
 11 10  1  0
 12 13  1  0
 14 13  1  1
 14 15  1  0
 15  7  1  0
 16 14  1  0
 16 17  2  0
 18 16  1  0
 19 18  1  0
 19 20  1  1
 21 20  1  0
 22 21  2  0
 23 22  1  0
 24 23  1  0
 24 25  2  0
 25 21  1  0
 26 19  1  0
 26 28  1  0
 27 26  2  0
M  END
$$$$
