EMH.pdb
     RDKit          3D

 28 28  0  0  1  0  0  0  0  0999 V2000
    6.9766  -17.4817   21.1501 N   0  0  0  0  0  0  0  0  0  0  0  0
    8.3611  -17.8400   21.3528 C   0  0  1  0  0  0  0  0  0  0  0  0
    9.1727  -17.5570   20.1185 C   0  0  0  0  0  0  0  0  0  0  0  0
    8.4113  -16.6487   19.1643 C   0  0  0  0  0  0  0  0  0  0  0  0
    9.2270  -16.3130   17.9859 C   0  0  0  0  0  0  0  0  0  0  0  0
   10.4155  -16.6805   17.8746 O   0  0  0  0  0  0  0  0  0  0  0  0
    8.9593  -17.1158   22.4974 C   0  0  0  0  0  0  0  0  0  0  0  0
   10.1976  -16.9505   22.5092 O   0  0  0  0  0  0  0  0  0  0  0  0
    8.6244  -15.5534   16.9634 O   0  0  0  0  0  0  0  0  0  0  0  0
    7.0296  -12.3144   26.8627 C   0  0  0  0  0  0  0  0  0  0  0  0
    6.4681  -12.5889   25.1601 S   0  0  0  0  0  0  0  0  0  0  0  0
    7.5481  -13.8276   24.3999 C   0  0  0  0  0  0  0  0  0  0  0  0
    7.8406  -14.9653   25.3445 C   0  0  0  0  0  0  0  0  0  0  0  0
    8.7537  -15.9796   24.7477 C   0  0  2  0  0  0  0  0  0  0  0  0
    8.1988  -16.6059   23.5763 N   0  0  0  0  0  0  0  0  0  0  0  0
    9.2284  -17.0054   25.6918 C   0  0  0  0  0  0  0  0  0  0  0  0
    8.3473  -17.8550   26.0729 O   0  0  0  0  0  0  0  0  0  0  0  0
   10.5459  -17.0961   26.1776 N   0  0  0  0  0  0  0  0  0  0  0  0
   10.8845  -18.0937   27.1579 C   0  0  1  0  0  0  0  0  0  0  0  0
   12.2967  -18.5603   27.0355 C   0  0  0  0  0  0  0  0  0  0  0  0
   12.4736  -19.3234   25.7854 C   0  0  0  0  0  0  0  0  0  0  0  0
   11.4444  -19.6328   24.8803 C   0  0  0  0  0  0  0  0  0  0  0  0
   11.9300  -20.3349   23.8631 N   0  0  0  0  0  0  0  0  0  0  0  0
   13.2400  -20.4890   24.0802 C   0  0  0  0  0  0  0  0  0  0  0  0
   13.5634  -19.8831   25.2307 N   0  0  0  0  0  0  0  0  0  0  0  0
   10.6672  -17.4961   28.4907 C   0  0  0  0  0  0  0  0  0  0  0  0
   10.3089  -16.2777   28.5874 O   0  0  0  0  0  0  0  0  0  0  0  0
   10.8442  -18.2372   29.6237 O   0  0  0  0  0  0  0  0  0  0  0  0
  2  3  1  0
  2  1  1  6
  3  4  1  0
  4  5  1  0
  5  9  1  0
  5  6  2  0
  7  2  1  0
  8  7  2  0
 11 12  1  0
 11 10  1  0
 12 13  1  0
 14 13  1  1
 14 15  1  0
 15  7  1  0
 16 14  1  0
 16 17  2  0
 18 16  1  0
 19 18  1  0
 19 20  1  1
 21 20  1  0
 22 21  2  0
 23 22  1  0
 24 23  1  0
 24 25  2  0
 25 21  1  0
 26 19  1  0
 26 28  1  0
 27 26  2  0
M  END
$$$$
