DVH.pdb
     RDKit          3D

 26 26  0  0  1  0  0  0  0  0999 V2000
   12.2357  -12.8525  -14.9800 N   0  0  0  0  0  0  0  0  0  0  0  0
   12.6724  -11.5457  -14.5943 C   0  0  1  0  0  0  0  0  0  0  0  0
   12.5931  -11.3597  -13.1027 C   0  0  0  0  0  0  0  0  0  0  0  0
   11.1396  -11.3042  -12.7216 C   0  0  0  0  0  0  0  0  0  0  0  0
   10.2705  -10.8419  -13.5105 O   0  0  0  0  0  0  0  0  0  0  0  0
   14.0799  -11.3450  -15.0213 C   0  0  0  0  0  0  0  0  0  0  0  0
   14.9302  -12.2569  -14.8769 O   0  0  0  0  0  0  0  0  0  0  0  0
   10.7338  -11.7610  -11.4964 O   0  0  0  0  0  0  0  0  0  0  0  0
   14.9476  -10.5357  -18.6018 C   0  0  0  0  0  0  0  0  0  0  0  0
   15.5276   -9.4533  -17.7342 C   0  0  1  0  0  0  0  0  0  0  0  0
   14.7125   -8.1724  -17.8121 C   0  0  0  0  0  0  0  0  0  0  0  0
   15.7097   -9.9033  -16.3000 C   0  0  2  0  0  0  0  0  0  0  0  0
   14.4868  -10.1127  -15.6021 N   0  0  0  0  0  0  0  0  0  0  0  0
   16.5101   -8.8868  -15.5760 C   0  0  0  0  0  0  0  0  0  0  0  0
   15.9881   -7.9825  -14.8724 O   0  0  0  0  0  0  0  0  0  0  0  0
   17.9248   -8.9372  -15.6825 N   0  0  0  0  0  0  0  0  0  0  0  0
   18.7809   -7.9196  -15.1186 C   0  0  1  0  0  0  0  0  0  0  0  0
   20.2381   -8.2750  -15.1424 C   0  0  0  0  0  0  0  0  0  0  0  0
   21.0323   -7.1336  -14.6553 C   0  0  0  0  0  0  0  0  0  0  0  0
   21.7759   -6.2859  -15.4202 C   0  0  0  0  0  0  0  0  0  0  0  0
   22.3333   -5.3919  -14.5768 N   0  0  0  0  0  0  0  0  0  0  0  0
   21.9391   -5.6864  -13.3222 C   0  0  0  0  0  0  0  0  0  0  0  0
   21.1283   -6.7706  -13.3645 N   0  0  0  0  0  0  0  0  0  0  0  0
   18.5334   -6.6490  -15.8775 C   0  0  0  0  0  0  0  0  0  0  0  0
   18.4259   -5.5656  -15.2359 O   0  0  0  0  0  0  0  0  0  0  0  0
   18.4191   -6.6208  -17.2484 O   0  0  0  0  0  0  0  0  0  0  0  0
  2  6  1  0
  2  1  1  1
  3  2  1  0
  3  4  1  0
  4  8  1  0
  4  5  2  0
  6  7  2  0
 10  9  1  6
 10 11  1  0
 10 12  1  0
 12 14  1  0
 12 13  1  1
 13  6  1  0
 14 15  2  0
 16 14  1  0
 16 17  1  0
 17 24  1  0
 17 18  1  6
 19 18  1  0
 19 20  2  0
 21 20  1  0
 22 21  1  0
 23 22  2  0
 23 19  1  0
 24 25  2  0
 24 26  1  0
M  END
$$$$
