DVH.pdb
     RDKit          3D

 26 26  0  0  1  0  0  0  0  0999 V2000
   30.4189  -22.7628  -18.9479 N   0  0  0  0  0  0  0  0  0  0  0  0
   30.8466  -23.5707  -17.8473 C   0  0  1  0  0  0  0  0  0  0  0  0
   29.7209  -24.4205  -17.3215 C   0  0  0  0  0  0  0  0  0  0  0  0
   28.6835  -23.5017  -16.7379 C   0  0  0  0  0  0  0  0  0  0  0  0
   27.5754  -23.3134  -17.3107 O   0  0  0  0  0  0  0  0  0  0  0  0
   31.9487  -24.4642  -18.2843 C   0  0  0  0  0  0  0  0  0  0  0  0
   32.0141  -24.8689  -19.4706 O   0  0  0  0  0  0  0  0  0  0  0  0
   28.9306  -22.8479  -15.5607 O   0  0  0  0  0  0  0  0  0  0  0  0
   35.4097  -24.6840  -15.7673 C   0  0  0  0  0  0  0  0  0  0  0  0
   35.4075  -24.9683  -17.2437 C   0  0  1  0  0  0  0  0  0  0  0  0
   36.6164  -25.7907  -17.6602 C   0  0  0  0  0  0  0  0  0  0  0  0
   34.1176  -25.6157  -17.7015 C   0  0  2  0  0  0  0  0  0  0  0  0
   32.9495  -24.8760  -17.3623 N   0  0  0  0  0  0  0  0  0  0  0  0
   34.0214  -26.9692  -17.1042 C   0  0  0  0  0  0  0  0  0  0  0  0
   33.6654  -27.1649  -15.9125 O   0  0  0  0  0  0  0  0  0  0  0  0
   34.3456  -28.0906  -17.9123 N   0  0  0  0  0  0  0  0  0  0  0  0
   34.3434  -29.4411  -17.4000 C   0  0  1  0  0  0  0  0  0  0  0  0
   33.1704  -30.2578  -17.8552 C   0  0  0  0  0  0  0  0  0  0  0  0
   33.2688  -31.6172  -17.2955 C   0  0  0  0  0  0  0  0  0  0  0  0
   33.6863  -31.9423  -16.0400 C   0  0  0  0  0  0  0  0  0  0  0  0
   33.6206  -33.2870  -15.9464 N   0  0  0  0  0  0  0  0  0  0  0  0
   33.1723  -33.7744  -17.1200 C   0  0  0  0  0  0  0  0  0  0  0  0
   32.9512  -32.7391  -17.9648 N   0  0  0  0  0  0  0  0  0  0  0  0
   35.6320  -30.0858  -17.8190 C   0  0  0  0  0  0  0  0  0  0  0  0
   36.1680  -29.7288  -18.9063 O   0  0  0  0  0  0  0  0  0  0  0  0
   36.2518  -31.0526  -17.0613 O   0  0  0  0  0  0  0  0  0  0  0  0
  2  6  1  0
  2  1  1  6
  3  2  1  0
  3  4  1  0
  4  8  1  0
  4  5  2  0
  6  7  2  0
 10  9  1  1
 10 11  1  0
 10 12  1  0
 12 14  1  0
 12 13  1  1
 13  6  1  0
 14 15  2  0
 16 14  1  0
 16 17  1  0
 17 24  1  0
 17 18  1  6
 19 18  1  0
 19 20  2  0
 21 20  1  0
 22 21  1  0
 23 22  2  0
 23 19  1  0
 24 25  2  0
 24 26  1  0
M  END
$$$$
