DVH.pdb
     RDKit          3D

 26 26  0  0  1  0  0  0  0  0999 V2000
   44.0053  -10.7281   -6.4744 N   0  0  0  0  0  0  0  0  0  0  0  0
   42.7813  -10.2152   -5.9399 C   0  0  1  0  0  0  0  0  0  0  0  0
   43.0169   -8.9678   -5.1309 C   0  0  0  0  0  0  0  0  0  0  0  0
   43.8256   -9.3484   -3.9218 C   0  0  0  0  0  0  0  0  0  0  0  0
   44.9807   -8.8789   -3.7293 O   0  0  0  0  0  0  0  0  0  0  0  0
   41.8510   -9.8896   -7.0501 C   0  0  0  0  0  0  0  0  0  0  0  0
   42.2778   -9.3867   -8.1179 O   0  0  0  0  0  0  0  0  0  0  0  0
   43.3127  -10.2215   -3.0005 O   0  0  0  0  0  0  0  0  0  0  0  0
   38.7885  -12.1251   -8.5464 C   0  0  0  0  0  0  0  0  0  0  0  0
   38.3387  -10.8050   -7.9844 C   0  0  1  0  0  0  0  0  0  0  0  0
   37.6362  -10.9729   -6.6467 C   0  0  0  0  0  0  0  0  0  0  0  0
   39.4722   -9.8058   -7.8891 C   0  0  2  0  0  0  0  0  0  0  0  0
   40.4582  -10.1435   -6.9195 N   0  0  0  0  0  0  0  0  0  0  0  0
   38.9110   -8.4731   -7.5619 C   0  0  0  0  0  0  0  0  0  0  0  0
   38.7302   -8.0810   -6.3792 O   0  0  0  0  0  0  0  0  0  0  0  0
   38.5632   -7.6041   -8.6294 N   0  0  0  0  0  0  0  0  0  0  0  0
   38.3766   -6.1840   -8.4428 C   0  0  1  0  0  0  0  0  0  0  0  0
   39.5250   -5.5095   -7.7526 C   0  0  0  0  0  0  0  0  0  0  0  0
   39.1858   -4.0992   -7.4939 C   0  0  0  0  0  0  0  0  0  0  0  0
   38.3326   -3.6393   -6.5364 C   0  0  0  0  0  0  0  0  0  0  0  0
   38.3150   -2.2945   -6.6474 N   0  0  0  0  0  0  0  0  0  0  0  0
   39.1401   -1.9390   -7.6517 C   0  0  0  0  0  0  0  0  0  0  0  0
   39.6858   -3.0590   -8.1833 N   0  0  0  0  0  0  0  0  0  0  0  0
   38.1414   -5.5773   -9.7950 C   0  0  0  0  0  0  0  0  0  0  0  0
   38.2908   -6.2983  -10.8220 O   0  0  0  0  0  0  0  0  0  0  0  0
   37.7685   -4.2629   -9.9571 O   0  0  0  0  0  0  0  0  0  0  0  0
  2  6  1  0
  2  1  1  6
  3  2  1  0
  3  4  1  0
  4  8  1  0
  4  5  2  0
  6  7  2  0
 10  9  1  1
 10 11  1  0
 10 12  1  0
 12 14  1  0
 12 13  1  1
 13  6  1  0
 14 15  2  0
 16 14  1  0
 16 17  1  0
 17 24  1  0
 17 18  1  6
 19 18  1  0
 19 20  2  0
 21 20  1  0
 22 21  1  0
 23 22  2  0
 23 19  1  0
 24 25  2  0
 24 26  1  0
M  END
$$$$
