DVH.pdb
     RDKit          3D

 26 26  0  0  1  0  0  0  0  0999 V2000
   27.4470  -19.5948  -17.7832 N   0  0  0  0  0  0  0  0  0  0  0  0
   26.8326  -18.8984  -16.6948 C   0  0  1  0  0  0  0  0  0  0  0  0
   25.7187  -18.0065  -17.1742 C   0  0  0  0  0  0  0  0  0  0  0  0
   26.3373  -16.8571  -17.9206 C   0  0  0  0  0  0  0  0  0  0  0  0
   25.6426  -15.8825  -18.3194 O   0  0  0  0  0  0  0  0  0  0  0  0
   26.2718  -19.8777  -15.7303 C   0  0  0  0  0  0  0  0  0  0  0  0
   25.5432  -20.8207  -16.1242 O   0  0  0  0  0  0  0  0  0  0  0  0
   27.6812  -16.8523  -18.1814 O   0  0  0  0  0  0  0  0  0  0  0  0
   26.2483  -21.5596  -11.0245 C   0  0  0  0  0  0  0  0  0  0  0  0
   26.8387  -20.6432  -12.0601 C   0  0  1  0  0  0  0  0  0  0  0  0
   28.2867  -20.9942  -12.3622 C   0  0  0  0  0  0  0  0  0  0  0  0
   26.0084  -20.5965  -13.3253 C   0  0  2  0  0  0  0  0  0  0  0  0
   26.5529  -19.7613  -14.3415 N   0  0  0  0  0  0  0  0  0  0  0  0
   24.6458  -20.1196  -12.9880 C   0  0  0  0  0  0  0  0  0  0  0  0
   24.4220  -18.9751  -12.5135 O   0  0  0  0  0  0  0  0  0  0  0  0
   23.5485  -20.9926  -13.2100 N   0  0  0  0  0  0  0  0  0  0  0  0
   22.1814  -20.5271  -13.2371 C   0  0  1  0  0  0  0  0  0  0  0  0
   21.9433  -19.4090  -14.2083 C   0  0  0  0  0  0  0  0  0  0  0  0
   20.5285  -19.0011  -14.1540 C   0  0  0  0  0  0  0  0  0  0  0  0
   19.7298  -19.0115  -13.0501 C   0  0  0  0  0  0  0  0  0  0  0  0
   18.5197  -18.5625  -13.4439 N   0  0  0  0  0  0  0  0  0  0  0  0
   18.5767  -18.2831  -14.7610 C   0  0  0  0  0  0  0  0  0  0  0  0
   19.8257  -18.5543  -15.2093 N   0  0  0  0  0  0  0  0  0  0  0  0
   21.3091  -21.7044  -13.5608 C   0  0  0  0  0  0  0  0  0  0  0  0
   20.0545  -21.5743  -13.4839 O   0  0  0  0  0  0  0  0  0  0  0  0
   21.8266  -22.9220  -13.9389 O   0  0  0  0  0  0  0  0  0  0  0  0
  2  6  1  0
  2  1  1  6
  3  2  1  0
  3  4  1  0
  4  8  1  0
  4  5  2  0
  6  7  2  0
 10  9  1  1
 10 11  1  0
 10 12  1  0
 12 14  1  0
 12 13  1  6
 13  6  1  0
 14 15  2  0
 16 14  1  0
 16 17  1  0
 17 24  1  0
 17 18  1  6
 19 18  1  0
 19 20  2  0
 21 20  1  0
 22 21  1  0
 23 22  2  0
 23 19  1  0
 24 25  2  0
 24 26  1  0
M  END
$$$$
