DVH.pdb
     RDKit          3D

 26 26  0  0  1  0  0  0  0  0999 V2000
   21.6265  -19.7503  -15.2826 N   0  0  0  0  0  0  0  0  0  0  0  0
   22.6625  -20.4617  -14.5987 C   0  0  1  0  0  0  0  0  0  0  0  0
   22.2332  -21.8646  -14.2617 C   0  0  0  0  0  0  0  0  0  0  0  0
   21.0620  -21.7754  -13.3231 C   0  0  0  0  0  0  0  0  0  0  0  0
   20.6123  -20.6616  -12.9372 O   0  0  0  0  0  0  0  0  0  0  0  0
   23.8704  -20.5311  -15.4590 C   0  0  0  0  0  0  0  0  0  0  0  0
   23.7686  -20.7450  -16.6915 O   0  0  0  0  0  0  0  0  0  0  0  0
   20.4591  -22.9171  -12.8679 O   0  0  0  0  0  0  0  0  0  0  0  0
   28.6115  -19.2619  -16.0146 C   0  0  0  0  0  0  0  0  0  0  0  0
   27.3107  -19.2043  -15.2629 C   0  0  1  0  0  0  0  0  0  0  0  0
   26.6282  -17.8551  -15.4218 C   0  0  0  0  0  0  0  0  0  0  0  0
   26.3806  -20.3388  -15.6375 C   0  0  2  0  0  0  0  0  0  0  0  0
   25.1647  -20.3556  -14.8973 N   0  0  0  0  0  0  0  0  0  0  0  0
   27.0872  -21.6261  -15.4332 C   0  0  0  0  0  0  0  0  0  0  0  0
   27.0317  -22.2703  -14.3529 O   0  0  0  0  0  0  0  0  0  0  0  0
   27.8586  -22.1522  -16.5025 N   0  0  0  0  0  0  0  0  0  0  0  0
   28.2578  -23.5392  -16.5606 C   0  0  1  0  0  0  0  0  0  0  0  0
   27.1274  -24.5023  -16.3487 C   0  0  0  0  0  0  0  0  0  0  0  0
   27.6212  -25.8827  -16.4951 C   0  0  0  0  0  0  0  0  0  0  0  0
   28.9235  -26.2620  -16.6244 C   0  0  0  0  0  0  0  0  0  0  0  0
   28.9260  -27.6075  -16.7292 N   0  0  0  0  0  0  0  0  0  0  0  0
   27.6521  -28.0423  -16.6655 C   0  0  0  0  0  0  0  0  0  0  0  0
   26.8344  -26.9725  -16.5196 N   0  0  0  0  0  0  0  0  0  0  0  0
   28.9053  -23.7680  -17.8947 C   0  0  0  0  0  0  0  0  0  0  0  0
   28.6690  -22.9577  -18.8351 O   0  0  0  0  0  0  0  0  0  0  0  0
   29.7481  -24.8295  -18.1314 O   0  0  0  0  0  0  0  0  0  0  0  0
  2  6  1  0
  2  1  1  6
  3  2  1  0
  3  4  1  0
  4  8  1  0
  4  5  2  0
  6  7  2  0
 10  9  1  6
 10 11  1  0
 10 12  1  0
 12 14  1  0
 12 13  1  1
 13  6  1  0
 14 15  2  0
 16 14  1  0
 16 17  1  0
 17 24  1  0
 17 18  1  6
 19 18  1  0
 19 20  2  0
 21 20  1  0
 22 21  1  0
 23 22  2  0
 23 19  1  0
 24 25  2  0
 24 26  1  0
M  END
$$$$
