DVH.pdb
     RDKit          3D

 26 26  0  0  1  0  0  0  0  0999 V2000
   17.2835  -14.2039  -16.5791 N   0  0  0  0  0  0  0  0  0  0  0  0
   16.8400  -12.9678  -16.0111 C   0  0  1  0  0  0  0  0  0  0  0  0
   16.1968  -13.1820  -14.6672 C   0  0  0  0  0  0  0  0  0  0  0  0
   14.9273  -13.9586  -14.8823 C   0  0  0  0  0  0  0  0  0  0  0  0
   14.1081  -13.6413  -15.7876 O   0  0  0  0  0  0  0  0  0  0  0  0
   17.9980  -12.0545  -15.8405 C   0  0  0  0  0  0  0  0  0  0  0  0
   19.1155  -12.4965  -15.4784 O   0  0  0  0  0  0  0  0  0  0  0  0
   14.6390  -15.0355  -14.0877 O   0  0  0  0  0  0  0  0  0  0  0  0
   19.3005   -9.6842  -18.5911 C   0  0  0  0  0  0  0  0  0  0  0  0
   18.9698   -8.8764  -17.3669 C   0  0  1  0  0  0  0  0  0  0  0  0
   17.6812   -8.0894  -17.5431 C   0  0  0  0  0  0  0  0  0  0  0  0
   18.9293   -9.7247  -16.1134 C   0  0  2  0  0  0  0  0  0  0  0  0
   17.8574  -10.6611  -16.0855 N   0  0  0  0  0  0  0  0  0  0  0  0
   18.8214   -8.8332  -14.9337 C   0  0  0  0  0  0  0  0  0  0  0  0
   17.7219   -8.3815  -14.5188 O   0  0  0  0  0  0  0  0  0  0  0  0
   20.0099   -8.4749  -14.2447 N   0  0  0  0  0  0  0  0  0  0  0  0
   20.0000   -7.6414  -13.0650 C   0  0  1  0  0  0  0  0  0  0  0  0
   21.2710   -7.7041  -12.2707 C   0  0  0  0  0  0  0  0  0  0  0  0
   21.1488   -6.8503  -11.0761 C   0  0  0  0  0  0  0  0  0  0  0  0
   20.4363   -7.1379   -9.9510 C   0  0  0  0  0  0  0  0  0  0  0  0
   20.5970   -6.0921   -9.1133 N   0  0  0  0  0  0  0  0  0  0  0  0
   21.3913   -5.1837   -9.7133 C   0  0  0  0  0  0  0  0  0  0  0  0
   21.7384   -5.6503  -10.9366 N   0  0  0  0  0  0  0  0  0  0  0  0
   19.7208   -6.2350  -13.5073 C   0  0  0  0  0  0  0  0  0  0  0  0
   20.2041   -5.8322  -14.6032 O   0  0  0  0  0  0  0  0  0  0  0  0
   18.9565   -5.3671  -12.7618 O   0  0  0  0  0  0  0  0  0  0  0  0
  2  6  1  0
  2  1  1  1
  3  2  1  0
  3  4  1  0
  4  8  1  0
  4  5  2  0
  6  7  2  0
 10  9  1  6
 10 11  1  0
 10 12  1  0
 12 14  1  0
 12 13  1  6
 13  6  1  0
 14 15  2  0
 16 14  1  0
 16 17  1  0
 17 24  1  0
 17 18  1  6
 19 18  1  0
 19 20  2  0
 21 20  1  0
 22 21  1  0
 23 22  2  0
 23 19  1  0
 24 25  2  0
 24 26  1  0
M  END
$$$$
