CRR.pdb
     RDKit          3D

 29 28  0  0  1  0  0  0  0  0999 V2000
   24.9727  -20.7919   -7.9448 N   0  0  0  0  0  0  0  0  0  0  0  0
   24.7693  -20.9475   -9.3594 C   0  0  1  0  0  0  0  0  0  0  0  0
   23.4068  -20.4576   -9.7955 C   0  0  0  0  0  0  0  0  0  0  0  0
   22.0971  -21.5442   -9.1725 S   0  0  0  0  0  0  0  0  0  0  0  0
   25.8292  -20.2953  -10.1390 C   0  0  0  0  0  0  0  0  0  0  0  0
   26.2457  -19.1511   -9.7639 O   0  0  0  0  0  0  0  0  0  0  0  0
   31.9809  -22.6198   -9.3723 N   0  0  0  0  0  0  0  0  0  0  0  0
   32.2754  -22.9264  -10.7298 C   0  0  0  0  0  0  0  0  0  0  0  0
   33.0561  -23.8717  -11.0971 N   0  0  0  0  0  0  0  0  0  0  0  0
   31.6582  -22.1252  -11.7415 N   0  0  0  0  0  0  0  0  0  0  0  0
   30.8977  -20.9472  -11.4191 C   0  0  0  0  0  0  0  0  0  0  0  0
   29.4712  -21.3611  -11.0073 C   0  0  0  0  0  0  0  0  0  0  0  0
   28.5567  -21.2865  -12.1773 C   0  0  0  0  0  0  0  0  0  0  0  0
   27.4525  -20.2714  -12.0513 C   0  0  2  0  0  0  0  0  0  0  0  0
   26.3774  -20.9107  -11.2743 N   0  0  0  0  0  0  0  0  0  0  0  0
   26.8545  -19.8746  -13.3554 C   0  0  0  0  0  0  0  0  0  0  0  0
   26.4341  -20.7666  -14.1690 O   0  0  0  0  0  0  0  0  0  0  0  0
   33.2559  -24.0438  -12.1110 N   0  0  0  0  0  0  0  0  0  0  0  0
   21.5899  -13.9950  -15.9071 C   0  0  0  0  0  0  0  0  0  0  0  0
   21.6396  -15.3853  -16.0846 N   0  0  0  0  0  0  0  0  0  0  0  0
   20.5700  -16.1342  -16.0810 N   0  0  0  0  0  0  0  0  0  0  0  0
   22.8946  -16.0165  -16.2762 C   0  0  0  0  0  0  0  0  0  0  0  0
   24.1446  -15.2905  -16.1690 C   0  0  0  0  0  0  0  0  0  0  0  0
   25.3568  -16.1581  -16.4405 C   0  0  0  0  0  0  0  0  0  0  0  0
   25.8882  -16.6200  -15.1154 C   0  0  1  0  0  0  0  0  0  0  0  0
   26.1925  -18.0636  -15.0256 N   0  0  0  0  0  0  0  0  0  0  0  0
   26.7133  -18.5226  -13.7646 C   0  0  0  0  0  0  0  0  0  0  0  0
   26.8351  -18.6573  -16.2211 O   0  0  0  0  0  0  0  0  0  0  0  0
   28.0756  -18.7743  -16.2455 O   0  0  0  0  0  0  0  0  0  0  0  0
  2  1  1  1
  2  5  1  0
  2  3  1  0
  4  3  1  0
  5  6  2  0
  7  8  1  0
  8  9  2  0
  8 10  1  0
 10 11  1  0
 11 12  1  0
 12 13  1  0
 14 13  1  6
 15 14  1  0
 15  5  1  0
 16 14  1  0
 17 16  2  0
 18 19  1  0
 19 20  2  0
 19 21  1  0
 21 22  1  0
 22 23  1  0
 23 24  1  0
 25 24  1  1
 25 27  1  0
 25 26  1  0
 26 16  1  0
 27 29  1  0
 28 27  2  0
M  END
$$$$
