CRR.pdb
     RDKit          3D

 29 28  0  0  1  0  0  0  0  0999 V2000
   18.5205  -22.5138   -7.0829 N   0  0  0  0  0  0  0  0  0  0  0  0
   19.7486  -22.9803   -7.6669 C   0  0  1  0  0  0  0  0  0  0  0  0
   19.5902  -24.3361   -8.3174 C   0  0  0  0  0  0  0  0  0  0  0  0
   18.0833  -24.4011   -9.3221 S   0  0  0  0  0  0  0  0  0  0  0  0
   20.3044  -22.0099   -8.6188 C   0  0  0  0  0  0  0  0  0  0  0  0
   19.5466  -21.0849   -9.0588 O   0  0  0  0  0  0  0  0  0  0  0  0
   26.2430  -22.0476  -13.7640 N   0  0  0  0  0  0  0  0  0  0  0  0
   26.6007  -20.6993  -13.4853 C   0  0  0  0  0  0  0  0  0  0  0  0
   26.9264  -19.8453  -14.3811 N   0  0  0  0  0  0  0  0  0  0  0  0
   26.5942  -20.2786  -12.1180 N   0  0  0  0  0  0  0  0  0  0  0  0
   25.9057  -21.0228  -11.0973 C   0  0  0  0  0  0  0  0  0  0  0  0
   24.4089  -20.6561  -11.1242 C   0  0  0  0  0  0  0  0  0  0  0  0
   23.6868  -21.3643  -10.0343 C   0  0  0  0  0  0  0  0  0  0  0  0
   22.1996  -21.1337  -10.0091 C   0  0  2  0  0  0  0  0  0  0  0  0
   21.6397  -22.0915   -9.0408 N   0  0  0  0  0  0  0  0  0  0  0  0
   21.5308  -21.4069  -11.3106 C   0  0  0  0  0  0  0  0  0  0  0  0
   21.4553  -22.6024  -11.7571 O   0  0  0  0  0  0  0  0  0  0  0  0
   27.2552  -18.8859  -14.1183 N   0  0  0  0  0  0  0  0  0  0  0  0
   15.2844  -17.6603  -15.2296 C   0  0  0  0  0  0  0  0  0  0  0  0
   16.4600  -16.9234  -15.4345 N   0  0  0  0  0  0  0  0  0  0  0  0
   16.4559  -15.6341  -15.6407 N   0  0  0  0  0  0  0  0  0  0  0  0
   17.7101  -17.5921  -15.4204 C   0  0  0  0  0  0  0  0  0  0  0  0
   17.8090  -19.0353  -15.3278 C   0  0  0  0  0  0  0  0  0  0  0  0
   19.2360  -19.5366  -15.4177 C   0  0  0  0  0  0  0  0  0  0  0  0
   19.8723  -19.3332  -14.0740 C   0  0  2  0  0  0  0  0  0  0  0  0
   20.3763  -20.5600  -13.4218 N   0  0  0  0  0  0  0  0  0  0  0  0
   20.9487  -20.3900  -12.1120 C   0  0  0  0  0  0  0  0  0  0  0  0
   21.1036  -21.5012  -14.3049 O   0  0  0  0  0  0  0  0  0  0  0  0
   20.4522  -22.3093  -14.9946 O   0  0  0  0  0  0  0  0  0  0  0  0
  2  1  1  6
  2  5  1  0
  2  3  1  0
  4  3  1  0
  5  6  2  0
  7  8  1  0
  8  9  2  0
  8 10  1  0
 10 11  1  0
 11 12  1  0
 12 13  1  0
 14 13  1  6
 15 14  1  0
 15  5  1  0
 16 14  1  0
 17 16  2  0
 18 19  1  0
 19 20  2  0
 19 21  1  0
 21 22  1  0
 22 23  1  0
 23 24  1  0
 25 24  1  1
 25 27  1  0
 25 26  1  0
 26 16  1  0
 27 29  1  0
 28 27  2  0
M  END
$$$$
