CRR.pdb
     RDKit          3D

 29 28  0  0  1  0  0  0  0  0999 V2000
   27.6576  -20.9373  -15.1021 N   0  0  0  0  0  0  0  0  0  0  0  0
   26.8905  -20.7400  -16.3018 C   0  0  1  0  0  0  0  0  0  0  0  0
   27.7363  -20.2085  -17.4370 C   0  0  0  0  0  0  0  0  0  0  0  0
   28.0486  -18.4346  -17.2373 S   0  0  0  0  0  0  0  0  0  0  0  0
   26.1866  -21.9632  -16.7078 C   0  0  0  0  0  0  0  0  0  0  0  0
   25.4134  -21.9144  -17.7194 O   0  0  0  0  0  0  0  0  0  0  0  0
   29.4215  -29.5968  -17.2031 N   0  0  0  0  0  0  0  0  0  0  0  0
   29.2360  -28.4096  -17.9645 C   0  0  0  0  0  0  0  0  0  0  0  0
   29.9831  -28.0635  -18.9443 N   0  0  0  0  0  0  0  0  0  0  0  0
   28.1461  -27.5544  -17.6079 N   0  0  0  0  0  0  0  0  0  0  0  0
   27.1991  -27.9159  -16.5869 C   0  0  0  0  0  0  0  0  0  0  0  0
   26.0720  -26.8654  -16.5452 C   0  0  0  0  0  0  0  0  0  0  0  0
   26.6462  -25.5009  -16.4059 C   0  0  0  0  0  0  0  0  0  0  0  0
   25.6324  -24.3887  -16.3873 C   0  0  2  0  0  0  0  0  0  0  0  0
   26.3551  -23.1645  -16.0031 N   0  0  0  0  0  0  0  0  0  0  0  0
   24.5552  -24.5793  -15.3777 C   0  0  0  0  0  0  0  0  0  0  0  0
   24.8435  -24.6495  -14.1342 O   0  0  0  0  0  0  0  0  0  0  0  0
   29.8040  -27.1769  -19.4729 N   0  0  0  0  0  0  0  0  0  0  0  0
   16.6583  -23.8106  -14.7938 C   0  0  0  0  0  0  0  0  0  0  0  0
   16.7078  -23.3776  -13.4607 N   0  0  0  0  0  0  0  0  0  0  0  0
   15.6641  -23.3926  -12.6764 N   0  0  0  0  0  0  0  0  0  0  0  0
   17.9334  -22.9016  -12.9302 C   0  0  0  0  0  0  0  0  0  0  0  0
   19.1244  -22.7695  -13.7458 C   0  0  0  0  0  0  0  0  0  0  0  0
   19.9482  -24.0401  -13.7986 C   0  0  0  0  0  0  0  0  0  0  0  0
   21.1654  -23.7557  -14.6287 C   0  0  1  0  0  0  0  0  0  0  0  0
   22.0894  -24.8957  -14.8058 N   0  0  0  0  0  0  0  0  0  0  0  0
   23.1818  -24.6877  -15.7199 C   0  0  0  0  0  0  0  0  0  0  0  0
   21.4508  -26.2298  -14.8875 O   0  0  0  0  0  0  0  0  0  0  0  0
   20.8858  -26.6927  -13.8778 O   0  0  0  0  0  0  0  0  0  0  0  0
  2  1  1  1
  2  5  1  0
  2  3  1  0
  4  3  1  0
  5  6  2  0
  7  8  1  0
  8  9  2  0
  8 10  1  0
 10 11  1  0
 11 12  1  0
 12 13  1  0
 14 13  1  1
 15 14  1  0
 15  5  1  0
 16 14  1  0
 17 16  2  0
 18 19  1  0
 19 20  2  0
 19 21  1  0
 21 22  1  0
 22 23  1  0
 23 24  1  0
 25 24  1  1
 25 27  1  0
 25 26  1  0
 26 16  1  0
 27 29  1  0
 28 27  2  0
M  END
$$$$
