CRR.pdb
     RDKit          3D

 29 28  0  0  1  0  0  0  0  0999 V2000
   28.7473  -23.4390  -17.5846 N   0  0  0  0  0  0  0  0  0  0  0  0
   28.5930  -22.1930  -16.8843 C   0  0  1  0  0  0  0  0  0  0  0  0
   28.6379  -21.0055  -17.8193 C   0  0  0  0  0  0  0  0  0  0  0  0
   30.1761  -20.9925  -18.7774 S   0  0  0  0  0  0  0  0  0  0  0  0
   27.3683  -22.1694  -16.0741 C   0  0  0  0  0  0  0  0  0  0  0  0
   26.3378  -22.7796  -16.5091 O   0  0  0  0  0  0  0  0  0  0  0  0
   23.0358  -20.3831  -10.3000 N   0  0  0  0  0  0  0  0  0  0  0  0
   23.8144  -20.9223   -9.2387 C   0  0  0  0  0  0  0  0  0  0  0  0
   23.3188  -21.4827   -8.2003 N   0  0  0  0  0  0  0  0  0  0  0  0
   25.2380  -20.8288   -9.3443 N   0  0  0  0  0  0  0  0  0  0  0  0
   25.8749  -20.1121  -10.4169 C   0  0  0  0  0  0  0  0  0  0  0  0
   25.3533  -20.6473  -11.7650 C   0  0  0  0  0  0  0  0  0  0  0  0
   26.4909  -20.9363  -12.6778 C   0  0  0  0  0  0  0  0  0  0  0  0
   26.0949  -21.4484  -14.0367 C   0  0  2  0  0  0  0  0  0  0  0  0
   27.3241  -21.4920  -14.8465 N   0  0  0  0  0  0  0  0  0  0  0  0
   25.1443  -20.5575  -14.7568 C   0  0  0  0  0  0  0  0  0  0  0  0
   25.4460  -19.3341  -14.9723 O   0  0  0  0  0  0  0  0  0  0  0  0
   23.9361  -21.8403   -7.4331 N   0  0  0  0  0  0  0  0  0  0  0  0
   20.4124  -19.7947  -20.8893 C   0  0  0  0  0  0  0  0  0  0  0  0
   20.6537  -18.4610  -20.5285 N   0  0  0  0  0  0  0  0  0  0  0  0
   19.9593  -17.4651  -21.0086 N   0  0  0  0  0  0  0  0  0  0  0  0
   21.6903  -18.1677  -19.6068 C   0  0  0  0  0  0  0  0  0  0  0  0
   22.3294  -19.1997  -18.8146 C   0  0  0  0  0  0  0  0  0  0  0  0
   21.3674  -19.9122  -17.8857 C   0  0  0  0  0  0  0  0  0  0  0  0
   22.1741  -20.8364  -17.0216 C   0  0  2  0  0  0  0  0  0  0  0  0
   22.8979  -20.1884  -15.9076 N   0  0  0  0  0  0  0  0  0  0  0  0
   23.8835  -20.9968  -15.2390 C   0  0  0  0  0  0  0  0  0  0  0  0
   22.0722  -19.3427  -15.0146 O   0  0  0  0  0  0  0  0  0  0  0  0
   21.6409  -19.8279  -13.9508 O   0  0  0  0  0  0  0  0  0  0  0  0
  2  1  1  6
  2  5  1  0
  2  3  1  0
  4  3  1  0
  5  6  2  0
  7  8  1  0
  8  9  2  0
  8 10  1  0
 10 11  1  0
 11 12  1  0
 12 13  1  0
 14 13  1  1
 15 14  1  0
 15  5  1  0
 16 14  1  0
 17 16  2  0
 18 19  1  0
 19 20  2  0
 19 21  1  0
 21 22  1  0
 22 23  1  0
 23 24  1  0
 25 24  1  6
 25 27  1  0
 25 26  1  0
 26 16  1  0
 27 29  1  0
 28 27  2  0
M  END
$$$$
