CRR.pdb
     RDKit          3D

 29 28  0  0  1  0  0  0  0  0999 V2000
   28.8542  -21.6761  -12.3841 N   0  0  0  0  0  0  0  0  0  0  0  0
   27.9445  -20.5638  -12.3395 C   0  0  1  0  0  0  0  0  0  0  0  0
   28.2674  -19.5224  -13.3873 C   0  0  0  0  0  0  0  0  0  0  0  0
   27.1955  -18.0718  -13.2115 S   0  0  0  0  0  0  0  0  0  0  0  0
   26.5457  -20.9968  -12.4521 C   0  0  0  0  0  0  0  0  0  0  0  0
   26.2398  -21.8409  -13.3563 O   0  0  0  0  0  0  0  0  0  0  0  0
   20.5184  -22.9178   -7.0717 N   0  0  0  0  0  0  0  0  0  0  0  0
   20.4082  -21.9850   -8.1398 C   0  0  0  0  0  0  0  0  0  0  0  0
   19.4700  -22.0006   -9.0100 N   0  0  0  0  0  0  0  0  0  0  0  0
   21.4110  -20.9698   -8.2422 N   0  0  0  0  0  0  0  0  0  0  0  0
   21.3518  -19.9419   -9.2471 C   0  0  0  0  0  0  0  0  0  0  0  0
   21.9547  -20.4801  -10.5596 C   0  0  0  0  0  0  0  0  0  0  0  0
   23.4398  -20.4617  -10.4884 C   0  0  0  0  0  0  0  0  0  0  0  0
   24.1375  -20.8300  -11.7702 C   0  0  2  0  0  0  0  0  0  0  0  0
   25.5603  -20.4973  -11.5877 N   0  0  0  0  0  0  0  0  0  0  0  0
   23.6685  -20.0529  -12.9500 C   0  0  0  0  0  0  0  0  0  0  0  0
   23.7297  -18.7759  -12.9455 O   0  0  0  0  0  0  0  0  0  0  0  0
   19.4416  -21.2975   -9.7863 N   0  0  0  0  0  0  0  0  0  0  0  0
   23.9730  -18.0576  -20.7909 C   0  0  0  0  0  0  0  0  0  0  0  0
   24.9573  -18.8484  -20.1804 N   0  0  0  0  0  0  0  0  0  0  0  0
   26.2238  -18.7543  -20.4832 N   0  0  0  0  0  0  0  0  0  0  0  0
   24.5763  -19.7923  -19.1934 C   0  0  0  0  0  0  0  0  0  0  0  0
   23.1956  -20.1909  -19.0033 C   0  0  0  0  0  0  0  0  0  0  0  0
   22.5798  -19.6072  -17.7478 C   0  0  0  0  0  0  0  0  0  0  0  0
   23.1170  -20.3802  -16.5793 C   0  0  2  0  0  0  0  0  0  0  0  0
   22.5871  -19.9785  -15.2592 N   0  0  0  0  0  0  0  0  0  0  0  0
   23.1436  -20.6609  -14.1205 C   0  0  0  0  0  0  0  0  0  0  0  0
   21.1244  -19.7518  -15.1993 O   0  0  0  0  0  0  0  0  0  0  0  0
   20.6669  -18.6536  -15.5705 O   0  0  0  0  0  0  0  0  0  0  0  0
  2  1  1  6
  2  5  1  0
  2  3  1  0
  4  3  1  0
  5  6  2  0
  7  8  1  0
  8  9  2  0
  8 10  1  0
 10 11  1  0
 11 12  1  0
 12 13  1  0
 14 13  1  1
 15 14  1  0
 15  5  1  0
 16 14  1  0
 17 16  2  0
 18 19  1  0
 19 20  2  0
 19 21  1  0
 21 22  1  0
 22 23  1  0
 23 24  1  0
 25 24  1  1
 25 27  1  0
 25 26  1  0
 26 16  1  0
 27 29  1  0
 28 27  2  0
M  END
$$$$
