CRR.pdb
     RDKit          3D

 29 28  0  0  1  0  0  0  0  0999 V2000
   18.8800  -25.4923   -9.9961 N   0  0  0  0  0  0  0  0  0  0  0  0
   19.0028  -24.8326   -8.7247 C   0  0  1  0  0  0  0  0  0  0  0  0
   18.8439  -23.3336   -8.8439 C   0  0  0  0  0  0  0  0  0  0  0  0
   20.0242  -22.6493  -10.0367 S   0  0  0  0  0  0  0  0  0  0  0  0
   18.0653  -25.3766   -7.7339 C   0  0  0  0  0  0  0  0  0  0  0  0
   16.8476  -25.5394   -8.0718 O   0  0  0  0  0  0  0  0  0  0  0  0
   16.9662  -25.3271   -0.7342 N   0  0  0  0  0  0  0  0  0  0  0  0
   17.0010  -26.5998   -0.1000 C   0  0  0  0  0  0  0  0  0  0  0  0
   16.3498  -26.8879    0.9633 N   0  0  0  0  0  0  0  0  0  0  0  0
   17.8162  -27.6157   -0.6919 N   0  0  0  0  0  0  0  0  0  0  0  0
   18.5750  -27.3783   -1.8909 C   0  0  0  0  0  0  0  0  0  0  0  0
   17.6114  -27.0169   -3.0382 C   0  0  0  0  0  0  0  0  0  0  0  0
   18.3768  -26.7219   -4.2784 C   0  0  0  0  0  0  0  0  0  0  0  0
   17.5476  -26.2068   -5.4240 C   0  0  2  0  0  0  0  0  0  0  0  0
   18.4917  -25.7124   -6.4403 N   0  0  0  0  0  0  0  0  0  0  0  0
   16.6757  -25.0564   -5.0602 C   0  0  0  0  0  0  0  0  0  0  0  0
   17.1922  -23.9236   -4.7700 O   0  0  0  0  0  0  0  0  0  0  0  0
   16.4436  -27.8280    1.4160 N   0  0  0  0  0  0  0  0  0  0  0  0
   13.3266  -20.4218   -8.8944 C   0  0  0  0  0  0  0  0  0  0  0  0
   12.2721  -21.3452   -8.8462 N   0  0  0  0  0  0  0  0  0  0  0  0
   11.3819  -21.4474   -9.7959 N   0  0  0  0  0  0  0  0  0  0  0  0
   12.1552  -22.2081   -7.7274 C   0  0  0  0  0  0  0  0  0  0  0  0
   12.3433  -21.7364   -6.3697 C   0  0  0  0  0  0  0  0  0  0  0  0
   12.2275  -22.8411   -5.3391 C   0  0  0  0  0  0  0  0  0  0  0  0
   13.2277  -23.9006   -5.6977 C   0  0  1  0  0  0  0  0  0  0  0  0
   14.3493  -24.0575   -4.7480 N   0  0  0  0  0  0  0  0  0  0  0  0
   15.2592  -25.1399   -5.0178 C   0  0  0  0  0  0  0  0  0  0  0  0
   14.0085  -23.8683   -3.3189 O   0  0  0  0  0  0  0  0  0  0  0  0
   13.1812  -22.9906   -3.0055 O   0  0  0  0  0  0  0  0  0  0  0  0
  2  1  1  6
  2  5  1  0
  2  3  1  0
  4  3  1  0
  5  6  2  0
  7  8  1  0
  8  9  2  0
  8 10  1  0
 10 11  1  0
 11 12  1  0
 12 13  1  0
 14 13  1  1
 15 14  1  0
 15  5  1  0
 16 14  1  0
 17 16  2  0
 18 19  1  0
 19 20  2  0
 19 21  1  0
 21 22  1  0
 22 23  1  0
 23 24  1  0
 25 24  1  6
 25 27  1  0
 25 26  1  0
 26 16  1  0
 27 29  1  0
 28 27  2  0
M  END
$$$$
