CRR.pdb
     RDKit          3D

 29 28  0  0  1  0  0  0  0  0999 V2000
   27.5497  -20.7801  -11.4257 N   0  0  0  0  0  0  0  0  0  0  0  0
   26.3634  -21.5870  -11.3335 C   0  0  1  0  0  0  0  0  0  0  0  0
   25.9554  -21.8368   -9.8990 C   0  0  0  0  0  0  0  0  0  0  0  0
   25.5272  -20.2847   -9.0671 S   0  0  0  0  0  0  0  0  0  0  0  0
   25.2494  -21.0102  -12.0968 C   0  0  0  0  0  0  0  0  0  0  0  0
   25.1733  -19.7425  -12.2007 O   0  0  0  0  0  0  0  0  0  0  0  0
   25.4216  -25.4656  -15.7398 N   0  0  0  0  0  0  0  0  0  0  0  0
   26.3629  -24.6732  -16.4536 C   0  0  0  0  0  0  0  0  0  0  0  0
   27.5669  -25.0345  -16.6937 N   0  0  0  0  0  0  0  0  0  0  0  0
   25.9311  -23.3949  -16.9292 N   0  0  0  0  0  0  0  0  0  0  0  0
   24.6156  -22.8845  -16.6486 C   0  0  0  0  0  0  0  0  0  0  0  0
   24.5079  -22.5578  -15.1461 C   0  0  0  0  0  0  0  0  0  0  0  0
   23.3898  -21.6075  -14.9058 C   0  0  0  0  0  0  0  0  0  0  0  0
   23.1583  -21.2583  -13.4601 C   0  0  2  0  0  0  0  0  0  0  0  0
   24.2844  -21.8291  -12.7020 N   0  0  0  0  0  0  0  0  0  0  0  0
   21.9189  -21.8561  -12.8924 C   0  0  0  0  0  0  0  0  0  0  0  0
   21.9689  -22.9714  -12.2695 O   0  0  0  0  0  0  0  0  0  0  0  0
   28.2285  -24.4030  -17.2046 N   0  0  0  0  0  0  0  0  0  0  0  0
   18.2406  -24.6414   -7.0464 C   0  0  0  0  0  0  0  0  0  0  0  0
   17.2134  -24.7265   -7.9975 N   0  0  0  0  0  0  0  0  0  0  0  0
   16.3704  -25.7227   -8.0362 N   0  0  0  0  0  0  0  0  0  0  0  0
   17.0731  -23.6968   -8.9621 C   0  0  0  0  0  0  0  0  0  0  0  0
   18.2192  -23.0216   -9.5381 C   0  0  0  0  0  0  0  0  0  0  0  0
   17.8320  -21.9196  -10.5033 C   0  0  0  0  0  0  0  0  0  0  0  0
   19.0990  -21.3473  -11.0679 C   0  0  2  0  0  0  0  0  0  0  0  0
   19.4078  -21.7460  -12.4572 N   0  0  0  0  0  0  0  0  0  0  0  0
   20.6429  -21.2433  -12.9994 C   0  0  0  0  0  0  0  0  0  0  0  0
   18.2617  -21.7337  -13.3958 O   0  0  0  0  0  0  0  0  0  0  0  0
   18.2629  -20.9215  -14.3410 O   0  0  0  0  0  0  0  0  0  0  0  0
  2  1  1  1
  2  5  1  0
  2  3  1  0
  4  3  1  0
  5  6  2  0
  7  8  1  0
  8  9  2  0
  8 10  1  0
 10 11  1  0
 11 12  1  0
 12 13  1  0
 14 13  1  6
 15 14  1  0
 15  5  1  0
 16 14  1  0
 17 16  2  0
 18 19  1  0
 19 20  2  0
 19 21  1  0
 21 22  1  0
 22 23  1  0
 23 24  1  0
 25 24  1  1
 25 27  1  0
 25 26  1  0
 26 16  1  0
 27 29  1  0
 28 27  2  0
M  END
$$$$
