CRR.pdb
     RDKit          3D

 29 28  0  0  1  0  0  0  0  0999 V2000
   27.9303  -13.4583  -16.9302 N   0  0  0  0  0  0  0  0  0  0  0  0
   27.8434  -12.2167  -16.2106 C   0  0  1  0  0  0  0  0  0  0  0  0
   29.1226  -11.4156  -16.3020 C   0  0  0  0  0  0  0  0  0  0  0  0
   29.5047  -10.9982  -18.0236 S   0  0  0  0  0  0  0  0  0  0  0  0
   26.6949  -11.4118  -16.6461 C   0  0  0  0  0  0  0  0  0  0  0  0
   26.1954  -11.6349  -17.7968 O   0  0  0  0  0  0  0  0  0  0  0  0
   19.7128   -9.0992  -11.9500 N   0  0  0  0  0  0  0  0  0  0  0  0
   19.3842   -8.9516  -13.3261 C   0  0  0  0  0  0  0  0  0  0  0  0
   18.1869   -8.9247  -13.7773 N   0  0  0  0  0  0  0  0  0  0  0  0
   20.4627   -8.8263  -14.2576 N   0  0  0  0  0  0  0  0  0  0  0  0
   21.6659   -9.6056  -14.1362 C   0  0  0  0  0  0  0  0  0  0  0  0
   22.6316   -9.2292  -15.2771 C   0  0  0  0  0  0  0  0  0  0  0  0
   23.8944  -10.0050  -15.1583 C   0  0  0  0  0  0  0  0  0  0  0  0
   24.9329   -9.6831  -16.1992 C   0  0  2  0  0  0  0  0  0  0  0  0
   26.1526  -10.4160  -15.8200 N   0  0  0  0  0  0  0  0  0  0  0  0
   25.3025   -8.2420  -16.2483 C   0  0  0  0  0  0  0  0  0  0  0  0
   26.0744   -7.7446  -15.3589 O   0  0  0  0  0  0  0  0  0  0  0  0
   17.9953   -8.7327  -14.7893 N   0  0  0  0  0  0  0  0  0  0  0  0
   25.5307   -2.3577  -22.8767 C   0  0  0  0  0  0  0  0  0  0  0  0
   25.9455   -1.5931  -21.7765 N   0  0  0  0  0  0  0  0  0  0  0  0
   26.3409   -0.3539  -21.8893 N   0  0  0  0  0  0  0  0  0  0  0  0
   25.9408   -2.1762  -20.4842 C   0  0  0  0  0  0  0  0  0  0  0  0
   25.5147   -3.5434  -20.2592 C   0  0  0  0  0  0  0  0  0  0  0  0
   25.5094   -3.9268  -18.7933 C   0  0  0  0  0  0  0  0  0  0  0  0
   25.0869   -5.3638  -18.7034 C   0  0  2  0  0  0  0  0  0  0  0  0
   25.1156   -5.9466  -17.3453 N   0  0  0  0  0  0  0  0  0  0  0  0
   24.8393   -7.3565  -17.2566 C   0  0  0  0  0  0  0  0  0  0  0  0
   24.4990   -5.1202  -16.2817 O   0  0  0  0  0  0  0  0  0  0  0  0
   23.3490   -5.3984  -15.8900 O   0  0  0  0  0  0  0  0  0  0  0  0
  2  1  1  6
  2  5  1  0
  2  3  1  0
  4  3  1  0
  5  6  2  0
  7  8  1  0
  8  9  2  0
  8 10  1  0
 10 11  1  0
 11 12  1  0
 12 13  1  0
 14 13  1  1
 15 14  1  0
 15  5  1  0
 16 14  1  0
 17 16  2  0
 18 19  1  0
 19 20  2  0
 19 21  1  0
 21 22  1  0
 22 23  1  0
 23 24  1  0
 25 24  1  6
 25 27  1  0
 25 26  1  0
 26 16  1  0
 27 29  1  0
 28 27  2  0
M  END
$$$$
