CSC.pdb
     RDKit          3D

 19 18  0  0  1  0  0  0  0  0999 V2000
   -1.9142  -24.1902   23.1617 N   0  0  0  0  0  0  0  0  0  0  0  0
   -2.3551  -25.2426   24.0166 C   0  0  1  0  0  0  0  0  0  0  0  0
   -1.6995  -25.0137   25.3859 C   0  0  0  0  0  0  0  0  0  0  0  0
    0.1109  -25.2136   25.2239 S   0  0  0  0  0  0  0  0  0  0  0  0
   -3.8023  -25.2866   24.2384 C   0  0  0  0  0  0  0  0  0  0  0  0
   -4.3542  -24.2647   24.7246 O   0  0  0  0  0  0  0  0  0  0  0  0
   -6.2668  -28.6915   23.9373 O   0  0  0  0  0  0  0  0  0  0  0  0
   -6.8024  -27.4712   23.4773 C   0  0  0  0  0  0  0  0  0  0  0  0
   -6.0531  -26.3695   24.2208 C   0  0  2  0  0  0  0  0  0  0  0  0
   -4.6415  -26.3970   23.9476 N   0  0  0  0  0  0  0  0  0  0  0  0
   -6.3558  -26.4025   25.6710 C   0  0  0  0  0  0  0  0  0  0  0  0
   -7.5327  -26.2180   26.0756 O   0  0  0  0  0  0  0  0  0  0  0  0
   -5.3676  -26.6372   26.6690 N   0  0  0  0  0  0  0  0  0  0  0  0
   -5.7188  -26.7946   28.0826 C   0  0  1  0  0  0  0  0  0  0  0  0
   -4.5587  -27.5589   28.7292 C   0  0  0  0  0  0  0  0  0  0  0  0
   -4.7518  -27.5348   30.5414 S   0  0  0  0  0  0  0  0  0  0  0  0
   -5.9478  -25.5056   28.7368 C   0  0  0  0  0  0  0  0  0  0  0  0
   -6.9305  -25.3080   29.4909 O   0  0  0  0  0  0  0  0  0  0  0  0
   -5.0593  -24.4616   28.5257 O   0  0  0  0  0  0  0  0  0  0  0  0
  2  5  1  0
  2  1  1  6
  3  2  1  0
  4  3  1  0
  5  6  2  0
  7  8  1  0
  9  8  1  6
 10  9  1  0
 10  5  1  0
 11 12  2  0
 11  9  1  0
 13 11  1  0
 14 17  1  0
 14 13  1  0
 14 15  1  1
 16 15  1  0
 17 19  1  0
 18 17  2  0
M  END
$$$$
