CSC.pdb
     RDKit          3D

 19 18  0  0  1  0  0  0  0  0999 V2000
    9.6983  -16.0346   19.6219 N   0  0  0  0  0  0  0  0  0  0  0  0
    9.9168  -16.9132   20.7232 C   0  0  1  0  0  0  0  0  0  0  0  0
   11.4317  -17.1434   20.8208 C   0  0  0  0  0  0  0  0  0  0  0  0
   12.2678  -15.5342   21.0556 S   0  0  0  0  0  0  0  0  0  0  0  0
    9.4803  -16.3907   22.0202 C   0  0  0  0  0  0  0  0  0  0  0  0
    9.2972  -15.1493   22.1228 O   0  0  0  0  0  0  0  0  0  0  0  0
    8.2645  -18.7264   25.2824 O   0  0  0  0  0  0  0  0  0  0  0  0
    7.6459  -17.4862   25.0236 C   0  0  0  0  0  0  0  0  0  0  0  0
    8.7141  -16.6013   24.3883 C   0  0  2  0  0  0  0  0  0  0  0  0
    9.2446  -17.1764   23.1817 N   0  0  0  0  0  0  0  0  0  0  0  0
    9.7699  -16.2516   25.3676 C   0  0  0  0  0  0  0  0  0  0  0  0
   10.8791  -16.8448   25.3402 O   0  0  0  0  0  0  0  0  0  0  0  0
    9.6043  -15.2545   26.3705 N   0  0  0  0  0  0  0  0  0  0  0  0
   10.6210  -15.0151   27.3978 C   0  0  1  0  0  0  0  0  0  0  0  0
   10.4242  -13.5692   27.8659 C   0  0  0  0  0  0  0  0  0  0  0  0
    8.6423  -13.2189   28.0201 S   0  0  0  0  0  0  0  0  0  0  0  0
   10.5113  -15.9621   28.5082 C   0  0  0  0  0  0  0  0  0  0  0  0
    9.5366  -16.7435   28.6218 O   0  0  0  0  0  0  0  0  0  0  0  0
   11.5080  -16.0081   29.4718 O   0  0  0  0  0  0  0  0  0  0  0  0
  2  5  1  0
  2  1  1  6
  3  2  1  0
  4  3  1  0
  5  6  2  0
  7  8  1  0
  9  8  1  1
 10  9  1  0
 10  5  1  0
 11 12  2  0
 11  9  1  0
 13 11  1  0
 14 17  1  0
 14 13  1  0
 14 15  1  1
 16 15  1  0
 17 19  1  0
 18 17  2  0
M  END
$$$$
