CSC.pdb
     RDKit          3D

 19 18  0  0  1  0  0  0  0  0999 V2000
    2.9314  -20.0814   20.6945 N   0  0  0  0  0  0  0  0  0  0  0  0
    3.2050  -18.8558   21.3695 C   0  0  1  0  0  0  0  0  0  0  0  0
    2.8191  -19.0579   22.8418 C   0  0  0  0  0  0  0  0  0  0  0  0
    1.0095  -18.8627   23.0185 S   0  0  0  0  0  0  0  0  0  0  0  0
    4.6110  -18.4455   21.3496 C   0  0  0  0  0  0  0  0  0  0  0  0
    5.4810  -19.3136   21.6226 O   0  0  0  0  0  0  0  0  0  0  0  0
    5.9596  -14.6861   20.2041 O   0  0  0  0  0  0  0  0  0  0  0  0
    6.8340  -15.7725   19.9975 C   0  0  0  0  0  0  0  0  0  0  0  0
    6.4786  -16.8131   21.0552 C   0  0  2  0  0  0  0  0  0  0  0  0
    5.0776  -17.1373   21.0448 N   0  0  0  0  0  0  0  0  0  0  0  0
    6.9601  -16.3997   22.3943 C   0  0  0  0  0  0  0  0  0  0  0  0
    6.4146  -15.4369   22.9929 O   0  0  0  0  0  0  0  0  0  0  0  0
    8.0359  -17.0434   23.0695 N   0  0  0  0  0  0  0  0  0  0  0  0
    8.7522  -16.3989   24.1730 C   0  0  1  0  0  0  0  0  0  0  0  0
    8.3765  -17.1761   25.4391 C   0  0  0  0  0  0  0  0  0  0  0  0
    6.6467  -16.8123   25.8831 S   0  0  0  0  0  0  0  0  0  0  0  0
   10.1994  -16.3888   23.9547 C   0  0  0  0  0  0  0  0  0  0  0  0
   10.7236  -16.9217   22.9474 O   0  0  0  0  0  0  0  0  0  0  0  0
   11.0288  -15.7748   24.8816 O   0  0  0  0  0  0  0  0  0  0  0  0
  2  5  1  0
  2  1  1  6
  3  2  1  0
  4  3  1  0
  5  6  2  0
  7  8  1  0
  9  8  1  6
 10  9  1  0
 10  5  1  0
 11 12  2  0
 11  9  1  0
 13 11  1  0
 14 17  1  0
 14 13  1  0
 14 15  1  1
 16 15  1  0
 17 19  1  0
 18 17  2  0
M  END
$$$$
