CSC.pdb
     RDKit          3D

 19 18  0  0  1  0  0  0  0  0999 V2000
    7.6198  -15.0248   19.2354 N   0  0  0  0  0  0  0  0  0  0  0  0
    8.5475  -14.5595   20.2129 C   0  0  1  0  0  0  0  0  0  0  0  0
    8.0904  -13.1555   20.6338 C   0  0  0  0  0  0  0  0  0  0  0  0
    8.4596  -11.9765   19.2857 S   0  0  0  0  0  0  0  0  0  0  0  0
    8.6125  -15.3702   21.4312 C   0  0  0  0  0  0  0  0  0  0  0  0
    7.5280  -15.6744   21.9938 O   0  0  0  0  0  0  0  0  0  0  0  0
   11.8508  -17.5980   22.7097 O   0  0  0  0  0  0  0  0  0  0  0  0
   10.5408  -17.9325   23.1089 C   0  0  0  0  0  0  0  0  0  0  0  0
    9.7883  -16.6128   23.2512 C   0  0  2  0  0  0  0  0  0  0  0  0
    9.8088  -15.8453   22.0353 N   0  0  0  0  0  0  0  0  0  0  0  0
   10.2746  -15.8441   24.4211 C   0  0  0  0  0  0  0  0  0  0  0  0
   11.2352  -15.0415   24.2953 O   0  0  0  0  0  0  0  0  0  0  0  0
    9.7056  -15.9593   25.7213 N   0  0  0  0  0  0  0  0  0  0  0  0
   10.2941  -15.2907   26.8846 C   0  0  1  0  0  0  0  0  0  0  0  0
    9.2450  -14.2889   27.3785 C   0  0  0  0  0  0  0  0  0  0  0  0
    9.8645  -13.4492   28.8727 S   0  0  0  0  0  0  0  0  0  0  0  0
   10.6679  -16.2421   27.9320 C   0  0  0  0  0  0  0  0  0  0  0  0
   10.0646  -17.3309   28.0874 O   0  0  0  0  0  0  0  0  0  0  0  0
   11.7192  -15.9440   28.7863 O   0  0  0  0  0  0  0  0  0  0  0  0
  2  5  1  0
  2  1  1  6
  3  2  1  0
  4  3  1  0
  5  6  2  0
  7  8  1  0
  9  8  1  6
 10  9  1  0
 10  5  1  0
 11 12  2  0
 11  9  1  0
 13 11  1  0
 14 17  1  0
 14 13  1  0
 14 15  1  1
 16 15  1  0
 17 19  1  0
 18 17  2  0
M  END
$$$$
