CSC.pdb
     RDKit          3D

 19 18  0  0  1  0  0  0  0  0999 V2000
    7.7952  -14.0540   18.2257 N   0  0  0  0  0  0  0  0  0  0  0  0
    8.5896  -14.5073   19.3194 C   0  0  1  0  0  0  0  0  0  0  0  0
    9.6787  -13.4503   19.5522 C   0  0  0  0  0  0  0  0  0  0  0  0
    8.8877  -11.8673   20.0130 S   0  0  0  0  0  0  0  0  0  0  0  0
    7.8642  -14.6579   20.5830 C   0  0  0  0  0  0  0  0  0  0  0  0
    6.8276  -13.9637   20.7524 O   0  0  0  0  0  0  0  0  0  0  0  0
    8.3124  -17.7526   23.4528 O   0  0  0  0  0  0  0  0  0  0  0  0
    7.0946  -17.1211   23.1279 C   0  0  0  0  0  0  0  0  0  0  0  0
    7.4361  -15.6645   22.8286 C   0  0  2  0  0  0  0  0  0  0  0  0
    8.2374  -15.5303   21.6420 N   0  0  0  0  0  0  0  0  0  0  0  0
    8.0454  -15.0054   24.0077 C   0  0  0  0  0  0  0  0  0  0  0  0
    9.2943  -14.8735   24.0832 O   0  0  0  0  0  0  0  0  0  0  0  0
    7.2830  -14.4951   25.0967 N   0  0  0  0  0  0  0  0  0  0  0  0
    7.9203  -13.9340   26.2906 C   0  0  1  0  0  0  0  0  0  0  0  0
    6.8486  -13.0933   26.9928 C   0  0  0  0  0  0  0  0  0  0  0  0
    6.2469  -11.8038   25.8540 S   0  0  0  0  0  0  0  0  0  0  0  0
    8.4505  -14.9771   27.1698 C   0  0  0  0  0  0  0  0  0  0  0  0
    8.2675  -16.1966   26.9401 O   0  0  0  0  0  0  0  0  0  0  0  0
    9.1795  -14.6210   28.2948 O   0  0  0  0  0  0  0  0  0  0  0  0
  2  5  1  0
  2  1  1  6
  3  2  1  0
  4  3  1  0
  5  6  2  0
  7  8  1  0
  9  8  1  1
 10  9  1  0
 10  5  1  0
 11 12  2  0
 11  9  1  0
 13 11  1  0
 14 17  1  0
 14 13  1  0
 14 15  1  1
 16 15  1  0
 17 19  1  0
 18 17  2  0
M  END
$$$$
