CSC.pdb
     RDKit          3D

 19 18  0  0  1  0  0  0  0  0999 V2000
    6.5738  -21.3139   15.3145 N   0  0  0  0  0  0  0  0  0  0  0  0
    6.1542  -22.4088   16.1256 C   0  0  1  0  0  0  0  0  0  0  0  0
    6.8885  -23.6557   15.6122 C   0  0  0  0  0  0  0  0  0  0  0  0
    5.9127  -24.4121   14.2633 S   0  0  0  0  0  0  0  0  0  0  0  0
    6.4789  -22.2779   17.5479 C   0  0  0  0  0  0  0  0  0  0  0  0
    7.3981  -21.4803   17.8704 O   0  0  0  0  0  0  0  0  0  0  0  0
    4.4757  -24.1866   20.7327 O   0  0  0  0  0  0  0  0  0  0  0  0
    4.9928  -22.8871   20.9097 C   0  0  0  0  0  0  0  0  0  0  0  0
    6.1968  -22.7769   19.9792 C   0  0  2  0  0  0  0  0  0  0  0  0
    5.8363  -22.9830   18.6023 N   0  0  0  0  0  0  0  0  0  0  0  0
    7.2970  -23.6655   20.4216 C   0  0  0  0  0  0  0  0  0  0  0  0
    7.3888  -24.8339   19.9641 O   0  0  0  0  0  0  0  0  0  0  0  0
    8.2899  -23.2689   21.3621 N   0  0  0  0  0  0  0  0  0  0  0  0
    9.3932  -24.1550   21.7413 C   0  0  1  0  0  0  0  0  0  0  0  0
   10.6305  -23.2618   21.8818 C   0  0  0  0  0  0  0  0  0  0  0  0
   11.2541  -23.3541   23.5919 S   0  0  0  0  0  0  0  0  0  0  0  0
    9.1099  -24.8839   22.9784 C   0  0  0  0  0  0  0  0  0  0  0  0
    8.2769  -24.4683   23.8191 O   0  0  0  0  0  0  0  0  0  0  0  0
    9.7752  -26.0720   23.2424 O   0  0  0  0  0  0  0  0  0  0  0  0
  2  5  1  0
  2  1  1  6
  3  2  1  0
  4  3  1  0
  5  6  2  0
  7  8  1  0
  9  8  1  1
 10  9  1  0
 10  5  1  0
 11 12  2  0
 11  9  1  0
 13 11  1  0
 14 17  1  0
 14 13  1  0
 14 15  1  1
 16 15  1  0
 17 19  1  0
 18 17  2  0
M  END
$$$$
