CSC.pdb
     RDKit          3D

 19 18  0  0  1  0  0  0  0  0999 V2000
    9.9507  -16.1641   14.4095 N   0  0  0  0  0  0  0  0  0  0  0  0
    8.9519  -15.3044   14.9535 C   0  0  1  0  0  0  0  0  0  0  0  0
    7.7214  -15.4118   14.0416 C   0  0  0  0  0  0  0  0  0  0  0  0
    8.1811  -14.8863   12.3514 S   0  0  0  0  0  0  0  0  0  0  0  0
    8.5122  -15.6545   16.3062 C   0  0  0  0  0  0  0  0  0  0  0  0
    7.6364  -14.9290   16.8462 O   0  0  0  0  0  0  0  0  0  0  0  0
    7.9973  -18.6499   20.0082 O   0  0  0  0  0  0  0  0  0  0  0  0
    8.6058  -18.5073   18.7446 C   0  0  0  0  0  0  0  0  0  0  0  0
    8.5197  -17.0248   18.3947 C   0  0  2  0  0  0  0  0  0  0  0  0
    8.9971  -16.7548   17.0652 N   0  0  0  0  0  0  0  0  0  0  0  0
    9.1892  -16.1935   19.4226 C   0  0  0  0  0  0  0  0  0  0  0  0
   10.4398  -16.0566   19.4089 O   0  0  0  0  0  0  0  0  0  0  0  0
    8.4848  -15.5173   20.4590 N   0  0  0  0  0  0  0  0  0  0  0  0
    9.1840  -14.8228   21.5431 C   0  0  1  0  0  0  0  0  0  0  0  0
    8.3056  -13.6253   21.9209 C   0  0  0  0  0  0  0  0  0  0  0  0
    8.2049  -12.4776   20.5087 S   0  0  0  0  0  0  0  0  0  0  0  0
    9.4243  -15.6997   22.6900 C   0  0  0  0  0  0  0  0  0  0  0  0
    8.9265  -16.8487   22.7643 O   0  0  0  0  0  0  0  0  0  0  0  0
   10.2248  -15.2601   23.7340 O   0  0  0  0  0  0  0  0  0  0  0  0
  2  5  1  0
  2  1  1  6
  3  2  1  0
  4  3  1  0
  5  6  2  0
  7  8  1  0
  9  8  1  1
 10  9  1  0
 10  5  1  0
 11 12  2  0
 11  9  1  0
 13 11  1  0
 14 17  1  0
 14 13  1  0
 14 15  1  1
 16 15  1  0
 17 19  1  0
 18 17  2  0
M  END
$$$$
