PWW.pdb
     RDKit          3D

 36 40  0  0  1  0  0  0  0  0999 V2000
   26.3339  -22.4700  -15.1209 N   0  0  0  0  0  0  0  0  0  0  0  0
   26.6310  -23.2271  -16.3121 C   0  0  0  0  0  0  0  0  0  0  0  0
   25.6907  -22.6353  -17.3354 C   0  0  0  0  0  0  0  0  0  0  0  0
   25.5292  -21.2133  -16.8795 C   0  0  0  0  0  0  0  0  0  0  0  0
   26.2983  -21.1099  -15.5756 C   0  0  1  0  0  0  0  0  0  0  0  0
   25.5442  -20.2194  -14.6601 C   0  0  0  0  0  0  0  0  0  0  0  0
   25.2000  -19.0542  -14.9555 O   0  0  0  0  0  0  0  0  0  0  0  0
   25.1953  -20.7127  -13.3865 N   0  0  0  0  0  0  0  0  0  0  0  0
   24.2433  -19.9865  -12.4785 C   0  0  1  0  0  0  0  0  0  0  0  0
   22.9246  -19.9400  -13.0978 C   0  0  0  0  0  0  0  0  0  0  0  0
   22.4702  -21.0059  -13.9931 C   0  0  0  0  0  0  0  0  0  0  0  0
   22.3713  -22.3630  -13.6966 C   0  0  0  0  0  0  0  0  0  0  0  0
   21.9429  -23.0642  -14.7379 N   0  0  0  0  0  0  0  0  0  0  0  0
   21.7510  -22.1910  -15.7402 C   0  0  0  0  0  0  0  0  0  0  0  0
   21.2852  -22.4561  -17.0060 C   0  0  0  0  0  0  0  0  0  0  0  0
   21.1182  -21.4110  -17.9054 C   0  0  0  0  0  0  0  0  0  0  0  0
   21.4325  -20.1433  -17.4773 C   0  0  0  0  0  0  0  0  0  0  0  0
   21.9019  -19.8860  -16.2023 C   0  0  0  0  0  0  0  0  0  0  0  0
   22.0688  -20.9143  -15.3094 C   0  0  0  0  0  0  0  0  0  0  0  0
   24.4860  -20.5341  -11.1575 C   0  0  0  0  0  0  0  0  0  0  0  0
   23.6076  -20.3024  -10.2232 O   0  0  0  0  0  0  0  0  0  0  0  0
   25.6125  -21.3281  -10.7881 N   0  0  0  0  0  0  0  0  0  0  0  0
   26.6320  -20.7331   -9.9605 C   0  0  1  0  0  0  0  0  0  0  0  0
   26.3144  -21.0589   -8.4874 C   0  0  0  0  0  0  0  0  0  0  0  0
   26.7710  -20.0647   -7.5233 C   0  0  0  0  0  0  0  0  0  0  0  0
   26.4341  -18.7048   -7.5888 C   0  0  0  0  0  0  0  0  0  0  0  0
   27.0249  -18.0491   -6.5742 N   0  0  0  0  0  0  0  0  0  0  0  0
   27.7494  -18.9201   -5.8243 C   0  0  0  0  0  0  0  0  0  0  0  0
   28.5003  -18.7027   -4.6954 C   0  0  0  0  0  0  0  0  0  0  0  0
   29.1383  -19.7803   -4.0989 C   0  0  0  0  0  0  0  0  0  0  0  0
   28.9776  -21.0225   -4.6837 C   0  0  0  0  0  0  0  0  0  0  0  0
   28.2259  -21.2142   -5.8093 C   0  0  0  0  0  0  0  0  0  0  0  0
   27.5827  -20.1558   -6.4204 C   0  0  0  0  0  0  0  0  0  0  0  0
   28.0174  -20.9928  -10.3296 C   0  0  0  0  0  0  0  0  0  0  0  0
   28.6881  -22.1941  -10.1561 O   0  0  0  0  0  0  0  0  0  0  0  0
   28.7482  -20.0761  -10.8679 O   0  0  0  0  0  0  0  0  0  0  0  0
  1  2  1  0
  3  2  1  0
  4  5  1  0
  4  3  1  0
  5  1  1  0
  6  8  1  0
  5  6  1  1
  7  6  2  0
  9 20  1  0
  9  8  1  0
  9 10  1  6
 11 10  1  0
 11 19  1  0
 12 13  1  0
 12 11  2  0
 13 14  1  0
 14 15  2  0
 14 19  1  0
 15 16  1  0
 16 17  2  0
 18 17  1  0
 19 18  2  0
 20 22  1  0
 21 20  2  0
 22 23  1  0
 23 24  1  1
 24 25  1  0
 25 33  1  0
 25 26  2  0
 26 27  1  0
 28 27  1  0
 28 29  2  0
 30 29  1  0
 31 30  2  0
 32 33  2  0
 32 31  1  0
 33 28  1  0
 34 23  1  0
 34 35  1  0
 36 34  2  0
M  END
$$$$
