PWW.pdb
     RDKit          3D

 36 40  0  0  1  0  0  0  0  0999 V2000
   27.4808  -19.4146  -14.7652 N   0  0  0  0  0  0  0  0  0  0  0  0
   28.5643  -18.8117  -15.5019 C   0  0  0  0  0  0  0  0  0  0  0  0
   29.7613  -19.0653  -14.6162 C   0  0  0  0  0  0  0  0  0  0  0  0
   29.4117  -20.3472  -13.9159 C   0  0  0  0  0  0  0  0  0  0  0  0
   28.0028  -20.6890  -14.3636 C   0  0  1  0  0  0  0  0  0  0  0  0
   27.2751  -21.2678  -13.2080 C   0  0  0  0  0  0  0  0  0  0  0  0
   26.4178  -22.1720  -13.3122 O   0  0  0  0  0  0  0  0  0  0  0  0
   27.5653  -20.7724  -11.9206 N   0  0  0  0  0  0  0  0  0  0  0  0
   26.7995  -21.2067  -10.7028 C   0  0  1  0  0  0  0  0  0  0  0  0
   27.6940  -21.2307   -9.5521 C   0  0  0  0  0  0  0  0  0  0  0  0
   27.3767  -20.4881   -8.3305 C   0  0  0  0  0  0  0  0  0  0  0  0
   26.2506  -19.7029   -8.0965 C   0  0  0  0  0  0  0  0  0  0  0  0
   26.2780  -19.1502   -6.8910 N   0  0  0  0  0  0  0  0  0  0  0  0
   27.4168  -19.5549   -6.3052 C   0  0  0  0  0  0  0  0  0  0  0  0
   27.8607  -19.2567   -5.0390 C   0  0  0  0  0  0  0  0  0  0  0  0
   29.0579  -19.7988   -4.5892 C   0  0  0  0  0  0  0  0  0  0  0  0
   29.7499  -20.6195   -5.4475 C   0  0  0  0  0  0  0  0  0  0  0  0
   29.2964  -20.9129   -6.7205 C   0  0  0  0  0  0  0  0  0  0  0  0
   28.1146  -20.3806   -7.1702 C   0  0  0  0  0  0  0  0  0  0  0  0
   25.5652  -20.4459  -10.7387 C   0  0  0  0  0  0  0  0  0  0  0  0
   25.6361  -19.1670  -10.9791 O   0  0  0  0  0  0  0  0  0  0  0  0
   24.2584  -20.9847  -10.5446 N   0  0  0  0  0  0  0  0  0  0  0  0
   23.1574  -20.3966  -11.2660 C   0  0  1  0  0  0  0  0  0  0  0  0
   23.5685  -20.2479  -12.7445 C   0  0  0  0  0  0  0  0  0  0  0  0
   22.5424  -19.6891  -13.6170 C   0  0  0  0  0  0  0  0  0  0  0  0
   21.9698  -18.4221  -13.4328 C   0  0  0  0  0  0  0  0  0  0  0  0
   21.0449  -18.2075  -14.3852 N   0  0  0  0  0  0  0  0  0  0  0  0
   20.9735  -19.2865  -15.2077 C   0  0  0  0  0  0  0  0  0  0  0  0
   20.1876  -19.5058  -16.3121 C   0  0  0  0  0  0  0  0  0  0  0  0
   20.3202  -20.7031  -17.0001 C   0  0  0  0  0  0  0  0  0  0  0  0
   21.2465  -21.6135  -16.5268 C   0  0  0  0  0  0  0  0  0  0  0  0
   22.0169  -21.3733  -15.4234 C   0  0  0  0  0  0  0  0  0  0  0  0
   21.9010  -20.1889  -14.7225 C   0  0  0  0  0  0  0  0  0  0  0  0
   21.8469  -21.0068  -11.0836 C   0  0  0  0  0  0  0  0  0  0  0  0
   20.6636  -20.3236  -10.8468 O   0  0  0  0  0  0  0  0  0  0  0  0
   21.6937  -22.2868  -11.1316 O   0  0  0  0  0  0  0  0  0  0  0  0
  1  2  1  0
  3  2  1  0
  4  5  1  0
  4  3  1  0
  5  1  1  0
  6  8  1  0
  5  6  1  1
  7  6  2  0
  9 20  1  0
  9  8  1  0
  9 10  1  1
 11 10  1  0
 11 19  1  0
 12 13  1  0
 12 11  2  0
 13 14  1  0
 14 15  2  0
 14 19  1  0
 15 16  1  0
 16 17  2  0
 18 17  1  0
 19 18  2  0
 20 22  1  0
 21 20  2  0
 22 23  1  0
 23 24  1  6
 24 25  1  0
 25 33  1  0
 25 26  2  0
 26 27  1  0
 28 27  1  0
 28 29  2  0
 30 29  1  0
 31 30  2  0
 32 33  2  0
 32 31  1  0
 33 28  1  0
 34 23  1  0
 34 35  1  0
 36 34  2  0
M  END
$$$$
