PWW.pdb
     RDKit          3D

 36 40  0  0  1  0  0  0  0  0999 V2000
   27.4901  -19.8003  -16.0903 N   0  0  0  0  0  0  0  0  0  0  0  0
   27.8620  -19.1571  -17.3267 C   0  0  0  0  0  0  0  0  0  0  0  0
   27.5544  -17.7026  -17.0602 C   0  0  0  0  0  0  0  0  0  0  0  0
   27.7621  -17.5678  -15.5788 C   0  0  0  0  0  0  0  0  0  0  0  0
   28.0718  -18.9664  -15.0783 C   0  0  1  0  0  0  0  0  0  0  0  0
   27.4279  -19.1396  -13.7535 C   0  0  0  0  0  0  0  0  0  0  0  0
   27.6572  -18.4017  -12.7705 O   0  0  0  0  0  0  0  0  0  0  0  0
   26.5060  -20.1937  -13.5923 N   0  0  0  0  0  0  0  0  0  0  0  0
   25.5869  -20.2810  -12.4066 C   0  0  1  0  0  0  0  0  0  0  0  0
   24.2844  -20.7718  -12.8394 C   0  0  0  0  0  0  0  0  0  0  0  0
   23.2347  -19.8495  -13.2773 C   0  0  0  0  0  0  0  0  0  0  0  0
   23.0476  -19.3424  -14.5607 C   0  0  0  0  0  0  0  0  0  0  0  0
   22.0130  -18.5141  -14.6165 N   0  0  0  0  0  0  0  0  0  0  0  0
   21.4969  -18.4553  -13.3779 C   0  0  0  0  0  0  0  0  0  0  0  0
   20.3974  -17.7438  -12.9603 C   0  0  0  0  0  0  0  0  0  0  0  0
   19.9886  -17.8328  -11.6358 C   0  0  0  0  0  0  0  0  0  0  0  0
   20.7164  -18.6412  -10.7956 C   0  0  0  0  0  0  0  0  0  0  0  0
   21.8222  -19.3524  -11.2241 C   0  0  0  0  0  0  0  0  0  0  0  0
   22.2306  -19.2686  -12.5312 C   0  0  0  0  0  0  0  0  0  0  0  0
   26.3717  -20.9129  -11.3633 C   0  0  0  0  0  0  0  0  0  0  0  0
   27.0248  -22.0017  -11.6570 O   0  0  0  0  0  0  0  0  0  0  0  0
   26.5050  -20.4327  -10.0263 N   0  0  0  0  0  0  0  0  0  0  0  0
   26.5958  -21.3940   -8.9558 C   0  0  1  0  0  0  0  0  0  0  0  0
   27.9664  -21.2295   -8.2690 C   0  0  0  0  0  0  0  0  0  0  0  0
   28.0290  -20.1779   -7.2607 C   0  0  0  0  0  0  0  0  0  0  0  0
   27.5055  -18.8900   -7.4457 C   0  0  0  0  0  0  0  0  0  0  0  0
   27.7389  -18.1511   -6.3466 N   0  0  0  0  0  0  0  0  0  0  0  0
   28.4019  -18.8964   -5.4243 C   0  0  0  0  0  0  0  0  0  0  0  0
   28.8323  -18.5645   -4.1633 C   0  0  0  0  0  0  0  0  0  0  0  0
   29.4797  -19.5272   -3.4028 C   0  0  0  0  0  0  0  0  0  0  0  0
   29.6544  -20.7770   -3.9670 C   0  0  0  0  0  0  0  0  0  0  0  0
   29.2184  -21.0835   -5.2258 C   0  0  0  0  0  0  0  0  0  0  0  0
   28.5724  -20.1407   -6.0010 C   0  0  0  0  0  0  0  0  0  0  0  0
   25.4787  -21.4505   -8.0221 C   0  0  0  0  0  0  0  0  0  0  0  0
   25.3394  -22.3580   -6.9829 O   0  0  0  0  0  0  0  0  0  0  0  0
   24.4959  -20.6190   -8.1055 O   0  0  0  0  0  0  0  0  0  0  0  0
  1  2  1  0
  3  2  1  0
  4  5  1  0
  4  3  1  0
  5  1  1  0
  6  8  1  0
  5  6  1  1
  7  6  2  0
  9 20  1  0
  9  8  1  0
  9 10  1  6
 11 10  1  0
 11 19  1  0
 12 13  1  0
 12 11  2  0
 13 14  1  0
 14 15  2  0
 14 19  1  0
 15 16  1  0
 16 17  2  0
 18 17  1  0
 19 18  2  0
 20 22  1  0
 21 20  2  0
 22 23  1  0
 23 24  1  1
 24 25  1  0
 25 33  1  0
 25 26  2  0
 26 27  1  0
 28 27  1  0
 28 29  2  0
 30 29  1  0
 31 30  2  0
 32 33  2  0
 32 31  1  0
 33 28  1  0
 34 23  1  0
 34 35  1  0
 36 34  2  0
M  END
$$$$
