PWW.pdb
     RDKit          3D

 36 40  0  0  1  0  0  0  0  0999 V2000
   29.3967  -23.1665  -18.0207 N   0  0  0  0  0  0  0  0  0  0  0  0
   30.3205  -23.8325  -18.9058 C   0  0  0  0  0  0  0  0  0  0  0  0
   31.6678  -23.3743  -18.3997 C   0  0  0  0  0  0  0  0  0  0  0  0
   31.4310  -23.1467  -16.9341 C   0  0  0  0  0  0  0  0  0  0  0  0
   29.9489  -23.3869  -16.7152 C   0  0  1  0  0  0  0  0  0  0  0  0
   29.4617  -22.4068  -15.7142 C   0  0  0  0  0  0  0  0  0  0  0  0
   30.0140  -22.2132  -14.6092 O   0  0  0  0  0  0  0  0  0  0  0  0
   28.3131  -21.6510  -16.0245 N   0  0  0  0  0  0  0  0  0  0  0  0
   27.8186  -20.5429  -15.1381 C   0  0  1  0  0  0  0  0  0  0  0  0
   27.1700  -19.5238  -15.9539 C   0  0  0  0  0  0  0  0  0  0  0  0
   26.3239  -18.4936  -15.3478 C   0  0  0  0  0  0  0  0  0  0  0  0
   26.7431  -17.2925  -14.7812 C   0  0  0  0  0  0  0  0  0  0  0  0
   25.7234  -16.5923  -14.3021 N   0  0  0  0  0  0  0  0  0  0  0  0
   24.6142  -17.3115  -14.5395 C   0  0  0  0  0  0  0  0  0  0  0  0
   23.3155  -16.9727  -14.2432 C   0  0  0  0  0  0  0  0  0  0  0  0
   22.2863  -17.8354  -14.5978 C   0  0  0  0  0  0  0  0  0  0  0  0
   22.6242  -19.0040  -15.2376 C   0  0  0  0  0  0  0  0  0  0  0  0
   23.9339  -19.3374  -15.5306 C   0  0  0  0  0  0  0  0  0  0  0  0
   24.9546  -18.4892  -15.1829 C   0  0  0  0  0  0  0  0  0  0  0  0
   27.1681  -21.2080  -14.0254 C   0  0  0  0  0  0  0  0  0  0  0  0
   26.6079  -22.3647  -14.2408 O   0  0  0  0  0  0  0  0  0  0  0  0
   27.0980  -20.7062  -12.6915 N   0  0  0  0  0  0  0  0  0  0  0  0
   26.3719  -21.4688  -11.7068 C   0  0  1  0  0  0  0  0  0  0  0  0
   27.3027  -21.7218  -10.5040 C   0  0  0  0  0  0  0  0  0  0  0  0
   27.0900  -20.8392   -9.3628 C   0  0  0  0  0  0  0  0  0  0  0  0
   25.9532  -20.0334   -9.2034 C   0  0  0  0  0  0  0  0  0  0  0  0
   26.0646  -19.3244   -8.0661 N   0  0  0  0  0  0  0  0  0  0  0  0
   27.2381  -19.6243   -7.4508 C   0  0  0  0  0  0  0  0  0  0  0  0
   27.7627  -19.1565   -6.2713 C   0  0  0  0  0  0  0  0  0  0  0  0
   28.9908  -19.6418   -5.8465 C   0  0  0  0  0  0  0  0  0  0  0  0
   29.6195  -20.5782   -6.6457 C   0  0  0  0  0  0  0  0  0  0  0  0
   29.0781  -21.0279   -7.8176 C   0  0  0  0  0  0  0  0  0  0  0  0
   27.8572  -20.5578   -8.2603 C   0  0  0  0  0  0  0  0  0  0  0  0
   25.0534  -20.9760  -11.3303 C   0  0  0  0  0  0  0  0  0  0  0  0
   24.5751  -19.6942  -11.5563 O   0  0  0  0  0  0  0  0  0  0  0  0
   24.2020  -21.7376  -10.7308 O   0  0  0  0  0  0  0  0  0  0  0  0
  1  2  1  0
  3  2  1  0
  4  5  1  0
  4  3  1  0
  5  1  1  0
  6  8  1  0
  5  6  1  1
  7  6  2  0
  9 20  1  0
  9  8  1  0
  9 10  1  6
 11 10  1  0
 11 19  1  0
 12 13  1  0
 12 11  2  0
 13 14  1  0
 14 15  2  0
 14 19  1  0
 15 16  1  0
 16 17  2  0
 18 17  1  0
 19 18  2  0
 20 22  1  0
 21 20  2  0
 22 23  1  0
 23 24  1  1
 24 25  1  0
 25 33  1  0
 25 26  2  0
 26 27  1  0
 28 27  1  0
 28 29  2  0
 30 29  1  0
 31 30  2  0
 32 33  2  0
 32 31  1  0
 33 28  1  0
 34 23  1  0
 34 35  1  0
 36 34  2  0
M  END
$$$$
