PWW.pdb
     RDKit          3D

 36 40  0  0  1  0  0  0  0  0999 V2000
   28.9551  -23.0362  -18.3286 N   0  0  0  0  0  0  0  0  0  0  0  0
   29.8254  -23.6561  -19.2974 C   0  0  0  0  0  0  0  0  0  0  0  0
   31.2039  -23.2848  -18.8041 C   0  0  0  0  0  0  0  0  0  0  0  0
   31.0236  -23.1716  -17.3173 C   0  0  0  0  0  0  0  0  0  0  0  0
   29.5420  -23.3814  -17.0659 C   0  0  1  0  0  0  0  0  0  0  0  0
   29.1226  -22.4722  -15.9716 C   0  0  0  0  0  0  0  0  0  0  0  0
   29.5934  -22.5187  -14.8142 O   0  0  0  0  0  0  0  0  0  0  0  0
   28.1393  -21.5015  -16.2505 N   0  0  0  0  0  0  0  0  0  0  0  0
   27.7537  -20.4421  -15.2569 C   0  0  1  0  0  0  0  0  0  0  0  0
   27.4120  -19.2153  -15.9661 C   0  0  0  0  0  0  0  0  0  0  0  0
   26.6889  -18.1308  -15.2987 C   0  0  0  0  0  0  0  0  0  0  0  0
   27.2252  -17.1633  -14.4527 C   0  0  0  0  0  0  0  0  0  0  0  0
   26.2932  -16.3359  -13.9983 N   0  0  0  0  0  0  0  0  0  0  0  0
   25.1269  -16.7366  -14.5304 C   0  0  0  0  0  0  0  0  0  0  0  0
   23.8885  -16.1636  -14.3647 C   0  0  0  0  0  0  0  0  0  0  0  0
   22.7925  -16.7015  -15.0271 C   0  0  0  0  0  0  0  0  0  0  0  0
   23.0052  -17.7981  -15.8280 C   0  0  0  0  0  0  0  0  0  0  0  0
   24.2545  -18.3689  -15.9878 C   0  0  0  0  0  0  0  0  0  0  0  0
   25.3408  -17.8419  -15.3362 C   0  0  0  0  0  0  0  0  0  0  0  0
   26.8582  -21.1019  -14.3262 C   0  0  0  0  0  0  0  0  0  0  0  0
   26.0620  -22.0253  -14.7862 O   0  0  0  0  0  0  0  0  0  0  0  0
   26.7804  -20.8348  -12.9267 N   0  0  0  0  0  0  0  0  0  0  0  0
   25.8188  -21.5653  -12.1392 C   0  0  1  0  0  0  0  0  0  0  0  0
   26.5075  -22.0336  -10.8417 C   0  0  0  0  0  0  0  0  0  0  0  0
   26.4608  -21.0799   -9.7396 C   0  0  0  0  0  0  0  0  0  0  0  0
   25.3876  -20.2062   -9.5112 C   0  0  0  0  0  0  0  0  0  0  0  0
   25.6541  -19.4432   -8.4363 N   0  0  0  0  0  0  0  0  0  0  0  0
   26.8710  -19.7722   -7.9298 C   0  0  0  0  0  0  0  0  0  0  0  0
   27.5408  -19.2698   -6.8414 C   0  0  0  0  0  0  0  0  0  0  0  0
   28.7826  -19.7970   -6.5186 C   0  0  0  0  0  0  0  0  0  0  0  0
   29.2764  -20.8082   -7.3213 C   0  0  0  0  0  0  0  0  0  0  0  0
   28.5916  -21.2912   -8.4013 C   0  0  0  0  0  0  0  0  0  0  0  0
   27.3543  -20.7806   -8.7418 C   0  0  0  0  0  0  0  0  0  0  0  0
   24.5270  -20.9288  -11.9168 C   0  0  0  0  0  0  0  0  0  0  0  0
   24.2454  -19.5844  -12.1070 O   0  0  0  0  0  0  0  0  0  0  0  0
   23.5098  -21.6079  -11.5067 O   0  0  0  0  0  0  0  0  0  0  0  0
  1  2  1  0
  3  2  1  0
  4  5  1  0
  4  3  1  0
  5  1  1  0
  6  8  1  0
  5  6  1  1
  7  6  2  0
  9 20  1  0
  9  8  1  0
  9 10  1  6
 11 10  1  0
 11 19  1  0
 12 13  1  0
 12 11  2  0
 13 14  1  0
 14 15  2  0
 14 19  1  0
 15 16  1  0
 16 17  2  0
 18 17  1  0
 19 18  2  0
 20 22  1  0
 21 20  2  0
 22 23  1  0
 23 24  1  1
 24 25  1  0
 25 33  1  0
 25 26  2  0
 26 27  1  0
 28 27  1  0
 28 29  2  0
 30 29  1  0
 31 30  2  0
 32 33  2  0
 32 31  1  0
 33 28  1  0
 34 23  1  0
 34 35  1  0
 36 34  2  0
M  END
$$$$
