PWW.pdb
     RDKit          3D

 36 40  0  0  1  0  0  0  0  0999 V2000
   28.0712  -23.6720  -17.1378 N   0  0  0  0  0  0  0  0  0  0  0  0
   28.7963  -24.0617  -18.3222 C   0  0  0  0  0  0  0  0  0  0  0  0
   29.6553  -22.8529  -18.6091 C   0  0  0  0  0  0  0  0  0  0  0  0
   29.8947  -22.2641  -17.2483 C   0  0  0  0  0  0  0  0  0  0  0  0
   29.0780  -23.1068  -16.2864 C   0  0  1  0  0  0  0  0  0  0  0  0
   28.5131  -22.2113  -15.2477 C   0  0  0  0  0  0  0  0  0  0  0  0
   29.2093  -21.4741  -14.5161 O   0  0  0  0  0  0  0  0  0  0  0  0
   27.1143  -22.1889  -15.0749 N   0  0  0  0  0  0  0  0  0  0  0  0
   26.3989  -21.0101  -14.4775 C   0  0  1  0  0  0  0  0  0  0  0  0
   25.2541  -20.6656  -15.3116 C   0  0  0  0  0  0  0  0  0  0  0  0
   24.2439  -19.7094  -14.8540 C   0  0  0  0  0  0  0  0  0  0  0  0
   24.3204  -18.3200  -14.9090 C   0  0  0  0  0  0  0  0  0  0  0  0
   23.2417  -17.7470  -14.3917 N   0  0  0  0  0  0  0  0  0  0  0  0
   22.4333  -18.7395  -13.9849 C   0  0  0  0  0  0  0  0  0  0  0  0
   21.1894  -18.6264  -13.4111 C   0  0  0  0  0  0  0  0  0  0  0  0
   20.4805  -19.7753  -13.0845 C   0  0  0  0  0  0  0  0  0  0  0  0
   21.0686  -20.9876  -13.3557 C   0  0  0  0  0  0  0  0  0  0  0  0
   22.3213  -21.0920  -13.9320 C   0  0  0  0  0  0  0  0  0  0  0  0
   23.0262  -19.9607  -14.2570 C   0  0  0  0  0  0  0  0  0  0  0  0
   26.2945  -21.3066  -13.0617 C   0  0  0  0  0  0  0  0  0  0  0  0
   26.0722  -22.5401  -12.7049 O   0  0  0  0  0  0  0  0  0  0  0  0
   26.4293  -20.3544  -12.0076 N   0  0  0  0  0  0  0  0  0  0  0  0
   26.1851  -20.7870  -10.6542 C   0  0  1  0  0  0  0  0  0  0  0  0
   27.3427  -20.2867   -9.7671 C   0  0  0  0  0  0  0  0  0  0  0  0
   27.1235  -20.4227   -8.3319 C   0  0  0  0  0  0  0  0  0  0  0  0
   26.0152  -21.0752   -7.7722 C   0  0  0  0  0  0  0  0  0  0  0  0
   26.0910  -21.0130   -6.4310 N   0  0  0  0  0  0  0  0  0  0  0  0
   27.2136  -20.3411   -6.0650 C   0  0  0  0  0  0  0  0  0  0  0  0
   27.7013  -20.0493   -4.8150 C   0  0  0  0  0  0  0  0  0  0  0  0
   28.8978  -19.3554   -4.7092 C   0  0  0  0  0  0  0  0  0  0  0  0
   29.5343  -18.9956   -5.8823 C   0  0  0  0  0  0  0  0  0  0  0  0
   29.0282  -19.2959   -7.1161 C   0  0  0  0  0  0  0  0  0  0  0  0
   27.8383  -19.9850   -7.2452 C   0  0  0  0  0  0  0  0  0  0  0  0
   24.8656  -20.5123  -10.1007 C   0  0  0  0  0  0  0  0  0  0  0  0
   24.0972  -21.4014   -9.3645 O   0  0  0  0  0  0  0  0  0  0  0  0
   24.2961  -19.3669  -10.2687 O   0  0  0  0  0  0  0  0  0  0  0  0
  1  2  1  0
  3  2  1  0
  4  5  1  0
  4  3  1  0
  5  1  1  0
  6  8  1  0
  5  6  1  1
  7  6  2  0
  9 20  1  0
  9  8  1  0
  9 10  1  6
 11 10  1  0
 11 19  1  0
 12 13  1  0
 12 11  2  0
 13 14  1  0
 14 15  2  0
 14 19  1  0
 15 16  1  0
 16 17  2  0
 18 17  1  0
 19 18  2  0
 20 22  1  0
 21 20  2  0
 22 23  1  0
 23 24  1  1
 24 25  1  0
 25 33  1  0
 25 26  2  0
 26 27  1  0
 28 27  1  0
 28 29  2  0
 30 29  1  0
 31 30  2  0
 32 33  2  0
 32 31  1  0
 33 28  1  0
 34 23  1  0
 34 35  1  0
 36 34  2  0
M  END
$$$$
