PWW.pdb
     RDKit          3D

 36 40  0  0  1  0  0  0  0  0999 V2000
   28.3990  -23.3408  -16.4392 N   0  0  0  0  0  0  0  0  0  0  0  0
   28.9651  -23.8804  -17.6512 C   0  0  0  0  0  0  0  0  0  0  0  0
   28.8505  -22.7294  -18.6226 C   0  0  0  0  0  0  0  0  0  0  0  0
   28.9478  -21.5175  -17.7407 C   0  0  0  0  0  0  0  0  0  0  0  0
   29.0068  -22.0469  -16.3199 C   0  0  1  0  0  0  0  0  0  0  0  0
   28.2333  -21.1287  -15.4489 C   0  0  0  0  0  0  0  0  0  0  0  0
   28.5293  -19.9265  -15.2744 O   0  0  0  0  0  0  0  0  0  0  0  0
   27.1015  -21.6382  -14.7807 N   0  0  0  0  0  0  0  0  0  0  0  0
   26.0751  -20.7433  -14.1452 C   0  0  1  0  0  0  0  0  0  0  0  0
   24.8644  -20.7434  -14.9569 C   0  0  0  0  0  0  0  0  0  0  0  0
   23.6297  -20.1203  -14.4756 C   0  0  0  0  0  0  0  0  0  0  0  0
   23.3461  -18.7580  -14.4194 C   0  0  0  0  0  0  0  0  0  0  0  0
   22.1427  -18.5265  -13.9116 N   0  0  0  0  0  0  0  0  0  0  0  0
   21.6078  -19.7239  -13.6219 C   0  0  0  0  0  0  0  0  0  0  0  0
   20.3622  -19.9823  -13.1012 C   0  0  0  0  0  0  0  0  0  0  0  0
   19.9658  -21.2980  -12.8985 C   0  0  0  0  0  0  0  0  0  0  0  0
   20.8541  -22.2917  -13.2342 C   0  0  0  0  0  0  0  0  0  0  0  0
   22.1060  -22.0225  -13.7562 C   0  0  0  0  0  0  0  0  0  0  0  0
   22.5030  -20.7249  -13.9588 C   0  0  0  0  0  0  0  0  0  0  0  0
   26.0916  -21.0870  -12.7362 C   0  0  0  0  0  0  0  0  0  0  0  0
   26.1254  -22.3482  -12.4096 O   0  0  0  0  0  0  0  0  0  0  0  0
   26.0877  -20.1513  -11.6590 N   0  0  0  0  0  0  0  0  0  0  0  0
   25.9879  -20.6538  -10.3114 C   0  0  1  0  0  0  0  0  0  0  0  0
   27.0861  -19.9853   -9.4603 C   0  0  0  0  0  0  0  0  0  0  0  0
   27.1253  -20.4043   -8.0642 C   0  0  0  0  0  0  0  0  0  0  0  0
   26.5878  -21.6134   -7.5990 C   0  0  0  0  0  0  0  0  0  0  0  0
   26.7632  -21.6973   -6.2683 N   0  0  0  0  0  0  0  0  0  0  0  0
   27.4019  -20.5859   -5.8182 C   0  0  0  0  0  0  0  0  0  0  0  0
   27.7963  -20.2465   -4.5475 C   0  0  0  0  0  0  0  0  0  0  0  0
   28.4581  -19.0432   -4.3517 C   0  0  0  0  0  0  0  0  0  0  0  0
   28.6834  -18.2493   -5.4607 C   0  0  0  0  0  0  0  0  0  0  0  0
   28.2796  -18.6078   -6.7165 C   0  0  0  0  0  0  0  0  0  0  0  0
   27.6183  -19.8006   -6.9346 C   0  0  0  0  0  0  0  0  0  0  0  0
   24.6699  -20.6236   -9.6910 C   0  0  0  0  0  0  0  0  0  0  0  0
   23.9184  -19.4844   -9.4458 O   0  0  0  0  0  0  0  0  0  0  0  0
   24.0868  -21.7090   -9.3087 O   0  0  0  0  0  0  0  0  0  0  0  0
  1  2  1  0
  3  2  1  0
  4  5  1  0
  4  3  1  0
  5  1  1  0
  6  8  1  0
  5  6  1  1
  7  6  2  0
  9 20  1  0
  9  8  1  0
  9 10  1  6
 11 10  1  0
 11 19  1  0
 12 13  1  0
 12 11  2  0
 13 14  1  0
 14 15  2  0
 14 19  1  0
 15 16  1  0
 16 17  2  0
 18 17  1  0
 19 18  2  0
 20 22  1  0
 21 20  2  0
 22 23  1  0
 23 24  1  1
 24 25  1  0
 25 33  1  0
 25 26  2  0
 26 27  1  0
 28 27  1  0
 28 29  2  0
 30 29  1  0
 31 30  2  0
 32 33  2  0
 32 31  1  0
 33 28  1  0
 34 23  1  0
 34 35  1  0
 36 34  2  0
M  END
$$$$
