PWW.pdb
     RDKit          3D

 36 40  0  0  1  0  0  0  0  0999 V2000
   28.5189  -20.5128  -16.9110 N   0  0  0  0  0  0  0  0  0  0  0  0
   29.6113  -20.5399  -17.8525 C   0  0  0  0  0  0  0  0  0  0  0  0
   30.4177  -21.7358  -17.4043 C   0  0  0  0  0  0  0  0  0  0  0  0
   29.3859  -22.6473  -16.8041 C   0  0  0  0  0  0  0  0  0  0  0  0
   28.0795  -21.8771  -16.8520 C   0  0  1  0  0  0  0  0  0  0  0  0
   27.3154  -22.1799  -15.6173 C   0  0  0  0  0  0  0  0  0  0  0  0
   26.7629  -23.2798  -15.3973 O   0  0  0  0  0  0  0  0  0  0  0  0
   27.2055  -21.1732  -14.6368 N   0  0  0  0  0  0  0  0  0  0  0  0
   26.5925  -21.4300  -13.2890 C   0  0  1  0  0  0  0  0  0  0  0  0
   27.5249  -21.0176  -12.2471 C   0  0  0  0  0  0  0  0  0  0  0  0
   27.0639  -20.7376  -10.8857 C   0  0  0  0  0  0  0  0  0  0  0  0
   25.7689  -20.4117  -10.4906 C   0  0  0  0  0  0  0  0  0  0  0  0
   25.6921  -20.1990   -9.1836 N   0  0  0  0  0  0  0  0  0  0  0  0
   26.9279  -20.3779   -8.6889 C   0  0  0  0  0  0  0  0  0  0  0  0
   27.3269  -20.2899   -7.3765 C   0  0  0  0  0  0  0  0  0  0  0  0
   28.6522  -20.5433   -7.0467 C   0  0  0  0  0  0  0  0  0  0  0  0
   29.5121  -20.8745   -8.0665 C   0  0  0  0  0  0  0  0  0  0  0  0
   29.1022  -20.9593   -9.3844 C   0  0  0  0  0  0  0  0  0  0  0  0
   27.7944  -20.7103   -9.7162 C   0  0  0  0  0  0  0  0  0  0  0  0
   25.2343  -20.9309  -13.3880 C   0  0  0  0  0  0  0  0  0  0  0  0
   25.0414  -19.7793  -13.9668 O   0  0  0  0  0  0  0  0  0  0  0  0
   24.0709  -21.6062  -12.9124 N   0  0  0  0  0  0  0  0  0  0  0  0
   22.7794  -21.0249  -13.1819 C   0  0  1  0  0  0  0  0  0  0  0  0
   21.7073  -22.1191  -13.0074 C   0  0  0  0  0  0  0  0  0  0  0  0
   20.3814  -21.6316  -12.6457 C   0  0  0  0  0  0  0  0  0  0  0  0
   19.8697  -20.3914  -13.0548 C   0  0  0  0  0  0  0  0  0  0  0  0
   18.6374  -20.2260  -12.5425 N   0  0  0  0  0  0  0  0  0  0  0  0
   18.2982  -21.3130  -11.8015 C   0  0  0  0  0  0  0  0  0  0  0  0
   17.1440  -21.5863  -11.1098 C   0  0  0  0  0  0  0  0  0  0  0  0
   17.0376  -22.7949  -10.4373 C   0  0  0  0  0  0  0  0  0  0  0  0
   18.1125  -23.6613  -10.5052 C   0  0  0  0  0  0  0  0  0  0  0  0
   19.2527  -23.3664  -11.1992 C   0  0  0  0  0  0  0  0  0  0  0  0
   19.3808  -22.1689  -11.8752 C   0  0  0  0  0  0  0  0  0  0  0  0
   22.4592  -19.7800  -12.4958 C   0  0  0  0  0  0  0  0  0  0  0  0
   21.8287  -18.6834  -13.0641 O   0  0  0  0  0  0  0  0  0  0  0  0
   22.7572  -19.6068  -11.2526 O   0  0  0  0  0  0  0  0  0  0  0  0
  1  2  1  0
  3  2  1  0
  4  5  1  0
  4  3  1  0
  5  1  1  0
  6  8  1  0
  5  6  1  1
  7  6  2  0
  9 20  1  0
  9  8  1  0
  9 10  1  1
 11 10  1  0
 11 19  1  0
 12 13  1  0
 12 11  2  0
 13 14  1  0
 14 15  2  0
 14 19  1  0
 15 16  1  0
 16 17  2  0
 18 17  1  0
 19 18  2  0
 20 22  1  0
 21 20  2  0
 22 23  1  0
 23 24  1  1
 24 25  1  0
 25 33  1  0
 25 26  2  0
 26 27  1  0
 28 27  1  0
 28 29  2  0
 30 29  1  0
 31 30  2  0
 32 33  2  0
 32 31  1  0
 33 28  1  0
 34 23  1  0
 34 35  1  0
 36 34  2  0
M  END
$$$$
