PWW.pdb
     RDKit          3D

 36 40  0  0  1  0  0  0  0  0999 V2000
   32.1919  -24.2460  -17.3533 N   0  0  0  0  0  0  0  0  0  0  0  0
   33.2035  -24.7465  -16.4553 C   0  0  0  0  0  0  0  0  0  0  0  0
   32.5859  -24.5336  -15.0935 C   0  0  0  0  0  0  0  0  0  0  0  0
   31.1119  -24.6529  -15.3564 C   0  0  0  0  0  0  0  0  0  0  0  0
   30.9747  -24.8215  -16.8581 C   0  0  1  0  0  0  0  0  0  0  0  0
   29.7688  -24.0803  -17.3012 C   0  0  0  0  0  0  0  0  0  0  0  0
   29.7926  -22.8964  -17.7028 O   0  0  0  0  0  0  0  0  0  0  0  0
   28.5268  -24.7461  -17.2687 N   0  0  0  0  0  0  0  0  0  0  0  0
   27.2572  -24.0989  -17.7457 C   0  0  1  0  0  0  0  0  0  0  0  0
   26.5053  -25.0486  -18.5565 C   0  0  0  0  0  0  0  0  0  0  0  0
   25.1608  -24.7317  -19.0425 C   0  0  0  0  0  0  0  0  0  0  0  0
   23.9732  -25.3720  -18.6977 C   0  0  0  0  0  0  0  0  0  0  0  0
   22.9313  -24.8514  -19.3324 N   0  0  0  0  0  0  0  0  0  0  0  0
   23.4047  -23.8616  -20.1070 C   0  0  0  0  0  0  0  0  0  0  0  0
   22.6883  -23.0212  -20.9255 C   0  0  0  0  0  0  0  0  0  0  0  0
   23.3514  -22.0255  -21.6312 C   0  0  0  0  0  0  0  0  0  0  0  0
   24.7133  -21.9294  -21.4731 C   0  0  0  0  0  0  0  0  0  0  0  0
   25.4263  -22.7802  -20.6485 C   0  0  0  0  0  0  0  0  0  0  0  0
   24.7767  -23.7655  -19.9488 C   0  0  0  0  0  0  0  0  0  0  0  0
   26.7080  -23.4346  -16.5792 C   0  0  0  0  0  0  0  0  0  0  0  0
   26.9466  -23.9503  -15.4065 O   0  0  0  0  0  0  0  0  0  0  0  0
   25.9284  -22.2397  -16.6015 N   0  0  0  0  0  0  0  0  0  0  0  0
   25.4800  -21.6871  -15.3477 C   0  0  1  0  0  0  0  0  0  0  0  0
   25.7931  -20.1774  -15.3416 C   0  0  0  0  0  0  0  0  0  0  0  0
   24.8707  -19.3530  -16.1135 C   0  0  0  0  0  0  0  0  0  0  0  0
   23.6653  -18.8481  -15.6043 C   0  0  0  0  0  0  0  0  0  0  0  0
   23.0342  -18.1476  -16.5632 N   0  0  0  0  0  0  0  0  0  0  0  0
   23.7727  -18.1612  -17.7034 C   0  0  0  0  0  0  0  0  0  0  0  0
   23.5299  -17.5747  -18.9210 C   0  0  0  0  0  0  0  0  0  0  0  0
   24.4649  -17.7260  -19.9345 C   0  0  0  0  0  0  0  0  0  0  0  0
   25.5979  -18.4666  -19.6540 C   0  0  0  0  0  0  0  0  0  0  0  0
   25.8170  -19.0427  -18.4338 C   0  0  0  0  0  0  0  0  0  0  0  0
   24.8994  -18.9060  -17.4108 C   0  0  0  0  0  0  0  0  0  0  0  0
   24.1182  -22.0020  -14.9363 C   0  0  0  0  0  0  0  0  0  0  0  0
   23.6002  -21.8338  -13.6611 O   0  0  0  0  0  0  0  0  0  0  0  0
   23.2623  -22.4833  -15.7730 O   0  0  0  0  0  0  0  0  0  0  0  0
  1  2  1  0
  3  2  1  0
  4  5  1  0
  4  3  1  0
  5  1  1  0
  6  8  1  0
  5  6  1  6
  7  6  2  0
  9 20  1  0
  9  8  1  0
  9 10  1  1
 11 10  1  0
 11 19  1  0
 12 13  1  0
 12 11  2  0
 13 14  1  0
 14 15  2  0
 14 19  1  0
 15 16  1  0
 16 17  2  0
 18 17  1  0
 19 18  2  0
 20 22  1  0
 21 20  2  0
 22 23  1  0
 23 24  1  6
 24 25  1  0
 25 33  1  0
 25 26  2  0
 26 27  1  0
 28 27  1  0
 28 29  2  0
 30 29  1  0
 31 30  2  0
 32 33  2  0
 32 31  1  0
 33 28  1  0
 34 23  1  0
 34 35  1  0
 36 34  2  0
M  END
$$$$
