DSM.pdb
     RDKit          3D

 23 22  0  0  1  0  0  0  0  0999 V2000
   -2.6242  -27.9755   26.2687 N   0  0  0  0  0  0  0  0  0  0  0  0
   -2.5041  -27.0851   27.3803 C   0  0  1  0  0  0  0  0  0  0  0  0
   -1.8497  -25.7804   26.9406 C   0  0  0  0  0  0  0  0  0  0  0  0
   -0.4564  -26.0290   26.5469 C   0  0  0  0  0  0  0  0  0  0  0  0
    0.0926  -25.2705   25.7009 O   0  0  0  0  0  0  0  0  0  0  0  0
   -3.8416  -26.7421   27.9717 C   0  0  0  0  0  0  0  0  0  0  0  0
   -4.8377  -26.5617   27.2307 O   0  0  0  0  0  0  0  0  0  0  0  0
    0.2630  -27.0651   27.0757 O   0  0  0  0  0  0  0  0  0  0  0  0
   -4.2504  -25.6413   31.9948 O   0  0  0  0  0  0  0  0  0  0  0  0
   -5.2487  -26.4619   31.4886 C   0  0  0  0  0  0  0  0  0  0  0  0
   -5.3234  -26.3010   29.9878 C   0  0  2  0  0  0  0  0  0  0  0  0
   -4.0278  -26.6108   29.3708 N   0  0  0  0  0  0  0  0  0  0  0  0
   -5.6425  -24.8829   29.6842 C   0  0  0  0  0  0  0  0  0  0  0  0
   -4.8721  -24.2206   28.9142 O   0  0  0  0  0  0  0  0  0  0  0  0
   -8.9756  -20.7421   24.9207 C   0  0  0  0  0  0  0  0  0  0  0  0
   -8.5192  -22.2526   25.7972 S   0  0  0  0  0  0  0  0  0  0  0  0
   -8.0439  -21.8729   27.5248 C   0  0  0  0  0  0  0  0  0  0  0  0
   -7.5301  -23.1151   28.1927 C   0  0  0  0  0  0  0  0  0  0  0  0
   -7.1421  -22.8875   29.6198 C   0  0  2  0  0  0  0  0  0  0  0  0
   -6.7535  -24.1825   30.1843 N   0  0  0  0  0  0  0  0  0  0  0  0
   -8.2450  -22.2927   30.4168 C   0  0  0  0  0  0  0  0  0  0  0  0
   -9.1762  -23.1263   31.0190 O   0  0  0  0  0  0  0  0  0  0  0  0
   -8.3836  -21.0641   30.5780 O   0  0  0  0  0  0  0  0  0  0  0  0
  2  1  1  6
  3  4  1  0
  3  2  1  0
  4  8  1  0
  5  4  2  0
  6  7  2  0
  6  2  1  0
  9 10  1  0
 11 10  1  1
 11 13  1  0
 11 12  1  0
 12  6  1  0
 13 14  2  0
 16 15  1  0
 17 16  1  0
 18 17  1  0
 19 18  1  6
 20 13  1  0
 20 19  1  0
 21 22  1  0
 21 19  1  0
 23 21  2  0
M  END
$$$$
