DSM.pdb
     RDKit          3D

 23 22  0  0  1  0  0  0  0  0999 V2000
    8.5093  -17.9818   17.7318 N   0  0  0  0  0  0  0  0  0  0  0  0
    9.2577  -18.0185   18.9489 C   0  0  1  0  0  0  0  0  0  0  0  0
   10.4248  -17.0405   18.8782 C   0  0  0  0  0  0  0  0  0  0  0  0
   11.4946  -17.5998   18.0410 C   0  0  0  0  0  0  0  0  0  0  0  0
   11.4009  -17.5247   16.7849 O   0  0  0  0  0  0  0  0  0  0  0  0
    8.4194  -17.6358   20.1351 C   0  0  0  0  0  0  0  0  0  0  0  0
    7.6906  -16.6153   20.0966 O   0  0  0  0  0  0  0  0  0  0  0  0
   12.5930  -18.2018   18.5905 O   0  0  0  0  0  0  0  0  0  0  0  0
    6.4076  -19.2063   24.2788 O   0  0  0  0  0  0  0  0  0  0  0  0
    7.3083  -19.4380   23.2487 C   0  0  0  0  0  0  0  0  0  0  0  0
    7.4775  -18.1781   22.4315 C   0  0  2  0  0  0  0  0  0  0  0  0
    8.4191  -18.4019   21.3277 N   0  0  0  0  0  0  0  0  0  0  0  0
    8.0489  -17.1245   23.3081 C   0  0  0  0  0  0  0  0  0  0  0  0
    9.3130  -17.0527   23.4555 O   0  0  0  0  0  0  0  0  0  0  0  0
    6.7823  -10.4350   27.3838 C   0  0  0  0  0  0  0  0  0  0  0  0
    6.1548  -11.7618   26.3331 S   0  0  0  0  0  0  0  0  0  0  0  0
    7.4503  -13.0262   26.0541 C   0  0  0  0  0  0  0  0  0  0  0  0
    6.9285  -14.0902   25.1329 C   0  0  0  0  0  0  0  0  0  0  0  0
    7.9588  -15.1220   24.7969 C   0  0  2  0  0  0  0  0  0  0  0  0
    7.2977  -16.1678   24.0120 N   0  0  0  0  0  0  0  0  0  0  0  0
    8.5846  -15.7104   26.0082 C   0  0  0  0  0  0  0  0  0  0  0  0
    9.6331  -15.0436   26.6252 O   0  0  0  0  0  0  0  0  0  0  0  0
    8.2140  -16.7896   26.5110 O   0  0  0  0  0  0  0  0  0  0  0  0
  2  1  1  6
  3  4  1  0
  3  2  1  0
  4  8  1  0
  5  4  2  0
  6  7  2  0
  6  2  1  0
  9 10  1  0
 11 10  1  1
 11 13  1  0
 11 12  1  0
 12  6  1  0
 13 14  2  0
 16 15  1  0
 17 16  1  0
 18 17  1  0
 19 18  1  1
 20 13  1  0
 20 19  1  0
 21 22  1  0
 21 19  1  0
 23 21  2  0
M  END
$$$$
