DSM.pdb
     RDKit          3D

 23 22  0  0  1  0  0  0  0  0999 V2000
   12.5549  -21.9166   21.6222 N   0  0  0  0  0  0  0  0  0  0  0  0
   11.2907  -21.2551   21.7066 C   0  0  1  0  0  0  0  0  0  0  0  0
   10.4193  -21.9196   22.7662 C   0  0  0  0  0  0  0  0  0  0  0  0
    9.3727  -22.7226   22.1198 C   0  0  0  0  0  0  0  0  0  0  0  0
    9.3125  -22.7626   20.8600 O   0  0  0  0  0  0  0  0  0  0  0  0
   11.4380  -19.8090   22.0853 C   0  0  0  0  0  0  0  0  0  0  0  0
   12.3315  -19.4495   22.8892 O   0  0  0  0  0  0  0  0  0  0  0  0
    8.4589  -23.4300   22.8514 O   0  0  0  0  0  0  0  0  0  0  0  0
   10.1673  -15.1931   21.1568 O   0  0  0  0  0  0  0  0  0  0  0  0
   10.0496  -16.5344   20.8205 C   0  0  0  0  0  0  0  0  0  0  0  0
   10.7153  -17.3820   21.8798 C   0  0  2  0  0  0  0  0  0  0  0  0
   10.5849  -18.8081   21.5565 N   0  0  0  0  0  0  0  0  0  0  0  0
   10.0236  -17.1451   23.1722 C   0  0  0  0  0  0  0  0  0  0  0  0
    8.9816  -17.8224   23.4561 O   0  0  0  0  0  0  0  0  0  0  0  0
    9.9987  -13.3906   30.1702 C   0  0  0  0  0  0  0  0  0  0  0  0
   10.7240  -13.6196   28.5332 S   0  0  0  0  0  0  0  0  0  0  0  0
    9.7522  -14.8334   27.5652 C   0  0  0  0  0  0  0  0  0  0  0  0
   10.3864  -15.0311   26.2192 C   0  0  0  0  0  0  0  0  0  0  0  0
    9.6593  -16.0316   25.3772 C   0  0  2  0  0  0  0  0  0  0  0  0
   10.4272  -16.2121   24.1426 N   0  0  0  0  0  0  0  0  0  0  0  0
    8.2739  -15.6016   25.0592 C   0  0  0  0  0  0  0  0  0  0  0  0
    7.2517  -15.8812   25.9545 O   0  0  0  0  0  0  0  0  0  0  0  0
    7.9723  -14.9922   24.0140 O   0  0  0  0  0  0  0  0  0  0  0  0
  2  1  1  1
  3  4  1  0
  3  2  1  0
  4  8  1  0
  5  4  2  0
  6  7  2  0
  6  2  1  0
  9 10  1  0
 11 10  1  6
 11 13  1  0
 11 12  1  0
 12  6  1  0
 13 14  2  0
 16 15  1  0
 17 16  1  0
 18 17  1  0
 19 18  1  1
 20 13  1  0
 20 19  1  0
 21 22  1  0
 21 19  1  0
 23 21  2  0
M  END
$$$$
