DSM.pdb
     RDKit          3D

 23 22  0  0  1  0  0  0  0  0999 V2000
    9.7259  -18.9641   19.5988 N   0  0  0  0  0  0  0  0  0  0  0  0
   10.7425  -17.9654   19.7086 C   0  0  1  0  0  0  0  0  0  0  0  0
   11.3037  -17.6327   18.3309 C   0  0  0  0  0  0  0  0  0  0  0  0
   12.1769  -18.7210   17.8716 C   0  0  0  0  0  0  0  0  0  0  0  0
   13.0232  -19.2136   18.6676 O   0  0  0  0  0  0  0  0  0  0  0  0
   10.2148  -16.6900   20.3010 C   0  0  0  0  0  0  0  0  0  0  0  0
   10.9796  -15.7148   20.4963 O   0  0  0  0  0  0  0  0  0  0  0  0
   12.0956  -19.2154   16.5989 O   0  0  0  0  0  0  0  0  0  0  0  0
    6.1699  -16.3376   21.5094 O   0  0  0  0  0  0  0  0  0  0  0  0
    6.8435  -15.2028   21.0796 C   0  0  0  0  0  0  0  0  0  0  0  0
    8.3220  -15.3591   21.3504 C   0  0  2  0  0  0  0  0  0  0  0  0
    8.8511  -16.5404   20.6577 N   0  0  0  0  0  0  0  0  0  0  0  0
    8.5118  -15.5658   22.8085 C   0  0  0  0  0  0  0  0  0  0  0  0
    8.0958  -16.6444   23.3457 O   0  0  0  0  0  0  0  0  0  0  0  0
    7.0224  -11.5599   28.0693 C   0  0  0  0  0  0  0  0  0  0  0  0
    6.6157  -11.7170   26.3177 S   0  0  0  0  0  0  0  0  0  0  0  0
    6.3300  -13.4725   25.8804 C   0  0  0  0  0  0  0  0  0  0  0  0
    7.1092  -13.8195   24.6453 C   0  0  0  0  0  0  0  0  0  0  0  0
    8.5008  -14.2782   24.9478 C   0  0  2  0  0  0  0  0  0  0  0  0
    9.1296  -14.6507   23.6779 N   0  0  0  0  0  0  0  0  0  0  0  0
    8.5246  -15.4285   25.8868 C   0  0  0  0  0  0  0  0  0  0  0  0
    8.2019  -16.6947   25.4206 O   0  0  0  0  0  0  0  0  0  0  0  0
    8.8236  -15.3183   27.0922 O   0  0  0  0  0  0  0  0  0  0  0  0
  2  1  1  6
  3  4  1  0
  3  2  1  0
  4  8  1  0
  5  4  2  0
  6  7  2  0
  6  2  1  0
  9 10  1  0
 11 10  1  1
 11 13  1  0
 11 12  1  0
 12  6  1  0
 13 14  2  0
 16 15  1  0
 17 16  1  0
 18 17  1  0
 19 18  1  6
 20 13  1  0
 20 19  1  0
 21 22  1  0
 21 19  1  0
 23 21  2  0
M  END
$$$$
