DSM.pdb
     RDKit          3D

 23 22  0  0  1  0  0  0  0  0999 V2000
    9.8186  -18.5141   18.3613 N   0  0  0  0  0  0  0  0  0  0  0  0
    9.1204  -17.2741   18.2286 C   0  0  1  0  0  0  0  0  0  0  0  0
    8.2472  -17.2934   16.9793 C   0  0  0  0  0  0  0  0  0  0  0  0
    9.0826  -17.5052   15.7897 C   0  0  0  0  0  0  0  0  0  0  0  0
   10.0641  -16.7407   15.5783 O   0  0  0  0  0  0  0  0  0  0  0  0
    8.2225  -17.0070   19.4027 C   0  0  0  0  0  0  0  0  0  0  0  0
    7.4502  -16.0183   19.4014 O   0  0  0  0  0  0  0  0  0  0  0  0
    8.8226  -18.5134   14.9027 O   0  0  0  0  0  0  0  0  0  0  0  0
    8.3484  -19.4652   22.8083 O   0  0  0  0  0  0  0  0  0  0  0  0
    7.1166  -18.9421   22.4405 C   0  0  0  0  0  0  0  0  0  0  0  0
    7.3208  -17.6462   21.6904 C   0  0  2  0  0  0  0  0  0  0  0  0
    8.2129  -17.8499   20.5424 N   0  0  0  0  0  0  0  0  0  0  0  0
    7.9727  -16.6739   22.6040 C   0  0  0  0  0  0  0  0  0  0  0  0
    9.2374  -16.5219   22.5548 O   0  0  0  0  0  0  0  0  0  0  0  0
    7.1179  -10.6712   27.7100 C   0  0  0  0  0  0  0  0  0  0  0  0
    6.3932  -11.8512   26.5523 S   0  0  0  0  0  0  0  0  0  0  0  0
    7.6679  -13.0162   25.9418 C   0  0  0  0  0  0  0  0  0  0  0  0
    7.0602  -13.9490   24.9350 C   0  0  0  0  0  0  0  0  0  0  0  0
    8.0359  -14.9580   24.4168 C   0  0  2  0  0  0  0  0  0  0  0  0
    7.2995  -15.8798   23.5480 N   0  0  0  0  0  0  0  0  0  0  0  0
    8.7049  -15.7094   25.5091 C   0  0  0  0  0  0  0  0  0  0  0  0
    9.8804  -15.2148   26.0551 O   0  0  0  0  0  0  0  0  0  0  0  0
    8.2614  -16.7791   25.9715 O   0  0  0  0  0  0  0  0  0  0  0  0
  2  1  1  1
  3  4  1  0
  3  2  1  0
  4  8  1  0
  5  4  2  0
  6  7  2  0
  6  2  1  0
  9 10  1  0
 11 10  1  1
 11 13  1  0
 11 12  1  0
 12  6  1  0
 13 14  2  0
 16 15  1  0
 17 16  1  0
 18 17  1  0
 19 18  1  1
 20 13  1  0
 20 19  1  0
 21 22  1  0
 21 19  1  0
 23 21  2  0
M  END
$$$$
