DSM.pdb
     RDKit          3D

 23 22  0  0  1  0  0  0  0  0999 V2000
    9.5894  -15.3976   17.6847 N   0  0  0  0  0  0  0  0  0  0  0  0
    8.6709  -14.4490   18.2321 C   0  0  1  0  0  0  0  0  0  0  0  0
    7.5178  -14.2142   17.2632 C   0  0  0  0  0  0  0  0  0  0  0  0
    8.0258  -14.1635   15.8857 C   0  0  0  0  0  0  0  0  0  0  0  0
    8.4198  -15.2266   15.3316 O   0  0  0  0  0  0  0  0  0  0  0  0
    8.0808  -14.9232   19.5294 C   0  0  0  0  0  0  0  0  0  0  0  0
    7.2273  -14.2285   20.1319 O   0  0  0  0  0  0  0  0  0  0  0  0
    8.0828  -12.9894   15.1865 O   0  0  0  0  0  0  0  0  0  0  0  0
    7.4160  -18.9384   20.6856 O   0  0  0  0  0  0  0  0  0  0  0  0
    8.2074  -18.1529   21.5119 C   0  0  0  0  0  0  0  0  0  0  0  0
    7.8397  -16.6983   21.3311 C   0  0  2  0  0  0  0  0  0  0  0  0
    8.4600  -16.1568   20.1156 N   0  0  0  0  0  0  0  0  0  0  0  0
    8.3688  -15.9340   22.4890 C   0  0  0  0  0  0  0  0  0  0  0  0
    9.5938  -15.5814   22.4972 O   0  0  0  0  0  0  0  0  0  0  0  0
    6.9937  -10.5248   27.9545 C   0  0  0  0  0  0  0  0  0  0  0  0
    6.3926  -11.6539   26.6809 S   0  0  0  0  0  0  0  0  0  0  0  0
    7.6944  -12.8594   26.2261 C   0  0  0  0  0  0  0  0  0  0  0  0
    7.1913  -13.7599   25.1357 C   0  0  0  0  0  0  0  0  0  0  0  0
    8.2175  -14.7497   24.6820 C   0  0  2  0  0  0  0  0  0  0  0  0
    7.6166  -15.5510   23.6126 N   0  0  0  0  0  0  0  0  0  0  0  0
    8.6777  -15.6316   25.7846 C   0  0  0  0  0  0  0  0  0  0  0  0
    9.6346  -15.1661   26.6747 O   0  0  0  0  0  0  0  0  0  0  0  0
    8.2445  -16.7879   25.9586 O   0  0  0  0  0  0  0  0  0  0  0  0
  2  1  1  6
  3  4  1  0
  3  2  1  0
  4  8  1  0
  5  4  2  0
  6  7  2  0
  6  2  1  0
  9 10  1  0
 11 10  1  1
 11 13  1  0
 11 12  1  0
 12  6  1  0
 13 14  2  0
 16 15  1  0
 17 16  1  0
 18 17  1  0
 19 18  1  1
 20 13  1  0
 20 19  1  0
 21 22  1  0
 21 19  1  0
 23 21  2  0
M  END
$$$$
