DSM.pdb
     RDKit          3D

 23 22  0  0  1  0  0  0  0  0999 V2000
    8.7861  -19.3745   18.6428 N   0  0  0  0  0  0  0  0  0  0  0  0
    9.1838  -18.1692   19.2998 C   0  0  1  0  0  0  0  0  0  0  0  0
    9.1412  -16.9994   18.3234 C   0  0  0  0  0  0  0  0  0  0  0  0
   10.0549  -17.2525   17.2013 C   0  0  0  0  0  0  0  0  0  0  0  0
   11.0637  -17.9895   17.3784 O   0  0  0  0  0  0  0  0  0  0  0  0
    8.2775  -17.8310   20.4490 C   0  0  0  0  0  0  0  0  0  0  0  0
    7.0507  -17.6490   20.2598 O   0  0  0  0  0  0  0  0  0  0  0  0
    9.8389  -16.7077   15.9654 O   0  0  0  0  0  0  0  0  0  0  0  0
    8.8727  -19.3986   23.9908 O   0  0  0  0  0  0  0  0  0  0  0  0
    7.6561  -18.8259   23.6474 C   0  0  0  0  0  0  0  0  0  0  0  0
    7.8969  -17.5120   22.9407 C   0  0  2  0  0  0  0  0  0  0  0  0
    8.7663  -17.7059   21.7737 N   0  0  0  0  0  0  0  0  0  0  0  0
    8.5949  -16.5966   23.8787 C   0  0  0  0  0  0  0  0  0  0  0  0
    9.8673  -16.6264   23.9495 O   0  0  0  0  0  0  0  0  0  0  0  0
    6.8523  -10.5714   26.6192 C   0  0  0  0  0  0  0  0  0  0  0  0
    5.8794  -11.8869   25.8570 S   0  0  0  0  0  0  0  0  0  0  0  0
    6.9787  -13.1476   25.1108 C   0  0  0  0  0  0  0  0  0  0  0  0
    7.8201  -13.7818   26.1800 C   0  0  0  0  0  0  0  0  0  0  0  0
    8.7347  -14.8390   25.6467 C   0  0  2  0  0  0  0  0  0  0  0  0
    7.9589  -15.6697   24.7222 N   0  0  0  0  0  0  0  0  0  0  0  0
    9.3155  -15.6793   26.7246 C   0  0  0  0  0  0  0  0  0  0  0  0
    8.9137  -17.0013   26.8486 O   0  0  0  0  0  0  0  0  0  0  0  0
   10.1592  -15.2559   27.5392 O   0  0  0  0  0  0  0  0  0  0  0  0
  2  1  1  6
  3  4  1  0
  3  2  1  0
  4  8  1  0
  5  4  2  0
  6  7  2  0
  6  2  1  0
  9 10  1  0
 11 10  1  1
 11 13  1  0
 11 12  1  0
 12  6  1  0
 13 14  2  0
 16 15  1  0
 17 16  1  0
 18 17  1  0
 19 18  1  1
 20 13  1  0
 20 19  1  0
 21 22  1  0
 21 19  1  0
 23 21  2  0
M  END
$$$$
