DSM.pdb
     RDKit          3D

 23 22  0  0  1  0  0  0  0  0999 V2000
   10.7144  -19.0543   19.7659 N   0  0  0  0  0  0  0  0  0  0  0  0
   11.2184  -17.7201   19.8586 C   0  0  1  0  0  0  0  0  0  0  0  0
   11.7491  -17.2632   18.5047 C   0  0  0  0  0  0  0  0  0  0  0  0
   12.8131  -18.1702   18.0538 C   0  0  0  0  0  0  0  0  0  0  0  0
   12.6473  -18.8433   16.9994 O   0  0  0  0  0  0  0  0  0  0  0  0
   10.1548  -16.7461   20.2785 C   0  0  0  0  0  0  0  0  0  0  0  0
   10.3910  -15.5141   20.2953 O   0  0  0  0  0  0  0  0  0  0  0  0
   13.9827  -18.3038   18.7503 O   0  0  0  0  0  0  0  0  0  0  0  0
    6.3588  -18.0336   21.7436 O   0  0  0  0  0  0  0  0  0  0  0  0
    6.4512  -16.8749   20.9855 C   0  0  0  0  0  0  0  0  0  0  0  0
    7.8219  -16.2632   21.1612 C   0  0  2  0  0  0  0  0  0  0  0  0
    8.8608  -17.1751   20.6669 N   0  0  0  0  0  0  0  0  0  0  0  0
    8.0576  -16.0512   22.6118 C   0  0  0  0  0  0  0  0  0  0  0  0
    9.0453  -16.6279   23.1748 O   0  0  0  0  0  0  0  0  0  0  0  0
    7.3526  -10.7272   27.7181 C   0  0  0  0  0  0  0  0  0  0  0  0
    6.2049  -12.0528   27.2896 S   0  0  0  0  0  0  0  0  0  0  0  0
    7.1212  -13.5602   26.7968 C   0  0  0  0  0  0  0  0  0  0  0  0
    6.8220  -13.8880   25.3629 C   0  0  0  0  0  0  0  0  0  0  0  0
    7.6152  -15.0513   24.8567 C   0  0  2  0  0  0  0  0  0  0  0  0
    7.2652  -15.2455   23.4472 N   0  0  0  0  0  0  0  0  0  0  0  0
    7.3489  -16.2937   25.6254 C   0  0  0  0  0  0  0  0  0  0  0  0
    6.3679  -17.1700   25.1846 O   0  0  0  0  0  0  0  0  0  0  0  0
    7.9686  -16.5990   26.6634 O   0  0  0  0  0  0  0  0  0  0  0  0
  2  1  1  6
  3  4  1  0
  3  2  1  0
  4  8  1  0
  5  4  2  0
  6  7  2  0
  6  2  1  0
  9 10  1  0
 11 10  1  1
 11 13  1  0
 11 12  1  0
 12  6  1  0
 13 14  2  0
 16 15  1  0
 17 16  1  0
 18 17  1  0
 19 18  1  1
 20 13  1  0
 20 19  1  0
 21 22  1  0
 21 19  1  0
 23 21  2  0
M  END
$$$$
