PTN.pdb
     RDKit          3D

 23 23  0  0  1  0  0  0  0  0999 V2000
   23.3795  -22.4794  -13.7872 N   0  0  0  0  0  0  0  0  0  0  0  0
   23.8674  -23.7904  -13.4502 C   0  0  0  0  0  0  0  0  0  0  0  0
   25.3473  -23.6698  -13.6306 C   0  0  0  0  0  0  0  0  0  0  0  0
   25.6573  -22.2642  -13.1833 C   0  0  0  0  0  0  0  0  0  0  0  0
   24.2981  -21.6029  -13.0943 C   0  0  1  0  0  0  0  0  0  0  0  0
   24.2756  -20.2787  -13.7278 C   0  0  0  0  0  0  0  0  0  0  0  0
   24.9997  -19.3600  -13.2713 O   0  0  0  0  0  0  0  0  0  0  0  0
   25.4930  -18.9785  -16.7362 C   0  0  0  0  0  0  0  0  0  0  0  0
   24.0108  -18.7029  -16.8502 C   0  0  1  0  0  0  0  0  0  0  0  0
   23.3704  -19.7041  -17.5757 O   0  0  0  0  0  0  0  0  0  0  0  0
   23.4407  -18.6217  -15.4298 C   0  0  2  0  0  0  0  0  0  0  0  0
   23.4696  -19.9507  -14.8538 N   0  0  0  0  0  0  0  0  0  0  0  0
   22.0565  -18.0793  -15.4711 C   0  0  0  0  0  0  0  0  0  0  0  0
   21.1010  -18.8414  -15.1770 O   0  0  0  0  0  0  0  0  0  0  0  0
   18.1544  -14.5974  -16.1313 N   0  0  0  0  0  0  0  0  0  0  0  0
   19.4020  -13.9360  -16.2579 C   0  0  0  0  0  0  0  0  0  0  0  0
   19.4244  -12.6958  -16.4430 O   0  0  0  0  0  0  0  0  0  0  0  0
   20.6548  -14.6803  -16.1754 C   0  0  0  0  0  0  0  0  0  0  0  0
   20.4914  -16.1580  -15.8879 C   0  0  2  0  0  0  0  0  0  0  0  0
   21.8004  -16.7318  -15.8328 N   0  0  0  0  0  0  0  0  0  0  0  0
   19.6411  -16.8626  -16.8506 C   0  0  0  0  0  0  0  0  0  0  0  0
   18.4387  -17.4715  -16.5258 O   0  0  0  0  0  0  0  0  0  0  0  0
   20.0095  -16.9290  -18.0507 O   0  0  0  0  0  0  0  0  0  0  0  0
  1  5  1  0
  1  2  1  0
  2  3  1  0
  4  3  1  0
  5  4  1  0
  6 12  1  0
  5  6  1  6
  7  6  2  0
  9  8  1  1
  9 11  1  0
 10  9  1  0
 11 12  1  6
 11 13  1  0
 13 20  1  0
 14 13  2  0
 16 15  1  0
 16 17  2  0
 18 16  1  0
 19 18  1  6
 20 19  1  0
 21 19  1  0
 21 22  1  0
 23 21  2  0
M  END
$$$$
