PTN.pdb
     RDKit          3D

 23 23  0  0  1  0  0  0  0  0999 V2000
   44.4942  -15.3559   -6.9803 N   0  0  0  0  0  0  0  0  0  0  0  0
   44.5828  -16.7282   -6.5568 C   0  0  0  0  0  0  0  0  0  0  0  0
   44.3021  -17.4989   -7.8076 C   0  0  0  0  0  0  0  0  0  0  0  0
   44.9347  -16.6715   -8.8972 C   0  0  0  0  0  0  0  0  0  0  0  0
   45.2365  -15.3504   -8.2217 C   0  0  1  0  0  0  0  0  0  0  0  0
   44.8198  -14.1984   -9.0306 C   0  0  0  0  0  0  0  0  0  0  0  0
   45.3477  -14.0048  -10.1533 O   0  0  0  0  0  0  0  0  0  0  0  0
   41.7660  -13.3460  -10.6967 C   0  0  0  0  0  0  0  0  0  0  0  0
   41.9736  -12.1938   -9.7400 C   0  0  1  0  0  0  0  0  0  0  0  0
   41.2432  -12.3783   -8.5690 O   0  0  0  0  0  0  0  0  0  0  0  0
   43.4722  -12.1092   -9.4296 C   0  0  2  0  0  0  0  0  0  0  0  0
   43.8328  -13.2575   -8.6233 N   0  0  0  0  0  0  0  0  0  0  0  0
   43.7707  -10.8354   -8.7224 C   0  0  0  0  0  0  0  0  0  0  0  0
   43.9043  -10.8564   -7.4726 O   0  0  0  0  0  0  0  0  0  0  0  0
   44.4008   -5.6411   -8.0482 N   0  0  0  0  0  0  0  0  0  0  0  0
   44.8309   -6.0235   -9.3439 C   0  0  0  0  0  0  0  0  0  0  0  0
   45.3400   -5.1634  -10.1013 O   0  0  0  0  0  0  0  0  0  0  0  0
   44.6877   -7.4015   -9.8030 C   0  0  0  0  0  0  0  0  0  0  0  0
   44.0657   -8.3408   -8.7911 C   0  0  2  0  0  0  0  0  0  0  0  0
   43.9054   -9.6118   -9.4273 N   0  0  0  0  0  0  0  0  0  0  0  0
   42.7993   -7.8616   -8.2319 C   0  0  0  0  0  0  0  0  0  0  0  0
   41.5532   -8.3372   -8.6099 O   0  0  0  0  0  0  0  0  0  0  0  0
   42.8256   -6.9630   -7.3531 O   0  0  0  0  0  0  0  0  0  0  0  0
  1  5  1  0
  1  2  1  0
  2  3  1  0
  4  3  1  0
  5  4  1  0
  6 12  1  0
  5  6  1  6
  7  6  2  0
  9  8  1  6
  9 11  1  0
 10  9  1  0
 11 12  1  1
 11 13  1  0
 13 20  1  0
 14 13  2  0
 16 15  1  0
 16 17  2  0
 18 16  1  0
 19 18  1  6
 20 19  1  0
 21 19  1  0
 21 22  1  0
 23 21  2  0
M  END
$$$$
