PTN.pdb
     RDKit          3D

 23 23  0  0  1  0  0  0  0  0999 V2000
   16.2023  -12.6705  -16.1717 N   0  0  0  0  0  0  0  0  0  0  0  0
   15.2779  -13.7509  -16.3926 C   0  0  0  0  0  0  0  0  0  0  0  0
   16.1653  -14.9065  -16.7311 C   0  0  0  0  0  0  0  0  0  0  0  0
   17.3828  -14.6985  -15.8672 C   0  0  0  0  0  0  0  0  0  0  0  0
   17.2277  -13.2821  -15.3552 C   0  0  1  0  0  0  0  0  0  0  0  0
   18.4675  -12.5045  -15.4712 C   0  0  0  0  0  0  0  0  0  0  0  0
   19.5113  -12.9125  -14.9050 O   0  0  0  0  0  0  0  0  0  0  0  0
   20.4815  -11.8096  -18.3669 C   0  0  0  0  0  0  0  0  0  0  0  0
   20.1324  -10.4364  -17.8394 C   0  0  1  0  0  0  0  0  0  0  0  0
   19.0344   -9.9066  -18.5121 O   0  0  0  0  0  0  0  0  0  0  0  0
   19.8292  -10.5745  -16.3433 C   0  0  2  0  0  0  0  0  0  0  0  0
   18.5758  -11.2866  -16.1993 N   0  0  0  0  0  0  0  0  0  0  0  0
   19.7626   -9.2282  -15.7149 C   0  0  0  0  0  0  0  0  0  0  0  0
   18.6382   -8.6845  -15.5712 O   0  0  0  0  0  0  0  0  0  0  0  0
   21.9000   -5.1930  -12.5182 N   0  0  0  0  0  0  0  0  0  0  0  0
   22.5256   -5.5888  -13.7273 C   0  0  0  0  0  0  0  0  0  0  0  0
   23.2490   -4.7694  -14.3421 O   0  0  0  0  0  0  0  0  0  0  0  0
   22.3372   -6.9341  -14.2612 C   0  0  0  0  0  0  0  0  0  0  0  0
   20.9413   -7.2176  -14.7752 C   0  0  2  0  0  0  0  0  0  0  0  0
   20.9336   -8.5558  -15.2802 N   0  0  0  0  0  0  0  0  0  0  0  0
   20.4721   -6.2648  -15.7842 C   0  0  0  0  0  0  0  0  0  0  0  0
   20.7575   -6.3622  -17.1374 O   0  0  0  0  0  0  0  0  0  0  0  0
   19.7654   -5.2918  -15.4177 O   0  0  0  0  0  0  0  0  0  0  0  0
  1  5  1  0
  1  2  1  0
  2  3  1  0
  4  3  1  0
  5  4  1  0
  6 12  1  0
  5  6  1  6
  7  6  2  0
  9  8  1  6
  9 11  1  0
 10  9  1  0
 11 12  1  6
 11 13  1  0
 13 20  1  0
 14 13  2  0
 16 15  1  0
 16 17  2  0
 18 16  1  0
 19 18  1  6
 20 19  1  0
 21 19  1  0
 21 22  1  0
 23 21  2  0
M  END
$$$$
