PTN.pdb
     RDKit          3D

 23 23  0  0  1  0  0  0  0  0999 V2000
   27.2159  -19.3531  -17.3589 N   0  0  0  0  0  0  0  0  0  0  0  0
   28.4681  -19.3203  -18.0670 C   0  0  0  0  0  0  0  0  0  0  0  0
   28.5766  -17.8988  -18.5197 C   0  0  0  0  0  0  0  0  0  0  0  0
   27.9622  -17.1079  -17.3932 C   0  0  0  0  0  0  0  0  0  0  0  0
   27.2694  -18.1563  -16.5486 C   0  0  1  0  0  0  0  0  0  0  0  0
   25.9055  -17.7634  -16.1737 C   0  0  0  0  0  0  0  0  0  0  0  0
   25.7245  -16.7280  -15.4868 O   0  0  0  0  0  0  0  0  0  0  0  0
   23.4900  -16.4126  -18.0417 C   0  0  0  0  0  0  0  0  0  0  0  0
   22.7117  -17.5872  -17.4935 C   0  0  1  0  0  0  0  0  0  0  0  0
   22.6623  -18.6288  -18.4162 O   0  0  0  0  0  0  0  0  0  0  0  0
   23.4036  -18.0448  -16.2046 C   0  0  2  0  0  0  0  0  0  0  0  0
   24.7396  -18.4916  -16.5423 N   0  0  0  0  0  0  0  0  0  0  0  0
   22.6143  -19.1316  -15.5659 C   0  0  0  0  0  0  0  0  0  0  0  0
   23.2283  -20.0542  -14.9725 O   0  0  0  0  0  0  0  0  0  0  0  0
   20.2885  -22.3487  -12.4843 N   0  0  0  0  0  0  0  0  0  0  0  0
   19.8941  -21.0016  -12.6837 C   0  0  0  0  0  0  0  0  0  0  0  0
   18.8377  -20.5851  -12.1513 O   0  0  0  0  0  0  0  0  0  0  0  0
   20.7013  -20.0988  -13.4984 C   0  0  0  0  0  0  0  0  0  0  0  0
   20.3870  -20.1364  -14.9792 C   0  0  2  0  0  0  0  0  0  0  0  0
   21.1967  -19.1435  -15.6150 N   0  0  0  0  0  0  0  0  0  0  0  0
   18.9685  -19.9480  -15.2931 C   0  0  0  0  0  0  0  0  0  0  0  0
   18.3447  -18.7117  -15.3597 O   0  0  0  0  0  0  0  0  0  0  0  0
   18.2574  -20.9598  -15.5188 O   0  0  0  0  0  0  0  0  0  0  0  0
  1  5  1  0
  1  2  1  0
  2  3  1  0
  4  3  1  0
  5  4  1  0
  6 12  1  0
  5  6  1  6
  7  6  2  0
  9  8  1  6
  9 11  1  0
 10  9  1  0
 11 12  1  6
 11 13  1  0
 13 20  1  0
 14 13  2  0
 16 15  1  0
 16 17  2  0
 18 16  1  0
 19 18  1  1
 20 19  1  0
 21 19  1  0
 21 22  1  0
 23 21  2  0
M  END
$$$$
