PTN.pdb
     RDKit          3D

 23 23  0  0  1  0  0  0  0  0999 V2000
   18.0268  -12.0970  -15.7005 N   0  0  0  0  0  0  0  0  0  0  0  0
   17.4793  -13.4236  -15.8053 C   0  0  0  0  0  0  0  0  0  0  0  0
   17.9470  -13.8898  -17.1474 C   0  0  0  0  0  0  0  0  0  0  0  0
   19.3199  -13.2837  -17.2876 C   0  0  0  0  0  0  0  0  0  0  0  0
   19.3854  -12.2685  -16.1661 C   0  0  1  0  0  0  0  0  0  0  0  0
   19.9121  -10.9728  -16.6121 C   0  0  0  0  0  0  0  0  0  0  0  0
   21.1111  -10.8815  -16.9738 O   0  0  0  0  0  0  0  0  0  0  0  0
   18.5639   -8.8200  -19.3830 C   0  0  0  0  0  0  0  0  0  0  0  0
   18.6141   -7.9465  -18.1500 C   0  0  1  0  0  0  0  0  0  0  0  0
   17.3705   -7.8900  -17.5262 O   0  0  0  0  0  0  0  0  0  0  0  0
   19.6632   -8.5376  -17.2018 C   0  0  2  0  0  0  0  0  0  0  0  0
   19.1409   -9.7780  -16.6655 N   0  0  0  0  0  0  0  0  0  0  0  0
   19.9700   -7.5659  -16.1185 C   0  0  0  0  0  0  0  0  0  0  0  0
   19.9814   -7.9723  -14.9289 O   0  0  0  0  0  0  0  0  0  0  0  0
   22.3017   -5.0433  -12.3937 N   0  0  0  0  0  0  0  0  0  0  0  0
   22.4916   -4.8460  -13.7847 C   0  0  0  0  0  0  0  0  0  0  0  0
   23.1775   -3.8732  -14.1797 O   0  0  0  0  0  0  0  0  0  0  0  0
   21.8997   -5.7593  -14.7573 C   0  0  0  0  0  0  0  0  0  0  0  0
   20.6341   -5.2474  -15.4125 C   0  0  2  0  0  0  0  0  0  0  0  0
   20.2465   -6.2039  -16.4028 N   0  0  0  0  0  0  0  0  0  0  0  0
   20.7607   -3.9062  -15.9881 C   0  0  0  0  0  0  0  0  0  0  0  0
   20.5074   -2.7344  -15.2919 O   0  0  0  0  0  0  0  0  0  0  0  0
   21.1205   -3.7922  -17.1873 O   0  0  0  0  0  0  0  0  0  0  0  0
  1  5  1  0
  1  2  1  0
  2  3  1  0
  4  3  1  0
  5  4  1  0
  6 12  1  0
  5  6  1  6
  7  6  2  0
  9  8  1  6
  9 11  1  0
 10  9  1  0
 11 12  1  1
 11 13  1  0
 13 20  1  0
 14 13  2  0
 16 15  1  0
 16 17  2  0
 18 16  1  0
 19 18  1  6
 20 19  1  0
 21 19  1  0
 21 22  1  0
 23 21  2  0
M  END
$$$$
