PTN.pdb
     RDKit          3D

 23 23  0  0  1  0  0  0  0  0999 V2000
   23.4413  -10.6068  -15.3928 N   0  0  0  0  0  0  0  0  0  0  0  0
   24.5755  -11.4830  -15.2648 C   0  0  0  0  0  0  0  0  0  0  0  0
   24.1815  -12.6839  -16.0647 C   0  0  0  0  0  0  0  0  0  0  0  0
   23.3929  -12.1143  -17.2160 C   0  0  0  0  0  0  0  0  0  0  0  0
   23.1309  -10.6812  -16.8035 C   0  0  1  0  0  0  0  0  0  0  0  0
   21.7336  -10.2832  -17.0140 C   0  0  0  0  0  0  0  0  0  0  0  0
   21.3857   -9.7996  -18.1193 O   0  0  0  0  0  0  0  0  0  0  0  0
   18.7889  -12.0825  -17.5235 C   0  0  0  0  0  0  0  0  0  0  0  0
   18.4849  -11.3072  -16.2615 C   0  0  1  0  0  0  0  0  0  0  0  0
   18.7655  -12.0663  -15.1285 O   0  0  0  0  0  0  0  0  0  0  0  0
   19.3382  -10.0342  -16.2790 C   0  0  2  0  0  0  0  0  0  0  0  0
   20.7150  -10.4087  -16.0280 N   0  0  0  0  0  0  0  0  0  0  0  0
   18.8413   -9.0786  -15.2534 C   0  0  0  0  0  0  0  0  0  0  0  0
   17.6852   -8.6021  -15.3829 O   0  0  0  0  0  0  0  0  0  0  0  0
   17.9839   -7.0061  -10.4286 N   0  0  0  0  0  0  0  0  0  0  0  0
   19.3126   -7.4346  -10.6756 C   0  0  0  0  0  0  0  0  0  0  0  0
   20.2329   -7.0543   -9.9132 O   0  0  0  0  0  0  0  0  0  0  0  0
   19.6188   -8.3097  -11.8029 C   0  0  0  0  0  0  0  0  0  0  0  0
   19.2338   -7.7506  -13.1565 C   0  0  2  0  0  0  0  0  0  0  0  0
   19.6416   -8.7006  -14.1448 N   0  0  0  0  0  0  0  0  0  0  0  0
   19.7878   -6.4230  -13.4332 C   0  0  0  0  0  0  0  0  0  0  0  0
   21.0569   -6.2017  -13.9454 O   0  0  0  0  0  0  0  0  0  0  0  0
   19.0820   -5.4098  -13.1973 O   0  0  0  0  0  0  0  0  0  0  0  0
  1  5  1  0
  1  2  1  0
  2  3  1  0
  4  3  1  0
  5  4  1  0
  6 12  1  0
  5  6  1  1
  7  6  2  0
  9  8  1  6
  9 11  1  0
 10  9  1  0
 11 12  1  1
 11 13  1  0
 13 20  1  0
 14 13  2  0
 16 15  1  0
 16 17  2  0
 18 16  1  0
 19 18  1  1
 20 19  1  0
 21 19  1  0
 21 22  1  0
 23 21  2  0
M  END
$$$$
