PTN.pdb
     RDKit          3D

 23 23  0  0  1  0  0  0  0  0999 V2000
   21.4302  -12.4382  -18.8752 N   0  0  0  0  0  0  0  0  0  0  0  0
   21.3490  -13.6471  -19.6513 C   0  0  0  0  0  0  0  0  0  0  0  0
   21.7630  -14.7113  -18.6851 C   0  0  0  0  0  0  0  0  0  0  0  0
   21.2023  -14.2460  -17.3656 C   0  0  0  0  0  0  0  0  0  0  0  0
   20.8000  -12.8100  -17.6276 C   0  0  1  0  0  0  0  0  0  0  0  0
   21.2489  -11.8991  -16.5674 C   0  0  0  0  0  0  0  0  0  0  0  0
   20.7916  -12.0265  -15.4049 O   0  0  0  0  0  0  0  0  0  0  0  0
   24.5622  -11.3432  -15.2809 C   0  0  0  0  0  0  0  0  0  0  0  0
   24.1148   -9.9403  -15.6241 C   0  0  1  0  0  0  0  0  0  0  0  0
   24.6664   -9.5210  -16.8319 O   0  0  0  0  0  0  0  0  0  0  0  0
   22.5843   -9.9457  -15.7068 C   0  0  2  0  0  0  0  0  0  0  0  0
   22.1915  -10.8517  -16.7668 N   0  0  0  0  0  0  0  0  0  0  0  0
   22.0871   -8.5672  -15.9605 C   0  0  0  0  0  0  0  0  0  0  0  0
   21.5519   -8.3135  -17.0694 O   0  0  0  0  0  0  0  0  0  0  0  0
   20.3297   -3.7835  -15.4870 N   0  0  0  0  0  0  0  0  0  0  0  0
   19.5878   -4.9888  -15.5708 C   0  0  0  0  0  0  0  0  0  0  0  0
   18.3478   -4.9361  -15.7510 O   0  0  0  0  0  0  0  0  0  0  0  0
   20.2494   -6.2842  -15.4499 C   0  0  0  0  0  0  0  0  0  0  0  0
   21.7354   -6.2083  -15.1687 C   0  0  2  0  0  0  0  0  0  0  0  0
   22.2057   -7.5462  -14.9828 N   0  0  0  0  0  0  0  0  0  0  0  0
   22.0841   -5.3578  -14.0281 C   0  0  0  0  0  0  0  0  0  0  0  0
   22.6766   -5.8228  -12.8642 O   0  0  0  0  0  0  0  0  0  0  0  0
   21.8376   -4.1266  -14.0915 O   0  0  0  0  0  0  0  0  0  0  0  0
  1  5  1  0
  1  2  1  0
  2  3  1  0
  4  3  1  0
  5  4  1  0
  6 12  1  0
  5  6  1  1
  7  6  2  0
  9  8  1  6
  9 11  1  0
 10  9  1  0
 11 12  1  6
 11 13  1  0
 13 20  1  0
 14 13  2  0
 16 15  1  0
 16 17  2  0
 18 16  1  0
 19 18  1  1
 20 19  1  0
 21 19  1  0
 21 22  1  0
 23 21  2  0
M  END
$$$$
