GAG.pdb
     RDKit          3D

 14 13  0  0  1  0  0  0  0  0999 V2000
   17.8153  -11.8602  -15.2987 N   0  0  0  0  0  0  0  0  0  0  0  0
   17.7873  -10.4711  -15.6376 C   0  0  0  0  0  0  0  0  0  0  0  0
   19.1268  -10.0661  -16.1915 C   0  0  0  0  0  0  0  0  0  0  0  0
   20.0954  -10.8676  -16.2049 O   0  0  0  0  0  0  0  0  0  0  0  0
   20.3207   -7.4000  -18.4890 C   0  0  0  0  0  0  0  0  0  0  0  0
   20.5949   -8.3613  -17.3381 C   0  0  2  0  0  0  0  0  0  0  0  0
   19.3554   -8.7645  -16.7222 N   0  0  0  0  0  0  0  0  0  0  0  0
   21.4536   -7.7641  -16.3106 C   0  0  0  0  0  0  0  0  0  0  0  0
   22.6335   -7.4302  -16.5618 O   0  0  0  0  0  0  0  0  0  0  0  0
   21.0143   -7.5226  -14.9667 N   0  0  0  0  0  0  0  0  0  0  0  0
   21.8649   -6.9387  -13.9794 C   0  0  0  0  0  0  0  0  0  0  0  0
   21.9008   -5.4847  -13.9768 C   0  0  0  0  0  0  0  0  0  0  0  0
   21.2432   -4.8258  -14.8085 O   0  0  0  0  0  0  0  0  0  0  0  0
   22.6631   -4.8006  -13.0544 O   0  0  0  0  0  0  0  0  0  0  0  0
  2  1  1  0
  3  2  1  0
  4  3  2  0
  6  5  1  6
  6  7  1  0
  7  3  1  0
  8  9  2  0
  8  6  1  0
 10  8  1  0
 11 10  1  0
 12 11  1  0
 12 14  1  0
 13 12  2  0
M  END
$$$$
