GAG.pdb
     RDKit          3D

 14 13  0  0  1  0  0  0  0  0999 V2000
   18.2551  -12.3904  -16.1033 N   0  0  0  0  0  0  0  0  0  0  0  0
   19.3267  -11.7217  -16.7739 C   0  0  0  0  0  0  0  0  0  0  0  0
   20.1292  -10.9366  -15.7715 C   0  0  0  0  0  0  0  0  0  0  0  0
   19.6039  -10.4972  -14.7171 O   0  0  0  0  0  0  0  0  0  0  0  0
   23.7584  -10.2789  -15.1213 C   0  0  0  0  0  0  0  0  0  0  0  0
   22.2979   -9.8442  -15.0787 C   0  0  2  0  0  0  0  0  0  0  0  0
   21.5114  -10.6582  -15.9715 N   0  0  0  0  0  0  0  0  0  0  0  0
   22.1275   -8.4381  -15.4576 C   0  0  0  0  0  0  0  0  0  0  0  0
   21.9294   -8.1039  -16.6474 O   0  0  0  0  0  0  0  0  0  0  0  0
   22.1743   -7.3612  -14.5113 N   0  0  0  0  0  0  0  0  0  0  0  0
   21.9869   -5.9989  -14.8960 C   0  0  0  0  0  0  0  0  0  0  0  0
   22.1638   -5.0258  -13.8295 C   0  0  0  0  0  0  0  0  0  0  0  0
   22.3573   -5.3933  -12.6522 O   0  0  0  0  0  0  0  0  0  0  0  0
   22.1217   -3.6740  -14.0952 O   0  0  0  0  0  0  0  0  0  0  0  0
  2  1  1  0
  3  2  1  0
  4  3  2  0
  6  5  1  6
  6  7  1  0
  7  3  1  0
  8  9  2  0
  8  6  1  0
 10  8  1  0
 11 10  1  0
 12 11  1  0
 12 14  1  0
 13 12  2  0
M  END
$$$$
