GAG.pdb
     RDKit          3D

 14 13  0  0  1  0  0  0  0  0999 V2000
   18.1396  -11.9605  -15.1703 N   0  0  0  0  0  0  0  0  0  0  0  0
   18.2411  -10.6251  -15.6719 C   0  0  0  0  0  0  0  0  0  0  0  0
   19.6915  -10.2773  -15.8732 C   0  0  0  0  0  0  0  0  0  0  0  0
   20.6037  -11.0891  -15.5738 O   0  0  0  0  0  0  0  0  0  0  0  0
   21.5598   -7.9938  -18.0551 C   0  0  0  0  0  0  0  0  0  0  0  0
   21.4634   -8.6774  -16.6960 C   0  0  2  0  0  0  0  0  0  0  0  0
   20.0929   -9.0203  -16.4089 N   0  0  0  0  0  0  0  0  0  0  0  0
   21.9686   -7.8286  -15.6124 C   0  0  0  0  0  0  0  0  0  0  0  0
   23.1959   -7.6524  -15.4417 O   0  0  0  0  0  0  0  0  0  0  0  0
   21.1105   -7.1498  -14.6848 N   0  0  0  0  0  0  0  0  0  0  0  0
   21.6167   -6.2676  -13.6825 C   0  0  0  0  0  0  0  0  0  0  0  0
   21.6756   -4.8658  -14.0659 C   0  0  0  0  0  0  0  0  0  0  0  0
   22.6964   -4.3913  -14.6057 O   0  0  0  0  0  0  0  0  0  0  0  0
   20.6039   -4.0285  -13.8415 O   0  0  0  0  0  0  0  0  0  0  0  0
  2  1  1  0
  3  2  1  0
  4  3  2  0
  6  5  1  6
  6  7  1  0
  7  3  1  0
  8  9  2  0
  8  6  1  0
 10  8  1  0
 11 10  1  0
 12 11  1  0
 12 14  1  0
 13 12  2  0
M  END
$$$$
