GAG.pdb
     RDKit          3D

 14 13  0  0  1  0  0  0  0  0999 V2000
   18.1033  -11.9013  -16.0076 N   0  0  0  0  0  0  0  0  0  0  0  0
   18.3928  -10.6800  -16.6929 C   0  0  0  0  0  0  0  0  0  0  0  0
   19.7300  -10.1590  -16.2396 C   0  0  0  0  0  0  0  0  0  0  0  0
   20.2290  -10.5137  -15.1414 O   0  0  0  0  0  0  0  0  0  0  0  0
   22.5748   -8.3208  -17.8622 C   0  0  0  0  0  0  0  0  0  0  0  0
   21.7669   -8.7192  -16.6324 C   0  0  2  0  0  0  0  0  0  0  0  0
   20.4853   -9.2462  -17.0298 N   0  0  0  0  0  0  0  0  0  0  0  0
   21.5454   -7.5886  -15.7256 C   0  0  0  0  0  0  0  0  0  0  0  0
   20.5345   -6.8581  -15.8307 O   0  0  0  0  0  0  0  0  0  0  0  0
   22.4531   -7.2419  -14.6704 N   0  0  0  0  0  0  0  0  0  0  0  0
   22.1920   -6.1734  -13.7598 C   0  0  0  0  0  0  0  0  0  0  0  0
   22.4564   -4.8407  -14.2789 C   0  0  0  0  0  0  0  0  0  0  0  0
   22.8731   -4.6779  -15.4444 O   0  0  0  0  0  0  0  0  0  0  0  0
   22.2525   -3.7259  -13.4944 O   0  0  0  0  0  0  0  0  0  0  0  0
  2  1  1  0
  3  2  1  0
  4  3  2  0
  6  5  1  6
  6  7  1  0
  7  3  1  0
  8  9  2  0
  8  6  1  0
 10  8  1  0
 11 10  1  0
 12 11  1  0
 12 14  1  0
 13 12  2  0
M  END
$$$$
