GAG.pdb
     RDKit          3D

 14 13  0  0  1  0  0  0  0  0999 V2000
   16.8392  -12.9174  -15.1660 N   0  0  0  0  0  0  0  0  0  0  0  0
   17.2871  -12.0210  -16.1862 C   0  0  0  0  0  0  0  0  0  0  0  0
   18.5657  -11.3616  -15.7442 C   0  0  0  0  0  0  0  0  0  0  0  0
   18.8201  -11.1851  -14.5257 O   0  0  0  0  0  0  0  0  0  0  0  0
   21.8088  -10.3813  -17.3756 C   0  0  0  0  0  0  0  0  0  0  0  0
   20.7364  -10.2008  -16.3073 C   0  0  2  0  0  0  0  0  0  0  0  0
   19.5388  -10.9109  -16.6812 N   0  0  0  0  0  0  0  0  0  0  0  0
   20.3959   -8.7902  -16.0975 C   0  0  0  0  0  0  0  0  0  0  0  0
   19.5114   -8.2256  -16.7796 O   0  0  0  0  0  0  0  0  0  0  0  0
   21.0387   -7.9678  -15.1137 N   0  0  0  0  0  0  0  0  0  0  0  0
   20.7020   -6.5921  -14.9316 C   0  0  0  0  0  0  0  0  0  0  0  0
   21.3839   -5.9297  -13.8307 C   0  0  0  0  0  0  0  0  0  0  0  0
   22.1279   -6.5701  -13.0594 O   0  0  0  0  0  0  0  0  0  0  0  0
   21.2236   -4.5780  -13.6141 O   0  0  0  0  0  0  0  0  0  0  0  0
  2  1  1  0
  3  2  1  0
  4  3  2  0
  6  5  1  6
  6  7  1  0
  7  3  1  0
  8  9  2  0
  8  6  1  0
 10  8  1  0
 11 10  1  0
 12 11  1  0
 12 14  1  0
 13 12  2  0
M  END
$$$$
