GAG.pdb
     RDKit          3D

 14 13  0  0  1  0  0  0  0  0999 V2000
   19.0881  -12.8756  -16.2321 N   0  0  0  0  0  0  0  0  0  0  0  0
   20.1170  -12.1123  -16.8676 C   0  0  0  0  0  0  0  0  0  0  0  0
   20.7108  -11.1511  -15.8733 C   0  0  0  0  0  0  0  0  0  0  0  0
   19.9898  -10.5540  -15.0339 O   0  0  0  0  0  0  0  0  0  0  0  0
   24.2104  -10.1949  -14.8246 C   0  0  0  0  0  0  0  0  0  0  0  0
   22.7126   -9.9328  -14.9329 C   0  0  2  0  0  0  0  0  0  0  0  0
   22.1077  -10.8767  -15.8391 N   0  0  0  0  0  0  0  0  0  0  0  0
   22.4210   -8.5769  -15.4086 C   0  0  0  0  0  0  0  0  0  0  0  0
   22.3547   -8.3160  -16.6309 O   0  0  0  0  0  0  0  0  0  0  0  0
   22.1941   -7.4694  -14.5257 N   0  0  0  0  0  0  0  0  0  0  0  0
   21.7715   -6.1903  -14.9994 C   0  0  0  0  0  0  0  0  0  0  0  0
   21.5940   -5.1782  -13.9701 C   0  0  0  0  0  0  0  0  0  0  0  0
   21.3447   -3.9930  -14.2728 O   0  0  0  0  0  0  0  0  0  0  0  0
   21.6972   -5.5054  -12.6351 O   0  0  0  0  0  0  0  0  0  0  0  0
  2  1  1  0
  3  2  1  0
  4  3  2  0
  6  5  1  6
  6  7  1  0
  7  3  1  0
  8  9  2  0
  8  6  1  0
 10  8  1  0
 11 10  1  0
 12 11  1  0
 12 14  1  0
 13 12  2  0
M  END
$$$$
