CIT.pdb
     RDKit          3D

 22 21  0  0  1  0  0  0  0  0999 V2000
   25.1637  -13.6710  -17.9990 N   0  0  0  0  0  0  0  0  0  0  0  0
   24.5697  -13.1158  -16.8182 C   0  0  1  0  0  0  0  0  0  0  0  0
   25.6317  -12.4116  -16.0167 C   0  0  0  0  0  0  0  0  0  0  0  0
   26.8093  -13.6618  -15.4287 S   0  0  0  0  0  0  0  0  0  0  0  0
   23.4794  -12.1864  -17.1902 C   0  0  0  0  0  0  0  0  0  0  0  0
   23.5280  -11.5494  -18.2597 O   0  0  0  0  0  0  0  0  0  0  0  0
   19.2566  -14.1260  -17.2776 C   0  0  0  0  0  0  0  0  0  0  0  0
   19.7730  -12.7807  -17.6765 C   0  0  0  0  0  0  0  0  0  0  0  0
   19.9476  -11.9040  -16.4392 C   0  0  2  0  0  0  0  0  0  0  0  0
   18.7688  -10.9569  -16.4036 C   0  0  0  0  0  0  0  0  0  0  0  0
   21.2465  -11.1450  -16.6377 C   0  0  2  0  0  0  0  0  0  0  0  0
   22.3650  -12.0016  -16.3457 N   0  0  0  0  0  0  0  0  0  0  0  0
   21.2836   -9.8788  -15.8793 C   0  0  0  0  0  0  0  0  0  0  0  0
   21.4025   -9.9256  -14.6281 O   0  0  0  0  0  0  0  0  0  0  0  0
   21.5343   -4.8714  -15.8867 C   0  0  0  0  0  0  0  0  0  0  0  0
   21.4296   -6.1656  -16.6610 C   0  0  1  0  0  0  0  0  0  0  0  0
   22.5942   -6.3181  -17.3948 O   0  0  0  0  0  0  0  0  0  0  0  0
   21.2570   -7.3632  -15.7473 C   0  0  2  0  0  0  0  0  0  0  0  0
   21.1924   -8.6001  -16.4816 N   0  0  0  0  0  0  0  0  0  0  0  0
   20.0211   -7.1480  -14.9690 C   0  0  0  0  0  0  0  0  0  0  0  0
   18.9147   -7.3538  -15.5101 O   0  0  0  0  0  0  0  0  0  0  0  0
   20.0569   -6.7248  -13.6576 O   0  0  0  0  0  0  0  0  0  0  0  0
  2  1  1  6
  2  5  1  0
  3  2  1  0
  4  3  1  0
  5 12  1  0
  5  6  2  0
  7  8  1  0
  8  9  1  0
  9 11  1  0
  9 10  1  6
 11 13  1  0
 11 12  1  1
 13 14  2  0
 16 18  1  0
 16 15  1  1
 17 16  1  0
 18 20  1  0
 19 13  1  0
 18 19  1  6
 20 22  1  0
 21 20  2  0
M  END
$$$$
