CIT.pdb
     RDKit          3D

 22 21  0  0  1  0  0  0  0  0999 V2000
   28.8400  -21.0470  -15.0002 N   0  0  0  0  0  0  0  0  0  0  0  0
   28.0420  -20.1444  -14.2230 C   0  0  1  0  0  0  0  0  0  0  0  0
   27.5299  -19.0457  -15.1155 C   0  0  0  0  0  0  0  0  0  0  0  0
   28.9418  -18.0092  -15.5925 S   0  0  0  0  0  0  0  0  0  0  0  0
   26.9248  -20.8777  -13.5865 C   0  0  0  0  0  0  0  0  0  0  0  0
   26.4282  -21.8780  -14.1386 O   0  0  0  0  0  0  0  0  0  0  0  0
   26.5383  -20.6046   -8.2418 C   0  0  0  0  0  0  0  0  0  0  0  0
   26.3770  -21.1751   -9.6144 C   0  0  0  0  0  0  0  0  0  0  0  0
   25.1393  -20.5808  -10.2813 C   0  0  2  0  0  0  0  0  0  0  0  0
   23.9369  -21.1969   -9.6011 C   0  0  0  0  0  0  0  0  0  0  0  0
   25.2058  -20.9916  -11.7405 C   0  0  2  0  0  0  0  0  0  0  0  0
   26.3992  -20.4623  -12.3454 N   0  0  0  0  0  0  0  0  0  0  0  0
   23.9818  -20.6351  -12.4851 C   0  0  0  0  0  0  0  0  0  0  0  0
   23.6993  -19.4194  -12.6395 O   0  0  0  0  0  0  0  0  0  0  0  0
   21.4552  -23.6489  -14.3877 C   0  0  0  0  0  0  0  0  0  0  0  0
   21.7125  -22.2694  -14.9502 C   0  0  1  0  0  0  0  0  0  0  0  0
   20.5979  -21.8929  -15.6809 O   0  0  0  0  0  0  0  0  0  0  0  0
   21.9603  -21.2468  -13.8584 C   0  0  2  0  0  0  0  0  0  0  0  0
   23.0962  -21.5897  -13.0426 N   0  0  0  0  0  0  0  0  0  0  0  0
   20.7318  -21.1671  -13.0436 C   0  0  0  0  0  0  0  0  0  0  0  0
   20.7415  -21.6156  -11.8782 O   0  0  0  0  0  0  0  0  0  0  0  0
   19.5718  -20.6092  -13.5369 O   0  0  0  0  0  0  0  0  0  0  0  0
  2  1  1  6
  2  5  1  0
  3  2  1  0
  4  3  1  0
  5 12  1  0
  5  6  2  0
  7  8  1  0
  8  9  1  0
  9 11  1  0
  9 10  1  1
 11 13  1  0
 11 12  1  6
 13 14  2  0
 16 18  1  0
 16 15  1  1
 17 16  1  0
 18 20  1  0
 19 13  1  0
 18 19  1  1
 20 22  1  0
 21 20  2  0
M  END
$$$$
