CIT.pdb
     RDKit          3D

 22 21  0  0  1  0  0  0  0  0999 V2000
   18.8087  -15.2133  -17.3393 N   0  0  0  0  0  0  0  0  0  0  0  0
   19.3696  -13.9769  -17.7996 C   0  0  1  0  0  0  0  0  0  0  0  0
   18.2895  -13.1603  -18.4573 C   0  0  0  0  0  0  0  0  0  0  0  0
   19.0243  -11.5891  -18.9928 S   0  0  0  0  0  0  0  0  0  0  0  0
   19.9756  -13.2437  -16.6654 C   0  0  0  0  0  0  0  0  0  0  0  0
   19.3520  -13.1049  -15.5959 O   0  0  0  0  0  0  0  0  0  0  0  0
   24.5748  -14.4556  -14.9316 C   0  0  0  0  0  0  0  0  0  0  0  0
   23.2123  -13.8644  -15.1027 C   0  0  0  0  0  0  0  0  0  0  0  0
   23.3302  -12.4048  -15.5336 C   0  0  2  0  0  0  0  0  0  0  0  0
   23.9966  -11.6646  -14.3951 C   0  0  0  0  0  0  0  0  0  0  0  0
   21.9115  -11.9094  -15.7448 C   0  0  2  0  0  0  0  0  0  0  0  0
   21.2676  -12.6877  -16.7695 N   0  0  0  0  0  0  0  0  0  0  0  0
   21.8522  -10.4579  -16.0081 C   0  0  0  0  0  0  0  0  0  0  0  0
   22.5804   -9.9764  -16.9135 O   0  0  0  0  0  0  0  0  0  0  0  0
   19.1785   -8.4200  -17.3928 C   0  0  0  0  0  0  0  0  0  0  0  0
   19.5193   -7.7806  -16.0659 C   0  0  1  0  0  0  0  0  0  0  0  0
   18.5886   -8.2102  -15.1346 O   0  0  0  0  0  0  0  0  0  0  0  0
   20.9088   -8.1594  -15.5917 C   0  0  2  0  0  0  0  0  0  0  0  0
   21.0158   -9.5645  -15.2952 N   0  0  0  0  0  0  0  0  0  0  0  0
   21.2025   -7.3452  -14.3958 C   0  0  0  0  0  0  0  0  0  0  0  0
   21.2455   -7.8971  -13.2765 O   0  0  0  0  0  0  0  0  0  0  0  0
   21.4309   -5.9886  -14.4829 O   0  0  0  0  0  0  0  0  0  0  0  0
  2  1  1  1
  2  5  1  0
  3  2  1  0
  4  3  1  0
  5 12  1  0
  5  6  2  0
  7  8  1  0
  8  9  1  0
  9 11  1  0
  9 10  1  1
 11 13  1  0
 11 12  1  6
 13 14  2  0
 16 18  1  0
 16 15  1  6
 17 16  1  0
 18 20  1  0
 19 13  1  0
 18 19  1  1
 20 22  1  0
 21 20  2  0
M  END
$$$$
