CIT.pdb
     RDKit          3D

 22 21  0  0  1  0  0  0  0  0999 V2000
   22.0323  -15.1556  -18.0211 N   0  0  0  0  0  0  0  0  0  0  0  0
   22.6427  -13.9651  -18.5363 C   0  0  1  0  0  0  0  0  0  0  0  0
   21.7776  -13.4022  -19.6320 C   0  0  0  0  0  0  0  0  0  0  0  0
   21.8973  -14.5111  -21.0642 S   0  0  0  0  0  0  0  0  0  0  0  0
   22.8297  -12.9809  -17.4466 C   0  0  0  0  0  0  0  0  0  0  0  0
   22.0037  -12.9008  -16.5175 O   0  0  0  0  0  0  0  0  0  0  0  0
   27.7425  -12.0795  -15.7686 C   0  0  0  0  0  0  0  0  0  0  0  0
   26.2534  -12.1862  -15.8499 C   0  0  0  0  0  0  0  0  0  0  0  0
   25.6606  -10.8502  -16.2901 C   0  0  2  0  0  0  0  0  0  0  0  0
   25.9299   -9.8632  -15.1759 C   0  0  0  0  0  0  0  0  0  0  0  0
   24.1707  -11.0829  -16.4591 C   0  0  2  0  0  0  0  0  0  0  0  0
   23.9429  -12.1149  -17.4355 N   0  0  0  0  0  0  0  0  0  0  0  0
   23.4342   -9.8393  -16.7602 C   0  0  0  0  0  0  0  0  0  0  0  0
   23.8108   -9.1320  -17.7295 O   0  0  0  0  0  0  0  0  0  0  0  0
   19.3517   -7.0574  -16.3904 C   0  0  0  0  0  0  0  0  0  0  0  0
   20.0989   -8.3538  -16.1745 C   0  0  1  0  0  0  0  0  0  0  0  0
   19.6649   -9.2593  -17.1283 O   0  0  0  0  0  0  0  0  0  0  0  0
   21.5989   -8.1747  -16.3048 C   0  0  2  0  0  0  0  0  0  0  0  0
   22.3167   -9.3890  -16.0155 N   0  0  0  0  0  0  0  0  0  0  0  0
   21.9950   -7.0957  -15.3783 C   0  0  0  0  0  0  0  0  0  0  0  0
   22.2682   -5.9666  -15.8365 O   0  0  0  0  0  0  0  0  0  0  0  0
   22.0712   -7.3027  -14.0176 O   0  0  0  0  0  0  0  0  0  0  0  0
  2  1  1  1
  2  5  1  0
  3  2  1  0
  4  3  1  0
  5 12  1  0
  5  6  2  0
  7  8  1  0
  8  9  1  0
  9 11  1  0
  9 10  1  1
 11 13  1  0
 11 12  1  6
 13 14  2  0
 16 18  1  0
 16 15  1  6
 17 16  1  0
 18 20  1  0
 19 13  1  0
 18 19  1  1
 20 22  1  0
 21 20  2  0
M  END
$$$$
