CIT.pdb
     RDKit          3D

 22 21  0  0  1  0  0  0  0  0999 V2000
   17.7794  -12.9777  -16.1223 N   0  0  0  0  0  0  0  0  0  0  0  0
   18.3556  -11.9276  -16.9100 C   0  0  1  0  0  0  0  0  0  0  0  0
   17.3742  -11.5142  -17.9739 C   0  0  0  0  0  0  0  0  0  0  0  0
   17.4749  -12.7206  -19.3266 S   0  0  0  0  0  0  0  0  0  0  0  0
   18.7137  -10.7832  -16.0421 C   0  0  0  0  0  0  0  0  0  0  0  0
   17.9751  -10.4515  -15.0953 O   0  0  0  0  0  0  0  0  0  0  0  0
   23.4203  -10.5841  -14.0798 C   0  0  0  0  0  0  0  0  0  0  0  0
   21.9745  -10.3530  -14.3823 C   0  0  0  0  0  0  0  0  0  0  0  0
   21.8093   -9.0534  -15.1657 C   0  0  2  0  0  0  0  0  0  0  0  0
   22.2708   -7.9339  -14.2591 C   0  0  0  0  0  0  0  0  0  0  0  0
   20.3281   -8.9278  -15.4706 C   0  0  2  0  0  0  0  0  0  0  0  0
   19.8945  -10.0453  -16.2665 N   0  0  0  0  0  0  0  0  0  0  0  0
   19.9836   -7.6267  -16.0774 C   0  0  0  0  0  0  0  0  0  0  0  0
   20.5932   -7.2621  -17.1152 O   0  0  0  0  0  0  0  0  0  0  0  0
   16.7415   -6.4515  -17.5985 C   0  0  0  0  0  0  0  0  0  0  0  0
   17.1166   -5.4897  -16.4941 C   0  0  1  0  0  0  0  0  0  0  0  0
   16.4120   -5.8504  -15.3577 O   0  0  0  0  0  0  0  0  0  0  0  0
   18.6017   -5.5233  -16.1902 C   0  0  2  0  0  0  0  0  0  0  0  0
   18.9972   -6.7541  -15.5560 N   0  0  0  0  0  0  0  0  0  0  0  0
   18.8995   -4.3655  -15.3240 C   0  0  0  0  0  0  0  0  0  0  0  0
   19.1238   -4.5524  -14.1099 O   0  0  0  0  0  0  0  0  0  0  0  0
   18.9366   -3.0806  -15.8218 O   0  0  0  0  0  0  0  0  0  0  0  0
  2  1  1  1
  2  5  1  0
  3  2  1  0
  4  3  1  0
  5 12  1  0
  5  6  2  0
  7  8  1  0
  8  9  1  0
  9 11  1  0
  9 10  1  1
 11 13  1  0
 11 12  1  6
 13 14  2  0
 16 18  1  0
 16 15  1  6
 17 16  1  0
 18 20  1  0
 19 13  1  0
 18 19  1  1
 20 22  1  0
 21 20  2  0
M  END
$$$$
