CIT.pdb
     RDKit          3D

 22 21  0  0  1  0  0  0  0  0999 V2000
   18.0781  -11.7769  -18.1459 N   0  0  0  0  0  0  0  0  0  0  0  0
   19.1570  -10.8645  -18.3886 C   0  0  1  0  0  0  0  0  0  0  0  0
   18.6608   -9.7317  -19.2468 C   0  0  0  0  0  0  0  0  0  0  0  0
   18.4338  -10.3654  -20.9326 S   0  0  0  0  0  0  0  0  0  0  0  0
   19.6939  -10.3635  -17.1034 C   0  0  0  0  0  0  0  0  0  0  0  0
   18.9331  -10.1479  -16.1407 O   0  0  0  0  0  0  0  0  0  0  0  0
   22.0100  -12.0066  -13.8653 C   0  0  0  0  0  0  0  0  0  0  0  0
   22.5861  -11.8503  -15.2361 C   0  0  0  0  0  0  0  0  0  0  0  0
   22.9785  -10.3940  -15.4713 C   0  0  2  0  0  0  0  0  0  0  0  0
   23.6416   -9.9086  -14.2014 C   0  0  0  0  0  0  0  0  0  0  0  0
   21.6852   -9.6429  -15.7283 C   0  0  2  0  0  0  0  0  0  0  0  0
   21.0734  -10.1197  -16.9402 N   0  0  0  0  0  0  0  0  0  0  0  0
   21.8702   -8.1782  -15.7198 C   0  0  0  0  0  0  0  0  0  0  0  0
   22.7035   -7.6685  -16.5120 O   0  0  0  0  0  0  0  0  0  0  0  0
   20.2424   -3.6239  -14.7824 C   0  0  0  0  0  0  0  0  0  0  0  0
   20.0377   -5.1205  -14.8438 C   0  0  1  0  0  0  0  0  0  0  0  0
   19.3526   -5.4090  -16.0123 O   0  0  0  0  0  0  0  0  0  0  0  0
   21.3526   -5.8756  -14.8387 C   0  0  2  0  0  0  0  0  0  0  0  0
   21.1583   -7.3021  -14.8644 N   0  0  0  0  0  0  0  0  0  0  0  0
   22.0899   -5.4664  -13.6269 C   0  0  0  0  0  0  0  0  0  0  0  0
   21.9148   -6.0967  -12.5633 O   0  0  0  0  0  0  0  0  0  0  0  0
   22.9687   -4.4044  -13.6392 O   0  0  0  0  0  0  0  0  0  0  0  0
  2  1  1  1
  2  5  1  0
  3  2  1  0
  4  3  1  0
  5 12  1  0
  5  6  2  0
  7  8  1  0
  8  9  1  0
  9 11  1  0
  9 10  1  1
 11 13  1  0
 11 12  1  6
 13 14  2  0
 16 18  1  0
 16 15  1  6
 17 16  1  0
 18 20  1  0
 19 13  1  0
 18 19  1  1
 20 22  1  0
 21 20  2  0
M  END
$$$$
