CIT.pdb
     RDKit          3D

 22 21  0  0  1  0  0  0  0  0999 V2000
   19.6451  -13.7944  -18.5220 N   0  0  0  0  0  0  0  0  0  0  0  0
   20.3066  -12.5544  -18.8054 C   0  0  1  0  0  0  0  0  0  0  0  0
   19.6316  -11.8922  -19.9767 C   0  0  0  0  0  0  0  0  0  0  0  0
   20.1197  -12.7840  -21.4806 S   0  0  0  0  0  0  0  0  0  0  0  0
   20.2771  -11.6814  -17.6104 C   0  0  0  0  0  0  0  0  0  0  0  0
   19.2793  -11.6626  -16.8647 O   0  0  0  0  0  0  0  0  0  0  0  0
   24.2613  -11.7942  -14.4356 C   0  0  0  0  0  0  0  0  0  0  0  0
   22.9354  -11.5715  -15.0898 C   0  0  0  0  0  0  0  0  0  0  0  0
   22.7862  -10.1017  -15.4735 C   0  0  2  0  0  0  0  0  0  0  0  0
   22.8202   -9.3075  -14.1865 C   0  0  0  0  0  0  0  0  0  0  0  0
   21.4349   -9.9759  -16.1521 C   0  0  2  0  0  0  0  0  0  0  0  0
   21.3737  -10.8542  -17.2901 N   0  0  0  0  0  0  0  0  0  0  0  0
   21.0993   -8.5786  -16.4905 C   0  0  0  0  0  0  0  0  0  0  0  0
   21.9467   -7.8850  -17.1090 O   0  0  0  0  0  0  0  0  0  0  0  0
   17.9649   -7.2709  -18.4430 C   0  0  0  0  0  0  0  0  0  0  0  0
   18.0889   -6.5695  -17.1096 C   0  0  1  0  0  0  0  0  0  0  0  0
   17.2294   -7.1918  -16.2195 O   0  0  0  0  0  0  0  0  0  0  0  0
   19.5018   -6.6320  -16.5628 C   0  0  2  0  0  0  0  0  0  0  0  0
   19.8673   -7.9644  -16.1572 N   0  0  0  0  0  0  0  0  0  0  0  0
   19.5740   -5.6964  -15.4231 C   0  0  0  0  0  0  0  0  0  0  0  0
   19.6603   -6.1515  -14.2635 O   0  0  0  0  0  0  0  0  0  0  0  0
   19.5485   -4.3304  -15.6062 O   0  0  0  0  0  0  0  0  0  0  0  0
  2  1  1  1
  2  5  1  0
  3  2  1  0
  4  3  1  0
  5 12  1  0
  5  6  2  0
  7  8  1  0
  8  9  1  0
  9 11  1  0
  9 10  1  1
 11 13  1  0
 11 12  1  6
 13 14  2  0
 16 18  1  0
 16 15  1  6
 17 16  1  0
 18 20  1  0
 19 13  1  0
 18 19  1  1
 20 22  1  0
 21 20  2  0
M  END
$$$$
