CIT.pdb
     RDKit          3D

 22 21  0  0  1  0  0  0  0  0999 V2000
   19.6885  -13.6562  -18.3954 N   0  0  0  0  0  0  0  0  0  0  0  0
   20.3307  -12.4030  -18.6644 C   0  0  1  0  0  0  0  0  0  0  0  0
   19.7883  -11.8370  -19.9495 C   0  0  0  0  0  0  0  0  0  0  0  0
   20.3338  -12.9110  -21.3075 S   0  0  0  0  0  0  0  0  0  0  0  0
   20.1102  -11.4699  -17.5366 C   0  0  0  0  0  0  0  0  0  0  0  0
   18.9986  -11.4035  -16.9781 O   0  0  0  0  0  0  0  0  0  0  0  0
   23.6176  -11.3200  -13.7670 C   0  0  0  0  0  0  0  0  0  0  0  0
   22.3781  -11.1719  -14.5900 C   0  0  0  0  0  0  0  0  0  0  0  0
   22.2761   -9.7450  -15.1224 C   0  0  2  0  0  0  0  0  0  0  0  0
   22.1334   -8.8381  -13.9202 C   0  0  0  0  0  0  0  0  0  0  0  0
   21.0279   -9.7025  -15.9842 C   0  0  2  0  0  0  0  0  0  0  0  0
   21.1496  -10.6382  -17.0705 N   0  0  0  0  0  0  0  0  0  0  0  0
   20.7014   -8.3369  -16.4406 C   0  0  0  0  0  0  0  0  0  0  0  0
   21.5413   -7.7153  -17.1405 O   0  0  0  0  0  0  0  0  0  0  0  0
   17.3272   -4.6974  -17.0502 C   0  0  0  0  0  0  0  0  0  0  0  0
   17.6687   -6.0841  -16.5544 C   0  0  1  0  0  0  0  0  0  0  0  0
   17.0275   -6.9990  -17.3729 O   0  0  0  0  0  0  0  0  0  0  0  0
   19.1614   -6.3486  -16.5866 C   0  0  2  0  0  0  0  0  0  0  0  0
   19.4862   -7.6766  -16.1347 N   0  0  0  0  0  0  0  0  0  0  0  0
   19.8069   -5.3301  -15.7348 C   0  0  0  0  0  0  0  0  0  0  0  0
   19.7722   -5.4608  -14.4934 O   0  0  0  0  0  0  0  0  0  0  0  0
   20.4483   -4.2363  -16.2754 O   0  0  0  0  0  0  0  0  0  0  0  0
  2  1  1  1
  2  5  1  0
  3  2  1  0
  4  3  1  0
  5 12  1  0
  5  6  2  0
  7  8  1  0
  8  9  1  0
  9 11  1  0
  9 10  1  1
 11 13  1  0
 11 12  1  6
 13 14  2  0
 16 18  1  0
 16 15  1  6
 17 16  1  0
 18 20  1  0
 19 13  1  0
 18 19  1  1
 20 22  1  0
 21 20  2  0
M  END
$$$$
