CIT.pdb
     RDKit          3D

 22 21  0  0  1  0  0  0  0  0999 V2000
   28.7878  -21.3524  -15.2150 N   0  0  0  0  0  0  0  0  0  0  0  0
   28.0610  -20.3775  -14.4555 C   0  0  1  0  0  0  0  0  0  0  0  0
   27.5498  -19.3096  -15.3851 C   0  0  0  0  0  0  0  0  0  0  0  0
   28.8255  -18.0249  -15.5162 S   0  0  0  0  0  0  0  0  0  0  0  0
   26.9477  -21.0296  -13.7300 C   0  0  0  0  0  0  0  0  0  0  0  0
   26.3810  -22.0307  -14.2080 O   0  0  0  0  0  0  0  0  0  0  0  0
   26.7299  -20.5573   -8.3491 C   0  0  0  0  0  0  0  0  0  0  0  0
   26.5523  -21.0953   -9.7327 C   0  0  0  0  0  0  0  0  0  0  0  0
   25.3168  -20.4723  -10.3772 C   0  0  2  0  0  0  0  0  0  0  0  0
   24.1166  -20.9968   -9.6206 C   0  0  0  0  0  0  0  0  0  0  0  0
   25.3020  -20.9526  -11.8165 C   0  0  2  0  0  0  0  0  0  0  0  0
   26.5051  -20.5344  -12.4858 N   0  0  0  0  0  0  0  0  0  0  0  0
   24.0780  -20.5473  -12.5358 C   0  0  0  0  0  0  0  0  0  0  0  0
   23.8553  -19.3217  -12.7093 O   0  0  0  0  0  0  0  0  0  0  0  0
   22.9023  -21.7512  -16.0521 C   0  0  0  0  0  0  0  0  0  0  0  0
   21.7903  -21.9460  -15.0466 C   0  0  1  0  0  0  0  0  0  0  0  0
   21.7896  -23.2774  -14.6652 O   0  0  0  0  0  0  0  0  0  0  0  0
   21.9751  -21.0769  -13.8180 C   0  0  2  0  0  0  0  0  0  0  0  0
   23.1285  -21.4650  -13.0483 N   0  0  0  0  0  0  0  0  0  0  0  0
   20.7431  -21.1870  -13.0121 C   0  0  0  0  0  0  0  0  0  0  0  0
   20.7737  -21.8119  -11.9315 O   0  0  0  0  0  0  0  0  0  0  0  0
   19.5572  -20.6166  -13.4225 O   0  0  0  0  0  0  0  0  0  0  0  0
  2  1  1  6
  2  5  1  0
  3  2  1  0
  4  3  1  0
  5 12  1  0
  5  6  2  0
  7  8  1  0
  8  9  1  0
  9 11  1  0
  9 10  1  1
 11 13  1  0
 11 12  1  6
 13 14  2  0
 16 18  1  0
 16 15  1  6
 17 16  1  0
 18 20  1  0
 19 13  1  0
 18 19  1  1
 20 22  1  0
 21 20  2  0
M  END
$$$$
