TFS.pdb
     RDKit          3D

 25 25  0  0  1  0  0  0  0  0999 V2000
    7.7361  -20.2281   17.0619 C   0  0  0  0  0  0  0  0  0  0  0  0
    8.5826  -19.5350   18.0784 C   0  0  1  0  0  0  0  0  0  0  0  0
    9.8430  -20.1216   18.0638 O   0  0  0  0  0  0  0  0  0  0  0  0
    8.6769  -18.0497   17.8937 C   0  0  2  0  0  0  0  0  0  0  0  0
    9.2916  -17.7037   16.6484 N   0  0  0  0  0  0  0  0  0  0  0  0
    9.3380  -17.4164   19.0536 C   0  0  0  0  0  0  0  0  0  0  0  0
   10.4827  -16.9052   18.8851 O   0  0  0  0  0  0  0  0  0  0  0  0
    8.7595  -17.3490   20.3500 N   0  0  0  0  0  0  0  0  0  0  0  0
    9.3943  -16.6832   21.4738 C   0  0  1  0  0  0  0  0  0  0  0  0
    8.3746  -15.8033   22.1449 C   0  0  0  0  0  0  0  0  0  0  0  0
    7.9691  -14.6431   21.3475 C   0  0  0  0  0  0  0  0  0  0  0  0
    6.7518  -14.5688   20.7029 C   0  0  0  0  0  0  0  0  0  0  0  0
    6.3859  -13.4644   19.9533 C   0  0  0  0  0  0  0  0  0  0  0  0
    7.2290  -12.3858   19.8194 C   0  0  0  0  0  0  0  0  0  0  0  0
    8.4492  -12.4431   20.4566 C   0  0  0  0  0  0  0  0  0  0  0  0
    8.8073  -13.5588   21.2081 C   0  0  0  0  0  0  0  0  0  0  0  0
   10.0173  -17.6803   22.3443 C   0  0  0  0  0  0  0  0  0  0  0  0
    9.3098  -18.5938   22.8941 O   0  0  0  0  0  0  0  0  0  0  0  0
   13.9489  -17.8416   22.6453 O   0  0  0  0  0  0  0  0  0  0  0  0
   13.3451  -19.0882   22.8393 C   0  0  0  0  0  0  0  0  0  0  0  0
   11.9795  -18.7964   23.4827 C   0  0  2  0  0  0  0  0  0  0  0  0
   11.4020  -17.7308   22.6499 N   0  0  0  0  0  0  0  0  0  0  0  0
   12.1366  -18.3794   24.8736 C   0  0  0  0  0  0  0  0  0  0  0  0
   11.7385  -17.1177   25.2657 O   0  0  0  0  0  0  0  0  0  0  0  0
   12.6281  -19.1416   25.7336 O   0  0  0  0  0  0  0  0  0  0  0  0
  2  1  1  6
  3  2  1  0
  4  5  1  6
  4  2  1  0
  4  6  1  0
  6  7  2  0
  8  6  1  0
  8  9  1  0
  9 17  1  0
 10 11  1  0
  9 10  1  1
 11 12  2  0
 11 16  1  0
 12 13  1  0
 13 14  2  0
 15 14  1  0
 16 15  2  0
 17 18  2  0
 19 20  1  0
 21 20  1  6
 21 23  1  0
 22 17  1  0
 22 21  1  0
 23 25  2  0
 23 24  1  0
M  END
$$$$
