TFS.pdb
     RDKit          3D

 25 25  0  0  1  0  0  0  0  0999 V2000
    7.7775  -18.7787   18.5172 C   0  0  0  0  0  0  0  0  0  0  0  0
    8.2012  -18.0451   19.7471 C   0  0  1  0  0  0  0  0  0  0  0  0
    9.1323  -18.8291   20.4188 O   0  0  0  0  0  0  0  0  0  0  0  0
    8.7398  -16.6692   19.4902 C   0  0  2  0  0  0  0  0  0  0  0  0
    9.8829  -16.6946   18.6295 N   0  0  0  0  0  0  0  0  0  0  0  0
    8.9956  -15.9588   20.7605 C   0  0  0  0  0  0  0  0  0  0  0  0
   10.1876  -15.8883   21.1776 O   0  0  0  0  0  0  0  0  0  0  0  0
    7.9763  -15.3495   21.5413 N   0  0  0  0  0  0  0  0  0  0  0  0
    8.2202  -14.7394   22.8364 C   0  0  1  0  0  0  0  0  0  0  0  0
    7.0192  -13.9124   23.2078 C   0  0  0  0  0  0  0  0  0  0  0  0
    7.0595  -13.3793   24.5719 C   0  0  0  0  0  0  0  0  0  0  0  0
    7.8964  -12.3486   24.9463 C   0  0  0  0  0  0  0  0  0  0  0  0
    7.9210  -11.8581   26.2402 C   0  0  0  0  0  0  0  0  0  0  0  0
    7.1044  -12.3833   27.2146 C   0  0  0  0  0  0  0  0  0  0  0  0
    6.2619  -13.4136   26.8581 C   0  0  0  0  0  0  0  0  0  0  0  0
    6.2452  -13.8994   25.5538 C   0  0  0  0  0  0  0  0  0  0  0  0
    8.5793  -15.7754   23.8048 C   0  0  0  0  0  0  0  0  0  0  0  0
    7.8444  -16.8132   23.9468 O   0  0  0  0  0  0  0  0  0  0  0  0
   11.9660  -18.2599   25.8586 O   0  0  0  0  0  0  0  0  0  0  0  0
   11.5871  -17.1294   25.1274 C   0  0  0  0  0  0  0  0  0  0  0  0
   10.1147  -16.8718   25.4877 C   0  0  2  0  0  0  0  0  0  0  0  0
    9.7241  -15.7338   24.6423 N   0  0  0  0  0  0  0  0  0  0  0  0
    9.9704  -16.5720   26.9099 C   0  0  0  0  0  0  0  0  0  0  0  0
   10.1903  -17.5584   27.8495 O   0  0  0  0  0  0  0  0  0  0  0  0
    9.6490  -15.4322   27.3089 O   0  0  0  0  0  0  0  0  0  0  0  0
  2  1  1  6
  3  2  1  0
  4  5  1  1
  4  2  1  0
  4  6  1  0
  6  7  2  0
  8  6  1  0
  8  9  1  0
  9 17  1  0
 10 11  1  0
  9 10  1  1
 11 12  2  0
 11 16  1  0
 12 13  1  0
 13 14  2  0
 15 14  1  0
 16 15  2  0
 17 18  2  0
 19 20  1  0
 21 20  1  1
 21 23  1  0
 22 17  1  0
 22 21  1  0
 23 25  2  0
 23 24  1  0
M  END
$$$$
