TFS.pdb
     RDKit          3D

 25 25  0  0  1  0  0  0  0  0999 V2000
    8.7860  -19.0001   19.0876 C   0  0  0  0  0  0  0  0  0  0  0  0
    9.0196  -18.2140   20.3357 C   0  0  1  0  0  0  0  0  0  0  0  0
    9.9686  -18.8854   21.0981 O   0  0  0  0  0  0  0  0  0  0  0  0
    9.4259  -16.7896   20.1009 C   0  0  2  0  0  0  0  0  0  0  0  0
   10.6087  -16.6959   19.3006 N   0  0  0  0  0  0  0  0  0  0  0  0
    9.5407  -16.0578   21.3796 C   0  0  0  0  0  0  0  0  0  0  0  0
   10.6904  -15.9171   21.8879 O   0  0  0  0  0  0  0  0  0  0  0  0
    8.4306  -15.5023   22.0716 N   0  0  0  0  0  0  0  0  0  0  0  0
    8.5375  -14.8697   23.3745 C   0  0  1  0  0  0  0  0  0  0  0  0
    7.3721  -13.9337   23.5473 C   0  0  0  0  0  0  0  0  0  0  0  0
    7.3087  -13.2952   24.8645 C   0  0  0  0  0  0  0  0  0  0  0  0
    6.4450  -13.7127   25.8558 C   0  0  0  0  0  0  0  0  0  0  0  0
    6.3987  -13.0969   27.0943 C   0  0  0  0  0  0  0  0  0  0  0  0
    7.2198  -12.0336   27.3900 C   0  0  0  0  0  0  0  0  0  0  0  0
    8.0889  -11.6033   26.4114 C   0  0  0  0  0  0  0  0  0  0  0  0
    8.1272  -12.2299   25.1690 C   0  0  0  0  0  0  0  0  0  0  0  0
    8.6619  -15.8975   24.4081 C   0  0  0  0  0  0  0  0  0  0  0  0
    7.7598  -16.7950   24.5421 O   0  0  0  0  0  0  0  0  0  0  0  0
   11.9694  -17.1038   25.3358 O   0  0  0  0  0  0  0  0  0  0  0  0
   10.9742  -17.9769   25.7870 C   0  0  0  0  0  0  0  0  0  0  0  0
    9.8369  -17.0825   26.3073 C   0  0  2  0  0  0  0  0  0  0  0  0
    9.7442  -15.9962   25.3205 N   0  0  0  0  0  0  0  0  0  0  0  0
   10.1379  -16.5817   27.6459 C   0  0  0  0  0  0  0  0  0  0  0  0
   10.3350  -17.4666   28.6862 O   0  0  0  0  0  0  0  0  0  0  0  0
   10.2239  -15.3576   27.8825 O   0  0  0  0  0  0  0  0  0  0  0  0
  2  1  1  6
  3  2  1  0
  4  5  1  1
  4  2  1  0
  4  6  1  0
  6  7  2  0
  8  6  1  0
  8  9  1  0
  9 17  1  0
 10 11  1  0
  9 10  1  1
 11 12  2  0
 11 16  1  0
 12 13  1  0
 13 14  2  0
 15 14  1  0
 16 15  2  0
 17 18  2  0
 19 20  1  0
 21 20  1  6
 21 23  1  0
 22 17  1  0
 22 21  1  0
 23 25  2  0
 23 24  1  0
M  END
$$$$
