TFS.pdb
     RDKit          3D

 25 25  0  0  1  0  0  0  0  0999 V2000
    8.4068  -18.8645   21.3646 C   0  0  0  0  0  0  0  0  0  0  0  0
    9.4298  -18.3735   20.3937 C   0  0  1  0  0  0  0  0  0  0  0  0
    9.3020  -19.1101   19.2216 O   0  0  0  0  0  0  0  0  0  0  0  0
    9.3603  -16.9013   20.1158 C   0  0  2  0  0  0  0  0  0  0  0  0
   10.2878  -16.5044   19.1007 N   0  0  0  0  0  0  0  0  0  0  0  0
    9.5093  -16.1230   21.3630 C   0  0  0  0  0  0  0  0  0  0  0  0
   10.6627  -16.0231   21.8724 O   0  0  0  0  0  0  0  0  0  0  0  0
    8.4280  -15.4793   22.0237 N   0  0  0  0  0  0  0  0  0  0  0  0
    8.5463  -14.8621   23.3329 C   0  0  1  0  0  0  0  0  0  0  0  0
    7.4128  -13.8875   23.5050 C   0  0  0  0  0  0  0  0  0  0  0  0
    7.2959  -13.3399   24.8588 C   0  0  0  0  0  0  0  0  0  0  0  0
    6.3529  -13.7812   25.7639 C   0  0  0  0  0  0  0  0  0  0  0  0
    6.2570  -13.2515   27.0389 C   0  0  0  0  0  0  0  0  0  0  0  0
    7.1060  -12.2543   27.4594 C   0  0  0  0  0  0  0  0  0  0  0  0
    8.0541  -11.8014   26.5683 C   0  0  0  0  0  0  0  0  0  0  0  0
    8.1419  -12.3411   25.2882 C   0  0  0  0  0  0  0  0  0  0  0  0
    8.6265  -15.9025   24.3583 C   0  0  0  0  0  0  0  0  0  0  0  0
    7.6830  -16.7567   24.4906 O   0  0  0  0  0  0  0  0  0  0  0  0
   11.8617  -17.5382   25.4752 O   0  0  0  0  0  0  0  0  0  0  0  0
   10.6532  -18.1867   25.7493 C   0  0  0  0  0  0  0  0  0  0  0  0
    9.7120  -17.1030   26.3005 C   0  0  2  0  0  0  0  0  0  0  0  0
    9.7074  -16.0598   25.2640 N   0  0  0  0  0  0  0  0  0  0  0  0
   10.1931  -16.5976   27.5835 C   0  0  0  0  0  0  0  0  0  0  0  0
   10.3536  -17.4595   28.6491 O   0  0  0  0  0  0  0  0  0  0  0  0
   10.4684  -15.3899   27.7494 O   0  0  0  0  0  0  0  0  0  0  0  0
  2  1  1  1
  3  2  1  0
  4  5  1  6
  4  2  1  0
  4  6  1  0
  6  7  2  0
  8  6  1  0
  8  9  1  0
  9 17  1  0
 10 11  1  0
  9 10  1  1
 11 12  2  0
 11 16  1  0
 12 13  1  0
 13 14  2  0
 15 14  1  0
 16 15  2  0
 17 18  2  0
 19 20  1  0
 21 20  1  6
 21 23  1  0
 22 17  1  0
 22 21  1  0
 23 25  2  0
 23 24  1  0
M  END
$$$$
