TFS.pdb
     RDKit          3D

 25 25  0  0  1  0  0  0  0  0999 V2000
    6.9572  -14.7342   17.9975 C   0  0  0  0  0  0  0  0  0  0  0  0
    7.6620  -14.8671   19.3074 C   0  0  1  0  0  0  0  0  0  0  0  0
    8.9449  -15.3431   19.0616 O   0  0  0  0  0  0  0  0  0  0  0  0
    7.7008  -13.6058   20.1180 C   0  0  2  0  0  0  0  0  0  0  0  0
    8.3280  -12.5331   19.4081 N   0  0  0  0  0  0  0  0  0  0  0  0
    8.3106  -13.8499   21.4417 C   0  0  0  0  0  0  0  0  0  0  0  0
    9.5288  -13.5510   21.6040 O   0  0  0  0  0  0  0  0  0  0  0  0
    7.6045  -14.4025   22.5444 N   0  0  0  0  0  0  0  0  0  0  0  0
    8.2290  -14.7096   23.8191 C   0  0  1  0  0  0  0  0  0  0  0  0
    7.1556  -14.7804   24.8713 C   0  0  0  0  0  0  0  0  0  0  0  0
    6.9746  -13.5370   25.6248 C   0  0  0  0  0  0  0  0  0  0  0  0
    8.0000  -12.6405   25.8435 C   0  0  0  0  0  0  0  0  0  0  0  0
    7.8104  -11.4707   26.5583 C   0  0  0  0  0  0  0  0  0  0  0  0
    6.5804  -11.1514   27.0847 C   0  0  0  0  0  0  0  0  0  0  0  0
    5.5447  -12.0356   26.8759 C   0  0  0  0  0  0  0  0  0  0  0  0
    5.7463  -13.2095   26.1554 C   0  0  0  0  0  0  0  0  0  0  0  0
    9.0431  -15.9178   23.6860 C   0  0  0  0  0  0  0  0  0  0  0  0
    8.5605  -16.9677   23.1364 O   0  0  0  0  0  0  0  0  0  0  0  0
   13.3925  -17.9486   23.6940 O   0  0  0  0  0  0  0  0  0  0  0  0
   12.6145  -16.7901   23.7884 C   0  0  0  0  0  0  0  0  0  0  0  0
   11.1625  -17.2722   23.9417 C   0  0  2  0  0  0  0  0  0  0  0  0
   10.3848  -16.0387   24.1317 N   0  0  0  0  0  0  0  0  0  0  0  0
   11.0320  -18.1818   25.0769 C   0  0  0  0  0  0  0  0  0  0  0  0
   11.4578  -19.4897   24.9666 O   0  0  0  0  0  0  0  0  0  0  0  0
   10.5389  -17.8069   26.1624 O   0  0  0  0  0  0  0  0  0  0  0  0
  2  1  1  6
  3  2  1  0
  4  5  1  6
  4  2  1  0
  4  6  1  0
  6  7  2  0
  8  6  1  0
  8  9  1  0
  9 17  1  0
 10 11  1  0
  9 10  1  1
 11 12  2  0
 11 16  1  0
 12 13  1  0
 13 14  2  0
 15 14  1  0
 16 15  2  0
 17 18  2  0
 19 20  1  0
 21 20  1  1
 21 23  1  0
 22 17  1  0
 22 21  1  0
 23 25  2  0
 23 24  1  0
M  END
$$$$
