TFS.pdb
     RDKit          3D

 25 25  0  0  1  0  0  0  0  0999 V2000
    6.6304  -15.0752   18.7149 C   0  0  0  0  0  0  0  0  0  0  0  0
    7.4216  -15.1549   19.9790 C   0  0  1  0  0  0  0  0  0  0  0  0
    8.6856  -15.6429   19.6677 O   0  0  0  0  0  0  0  0  0  0  0  0
    7.5134  -13.8613   20.7322 C   0  0  2  0  0  0  0  0  0  0  0  0
    8.0572  -12.8109   19.9266 N   0  0  0  0  0  0  0  0  0  0  0  0
    8.2437  -14.0438   22.0038 C   0  0  0  0  0  0  0  0  0  0  0  0
    9.4241  -13.5967   22.0860 O   0  0  0  0  0  0  0  0  0  0  0  0
    7.6939  -14.6944   23.1416 N   0  0  0  0  0  0  0  0  0  0  0  0
    8.4389  -14.9254   24.3666 C   0  0  1  0  0  0  0  0  0  0  0  0
    7.4753  -14.9043   25.5221 C   0  0  0  0  0  0  0  0  0  0  0  0
    7.0529  -13.5601   25.9235 C   0  0  0  0  0  0  0  0  0  0  0  0
    5.7441  -13.1324   25.8388 C   0  0  0  0  0  0  0  0  0  0  0  0
    5.3635  -11.8583   26.2224 C   0  0  0  0  0  0  0  0  0  0  0  0
    6.2833  -10.9582   26.7082 C   0  0  0  0  0  0  0  0  0  0  0  0
    7.5953  -11.3687   26.7996 C   0  0  0  0  0  0  0  0  0  0  0  0
    7.9673  -12.6525   26.4110 C   0  0  0  0  0  0  0  0  0  0  0  0
    9.2216  -16.1547   24.2382 C   0  0  0  0  0  0  0  0  0  0  0  0
    8.6375  -17.2909   24.1674 O   0  0  0  0  0  0  0  0  0  0  0  0
   13.1625  -15.9665   24.1219 O   0  0  0  0  0  0  0  0  0  0  0  0
   12.7157  -17.1267   23.4810 C   0  0  0  0  0  0  0  0  0  0  0  0
   11.3728  -17.4792   24.1416 C   0  0  2  0  0  0  0  0  0  0  0  0
   10.6385  -16.2058   24.1817 N   0  0  0  0  0  0  0  0  0  0  0  0
   11.5782  -18.0348   25.4767 C   0  0  0  0  0  0  0  0  0  0  0  0
   12.3076  -19.1951   25.6373 O   0  0  0  0  0  0  0  0  0  0  0  0
   11.1065  -17.4837   26.4944 O   0  0  0  0  0  0  0  0  0  0  0  0
  2  1  1  6
  3  2  1  0
  4  5  1  6
  4  2  1  0
  4  6  1  0
  6  7  2  0
  8  6  1  0
  8  9  1  0
  9 17  1  0
 10 11  1  0
  9 10  1  1
 11 12  2  0
 11 16  1  0
 12 13  1  0
 13 14  2  0
 15 14  1  0
 16 15  2  0
 17 18  2  0
 19 20  1  0
 21 20  1  1
 21 23  1  0
 22 17  1  0
 22 21  1  0
 23 25  2  0
 23 24  1  0
M  END
$$$$
