TFS.pdb
     RDKit          3D

 25 25  0  0  1  0  0  0  0  0999 V2000
    8.7128  -20.1636   23.8006 C   0  0  0  0  0  0  0  0  0  0  0  0
    9.1900  -19.8997   22.4104 C   0  0  1  0  0  0  0  0  0  0  0  0
    8.9956  -21.0540   21.6603 O   0  0  0  0  0  0  0  0  0  0  0  0
    8.5486  -18.7145   21.7522 C   0  0  2  0  0  0  0  0  0  0  0  0
    8.9427  -18.5852   20.3825 N   0  0  0  0  0  0  0  0  0  0  0  0
    8.7883  -17.4845   22.5353 C   0  0  0  0  0  0  0  0  0  0  0  0
    9.9186  -16.9248   22.4403 O   0  0  0  0  0  0  0  0  0  0  0  0
    7.8190  -16.8938   23.3906 N   0  0  0  0  0  0  0  0  0  0  0  0
    8.0938  -15.7443   24.2345 C   0  0  1  0  0  0  0  0  0  0  0  0
    6.8412  -14.9167   24.3361 C   0  0  0  0  0  0  0  0  0  0  0  0
    6.9433  -13.7900   25.2669 C   0  0  0  0  0  0  0  0  0  0  0  0
    7.8117  -12.7361   25.0712 C   0  0  0  0  0  0  0  0  0  0  0  0
    7.8947  -11.6801   25.9619 C   0  0  0  0  0  0  0  0  0  0  0  0
    7.1074  -11.6380   27.0890 C   0  0  0  0  0  0  0  0  0  0  0  0
    6.2342  -12.6826   27.3004 C   0  0  0  0  0  0  0  0  0  0  0  0
    6.1587  -13.7398   26.3981 C   0  0  0  0  0  0  0  0  0  0  0  0
    8.6397  -16.1969   25.5141 C   0  0  0  0  0  0  0  0  0  0  0  0
    7.9424  -16.9362   26.2915 O   0  0  0  0  0  0  0  0  0  0  0  0
   12.4385  -15.9206   26.0950 O   0  0  0  0  0  0  0  0  0  0  0  0
   11.8742  -16.9330   26.8778 C   0  0  0  0  0  0  0  0  0  0  0  0
   10.4649  -16.4410   27.2464 C   0  0  2  0  0  0  0  0  0  0  0  0
    9.9352  -15.8762   25.9963 N   0  0  0  0  0  0  0  0  0  0  0  0
   10.5223  -15.4470   28.3150 C   0  0  0  0  0  0  0  0  0  0  0  0
   10.9675  -15.8075   29.5704 O   0  0  0  0  0  0  0  0  0  0  0  0
   10.1754  -14.2615   28.1252 O   0  0  0  0  0  0  0  0  0  0  0  0
  2  1  1  1
  3  2  1  0
  4  5  1  6
  4  2  1  0
  4  6  1  0
  6  7  2  0
  8  6  1  0
  8  9  1  0
  9 17  1  0
 10 11  1  0
  9 10  1  1
 11 12  2  0
 11 16  1  0
 12 13  1  0
 13 14  2  0
 15 14  1  0
 16 15  2  0
 17 18  2  0
 19 20  1  0
 21 20  1  6
 21 23  1  0
 22 17  1  0
 22 21  1  0
 23 25  2  0
 23 24  1  0
M  END
$$$$
