EYS.pdb
     RDKit          3D

 28 28  0  0  1  0  0  0  0  0999 V2000
    9.2289  -15.2596   19.4359 N   0  0  0  0  0  0  0  0  0  0  0  0
    8.7677  -16.1815   20.4850 C   0  0  1  0  0  0  0  0  0  0  0  0
    9.1210  -17.5639   19.9991 C   0  0  0  0  0  0  0  0  0  0  0  0
    8.0984  -18.1550   19.0586 C   0  0  0  0  0  0  0  0  0  0  0  0
    8.4289  -19.5289   18.6265 C   0  0  0  0  0  0  0  0  0  0  0  0
    8.7705  -19.7509   17.4273 O   0  0  0  0  0  0  0  0  0  0  0  0
    9.4494  -15.8325   21.7621 C   0  0  0  0  0  0  0  0  0  0  0  0
   10.6259  -15.3761   21.6772 O   0  0  0  0  0  0  0  0  0  0  0  0
    8.3823  -20.6186   19.4850 O   0  0  0  0  0  0  0  0  0  0  0  0
   10.8472  -14.5597   30.5204 O   0  0  0  0  0  0  0  0  0  0  0  0
   10.3238  -14.7343   29.2449 C   0  0  0  0  0  0  0  0  0  0  0  0
    9.8172  -15.9272   28.7875 C   0  0  0  0  0  0  0  0  0  0  0  0
    9.3024  -16.0832   27.5193 C   0  0  0  0  0  0  0  0  0  0  0  0
    9.2717  -15.0120   26.6214 C   0  0  0  0  0  0  0  0  0  0  0  0
    8.7018  -15.0942   25.2726 C   0  0  0  0  0  0  0  0  0  0  0  0
    9.5072  -15.7621   24.2279 C   0  0  2  0  0  0  0  0  0  0  0  0
    8.7847  -16.0125   23.0049 N   0  0  0  0  0  0  0  0  0  0  0  0
   10.2399  -16.9649   24.6406 C   0  0  0  0  0  0  0  0  0  0  0  0
    9.5960  -18.0736   24.6548 O   0  0  0  0  0  0  0  0  0  0  0  0
    9.7840  -13.8213   27.0976 C   0  0  0  0  0  0  0  0  0  0  0  0
   10.2996  -13.6641   28.3672 C   0  0  0  0  0  0  0  0  0  0  0  0
   13.4373  -18.0399   23.3287 O   0  0  0  0  0  0  0  0  0  0  0  0
   13.5357  -18.3824   24.6859 C   0  0  0  0  0  0  0  0  0  0  0  0
   12.1958  -18.2757   25.3634 C   0  0  2  0  0  0  0  0  0  0  0  0
   11.6081  -17.0070   25.0230 N   0  0  0  0  0  0  0  0  0  0  0  0
   12.4059  -18.3408   26.8366 C   0  0  0  0  0  0  0  0  0  0  0  0
   12.0008  -17.4000   27.5616 O   0  0  0  0  0  0  0  0  0  0  0  0
   13.0411  -19.4108   27.4742 O   0  0  0  0  0  0  0  0  0  0  0  0
  2  1  1  6
  2  3  1  0
  3  4  1  0
  5  6  2  0
  5  4  1  0
  7  8  2  0
  7  2  1  0
  9  5  1  0
 10 11  1  0
 11 12  2  0
 12 13  1  0
 14 13  2  0
 14 15  1  0
 16 15  1  1
 16 17  1  0
 17  7  1  0
 18 19  2  0
 18 16  1  0
 20 14  1  0
 21 11  1  0
 21 20  2  0
 23 22  1  0
 24 25  1  0
 24 23  1  6
 25 18  1  0
 26 24  1  0
 27 26  2  0
 28 26  1  0
M  END
$$$$
