EYS.pdb
     RDKit          3D

 28 28  0  0  1  0  0  0  0  0999 V2000
   10.5270  -17.8398   17.8067 N   0  0  0  0  0  0  0  0  0  0  0  0
    9.7624  -18.2797   18.9836 C   0  0  1  0  0  0  0  0  0  0  0  0
   10.0339  -19.7562   19.1194 C   0  0  0  0  0  0  0  0  0  0  0  0
   11.4675  -20.1368   18.8373 C   0  0  0  0  0  0  0  0  0  0  0  0
   11.7306  -21.5815   19.0024 C   0  0  0  0  0  0  0  0  0  0  0  0
   12.6792  -21.9718   19.7454 O   0  0  0  0  0  0  0  0  0  0  0  0
   10.2194  -17.5028   20.1689 C   0  0  0  0  0  0  0  0  0  0  0  0
   11.3624  -16.9663   20.0961 O   0  0  0  0  0  0  0  0  0  0  0  0
   10.9766  -22.5600   18.3695 O   0  0  0  0  0  0  0  0  0  0  0  0
    7.5774  -11.8829   18.4490 O   0  0  0  0  0  0  0  0  0  0  0  0
    7.9584  -12.7342   19.4793 C   0  0  0  0  0  0  0  0  0  0  0  0
    9.2226  -12.7580   20.0180 C   0  0  0  0  0  0  0  0  0  0  0  0
    9.5838  -13.6091   21.0392 C   0  0  0  0  0  0  0  0  0  0  0  0
    8.6606  -14.5060   21.5850 C   0  0  0  0  0  0  0  0  0  0  0  0
    8.9627  -15.4105   22.6993 C   0  0  0  0  0  0  0  0  0  0  0  0
    9.8335  -16.5727   22.4217 C   0  0  2  0  0  0  0  0  0  0  0  0
    9.3885  -17.3844   21.3154 N   0  0  0  0  0  0  0  0  0  0  0  0
   10.1725  -17.4211   23.5703 C   0  0  0  0  0  0  0  0  0  0  0  0
    9.3406  -18.3426   23.8906 O   0  0  0  0  0  0  0  0  0  0  0  0
    7.3956  -14.4681   21.0325 C   0  0  0  0  0  0  0  0  0  0  0  0
    7.0330  -13.6163   20.0100 C   0  0  0  0  0  0  0  0  0  0  0  0
   13.2753  -19.3066   24.1243 O   0  0  0  0  0  0  0  0  0  0  0  0
   12.9899  -18.7281   25.3705 C   0  0  0  0  0  0  0  0  0  0  0  0
   11.5628  -18.2526   25.4255 C   0  0  2  0  0  0  0  0  0  0  0  0
   11.3503  -17.3110   24.3581 N   0  0  0  0  0  0  0  0  0  0  0  0
   11.3426  -17.5723   26.7323 C   0  0  0  0  0  0  0  0  0  0  0  0
   10.9931  -16.3671   26.7514 O   0  0  0  0  0  0  0  0  0  0  0  0
   11.5054  -18.2100   27.9659 O   0  0  0  0  0  0  0  0  0  0  0  0
  2  1  1  6
  2  3  1  0
  3  4  1  0
  5  6  2  0
  5  4  1  0
  7  8  2  0
  7  2  1  0
  9  5  1  0
 10 11  1  0
 11 12  2  0
 12 13  1  0
 14 13  2  0
 14 15  1  0
 16 15  1  1
 16 17  1  0
 17  7  1  0
 18 19  2  0
 18 16  1  0
 20 14  1  0
 21 11  1  0
 21 20  2  0
 23 22  1  0
 24 25  1  0
 24 23  1  1
 25 18  1  0
 26 24  1  0
 27 26  2  0
 28 26  1  0
M  END
$$$$
