EYS.pdb
     RDKit          3D

 28 28  0  0  1  0  0  0  0  0999 V2000
    9.9215  -16.4076   18.4249 N   0  0  0  0  0  0  0  0  0  0  0  0
    9.1988  -17.1499   19.4689 C   0  0  1  0  0  0  0  0  0  0  0  0
    9.8640  -18.5004   19.5457 C   0  0  0  0  0  0  0  0  0  0  0  0
    9.2976  -19.3941   20.6228 C   0  0  0  0  0  0  0  0  0  0  0  0
    9.9202  -20.7338   20.6560 C   0  0  0  0  0  0  0  0  0  0  0  0
    9.4672  -21.6612   19.9218 O   0  0  0  0  0  0  0  0  0  0  0  0
    9.2935  -16.3922   20.7473 C   0  0  0  0  0  0  0  0  0  0  0  0
   10.4445  -16.0022   21.0981 O   0  0  0  0  0  0  0  0  0  0  0  0
   11.0014  -21.0404   21.4706 O   0  0  0  0  0  0  0  0  0  0  0  0
    6.8816  -11.8539   28.0189 O   0  0  0  0  0  0  0  0  0  0  0  0
    6.9328  -12.4580   26.7684 C   0  0  0  0  0  0  0  0  0  0  0  0
    7.4804  -11.8620   25.6577 C   0  0  0  0  0  0  0  0  0  0  0  0
    7.5224  -12.4751   24.4248 C   0  0  0  0  0  0  0  0  0  0  0  0
    6.9985  -13.7588   24.2445 C   0  0  0  0  0  0  0  0  0  0  0  0
    7.0458  -14.4879   22.9728 C   0  0  0  0  0  0  0  0  0  0  0  0
    8.2396  -15.3170   22.7023 C   0  0  2  0  0  0  0  0  0  0  0  0
    8.1282  -16.1318   21.5173 N   0  0  0  0  0  0  0  0  0  0  0  0
    8.7437  -16.1179   23.8242 C   0  0  0  0  0  0  0  0  0  0  0  0
    8.2147  -17.2707   24.0122 O   0  0  0  0  0  0  0  0  0  0  0  0
    6.4530  -14.3427   25.3707 C   0  0  0  0  0  0  0  0  0  0  0  0
    6.4105  -13.7296   26.6055 C   0  0  0  0  0  0  0  0  0  0  0  0
   12.0107  -17.2823   24.2467 O   0  0  0  0  0  0  0  0  0  0  0  0
   11.7059  -16.8660   25.5517 C   0  0  0  0  0  0  0  0  0  0  0  0
   10.2235  -16.6628   25.7161 C   0  0  2  0  0  0  0  0  0  0  0  0
    9.7746  -15.7257   24.7205 N   0  0  0  0  0  0  0  0  0  0  0  0
    9.9725  -16.0982   27.0714 C   0  0  0  0  0  0  0  0  0  0  0  0
    9.4073  -14.9832   27.1823 O   0  0  0  0  0  0  0  0  0  0  0  0
   10.3367  -16.7503   28.2534 O   0  0  0  0  0  0  0  0  0  0  0  0
  2  1  1  6
  2  3  1  0
  3  4  1  0
  5  6  2  0
  5  4  1  0
  7  8  2  0
  7  2  1  0
  9  5  1  0
 10 11  1  0
 11 12  2  0
 12 13  1  0
 14 13  2  0
 14 15  1  0
 16 15  1  1
 16 17  1  0
 17  7  1  0
 18 19  2  0
 18 16  1  0
 20 14  1  0
 21 11  1  0
 21 20  2  0
 23 22  1  0
 24 25  1  0
 24 23  1  6
 25 18  1  0
 26 24  1  0
 27 26  2  0
 28 26  1  0
M  END
$$$$
