EYS.pdb
     RDKit          3D

 28 28  0  0  1  0  0  0  0  0999 V2000
    9.9117  -16.4058   18.8063 N   0  0  0  0  0  0  0  0  0  0  0  0
    9.3374  -17.2647   19.8530 C   0  0  1  0  0  0  0  0  0  0  0  0
   10.1750  -18.5179   19.8591 C   0  0  0  0  0  0  0  0  0  0  0  0
   10.2926  -19.1744   18.5046 C   0  0  0  0  0  0  0  0  0  0  0  0
   11.0115  -20.4648   18.5424 C   0  0  0  0  0  0  0  0  0  0  0  0
   10.3738  -21.5497   18.3994 O   0  0  0  0  0  0  0  0  0  0  0  0
    9.3881  -16.5365   21.1508 C   0  0  0  0  0  0  0  0  0  0  0  0
   10.4855  -16.5617   21.7792 O   0  0  0  0  0  0  0  0  0  0  0  0
   12.3834  -20.5558   18.7332 O   0  0  0  0  0  0  0  0  0  0  0  0
    6.7268  -11.8229   28.2883 O   0  0  0  0  0  0  0  0  0  0  0  0
    6.8280  -12.4411   27.0477 C   0  0  0  0  0  0  0  0  0  0  0  0
    6.1321  -13.5755   26.7043 C   0  0  0  0  0  0  0  0  0  0  0  0
    6.2447  -14.1761   25.4696 C   0  0  0  0  0  0  0  0  0  0  0  0
    7.0901  -13.6471   24.4897 C   0  0  0  0  0  0  0  0  0  0  0  0
    7.2281  -14.2087   23.1419 C   0  0  0  0  0  0  0  0  0  0  0  0
    8.3132  -15.1869   22.9149 C   0  0  2  0  0  0  0  0  0  0  0  0
    8.2420  -15.8515   21.6368 N   0  0  0  0  0  0  0  0  0  0  0  0
    8.5415  -16.1656   23.9846 C   0  0  0  0  0  0  0  0  0  0  0  0
    7.7031  -17.1296   24.0925 O   0  0  0  0  0  0  0  0  0  0  0  0
    7.7808  -12.5074   24.8515 C   0  0  0  0  0  0  0  0  0  0  0  0
    7.6687  -11.9053   26.0873 C   0  0  0  0  0  0  0  0  0  0  0  0
   11.9237  -17.5552   24.9781 O   0  0  0  0  0  0  0  0  0  0  0  0
   10.7420  -18.1984   25.3767 C   0  0  0  0  0  0  0  0  0  0  0  0
    9.7318  -17.2004   25.8762 C   0  0  2  0  0  0  0  0  0  0  0  0
    9.6186  -16.1386   24.9115 N   0  0  0  0  0  0  0  0  0  0  0  0
   10.2202  -16.6414   27.1676 C   0  0  0  0  0  0  0  0  0  0  0  0
   10.4395  -15.4096   27.2652 O   0  0  0  0  0  0  0  0  0  0  0  0
   10.4540  -17.4239   28.3025 O   0  0  0  0  0  0  0  0  0  0  0  0
  2  1  1  6
  2  3  1  0
  3  4  1  0
  5  6  2  0
  5  4  1  0
  7  8  2  0
  7  2  1  0
  9  5  1  0
 10 11  1  0
 11 12  2  0
 12 13  1  0
 14 13  2  0
 14 15  1  0
 16 15  1  1
 16 17  1  0
 17  7  1  0
 18 19  2  0
 18 16  1  0
 20 14  1  0
 21 11  1  0
 21 20  2  0
 23 22  1  0
 24 25  1  0
 24 23  1  6
 25 18  1  0
 26 24  1  0
 27 26  2  0
 28 26  1  0
M  END
$$$$
