EYS.pdb
     RDKit          3D

 28 28  0  0  1  0  0  0  0  0999 V2000
   10.2026  -16.9904   19.0322 N   0  0  0  0  0  0  0  0  0  0  0  0
    8.9361  -16.9767   19.7800 C   0  0  1  0  0  0  0  0  0  0  0  0
    8.6035  -18.4223   20.0478 C   0  0  0  0  0  0  0  0  0  0  0  0
    9.2971  -19.3861   19.1153 C   0  0  0  0  0  0  0  0  0  0  0  0
    8.9387  -20.7980   19.3638 C   0  0  0  0  0  0  0  0  0  0  0  0
    9.7878  -21.5866   19.8749 O   0  0  0  0  0  0  0  0  0  0  0  0
    9.1277  -16.1925   21.0313 C   0  0  0  0  0  0  0  0  0  0  0  0
   10.3127  -16.0737   21.4570 O   0  0  0  0  0  0  0  0  0  0  0  0
    7.6902  -21.3217   19.0578 O   0  0  0  0  0  0  0  0  0  0  0  0
    7.3661  -11.7175   28.5301 O   0  0  0  0  0  0  0  0  0  0  0  0
    7.3426  -12.2347   27.2404 C   0  0  0  0  0  0  0  0  0  0  0  0
    8.1599  -11.7914   26.2282 C   0  0  0  0  0  0  0  0  0  0  0  0
    8.1231  -12.3150   24.9546 C   0  0  0  0  0  0  0  0  0  0  0  0
    7.2334  -13.3428   24.6276 C   0  0  0  0  0  0  0  0  0  0  0  0
    7.1680  -13.9753   23.3060 C   0  0  0  0  0  0  0  0  0  0  0  0
    8.2161  -14.9610   22.9654 C   0  0  2  0  0  0  0  0  0  0  0  0
    8.0129  -15.6138   21.6954 N   0  0  0  0  0  0  0  0  0  0  0  0
    8.5394  -15.9509   23.9996 C   0  0  0  0  0  0  0  0  0  0  0  0
    7.7207  -16.9238   24.1632 O   0  0  0  0  0  0  0  0  0  0  0  0
    6.4206  -13.7762   25.6563 C   0  0  0  0  0  0  0  0  0  0  0  0
    6.4567  -13.2527   26.9319 C   0  0  0  0  0  0  0  0  0  0  0  0
   11.2466  -18.1389   24.1672 O   0  0  0  0  0  0  0  0  0  0  0  0
   11.2105  -17.6536   25.4833 C   0  0  0  0  0  0  0  0  0  0  0  0
    9.8880  -16.9968   25.7755 C   0  0  2  0  0  0  0  0  0  0  0  0
    9.6888  -15.9257   24.8353 N   0  0  0  0  0  0  0  0  0  0  0  0
    9.9339  -16.4376   27.1554 C   0  0  0  0  0  0  0  0  0  0  0  0
    9.7731  -15.2052   27.3293 O   0  0  0  0  0  0  0  0  0  0  0  0
   10.1499  -17.2207   28.2934 O   0  0  0  0  0  0  0  0  0  0  0  0
  2  1  1  6
  2  3  1  0
  3  4  1  0
  5  6  2  0
  5  4  1  0
  7  8  2  0
  7  2  1  0
  9  5  1  0
 10 11  1  0
 11 12  2  0
 12 13  1  0
 14 13  2  0
 14 15  1  0
 16 15  1  1
 16 17  1  0
 17  7  1  0
 18 19  2  0
 18 16  1  0
 20 14  1  0
 21 11  1  0
 21 20  2  0
 23 22  1  0
 24 25  1  0
 24 23  1  6
 25 18  1  0
 26 24  1  0
 27 26  2  0
 28 26  1  0
M  END
$$$$
