EYS.pdb
     RDKit          3D

 28 28  0  0  1  0  0  0  0  0999 V2000
    7.7660  -12.6218   19.7115 N   0  0  0  0  0  0  0  0  0  0  0  0
    7.5260  -13.9349   20.3291 C   0  0  1  0  0  0  0  0  0  0  0  0
    7.9403  -14.9537   19.2983 C   0  0  0  0  0  0  0  0  0  0  0  0
    7.8114  -16.3814   19.7721 C   0  0  0  0  0  0  0  0  0  0  0  0
    8.3530  -17.3656   18.8121 C   0  0  0  0  0  0  0  0  0  0  0  0
    9.5645  -17.7267   18.8906 O   0  0  0  0  0  0  0  0  0  0  0  0
    8.3275  -14.0289   21.5805 C   0  0  0  0  0  0  0  0  0  0  0  0
    9.4954  -13.5444   21.5504 O   0  0  0  0  0  0  0  0  0  0  0  0
    7.5873  -17.9293   17.8008 O   0  0  0  0  0  0  0  0  0  0  0  0
   10.5609  -15.1141   30.1058 O   0  0  0  0  0  0  0  0  0  0  0  0
    9.9043  -14.8769   28.9042 C   0  0  0  0  0  0  0  0  0  0  0  0
    9.9696  -13.6841   28.2245 C   0  0  0  0  0  0  0  0  0  0  0  0
    9.3117  -13.4655   27.0340 C   0  0  0  0  0  0  0  0  0  0  0  0
    8.5313  -14.4688   26.4517 C   0  0  0  0  0  0  0  0  0  0  0  0
    7.8378  -14.3208   25.1679 C   0  0  0  0  0  0  0  0  0  0  0  0
    8.5758  -14.6963   23.9430 C   0  0  2  0  0  0  0  0  0  0  0  0
    7.7802  -14.6386   22.7413 N   0  0  0  0  0  0  0  0  0  0  0  0
    9.3259  -15.9568   23.9958 C   0  0  0  0  0  0  0  0  0  0  0  0
    8.6587  -17.0466   23.8905 O   0  0  0  0  0  0  0  0  0  0  0  0
    8.4775  -15.6603   27.1474 C   0  0  0  0  0  0  0  0  0  0  0  0
    9.1359  -15.8802   28.3393 C   0  0  0  0  0  0  0  0  0  0  0  0
   13.3435  -16.2043   23.5493 O   0  0  0  0  0  0  0  0  0  0  0  0
   12.5553  -17.3199   23.2281 C   0  0  0  0  0  0  0  0  0  0  0  0
   11.3323  -17.3811   24.1035 C   0  0  2  0  0  0  0  0  0  0  0  0
   10.7340  -16.0731   24.1497 N   0  0  0  0  0  0  0  0  0  0  0  0
   11.7543  -17.7775   25.4759 C   0  0  0  0  0  0  0  0  0  0  0  0
   11.5579  -16.9920   26.4348 O   0  0  0  0  0  0  0  0  0  0  0  0
   12.3693  -18.9991   25.7664 O   0  0  0  0  0  0  0  0  0  0  0  0
  2  1  1  6
  2  3  1  0
  3  4  1  0
  5  6  2  0
  5  4  1  0
  7  8  2  0
  7  2  1  0
  9  5  1  0
 10 11  1  0
 11 12  2  0
 12 13  1  0
 14 13  2  0
 14 15  1  0
 16 15  1  1
 16 17  1  0
 17  7  1  0
 18 19  2  0
 18 16  1  0
 20 14  1  0
 21 11  1  0
 21 20  2  0
 23 22  1  0
 24 25  1  0
 24 23  1  6
 25 18  1  0
 26 24  1  0
 27 26  2  0
 28 26  1  0
M  END
$$$$
