EYS.pdb
     RDKit          3D

 28 28  0  0  1  0  0  0  0  0999 V2000
    8.2127  -12.5332   19.6392 N   0  0  0  0  0  0  0  0  0  0  0  0
    7.7853  -13.8879   20.0204 C   0  0  1  0  0  0  0  0  0  0  0  0
    8.3558  -14.8074   18.9710 C   0  0  0  0  0  0  0  0  0  0  0  0
    7.9791  -14.4238   17.5602 C   0  0  0  0  0  0  0  0  0  0  0  0
    8.4023  -15.4185   16.5527 C   0  0  0  0  0  0  0  0  0  0  0  0
    9.5389  -15.3189   16.0027 O   0  0  0  0  0  0  0  0  0  0  0  0
    8.3019  -14.1865   21.3846 C   0  0  0  0  0  0  0  0  0  0  0  0
    9.3901  -13.6350   21.7184 O   0  0  0  0  0  0  0  0  0  0  0  0
    7.6006  -16.4829   16.1642 O   0  0  0  0  0  0  0  0  0  0  0  0
    6.3290  -10.4508   27.4342 O   0  0  0  0  0  0  0  0  0  0  0  0
    6.4989  -11.6301   26.7188 C   0  0  0  0  0  0  0  0  0  0  0  0
    6.1633  -11.7707   25.3934 C   0  0  0  0  0  0  0  0  0  0  0  0
    6.3379  -12.9476   24.6992 C   0  0  0  0  0  0  0  0  0  0  0  0
    6.8759  -14.0760   25.3253 C   0  0  0  0  0  0  0  0  0  0  0  0
    7.1281  -15.3473   24.6389 C   0  0  0  0  0  0  0  0  0  0  0  0
    8.1312  -15.3523   23.5527 C   0  0  2  0  0  0  0  0  0  0  0  0
    7.5844  -15.0537   22.2518 N   0  0  0  0  0  0  0  0  0  0  0  0
    9.0046  -16.5296   23.4788 C   0  0  0  0  0  0  0  0  0  0  0  0
    8.5087  -17.6033   22.9839 O   0  0  0  0  0  0  0  0  0  0  0  0
    7.2079  -13.9168   26.6562 C   0  0  0  0  0  0  0  0  0  0  0  0
    7.0335  -12.7388   27.3521 C   0  0  0  0  0  0  0  0  0  0  0  0
   13.0015  -16.4259   23.6182 O   0  0  0  0  0  0  0  0  0  0  0  0
   12.3838  -17.5848   23.1236 C   0  0  0  0  0  0  0  0  0  0  0  0
   11.0699  -17.8282   23.8166 C   0  0  2  0  0  0  0  0  0  0  0  0
   10.3591  -16.5801   23.9062 N   0  0  0  0  0  0  0  0  0  0  0  0
   11.3477  -18.3354   25.1893 C   0  0  0  0  0  0  0  0  0  0  0  0
   10.9057  -17.7079   26.1821 O   0  0  0  0  0  0  0  0  0  0  0  0
   12.0875  -19.4943   25.4435 O   0  0  0  0  0  0  0  0  0  0  0  0
  2  1  1  6
  2  3  1  0
  3  4  1  0
  5  6  2  0
  5  4  1  0
  7  8  2  0
  7  2  1  0
  9  5  1  0
 10 11  1  0
 11 12  2  0
 12 13  1  0
 14 13  2  0
 14 15  1  0
 16 15  1  1
 16 17  1  0
 17  7  1  0
 18 19  2  0
 18 16  1  0
 20 14  1  0
 21 11  1  0
 21 20  2  0
 23 22  1  0
 24 25  1  0
 24 23  1  1
 25 18  1  0
 26 24  1  0
 27 26  2  0
 28 26  1  0
M  END
$$$$
