SCG.pdb
     RDKit          3D

 17 16  0  0  1  0  0  0  0  0999 V2000
    6.6545  -16.4533   21.3760 O   0  0  0  0  0  0  0  0  0  0  0  0
    5.9766  -15.2533   21.2047 C   0  0  0  0  0  0  0  0  0  0  0  0
    6.8593  -14.0535   21.4244 C   0  0  2  0  0  0  0  0  0  0  0  0
    7.8046  -14.0040   20.3283 N   0  0  0  0  0  0  0  0  0  0  0  0
    7.5771  -14.0545   22.6884 C   0  0  0  0  0  0  0  0  0  0  0  0
    8.8154  -14.2620   22.6968 O   0  0  0  0  0  0  0  0  0  0  0  0
    6.9858  -13.8347   23.9604 N   0  0  0  0  0  0  0  0  0  0  0  0
    7.6946  -13.8177   25.2029 C   0  0  1  0  0  0  0  0  0  0  0  0
    6.8510  -13.3457   26.3621 C   0  0  0  0  0  0  0  0  0  0  0  0
    6.5637  -11.5652   26.1425 S   0  0  0  0  0  0  0  0  0  0  0  0
    8.2117  -15.1676   25.5499 C   0  0  0  0  0  0  0  0  0  0  0  0
    7.4120  -16.0498   25.9553 O   0  0  0  0  0  0  0  0  0  0  0  0
    9.5826  -15.5265   25.4483 N   0  0  0  0  0  0  0  0  0  0  0  0
   10.0022  -16.9019   25.7303 C   0  0  0  0  0  0  0  0  0  0  0  0
   11.4301  -17.0921   25.4047 C   0  0  0  0  0  0  0  0  0  0  0  0
   12.1257  -18.2604   25.6336 O   0  0  0  0  0  0  0  0  0  0  0  0
   12.0409  -16.1268   24.8884 O   0  0  0  0  0  0  0  0  0  0  0  0
  2  1  1  0
  3  2  1  0
  3  4  1  6
  5  3  1  0
  5  6  2  0
  7  5  1  0
  8  7  1  0
  9 10  1  0
  8  9  1  1
 11 13  1  0
 11  8  1  0
 12 11  2  0
 14 13  1  0
 14 15  1  0
 15 17  2  0
 15 16  1  0
M  END
$$$$
