SCG.pdb
     RDKit          3D

 17 16  0  0  1  0  0  0  0  0999 V2000
    6.8737  -15.9019   21.3252 O   0  0  0  0  0  0  0  0  0  0  0  0
    6.3322  -14.6325   21.1705 C   0  0  0  0  0  0  0  0  0  0  0  0
    7.2696  -13.5444   21.6225 C   0  0  2  0  0  0  0  0  0  0  0  0
    8.4058  -13.5502   20.7245 N   0  0  0  0  0  0  0  0  0  0  0  0
    7.7312  -13.6757   22.9946 C   0  0  0  0  0  0  0  0  0  0  0  0
    8.8951  -14.0899   23.2191 O   0  0  0  0  0  0  0  0  0  0  0  0
    6.9596  -13.3676   24.1460 N   0  0  0  0  0  0  0  0  0  0  0  0
    7.3784  -13.5846   25.4966 C   0  0  1  0  0  0  0  0  0  0  0  0
    6.4540  -12.9597   26.5131 C   0  0  0  0  0  0  0  0  0  0  0  0
    6.5382  -11.1578   26.2967 S   0  0  0  0  0  0  0  0  0  0  0  0
    7.4681  -15.0351   25.8094 C   0  0  0  0  0  0  0  0  0  0  0  0
    6.4633  -15.7694   25.6271 O   0  0  0  0  0  0  0  0  0  0  0  0
    8.6450  -15.6523   26.3119 N   0  0  0  0  0  0  0  0  0  0  0  0
    8.6736  -17.1001   26.5366 C   0  0  0  0  0  0  0  0  0  0  0  0
   10.0093  -17.5338   26.9936 C   0  0  0  0  0  0  0  0  0  0  0  0
   10.3287  -18.8343   27.3223 O   0  0  0  0  0  0  0  0  0  0  0  0
   10.9030  -16.6596   27.0859 O   0  0  0  0  0  0  0  0  0  0  0  0
  2  1  1  0
  3  2  1  0
  3  4  1  6
  5  3  1  0
  5  6  2  0
  7  5  1  0
  8  7  1  0
  9 10  1  0
  8  9  1  1
 11 13  1  0
 11  8  1  0
 12 11  2  0
 14 13  1  0
 14 15  1  0
 15 17  2  0
 15 16  1  0
M  END
$$$$
