SCG.pdb
     RDKit          3D

 17 16  0  0  1  0  0  0  0  0999 V2000
    8.1791  -18.5326   15.1657 O   0  0  0  0  0  0  0  0  0  0  0  0
    9.0009  -17.8154   16.0253 C   0  0  0  0  0  0  0  0  0  0  0  0
    9.0428  -16.3470   15.6950 C   0  0  2  0  0  0  0  0  0  0  0  0
    9.6838  -16.2112   14.4034 N   0  0  0  0  0  0  0  0  0  0  0  0
    9.7379  -15.5270   16.6735 C   0  0  0  0  0  0  0  0  0  0  0  0
   10.9383  -15.2147   16.4785 O   0  0  0  0  0  0  0  0  0  0  0  0
    9.1639  -15.0286   17.8727 N   0  0  0  0  0  0  0  0  0  0  0  0
    9.8031  -14.1176   18.7716 C   0  0  1  0  0  0  0  0  0  0  0  0
    8.8322  -13.3849   19.6653 C   0  0  0  0  0  0  0  0  0  0  0  0
    7.6062  -12.5754   18.5965 S   0  0  0  0  0  0  0  0  0  0  0  0
   10.7759  -14.8176   19.6512 C   0  0  0  0  0  0  0  0  0  0  0  0
   10.3756  -15.7477   20.3973 O   0  0  0  0  0  0  0  0  0  0  0  0
   12.1579  -14.4913   19.6992 N   0  0  0  0  0  0  0  0  0  0  0  0
   13.0599  -15.2517   20.5683 C   0  0  0  0  0  0  0  0  0  0  0  0
   14.4312  -14.7070   20.5062 C   0  0  0  0  0  0  0  0  0  0  0  0
   15.3048  -14.6902   21.5729 O   0  0  0  0  0  0  0  0  0  0  0  0
   14.8178  -14.2323   19.4123 O   0  0  0  0  0  0  0  0  0  0  0  0
  2  1  1  0
  3  2  1  0
  3  4  1  6
  5  3  1  0
  5  6  2  0
  7  5  1  0
  8  7  1  0
  9 10  1  0
  8  9  1  1
 11 13  1  0
 11  8  1  0
 12 11  2  0
 14 13  1  0
 14 15  1  0
 15 17  2  0
 15 16  1  0
M  END
$$$$
