SCG.pdb
     RDKit          3D

 17 16  0  0  1  0  0  0  0  0999 V2000
    7.1726  -15.8085   20.4511 O   0  0  0  0  0  0  0  0  0  0  0  0
    6.3596  -14.6853   20.3733 C   0  0  0  0  0  0  0  0  0  0  0  0
    7.0744  -13.4242   20.7803 C   0  0  2  0  0  0  0  0  0  0  0  0
    8.0032  -13.0907   19.7202 N   0  0  0  0  0  0  0  0  0  0  0  0
    7.7877  -13.5146   22.0436 C   0  0  0  0  0  0  0  0  0  0  0  0
    9.0293  -13.7016   22.0415 O   0  0  0  0  0  0  0  0  0  0  0  0
    7.1883  -13.4069   23.3263 N   0  0  0  0  0  0  0  0  0  0  0  0
    7.8799  -13.5526   24.5701 C   0  0  1  0  0  0  0  0  0  0  0  0
    7.1493  -12.9269   25.7332 C   0  0  0  0  0  0  0  0  0  0  0  0
    8.2181  -13.0725   27.1951 S   0  0  0  0  0  0  0  0  0  0  0  0
    8.1011  -14.9846   24.9022 C   0  0  0  0  0  0  0  0  0  0  0  0
    7.1207  -15.7724   24.9224 O   0  0  0  0  0  0  0  0  0  0  0  0
    9.3796  -15.5259   25.2040 N   0  0  0  0  0  0  0  0  0  0  0  0
    9.5328  -16.9677   25.4157 C   0  0  0  0  0  0  0  0  0  0  0  0
   10.1341  -17.2432   26.7362 C   0  0  0  0  0  0  0  0  0  0  0  0
   10.6419  -18.4684   27.1133 O   0  0  0  0  0  0  0  0  0  0  0  0
   10.1821  -16.2996   27.5599 O   0  0  0  0  0  0  0  0  0  0  0  0
  2  1  1  0
  3  2  1  0
  3  4  1  6
  5  3  1  0
  5  6  2  0
  7  5  1  0
  8  7  1  0
  9 10  1  0
  8  9  1  1
 11 13  1  0
 11  8  1  0
 12 11  2  0
 14 13  1  0
 14 15  1  0
 15 17  2  0
 15 16  1  0
M  END
$$$$
