SCG.pdb
     RDKit          3D

 17 16  0  0  1  0  0  0  0  0999 V2000
    8.1323  -17.4244   15.3943 O   0  0  0  0  0  0  0  0  0  0  0  0
    7.2740  -16.3614   15.1452 C   0  0  0  0  0  0  0  0  0  0  0  0
    8.0081  -15.0696   14.9012 C   0  0  2  0  0  0  0  0  0  0  0  0
    8.7736  -15.2294   13.6822 N   0  0  0  0  0  0  0  0  0  0  0  0
    8.8909  -14.6627   15.9820 C   0  0  0  0  0  0  0  0  0  0  0  0
   10.1320  -14.8041   15.8541 O   0  0  0  0  0  0  0  0  0  0  0  0
    8.4638  -14.0997   17.2136 N   0  0  0  0  0  0  0  0  0  0  0  0
    9.3339  -13.5899   18.2283 C   0  0  1  0  0  0  0  0  0  0  0  0
    8.6683  -12.5772   19.1281 C   0  0  0  0  0  0  0  0  0  0  0  0
    7.2383  -13.3873   19.9025 S   0  0  0  0  0  0  0  0  0  0  0  0
    9.8535  -14.6807   19.0943 C   0  0  0  0  0  0  0  0  0  0  0  0
    9.1595  -15.7153   19.2676 O   0  0  0  0  0  0  0  0  0  0  0  0
   11.1125  -14.6219   19.7503 N   0  0  0  0  0  0  0  0  0  0  0  0
   11.5485  -15.7341   20.5988 C   0  0  0  0  0  0  0  0  0  0  0  0
   12.8787  -15.4608   21.1795 C   0  0  0  0  0  0  0  0  0  0  0  0
   13.4914  -16.2636   22.1183 O   0  0  0  0  0  0  0  0  0  0  0  0
   13.4818  -14.4333   20.7898 O   0  0  0  0  0  0  0  0  0  0  0  0
  2  1  1  0
  3  2  1  0
  3  4  1  6
  5  3  1  0
  5  6  2  0
  7  5  1  0
  8  7  1  0
  9 10  1  0
  8  9  1  1
 11 13  1  0
 11  8  1  0
 12 11  2  0
 14 13  1  0
 14 15  1  0
 15 17  2  0
 15 16  1  0
M  END
$$$$
