SCG.pdb
     RDKit          3D

 17 16  0  0  1  0  0  0  0  0999 V2000
    7.9834  -15.5580   18.7882 O   0  0  0  0  0  0  0  0  0  0  0  0
    6.8112  -14.9066   19.1490 C   0  0  0  0  0  0  0  0  0  0  0  0
    7.0623  -13.5337   19.7141 C   0  0  2  0  0  0  0  0  0  0  0  0
    7.6137  -12.7210   18.6497 N   0  0  0  0  0  0  0  0  0  0  0  0
    7.9544  -13.5063   20.8613 C   0  0  0  0  0  0  0  0  0  0  0  0
    9.1331  -13.0972   20.7193 O   0  0  0  0  0  0  0  0  0  0  0  0
    7.6034  -13.9140   22.1753 N   0  0  0  0  0  0  0  0  0  0  0  0
    8.4699  -13.8543   23.3121 C   0  0  1  0  0  0  0  0  0  0  0  0
    7.8658  -13.1160   24.4817 C   0  0  0  0  0  0  0  0  0  0  0  0
    6.2639  -13.8896   24.8509 S   0  0  0  0  0  0  0  0  0  0  0  0
    8.8359  -15.2150   23.7861 C   0  0  0  0  0  0  0  0  0  0  0  0
    7.9351  -16.0800   23.9351 O   0  0  0  0  0  0  0  0  0  0  0  0
   10.1693  -15.6028   24.0864 N   0  0  0  0  0  0  0  0  0  0  0  0
   10.4495  -16.9659   24.5454 C   0  0  0  0  0  0  0  0  0  0  0  0
   11.8960  -17.1548   24.7765 C   0  0  0  0  0  0  0  0  0  0  0  0
   12.4508  -18.3021   25.3028 O   0  0  0  0  0  0  0  0  0  0  0  0
   12.6603  -16.2088   24.4726 O   0  0  0  0  0  0  0  0  0  0  0  0
  2  1  1  0
  3  2  1  0
  3  4  1  6
  5  3  1  0
  5  6  2  0
  7  5  1  0
  8  7  1  0
  9 10  1  0
  8  9  1  1
 11 13  1  0
 11  8  1  0
 12 11  2  0
 14 13  1  0
 14 15  1  0
 15 17  2  0
 15 16  1  0
M  END
$$$$
