SCG.pdb
     RDKit          3D

 17 16  0  0  1  0  0  0  0  0999 V2000
    9.2181  -15.6753   16.6528 O   0  0  0  0  0  0  0  0  0  0  0  0
    7.8417  -15.4972   16.7036 C   0  0  0  0  0  0  0  0  0  0  0  0
    7.4499  -14.2004   17.3607 C   0  0  2  0  0  0  0  0  0  0  0  0
    7.8463  -13.1271   16.4727 N   0  0  0  0  0  0  0  0  0  0  0  0
    8.0342  -13.9878   18.6746 C   0  0  0  0  0  0  0  0  0  0  0  0
    9.0250  -13.2259   18.7955 O   0  0  0  0  0  0  0  0  0  0  0  0
    7.5714  -14.5837   19.8774 N   0  0  0  0  0  0  0  0  0  0  0  0
    8.1932  -14.4380   21.1575 C   0  0  1  0  0  0  0  0  0  0  0  0
    7.2072  -14.1837   22.2716 C   0  0  0  0  0  0  0  0  0  0  0  0
    8.1408  -14.1311   23.8293 S   0  0  0  0  0  0  0  0  0  0  0  0
    8.9731  -15.6500   21.5218 C   0  0  0  0  0  0  0  0  0  0  0  0
    8.3982  -16.7683   21.5519 O   0  0  0  0  0  0  0  0  0  0  0  0
   10.3565  -15.6185   21.8442 N   0  0  0  0  0  0  0  0  0  0  0  0
   11.0404  -16.8472   22.2562 C   0  0  0  0  0  0  0  0  0  0  0  0
   11.4348  -16.7768   23.6777 C   0  0  0  0  0  0  0  0  0  0  0  0
   12.6558  -16.3119   24.1184 O   0  0  0  0  0  0  0  0  0  0  0  0
   10.6024  -17.1655   24.5306 O   0  0  0  0  0  0  0  0  0  0  0  0
  2  1  1  0
  3  2  1  0
  3  4  1  6
  5  3  1  0
  5  6  2  0
  7  5  1  0
  8  7  1  0
  9 10  1  0
  8  9  1  1
 11 13  1  0
 11  8  1  0
 12 11  2  0
 14 13  1  0
 14 15  1  0
 15 17  2  0
 15 16  1  0
M  END
$$$$
