SCG.pdb
     RDKit          3D

 17 16  0  0  1  0  0  0  0  0999 V2000
   -1.9858  -23.3639   18.1830 O   0  0  0  0  0  0  0  0  0  0  0  0
   -2.5788  -22.5574   17.2204 C   0  0  0  0  0  0  0  0  0  0  0  0
   -2.4393  -21.0903   17.5286 C   0  0  2  0  0  0  0  0  0  0  0  0
   -1.0296  -20.7652   17.4616 N   0  0  0  0  0  0  0  0  0  0  0  0
   -2.9714  -20.6909   18.8210 C   0  0  0  0  0  0  0  0  0  0  0  0
   -2.1850  -20.4910   19.7792 O   0  0  0  0  0  0  0  0  0  0  0  0
   -4.3482  -20.4992   19.1104 N   0  0  0  0  0  0  0  0  0  0  0  0
   -4.8684  -20.0525   20.3660 C   0  0  1  0  0  0  0  0  0  0  0  0
   -6.1354  -19.2436   20.2304 C   0  0  0  0  0  0  0  0  0  0  0  0
   -6.5477  -18.5898   21.8746 S   0  0  0  0  0  0  0  0  0  0  0  0
   -5.1657  -21.1970   21.2669 C   0  0  0  0  0  0  0  0  0  0  0  0
   -5.8489  -22.1611   20.8358 O   0  0  0  0  0  0  0  0  0  0  0  0
   -4.7145  -21.2669   22.6124 N   0  0  0  0  0  0  0  0  0  0  0  0
   -5.0074  -22.4526   23.4220 C   0  0  0  0  0  0  0  0  0  0  0  0
   -3.7639  -23.0420   23.9583 C   0  0  0  0  0  0  0  0  0  0  0  0
   -3.0712  -22.5347   25.0372 O   0  0  0  0  0  0  0  0  0  0  0  0
   -3.3166  -24.0671   23.3920 O   0  0  0  0  0  0  0  0  0  0  0  0
  2  1  1  0
  3  2  1  0
  3  4  1  1
  5  3  1  0
  5  6  2  0
  7  5  1  0
  8  7  1  0
  9 10  1  0
  8  9  1  6
 11 13  1  0
 11  8  1  0
 12 11  2  0
 14 13  1  0
 14 15  1  0
 15 17  2  0
 15 16  1  0
M  END
$$$$
