SCG.pdb
     RDKit          3D

 17 16  0  0  1  0  0  0  0  0999 V2000
   -5.4056  -27.9296   30.2292 O   0  0  0  0  0  0  0  0  0  0  0  0
   -5.4437  -26.6036   30.6403 C   0  0  0  0  0  0  0  0  0  0  0  0
   -4.4060  -25.7551   29.9545 C   0  0  2  0  0  0  0  0  0  0  0  0
   -3.1185  -26.1047   30.5181 N   0  0  0  0  0  0  0  0  0  0  0  0
   -4.6196  -24.3225   30.0769 C   0  0  0  0  0  0  0  0  0  0  0  0
   -4.1483  -23.7085   31.0656 O   0  0  0  0  0  0  0  0  0  0  0  0
   -5.3381  -23.5244   29.1479 N   0  0  0  0  0  0  0  0  0  0  0  0
   -5.5644  -22.1177   29.2772 C   0  0  1  0  0  0  0  0  0  0  0  0
   -5.4649  -21.3768   27.9660 C   0  0  0  0  0  0  0  0  0  0  0  0
   -3.7021  -21.2284   27.5520 S   0  0  0  0  0  0  0  0  0  0  0  0
   -6.9084  -21.8356   29.8466 C   0  0  0  0  0  0  0  0  0  0  0  0
   -7.2875  -20.6430   29.9729 O   0  0  0  0  0  0  0  0  0  0  0  0
   -7.8068  -22.8538   30.2644 N   0  0  0  0  0  0  0  0  0  0  0  0
   -9.1463  -22.4981   30.7404 C   0  0  0  0  0  0  0  0  0  0  0  0
   -9.8954  -23.7038   31.1485 C   0  0  0  0  0  0  0  0  0  0  0  0
   -9.3951  -24.9864   31.0730 O   0  0  0  0  0  0  0  0  0  0  0  0
  -11.0576  -23.5428   31.5899 O   0  0  0  0  0  0  0  0  0  0  0  0
  2  1  1  0
  3  2  1  0
  3  4  1  1
  5  3  1  0
  5  6  2  0
  7  5  1  0
  8  7  1  0
  9 10  1  0
  8  9  1  6
 11 13  1  0
 11  8  1  0
 12 11  2  0
 14 13  1  0
 14 15  1  0
 15 17  2  0
 15 16  1  0
M  END
$$$$
