PEI.pdb
     RDKit          3D

 25 25  0  0  1  0  0  0  0  0999 V2000
    9.0019  -14.7937   18.5204 N   0  0  0  0  0  0  0  0  0  0  0  0
    8.9100  -14.0417   17.2745 C   0  0  0  0  0  0  0  0  0  0  0  0
    7.7675  -13.0609   17.4397 C   0  0  0  0  0  0  0  0  0  0  0  0
    7.2411  -13.3675   18.8500 C   0  0  0  0  0  0  0  0  0  0  0  0
    8.5141  -13.8503   19.5055 C   0  0  1  0  0  0  0  0  0  0  0  0
    8.3007  -14.5531   20.7848 C   0  0  0  0  0  0  0  0  0  0  0  0
    7.6221  -13.9546   21.6514 O   0  0  0  0  0  0  0  0  0  0  0  0
    8.8305  -15.8497   21.0457 N   0  0  0  0  0  0  0  0  0  0  0  0
    8.7220  -16.5878   22.2450 C   0  0  1  0  0  0  0  0  0  0  0  0
    9.2594  -17.9510   22.3194 C   0  0  0  0  0  0  0  0  0  0  0  0
    9.1513  -18.6641   23.6295 C   0  0  0  0  0  0  0  0  0  0  0  0
    9.7015  -19.9911   23.7363 C   0  0  0  0  0  0  0  0  0  0  0  0
    9.5807  -20.8635   22.8664 O   0  0  0  0  0  0  0  0  0  0  0  0
    9.0703  -15.7335   23.4513 C   0  0  0  0  0  0  0  0  0  0  0  0
   10.2298  -15.2830   23.6263 O   0  0  0  0  0  0  0  0  0  0  0  0
   10.4219  -20.3471   24.8813 O   0  0  0  0  0  0  0  0  0  0  0  0
    6.8836  -11.3384   27.0430 C   0  0  0  0  0  0  0  0  0  0  0  0
    7.9387  -12.3869   26.7642 C   0  0  0  0  0  0  0  0  0  0  0  0
    7.5127  -13.3810   25.7168 C   0  0  2  0  0  0  0  0  0  0  0  0
    6.1671  -13.9316   26.1397 C   0  0  0  0  0  0  0  0  0  0  0  0
    8.4554  -14.5177   25.5581 C   0  0  2  0  0  0  0  0  0  0  0  0
    8.1278  -15.3899   24.4461 N   0  0  0  0  0  0  0  0  0  0  0  0
    8.5480  -15.2613   26.8358 C   0  0  0  0  0  0  0  0  0  0  0  0
    7.9944  -16.3773   26.9245 O   0  0  0  0  0  0  0  0  0  0  0  0
    9.2246  -14.7519   27.9156 O   0  0  0  0  0  0  0  0  0  0  0  0
  1  2  1  0
  2  3  1  0
  4  3  1  0
  5  1  1  0
  5  4  1  0
  5  6  1  1
  7  6  2  0
  8  6  1  0
  9 14  1  0
  9  8  1  0
  9 10  1  6
 11 10  1  0
 12 16  1  0
 12 11  1  0
 13 12  2  0
 14 22  1  0
 15 14  2  0
 17 18  1  0
 19 21  1  0
 19 18  1  0
 19 20  1  1
 21 23  1  0
 21 22  1  6
 23 24  2  0
 23 25  1  0
M  END
$$$$
