PEI.pdb
     RDKit          3D

 25 25  0  0  1  0  0  0  0  0999 V2000
    7.7098  -15.0404   18.8316 N   0  0  0  0  0  0  0  0  0  0  0  0
    7.6461  -14.0263   17.7858 C   0  0  0  0  0  0  0  0  0  0  0  0
    7.6395  -12.6810   18.4820 C   0  0  0  0  0  0  0  0  0  0  0  0
    7.6735  -13.0550   19.9717 C   0  0  0  0  0  0  0  0  0  0  0  0
    8.4234  -14.3646   19.8958 C   0  0  1  0  0  0  0  0  0  0  0  0
    8.3402  -15.1754   21.1254 C   0  0  0  0  0  0  0  0  0  0  0  0
    7.2274  -15.2175   21.6996 O   0  0  0  0  0  0  0  0  0  0  0  0
    9.4571  -15.8846   21.6540 N   0  0  0  0  0  0  0  0  0  0  0  0
    9.5094  -16.6087   22.8656 C   0  0  1  0  0  0  0  0  0  0  0  0
   10.2690  -17.8617   22.9397 C   0  0  0  0  0  0  0  0  0  0  0  0
   10.2343  -18.6135   24.2321 C   0  0  0  0  0  0  0  0  0  0  0  0
   10.9842  -19.8392   24.3338 C   0  0  0  0  0  0  0  0  0  0  0  0
   11.9596  -19.9950   25.0801 O   0  0  0  0  0  0  0  0  0  0  0  0
    9.7460  -15.6868   24.0489 C   0  0  0  0  0  0  0  0  0  0  0  0
   10.8165  -15.0422   24.1775 O   0  0  0  0  0  0  0  0  0  0  0  0
   10.6127  -20.9398   23.5545 O   0  0  0  0  0  0  0  0  0  0  0  0
    6.1220  -12.1360   25.4252 C   0  0  0  0  0  0  0  0  0  0  0  0
    7.3831  -12.9380   25.1869 C   0  0  0  0  0  0  0  0  0  0  0  0
    7.8559  -13.6640   26.4183 C   0  0  2  0  0  0  0  0  0  0  0  0
    8.2797  -12.6148   27.4244 C   0  0  0  0  0  0  0  0  0  0  0  0
    9.0081  -14.5676   26.1697 C   0  0  2  0  0  0  0  0  0  0  0  0
    8.7919  -15.4917   25.0724 N   0  0  0  0  0  0  0  0  0  0  0  0
    9.3603  -15.2714   27.4245 C   0  0  0  0  0  0  0  0  0  0  0  0
    9.0483  -16.4744   27.5482 O   0  0  0  0  0  0  0  0  0  0  0  0
   10.0173  -14.6325   28.4459 O   0  0  0  0  0  0  0  0  0  0  0  0
  1  2  1  0
  2  3  1  0
  4  3  1  0
  5  1  1  0
  5  4  1  0
  5  6  1  1
  7  6  2  0
  8  6  1  0
  9 14  1  0
  9  8  1  0
  9 10  1  6
 11 10  1  0
 12 16  1  0
 12 11  1  0
 13 12  2  0
 14 22  1  0
 15 14  2  0
 17 18  1  0
 19 21  1  0
 19 18  1  0
 19 20  1  1
 21 23  1  0
 21 22  1  6
 23 24  2  0
 23 25  1  0
M  END
$$$$
