PEI.pdb
     RDKit          3D

 25 25  0  0  1  0  0  0  0  0999 V2000
    8.3368  -15.3943   19.1065 N   0  0  0  0  0  0  0  0  0  0  0  0
    8.4770  -14.8656   17.7549 C   0  0  0  0  0  0  0  0  0  0  0  0
    7.8047  -13.5083   17.7450 C   0  0  0  0  0  0  0  0  0  0  0  0
    7.2719  -13.3686   19.1791 C   0  0  0  0  0  0  0  0  0  0  0  0
    8.2954  -14.1968   19.9206 C   0  0  1  0  0  0  0  0  0  0  0  0
    7.8938  -14.5583   21.2932 C   0  0  0  0  0  0  0  0  0  0  0  0
    7.7518  -13.6159   22.1066 O   0  0  0  0  0  0  0  0  0  0  0  0
    7.6726  -15.9062   21.6983 N   0  0  0  0  0  0  0  0  0  0  0  0
    7.3416  -16.3622   22.9935 C   0  0  1  0  0  0  0  0  0  0  0  0
    7.1532  -17.7960   23.2411 C   0  0  0  0  0  0  0  0  0  0  0  0
    6.7603  -18.2110   24.6232 C   0  0  0  0  0  0  0  0  0  0  0  0
    6.5569  -19.6124   24.8876 C   0  0  0  0  0  0  0  0  0  0  0  0
    5.8802  -20.3617   24.1712 O   0  0  0  0  0  0  0  0  0  0  0  0
    8.1815  -15.6704   24.0527 C   0  0  0  0  0  0  0  0  0  0  0  0
    9.4154  -15.8821   24.1564 O   0  0  0  0  0  0  0  0  0  0  0  0
    7.1471  -20.1925   26.0153 O   0  0  0  0  0  0  0  0  0  0  0  0
    6.1118  -11.3586   27.3057 C   0  0  0  0  0  0  0  0  0  0  0  0
    6.5484  -12.7384   26.8634 C   0  0  0  0  0  0  0  0  0  0  0  0
    7.9808  -12.7784   26.4012 C   0  0  2  0  0  0  0  0  0  0  0  0
    8.0870  -11.8802   25.1869 C   0  0  0  0  0  0  0  0  0  0  0  0
    8.4447  -14.1372   26.0212 C   0  0  2  0  0  0  0  0  0  0  0  0
    7.6418  -14.7527   24.9814 N   0  0  0  0  0  0  0  0  0  0  0  0
    8.5256  -14.9855   27.2328 C   0  0  0  0  0  0  0  0  0  0  0  0
    7.7963  -15.9964   27.3099 O   0  0  0  0  0  0  0  0  0  0  0  0
    9.3794  -14.6846   28.2642 O   0  0  0  0  0  0  0  0  0  0  0  0
  1  2  1  0
  2  3  1  0
  4  3  1  0
  5  1  1  0
  5  4  1  0
  5  6  1  1
  7  6  2  0
  8  6  1  0
  9 14  1  0
  9  8  1  0
  9 10  1  6
 11 10  1  0
 12 16  1  0
 12 11  1  0
 13 12  2  0
 14 22  1  0
 15 14  2  0
 17 18  1  0
 19 21  1  0
 19 18  1  0
 19 20  1  6
 21 23  1  0
 21 22  1  6
 23 24  2  0
 23 25  1  0
M  END
$$$$
