PEI.pdb
     RDKit          3D

 25 25  0  0  1  0  0  0  0  0999 V2000
    8.6983  -14.6896   18.7867 N   0  0  0  0  0  0  0  0  0  0  0  0
    8.5473  -13.9168   17.5594 C   0  0  0  0  0  0  0  0  0  0  0  0
    7.5954  -12.7810   17.8730 C   0  0  0  0  0  0  0  0  0  0  0  0
    7.2292  -13.0244   19.3450 C   0  0  0  0  0  0  0  0  0  0  0  0
    8.4954  -13.6970   19.8221 C   0  0  1  0  0  0  0  0  0  0  0  0
    8.3592  -14.3767   21.1242 C   0  0  0  0  0  0  0  0  0  0  0  0
    8.0831  -13.6560   22.1112 O   0  0  0  0  0  0  0  0  0  0  0  0
    8.5292  -15.7830   21.2773 N   0  0  0  0  0  0  0  0  0  0  0  0
    8.4063  -16.5302   22.4696 C   0  0  1  0  0  0  0  0  0  0  0  0
    8.7849  -17.9476   22.4900 C   0  0  0  0  0  0  0  0  0  0  0  0
    8.6158  -18.6878   23.7785 C   0  0  0  0  0  0  0  0  0  0  0  0
    9.0171  -20.0702   23.8340 C   0  0  0  0  0  0  0  0  0  0  0  0
    9.7491  -20.5445   24.7124 O   0  0  0  0  0  0  0  0  0  0  0  0
    8.9220  -15.7489   23.6653 C   0  0  0  0  0  0  0  0  0  0  0  0
   10.1391  -15.4643   23.7906 O   0  0  0  0  0  0  0  0  0  0  0  0
    8.5689  -20.9568   22.8493 O   0  0  0  0  0  0  0  0  0  0  0  0
    5.7994  -11.9670   26.1672 C   0  0  0  0  0  0  0  0  0  0  0  0
    6.9301  -12.7519   25.5382 C   0  0  0  0  0  0  0  0  0  0  0  0
    7.5956  -13.6952   26.5047 C   0  0  2  0  0  0  0  0  0  0  0  0
    8.3062  -12.8504   27.5409 C   0  0  0  0  0  0  0  0  0  0  0  0
    8.5927  -14.5928   25.8676 C   0  0  2  0  0  0  0  0  0  0  0  0
    8.0807  -15.2931   24.7048 N   0  0  0  0  0  0  0  0  0  0  0  0
    9.1324  -15.5269   26.8826 C   0  0  0  0  0  0  0  0  0  0  0  0
   10.0190  -15.1213   27.6632 O   0  0  0  0  0  0  0  0  0  0  0  0
    8.6811  -16.8191   26.9812 O   0  0  0  0  0  0  0  0  0  0  0  0
  1  2  1  0
  2  3  1  0
  4  3  1  0
  5  1  1  0
  5  4  1  0
  5  6  1  1
  7  6  2  0
  8  6  1  0
  9 14  1  0
  9  8  1  0
  9 10  1  6
 11 10  1  0
 12 16  1  0
 12 11  1  0
 13 12  2  0
 14 22  1  0
 15 14  2  0
 17 18  1  0
 19 21  1  0
 19 18  1  0
 19 20  1  1
 21 23  1  0
 21 22  1  6
 23 24  2  0
 23 25  1  0
M  END
$$$$
