PEI.pdb
     RDKit          3D

 25 25  0  0  1  0  0  0  0  0999 V2000
    8.5442  -14.9518   18.8953 N   0  0  0  0  0  0  0  0  0  0  0  0
    8.6838  -14.2851   17.6061 C   0  0  0  0  0  0  0  0  0  0  0  0
    7.9282  -12.9762   17.7074 C   0  0  0  0  0  0  0  0  0  0  0  0
    7.3530  -13.0107   19.1315 C   0  0  0  0  0  0  0  0  0  0  0  0
    8.4081  -13.8450   19.8199 C   0  0  1  0  0  0  0  0  0  0  0  0
    7.9967  -14.3634   21.1383 C   0  0  0  0  0  0  0  0  0  0  0  0
    7.7285  -13.5146   22.0201 O   0  0  0  0  0  0  0  0  0  0  0  0
    7.9019  -15.7569   21.4195 N   0  0  0  0  0  0  0  0  0  0  0  0
    7.4651  -16.3545   22.6224 C   0  0  1  0  0  0  0  0  0  0  0  0
    7.2604  -17.8058   22.6891 C   0  0  0  0  0  0  0  0  0  0  0  0
    6.8142  -18.3797   23.9960 C   0  0  0  0  0  0  0  0  0  0  0  0
    6.6453  -19.8067   24.0975 C   0  0  0  0  0  0  0  0  0  0  0  0
    7.5501  -20.5910   24.4119 O   0  0  0  0  0  0  0  0  0  0  0  0
    8.2119  -15.7931   23.8196 C   0  0  0  0  0  0  0  0  0  0  0  0
    9.4662  -15.7272   23.8414 O   0  0  0  0  0  0  0  0  0  0  0  0
    5.3941  -20.3722   23.8305 O   0  0  0  0  0  0  0  0  0  0  0  0
    5.8623  -11.8795   26.9273 C   0  0  0  0  0  0  0  0  0  0  0  0
    6.7637  -12.7664   26.0959 C   0  0  0  0  0  0  0  0  0  0  0  0
    7.4754  -13.8095   26.9158 C   0  0  2  0  0  0  0  0  0  0  0  0
    8.4053  -13.0805   27.8625 C   0  0  0  0  0  0  0  0  0  0  0  0
    8.2815  -14.7560   26.1031 C   0  0  2  0  0  0  0  0  0  0  0  0
    7.5574  -15.3117   24.9754 N   0  0  0  0  0  0  0  0  0  0  0  0
    8.8320  -15.8133   26.9824 C   0  0  0  0  0  0  0  0  0  0  0  0
    8.2901  -16.9384   26.9832 O   0  0  0  0  0  0  0  0  0  0  0  0
    9.9172  -15.5823   27.7900 O   0  0  0  0  0  0  0  0  0  0  0  0
  1  2  1  0
  2  3  1  0
  4  3  1  0
  5  1  1  0
  5  4  1  0
  5  6  1  1
  7  6  2  0
  8  6  1  0
  9 14  1  0
  9  8  1  0
  9 10  1  6
 11 10  1  0
 12 16  1  0
 12 11  1  0
 13 12  2  0
 14 22  1  0
 15 14  2  0
 17 18  1  0
 19 21  1  0
 19 18  1  0
 19 20  1  1
 21 23  1  0
 21 22  1  6
 23 24  2  0
 23 25  1  0
M  END
$$$$
