PEI.pdb
     RDKit          3D

 25 25  0  0  1  0  0  0  0  0999 V2000
    8.9230  -14.7309   18.4662 N   0  0  0  0  0  0  0  0  0  0  0  0
    8.6986  -14.0314   17.2067 C   0  0  0  0  0  0  0  0  0  0  0  0
    7.5807  -13.0390   17.4515 C   0  0  0  0  0  0  0  0  0  0  0  0
    7.2081  -13.2836   18.9217 C   0  0  0  0  0  0  0  0  0  0  0  0
    8.5438  -13.7446   19.4571 C   0  0  1  0  0  0  0  0  0  0  0  0
    8.4683  -14.3921   20.7804 C   0  0  0  0  0  0  0  0  0  0  0  0
    7.9307  -13.7340   21.7011 O   0  0  0  0  0  0  0  0  0  0  0  0
    8.9752  -15.7011   21.0243 N   0  0  0  0  0  0  0  0  0  0  0  0
    8.8308  -16.4633   22.2046 C   0  0  1  0  0  0  0  0  0  0  0  0
    9.3840  -17.8205   22.2744 C   0  0  0  0  0  0  0  0  0  0  0  0
    9.2467  -18.5551   23.5698 C   0  0  0  0  0  0  0  0  0  0  0  0
    9.7849  -19.8880   23.6637 C   0  0  0  0  0  0  0  0  0  0  0  0
   10.3027  -20.3559   24.6862 O   0  0  0  0  0  0  0  0  0  0  0  0
    9.1203  -15.6277   23.4392 C   0  0  0  0  0  0  0  0  0  0  0  0
   10.2392  -15.0860   23.6199 O   0  0  0  0  0  0  0  0  0  0  0  0
    9.7347  -20.7304   22.5482 O   0  0  0  0  0  0  0  0  0  0  0  0
    6.5991  -11.5471   27.1725 C   0  0  0  0  0  0  0  0  0  0  0  0
    7.6587  -12.6113   26.9850 C   0  0  0  0  0  0  0  0  0  0  0  0
    7.3970  -13.4935   25.7934 C   0  0  2  0  0  0  0  0  0  0  0  0
    6.0626  -14.1720   26.0202 C   0  0  0  0  0  0  0  0  0  0  0  0
    8.4286  -14.5431   25.5932 C   0  0  2  0  0  0  0  0  0  0  0  0
    8.1649  -15.4037   24.4554 N   0  0  0  0  0  0  0  0  0  0  0  0
    8.5922  -15.3166   26.8458 C   0  0  0  0  0  0  0  0  0  0  0  0
    8.1578  -16.4866   26.8921 O   0  0  0  0  0  0  0  0  0  0  0  0
    9.2065  -14.7770   27.9479 O   0  0  0  0  0  0  0  0  0  0  0  0
  1  2  1  0
  2  3  1  0
  4  3  1  0
  5  1  1  0
  5  4  1  0
  5  6  1  1
  7  6  2  0
  8  6  1  0
  9 14  1  0
  9  8  1  0
  9 10  1  6
 11 10  1  0
 12 16  1  0
 12 11  1  0
 13 12  2  0
 14 22  1  0
 15 14  2  0
 17 18  1  0
 19 21  1  0
 19 18  1  0
 19 20  1  1
 21 23  1  0
 21 22  1  6
 23 24  2  0
 23 25  1  0
M  END
$$$$
