QFP.pdb
     RDKit          3D

 28 29  0  0  1  0  0  0  0  0999 V2000
   14.9639  -17.1728   20.3985 N   0  0  0  0  0  0  0  0  0  0  0  0
   13.7975  -16.6934   19.7576 C   0  0  0  0  0  0  0  0  0  0  0  0
   13.6847  -16.8130   18.5169 O   0  0  0  0  0  0  0  0  0  0  0  0
   12.7079  -16.0531   20.5256 C   0  0  0  0  0  0  0  0  0  0  0  0
   11.3989  -16.8179   20.3399 C   0  0  0  0  0  0  0  0  0  0  0  0
   10.9976  -17.4886   21.6218 C   0  0  2  0  0  0  0  0  0  0  0  0
    9.8405  -18.3149   21.3613 N   0  0  0  0  0  0  0  0  0  0  0  0
   10.6153  -16.4482   22.6063 C   0  0  0  0  0  0  0  0  0  0  0  0
   11.4370  -15.5602   22.9969 O   0  0  0  0  0  0  0  0  0  0  0  0
    9.3190  -16.3918   23.1593 N   0  0  0  0  0  0  0  0  0  0  0  0
    8.9376  -15.4199   24.1667 C   0  0  1  0  0  0  0  0  0  0  0  0
    7.4674  -15.0794   24.0435 C   0  0  0  0  0  0  0  0  0  0  0  0
    7.1185  -14.0295   25.0610 C   0  0  0  0  0  0  0  0  0  0  0  0
    6.4387  -14.3421   26.2148 C   0  0  0  0  0  0  0  0  0  0  0  0
    6.1556  -13.3212   27.0983 C   0  0  0  0  0  0  0  0  0  0  0  0
    6.5374  -12.0132   26.8469 C   0  0  0  0  0  0  0  0  0  0  0  0
    7.2185  -11.7023   25.6900 C   0  0  0  0  0  0  0  0  0  0  0  0
    7.4930  -12.7367   24.8177 C   0  0  0  0  0  0  0  0  0  0  0  0
    9.3181  -15.8924   25.5132 C   0  0  0  0  0  0  0  0  0  0  0  0
    9.1916  -17.1479   25.7392 O   0  0  0  0  0  0  0  0  0  0  0  0
    9.8032  -15.0933   26.5581 N   0  0  0  0  0  0  0  0  0  0  0  0
    9.8093  -13.6467   26.5907 C   0  0  0  0  0  0  0  0  0  0  0  0
   10.9461  -13.3171   27.5851 C   0  0  0  0  0  0  0  0  0  0  0  0
   10.6422  -14.3664   28.6337 C   0  0  0  0  0  0  0  0  0  0  0  0
   10.3908  -15.5865   27.7795 C   0  0  1  0  0  0  0  0  0  0  0  0
    9.5302  -16.5773   28.4739 C   0  0  0  0  0  0  0  0  0  0  0  0
    9.8563  -17.2295   29.4753 O   0  0  0  0  0  0  0  0  0  0  0  0
    8.2620  -16.7805   27.9504 O   0  0  0  0  0  0  0  0  0  0  0  0
  1  2  1  0
  2  3  2  0
  4  2  1  0
  4  5  1  0
  5  6  1  0
  6  8  1  0
  6  7  1  6
  8  9  2  0
 10 11  1  0
 10  8  1  0
 11 12  1  1
 13 14  2  0
 13 12  1  0
 15 14  1  0
 16 15  2  0
 17 16  1  0
 17 18  2  0
 18 13  1  0
 19 11  1  0
 20 19  2  0
 21 19  1  0
 21 25  1  0
 22 23  1  0
 22 21  1  0
 23 24  1  0
 24 25  1  0
 25 26  1  1
 26 28  1  0
 27 26  2  0
M  END
$$$$
