QFP.pdb
     RDKit          3D

 28 29  0  0  1  0  0  0  0  0999 V2000
   13.3138  -19.4144   19.5002 N   0  0  0  0  0  0  0  0  0  0  0  0
   12.9322  -18.0789   19.2321 C   0  0  0  0  0  0  0  0  0  0  0  0
   13.8107  -17.1898   19.1674 O   0  0  0  0  0  0  0  0  0  0  0  0
   11.5143  -17.7124   19.0264 C   0  0  0  0  0  0  0  0  0  0  0  0
   11.0757  -16.6680   20.0510 C   0  0  0  0  0  0  0  0  0  0  0  0
   10.7576  -17.3233   21.3638 C   0  0  2  0  0  0  0  0  0  0  0  0
    9.5929  -18.1606   21.1852 N   0  0  0  0  0  0  0  0  0  0  0  0
   10.4281  -16.2717   22.3556 C   0  0  0  0  0  0  0  0  0  0  0  0
   11.2146  -15.3008   22.5899 O   0  0  0  0  0  0  0  0  0  0  0  0
    9.2238  -16.2965   23.0894 N   0  0  0  0  0  0  0  0  0  0  0  0
    8.9095  -15.3186   24.1140 C   0  0  1  0  0  0  0  0  0  0  0  0
    7.4470  -14.9325   24.0460 C   0  0  0  0  0  0  0  0  0  0  0  0
    7.1596  -13.9049   25.1046 C   0  0  0  0  0  0  0  0  0  0  0  0
    6.5239  -14.2374   26.2779 C   0  0  0  0  0  0  0  0  0  0  0  0
    6.2961  -13.2362   27.1991 C   0  0  0  0  0  0  0  0  0  0  0  0
    6.6893  -11.9282   26.9659 C   0  0  0  0  0  0  0  0  0  0  0  0
    7.3261  -11.5973   25.7895 C   0  0  0  0  0  0  0  0  0  0  0  0
    7.5456  -12.6122   24.8795 C   0  0  0  0  0  0  0  0  0  0  0  0
    9.3241  -15.8095   25.4438 C   0  0  0  0  0  0  0  0  0  0  0  0
    9.2458  -17.0739   25.6402 O   0  0  0  0  0  0  0  0  0  0  0  0
    9.7935  -15.0189   26.5023 N   0  0  0  0  0  0  0  0  0  0  0  0
    9.6994  -13.5779   26.5948 C   0  0  0  0  0  0  0  0  0  0  0  0
   10.8492  -13.2066   27.5590 C   0  0  0  0  0  0  0  0  0  0  0  0
   10.6619  -14.3149   28.5737 C   0  0  0  0  0  0  0  0  0  0  0  0
   10.4627  -15.5159   27.6794 C   0  0  1  0  0  0  0  0  0  0  0  0
    9.7022  -16.5920   28.3634 C   0  0  0  0  0  0  0  0  0  0  0  0
   10.2001  -17.4857   29.0620 O   0  0  0  0  0  0  0  0  0  0  0  0
    8.3248  -16.5860   28.2001 O   0  0  0  0  0  0  0  0  0  0  0  0
  1  2  1  0
  2  3  2  0
  4  2  1  0
  4  5  1  0
  5  6  1  0
  6  8  1  0
  6  7  1  6
  8  9  2  0
 10 11  1  0
 10  8  1  0
 11 12  1  1
 13 14  2  0
 13 12  1  0
 15 14  1  0
 16 15  2  0
 17 16  1  0
 17 18  2  0
 18 13  1  0
 19 11  1  0
 20 19  2  0
 21 19  1  0
 21 25  1  0
 22 23  1  0
 22 21  1  0
 23 24  1  0
 24 25  1  0
 25 26  1  1
 26 28  1  0
 27 26  2  0
M  END
$$$$
