QFP.pdb
     RDKit          3D

 28 29  0  0  1  0  0  0  0  0999 V2000
   11.3279  -20.5735   22.3613 N   0  0  0  0  0  0  0  0  0  0  0  0
   11.9507  -19.9893   21.2335 C   0  0  0  0  0  0  0  0  0  0  0  0
   13.0892  -20.3790   20.8894 O   0  0  0  0  0  0  0  0  0  0  0  0
   11.2823  -18.9261   20.4525 C   0  0  0  0  0  0  0  0  0  0  0  0
    9.9095  -18.6090   21.0425 C   0  0  0  0  0  0  0  0  0  0  0  0
    9.5111  -17.1992   20.7139 C   0  0  2  0  0  0  0  0  0  0  0  0
   10.4836  -16.6530   19.7943 N   0  0  0  0  0  0  0  0  0  0  0  0
    9.5405  -16.3920   21.9571 C   0  0  0  0  0  0  0  0  0  0  0  0
   10.5677  -15.7264   22.3006 O   0  0  0  0  0  0  0  0  0  0  0  0
    8.4283  -16.3225   22.8218 N   0  0  0  0  0  0  0  0  0  0  0  0
    8.3620  -15.4028   23.9420 C   0  0  1  0  0  0  0  0  0  0  0  0
    6.9564  -14.8629   24.1008 C   0  0  0  0  0  0  0  0  0  0  0  0
    6.9440  -13.8387   25.2008 C   0  0  0  0  0  0  0  0  0  0  0  0
    6.5541  -14.1596   26.4799 C   0  0  0  0  0  0  0  0  0  0  0  0
    6.5699  -13.1624   27.4328 C   0  0  0  0  0  0  0  0  0  0  0  0
    6.9642  -11.8695   27.1282 C   0  0  0  0  0  0  0  0  0  0  0  0
    7.3545  -11.5501   25.8457 C   0  0  0  0  0  0  0  0  0  0  0  0
    7.3322  -12.5608   24.9054 C   0  0  0  0  0  0  0  0  0  0  0  0
    8.8865  -16.0393   25.1671 C   0  0  0  0  0  0  0  0  0  0  0  0
    8.5136  -17.2448   25.3938 O   0  0  0  0  0  0  0  0  0  0  0  0
    9.7512  -15.4448   26.0968 N   0  0  0  0  0  0  0  0  0  0  0  0
   10.1862  -14.0647   26.0928 C   0  0  0  0  0  0  0  0  0  0  0  0
   11.5186  -14.1084   26.8755 C   0  0  0  0  0  0  0  0  0  0  0  0
   11.0997  -15.0495   27.9852 C   0  0  0  0  0  0  0  0  0  0  0  0
   10.3633  -16.1200   27.2148 C   0  0  1  0  0  0  0  0  0  0  0  0
    9.3784  -16.8330   28.0667 C   0  0  0  0  0  0  0  0  0  0  0  0
    8.5074  -17.6111   27.6538 O   0  0  0  0  0  0  0  0  0  0  0  0
    9.4487  -16.6016   29.4325 O   0  0  0  0  0  0  0  0  0  0  0  0
  1  2  1  0
  2  3  2  0
  4  2  1  0
  4  5  1  0
  5  6  1  0
  6  8  1  0
  6  7  1  6
  8  9  2  0
 10 11  1  0
 10  8  1  0
 11 12  1  1
 13 14  2  0
 13 12  1  0
 15 14  1  0
 16 15  2  0
 17 16  1  0
 17 18  2  0
 18 13  1  0
 19 11  1  0
 20 19  2  0
 21 19  1  0
 21 25  1  0
 22 23  1  0
 22 21  1  0
 23 24  1  0
 24 25  1  0
 25 26  1  1
 26 28  1  0
 27 26  2  0
M  END
$$$$
