QFP.pdb
     RDKit          3D

 28 29  0  0  1  0  0  0  0  0999 V2000
   13.3390  -19.4297   21.7108 N   0  0  0  0  0  0  0  0  0  0  0  0
   12.4373  -19.8292   20.6967 C   0  0  0  0  0  0  0  0  0  0  0  0
   12.6248  -20.9130   20.0996 O   0  0  0  0  0  0  0  0  0  0  0  0
   11.2763  -18.9905   20.3282 C   0  0  0  0  0  0  0  0  0  0  0  0
   11.1746  -17.7786   21.2522 C   0  0  0  0  0  0  0  0  0  0  0  0
    9.8503  -17.0938   21.0742 C   0  0  2  0  0  0  0  0  0  0  0  0
    9.8904  -16.3363   19.8437 N   0  0  0  0  0  0  0  0  0  0  0  0
    9.6465  -16.1480   22.1975 C   0  0  0  0  0  0  0  0  0  0  0  0
   10.4050  -15.1432   22.3742 O   0  0  0  0  0  0  0  0  0  0  0  0
    8.5992  -16.3164   23.1271 N   0  0  0  0  0  0  0  0  0  0  0  0
    8.3892  -15.4142   24.2439 C   0  0  1  0  0  0  0  0  0  0  0  0
    6.9242  -15.0502   24.3617 C   0  0  0  0  0  0  0  0  0  0  0  0
    6.7475  -14.0819   25.4977 C   0  0  0  0  0  0  0  0  0  0  0  0
    6.5305  -14.5135   26.7852 C   0  0  0  0  0  0  0  0  0  0  0  0
    6.3776  -13.5615   27.7718 C   0  0  0  0  0  0  0  0  0  0  0  0
    6.4379  -12.2058   27.4920 C   0  0  0  0  0  0  0  0  0  0  0  0
    6.6555  -11.7757   26.2010 C   0  0  0  0  0  0  0  0  0  0  0  0
    6.8062  -12.7425   25.2269 C   0  0  0  0  0  0  0  0  0  0  0  0
    8.9522  -15.9848   25.4842 C   0  0  0  0  0  0  0  0  0  0  0  0
    8.8505  -17.2543   25.6312 O   0  0  0  0  0  0  0  0  0  0  0  0
    9.5846  -15.2644   26.5074 N   0  0  0  0  0  0  0  0  0  0  0  0
    9.6199  -13.8236   26.6371 C   0  0  0  0  0  0  0  0  0  0  0  0
   10.8835  -13.5733   27.4918 C   0  0  0  0  0  0  0  0  0  0  0  0
   10.7026  -14.6906   28.4977 C   0  0  0  0  0  0  0  0  0  0  0  0
   10.3197  -15.8462   27.6036 C   0  0  1  0  0  0  0  0  0  0  0  0
    9.5413  -16.8760   28.3371 C   0  0  0  0  0  0  0  0  0  0  0  0
    9.9779  -17.5806   29.2576 O   0  0  0  0  0  0  0  0  0  0  0  0
    8.2207  -17.0544   27.9521 O   0  0  0  0  0  0  0  0  0  0  0  0
  1  2  1  0
  2  3  2  0
  4  2  1  0
  4  5  1  0
  5  6  1  0
  6  8  1  0
  6  7  1  6
  8  9  2  0
 10 11  1  0
 10  8  1  0
 11 12  1  1
 13 14  2  0
 13 12  1  0
 15 14  1  0
 16 15  2  0
 17 16  1  0
 17 18  2  0
 18 13  1  0
 19 11  1  0
 20 19  2  0
 21 19  1  0
 21 25  1  0
 22 23  1  0
 22 21  1  0
 23 24  1  0
 24 25  1  0
 25 26  1  1
 26 28  1  0
 27 26  2  0
M  END
$$$$
