QFP.pdb
     RDKit          3D

 28 29  0  0  1  0  0  0  0  0999 V2000
   11.9910  -19.9809   18.9020 N   0  0  0  0  0  0  0  0  0  0  0  0
   12.9294  -19.0300   19.3671 C   0  0  0  0  0  0  0  0  0  0  0  0
   13.7140  -18.4921   18.5538 O   0  0  0  0  0  0  0  0  0  0  0  0
   13.0015  -18.6589   20.7969 C   0  0  0  0  0  0  0  0  0  0  0  0
   12.3682  -17.2884   21.0284 C   0  0  0  0  0  0  0  0  0  0  0  0
   10.9290  -17.4373   21.4295 C   0  0  2  0  0  0  0  0  0  0  0  0
   10.1033  -17.1668   20.2743 N   0  0  0  0  0  0  0  0  0  0  0  0
   10.6167  -16.4305   22.4719 C   0  0  0  0  0  0  0  0  0  0  0  0
   11.4057  -15.4686   22.7332 O   0  0  0  0  0  0  0  0  0  0  0  0
    9.4265  -16.4900   23.2266 N   0  0  0  0  0  0  0  0  0  0  0  0
    9.0597  -15.4730   24.1941 C   0  0  1  0  0  0  0  0  0  0  0  0
    7.6036  -15.0902   24.0330 C   0  0  0  0  0  0  0  0  0  0  0  0
    7.2772  -13.9812   24.9936 C   0  0  0  0  0  0  0  0  0  0  0  0
    6.6109  -14.2218   26.1724 C   0  0  0  0  0  0  0  0  0  0  0  0
    6.3482  -13.1498   26.9999 C   0  0  0  0  0  0  0  0  0  0  0  0
    6.7368  -11.8616   26.6693 C   0  0  0  0  0  0  0  0  0  0  0  0
    7.4044  -11.6229   25.4876 C   0  0  0  0  0  0  0  0  0  0  0  0
    7.6585  -12.7077   24.6721 C   0  0  0  0  0  0  0  0  0  0  0  0
    9.4017  -15.9116   25.5622 C   0  0  0  0  0  0  0  0  0  0  0  0
    9.1983  -17.1470   25.8379 O   0  0  0  0  0  0  0  0  0  0  0  0
    9.9268  -15.1007   26.5783 N   0  0  0  0  0  0  0  0  0  0  0  0
    9.9897  -13.6551   26.5662 C   0  0  0  0  0  0  0  0  0  0  0  0
   11.1472  -13.3403   27.5414 C   0  0  0  0  0  0  0  0  0  0  0  0
   10.8117  -14.3443   28.6241 C   0  0  0  0  0  0  0  0  0  0  0  0
   10.5053  -15.5791   27.8099 C   0  0  1  0  0  0  0  0  0  0  0  0
    9.6127  -16.5136   28.5409 C   0  0  0  0  0  0  0  0  0  0  0  0
    9.9748  -17.3052   29.4223 O   0  0  0  0  0  0  0  0  0  0  0  0
    8.2681  -16.4894   28.2014 O   0  0  0  0  0  0  0  0  0  0  0  0
  1  2  1  0
  2  3  2  0
  4  2  1  0
  4  5  1  0
  5  6  1  0
  6  8  1  0
  6  7  1  6
  8  9  2  0
 10 11  1  0
 10  8  1  0
 11 12  1  1
 13 14  2  0
 13 12  1  0
 15 14  1  0
 16 15  2  0
 17 16  1  0
 17 18  2  0
 18 13  1  0
 19 11  1  0
 20 19  2  0
 21 19  1  0
 21 25  1  0
 22 23  1  0
 22 21  1  0
 23 24  1  0
 24 25  1  0
 25 26  1  1
 26 28  1  0
 27 26  2  0
M  END
$$$$
