QFP.pdb
     RDKit          3D

 28 29  0  0  1  0  0  0  0  0999 V2000
    8.2392  -22.6248   22.6148 N   0  0  0  0  0  0  0  0  0  0  0  0
    8.6189  -21.7684   21.5549 C   0  0  0  0  0  0  0  0  0  0  0  0
    9.5541  -22.1077   20.7955 O   0  0  0  0  0  0  0  0  0  0  0  0
    7.9317  -20.4789   21.3264 C   0  0  0  0  0  0  0  0  0  0  0  0
    6.7614  -20.3154   22.2943 C   0  0  0  0  0  0  0  0  0  0  0  0
    5.9643  -19.0905   21.9501 C   0  0  2  0  0  0  0  0  0  0  0  0
    5.9489  -18.9457   20.5119 N   0  0  0  0  0  0  0  0  0  0  0  0
    6.6366  -17.9038   22.5310 C   0  0  0  0  0  0  0  0  0  0  0  0
    7.4243  -17.1773   21.8469 O   0  0  0  0  0  0  0  0  0  0  0  0
    6.4353  -17.5213   23.8737 N   0  0  0  0  0  0  0  0  0  0  0  0
    7.0788  -16.3627   24.4640 C   0  0  1  0  0  0  0  0  0  0  0  0
    6.3274  -15.9121   25.6989 C   0  0  0  0  0  0  0  0  0  0  0  0
    6.8741  -14.5872   26.1515 C   0  0  0  0  0  0  0  0  0  0  0  0
    7.8835  -14.5040   27.0817 C   0  0  0  0  0  0  0  0  0  0  0  0
    8.3298  -13.2504   27.4451 C   0  0  0  0  0  0  0  0  0  0  0  0
    7.7884  -12.0976   26.8992 C   0  0  0  0  0  0  0  0  0  0  0  0
    6.7770  -12.1833   25.9672 C   0  0  0  0  0  0  0  0  0  0  0  0
    6.3432  -13.4461   25.6158 C   0  0  0  0  0  0  0  0  0  0  0  0
    8.5082  -16.6356   24.7157 C   0  0  0  0  0  0  0  0  0  0  0  0
    8.7771  -17.5884   25.5302 O   0  0  0  0  0  0  0  0  0  0  0  0
    9.5892  -15.9492   24.1448 N   0  0  0  0  0  0  0  0  0  0  0  0
    9.5033  -14.7693   23.3115 C   0  0  0  0  0  0  0  0  0  0  0  0
   10.8150  -14.8135   22.4946 C   0  0  0  0  0  0  0  0  0  0  0  0
   11.7610  -15.2195   23.6050 C   0  0  0  0  0  0  0  0  0  0  0  0
   10.9769  -16.3156   24.2873 C   0  0  1  0  0  0  0  0  0  0  0  0
   11.3856  -16.4849   25.7045 C   0  0  0  0  0  0  0  0  0  0  0  0
   12.4896  -16.8981   26.0854 O   0  0  0  0  0  0  0  0  0  0  0  0
   10.4480  -16.1507   26.6705 O   0  0  0  0  0  0  0  0  0  0  0  0
  1  2  1  0
  2  3  2  0
  4  2  1  0
  4  5  1  0
  5  6  1  0
  6  8  1  0
  6  7  1  6
  8  9  2  0
 10 11  1  0
 10  8  1  0
 11 12  1  1
 13 14  2  0
 13 12  1  0
 15 14  1  0
 16 15  2  0
 17 16  1  0
 17 18  2  0
 18 13  1  0
 19 11  1  0
 20 19  2  0
 21 19  1  0
 21 25  1  0
 22 23  1  0
 22 21  1  0
 23 24  1  0
 24 25  1  0
 25 26  1  1
 26 28  1  0
 27 26  2  0
M  END
$$$$
