QFP.pdb
     RDKit          3D

 28 29  0  0  1  0  0  0  0  0999 V2000
    7.2419  -14.5462   18.4010 N   0  0  0  0  0  0  0  0  0  0  0  0
    8.5279  -13.9635   18.3124 C   0  0  0  0  0  0  0  0  0  0  0  0
    8.6577  -12.8388   17.7790 O   0  0  0  0  0  0  0  0  0  0  0  0
    9.7229  -14.6581   18.8382 C   0  0  0  0  0  0  0  0  0  0  0  0
    9.3398  -16.0139   19.4280 C   0  0  0  0  0  0  0  0  0  0  0  0
   10.2067  -16.3344   20.6113 C   0  0  2  0  0  0  0  0  0  0  0  0
    9.9505  -17.7007   21.0076 N   0  0  0  0  0  0  0  0  0  0  0  0
    9.8293  -15.4444   21.7353 C   0  0  0  0  0  0  0  0  0  0  0  0
   10.0582  -14.1942   21.7069 O   0  0  0  0  0  0  0  0  0  0  0  0
    9.1966  -15.9415   22.8938 N   0  0  0  0  0  0  0  0  0  0  0  0
    8.8765  -15.1030   24.0337 C   0  0  1  0  0  0  0  0  0  0  0  0
    7.4229  -14.6814   23.9887 C   0  0  0  0  0  0  0  0  0  0  0  0
    7.1451  -13.7497   25.1350 C   0  0  0  0  0  0  0  0  0  0  0  0
    6.5027  -14.1785   26.2727 C   0  0  0  0  0  0  0  0  0  0  0  0
    6.2845  -13.2614   27.2798 C   0  0  0  0  0  0  0  0  0  0  0  0
    6.6937  -11.9426   27.1657 C   0  0  0  0  0  0  0  0  0  0  0  0
    7.3373  -11.5151   26.0246 C   0  0  0  0  0  0  0  0  0  0  0  0
    7.5470  -12.4467   25.0274 C   0  0  0  0  0  0  0  0  0  0  0  0
    9.2522  -15.7754   25.2937 C   0  0  0  0  0  0  0  0  0  0  0  0
    9.1326  -17.0514   25.3225 O   0  0  0  0  0  0  0  0  0  0  0  0
    9.7260  -15.1445   26.4527 N   0  0  0  0  0  0  0  0  0  0  0  0
    9.7656  -13.7174   26.6889 C   0  0  0  0  0  0  0  0  0  0  0  0
   10.8809  -13.5620   27.7480 C   0  0  0  0  0  0  0  0  0  0  0  0
   10.5222  -14.7391   28.6304 C   0  0  0  0  0  0  0  0  0  0  0  0
   10.2665  -15.8201   27.6067 C   0  0  1  0  0  0  0  0  0  0  0  0
    9.3630  -16.8743   28.1327 C   0  0  0  0  0  0  0  0  0  0  0  0
    8.1794  -17.0312   27.8022 O   0  0  0  0  0  0  0  0  0  0  0  0
    9.8979  -17.7474   29.0683 O   0  0  0  0  0  0  0  0  0  0  0  0
  1  2  1  0
  2  3  2  0
  4  2  1  0
  4  5  1  0
  5  6  1  0
  6  8  1  0
  6  7  1  1
  8  9  2  0
 10 11  1  0
 10  8  1  0
 11 12  1  1
 13 14  2  0
 13 12  1  0
 15 14  1  0
 16 15  2  0
 17 16  1  0
 17 18  2  0
 18 13  1  0
 19 11  1  0
 20 19  2  0
 21 19  1  0
 21 25  1  0
 22 23  1  0
 22 21  1  0
 23 24  1  0
 24 25  1  0
 25 26  1  1
 26 28  1  0
 27 26  2  0
M  END
$$$$
