QFP.pdb
     RDKit          3D

 28 29  0  0  1  0  0  0  0  0999 V2000
   12.6067  -20.9406   21.2574 N   0  0  0  0  0  0  0  0  0  0  0  0
   11.7684  -20.1200   20.4668 C   0  0  0  0  0  0  0  0  0  0  0  0
   10.7736  -20.6240   19.8987 O   0  0  0  0  0  0  0  0  0  0  0  0
   12.0448  -18.6770   20.2984 C   0  0  0  0  0  0  0  0  0  0  0  0
   11.5896  -17.8959   21.5296 C   0  0  0  0  0  0  0  0  0  0  0  0
   10.4580  -16.9745   21.1766 C   0  0  2  0  0  0  0  0  0  0  0  0
   10.8286  -16.2291   19.9948 N   0  0  0  0  0  0  0  0  0  0  0  0
   10.2578  -16.0153   22.2891 C   0  0  0  0  0  0  0  0  0  0  0  0
   11.1585  -15.1851   22.6292 O   0  0  0  0  0  0  0  0  0  0  0  0
    9.0561  -15.9762   23.0266 N   0  0  0  0  0  0  0  0  0  0  0  0
    8.8131  -15.0080   24.0794 C   0  0  1  0  0  0  0  0  0  0  0  0
    7.4177  -14.4329   23.9576 C   0  0  0  0  0  0  0  0  0  0  0  0
    7.1727  -13.4894   25.1016 C   0  0  0  0  0  0  0  0  0  0  0  0
    6.4852  -13.8830   26.2257 C   0  0  0  0  0  0  0  0  0  0  0  0
    6.3015  -12.9571   27.2317 C   0  0  0  0  0  0  0  0  0  0  0  0
    6.7884  -11.6639   27.1296 C   0  0  0  0  0  0  0  0  0  0  0  0
    7.4770  -11.2717   26.0023 C   0  0  0  0  0  0  0  0  0  0  0  0
    7.6512  -12.2116   25.0060 C   0  0  0  0  0  0  0  0  0  0  0  0
    9.0879  -15.6017   25.4034 C   0  0  0  0  0  0  0  0  0  0  0  0
    8.6451  -16.7878   25.6050 O   0  0  0  0  0  0  0  0  0  0  0  0
    9.7869  -14.9862   26.4514 N   0  0  0  0  0  0  0  0  0  0  0  0
   10.0289  -13.5667   26.5945 C   0  0  0  0  0  0  0  0  0  0  0  0
   11.2882  -13.5081   27.4892 C   0  0  0  0  0  0  0  0  0  0  0  0
   10.9142  -14.5908   28.4795 C   0  0  0  0  0  0  0  0  0  0  0  0
   10.3941  -15.6741   27.5643 C   0  0  1  0  0  0  0  0  0  0  0  0
    9.4507  -16.5814   28.2650 C   0  0  0  0  0  0  0  0  0  0  0  0
    9.7751  -17.4725   29.0620 O   0  0  0  0  0  0  0  0  0  0  0  0
    8.1007  -16.4080   27.9980 O   0  0  0  0  0  0  0  0  0  0  0  0
  1  2  1  0
  2  3  2  0
  4  2  1  0
  4  5  1  0
  5  6  1  0
  6  8  1  0
  6  7  1  6
  8  9  2  0
 10 11  1  0
 10  8  1  0
 11 12  1  1
 13 14  2  0
 13 12  1  0
 15 14  1  0
 16 15  2  0
 17 16  1  0
 17 18  2  0
 18 13  1  0
 19 11  1  0
 20 19  2  0
 21 19  1  0
 21 25  1  0
 22 23  1  0
 22 21  1  0
 23 24  1  0
 24 25  1  0
 25 26  1  1
 26 28  1  0
 27 26  2  0
M  END
$$$$
