QFP.pdb
     RDKit          3D

 28 29  0  0  1  0  0  0  0  0999 V2000
   14.3810  -18.2855   20.8166 N   0  0  0  0  0  0  0  0  0  0  0  0
   13.4818  -19.1081   20.0984 C   0  0  0  0  0  0  0  0  0  0  0  0
   13.9308  -19.9374   19.2757 O   0  0  0  0  0  0  0  0  0  0  0  0
   12.0203  -19.0071   20.3010 C   0  0  0  0  0  0  0  0  0  0  0  0
   11.7010  -18.0266   21.4279 C   0  0  0  0  0  0  0  0  0  0  0  0
   10.3962  -17.3324   21.1641 C   0  0  2  0  0  0  0  0  0  0  0  0
   10.4876  -16.6590   19.8883 N   0  0  0  0  0  0  0  0  0  0  0  0
   10.1771  -16.3107   22.2158 C   0  0  0  0  0  0  0  0  0  0  0  0
   10.8980  -15.2668   22.2974 O   0  0  0  0  0  0  0  0  0  0  0  0
    9.1563  -16.4466   23.1797 N   0  0  0  0  0  0  0  0  0  0  0  0
    8.8792  -15.4302   24.1772 C   0  0  1  0  0  0  0  0  0  0  0  0
    7.4305  -14.9963   24.1022 C   0  0  0  0  0  0  0  0  0  0  0  0
    7.1998  -13.8799   25.0817 C   0  0  0  0  0  0  0  0  0  0  0  0
    6.5559  -14.0925   26.2781 C   0  0  0  0  0  0  0  0  0  0  0  0
    6.3826  -13.0154   27.1224 C   0  0  0  0  0  0  0  0  0  0  0  0
    6.8374  -11.7492   26.7910 C   0  0  0  0  0  0  0  0  0  0  0  0
    7.4823  -11.5385   25.5916 C   0  0  0  0  0  0  0  0  0  0  0  0
    7.6467  -12.6280   24.7595 C   0  0  0  0  0  0  0  0  0  0  0  0
    9.2815  -15.8974   25.5192 C   0  0  0  0  0  0  0  0  0  0  0  0
    9.1166  -17.1443   25.7675 O   0  0  0  0  0  0  0  0  0  0  0  0
    9.8254  -15.1021   26.5378 N   0  0  0  0  0  0  0  0  0  0  0  0
    9.8340  -13.6556   26.5749 C   0  0  0  0  0  0  0  0  0  0  0  0
   11.0253  -13.3298   27.5046 C   0  0  0  0  0  0  0  0  0  0  0  0
   10.7807  -14.3826   28.5651 C   0  0  0  0  0  0  0  0  0  0  0  0
   10.4808  -15.5997   27.7223 C   0  0  1  0  0  0  0  0  0  0  0  0
    9.6604  -16.5926   28.4608 C   0  0  0  0  0  0  0  0  0  0  0  0
   10.0901  -17.3823   29.3131 O   0  0  0  0  0  0  0  0  0  0  0  0
    8.3059  -16.6299   28.1642 O   0  0  0  0  0  0  0  0  0  0  0  0
  1  2  1  0
  2  3  2  0
  4  2  1  0
  4  5  1  0
  5  6  1  0
  6  8  1  0
  6  7  1  6
  8  9  2  0
 10 11  1  0
 10  8  1  0
 11 12  1  1
 13 14  2  0
 13 12  1  0
 15 14  1  0
 16 15  2  0
 17 16  1  0
 17 18  2  0
 18 13  1  0
 19 11  1  0
 20 19  2  0
 21 19  1  0
 21 25  1  0
 22 23  1  0
 22 21  1  0
 23 24  1  0
 24 25  1  0
 25 26  1  1
 26 28  1  0
 27 26  2  0
M  END
$$$$
