QFP.pdb
     RDKit          3D

 28 29  0  0  1  0  0  0  0  0999 V2000
   12.7042  -15.6991   18.1026 N   0  0  0  0  0  0  0  0  0  0  0  0
   12.8809  -17.0920   18.2748 C   0  0  0  0  0  0  0  0  0  0  0  0
   13.3722  -17.7690   17.3438 O   0  0  0  0  0  0  0  0  0  0  0  0
   12.4961  -17.7644   19.5345 C   0  0  0  0  0  0  0  0  0  0  0  0
   12.0504  -16.7396   20.5757 C   0  0  0  0  0  0  0  0  0  0  0  0
   10.7931  -17.1975   21.2568 C   0  0  2  0  0  0  0  0  0  0  0  0
    9.7358  -17.2532   20.2727 N   0  0  0  0  0  0  0  0  0  0  0  0
   10.4180  -16.2009   22.2882 C   0  0  0  0  0  0  0  0  0  0  0  0
   10.9508  -15.0474   22.3314 O   0  0  0  0  0  0  0  0  0  0  0  0
    9.4499  -16.4836   23.2743 N   0  0  0  0  0  0  0  0  0  0  0  0
    9.0315  -15.5093   24.2646 C   0  0  1  0  0  0  0  0  0  0  0  0
    7.5920  -15.1021   24.0310 C   0  0  0  0  0  0  0  0  0  0  0  0
    7.2393  -13.9812   24.9682 C   0  0  0  0  0  0  0  0  0  0  0  0
    6.5550  -14.2093   26.1391 C   0  0  0  0  0  0  0  0  0  0  0  0
    6.2687  -13.1270   26.9450 C   0  0  0  0  0  0  0  0  0  0  0  0
    6.6516  -11.8407   26.6008 C   0  0  0  0  0  0  0  0  0  0  0  0
    7.3373  -11.6145   25.4271 C   0  0  0  0  0  0  0  0  0  0  0  0
    7.6150  -12.7094   24.6333 C   0  0  0  0  0  0  0  0  0  0  0  0
    9.2823  -16.0163   25.6288 C   0  0  0  0  0  0  0  0  0  0  0  0
    9.0567  -17.2622   25.8299 O   0  0  0  0  0  0  0  0  0  0  0  0
    9.7434  -15.2596   26.7153 N   0  0  0  0  0  0  0  0  0  0  0  0
    9.7214  -13.8163   26.8173 C   0  0  0  0  0  0  0  0  0  0  0  0
   10.8434  -13.5137   27.8367 C   0  0  0  0  0  0  0  0  0  0  0  0
   10.5512  -14.6178   28.8310 C   0  0  0  0  0  0  0  0  0  0  0  0
   10.3303  -15.7999   27.9170 C   0  0  1  0  0  0  0  0  0  0  0  0
    9.4833  -16.8390   28.5550 C   0  0  0  0  0  0  0  0  0  0  0  0
    8.3144  -17.1010   28.2393 O   0  0  0  0  0  0  0  0  0  0  0  0
   10.0573  -17.5682   29.5859 O   0  0  0  0  0  0  0  0  0  0  0  0
  1  2  1  0
  2  3  2  0
  4  2  1  0
  4  5  1  0
  5  6  1  0
  6  8  1  0
  6  7  1  6
  8  9  2  0
 10 11  1  0
 10  8  1  0
 11 12  1  1
 13 14  2  0
 13 12  1  0
 15 14  1  0
 16 15  2  0
 17 16  1  0
 17 18  2  0
 18 13  1  0
 19 11  1  0
 20 19  2  0
 21 19  1  0
 21 25  1  0
 22 23  1  0
 22 21  1  0
 23 24  1  0
 24 25  1  0
 25 26  1  1
 26 28  1  0
 27 26  2  0
M  END
$$$$
