QFP.pdb
     RDKit          3D

 28 29  0  0  1  0  0  0  0  0999 V2000
    7.4869  -13.7548   18.0720 N   0  0  0  0  0  0  0  0  0  0  0  0
    8.7865  -14.1195   17.6486 C   0  0  0  0  0  0  0  0  0  0  0  0
    9.2750  -13.5803   16.6303 O   0  0  0  0  0  0  0  0  0  0  0  0
    9.5798  -15.1262   18.3864 C   0  0  0  0  0  0  0  0  0  0  0  0
    8.7847  -15.6739   19.5700 C   0  0  0  0  0  0  0  0  0  0  0  0
    9.7122  -16.2266   20.6133 C   0  0  2  0  0  0  0  0  0  0  0  0
    9.2686  -17.5583   20.9585 N   0  0  0  0  0  0  0  0  0  0  0  0
    9.6275  -15.3780   21.8260 C   0  0  0  0  0  0  0  0  0  0  0  0
    9.9479  -14.1479   21.8076 O   0  0  0  0  0  0  0  0  0  0  0  0
    9.1865  -15.8943   23.0623 N   0  0  0  0  0  0  0  0  0  0  0  0
    8.8235  -15.0460   24.1819 C   0  0  1  0  0  0  0  0  0  0  0  0
    7.3756  -14.6166   24.0728 C   0  0  0  0  0  0  0  0  0  0  0  0
    7.0253  -13.7611   25.2580 C   0  0  0  0  0  0  0  0  0  0  0  0
    7.3310  -12.4209   25.2948 C   0  0  0  0  0  0  0  0  0  0  0  0
    6.9764  -11.7048   26.4193 C   0  0  0  0  0  0  0  0  0  0  0  0
    6.3307  -12.3020   27.4899 C   0  0  0  0  0  0  0  0  0  0  0  0
    6.0254  -13.6452   27.4508 C   0  0  0  0  0  0  0  0  0  0  0  0
    6.3878  -14.3457   26.3176 C   0  0  0  0  0  0  0  0  0  0  0  0
    9.1418  -15.7115   25.4613 C   0  0  0  0  0  0  0  0  0  0  0  0
    8.8353  -16.9527   25.5558 O   0  0  0  0  0  0  0  0  0  0  0  0
    9.7467  -15.1089   26.5734 N   0  0  0  0  0  0  0  0  0  0  0  0
    9.7258  -13.6976   26.8926 C   0  0  0  0  0  0  0  0  0  0  0  0
   10.9794  -13.5138   27.7782 C   0  0  0  0  0  0  0  0  0  0  0  0
   10.8433  -14.7605   28.6268 C   0  0  0  0  0  0  0  0  0  0  0  0
   10.5049  -15.8016   27.5860 C   0  0  1  0  0  0  0  0  0  0  0  0
    9.7680  -16.9488   28.1736 C   0  0  0  0  0  0  0  0  0  0  0  0
   10.2458  -17.7772   28.9611 O   0  0  0  0  0  0  0  0  0  0  0  0
    8.4390  -17.0945   27.8041 O   0  0  0  0  0  0  0  0  0  0  0  0
  1  2  1  0
  2  3  2  0
  4  2  1  0
  4  5  1  0
  5  6  1  0
  6  8  1  0
  6  7  1  1
  8  9  2  0
 10 11  1  0
 10  8  1  0
 11 12  1  1
 13 14  2  0
 13 12  1  0
 15 14  1  0
 16 15  2  0
 17 16  1  0
 17 18  2  0
 18 13  1  0
 19 11  1  0
 20 19  2  0
 21 19  1  0
 21 25  1  0
 22 23  1  0
 22 21  1  0
 23 24  1  0
 24 25  1  0
 25 26  1  1
 26 28  1  0
 27 26  2  0
M  END
$$$$
