QFP.pdb
     RDKit          3D

 28 29  0  0  1  0  0  0  0  0999 V2000
   12.4607  -19.0522   19.5423 N   0  0  0  0  0  0  0  0  0  0  0  0
   11.9476  -20.0128   20.4451 C   0  0  0  0  0  0  0  0  0  0  0  0
   11.7707  -21.1891   20.0560 O   0  0  0  0  0  0  0  0  0  0  0  0
   11.6159  -19.6539   21.8409 C   0  0  0  0  0  0  0  0  0  0  0  0
   11.9466  -18.1874   22.1112 C   0  0  0  0  0  0  0  0  0  0  0  0
   10.8705  -17.2974   21.5597 C   0  0  2  0  0  0  0  0  0  0  0  0
   11.4009  -16.5989   20.4106 N   0  0  0  0  0  0  0  0  0  0  0  0
   10.5064  -16.2938   22.5883 C   0  0  0  0  0  0  0  0  0  0  0  0
   11.3242  -15.3990   22.9713 O   0  0  0  0  0  0  0  0  0  0  0  0
    9.2325  -16.2820   23.1938 N   0  0  0  0  0  0  0  0  0  0  0  0
    8.8548  -15.3148   24.2071 C   0  0  1  0  0  0  0  0  0  0  0  0
    7.4123  -14.8924   24.0237 C   0  0  0  0  0  0  0  0  0  0  0  0
    7.0624  -13.8698   25.0682 C   0  0  0  0  0  0  0  0  0  0  0  0
    7.5079  -12.5716   24.9834 C   0  0  0  0  0  0  0  0  0  0  0  0
    7.1435  -11.6936   25.9830 C   0  0  0  0  0  0  0  0  0  0  0  0
    6.3522  -12.0906   27.0489 C   0  0  0  0  0  0  0  0  0  0  0  0
    5.9068  -13.3921   27.1318 C   0  0  0  0  0  0  0  0  0  0  0  0
    6.2815  -14.2565   26.1225 C   0  0  0  0  0  0  0  0  0  0  0  0
    9.1442  -15.8385   25.5572 C   0  0  0  0  0  0  0  0  0  0  0  0
    8.9408  -17.0903   25.7444 O   0  0  0  0  0  0  0  0  0  0  0  0
    9.6197  -15.0915   26.6443 N   0  0  0  0  0  0  0  0  0  0  0  0
    9.5452  -13.6534   26.7860 C   0  0  0  0  0  0  0  0  0  0  0  0
   10.6956  -13.3317   27.7672 C   0  0  0  0  0  0  0  0  0  0  0  0
   10.4883  -14.4715   28.7423 C   0  0  0  0  0  0  0  0  0  0  0  0
   10.2765  -15.6380   27.8063 C   0  0  1  0  0  0  0  0  0  0  0  0
    9.4980  -16.7262   28.4497 C   0  0  0  0  0  0  0  0  0  0  0  0
    9.9099  -17.4567   29.3615 O   0  0  0  0  0  0  0  0  0  0  0  0
    8.2076  -16.9321   27.9845 O   0  0  0  0  0  0  0  0  0  0  0  0
  1  2  1  0
  2  3  2  0
  4  2  1  0
  4  5  1  0
  5  6  1  0
  6  8  1  0
  6  7  1  6
  8  9  2  0
 10 11  1  0
 10  8  1  0
 11 12  1  1
 13 14  2  0
 13 12  1  0
 15 14  1  0
 16 15  2  0
 17 16  1  0
 17 18  2  0
 18 13  1  0
 19 11  1  0
 20 19  2  0
 21 19  1  0
 21 25  1  0
 22 23  1  0
 22 21  1  0
 23 24  1  0
 24 25  1  0
 25 26  1  1
 26 28  1  0
 27 26  2  0
M  END
$$$$
