QFP.pdb
     RDKit          3D

 28 29  0  0  1  0  0  0  0  0999 V2000
   12.5589  -15.5216   18.3572 N   0  0  0  0  0  0  0  0  0  0  0  0
   12.6982  -16.9284   18.3066 C   0  0  0  0  0  0  0  0  0  0  0  0
   12.9850  -17.4789   17.2198 O   0  0  0  0  0  0  0  0  0  0  0  0
   12.5115  -17.7619   19.5138 C   0  0  0  0  0  0  0  0  0  0  0  0
   12.3311  -16.8834   20.7502 C   0  0  0  0  0  0  0  0  0  0  0  0
   11.3067  -17.4799   21.6717 C   0  0  2  0  0  0  0  0  0  0  0  0
   10.1875  -17.9332   20.8771 N   0  0  0  0  0  0  0  0  0  0  0  0
   10.8253  -16.4265   22.5972 C   0  0  0  0  0  0  0  0  0  0  0  0
   11.4804  -15.3547   22.7925 O   0  0  0  0  0  0  0  0  0  0  0  0
    9.6145  -16.5616   23.3080 N   0  0  0  0  0  0  0  0  0  0  0  0
    9.1480  -15.5694   24.2582 C   0  0  1  0  0  0  0  0  0  0  0  0
    7.6953  -15.2301   23.9987 C   0  0  0  0  0  0  0  0  0  0  0  0
    7.2654  -14.1479   24.9489 C   0  0  0  0  0  0  0  0  0  0  0  0
    6.5660  -14.4339   26.0980 C   0  0  0  0  0  0  0  0  0  0  0  0
    6.2073  -13.3840   26.9178 C   0  0  0  0  0  0  0  0  0  0  0  0
    6.5337  -12.0734   26.6085 C   0  0  0  0  0  0  0  0  0  0  0  0
    7.2345  -11.7893   25.4566 C   0  0  0  0  0  0  0  0  0  0  0  0
    7.5850  -12.8524   24.6484 C   0  0  0  0  0  0  0  0  0  0  0  0
    9.4067  -16.0152   25.6422 C   0  0  0  0  0  0  0  0  0  0  0  0
    9.2341  -17.2617   25.8868 O   0  0  0  0  0  0  0  0  0  0  0  0
    9.8226  -15.1999   26.7043 N   0  0  0  0  0  0  0  0  0  0  0  0
    9.7531  -13.7551   26.7457 C   0  0  0  0  0  0  0  0  0  0  0  0
   10.8452  -13.3747   27.7715 C   0  0  0  0  0  0  0  0  0  0  0  0
   10.5689  -14.4459   28.8055 C   0  0  0  0  0  0  0  0  0  0  0  0
   10.4031  -15.6711   27.9378 C   0  0  1  0  0  0  0  0  0  0  0  0
    9.5771  -16.7099   28.6033 C   0  0  0  0  0  0  0  0  0  0  0  0
    9.9671  -17.4625   29.5067 O   0  0  0  0  0  0  0  0  0  0  0  0
    8.2655  -16.8388   28.1707 O   0  0  0  0  0  0  0  0  0  0  0  0
  1  2  1  0
  2  3  2  0
  4  2  1  0
  4  5  1  0
  5  6  1  0
  6  8  1  0
  6  7  1  6
  8  9  2  0
 10 11  1  0
 10  8  1  0
 11 12  1  1
 13 14  2  0
 13 12  1  0
 15 14  1  0
 16 15  2  0
 17 16  1  0
 17 18  2  0
 18 13  1  0
 19 11  1  0
 20 19  2  0
 21 19  1  0
 21 25  1  0
 22 23  1  0
 22 21  1  0
 23 24  1  0
 24 25  1  0
 25 26  1  1
 26 28  1  0
 27 26  2  0
M  END
$$$$
