EHR.pdb
     RDKit          3D

 31 31  0  0  1  0  0  0  0  0999 V2000
   25.3306  -17.3039  -19.5175 N   0  0  0  0  0  0  0  0  0  0  0  0
   24.3428  -16.9828  -18.4672 C   0  0  1  0  0  0  0  0  0  0  0  0
   23.1087  -16.5096  -19.1789 C   0  0  0  0  0  0  0  0  0  0  0  0
   23.2746  -15.0974  -19.6625 C   0  0  0  0  0  0  0  0  0  0  0  0
   23.3183  -14.1415  -18.5250 C   0  0  0  0  0  0  0  0  0  0  0  0
   22.4137  -14.0444  -17.6708 O   0  0  0  0  0  0  0  0  0  0  0  0
   24.0147  -18.2423  -17.7307 C   0  0  0  0  0  0  0  0  0  0  0  0
   23.4801  -19.2009  -18.3234 O   0  0  0  0  0  0  0  0  0  0  0  0
   24.4155  -13.2780  -18.3566 O   0  0  0  0  0  0  0  0  0  0  0  0
   24.3149  -18.3616  -16.3224 N   0  0  0  0  0  0  0  0  0  0  0  0
   24.0918  -19.6088  -15.6863 C   0  0  1  0  0  0  0  0  0  0  0  0
   25.2293  -19.9368  -14.7001 C   0  0  0  0  0  0  0  0  0  0  0  0
   26.3531  -20.4513  -15.5194 C   0  0  0  0  0  0  0  0  0  0  0  0
   26.4203  -20.5140  -16.9059 C   0  0  0  0  0  0  0  0  0  0  0  0
   27.5936  -21.0434  -17.2762 N   0  0  0  0  0  0  0  0  0  0  0  0
   28.2667  -21.3153  -16.1492 C   0  0  0  0  0  0  0  0  0  0  0  0
   27.5109  -20.9547  -15.0822 N   0  0  0  0  0  0  0  0  0  0  0  0
   22.8463  -19.7535  -14.9363 C   0  0  0  0  0  0  0  0  0  0  0  0
   22.4965  -18.7338  -14.2509 O   0  0  0  0  0  0  0  0  0  0  0  0
   15.9596  -25.3731  -13.8278 N   0  0  0  0  0  0  0  0  0  0  0  0
   15.6894  -24.2617  -12.9956 C   0  0  0  0  0  0  0  0  0  0  0  0
   14.6107  -24.1754  -12.2877 N   0  0  0  0  0  0  0  0  0  0  0  0
   16.6389  -23.1796  -12.9237 N   0  0  0  0  0  0  0  0  0  0  0  0
   17.8596  -23.2336  -13.6837 C   0  0  0  0  0  0  0  0  0  0  0  0
   18.7105  -22.0077  -13.3799 C   0  0  0  0  0  0  0  0  0  0  0  0
   19.9734  -22.0700  -14.2056 C   0  0  0  0  0  0  0  0  0  0  0  0
   20.8668  -20.8877  -14.0232 C   0  0  2  0  0  0  0  0  0  0  0  0
   22.0102  -20.8721  -14.8906 N   0  0  0  0  0  0  0  0  0  0  0  0
   21.2997  -20.8706  -12.5996 C   0  0  0  0  0  0  0  0  0  0  0  0
   22.4479  -21.5656  -12.2681 O   0  0  0  0  0  0  0  0  0  0  0  0
   20.6827  -20.2632  -11.6911 O   0  0  0  0  0  0  0  0  0  0  0  0
  2  1  1  6
  2  3  1  0
  4  3  1  0
  5  4  1  0
  6  5  2  0
  7  8  2  0
  7  2  1  0
  9  5  1  0
 10  7  1  0
 11 10  1  0
 11 12  1  1
 13 17  1  0
 13 12  1  0
 14 13  2  0
 15 14  1  0
 15 16  1  0
 16 17  2  0
 18 11  1  0
 18 19  2  0
 21 20  1  0
 21 22  2  0
 23 24  1  0
 23 21  1  0
 25 26  1  0
 25 24  1  0
 27 26  1  1
 27 28  1  0
 27 29  1  0
 28 18  1  0
 29 30  1  0
 31 29  2  0
M  END
$$$$
