EHR.pdb
     RDKit          3D

 31 31  0  0  1  0  0  0  0  0999 V2000
   27.9813  -20.2147  -16.6586 N   0  0  0  0  0  0  0  0  0  0  0  0
   26.8626  -21.1215  -16.9875 C   0  0  1  0  0  0  0  0  0  0  0  0
   27.4831  -22.4230  -17.4052 C   0  0  0  0  0  0  0  0  0  0  0  0
   28.6880  -22.1911  -18.2714 C   0  0  0  0  0  0  0  0  0  0  0  0
   29.8650  -22.9466  -17.7681 C   0  0  0  0  0  0  0  0  0  0  0  0
   29.8222  -23.7161  -16.7867 O   0  0  0  0  0  0  0  0  0  0  0  0
   26.0640  -21.3518  -15.7442 C   0  0  0  0  0  0  0  0  0  0  0  0
   25.1155  -22.1618  -15.7424 O   0  0  0  0  0  0  0  0  0  0  0  0
   31.1174  -22.8232  -18.3960 O   0  0  0  0  0  0  0  0  0  0  0  0
   26.3846  -20.6370  -14.5301 N   0  0  0  0  0  0  0  0  0  0  0  0
   25.5343  -20.7958  -13.4069 C   0  0  1  0  0  0  0  0  0  0  0  0
   26.2019  -20.2548  -12.1280 C   0  0  0  0  0  0  0  0  0  0  0  0
   25.2930  -20.5990  -11.0081 C   0  0  0  0  0  0  0  0  0  0  0  0
   24.0572  -21.2285  -11.0941 C   0  0  0  0  0  0  0  0  0  0  0  0
   23.5349  -21.3639   -9.8681 N   0  0  0  0  0  0  0  0  0  0  0  0
   24.4182  -20.8318   -9.0117 C   0  0  0  0  0  0  0  0  0  0  0  0
   25.4864  -20.3672   -9.7067 N   0  0  0  0  0  0  0  0  0  0  0  0
   24.2192  -20.1633  -13.4803 C   0  0  0  0  0  0  0  0  0  0  0  0
   24.2272  -18.9016  -13.6802 O   0  0  0  0  0  0  0  0  0  0  0  0
   18.2106  -19.1468  -19.0039 N   0  0  0  0  0  0  0  0  0  0  0  0
   18.4695  -17.9857  -18.2387 C   0  0  0  0  0  0  0  0  0  0  0  0
   18.2328  -16.7962  -18.6872 N   0  0  0  0  0  0  0  0  0  0  0  0
   19.0168  -18.1161  -16.9115 N   0  0  0  0  0  0  0  0  0  0  0  0
   19.3282  -19.4164  -16.3796 C   0  0  0  0  0  0  0  0  0  0  0  0
   19.8701  -19.2775  -14.9632 C   0  0  0  0  0  0  0  0  0  0  0  0
   21.1516  -20.0682  -14.8483 C   0  0  0  0  0  0  0  0  0  0  0  0
   21.7662  -20.0178  -13.4885 C   0  0  2  0  0  0  0  0  0  0  0  0
   22.9731  -20.7833  -13.3571 N   0  0  0  0  0  0  0  0  0  0  0  0
   20.7442  -20.4964  -12.5185 C   0  0  0  0  0  0  0  0  0  0  0  0
   19.7389  -19.6187  -12.1580 O   0  0  0  0  0  0  0  0  0  0  0  0
   20.7465  -21.6457  -12.0145 O   0  0  0  0  0  0  0  0  0  0  0  0
  2  1  1  1
  2  3  1  0
  4  3  1  0
  5  4  1  0
  6  5  2  0
  7  8  2  0
  7  2  1  0
  9  5  1  0
 10  7  1  0
 11 10  1  0
 11 12  1  1
 13 17  1  0
 13 12  1  0
 14 13  2  0
 15 14  1  0
 15 16  1  0
 16 17  2  0
 18 11  1  0
 18 19  2  0
 21 20  1  0
 21 22  2  0
 23 24  1  0
 23 21  1  0
 25 26  1  0
 25 24  1  0
 27 26  1  6
 27 28  1  0
 27 29  1  0
 28 18  1  0
 29 30  1  0
 31 29  2  0
M  END
$$$$
