EHR.pdb
     RDKit          3D

 31 31  0  0  1  0  0  0  0  0999 V2000
   24.8761  -20.0352  -19.8535 N   0  0  0  0  0  0  0  0  0  0  0  0
   24.3263  -19.4104  -18.6331 C   0  0  1  0  0  0  0  0  0  0  0  0
   23.2746  -18.4425  -19.0917 C   0  0  0  0  0  0  0  0  0  0  0  0
   23.6185  -17.8721  -20.4379 C   0  0  0  0  0  0  0  0  0  0  0  0
   23.1359  -16.4722  -20.5675 C   0  0  0  0  0  0  0  0  0  0  0  0
   21.9681  -16.1725  -20.8893 O   0  0  0  0  0  0  0  0  0  0  0  0
   23.6689  -20.4762  -17.8155 C   0  0  0  0  0  0  0  0  0  0  0  0
   22.7339  -21.1516  -18.2904 O   0  0  0  0  0  0  0  0  0  0  0  0
   24.0017  -15.3906  -20.3256 O   0  0  0  0  0  0  0  0  0  0  0  0
   24.1119  -20.7348  -16.4647 N   0  0  0  0  0  0  0  0  0  0  0  0
   23.4966  -21.7871  -15.7407 C   0  0  1  0  0  0  0  0  0  0  0  0
   24.4415  -22.3361  -14.6546 C   0  0  0  0  0  0  0  0  0  0  0  0
   23.8104  -23.5773  -14.1446 C   0  0  0  0  0  0  0  0  0  0  0  0
   22.5759  -24.1011  -14.5084 C   0  0  0  0  0  0  0  0  0  0  0  0
   22.3496  -25.2333  -13.8294 N   0  0  0  0  0  0  0  0  0  0  0  0
   23.4181  -25.4324  -13.0448 C   0  0  0  0  0  0  0  0  0  0  0  0
   24.3051  -24.4246  -13.2378 N   0  0  0  0  0  0  0  0  0  0  0  0
   22.2372  -21.4768  -15.0680 C   0  0  0  0  0  0  0  0  0  0  0  0
   22.2716  -20.4785  -14.2717 O   0  0  0  0  0  0  0  0  0  0  0  0
   14.7048  -21.9789  -18.5286 N   0  0  0  0  0  0  0  0  0  0  0  0
   15.2327  -20.7751  -18.0060 C   0  0  0  0  0  0  0  0  0  0  0  0
   14.6173  -19.6438  -18.1217 N   0  0  0  0  0  0  0  0  0  0  0  0
   16.4996  -20.7934  -17.3186 N   0  0  0  0  0  0  0  0  0  0  0  0
   17.4126  -21.8892  -17.5090 C   0  0  0  0  0  0  0  0  0  0  0  0
   18.7335  -21.5861  -16.8144 C   0  0  0  0  0  0  0  0  0  0  0  0
   18.5801  -21.8437  -15.3343 C   0  0  0  0  0  0  0  0  0  0  0  0
   19.8391  -21.6414  -14.5577 C   0  0  2  0  0  0  0  0  0  0  0  0
   21.0181  -22.1461  -15.2020 N   0  0  0  0  0  0  0  0  0  0  0  0
   19.6565  -22.2940  -13.2329 C   0  0  0  0  0  0  0  0  0  0  0  0
   20.4962  -23.3443  -12.9122 O   0  0  0  0  0  0  0  0  0  0  0  0
   18.7876  -21.9440  -12.3978 O   0  0  0  0  0  0  0  0  0  0  0  0
  2  1  1  6
  2  3  1  0
  4  3  1  0
  5  4  1  0
  6  5  2  0
  7  8  2  0
  7  2  1  0
  9  5  1  0
 10  7  1  0
 11 10  1  0
 11 12  1  1
 13 17  1  0
 13 12  1  0
 14 13  2  0
 15 14  1  0
 15 16  1  0
 16 17  2  0
 18 11  1  0
 18 19  2  0
 21 20  1  0
 21 22  2  0
 23 24  1  0
 23 21  1  0
 25 26  1  0
 25 24  1  0
 27 26  1  6
 27 28  1  0
 27 29  1  0
 28 18  1  0
 29 30  1  0
 31 29  2  0
M  END
$$$$
