EHR.pdb
     RDKit          3D

 31 31  0  0  1  0  0  0  0  0999 V2000
   28.7315  -21.9464  -18.0350 N   0  0  0  0  0  0  0  0  0  0  0  0
   28.8949  -20.6496  -17.3468 C   0  0  1  0  0  0  0  0  0  0  0  0
   29.1427  -19.6303  -18.4204 C   0  0  0  0  0  0  0  0  0  0  0  0
   28.5247  -20.0575  -19.7210 C   0  0  0  0  0  0  0  0  0  0  0  0
   29.5449  -20.6294  -20.6384 C   0  0  0  0  0  0  0  0  0  0  0  0
   30.7745  -20.5250  -20.4533 O   0  0  0  0  0  0  0  0  0  0  0  0
   27.6080  -20.3166  -16.6615 C   0  0  0  0  0  0  0  0  0  0  0  0
   27.5217  -19.3076  -15.9332 O   0  0  0  0  0  0  0  0  0  0  0  0
   29.1563  -21.3351  -21.7912 O   0  0  0  0  0  0  0  0  0  0  0  0
   26.4495  -21.1619  -16.8373 N   0  0  0  0  0  0  0  0  0  0  0  0
   25.2432  -20.8005  -16.1859 C   0  0  1  0  0  0  0  0  0  0  0  0
   24.0215  -21.3762  -16.9275 C   0  0  0  0  0  0  0  0  0  0  0  0
   22.8256  -20.8751  -16.2080 C   0  0  0  0  0  0  0  0  0  0  0  0
   22.1962  -21.4619  -15.1169 C   0  0  0  0  0  0  0  0  0  0  0  0
   21.1468  -20.7158  -14.7478 N   0  0  0  0  0  0  0  0  0  0  0  0
   21.1032  -19.6704  -15.5857 C   0  0  0  0  0  0  0  0  0  0  0  0
   22.1246  -19.7690  -16.4728 N   0  0  0  0  0  0  0  0  0  0  0  0
   25.1011  -21.2045  -14.7890 C   0  0  0  0  0  0  0  0  0  0  0  0
   25.5053  -22.3849  -14.5150 O   0  0  0  0  0  0  0  0  0  0  0  0
   27.2490  -18.4339   -6.9774 N   0  0  0  0  0  0  0  0  0  0  0  0
   26.8706  -19.7795   -6.7608 C   0  0  0  0  0  0  0  0  0  0  0  0
   27.0241  -20.3645   -5.6179 N   0  0  0  0  0  0  0  0  0  0  0  0
   26.2931  -20.5386   -7.8416 N   0  0  0  0  0  0  0  0  0  0  0  0
   26.2367  -19.9845   -9.1684 C   0  0  0  0  0  0  0  0  0  0  0  0
   25.6499  -21.0091  -10.1303 C   0  0  0  0  0  0  0  0  0  0  0  0
   25.6555  -20.4317  -11.5257 C   0  0  0  0  0  0  0  0  0  0  0  0
   24.5722  -20.9701  -12.4007 C   0  0  2  0  0  0  0  0  0  0  0  0
   24.5781  -20.4476  -13.7374 N   0  0  0  0  0  0  0  0  0  0  0  0
   23.2736  -20.6737  -11.7373 C   0  0  0  0  0  0  0  0  0  0  0  0
   22.8746  -21.5027  -10.7054 O   0  0  0  0  0  0  0  0  0  0  0  0
   22.5274  -19.7185  -12.0621 O   0  0  0  0  0  0  0  0  0  0  0  0
  2  1  1  6
  2  3  1  0
  4  3  1  0
  5  4  1  0
  6  5  2  0
  7  8  2  0
  7  2  1  0
  9  5  1  0
 10  7  1  0
 11 10  1  0
 11 12  1  6
 13 17  1  0
 13 12  1  0
 14 13  2  0
 15 14  1  0
 15 16  1  0
 16 17  2  0
 18 11  1  0
 18 19  2  0
 21 20  1  0
 21 22  2  0
 23 24  1  0
 23 21  1  0
 25 26  1  0
 25 24  1  0
 27 26  1  1
 27 28  1  0
 27 29  1  0
 28 18  1  0
 29 30  1  0
 31 29  2  0
M  END
$$$$
