EHR.pdb
     RDKit          3D

 31 31  0  0  1  0  0  0  0  0999 V2000
   26.0567  -20.6553   -9.3405 N   0  0  0  0  0  0  0  0  0  0  0  0
   25.5035  -21.2974  -10.5503 C   0  0  1  0  0  0  0  0  0  0  0  0
   24.0134  -21.3227  -10.3708 C   0  0  0  0  0  0  0  0  0  0  0  0
   23.3760  -20.1127  -10.9917 C   0  0  0  0  0  0  0  0  0  0  0  0
   22.1459  -20.4785  -11.7417 C   0  0  0  0  0  0  0  0  0  0  0  0
   21.2727  -21.2520  -11.2986 O   0  0  0  0  0  0  0  0  0  0  0  0
   25.8268  -20.4353  -11.7287 C   0  0  0  0  0  0  0  0  0  0  0  0
   25.8997  -19.1962  -11.6053 O   0  0  0  0  0  0  0  0  0  0  0  0
   21.9052  -19.9523  -13.0235 O   0  0  0  0  0  0  0  0  0  0  0  0
   26.0591  -21.0307  -13.0246 N   0  0  0  0  0  0  0  0  0  0  0  0
   26.3873  -20.1808  -14.1107 C   0  0  1  0  0  0  0  0  0  0  0  0
   27.6982  -20.6283  -14.7854 C   0  0  0  0  0  0  0  0  0  0  0  0
   27.4859  -22.0319  -15.2140 C   0  0  0  0  0  0  0  0  0  0  0  0
   26.3316  -22.7902  -15.0610 C   0  0  0  0  0  0  0  0  0  0  0  0
   26.5257  -24.0135  -15.5708 N   0  0  0  0  0  0  0  0  0  0  0  0
   27.7803  -24.0401  -16.0421 C   0  0  0  0  0  0  0  0  0  0  0  0
   28.3625  -22.8345  -15.8242 N   0  0  0  0  0  0  0  0  0  0  0  0
   25.3974  -20.0630  -15.1789 C   0  0  0  0  0  0  0  0  0  0  0  0
   24.3574  -20.7928  -15.0464 O   0  0  0  0  0  0  0  0  0  0  0  0
   21.2346  -14.0903  -17.3721 N   0  0  0  0  0  0  0  0  0  0  0  0
   20.0809  -14.8669  -17.1137 C   0  0  0  0  0  0  0  0  0  0  0  0
   18.9173  -14.5513  -17.5810 N   0  0  0  0  0  0  0  0  0  0  0  0
   20.1895  -16.0535  -16.3025 N   0  0  0  0  0  0  0  0  0  0  0  0
   21.4592  -16.4374  -15.7447 C   0  0  0  0  0  0  0  0  0  0  0  0
   22.1916  -17.3555  -16.7141 C   0  0  0  0  0  0  0  0  0  0  0  0
   23.4656  -17.8398  -16.0639 C   0  0  0  0  0  0  0  0  0  0  0  0
   24.2669  -18.7575  -16.9271 C   0  0  2  0  0  0  0  0  0  0  0  0
   25.4671  -19.2488  -16.3123 N   0  0  0  0  0  0  0  0  0  0  0  0
   24.5930  -18.0219  -18.1788 C   0  0  0  0  0  0  0  0  0  0  0  0
   23.5816  -17.8489  -19.1052 O   0  0  0  0  0  0  0  0  0  0  0  0
   25.7286  -17.5537  -18.4360 O   0  0  0  0  0  0  0  0  0  0  0  0
  2  1  1  1
  2  3  1  0
  4  3  1  0
  5  4  1  0
  6  5  2  0
  7  8  2  0
  7  2  1  0
  9  5  1  0
 10  7  1  0
 11 10  1  0
 11 12  1  6
 13 17  1  0
 13 12  1  0
 14 13  2  0
 15 14  1  0
 15 16  1  0
 16 17  2  0
 18 11  1  0
 18 19  2  0
 21 20  1  0
 21 22  2  0
 23 24  1  0
 23 21  1  0
 25 26  1  0
 25 24  1  0
 27 26  1  1
 27 28  1  0
 27 29  1  0
 28 18  1  0
 29 30  1  0
 31 29  2  0
M  END
$$$$
