YDH.pdb
     RDKit          3D

 31 32  0  0  1  0  0  0  0  0999 V2000
   32.1169  -10.7378  -17.7967 O   0  0  0  0  0  0  0  0  0  0  0  0
   30.9127  -10.0783  -17.9475 C   0  0  0  0  0  0  0  0  0  0  0  0
   29.7334  -10.6213  -17.4938 C   0  0  0  0  0  0  0  0  0  0  0  0
   28.5496   -9.9286  -17.6637 C   0  0  0  0  0  0  0  0  0  0  0  0
   28.5488   -8.7053  -18.2811 C   0  0  0  0  0  0  0  0  0  0  0  0
   27.2852   -7.9729  -18.4541 C   0  0  0  0  0  0  0  0  0  0  0  0
   26.5330   -8.5235  -19.6192 C   0  0  2  0  0  0  0  0  0  0  0  0
   27.2487   -8.3036  -20.8385 N   0  0  0  0  0  0  0  0  0  0  0  0
   25.1455   -7.9861  -19.7202 C   0  0  0  0  0  0  0  0  0  0  0  0
   24.9763   -7.0825  -20.5959 O   0  0  0  0  0  0  0  0  0  0  0  0
   29.7287   -8.1767  -18.7274 C   0  0  0  0  0  0  0  0  0  0  0  0
   30.9260   -8.8490  -18.5703 C   0  0  0  0  0  0  0  0  0  0  0  0
   24.0879   -8.4303  -18.9178 N   0  0  0  0  0  0  0  0  0  0  0  0
   22.7590   -7.8794  -19.1193 C   0  0  1  0  0  0  0  0  0  0  0  0
   22.1335   -8.5555  -20.3180 C   0  0  0  0  0  0  0  0  0  0  0  0
   20.7830   -8.0673  -20.6036 C   0  0  0  0  0  0  0  0  0  0  0  0
   20.3347   -7.0787  -19.9886 O   0  0  0  0  0  0  0  0  0  0  0  0
   21.9517   -8.1899  -17.8847 C   0  0  0  0  0  0  0  0  0  0  0  0
   21.5847   -9.3542  -17.6060 O   0  0  0  0  0  0  0  0  0  0  0  0
   20.0037   -8.6939  -21.5488 O   0  0  0  0  0  0  0  0  0  0  0  0
   21.6217   -7.1198  -17.0480 N   0  0  0  0  0  0  0  0  0  0  0  0
   20.9438   -7.2791  -15.7636 C   0  0  1  0  0  0  0  0  0  0  0  0
   22.0229   -7.1538  -14.7027 C   0  0  0  0  0  0  0  0  0  0  0  0
   22.7987   -8.4179  -14.6922 C   0  0  0  0  0  0  0  0  0  0  0  0
   24.1081   -8.6083  -15.1050 C   0  0  0  0  0  0  0  0  0  0  0  0
   24.4646   -9.8915  -14.9397 N   0  0  0  0  0  0  0  0  0  0  0  0
   23.4092  -10.5195  -14.4313 C   0  0  0  0  0  0  0  0  0  0  0  0
   22.3900   -9.6321  -14.2767 N   0  0  0  0  0  0  0  0  0  0  0  0
   19.9398   -6.2038  -15.6538 C   0  0  0  0  0  0  0  0  0  0  0  0
   19.1167   -6.0463  -14.5454 O   0  0  0  0  0  0  0  0  0  0  0  0
   19.7975   -5.3765  -16.5878 O   0  0  0  0  0  0  0  0  0  0  0  0
  2  1  1  0
  3  2  2  0
  4  3  1  0
  5 11  1  0
  5  4  2  0
  6  5  1  0
  7  6  1  0
  7  8  1  6
  9 10  2  0
  9  7  1  0
 11 12  2  0
 12  2  1  0
 13  9  1  0
 14 13  1  0
 14 15  1  6
 16 15  1  0
 16 17  2  0
 18 14  1  0
 19 18  2  0
 20 16  1  0
 21 18  1  0
 22 21  1  0
 23 24  1  0
 22 23  1  1
 24 25  2  0
 26 25  1  0
 27 26  1  0
 28 27  2  0
 28 24  1  0
 29 22  1  0
 29 30  1  0
 31 29  2  0
M  END
$$$$
