YDH.pdb
     RDKit          3D

 31 32  0  0  1  0  0  0  0  0999 V2000
   20.7625  -17.3477  -22.2993 O   0  0  0  0  0  0  0  0  0  0  0  0
   20.7456  -16.0964  -21.7146 C   0  0  0  0  0  0  0  0  0  0  0  0
   21.1207  -14.9717  -22.4114 C   0  0  0  0  0  0  0  0  0  0  0  0
   21.0889  -13.7377  -21.7897 C   0  0  0  0  0  0  0  0  0  0  0  0
   20.6852  -13.6331  -20.4846 C   0  0  0  0  0  0  0  0  0  0  0  0
   20.6503  -12.3156  -19.8318 C   0  0  0  0  0  0  0  0  0  0  0  0
   22.0352  -11.8835  -19.4827 C   0  0  2  0  0  0  0  0  0  0  0  0
   22.6099  -12.7547  -18.5039 N   0  0  0  0  0  0  0  0  0  0  0  0
   22.1029  -10.4649  -19.0278 C   0  0  0  0  0  0  0  0  0  0  0  0
   22.1005  -10.2983  -17.7692 O   0  0  0  0  0  0  0  0  0  0  0  0
   20.3146  -14.7597  -19.8031 C   0  0  0  0  0  0  0  0  0  0  0  0
   20.3376  -16.0054  -20.4013 C   0  0  0  0  0  0  0  0  0  0  0  0
   22.1654   -9.3771  -19.9067 N   0  0  0  0  0  0  0  0  0  0  0  0
   22.1680   -8.0265  -19.3717 C   0  0  1  0  0  0  0  0  0  0  0  0
   22.9041   -7.1267  -20.3380 C   0  0  0  0  0  0  0  0  0  0  0  0
   22.9860   -5.7411  -19.8721 C   0  0  0  0  0  0  0  0  0  0  0  0
   23.2512   -4.8270  -20.6788 O   0  0  0  0  0  0  0  0  0  0  0  0
   20.7313   -7.5837  -19.2621 C   0  0  0  0  0  0  0  0  0  0  0  0
   19.8653   -7.9233  -20.1002 O   0  0  0  0  0  0  0  0  0  0  0  0
   22.7714   -5.4405  -18.5467 O   0  0  0  0  0  0  0  0  0  0  0  0
   20.3918   -6.7699  -18.1774 N   0  0  0  0  0  0  0  0  0  0  0  0
   19.0432   -6.2588  -17.9431 C   0  0  1  0  0  0  0  0  0  0  0  0
   18.2026   -7.4610  -17.5511 C   0  0  0  0  0  0  0  0  0  0  0  0
   16.8478   -6.9720  -17.1966 C   0  0  0  0  0  0  0  0  0  0  0  0
   15.9705   -6.2600  -17.9994 C   0  0  0  0  0  0  0  0  0  0  0  0
   14.8370   -5.9989  -17.3299 N   0  0  0  0  0  0  0  0  0  0  0  0
   14.9768   -6.5295  -16.1193 C   0  0  0  0  0  0  0  0  0  0  0  0
   16.1967   -7.1241  -16.0275 N   0  0  0  0  0  0  0  0  0  0  0  0
   19.1256   -5.2687  -16.8526 C   0  0  0  0  0  0  0  0  0  0  0  0
   18.0817   -4.4112  -16.5275 O   0  0  0  0  0  0  0  0  0  0  0  0
   20.1738   -5.1712  -16.1676 O   0  0  0  0  0  0  0  0  0  0  0  0
  2  1  1  0
  3  2  2  0
  4  3  1  0
  5 11  1  0
  5  4  2  0
  6  5  1  0
  7  6  1  0
  7  8  1  1
  9 10  2  0
  9  7  1  0
 11 12  2  0
 12  2  1  0
 13  9  1  0
 14 13  1  0
 14 15  1  6
 16 15  1  0
 16 17  2  0
 18 14  1  0
 19 18  2  0
 20 16  1  0
 21 18  1  0
 22 21  1  0
 23 24  1  0
 22 23  1  1
 24 25  2  0
 26 25  1  0
 27 26  1  0
 28 27  2  0
 28 24  1  0
 29 22  1  0
 29 30  1  0
 31 29  2  0
M  END
$$$$
