YDH.pdb
     RDKit          3D

 31 32  0  0  1  0  0  0  0  0999 V2000
   27.5094  -19.4598   -5.8965 O   0  0  0  0  0  0  0  0  0  0  0  0
   27.5240  -19.6652   -7.2623 C   0  0  0  0  0  0  0  0  0  0  0  0
   28.7035  -19.7891   -7.9585 C   0  0  0  0  0  0  0  0  0  0  0  0
   28.6748  -19.9945   -9.3249 C   0  0  0  0  0  0  0  0  0  0  0  0
   27.4769  -20.0751   -9.9852 C   0  0  0  0  0  0  0  0  0  0  0  0
   27.4551  -20.2981  -11.4388 C   0  0  0  0  0  0  0  0  0  0  0  0
   26.4074  -21.3028  -11.7842 C   0  0  2  0  0  0  0  0  0  0  0  0
   26.9962  -22.5739  -12.0762 N   0  0  0  0  0  0  0  0  0  0  0  0
   25.5274  -20.8617  -12.9044 C   0  0  0  0  0  0  0  0  0  0  0  0
   26.0078  -21.0252  -14.0682 O   0  0  0  0  0  0  0  0  0  0  0  0
   26.3111  -19.9503   -9.2807 C   0  0  0  0  0  0  0  0  0  0  0  0
   26.3122  -19.7441   -7.9140 C   0  0  0  0  0  0  0  0  0  0  0  0
   24.2579  -20.3040  -12.7119 N   0  0  0  0  0  0  0  0  0  0  0  0
   23.1877  -20.6285  -13.6390 C   0  0  1  0  0  0  0  0  0  0  0  0
   22.9309  -22.1169  -13.5769 C   0  0  0  0  0  0  0  0  0  0  0  0
   23.6772  -22.8637  -14.5912 C   0  0  0  0  0  0  0  0  0  0  0  0
   24.1058  -24.0068  -14.3339 O   0  0  0  0  0  0  0  0  0  0  0  0
   21.9584  -19.8834  -13.1852 C   0  0  0  0  0  0  0  0  0  0  0  0
   21.3800  -20.1499  -12.1071 O   0  0  0  0  0  0  0  0  0  0  0  0
   23.9089  -22.3110  -15.8298 O   0  0  0  0  0  0  0  0  0  0  0  0
   21.4784  -18.8695  -14.0192 N   0  0  0  0  0  0  0  0  0  0  0  0
   20.1167  -18.3443  -13.9493 C   0  0  1  0  0  0  0  0  0  0  0  0
   19.6238  -18.2677  -15.3835 C   0  0  0  0  0  0  0  0  0  0  0  0
   20.4672  -17.2813  -16.1017 C   0  0  0  0  0  0  0  0  0  0  0  0
   21.4406  -16.4533  -15.5650 C   0  0  0  0  0  0  0  0  0  0  0  0
   21.9931  -15.7012  -16.5294 N   0  0  0  0  0  0  0  0  0  0  0  0
   21.3906  -16.0340  -17.6665 C   0  0  0  0  0  0  0  0  0  0  0  0
   20.4604  -16.9947  -17.4176 N   0  0  0  0  0  0  0  0  0  0  0  0
   19.3168  -19.2870  -13.1446 C   0  0  0  0  0  0  0  0  0  0  0  0
   19.2133  -20.6400  -13.4438 O   0  0  0  0  0  0  0  0  0  0  0  0
   18.6883  -18.8796  -12.1364 O   0  0  0  0  0  0  0  0  0  0  0  0
  2  1  1  0
  3  2  2  0
  4  3  1  0
  5 11  1  0
  5  4  2  0
  6  5  1  0
  7  6  1  0
  7  8  1  6
  9 10  2  0
  9  7  1  0
 11 12  2  0
 12  2  1  0
 13  9  1  0
 14 13  1  0
 14 15  1  1
 16 15  1  0
 16 17  2  0
 18 14  1  0
 19 18  2  0
 20 16  1  0
 21 18  1  0
 22 21  1  0
 23 24  1  0
 22 23  1  6
 24 25  2  0
 26 25  1  0
 27 26  1  0
 28 27  2  0
 28 24  1  0
 29 22  1  0
 29 30  1  0
 31 29  2  0
M  END
$$$$
