YDH.pdb
     RDKit          3D

 31 32  0  0  1  0  0  0  0  0999 V2000
   22.5408   -2.3280  -13.9606 O   0  0  0  0  0  0  0  0  0  0  0  0
   21.7655   -3.3853  -14.3951 C   0  0  0  0  0  0  0  0  0  0  0  0
   20.8191   -3.2262  -15.3801 C   0  0  0  0  0  0  0  0  0  0  0  0
   20.0642   -4.3101  -15.7871 C   0  0  0  0  0  0  0  0  0  0  0  0
   20.2568   -5.5392  -15.2129 C   0  0  0  0  0  0  0  0  0  0  0  0
   19.4521   -6.6883  -15.6547 C   0  0  0  0  0  0  0  0  0  0  0  0
   20.2481   -7.5390  -16.5870 C   0  0  2  0  0  0  0  0  0  0  0  0
   20.6092   -6.8075  -17.7626 N   0  0  0  0  0  0  0  0  0  0  0  0
   19.5540   -8.8079  -16.9504 C   0  0  0  0  0  0  0  0  0  0  0  0
   18.8695   -8.7649  -18.0188 O   0  0  0  0  0  0  0  0  0  0  0  0
   21.2015   -5.6836  -14.2344 C   0  0  0  0  0  0  0  0  0  0  0  0
   21.9693   -4.6160  -13.8092 C   0  0  0  0  0  0  0  0  0  0  0  0
   19.6359   -9.9765  -16.1841 N   0  0  0  0  0  0  0  0  0  0  0  0
   18.9015  -11.1577  -16.6030 C   0  0  1  0  0  0  0  0  0  0  0  0
   19.8120  -12.3587  -16.4844 C   0  0  0  0  0  0  0  0  0  0  0  0
   19.1814  -13.5960  -16.9480 C   0  0  0  0  0  0  0  0  0  0  0  0
   19.1040  -13.8362  -18.1698 O   0  0  0  0  0  0  0  0  0  0  0  0
   17.7312  -11.3153  -15.6660 C   0  0  0  0  0  0  0  0  0  0  0  0
   17.8191  -11.0580  -14.4438 O   0  0  0  0  0  0  0  0  0  0  0  0
   18.6726  -14.4978  -16.0417 O   0  0  0  0  0  0  0  0  0  0  0  0
   16.5263  -11.7640  -16.2145 N   0  0  0  0  0  0  0  0  0  0  0  0
   15.3143  -11.9837  -15.4284 C   0  0  1  0  0  0  0  0  0  0  0  0
   14.2420  -11.1149  -16.0615 C   0  0  0  0  0  0  0  0  0  0  0  0
   12.9768  -11.3432  -15.3217 C   0  0  0  0  0  0  0  0  0  0  0  0
   12.7912  -11.3480  -13.9481 C   0  0  0  0  0  0  0  0  0  0  0  0
   11.5034  -11.5862  -13.6550 N   0  0  0  0  0  0  0  0  0  0  0  0
   10.8681  -11.7332  -14.8132 C   0  0  0  0  0  0  0  0  0  0  0  0
   11.7553  -11.5872  -15.8338 N   0  0  0  0  0  0  0  0  0  0  0  0
   14.9804  -13.4179  -15.5168 C   0  0  0  0  0  0  0  0  0  0  0  0
   14.2343  -14.0828  -14.5513 O   0  0  0  0  0  0  0  0  0  0  0  0
   15.3736  -14.0975  -16.4970 O   0  0  0  0  0  0  0  0  0  0  0  0
  2  1  1  0
  3  2  2  0
  4  3  1  0
  5 11  1  0
  5  4  2  0
  6  5  1  0
  7  6  1  0
  7  8  1  6
  9 10  2  0
  9  7  1  0
 11 12  2  0
 12  2  1  0
 13  9  1  0
 14 13  1  0
 14 15  1  1
 16 15  1  0
 16 17  2  0
 18 14  1  0
 19 18  2  0
 20 16  1  0
 21 18  1  0
 22 21  1  0
 23 24  1  0
 22 23  1  6
 24 25  2  0
 26 25  1  0
 27 26  1  0
 28 27  2  0
 28 24  1  0
 29 22  1  0
 29 30  1  0
 31 29  2  0
M  END
$$$$
