YDH.pdb
     RDKit          3D

 31 32  0  0  1  0  0  0  0  0999 V2000
   22.0814  -24.0187  -19.2056 O   0  0  0  0  0  0  0  0  0  0  0  0
   23.2969  -24.6407  -18.9970 C   0  0  0  0  0  0  0  0  0  0  0  0
   23.3951  -26.0076  -18.8826 C   0  0  0  0  0  0  0  0  0  0  0  0
   24.6306  -26.5912  -18.6749 C   0  0  0  0  0  0  0  0  0  0  0  0
   25.7544  -25.8127  -18.5833 C   0  0  0  0  0  0  0  0  0  0  0  0
   27.0659  -26.4420  -18.3663 C   0  0  0  0  0  0  0  0  0  0  0  0
   27.0176  -27.3159  -17.1578 C   0  0  2  0  0  0  0  0  0  0  0  0
   26.9061  -26.5322  -15.9658 N   0  0  0  0  0  0  0  0  0  0  0  0
   28.1795  -28.2464  -17.0680 C   0  0  0  0  0  0  0  0  0  0  0  0
   29.1198  -27.8677  -16.3036 O   0  0  0  0  0  0  0  0  0  0  0  0
   25.6426  -24.4544  -18.6990 C   0  0  0  0  0  0  0  0  0  0  0  0
   24.4192  -23.8459  -18.9067 C   0  0  0  0  0  0  0  0  0  0  0  0
   28.2516  -29.4571  -17.7671 N   0  0  0  0  0  0  0  0  0  0  0  0
   29.4059  -30.3197  -17.5834 C   0  0  1  0  0  0  0  0  0  0  0  0
   29.0060  -31.4779  -16.6981 C   0  0  0  0  0  0  0  0  0  0  0  0
   29.9551  -31.7122  -15.6080 C   0  0  0  0  0  0  0  0  0  0  0  0
   30.9775  -31.0042  -15.5089 O   0  0  0  0  0  0  0  0  0  0  0  0
   29.8027  -30.8355  -18.9431 C   0  0  0  0  0  0  0  0  0  0  0  0
   28.9539  -31.1780  -19.7976 O   0  0  0  0  0  0  0  0  0  0  0  0
   29.7251  -32.7110  -14.6900 O   0  0  0  0  0  0  0  0  0  0  0  0
   31.1695  -30.9194  -19.2236 N   0  0  0  0  0  0  0  0  0  0  0  0
   31.7056  -31.4608  -20.4704 C   0  0  1  0  0  0  0  0  0  0  0  0
   33.1725  -31.0699  -20.4996 C   0  0  0  0  0  0  0  0  0  0  0  0
   33.7325  -31.5038  -21.8028 C   0  0  0  0  0  0  0  0  0  0  0  0
   33.3344  -31.1024  -23.0684 C   0  0  0  0  0  0  0  0  0  0  0  0
   34.0814  -31.7093  -24.0037 N   0  0  0  0  0  0  0  0  0  0  0  0
   34.9445  -32.4874  -23.3586 C   0  0  0  0  0  0  0  0  0  0  0  0
   34.7409  -32.3699  -22.0189 N   0  0  0  0  0  0  0  0  0  0  0  0
   31.5293  -32.9249  -20.4320 C   0  0  0  0  0  0  0  0  0  0  0  0
   31.8257  -33.6945  -19.3136 O   0  0  0  0  0  0  0  0  0  0  0  0
   31.0934  -33.5341  -21.4400 O   0  0  0  0  0  0  0  0  0  0  0  0
  2  1  1  0
  3  2  2  0
  4  3  1  0
  5 11  1  0
  5  4  2  0
  6  5  1  0
  7  6  1  0
  7  8  1  1
  9 10  2  0
  9  7  1  0
 11 12  2  0
 12  2  1  0
 13  9  1  0
 14 13  1  0
 14 15  1  1
 16 15  1  0
 16 17  2  0
 18 14  1  0
 19 18  2  0
 20 16  1  0
 21 18  1  0
 22 21  1  0
 23 24  1  0
 22 23  1  1
 24 25  2  0
 26 25  1  0
 27 26  1  0
 28 27  2  0
 28 24  1  0
 29 22  1  0
 29 30  1  0
 31 29  2  0
M  END
$$$$
