YDH.pdb
     RDKit          3D

 31 32  0  0  1  0  0  0  0  0999 V2000
   23.9773    1.9854  -13.8027 O   0  0  0  0  0  0  0  0  0  0  0  0
   23.1263    0.8982  -13.8429 C   0  0  0  0  0  0  0  0  0  0  0  0
   22.1818    0.6875  -12.8657 C   0  0  0  0  0  0  0  0  0  0  0  0
   21.3488   -0.4127  -12.9432 C   0  0  0  0  0  0  0  0  0  0  0  0
   21.4618   -1.2910  -13.9888 C   0  0  0  0  0  0  0  0  0  0  0  0
   20.5687   -2.4570  -14.0659 C   0  0  0  0  0  0  0  0  0  0  0  0
   19.4336   -2.1686  -14.9905 C   0  0  2  0  0  0  0  0  0  0  0  0
   18.5582   -1.1841  -14.4320 N   0  0  0  0  0  0  0  0  0  0  0  0
   18.6719   -3.3923  -15.3731 C   0  0  0  0  0  0  0  0  0  0  0  0
   17.6651   -3.6542  -14.6452 O   0  0  0  0  0  0  0  0  0  0  0  0
   22.4054   -1.0696  -14.9539 C   0  0  0  0  0  0  0  0  0  0  0  0
   23.2507    0.0225  -14.8998 C   0  0  0  0  0  0  0  0  0  0  0  0
   19.0222   -4.2103  -16.4538 N   0  0  0  0  0  0  0  0  0  0  0  0
   18.1883   -5.3530  -16.7837 C   0  0  1  0  0  0  0  0  0  0  0  0
   18.4918   -5.7776  -18.2025 C   0  0  0  0  0  0  0  0  0  0  0  0
   17.6438   -6.8810  -18.6577 C   0  0  0  0  0  0  0  0  0  0  0  0
   17.3992   -7.8356  -17.8926 O   0  0  0  0  0  0  0  0  0  0  0  0
   18.5530   -6.4650  -15.8336 C   0  0  0  0  0  0  0  0  0  0  0  0
   19.5890   -6.4262  -15.1315 O   0  0  0  0  0  0  0  0  0  0  0  0
   17.1136   -6.8709  -19.9273 O   0  0  0  0  0  0  0  0  0  0  0  0
   17.6834   -7.5570  -15.7601 N   0  0  0  0  0  0  0  0  0  0  0  0
   17.4920   -8.3561  -14.5519 C   0  0  1  0  0  0  0  0  0  0  0  0
   17.0094   -7.3906  -13.4840 C   0  0  0  0  0  0  0  0  0  0  0  0
   16.6198   -8.1865  -12.2945 C   0  0  0  0  0  0  0  0  0  0  0  0
   17.4305   -8.5862  -11.2438 C   0  0  0  0  0  0  0  0  0  0  0  0
   16.7181   -9.2892  -10.3497 N   0  0  0  0  0  0  0  0  0  0  0  0
   15.4728   -9.3445  -10.8111 C   0  0  0  0  0  0  0  0  0  0  0  0
   15.4019   -8.6766  -11.9939 N   0  0  0  0  0  0  0  0  0  0  0  0
   16.4816   -9.3871  -14.8556 C   0  0  0  0  0  0  0  0  0  0  0  0
   15.3354   -9.1291  -15.5977 O   0  0  0  0  0  0  0  0  0  0  0  0
   16.6346  -10.5618  -14.4388 O   0  0  0  0  0  0  0  0  0  0  0  0
  2  1  1  0
  3  2  2  0
  4  3  1  0
  5 11  1  0
  5  4  2  0
  6  5  1  0
  7  6  1  0
  7  8  1  1
  9 10  2  0
  9  7  1  0
 11 12  2  0
 12  2  1  0
 13  9  1  0
 14 13  1  0
 14 15  1  6
 16 15  1  0
 16 17  2  0
 18 14  1  0
 19 18  2  0
 20 16  1  0
 21 18  1  0
 22 21  1  0
 23 24  1  0
 22 23  1  1
 24 25  2  0
 26 25  1  0
 27 26  1  0
 28 27  2  0
 28 24  1  0
 29 22  1  0
 29 30  1  0
 31 29  2  0
M  END
$$$$
