YDH.pdb
     RDKit          3D

 31 32  0  0  1  0  0  0  0  0999 V2000
   15.7673  -19.1835  -15.8120 O   0  0  0  0  0  0  0  0  0  0  0  0
   16.4108  -17.9800  -16.0251 C   0  0  0  0  0  0  0  0  0  0  0  0
   17.2560  -17.7957  -17.0941 C   0  0  0  0  0  0  0  0  0  0  0  0
   17.8802  -16.5755  -17.2722 C   0  0  0  0  0  0  0  0  0  0  0  0
   17.6587  -15.5521  -16.3884 C   0  0  0  0  0  0  0  0  0  0  0  0
   18.3236  -14.2554  -16.5876 C   0  0  0  0  0  0  0  0  0  0  0  0
   17.3306  -13.2383  -17.0410 C   0  0  2  0  0  0  0  0  0  0  0  0
   16.8027  -13.5785  -18.3267 N   0  0  0  0  0  0  0  0  0  0  0  0
   17.8819  -11.8527  -17.0494 C   0  0  0  0  0  0  0  0  0  0  0  0
   18.5002  -11.5214  -18.1077 O   0  0  0  0  0  0  0  0  0  0  0  0
   16.8156  -15.7488  -15.3295 C   0  0  0  0  0  0  0  0  0  0  0  0
   16.1794  -16.9592  -15.1286 C   0  0  0  0  0  0  0  0  0  0  0  0
   17.7410  -10.9618  -15.9788 N   0  0  0  0  0  0  0  0  0  0  0  0
   18.4217   -9.6793  -16.0231 C   0  0  1  0  0  0  0  0  0  0  0  0
   17.5894   -8.6657  -15.2713 C   0  0  0  0  0  0  0  0  0  0  0  0
   18.2548   -7.3676  -15.1451 C   0  0  0  0  0  0  0  0  0  0  0  0
   18.1791   -6.7299  -14.0755 O   0  0  0  0  0  0  0  0  0  0  0  0
   19.7518   -9.8523  -15.3351 C   0  0  0  0  0  0  0  0  0  0  0  0
   19.8401  -10.2330  -14.1456 O   0  0  0  0  0  0  0  0  0  0  0  0
   18.9651   -6.8459  -16.2018 O   0  0  0  0  0  0  0  0  0  0  0  0
   20.9007   -9.5703  -16.0798 N   0  0  0  0  0  0  0  0  0  0  0  0
   22.2533   -9.6308  -15.5305 C   0  0  1  0  0  0  0  0  0  0  0  0
   23.1730   -9.8873  -16.7111 C   0  0  0  0  0  0  0  0  0  0  0  0
   24.5631   -9.9550  -16.1979 C   0  0  0  0  0  0  0  0  0  0  0  0
   24.9809  -10.3773  -14.9456 C   0  0  0  0  0  0  0  0  0  0  0  0
   26.3175  -10.3006  -14.8524 N   0  0  0  0  0  0  0  0  0  0  0  0
   26.7566   -9.8383  -16.0187 C   0  0  0  0  0  0  0  0  0  0  0  0
   25.6972   -9.6246  -16.8447 N   0  0  0  0  0  0  0  0  0  0  0  0
   22.5324   -8.3313  -14.8905 C   0  0  0  0  0  0  0  0  0  0  0  0
   22.1981   -7.1138  -15.4709 O   0  0  0  0  0  0  0  0  0  0  0  0
   23.0970   -8.2891  -13.7695 O   0  0  0  0  0  0  0  0  0  0  0  0
  2  1  1  0
  3  2  2  0
  4  3  1  0
  5 11  1  0
  5  4  2  0
  6  5  1  0
  7  6  1  0
  7  8  1  6
  9 10  2  0
  9  7  1  0
 11 12  2  0
 12  2  1  0
 13  9  1  0
 14 13  1  0
 14 15  1  1
 16 15  1  0
 16 17  2  0
 18 14  1  0
 19 18  2  0
 20 16  1  0
 21 18  1  0
 22 21  1  0
 23 24  1  0
 22 23  1  6
 24 25  2  0
 26 25  1  0
 27 26  1  0
 28 27  2  0
 28 24  1  0
 29 22  1  0
 29 30  1  0
 31 29  2  0
M  END
$$$$
