KHK.pdb
     RDKit          3D

 29 29  0  0  1  0  0  0  0  0999 V2000
   22.2885  -19.4067  -18.1896 N   0  0  0  0  0  0  0  0  0  0  0  0
   22.5458  -18.6048  -17.0134 C   0  0  1  0  0  0  0  0  0  0  0  0
   21.2406  -18.4957  -16.2569 C   0  0  0  0  0  0  0  0  0  0  0  0
   20.5283  -17.2702  -16.7859 C   0  0  0  0  0  0  0  0  0  0  0  0
   19.8670  -17.4742  -18.1081 C   0  0  0  0  0  0  0  0  0  0  0  0
   19.2241  -16.1936  -18.5775 C   0  0  0  0  0  0  0  0  0  0  0  0
   18.6070  -16.4964  -19.8723 N   0  0  0  0  0  0  0  0  0  0  0  0
   23.6022  -19.2631  -16.2175 C   0  0  0  0  0  0  0  0  0  0  0  0
   23.4595  -20.4584  -15.8812 O   0  0  0  0  0  0  0  0  0  0  0  0
   24.7919  -18.6046  -15.8049 N   0  0  0  0  0  0  0  0  0  0  0  0
   25.8102  -19.2631  -14.9849 C   0  0  1  0  0  0  0  0  0  0  0  0
   27.1539  -18.6624  -15.2397 C   0  0  0  0  0  0  0  0  0  0  0  0
   27.7820  -19.0514  -16.5101 C   0  0  0  0  0  0  0  0  0  0  0  0
   27.2633  -19.9197  -17.4317 C   0  0  0  0  0  0  0  0  0  0  0  0
   28.1713  -19.9921  -18.4406 N   0  0  0  0  0  0  0  0  0  0  0  0
   29.2088  -19.1915  -18.1386 C   0  0  0  0  0  0  0  0  0  0  0  0
   28.9862  -18.6044  -16.9537 N   0  0  0  0  0  0  0  0  0  0  0  0
   25.4082  -19.2262  -13.5448 C   0  0  0  0  0  0  0  0  0  0  0  0
   24.7294  -18.2599  -13.1184 O   0  0  0  0  0  0  0  0  0  0  0  0
   25.7996  -20.2739  -12.6984 N   0  0  0  0  0  0  0  0  0  0  0  0
   25.2220  -20.4357  -11.3795 C   0  0  1  0  0  0  0  0  0  0  0  0
   23.7467  -20.6699  -11.5870 C   0  0  0  0  0  0  0  0  0  0  0  0
   22.8873  -19.9767  -10.5626 C   0  0  0  0  0  0  0  0  0  0  0  0
   21.4161  -20.2301  -10.8531 C   0  0  0  0  0  0  0  0  0  0  0  0
   20.6341  -19.4735   -9.7896 C   0  0  0  0  0  0  0  0  0  0  0  0
   19.2115  -19.6644  -10.0473 N   0  0  0  0  0  0  0  0  0  0  0  0
   25.9128  -21.4955  -10.6421 C   0  0  0  0  0  0  0  0  0  0  0  0
   26.3817  -22.5060  -11.2085 O   0  0  0  0  0  0  0  0  0  0  0  0
   26.0618  -21.3954   -9.2737 O   0  0  0  0  0  0  0  0  0  0  0  0
  2  8  1  0
  2  1  1  6
  3  2  1  0
  4  3  1  0
  4  5  1  0
  5  6  1  0
  7  6  1  0
  8  9  2  0
 10 11  1  0
 10  8  1  0
 12 13  1  0
 11 12  1  1
 13 14  2  0
 14 15  1  0
 16 15  1  0
 17 13  1  0
 17 16  2  0
 18 11  1  0
 19 18  2  0
 20 18  1  0
 21 20  1  0
 21 27  1  0
 21 22  1  6
 23 22  1  0
 23 24  1  0
 25 24  1  0
 26 25  1  0
 27 29  1  0
 28 27  2  0
M  END
$$$$
