KHK.pdb
     RDKit          3D

 29 29  0  0  1  0  0  0  0  0999 V2000
   27.8299  -21.3618  -16.0646 N   0  0  0  0  0  0  0  0  0  0  0  0
   26.8697  -20.3649  -15.6439 C   0  0  1  0  0  0  0  0  0  0  0  0
   25.9260  -20.1407  -16.8044 C   0  0  0  0  0  0  0  0  0  0  0  0
   26.7313  -19.4832  -17.9036 C   0  0  0  0  0  0  0  0  0  0  0  0
   25.9168  -19.0419  -19.0738 C   0  0  0  0  0  0  0  0  0  0  0  0
   26.8054  -18.4568  -20.1421 C   0  0  0  0  0  0  0  0  0  0  0  0
   25.9227  -18.0944  -21.2551 N   0  0  0  0  0  0  0  0  0  0  0  0
   26.1712  -20.8631  -14.4411 C   0  0  0  0  0  0  0  0  0  0  0  0
   25.6083  -21.9785  -14.4786 O   0  0  0  0  0  0  0  0  0  0  0  0
   26.1011  -20.1352  -13.2228 N   0  0  0  0  0  0  0  0  0  0  0  0
   25.3029  -20.5877  -12.0821 C   0  0  1  0  0  0  0  0  0  0  0  0
   26.0193  -20.3100  -10.8011 C   0  0  0  0  0  0  0  0  0  0  0  0
   27.4151  -20.7674  -10.7533 C   0  0  0  0  0  0  0  0  0  0  0  0
   28.0705  -21.4563  -11.7374 C   0  0  0  0  0  0  0  0  0  0  0  0
   29.3287  -21.6788  -11.2739 N   0  0  0  0  0  0  0  0  0  0  0  0
   29.4319  -21.1406  -10.0457 C   0  0  0  0  0  0  0  0  0  0  0  0
   28.2633  -20.5753   -9.7092 N   0  0  0  0  0  0  0  0  0  0  0  0
   23.9376  -19.9801  -12.1412 C   0  0  0  0  0  0  0  0  0  0  0  0
   23.7131  -19.0449  -12.9482 O   0  0  0  0  0  0  0  0  0  0  0  0
   22.9344  -20.4681  -11.2911 N   0  0  0  0  0  0  0  0  0  0  0  0
   21.5302  -20.3159  -11.6142 C   0  0  1  0  0  0  0  0  0  0  0  0
   21.2964  -21.1050  -12.8778 C   0  0  0  0  0  0  0  0  0  0  0  0
   20.7779  -20.2633  -14.0141 C   0  0  0  0  0  0  0  0  0  0  0  0
   20.6053  -21.1149  -15.2624 C   0  0  0  0  0  0  0  0  0  0  0  0
   20.1031  -20.1791  -16.3519 C   0  0  0  0  0  0  0  0  0  0  0  0
   19.8468  -20.9701  -17.5500 N   0  0  0  0  0  0  0  0  0  0  0  0
   20.6953  -20.7149  -10.4794 C   0  0  0  0  0  0  0  0  0  0  0  0
   20.9913  -21.6770   -9.7388 O   0  0  0  0  0  0  0  0  0  0  0  0
   19.5368  -20.0187  -10.2004 O   0  0  0  0  0  0  0  0  0  0  0  0
  2  8  1  0
  2  1  1  6
  3  2  1  0
  4  3  1  0
  4  5  1  0
  5  6  1  0
  7  6  1  0
  8  9  2  0
 10 11  1  0
 10  8  1  0
 12 13  1  0
 11 12  1  1
 13 14  2  0
 14 15  1  0
 16 15  1  0
 17 13  1  0
 17 16  2  0
 18 11  1  0
 19 18  2  0
 20 18  1  0
 21 20  1  0
 21 27  1  0
 21 22  1  6
 23 22  1  0
 23 24  1  0
 25 24  1  0
 26 25  1  0
 27 29  1  0
 28 27  2  0
M  END
$$$$
