KHK.pdb
     RDKit          3D

 29 29  0  0  1  0  0  0  0  0999 V2000
   21.8761   -8.8134  -15.0944 N   0  0  0  0  0  0  0  0  0  0  0  0
   20.8674   -9.2306  -16.0438 C   0  0  1  0  0  0  0  0  0  0  0  0
   20.1620   -7.9801  -16.5194 C   0  0  0  0  0  0  0  0  0  0  0  0
   20.3158   -6.9468  -15.4250 C   0  0  0  0  0  0  0  0  0  0  0  0
   19.5640   -5.6817  -15.6728 C   0  0  0  0  0  0  0  0  0  0  0  0
   19.7522   -4.7245  -14.5231 C   0  0  0  0  0  0  0  0  0  0  0  0
   19.0454   -3.4950  -14.8945 N   0  0  0  0  0  0  0  0  0  0  0  0
   21.5315   -9.9543  -17.1475 C   0  0  0  0  0  0  0  0  0  0  0  0
   20.8807  -10.2269  -18.1792 O   0  0  0  0  0  0  0  0  0  0  0  0
   22.8909  -10.3657  -17.1035 N   0  0  0  0  0  0  0  0  0  0  0  0
   23.5460  -11.0349  -18.2286 C   0  0  1  0  0  0  0  0  0  0  0  0
   24.9589  -10.5688  -18.3620 C   0  0  0  0  0  0  0  0  0  0  0  0
   25.8000  -10.7745  -17.1747 C   0  0  0  0  0  0  0  0  0  0  0  0
   26.5387  -11.8920  -16.8954 C   0  0  0  0  0  0  0  0  0  0  0  0
   27.1500  -11.6573  -15.7044 N   0  0  0  0  0  0  0  0  0  0  0  0
   26.7920  -10.4340  -15.2753 C   0  0  0  0  0  0  0  0  0  0  0  0
   25.9612   -9.8761  -16.1680 N   0  0  0  0  0  0  0  0  0  0  0  0
   23.4228  -12.5182  -18.0822 C   0  0  0  0  0  0  0  0  0  0  0  0
   23.4625  -13.0304  -16.9366 O   0  0  0  0  0  0  0  0  0  0  0  0
   23.2660  -13.3081  -19.2306 N   0  0  0  0  0  0  0  0  0  0  0  0
   22.9937  -14.7283  -19.1394 C   0  0  1  0  0  0  0  0  0  0  0  0
   21.6937  -14.8648  -18.3874 C   0  0  0  0  0  0  0  0  0  0  0  0
   21.1630  -16.2742  -18.3733 C   0  0  0  0  0  0  0  0  0  0  0  0
   19.8466  -16.3322  -17.6137 C   0  0  0  0  0  0  0  0  0  0  0  0
   19.3530  -17.7673  -17.7232 C   0  0  0  0  0  0  0  0  0  0  0  0
   18.1766  -17.9111  -16.8734 N   0  0  0  0  0  0  0  0  0  0  0  0
   22.9989  -15.3394  -20.4700 C   0  0  0  0  0  0  0  0  0  0  0  0
   23.3712  -16.5168  -20.6622 O   0  0  0  0  0  0  0  0  0  0  0  0
   22.5828  -14.6077  -21.5637 O   0  0  0  0  0  0  0  0  0  0  0  0
  2  8  1  0
  2  1  1  1
  3  2  1  0
  4  3  1  0
  4  5  1  0
  5  6  1  0
  7  6  1  0
  8  9  2  0
 10 11  1  0
 10  8  1  0
 12 13  1  0
 11 12  1  1
 13 14  2  0
 14 15  1  0
 16 15  1  0
 17 13  1  0
 17 16  2  0
 18 11  1  0
 19 18  2  0
 20 18  1  0
 21 20  1  0
 21 27  1  0
 21 22  1  6
 23 22  1  0
 23 24  1  0
 25 24  1  0
 26 25  1  0
 27 29  1  0
 28 27  2  0
M  END
$$$$
