KHK.pdb
     RDKit          3D

 29 29  0  0  1  0  0  0  0  0999 V2000
   23.3022  -13.1321  -19.9739 N   0  0  0  0  0  0  0  0  0  0  0  0
   22.3636  -13.3178  -18.8888 C   0  0  1  0  0  0  0  0  0  0  0  0
   22.5062  -14.7485  -18.4193 C   0  0  0  0  0  0  0  0  0  0  0  0
   23.1157  -15.5271  -19.5645 C   0  0  0  0  0  0  0  0  0  0  0  0
   23.4674  -16.9366  -19.2227 C   0  0  0  0  0  0  0  0  0  0  0  0
   24.1837  -17.5940  -20.3751 C   0  0  0  0  0  0  0  0  0  0  0  0
   24.4269  -18.9811  -19.9679 N   0  0  0  0  0  0  0  0  0  0  0  0
   22.6780  -12.3437  -17.8234 C   0  0  0  0  0  0  0  0  0  0  0  0
   21.9824  -12.3273  -16.7850 O   0  0  0  0  0  0  0  0  0  0  0  0
   23.7437  -11.4082  -17.9122 N   0  0  0  0  0  0  0  0  0  0  0  0
   24.0159  -10.4253  -16.8620 C   0  0  1  0  0  0  0  0  0  0  0  0
   25.4672  -10.0721  -16.8413 C   0  0  0  0  0  0  0  0  0  0  0  0
   26.3710  -11.1642  -16.4539 C   0  0  0  0  0  0  0  0  0  0  0  0
   25.9949  -12.4235  -16.0731 C   0  0  0  0  0  0  0  0  0  0  0  0
   27.1428  -13.0978  -15.7990 N   0  0  0  0  0  0  0  0  0  0  0  0
   28.1829  -12.2712  -16.0075 C   0  0  0  0  0  0  0  0  0  0  0  0
   27.7264  -11.0765  -16.4111 N   0  0  0  0  0  0  0  0  0  0  0  0
   23.1198   -9.2395  -17.0280 C   0  0  0  0  0  0  0  0  0  0  0  0
   23.0973   -8.6324  -18.1267 O   0  0  0  0  0  0  0  0  0  0  0  0
   22.3221   -8.8287  -15.9499 N   0  0  0  0  0  0  0  0  0  0  0  0
   21.4274   -7.6945  -16.0611 C   0  0  1  0  0  0  0  0  0  0  0  0
   20.0502   -8.2609  -16.2992 C   0  0  0  0  0  0  0  0  0  0  0  0
   18.9754   -7.2065  -16.3406 C   0  0  0  0  0  0  0  0  0  0  0  0
   17.6243   -7.8446  -16.6246 C   0  0  0  0  0  0  0  0  0  0  0  0
   16.6166   -6.7058  -16.6770 C   0  0  0  0  0  0  0  0  0  0  0  0
   15.2823   -7.2826  -16.7945 N   0  0  0  0  0  0  0  0  0  0  0  0
   21.5402   -6.8331  -14.8824 C   0  0  0  0  0  0  0  0  0  0  0  0
   21.9404   -7.2614  -13.7787 O   0  0  0  0  0  0  0  0  0  0  0  0
   21.1974   -5.4992  -14.9710 O   0  0  0  0  0  0  0  0  0  0  0  0
  2  8  1  0
  2  1  1  6
  3  2  1  0
  4  3  1  0
  4  5  1  0
  5  6  1  0
  7  6  1  0
  8  9  2  0
 10 11  1  0
 10  8  1  0
 12 13  1  0
 11 12  1  6
 13 14  2  0
 14 15  1  0
 16 15  1  0
 17 13  1  0
 17 16  2  0
 18 11  1  0
 19 18  2  0
 20 18  1  0
 21 20  1  0
 21 27  1  0
 21 22  1  1
 23 22  1  0
 23 24  1  0
 25 24  1  0
 26 25  1  0
 27 29  1  0
 28 27  2  0
M  END
$$$$
