KHK.pdb
     RDKit          3D

 29 29  0  0  1  0  0  0  0  0999 V2000
   27.6810  -19.7572  -15.7693 N   0  0  0  0  0  0  0  0  0  0  0  0
   27.0343  -21.0508  -15.8006 C   0  0  1  0  0  0  0  0  0  0  0  0
   28.0289  -22.0297  -16.3839 C   0  0  0  0  0  0  0  0  0  0  0  0
   29.0518  -21.2146  -17.1445 C   0  0  0  0  0  0  0  0  0  0  0  0
   28.5295  -20.6030  -18.4017 C   0  0  0  0  0  0  0  0  0  0  0  0
   29.4188  -20.9562  -19.5669 C   0  0  0  0  0  0  0  0  0  0  0  0
   30.4141  -19.8839  -19.6617 N   0  0  0  0  0  0  0  0  0  0  0  0
   26.6347  -21.4101  -14.4243 C   0  0  0  0  0  0  0  0  0  0  0  0
   26.3830  -22.6038  -14.1524 O   0  0  0  0  0  0  0  0  0  0  0  0
   26.5180  -20.4607  -13.3736 N   0  0  0  0  0  0  0  0  0  0  0  0
   25.6183  -20.6554  -12.2353 C   0  0  1  0  0  0  0  0  0  0  0  0
   26.2385  -20.1263  -10.9836 C   0  0  0  0  0  0  0  0  0  0  0  0
   27.5758  -20.6530  -10.6773 C   0  0  0  0  0  0  0  0  0  0  0  0
   28.2795  -21.5512  -11.4326 C   0  0  0  0  0  0  0  0  0  0  0  0
   29.4526  -21.7624  -10.7795 N   0  0  0  0  0  0  0  0  0  0  0  0
   29.4589  -21.0142   -9.6619 C   0  0  0  0  0  0  0  0  0  0  0  0
   28.3113  -20.3248   -9.5829 N   0  0  0  0  0  0  0  0  0  0  0  0
   24.2810  -20.0558  -12.5332 C   0  0  0  0  0  0  0  0  0  0  0  0
   24.2091  -19.0478  -13.2783 O   0  0  0  0  0  0  0  0  0  0  0  0
   23.1323  -20.6327  -11.9720 N   0  0  0  0  0  0  0  0  0  0  0  0
   21.8043  -20.2355  -12.3935 C   0  0  1  0  0  0  0  0  0  0  0  0
   21.5782  -20.8708  -13.7423 C   0  0  0  0  0  0  0  0  0  0  0  0
   20.1987  -20.6189  -14.2918 C   0  0  0  0  0  0  0  0  0  0  0  0
   20.0243  -21.3349  -15.6223 C   0  0  0  0  0  0  0  0  0  0  0  0
   18.6212  -21.0008  -16.1066 C   0  0  0  0  0  0  0  0  0  0  0  0
   18.4099  -21.6670  -17.3866 N   0  0  0  0  0  0  0  0  0  0  0  0
   20.8138  -20.5908  -11.3752 C   0  0  0  0  0  0  0  0  0  0  0  0
   19.6008  -20.3172  -11.4999 O   0  0  0  0  0  0  0  0  0  0  0  0
   21.2119  -21.2505  -10.2302 O   0  0  0  0  0  0  0  0  0  0  0  0
  2  8  1  0
  2  1  1  1
  3  2  1  0
  4  3  1  0
  4  5  1  0
  5  6  1  0
  7  6  1  0
  8  9  2  0
 10 11  1  0
 10  8  1  0
 12 13  1  0
 11 12  1  1
 13 14  2  0
 14 15  1  0
 16 15  1  0
 17 13  1  0
 17 16  2  0
 18 11  1  0
 19 18  2  0
 20 18  1  0
 21 20  1  0
 21 27  1  0
 21 22  1  6
 23 22  1  0
 23 24  1  0
 25 24  1  0
 26 25  1  0
 27 29  1  0
 28 27  2  0
M  END
$$$$
