KHK.pdb
     RDKit          3D

 29 29  0  0  1  0  0  0  0  0999 V2000
   24.2077  -19.2615  -18.4358 N   0  0  0  0  0  0  0  0  0  0  0  0
   23.4569  -18.2690  -17.6982 C   0  0  1  0  0  0  0  0  0  0  0  0
   22.7560  -17.3968  -18.7159 C   0  0  0  0  0  0  0  0  0  0  0  0
   23.7566  -16.3535  -19.1625 C   0  0  0  0  0  0  0  0  0  0  0  0
   23.2121  -15.3688  -20.1430 C   0  0  0  0  0  0  0  0  0  0  0  0
   24.2854  -14.3966  -20.5628 C   0  0  0  0  0  0  0  0  0  0  0  0
   23.6444  -13.4515  -21.4821 N   0  0  0  0  0  0  0  0  0  0  0  0
   22.5065  -18.9652  -16.8066 C   0  0  0  0  0  0  0  0  0  0  0  0
   21.9808  -20.0333  -17.1874 O   0  0  0  0  0  0  0  0  0  0  0  0
   22.1492  -18.4826  -15.5188 N   0  0  0  0  0  0  0  0  0  0  0  0
   21.2697  -19.2279  -14.6167 C   0  0  1  0  0  0  0  0  0  0  0  0
   21.4901  -18.8009  -13.2023 C   0  0  0  0  0  0  0  0  0  0  0  0
   20.6645  -19.4946  -12.2039 C   0  0  0  0  0  0  0  0  0  0  0  0
   19.7861  -20.5136  -12.4535 C   0  0  0  0  0  0  0  0  0  0  0  0
   19.2388  -20.8476  -11.2550 N   0  0  0  0  0  0  0  0  0  0  0  0
   19.7702  -20.0541  -10.3079 C   0  0  0  0  0  0  0  0  0  0  0  0
   20.6498  -19.2151  -10.8741 N   0  0  0  0  0  0  0  0  0  0  0  0
   19.8484  -19.0923  -15.0619 C   0  0  0  0  0  0  0  0  0  0  0  0
   19.4042  -17.9593  -15.3707 O   0  0  0  0  0  0  0  0  0  0  0  0
   19.0391  -20.2362  -15.1245 N   0  0  0  0  0  0  0  0  0  0  0  0
   17.6655  -20.1660  -15.5801 C   0  0  1  0  0  0  0  0  0  0  0  0
   17.2864  -21.5623  -16.0053 C   0  0  0  0  0  0  0  0  0  0  0  0
   15.9047  -21.6459  -16.5989 C   0  0  0  0  0  0  0  0  0  0  0  0
   15.5858  -23.0814  -16.9871 C   0  0  0  0  0  0  0  0  0  0  0  0
   14.2218  -23.0490  -17.6605 C   0  0  0  0  0  0  0  0  0  0  0  0
   13.8297  -24.4207  -17.9628 N   0  0  0  0  0  0  0  0  0  0  0  0
   16.8087  -19.5874  -14.5432 C   0  0  0  0  0  0  0  0  0  0  0  0
   16.6605  -20.1236  -13.4241 O   0  0  0  0  0  0  0  0  0  0  0  0
   16.1317  -18.4102  -14.7892 O   0  0  0  0  0  0  0  0  0  0  0  0
  2  8  1  0
  2  1  1  6
  3  2  1  0
  4  3  1  0
  4  5  1  0
  5  6  1  0
  7  6  1  0
  8  9  2  0
 10 11  1  0
 10  8  1  0
 12 13  1  0
 11 12  1  1
 13 14  2  0
 14 15  1  0
 16 15  1  0
 17 13  1  0
 17 16  2  0
 18 11  1  0
 19 18  2  0
 20 18  1  0
 21 20  1  0
 21 27  1  0
 21 22  1  1
 23 22  1  0
 23 24  1  0
 25 24  1  0
 26 25  1  0
 27 29  1  0
 28 27  2  0
M  END
$$$$
