YHH.pdb
     RDKit          3D

 33 35  0  0  1  0  0  0  0  0999 V2000
   12.9073  -22.4930    0.5671 O   0  0  0  0  0  0  0  0  0  0  0  0
   13.7918  -21.8418    1.4128 C   0  0  0  0  0  0  0  0  0  0  0  0
   15.1201  -22.1881    1.3464 C   0  0  0  0  0  0  0  0  0  0  0  0
   16.0033  -21.5495    2.1791 C   0  0  0  0  0  0  0  0  0  0  0  0
   15.5563  -20.5849    3.0573 C   0  0  0  0  0  0  0  0  0  0  0  0
   16.5472  -19.9148    3.9447 C   0  0  0  0  0  0  0  0  0  0  0  0
   16.9622  -18.5883    3.4011 C   0  0  2  0  0  0  0  0  0  0  0  0
   17.5203  -18.6474    2.0855 N   0  0  0  0  0  0  0  0  0  0  0  0
   17.8561  -17.9292    4.3826 C   0  0  0  0  0  0  0  0  0  0  0  0
   19.0966  -18.1669    4.2578 O   0  0  0  0  0  0  0  0  0  0  0  0
   14.2316  -20.2572    3.1057 C   0  0  0  0  0  0  0  0  0  0  0  0
   13.3297  -20.8811    2.2838 C   0  0  0  0  0  0  0  0  0  0  0  0
   17.3955  -17.0751    5.4171 N   0  0  0  0  0  0  0  0  0  0  0  0
   18.3523  -16.4583    6.2874 C   0  0  1  0  0  0  0  0  0  0  0  0
   17.9466  -15.1135    6.7914 C   0  0  0  0  0  0  0  0  0  0  0  0
   18.2239  -14.0045    5.8613 C   0  0  0  0  0  0  0  0  0  0  0  0
   18.8554  -14.2143    4.6507 C   0  0  0  0  0  0  0  0  0  0  0  0
   18.9561  -13.0131    4.0480 N   0  0  0  0  0  0  0  0  0  0  0  0
   18.4178  -12.0661    4.8249 C   0  0  0  0  0  0  0  0  0  0  0  0
   17.9801  -12.7044    5.9243 N   0  0  0  0  0  0  0  0  0  0  0  0
   18.6661  -17.4158    7.3917 C   0  0  0  0  0  0  0  0  0  0  0  0
   17.8186  -18.2639    7.7740 O   0  0  0  0  0  0  0  0  0  0  0  0
   19.9211  -17.4093    8.0497 N   0  0  0  0  0  0  0  0  0  0  0  0
   20.2245  -18.3621    9.1519 C   0  0  1  0  0  0  0  0  0  0  0  0
   21.1520  -19.3785    8.5339 C   0  0  0  0  0  0  0  0  0  0  0  0
   21.6039  -20.4422    9.4356 C   0  0  0  0  0  0  0  0  0  0  0  0
   20.7753  -20.9653   10.4232 C   0  0  0  0  0  0  0  0  0  0  0  0
   21.4592  -21.9103   11.0779 N   0  0  0  0  0  0  0  0  0  0  0  0
   22.6622  -21.9770   10.5261 C   0  0  0  0  0  0  0  0  0  0  0  0
   22.7608  -21.0909    9.5291 N   0  0  0  0  0  0  0  0  0  0  0  0
   20.7963  -17.6283   10.2886 C   0  0  0  0  0  0  0  0  0  0  0  0
   21.4320  -16.5661   10.0746 O   0  0  0  0  0  0  0  0  0  0  0  0
   20.6706  -18.0463   11.5893 O   0  0  0  0  0  0  0  0  0  0  0  0
  2  3  2  0
  2  1  1  0
  4  3  1  0
  5  4  2  0
  6  7  1  0
  6  5  1  0
  7  8  1  6
  9  7  1  0
  9 10  2  0
 11  5  1  0
 11 12  2  0
 12  2  1  0
 13  9  1  0
 14 13  1  0
 14 15  1  1
 16 15  1  0
 17 16  2  0
 18 19  1  0
 18 17  1  0
 19 20  2  0
 20 16  1  0
 21 14  1  0
 22 21  2  0
 23 21  1  0
 24 23  1  0
 24 25  1  6
 25 26  1  0
 26 27  2  0
 26 30  1  0
 27 28  1  0
 28 29  1  0
 30 29  2  0
 31 24  1  0
 32 31  2  0
 33 31  1  0
M  END
$$$$
