YHH.pdb
     RDKit          3D

 33 35  0  0  1  0  0  0  0  0999 V2000
   29.7345  -20.5347   -4.3396 O   0  0  0  0  0  0  0  0  0  0  0  0
   28.8858  -20.5348   -5.4357 C   0  0  0  0  0  0  0  0  0  0  0  0
   28.5752  -21.7440   -6.0100 C   0  0  0  0  0  0  0  0  0  0  0  0
   27.7362  -21.7547   -7.0950 C   0  0  0  0  0  0  0  0  0  0  0  0
   27.2235  -20.5734   -7.5882 C   0  0  0  0  0  0  0  0  0  0  0  0
   26.3161  -20.6277   -8.7679 C   0  0  0  0  0  0  0  0  0  0  0  0
   26.9889  -21.2414   -9.9503 C   0  0  2  0  0  0  0  0  0  0  0  0
   28.3860  -20.9491  -10.0414 N   0  0  0  0  0  0  0  0  0  0  0  0
   26.2367  -20.8709  -11.1726 C   0  0  0  0  0  0  0  0  0  0  0  0
   26.4659  -19.7141  -11.6418 O   0  0  0  0  0  0  0  0  0  0  0  0
   27.5462  -19.3835   -7.0010 C   0  0  0  0  0  0  0  0  0  0  0  0
   28.3824  -19.3468   -5.9158 C   0  0  0  0  0  0  0  0  0  0  0  0
   25.3056  -21.7276  -11.8137 N   0  0  0  0  0  0  0  0  0  0  0  0
   24.7373  -21.3243  -13.0657 C   0  0  1  0  0  0  0  0  0  0  0  0
   24.7874  -22.3709  -14.1284 C   0  0  0  0  0  0  0  0  0  0  0  0
   26.0857  -22.4787  -14.8173 C   0  0  0  0  0  0  0  0  0  0  0  0
   27.1173  -21.5960  -14.5625 C   0  0  0  0  0  0  0  0  0  0  0  0
   28.1507  -21.9645  -15.3450 N   0  0  0  0  0  0  0  0  0  0  0  0
   27.8122  -23.0339  -16.0744 C   0  0  0  0  0  0  0  0  0  0  0  0
   26.5454  -23.3226  -15.7285 N   0  0  0  0  0  0  0  0  0  0  0  0
   23.3501  -20.8283  -12.8119 C   0  0  0  0  0  0  0  0  0  0  0  0
   22.6330  -21.3413  -11.9139 O   0  0  0  0  0  0  0  0  0  0  0  0
   22.7881  -19.7680  -13.5655 N   0  0  0  0  0  0  0  0  0  0  0  0
   21.3824  -19.3267  -13.3558 C   0  0  1  0  0  0  0  0  0  0  0  0
   21.2512  -18.0669  -14.1749 C   0  0  0  0  0  0  0  0  0  0  0  0
   19.9126  -17.4697  -14.1931 C   0  0  0  0  0  0  0  0  0  0  0  0
   18.8566  -18.0185  -13.4724 C   0  0  0  0  0  0  0  0  0  0  0  0
   17.7744  -17.2614  -13.6847 N   0  0  0  0  0  0  0  0  0  0  0  0
   18.1351  -16.2821  -14.5014 C   0  0  0  0  0  0  0  0  0  0  0  0
   19.4298  -16.3987  -14.8161 N   0  0  0  0  0  0  0  0  0  0  0  0
   20.4675  -20.4064  -13.7491 C   0  0  0  0  0  0  0  0  0  0  0  0
   20.7447  -21.1088  -14.7531 O   0  0  0  0  0  0  0  0  0  0  0  0
   19.3110  -20.6932  -13.0688 O   0  0  0  0  0  0  0  0  0  0  0  0
  2  3  2  0
  2  1  1  0
  4  3  1  0
  5  4  2  0
  6  7  1  0
  6  5  1  0
  7  8  1  6
  9  7  1  0
  9 10  2  0
 11  5  1  0
 11 12  2  0
 12  2  1  0
 13  9  1  0
 14 13  1  0
 14 15  1  6
 16 15  1  0
 17 16  2  0
 18 19  1  0
 18 17  1  0
 19 20  2  0
 20 16  1  0
 21 14  1  0
 22 21  2  0
 23 21  1  0
 24 23  1  0
 24 25  1  6
 25 26  1  0
 26 27  2  0
 26 30  1  0
 27 28  1  0
 28 29  1  0
 30 29  2  0
 31 24  1  0
 32 31  2  0
 33 31  1  0
M  END
$$$$
