YHH.pdb
     RDKit          3D

 33 35  0  0  1  0  0  0  0  0999 V2000
   27.2819   -3.7997  -17.9836 O   0  0  0  0  0  0  0  0  0  0  0  0
   26.1627   -4.2137  -17.2781 C   0  0  0  0  0  0  0  0  0  0  0  0
   25.3367   -3.2476  -16.7557 C   0  0  0  0  0  0  0  0  0  0  0  0
   24.2266   -3.6469  -16.0559 C   0  0  0  0  0  0  0  0  0  0  0  0
   23.9573   -4.9888  -15.8878 C   0  0  0  0  0  0  0  0  0  0  0  0
   22.7419   -5.3813  -15.1215 C   0  0  0  0  0  0  0  0  0  0  0  0
   21.8036   -6.1880  -15.9559 C   0  0  2  0  0  0  0  0  0  0  0  0
   21.4155   -5.5509  -17.1762 N   0  0  0  0  0  0  0  0  0  0  0  0
   20.6493   -6.5932  -15.1190 C   0  0  0  0  0  0  0  0  0  0  0  0
   19.5976   -5.8927  -15.2390 O   0  0  0  0  0  0  0  0  0  0  0  0
   24.7926   -5.9311  -16.4160 C   0  0  0  0  0  0  0  0  0  0  0  0
   25.9079   -5.5571  -17.1192 C   0  0  0  0  0  0  0  0  0  0  0  0
   20.6741   -7.6924  -14.2229 N   0  0  0  0  0  0  0  0  0  0  0  0
   19.4509   -8.1169  -13.6091 C   0  0  1  0  0  0  0  0  0  0  0  0
   19.3941   -9.5752  -13.2973 C   0  0  0  0  0  0  0  0  0  0  0  0
   18.9804  -10.4248  -14.4282 C   0  0  0  0  0  0  0  0  0  0  0  0
   18.5815   -9.8826  -15.6345 C   0  0  0  0  0  0  0  0  0  0  0  0
   18.2727  -10.9142  -16.4448 N   0  0  0  0  0  0  0  0  0  0  0  0
   18.4602  -12.0721  -15.8012 C   0  0  0  0  0  0  0  0  0  0  0  0
   18.8923  -11.7383  -14.5726 N   0  0  0  0  0  0  0  0  0  0  0  0
   19.2093   -7.2619  -12.4068 C   0  0  0  0  0  0  0  0  0  0  0  0
   20.0767   -7.1581  -11.5009 O   0  0  0  0  0  0  0  0  0  0  0  0
   18.0031   -6.5378  -12.2374 N   0  0  0  0  0  0  0  0  0  0  0  0
   17.7632   -5.7010  -11.0303 C   0  0  1  0  0  0  0  0  0  0  0  0
   16.6081   -4.8075  -11.4082 C   0  0  0  0  0  0  0  0  0  0  0  0
   16.1897   -3.8559  -10.3747 C   0  0  0  0  0  0  0  0  0  0  0  0
   17.0938   -3.3241   -9.4605 C   0  0  0  0  0  0  0  0  0  0  0  0
   16.4238   -2.4958   -8.6517 N   0  0  0  0  0  0  0  0  0  0  0  0
   15.1571   -2.5073   -9.0406 C   0  0  0  0  0  0  0  0  0  0  0  0
   15.0039   -3.3288  -10.0849 N   0  0  0  0  0  0  0  0  0  0  0  0
   17.5067   -6.5715   -9.8753 C   0  0  0  0  0  0  0  0  0  0  0  0
   16.8843   -7.6493  -10.0469 O   0  0  0  0  0  0  0  0  0  0  0  0
   17.9168   -6.2666   -8.6020 O   0  0  0  0  0  0  0  0  0  0  0  0
  2  3  2  0
  2  1  1  0
  4  3  1  0
  5  4  2  0
  6  7  1  0
  6  5  1  0
  7  8  1  6
  9  7  1  0
  9 10  2  0
 11  5  1  0
 11 12  2  0
 12  2  1  0
 13  9  1  0
 14 13  1  0
 14 15  1  1
 16 15  1  0
 17 16  2  0
 18 19  1  0
 18 17  1  0
 19 20  2  0
 20 16  1  0
 21 14  1  0
 22 21  2  0
 23 21  1  0
 24 23  1  0
 24 25  1  6
 25 26  1  0
 26 27  2  0
 26 30  1  0
 27 28  1  0
 28 29  1  0
 30 29  2  0
 31 24  1  0
 32 31  2  0
 33 31  1  0
M  END
$$$$
