YHH.pdb
     RDKit          3D

 33 35  0  0  1  0  0  0  0  0999 V2000
   33.1435  -29.9661  -17.6313 O   0  0  0  0  0  0  0  0  0  0  0  0
   32.4495  -31.0441  -17.1042 C   0  0  0  0  0  0  0  0  0  0  0  0
   33.1467  -31.9463  -16.3370 C   0  0  0  0  0  0  0  0  0  0  0  0
   32.4691  -33.0165  -15.8109 C   0  0  0  0  0  0  0  0  0  0  0  0
   31.1206  -33.1719  -16.0534 C   0  0  0  0  0  0  0  0  0  0  0  0
   30.4212  -34.3474  -15.4640 C   0  0  0  0  0  0  0  0  0  0  0  0
   30.6788  -35.5901  -16.2494 C   0  0  2  0  0  0  0  0  0  0  0  0
   30.1888  -35.5416  -17.5922 N   0  0  0  0  0  0  0  0  0  0  0  0
   30.1662  -36.7521  -15.4852 C   0  0  0  0  0  0  0  0  0  0  0  0
   29.3226  -37.4876  -16.0837 O   0  0  0  0  0  0  0  0  0  0  0  0
   30.4484  -32.2625  -16.8188 C   0  0  0  0  0  0  0  0  0  0  0  0
   31.1034  -31.1849  -17.3556 C   0  0  0  0  0  0  0  0  0  0  0  0
   30.5674  -37.0617  -14.1604 N   0  0  0  0  0  0  0  0  0  0  0  0
   30.0300  -38.2286  -13.5259 C   0  0  1  0  0  0  0  0  0  0  0  0
   30.9989  -38.9544  -12.6531 C   0  0  0  0  0  0  0  0  0  0  0  0
   32.1415  -39.5465  -13.3714 C   0  0  0  0  0  0  0  0  0  0  0  0
   31.9619  -40.4620  -14.3900 C   0  0  0  0  0  0  0  0  0  0  0  0
   33.1888  -40.8033  -14.8309 N   0  0  0  0  0  0  0  0  0  0  0  0
   34.1232  -40.1445  -14.1359 C   0  0  0  0  0  0  0  0  0  0  0  0
   33.4506  -39.3857  -13.2529 N   0  0  0  0  0  0  0  0  0  0  0  0
   28.7846  -37.8346  -12.7990 C   0  0  0  0  0  0  0  0  0  0  0  0
   28.7118  -36.7377  -12.1863 O   0  0  0  0  0  0  0  0  0  0  0  0
   27.6422  -38.6725  -12.7691 N   0  0  0  0  0  0  0  0  0  0  0  0
   26.3798  -38.2404  -12.1100 C   0  0  1  0  0  0  0  0  0  0  0  0
   25.9445  -37.0194  -12.8814 C   0  0  0  0  0  0  0  0  0  0  0  0
   26.3746  -35.7369  -12.3166 C   0  0  0  0  0  0  0  0  0  0  0  0
   26.6087  -35.5791  -10.9542 C   0  0  0  0  0  0  0  0  0  0  0  0
   26.9849  -34.3127  -10.7441 N   0  0  0  0  0  0  0  0  0  0  0  0
   26.9867  -33.7038  -11.9211 C   0  0  0  0  0  0  0  0  0  0  0  0
   26.6182  -34.5582  -12.8818 N   0  0  0  0  0  0  0  0  0  0  0  0
   25.4151  -39.3479  -12.1285 C   0  0  0  0  0  0  0  0  0  0  0  0
   24.8691  -39.7026  -11.0541 O   0  0  0  0  0  0  0  0  0  0  0  0
   25.0732  -40.0242  -13.2723 O   0  0  0  0  0  0  0  0  0  0  0  0
  2  3  2  0
  2  1  1  0
  4  3  1  0
  5  4  2  0
  6  7  1  0
  6  5  1  0
  7  8  1  6
  9  7  1  0
  9 10  2  0
 11  5  1  0
 11 12  2  0
 12  2  1  0
 13  9  1  0
 14 13  1  0
 14 15  1  1
 16 15  1  0
 17 16  2  0
 18 19  1  0
 18 17  1  0
 19 20  2  0
 20 16  1  0
 21 14  1  0
 22 21  2  0
 23 21  1  0
 24 23  1  0
 24 25  1  6
 25 26  1  0
 26 27  2  0
 26 30  1  0
 27 28  1  0
 28 29  1  0
 30 29  2  0
 31 24  1  0
 32 31  2  0
 33 31  1  0
M  END
$$$$
