YHH.pdb
     RDKit          3D

 33 35  0  0  1  0  0  0  0  0999 V2000
   30.5995   -0.7638  -14.0703 O   0  0  0  0  0  0  0  0  0  0  0  0
   31.0428   -1.9930  -14.5332 C   0  0  0  0  0  0  0  0  0  0  0  0
   30.7605   -2.3312  -15.8349 C   0  0  0  0  0  0  0  0  0  0  0  0
   31.1949   -3.5454  -16.3024 C   0  0  0  0  0  0  0  0  0  0  0  0
   31.8970   -4.3970  -15.4759 C   0  0  0  0  0  0  0  0  0  0  0  0
   32.3511   -5.7063  -16.0216 C   0  0  0  0  0  0  0  0  0  0  0  0
   33.8279   -5.8746  -15.8874 C   0  0  2  0  0  0  0  0  0  0  0  0
   34.5910   -4.8510  -16.5320 N   0  0  0  0  0  0  0  0  0  0  0  0
   34.1946   -7.2402  -16.3321 C   0  0  0  0  0  0  0  0  0  0  0  0
   34.6099   -7.3473  -17.5267 O   0  0  0  0  0  0  0  0  0  0  0  0
   32.1659   -4.0395  -14.1857 C   0  0  0  0  0  0  0  0  0  0  0  0
   31.7425   -2.8317  -13.6954 C   0  0  0  0  0  0  0  0  0  0  0  0
   34.1027   -8.3886  -15.5047 N   0  0  0  0  0  0  0  0  0  0  0  0
   34.4610   -9.6660  -16.0458 C   0  0  1  0  0  0  0  0  0  0  0  0
   35.0713  -10.6025  -15.0570 C   0  0  0  0  0  0  0  0  0  0  0  0
   36.4545  -10.2682  -14.6738 C   0  0  0  0  0  0  0  0  0  0  0  0
   37.1104   -9.1753  -15.2061 C   0  0  0  0  0  0  0  0  0  0  0  0
   38.3407   -9.1507  -14.6567 N   0  0  0  0  0  0  0  0  0  0  0  0
   38.4821  -10.1755  -13.8082 C   0  0  0  0  0  0  0  0  0  0  0  0
   37.3128  -10.8382  -13.8418 N   0  0  0  0  0  0  0  0  0  0  0  0
   33.2574  -10.2438  -16.7183 C   0  0  0  0  0  0  0  0  0  0  0  0
   32.0981   -9.8630  -16.4104 O   0  0  0  0  0  0  0  0  0  0  0  0
   33.3697  -11.2368  -17.7229 N   0  0  0  0  0  0  0  0  0  0  0  0
   32.1669  -11.8060  -18.3895 C   0  0  1  0  0  0  0  0  0  0  0  0
   31.4784  -10.6182  -19.0144 C   0  0  0  0  0  0  0  0  0  0  0  0
   30.2551  -10.9262  -19.7610 C   0  0  0  0  0  0  0  0  0  0  0  0
   29.6283  -12.1641  -19.6599 C   0  0  0  0  0  0  0  0  0  0  0  0
   28.5482  -12.1455  -20.4489 N   0  0  0  0  0  0  0  0  0  0  0  0
   28.4997  -10.9503  -21.0191 C   0  0  0  0  0  0  0  0  0  0  0  0
   29.5301  -10.2027  -20.6090 N   0  0  0  0  0  0  0  0  0  0  0  0
   32.5819  -12.8411  -19.3454 C   0  0  0  0  0  0  0  0  0  0  0  0
   33.7011  -12.7425  -19.9076 O   0  0  0  0  0  0  0  0  0  0  0  0
   31.8023  -13.9253  -19.6606 O   0  0  0  0  0  0  0  0  0  0  0  0
  2  3  2  0
  2  1  1  0
  4  3  1  0
  5  4  2  0
  6  7  1  0
  6  5  1  0
  7  8  1  6
  9  7  1  0
  9 10  2  0
 11  5  1  0
 11 12  2  0
 12  2  1  0
 13  9  1  0
 14 13  1  0
 14 15  1  1
 16 15  1  0
 17 16  2  0
 18 19  1  0
 18 17  1  0
 19 20  2  0
 20 16  1  0
 21 14  1  0
 22 21  2  0
 23 21  1  0
 24 23  1  0
 24 25  1  6
 25 26  1  0
 26 27  2  0
 26 30  1  0
 27 28  1  0
 28 29  1  0
 30 29  2  0
 31 24  1  0
 32 31  2  0
 33 31  1  0
M  END
$$$$
