YHH.pdb
     RDKit          3D

 33 35  0  0  1  0  0  0  0  0999 V2000
   24.1004  -30.9947  -10.5922 O   0  0  0  0  0  0  0  0  0  0  0  0
   24.8298  -31.5466   -9.5505 C   0  0  0  0  0  0  0  0  0  0  0  0
   26.1714  -31.7680   -9.7498 C   0  0  0  0  0  0  0  0  0  0  0  0
   26.9019  -32.3138   -8.7252 C   0  0  0  0  0  0  0  0  0  0  0  0
   26.2927  -32.6283   -7.5287 C   0  0  0  0  0  0  0  0  0  0  0  0
   27.1208  -33.2193   -6.4410 C   0  0  0  0  0  0  0  0  0  0  0  0
   27.3011  -34.6893   -6.6252 C   0  0  2  0  0  0  0  0  0  0  0  0
   26.0855  -35.4389   -6.5465 N   0  0  0  0  0  0  0  0  0  0  0  0
   28.3393  -35.1646   -5.6801 C   0  0  0  0  0  0  0  0  0  0  0  0
   27.9223  -35.8003   -4.6638 O   0  0  0  0  0  0  0  0  0  0  0  0
   24.9579  -32.3994   -7.3536 C   0  0  0  0  0  0  0  0  0  0  0  0
   24.2067  -31.8550   -8.3623 C   0  0  0  0  0  0  0  0  0  0  0  0
   29.7287  -34.9443   -5.8614 N   0  0  0  0  0  0  0  0  0  0  0  0
   30.6507  -35.5074   -4.9200 C   0  0  1  0  0  0  0  0  0  0  0  0
   32.0847  -35.3780   -5.3124 C   0  0  0  0  0  0  0  0  0  0  0  0
   33.0288  -36.0522   -4.4035 C   0  0  0  0  0  0  0  0  0  0  0  0
   32.5974  -36.7115   -3.2688 C   0  0  0  0  0  0  0  0  0  0  0  0
   33.6938  -37.2120   -2.6658 N   0  0  0  0  0  0  0  0  0  0  0  0
   34.7865  -36.8961   -3.3703 C   0  0  0  0  0  0  0  0  0  0  0  0
   34.3459  -36.1880   -4.4249 N   0  0  0  0  0  0  0  0  0  0  0  0
   30.3665  -34.9172   -3.5763 C   0  0  0  0  0  0  0  0  0  0  0  0
   29.8614  -33.7698   -3.4665 O   0  0  0  0  0  0  0  0  0  0  0  0
   30.6516  -35.6189   -2.3786 N   0  0  0  0  0  0  0  0  0  0  0  0
   30.4225  -35.0015   -1.0440 C   0  0  1  0  0  0  0  0  0  0  0  0
   28.9548  -34.6534   -1.0310 C   0  0  0  0  0  0  0  0  0  0  0  0
   28.4050  -34.3123    0.2844 C   0  0  0  0  0  0  0  0  0  0  0  0
   29.2269  -33.9944    1.3610 C   0  0  0  0  0  0  0  0  0  0  0  0
   28.4447  -33.7316    2.4139 N   0  0  0  0  0  0  0  0  0  0  0  0
   27.1893  -33.8781    2.0159 C   0  0  0  0  0  0  0  0  0  0  0  0
   27.1535  -34.2301    0.7261 N   0  0  0  0  0  0  0  0  0  0  0  0
   30.8343  -35.9418    0.0065 C   0  0  0  0  0  0  0  0  0  0  0  0
   31.0565  -37.1405   -0.2971 O   0  0  0  0  0  0  0  0  0  0  0  0
   30.9921  -35.5758    1.3194 O   0  0  0  0  0  0  0  0  0  0  0  0
  2  3  2  0
  2  1  1  0
  4  3  1  0
  5  4  2  0
  6  7  1  0
  6  5  1  0
  7  8  1  1
  9  7  1  0
  9 10  2  0
 11  5  1  0
 11 12  2  0
 12  2  1  0
 13  9  1  0
 14 13  1  0
 14 15  1  6
 16 15  1  0
 17 16  2  0
 18 19  1  0
 18 17  1  0
 19 20  2  0
 20 16  1  0
 21 14  1  0
 22 21  2  0
 23 21  1  0
 24 23  1  0
 24 25  1  1
 25 26  1  0
 26 27  2  0
 26 30  1  0
 27 28  1  0
 28 29  1  0
 30 29  2  0
 31 24  1  0
 32 31  2  0
 33 31  1  0
M  END
$$$$
