YHH.pdb
     RDKit          3D

 33 35  0  0  1  0  0  0  0  0999 V2000
   16.8711  -15.7154  -18.4136 O   0  0  0  0  0  0  0  0  0  0  0  0
   17.5945  -14.6751  -17.8514 C   0  0  0  0  0  0  0  0  0  0  0  0
   17.8269  -14.7100  -16.4974 C   0  0  0  0  0  0  0  0  0  0  0  0
   18.5417  -13.6852  -15.9315 C   0  0  0  0  0  0  0  0  0  0  0  0
   19.0103  -12.6506  -16.7135 C   0  0  0  0  0  0  0  0  0  0  0  0
   19.7823  -11.5569  -16.0608 C   0  0  0  0  0  0  0  0  0  0  0  0
   21.2406  -11.6595  -16.3611 C   0  0  2  0  0  0  0  0  0  0  0  0
   21.8444  -12.8734  -15.9055 N   0  0  0  0  0  0  0  0  0  0  0  0
   21.9193  -10.4451  -15.8496 C   0  0  0  0  0  0  0  0  0  0  0  0
   22.1895  -10.4351  -14.6095 O   0  0  0  0  0  0  0  0  0  0  0  0
   18.7670  -12.6372  -18.0572 C   0  0  0  0  0  0  0  0  0  0  0  0
   18.0552  -13.6497  -18.6459 C   0  0  0  0  0  0  0  0  0  0  0  0
   22.2655   -9.3355  -16.6626 N   0  0  0  0  0  0  0  0  0  0  0  0
   22.9325   -8.2169  -16.0652 C   0  0  1  0  0  0  0  0  0  0  0  0
   24.3617   -8.0675  -16.4679 C   0  0  0  0  0  0  0  0  0  0  0  0
   25.2357   -9.1725  -16.0354 C   0  0  0  0  0  0  0  0  0  0  0  0
   25.4670  -10.2715  -16.8397 C   0  0  0  0  0  0  0  0  0  0  0  0
   26.2979  -11.0865  -16.1603 N   0  0  0  0  0  0  0  0  0  0  0  0
   26.5949  -10.5478  -14.9722 C   0  0  0  0  0  0  0  0  0  0  0  0
   25.9305   -9.3798  -14.9272 N   0  0  0  0  0  0  0  0  0  0  0  0
   22.1259   -6.9889  -16.3412 C   0  0  0  0  0  0  0  0  0  0  0  0
   21.4648   -6.8740  -17.4058 O   0  0  0  0  0  0  0  0  0  0  0  0
   22.0717   -5.9108  -15.4232 N   0  0  0  0  0  0  0  0  0  0  0  0
   21.2351   -4.7085  -15.6865 C   0  0  1  0  0  0  0  0  0  0  0  0
   21.1452   -4.0065  -14.3545 C   0  0  0  0  0  0  0  0  0  0  0  0
   20.4077   -2.7397  -14.3640 C   0  0  0  0  0  0  0  0  0  0  0  0
   19.0415   -2.6903  -14.6227 C   0  0  0  0  0  0  0  0  0  0  0  0
   18.6561   -1.4107  -14.5628 N   0  0  0  0  0  0  0  0  0  0  0  0
   19.7316   -0.6902  -14.2795 C   0  0  0  0  0  0  0  0  0  0  0  0
   20.7994   -1.4860  -14.1568 N   0  0  0  0  0  0  0  0  0  0  0  0
   21.8499   -3.9099  -16.7550 C   0  0  0  0  0  0  0  0  0  0  0  0
   23.1012   -3.8961  -16.8668 O   0  0  0  0  0  0  0  0  0  0  0  0
   21.1207   -3.1688  -17.6502 O   0  0  0  0  0  0  0  0  0  0  0  0
  2  3  2  0
  2  1  1  0
  4  3  1  0
  5  4  2  0
  6  7  1  0
  6  5  1  0
  7  8  1  1
  9  7  1  0
  9 10  2  0
 11  5  1  0
 11 12  2  0
 12  2  1  0
 13  9  1  0
 14 13  1  0
 14 15  1  6
 16 15  1  0
 17 16  2  0
 18 19  1  0
 18 17  1  0
 19 20  2  0
 20 16  1  0
 21 14  1  0
 22 21  2  0
 23 21  1  0
 24 23  1  0
 24 25  1  1
 25 26  1  0
 26 27  2  0
 26 30  1  0
 27 28  1  0
 28 29  1  0
 30 29  2  0
 31 24  1  0
 32 31  2  0
 33 31  1  0
M  END
$$$$
