YHH.pdb
     RDKit          3D

 33 35  0  0  1  0  0  0  0  0999 V2000
   32.3743   -7.2396  -22.4522 O   0  0  0  0  0  0  0  0  0  0  0  0
   31.1950   -7.0634  -21.7453 C   0  0  0  0  0  0  0  0  0  0  0  0
   30.0542   -7.6493  -22.2392 C   0  0  0  0  0  0  0  0  0  0  0  0
   28.8820   -7.4808  -21.5471 C   0  0  0  0  0  0  0  0  0  0  0  0
   28.8622   -6.7389  -20.3848 C   0  0  0  0  0  0  0  0  0  0  0  0
   27.5693   -6.5797  -19.6628 C   0  0  0  0  0  0  0  0  0  0  0  0
   26.8066   -5.3959  -20.1571 C   0  0  2  0  0  0  0  0  0  0  0  0
   27.4263   -4.1407  -19.8639 N   0  0  0  0  0  0  0  0  0  0  0  0
   25.4126   -5.4859  -19.6615 C   0  0  0  0  0  0  0  0  0  0  0  0
   25.1881   -4.9674  -18.5249 O   0  0  0  0  0  0  0  0  0  0  0  0
   30.0085   -6.1659  -19.9131 C   0  0  0  0  0  0  0  0  0  0  0  0
   31.1920   -6.3198  -20.5868 C   0  0  0  0  0  0  0  0  0  0  0  0
   24.3596   -6.1058  -20.3817 N   0  0  0  0  0  0  0  0  0  0  0  0
   23.0461   -6.1303  -19.8098 C   0  0  1  0  0  0  0  0  0  0  0  0
   22.3942   -4.7914  -19.7113 C   0  0  0  0  0  0  0  0  0  0  0  0
   22.3991   -4.0171  -20.9652 C   0  0  0  0  0  0  0  0  0  0  0  0
   23.0852   -4.4512  -22.0828 C   0  0  0  0  0  0  0  0  0  0  0  0
   22.8898   -3.5285  -23.0454 N   0  0  0  0  0  0  0  0  0  0  0  0
   22.1154   -2.5413  -22.5809 C   0  0  0  0  0  0  0  0  0  0  0  0
   21.8332   -2.8700  -21.3081 N   0  0  0  0  0  0  0  0  0  0  0  0
   22.2217   -7.1167  -20.5727 C   0  0  0  0  0  0  0  0  0  0  0  0
   22.2771   -7.1731  -21.8287 O   0  0  0  0  0  0  0  0  0  0  0  0
   21.3498   -8.0228  -19.9195 N   0  0  0  0  0  0  0  0  0  0  0  0
   20.4475   -8.9226  -20.6883 C   0  0  1  0  0  0  0  0  0  0  0  0
   20.7888  -10.3100  -20.2047 C   0  0  0  0  0  0  0  0  0  0  0  0
   19.9753  -11.3883  -20.7742 C   0  0  0  0  0  0  0  0  0  0  0  0
   19.0204  -11.1440  -21.7561 C   0  0  0  0  0  0  0  0  0  0  0  0
   18.4470  -12.3101  -22.0734 N   0  0  0  0  0  0  0  0  0  0  0  0
   19.0162  -13.2435  -21.3246 C   0  0  0  0  0  0  0  0  0  0  0  0
   19.9445  -12.6956  -20.5330 N   0  0  0  0  0  0  0  0  0  0  0  0
   19.0518   -8.5252  -20.4611 C   0  0  0  0  0  0  0  0  0  0  0  0
   18.1601   -8.9485  -21.2382 O   0  0  0  0  0  0  0  0  0  0  0  0
   18.6646   -7.7059  -19.4308 O   0  0  0  0  0  0  0  0  0  0  0  0
  2  3  2  0
  2  1  1  0
  4  3  1  0
  5  4  2  0
  6  7  1  0
  6  5  1  0
  7  8  1  1
  9  7  1  0
  9 10  2  0
 11  5  1  0
 11 12  2  0
 12  2  1  0
 13  9  1  0
 14 13  1  0
 14 15  1  6
 16 15  1  0
 17 16  2  0
 18 19  1  0
 18 17  1  0
 19 20  2  0
 20 16  1  0
 21 14  1  0
 22 21  2  0
 23 21  1  0
 24 23  1  0
 24 25  1  1
 25 26  1  0
 26 27  2  0
 26 30  1  0
 27 28  1  0
 28 29  1  0
 30 29  2  0
 31 24  1  0
 32 31  2  0
 33 31  1  0
M  END
$$$$
