RTC.pdb
     RDKit          3D

 25 24  0  0  1  0  0  0  0  0999 V2000
   12.2629  -18.8353   15.6204 N   0  0  0  0  0  0  0  0  0  0  0  0
   13.4947  -19.3121   16.1684 C   0  0  0  0  0  0  0  0  0  0  0  0
   14.2654  -20.0382   15.4295 N   0  0  0  0  0  0  0  0  0  0  0  0
   13.8215  -18.9733   17.4908 N   0  0  0  0  0  0  0  0  0  0  0  0
   12.9128  -18.0862   18.2414 C   0  0  0  0  0  0  0  0  0  0  0  0
   11.8273  -18.9338   18.8054 C   0  0  0  0  0  0  0  0  0  0  0  0
   10.8916  -18.2916   19.7547 C   0  0  0  0  0  0  0  0  0  0  0  0
    9.7804  -17.4851   19.1661 C   0  0  2  0  0  0  0  0  0  0  0  0
    9.9010  -17.2512   17.7519 N   0  0  0  0  0  0  0  0  0  0  0  0
    9.6711  -16.2136   19.9325 C   0  0  0  0  0  0  0  0  0  0  0  0
   10.5408  -15.3109   19.7847 O   0  0  0  0  0  0  0  0  0  0  0  0
   15.1536  -20.4305   15.7907 C   0  0  0  0  0  0  0  0  0  0  0  0
    7.0993  -13.6101   19.8599 C   0  0  2  0  0  0  0  0  0  0  0  0
    7.1796  -14.0439   21.3018 O   0  0  0  0  0  0  0  0  0  0  0  0
    6.1908  -15.0724   21.3939 C   0  0  2  0  0  0  0  0  0  0  0  0
    8.5347  -14.6562   21.5424 N   0  0  0  0  0  0  0  0  0  0  0  0
    8.6346  -15.9372   20.8387 C   0  0  0  0  0  0  0  0  0  0  0  0
    8.7417  -14.8645   22.9892 O   0  0  0  0  0  0  0  0  0  0  0  0
    8.7775  -16.0714   23.4457 N   0  0  0  0  0  0  0  0  0  0  0  0
    8.9165  -13.8810   23.9780 C   0  0  1  0  0  0  0  0  0  0  0  0
    8.9676  -14.1557   25.3996 C   0  0  0  0  0  0  0  0  0  0  0  0
    8.8087  -12.9422   26.2466 S   0  0  0  0  0  0  0  0  0  0  0  0
    9.1984  -13.4255   27.9672 C   0  0  0  0  0  0  0  0  0  0  0  0
    7.8843  -15.1100   25.7447 O   0  0  0  0  0  0  0  0  0  0  0  0
    6.7563  -14.9934   25.2491 O   0  0  0  0  0  0  0  0  0  0  0  0
  1  2  1  0
  2  3  2  0
  4  2  1  0
  4  5  1  0
  6  5  1  0
  6  7  1  0
  7  8  1  0
  8  9  1  6
 10  8  1  0
 10 11  2  0
 13 12  1  1
 14 13  1  0
 15 16  1  1
 15 13  1  0
 16 10  1  0
 17 15  1  0
 18 17  2  0
 19 17  1  0
 20 19  1  0
 21 22  1  0
 20 21  1  1
 23 20  1  0
 23 25  1  0
 24 23  2  0
M  END
$$$$
