RTC.pdb
     RDKit          3D

 25 24  0  0  1  0  0  0  0  0999 V2000
    7.8879  -20.0734   18.8032 N   0  0  0  0  0  0  0  0  0  0  0  0
    9.0284  -19.7646   17.9975 C   0  0  0  0  0  0  0  0  0  0  0  0
    9.5629  -20.7023   17.2890 N   0  0  0  0  0  0  0  0  0  0  0  0
    9.5258  -18.4520   18.0063 N   0  0  0  0  0  0  0  0  0  0  0  0
    8.8549  -17.4444   18.8494 C   0  0  0  0  0  0  0  0  0  0  0  0
    9.0210  -17.8668   20.2667 C   0  0  0  0  0  0  0  0  0  0  0  0
    9.3367  -16.8116   21.2545 C   0  0  0  0  0  0  0  0  0  0  0  0
    8.2713  -15.8004   21.5262 C   0  0  2  0  0  0  0  0  0  0  0  0
    7.9517  -14.9586   20.4043 N   0  0  0  0  0  0  0  0  0  0  0  0
    8.6754  -15.0068   22.7190 C   0  0  0  0  0  0  0  0  0  0  0  0
    9.3975  -13.9809   22.5796 O   0  0  0  0  0  0  0  0  0  0  0  0
   10.4306  -20.5459   16.7450 C   0  0  0  0  0  0  0  0  0  0  0  0
    6.4675  -13.1905   24.9322 C   0  0  2  0  0  0  0  0  0  0  0  0
    7.2692  -14.0798   25.8488 O   0  0  0  0  0  0  0  0  0  0  0  0
    6.4682  -15.2598   25.9497 C   0  0  2  0  0  0  0  0  0  0  0  0
    8.5623  -14.4332   25.1618 N   0  0  0  0  0  0  0  0  0  0  0  0
    8.2981  -15.3287   24.0327 C   0  0  0  0  0  0  0  0  0  0  0  0
    9.4748  -15.0916   26.1174 O   0  0  0  0  0  0  0  0  0  0  0  0
   10.0413  -16.1999   25.7751 N   0  0  0  0  0  0  0  0  0  0  0  0
    9.8273  -14.6511   27.4048 C   0  0  1  0  0  0  0  0  0  0  0  0
   10.7318  -15.3585   28.2883 C   0  0  0  0  0  0  0  0  0  0  0  0
   10.8943  -14.7097   29.6178 S   0  0  0  0  0  0  0  0  0  0  0  0
   10.9169  -12.9017   29.3412 C   0  0  0  0  0  0  0  0  0  0  0  0
   10.2185  -16.7349   28.5009 O   0  0  0  0  0  0  0  0  0  0  0  0
    9.1273  -17.0831   28.0321 O   0  0  0  0  0  0  0  0  0  0  0  0
  1  2  1  0
  2  3  2  0
  4  2  1  0
  4  5  1  0
  6  5  1  0
  6  7  1  0
  7  8  1  0
  8  9  1  6
 10  8  1  0
 10 11  2  0
 13 12  1  1
 14 13  1  0
 15 16  1  1
 15 13  1  0
 16 10  1  0
 17 15  1  0
 18 17  2  0
 19 17  1  0
 20 19  1  0
 21 22  1  0
 20 21  1  1
 23 20  1  0
 23 25  1  0
 24 23  2  0
M  END
$$$$
