RTC.pdb
     RDKit          3D

 25 24  0  0  1  0  0  0  0  0999 V2000
   10.7082  -12.8545   11.8028 N   0  0  0  0  0  0  0  0  0  0  0  0
   10.1114  -14.0907   11.4018 C   0  0  0  0  0  0  0  0  0  0  0  0
   10.4031  -14.5755   10.2411 N   0  0  0  0  0  0  0  0  0  0  0  0
    9.2295  -14.7327   12.2851 N   0  0  0  0  0  0  0  0  0  0  0  0
    9.6130  -16.0432   12.8434 C   0  0  0  0  0  0  0  0  0  0  0  0
   10.5708  -15.7915   13.9543 C   0  0  0  0  0  0  0  0  0  0  0  0
   10.0091  -15.3100   15.2356 C   0  0  0  0  0  0  0  0  0  0  0  0
   10.0373  -16.2628   16.3858 C   0  0  2  0  0  0  0  0  0  0  0  0
    9.0193  -17.2782   16.3407 N   0  0  0  0  0  0  0  0  0  0  0  0
    9.9795  -15.4733   17.6463 C   0  0  0  0  0  0  0  0  0  0  0  0
   10.8742  -14.6191   17.8977 O   0  0  0  0  0  0  0  0  0  0  0  0
   10.0696  -15.5097    9.9422 C   0  0  0  0  0  0  0  0  0  0  0  0
    7.8120  -13.2342   21.2588 C   0  0  2  0  0  0  0  0  0  0  0  0
    7.7018  -14.0983   20.0278 O   0  0  0  0  0  0  0  0  0  0  0  0
    7.6124  -13.1484   18.9631 C   0  0  1  0  0  0  0  0  0  0  0  0
    8.9825  -14.8759   19.8730 N   0  0  0  0  0  0  0  0  0  0  0  0
    8.9666  -15.6154   18.6085 C   0  0  0  0  0  0  0  0  0  0  0  0
    9.1374  -15.8175   20.9994 O   0  0  0  0  0  0  0  0  0  0  0  0
    8.6848  -17.0198   20.8728 N   0  0  0  0  0  0  0  0  0  0  0  0
    9.7417  -15.5694   22.2439 C   0  0  1  0  0  0  0  0  0  0  0  0
   10.4251  -16.5749   23.0322 C   0  0  0  0  0  0  0  0  0  0  0  0
   11.8590  -16.7419   22.6703 S   0  0  0  0  0  0  0  0  0  0  0  0
   12.5478  -18.0375   23.7626 C   0  0  0  0  0  0  0  0  0  0  0  0
   10.3470  -16.1977   24.4656 O   0  0  0  0  0  0  0  0  0  0  0  0
    9.9307  -15.0827   24.8051 O   0  0  0  0  0  0  0  0  0  0  0  0
  1  2  1  0
  2  3  2  0
  4  2  1  0
  4  5  1  0
  6  5  1  0
  6  7  1  0
  7  8  1  0
  8  9  1  6
 10  8  1  0
 10 11  2  0
 13 12  1  1
 14 13  1  0
 15 16  1  1
 15 13  1  0
 16 10  1  0
 17 15  1  0
 18 17  2  0
 19 17  1  0
 20 19  1  0
 21 22  1  0
 20 21  1  1
 23 20  1  0
 23 25  1  0
 24 23  2  0
M  END
$$$$
