RTC.pdb
     RDKit          3D

 25 24  0  0  1  0  0  0  0  0999 V2000
    8.3175  -17.2087   14.1204 N   0  0  0  0  0  0  0  0  0  0  0  0
    9.2464  -18.0354   13.4143 C   0  0  0  0  0  0  0  0  0  0  0  0
    8.8390  -18.6814   12.3731 N   0  0  0  0  0  0  0  0  0  0  0  0
   10.5686  -18.1149   13.8790 N   0  0  0  0  0  0  0  0  0  0  0  0
   10.9396  -17.3664   15.0949 C   0  0  0  0  0  0  0  0  0  0  0  0
   11.1630  -18.3604   16.1796 C   0  0  0  0  0  0  0  0  0  0  0  0
   11.5043  -17.8342   17.5197 C   0  0  0  0  0  0  0  0  0  0  0  0
   10.4260  -17.8675   18.5529 C   0  0  2  0  0  0  0  0  0  0  0  0
    9.1542  -18.3341   18.0691 N   0  0  0  0  0  0  0  0  0  0  0  0
   10.3254  -16.5143   19.1650 C   0  0  0  0  0  0  0  0  0  0  0  0
   11.3713  -15.9009   19.5158 O   0  0  0  0  0  0  0  0  0  0  0  0
    9.4599  -19.3324   11.8593 C   0  0  0  0  0  0  0  0  0  0  0  0
    7.9937  -12.3452   20.0756 C   0  0  2  0  0  0  0  0  0  0  0  0
    7.8928  -13.7473   19.5299 O   0  0  0  0  0  0  0  0  0  0  0  0
    8.0838  -13.5702   18.1241 C   0  0  1  0  0  0  0  0  0  0  0  0
    9.0414  -14.5560   20.0735 N   0  0  0  0  0  0  0  0  0  0  0  0
    9.1091  -15.8489   19.3878 C   0  0  0  0  0  0  0  0  0  0  0  0
    8.8632  -14.7694   21.5234 O   0  0  0  0  0  0  0  0  0  0  0  0
    8.2026  -15.8034   21.9242 N   0  0  0  0  0  0  0  0  0  0  0  0
    9.3413  -13.9635   22.5711 C   0  0  2  0  0  0  0  0  0  0  0  0
    8.9406  -14.1061   23.9561 C   0  0  0  0  0  0  0  0  0  0  0  0
    7.5257  -13.7201   24.2093 S   0  0  0  0  0  0  0  0  0  0  0  0
    7.2078  -13.9609   25.9946 C   0  0  0  0  0  0  0  0  0  0  0  0
    9.1178  -15.5219   24.3650 O   0  0  0  0  0  0  0  0  0  0  0  0
    8.4626  -16.4232   23.8263 O   0  0  0  0  0  0  0  0  0  0  0  0
  1  2  1  0
  2  3  2  0
  4  2  1  0
  4  5  1  0
  6  5  1  0
  6  7  1  0
  7  8  1  0
  8  9  1  6
 10  8  1  0
 10 11  2  0
 13 12  1  6
 14 13  1  0
 15 16  1  1
 15 13  1  0
 16 10  1  0
 17 15  1  0
 18 17  2  0
 19 17  1  0
 20 19  1  0
 21 22  1  0
 20 21  1  6
 23 20  1  0
 23 25  1  0
 24 23  2  0
M  END
$$$$
