RTC.pdb
     RDKit          3D

 25 24  0  0  1  0  0  0  0  0999 V2000
    8.5345  -12.3343   18.7776 N   0  0  0  0  0  0  0  0  0  0  0  0
    8.4551  -13.3825   17.8080 C   0  0  0  0  0  0  0  0  0  0  0  0
    7.9774  -13.1145   16.6388 N   0  0  0  0  0  0  0  0  0  0  0  0
    8.8996  -14.6658   18.1629 N   0  0  0  0  0  0  0  0  0  0  0  0
    8.6103  -15.1670   19.5198 C   0  0  0  0  0  0  0  0  0  0  0  0
    7.1984  -14.8161   19.8332 C   0  0  0  0  0  0  0  0  0  0  0  0
    6.6539  -15.2906   21.1245 C   0  0  0  0  0  0  0  0  0  0  0  0
    7.0160  -16.6788   21.5406 C   0  0  2  0  0  0  0  0  0  0  0  0
    6.2305  -17.7098   20.9166 N   0  0  0  0  0  0  0  0  0  0  0  0
    6.9500  -16.7521   23.0259 C   0  0  0  0  0  0  0  0  0  0  0  0
    5.8495  -16.5752   23.6183 O   0  0  0  0  0  0  0  0  0  0  0  0
    7.9470  -13.8268   15.8871 C   0  0  0  0  0  0  0  0  0  0  0  0
    9.6102  -18.9053   25.3353 C   0  0  2  0  0  0  0  0  0  0  0  0
    8.2107  -18.5213   25.7450 O   0  0  0  0  0  0  0  0  0  0  0  0
    8.2641  -18.5497   27.1734 C   0  0  1  0  0  0  0  0  0  0  0  0
    7.9540  -17.1050   25.3011 N   0  0  0  0  0  0  0  0  0  0  0  0
    8.0619  -17.0127   23.8430 C   0  0  0  0  0  0  0  0  0  0  0  0
    8.9315  -16.1962   25.9320 O   0  0  0  0  0  0  0  0  0  0  0  0
   10.0506  -15.9701   25.3297 N   0  0  0  0  0  0  0  0  0  0  0  0
    8.7982  -15.5116   27.1523 C   0  0  1  0  0  0  0  0  0  0  0  0
    9.7888  -14.5991   27.6864 C   0  0  0  0  0  0  0  0  0  0  0  0
    9.2025  -13.3768   28.3006 S   0  0  0  0  0  0  0  0  0  0  0  0
    7.9598  -12.7222   27.1288 C   0  0  0  0  0  0  0  0  0  0  0  0
   10.5848  -15.3049   28.7215 O   0  0  0  0  0  0  0  0  0  0  0  0
   10.2879  -16.4534   29.0746 O   0  0  0  0  0  0  0  0  0  0  0  0
  1  2  1  0
  2  3  2  0
  4  2  1  0
  4  5  1  0
  6  5  1  0
  6  7  1  0
  7  8  1  0
  8  9  1  6
 10  8  1  0
 10 11  2  0
 13 12  1  6
 14 13  1  0
 15 16  1  6
 15 13  1  0
 16 10  1  0
 17 15  1  0
 18 17  2  0
 19 17  1  0
 20 19  1  0
 21 22  1  0
 20 21  1  1
 23 20  1  0
 23 25  1  0
 24 23  2  0
M  END
$$$$
