RTC.pdb
     RDKit          3D

 25 24  0  0  1  0  0  0  0  0999 V2000
    7.0850  -13.6846   18.6548 N   0  0  0  0  0  0  0  0  0  0  0  0
    7.9620  -13.6454   17.5260 C   0  0  0  0  0  0  0  0  0  0  0  0
    7.9515  -12.6024   16.7649 N   0  0  0  0  0  0  0  0  0  0  0  0
    8.8032  -14.7432   17.2859 N   0  0  0  0  0  0  0  0  0  0  0  0
    8.7444  -15.8964   18.2040 C   0  0  0  0  0  0  0  0  0  0  0  0
    9.7035  -15.6342   19.3113 C   0  0  0  0  0  0  0  0  0  0  0  0
    9.1569  -15.5987   20.6857 C   0  0  0  0  0  0  0  0  0  0  0  0
    8.2264  -16.7020   21.0710 C   0  0  2  0  0  0  0  0  0  0  0  0
    7.0436  -16.7926   20.2572 N   0  0  0  0  0  0  0  0  0  0  0  0
    7.8975  -16.5511   22.5149 C   0  0  0  0  0  0  0  0  0  0  0  0
    7.0153  -15.7246   22.8782 O   0  0  0  0  0  0  0  0  0  0  0  0
    8.5424  -12.5422   15.9160 C   0  0  0  0  0  0  0  0  0  0  0  0
    7.6334  -18.3899   27.0075 C   0  0  2  0  0  0  0  0  0  0  0  0
    8.0485  -18.5424   25.5658 O   0  0  0  0  0  0  0  0  0  0  0  0
    6.9605  -19.2634   24.9823 C   0  0  1  0  0  0  0  0  0  0  0  0
    8.1108  -17.1743   24.9387 N   0  0  0  0  0  0  0  0  0  0  0  0
    8.5192  -17.2873   23.5363 C   0  0  0  0  0  0  0  0  0  0  0  0
    9.0740  -16.3294   25.6721 O   0  0  0  0  0  0  0  0  0  0  0  0
   10.3372  -16.5224   25.4891 N   0  0  0  0  0  0  0  0  0  0  0  0
    8.7860  -15.2952   26.5793 C   0  0  2  0  0  0  0  0  0  0  0  0
    9.7917  -14.4885   27.2405 C   0  0  0  0  0  0  0  0  0  0  0  0
    9.3078  -13.1366   27.6318 S   0  0  0  0  0  0  0  0  0  0  0  0
    7.7346  -13.3633   28.5371 C   0  0  0  0  0  0  0  0  0  0  0  0
   10.2454  -15.1937   28.4653 O   0  0  0  0  0  0  0  0  0  0  0  0
    9.6028  -16.1484   28.9209 O   0  0  0  0  0  0  0  0  0  0  0  0
  1  2  1  0
  2  3  2  0
  4  2  1  0
  4  5  1  0
  6  5  1  0
  6  7  1  0
  7  8  1  0
  8  9  1  6
 10  8  1  0
 10 11  2  0
 13 12  1  1
 14 13  1  0
 15 16  1  1
 15 13  1  0
 16 10  1  0
 17 15  1  0
 18 17  2  0
 19 17  1  0
 20 19  1  0
 21 22  1  0
 20 21  1  1
 23 20  1  0
 23 25  1  0
 24 23  2  0
M  END
$$$$
