RTC.pdb
     RDKit          3D

 25 24  0  0  1  0  0  0  0  0999 V2000
   14.2660  -16.1454   18.8290 N   0  0  0  0  0  0  0  0  0  0  0  0
   13.4980  -14.9629   19.0671 C   0  0  0  0  0  0  0  0  0  0  0  0
   13.9823  -14.0514   19.8429 N   0  0  0  0  0  0  0  0  0  0  0  0
   12.2444  -14.8357   18.4485 N   0  0  0  0  0  0  0  0  0  0  0  0
   11.4368  -13.6319   18.7219 C   0  0  0  0  0  0  0  0  0  0  0  0
   10.6099  -13.9139   19.9267 C   0  0  0  0  0  0  0  0  0  0  0  0
    9.1400  -13.8732   19.7629 C   0  0  0  0  0  0  0  0  0  0  0  0
    8.4244  -15.1844   19.7595 C   0  0  2  0  0  0  0  0  0  0  0  0
    7.5380  -15.3742   18.6425 N   0  0  0  0  0  0  0  0  0  0  0  0
    7.7178  -15.3330   21.0612 C   0  0  0  0  0  0  0  0  0  0  0  0
    6.5028  -15.0057   21.1607 O   0  0  0  0  0  0  0  0  0  0  0  0
   13.4104  -13.2489   20.1628 C   0  0  0  0  0  0  0  0  0  0  0  0
    6.6889  -17.7537   24.9930 C   0  0  2  0  0  0  0  0  0  0  0  0
    7.4883  -17.5440   23.7317 O   0  0  0  0  0  0  0  0  0  0  0  0
    6.6776  -18.1487   22.7213 C   0  0  1  0  0  0  0  0  0  0  0  0
    7.5731  -16.0650   23.4595 N   0  0  0  0  0  0  0  0  0  0  0  0
    8.3267  -15.8279   22.2257 C   0  0  0  0  0  0  0  0  0  0  0  0
    8.2378  -15.3842   24.5884 O   0  0  0  0  0  0  0  0  0  0  0  0
    9.5267  -15.4053   24.6567 N   0  0  0  0  0  0  0  0  0  0  0  0
    7.6276  -14.6822   25.6421 C   0  0  1  0  0  0  0  0  0  0  0  0
    8.3511  -14.0552   26.7296 C   0  0  0  0  0  0  0  0  0  0  0  0
    7.5410  -13.0664   27.4918 S   0  0  0  0  0  0  0  0  0  0  0  0
    6.8234  -11.9008   26.2784 C   0  0  0  0  0  0  0  0  0  0  0  0
    8.8104  -15.1065   27.6714 O   0  0  0  0  0  0  0  0  0  0  0  0
    8.4340  -16.2787   27.5442 O   0  0  0  0  0  0  0  0  0  0  0  0
  1  2  1  0
  2  3  2  0
  4  2  1  0
  4  5  1  0
  6  5  1  0
  6  7  1  0
  7  8  1  0
  8  9  1  6
 10  8  1  0
 10 11  2  0
 13 12  1  1
 14 13  1  0
 15 16  1  1
 15 13  1  0
 16 10  1  0
 17 15  1  0
 18 17  2  0
 19 17  1  0
 20 19  1  0
 21 22  1  0
 20 21  1  1
 23 20  1  0
 23 25  1  0
 24 23  2  0
M  END
$$$$
