RTC.pdb
     RDKit          3D

 25 24  0  0  1  0  0  0  0  0999 V2000
    8.1296  -12.6664   17.4441 N   0  0  0  0  0  0  0  0  0  0  0  0
    8.7519  -13.9533   17.4861 C   0  0  0  0  0  0  0  0  0  0  0  0
    9.5475  -14.2921   16.5273 N   0  0  0  0  0  0  0  0  0  0  0  0
    8.4748  -14.8023   18.5691 N   0  0  0  0  0  0  0  0  0  0  0  0
    7.0813  -15.2288   18.7981 C   0  0  0  0  0  0  0  0  0  0  0  0
    6.5858  -14.5063   20.0011 C   0  0  0  0  0  0  0  0  0  0  0  0
    7.0457  -14.9937   21.3202 C   0  0  0  0  0  0  0  0  0  0  0  0
    6.6888  -16.3981   21.6830 C   0  0  2  0  0  0  0  0  0  0  0  0
    5.3905  -16.8175   21.2272 N   0  0  0  0  0  0  0  0  0  0  0  0
    6.8366  -16.5506   23.1564 C   0  0  0  0  0  0  0  0  0  0  0  0
    5.9202  -16.1514   23.9273 O   0  0  0  0  0  0  0  0  0  0  0  0
    9.9492  -15.2450   16.4646 C   0  0  0  0  0  0  0  0  0  0  0  0
    7.2842  -19.5719   25.0682 C   0  0  2  0  0  0  0  0  0  0  0  0
    8.3911  -18.6878   25.5852 O   0  0  0  0  0  0  0  0  0  0  0  0
    9.5296  -19.1052   24.8278 C   0  0  2  0  0  0  0  0  0  0  0  0
    8.0708  -17.2606   25.2256 N   0  0  0  0  0  0  0  0  0  0  0  0
    7.9604  -17.1261   23.7709 C   0  0  0  0  0  0  0  0  0  0  0  0
    9.1311  -16.3658   25.7301 O   0  0  0  0  0  0  0  0  0  0  0  0
   10.0667  -15.9919   24.9230 N   0  0  0  0  0  0  0  0  0  0  0  0
    9.2609  -15.8408   27.0274 C   0  0  1  0  0  0  0  0  0  0  0  0
   10.3957  -15.0627   27.4812 C   0  0  0  0  0  0  0  0  0  0  0  0
   10.1226  -13.6018   27.5601 S   0  0  0  0  0  0  0  0  0  0  0  0
    8.6413  -13.3817   28.6105 C   0  0  0  0  0  0  0  0  0  0  0  0
   10.7950  -15.5357   28.8304 O   0  0  0  0  0  0  0  0  0  0  0  0
   10.1229  -16.3862   29.4276 O   0  0  0  0  0  0  0  0  0  0  0  0
  1  2  1  0
  2  3  2  0
  4  2  1  0
  4  5  1  0
  6  5  1  0
  6  7  1  0
  7  8  1  0
  8  9  1  1
 10  8  1  0
 10 11  2  0
 13 12  1  1
 14 13  1  0
 15 16  1  1
 15 13  1  0
 16 10  1  0
 17 15  1  0
 18 17  2  0
 19 17  1  0
 20 19  1  0
 21 22  1  0
 20 21  1  1
 23 20  1  0
 23 25  1  0
 24 23  2  0
M  END
$$$$
