RTC.pdb
     RDKit          3D

 25 24  0  0  1  0  0  0  0  0999 V2000
    7.1635  -12.1355   19.7470 N   0  0  0  0  0  0  0  0  0  0  0  0
    7.9960  -12.9542   18.9213 C   0  0  0  0  0  0  0  0  0  0  0  0
    9.1342  -12.4883   18.5282 N   0  0  0  0  0  0  0  0  0  0  0  0
    7.5452  -14.2357   18.5678 N   0  0  0  0  0  0  0  0  0  0  0  0
    7.1647  -14.4925   17.1659 C   0  0  0  0  0  0  0  0  0  0  0  0
    8.3073  -15.1885   16.5141 C   0  0  0  0  0  0  0  0  0  0  0  0
    9.2159  -15.9623   17.3886 C   0  0  0  0  0  0  0  0  0  0  0  0
   10.2430  -16.8108   16.7130 C   0  0  2  0  0  0  0  0  0  0  0  0
    9.7270  -17.6398   15.6568 N   0  0  0  0  0  0  0  0  0  0  0  0
   10.9451  -17.6100   17.7542 C   0  0  0  0  0  0  0  0  0  0  0  0
   10.3774  -18.6127   18.2697 O   0  0  0  0  0  0  0  0  0  0  0  0
    9.7281  -13.0017   17.8520 C   0  0  0  0  0  0  0  0  0  0  0  0
   14.4044  -19.0788   17.5409 C   0  0  2  0  0  0  0  0  0  0  0  0
   14.3503  -18.3422   18.8556 O   0  0  0  0  0  0  0  0  0  0  0  0
   14.9237  -17.0696   18.5463 C   0  0  2  0  0  0  0  0  0  0  0  0
   12.9058  -18.1405   19.2319 N   0  0  0  0  0  0  0  0  0  0  0  0
   12.2374  -17.3186   18.2199 C   0  0  0  0  0  0  0  0  0  0  0  0
   12.8177  -17.4793   20.5489 O   0  0  0  0  0  0  0  0  0  0  0  0
   12.6971  -16.1949   20.5941 N   0  0  0  0  0  0  0  0  0  0  0  0
   12.8449  -18.0892   21.8150 C   0  0  1  0  0  0  0  0  0  0  0  0
   12.7714  -17.3666   23.0686 C   0  0  0  0  0  0  0  0  0  0  0  0
   11.8967  -18.0183   24.0811 S   0  0  0  0  0  0  0  0  0  0  0  0
   12.0450  -17.0543   25.6286 C   0  0  0  0  0  0  0  0  0  0  0  0
   14.1372  -17.2506   23.6381 O   0  0  0  0  0  0  0  0  0  0  0  0
   15.0737  -17.9159   23.1775 O   0  0  0  0  0  0  0  0  0  0  0  0
  1  2  1  0
  2  3  2  0
  4  2  1  0
  4  5  1  0
  6  5  1  0
  6  7  1  0
  7  8  1  0
  8  9  1  6
 10  8  1  0
 10 11  2  0
 13 12  1  1
 14 13  1  0
 15 16  1  1
 15 13  1  0
 16 10  1  0
 17 15  1  0
 18 17  2  0
 19 17  1  0
 20 19  1  0
 21 22  1  0
 20 21  1  1
 23 20  1  0
 23 25  1  0
 24 23  2  0
M  END
$$$$
