CYN.pdb
     RDKit          3D

 27 27  0  0  1  0  0  0  0  0999 V2000
   27.2043  -20.1296  -16.2502 N   0  0  0  0  0  0  0  0  0  0  0  0
   26.4024  -19.0079  -15.7245 C   0  0  1  0  0  0  0  0  0  0  0  0
   26.4668  -17.8520  -16.6826 C   0  0  0  0  0  0  0  0  0  0  0  0
   26.3930  -16.2876  -15.8040 S   0  0  0  0  0  0  0  0  0  0  0  0
   25.0260  -19.5331  -15.5446 C   0  0  0  0  0  0  0  0  0  0  0  0
   24.6069  -20.4098  -16.3894 O   0  0  0  0  0  0  0  0  0  0  0  0
   24.5847  -25.5874  -13.0752 O   0  0  0  0  0  0  0  0  0  0  0  0
   24.0735  -24.2847  -13.1137 C   0  0  0  0  0  0  0  0  0  0  0  0
   24.6560  -23.2617  -12.3957 C   0  0  0  0  0  0  0  0  0  0  0  0
   24.1453  -21.9769  -12.4390 C   0  0  0  0  0  0  0  0  0  0  0  0
   23.0376  -21.6519  -13.1942 C   0  0  0  0  0  0  0  0  0  0  0  0
   22.4551  -20.2996  -13.2754 C   0  0  0  0  0  0  0  0  0  0  0  0
   22.7868  -19.5677  -14.5231 C   0  0  2  0  0  0  0  0  0  0  0  0
   24.1619  -19.1198  -14.4932 N   0  0  0  0  0  0  0  0  0  0  0  0
   21.9356  -18.3546  -14.7475 C   0  0  0  0  0  0  0  0  0  0  0  0
   21.8741  -17.3919  -13.9410 O   0  0  0  0  0  0  0  0  0  0  0  0
   22.4590  -22.6867  -13.9121 C   0  0  0  0  0  0  0  0  0  0  0  0
   22.9658  -23.9727  -13.8720 C   0  0  0  0  0  0  0  0  0  0  0  0
   20.1590  -14.2400  -18.4373 N   0  0  0  0  0  0  0  0  0  0  0  0
   20.2657  -14.7987  -17.1264 C   0  0  0  0  0  0  0  0  0  0  0  0
   19.6413  -14.2084  -16.1999 O   0  0  0  0  0  0  0  0  0  0  0  0
   21.0739  -16.0027  -16.9146 C   0  0  0  0  0  0  0  0  0  0  0  0
   20.2977  -17.0627  -16.1298 C   0  0  2  0  0  0  0  0  0  0  0  0
   21.1281  -18.2308  -15.9262 N   0  0  0  0  0  0  0  0  0  0  0  0
   19.0792  -17.4283  -16.8823 C   0  0  0  0  0  0  0  0  0  0  0  0
   19.0225  -18.5598  -17.4225 O   0  0  0  0  0  0  0  0  0  0  0  0
   18.0204  -16.5685  -17.0016 O   0  0  0  0  0  0  0  0  0  0  0  0
  2  1  1  6
  3  2  1  0
  4  3  1  0
  5  2  1  0
  5  6  2  0
  7  8  1  0
  8 18  2  0
  9  8  1  0
  9 10  2  0
 10 11  1  0
 11 17  2  0
 11 12  1  0
 13 12  1  1
 13 14  1  0
 14  5  1  0
 15 13  1  0
 16 15  2  0
 18 17  1  0
 20 21  2  0
 20 19  1  0
 23 22  1  6
 22 20  1  0
 23 24  1  0
 24 15  1  0
 25 23  1  0
 26 25  2  0
 27 25  1  0
M  END
$$$$
