CYN.pdb
     RDKit          3D

 27 27  0  0  1  0  0  0  0  0999 V2000
   22.9268  -13.4233  -17.5687 N   0  0  0  0  0  0  0  0  0  0  0  0
   23.2742  -12.5729  -16.4138 C   0  0  1  0  0  0  0  0  0  0  0  0
   24.7008  -12.1167  -16.5371 C   0  0  0  0  0  0  0  0  0  0  0  0
   25.8288  -13.3675  -15.9145 S   0  0  0  0  0  0  0  0  0  0  0  0
   22.3054  -11.4487  -16.4227 C   0  0  0  0  0  0  0  0  0  0  0  0
   21.9864  -10.9451  -17.5641 O   0  0  0  0  0  0  0  0  0  0  0  0
   16.5598  -14.4154  -17.4095 O   0  0  0  0  0  0  0  0  0  0  0  0
   17.2625  -13.3958  -16.7563 C   0  0  0  0  0  0  0  0  0  0  0  0
   17.0773  -12.0696  -17.0853 C   0  0  0  0  0  0  0  0  0  0  0  0
   17.7750  -11.0677  -16.4354 C   0  0  0  0  0  0  0  0  0  0  0  0
   18.6844  -11.3368  -15.4336 C   0  0  0  0  0  0  0  0  0  0  0  0
   19.4521  -10.3067  -14.7096 C   0  0  0  0  0  0  0  0  0  0  0  0
   20.7044   -9.8909  -15.3889 C   0  0  2  0  0  0  0  0  0  0  0  0
   21.7186  -10.9120  -15.2435 N   0  0  0  0  0  0  0  0  0  0  0  0
   21.2826   -8.6185  -14.8476 C   0  0  0  0  0  0  0  0  0  0  0  0
   21.9022   -8.5479  -13.7557 O   0  0  0  0  0  0  0  0  0  0  0  0
   18.8638  -12.6725  -15.1101 C   0  0  0  0  0  0  0  0  0  0  0  0
   18.1687  -13.6778  -15.7570 C   0  0  0  0  0  0  0  0  0  0  0  0
   22.5874   -3.7054  -14.2100 N   0  0  0  0  0  0  0  0  0  0  0  0
   22.7858   -4.0254  -15.5885 C   0  0  0  0  0  0  0  0  0  0  0  0
   23.3737   -3.1608  -16.2981 O   0  0  0  0  0  0  0  0  0  0  0  0
   22.3119   -5.3103  -16.1103 C   0  0  0  0  0  0  0  0  0  0  0  0
   21.6568   -6.1495  -15.0109 C   0  0  2  0  0  0  0  0  0  0  0  0
   21.1533   -7.3863  -15.5698 N   0  0  0  0  0  0  0  0  0  0  0  0
   20.5522   -5.3774  -14.4041 C   0  0  0  0  0  0  0  0  0  0  0  0
   20.8294   -4.3394  -13.7550 O   0  0  0  0  0  0  0  0  0  0  0  0
   19.2455   -5.7650  -14.5333 O   0  0  0  0  0  0  0  0  0  0  0  0
  2  1  1  6
  3  2  1  0
  4  3  1  0
  5  2  1  0
  5  6  2  0
  7  8  1  0
  8 18  2  0
  9  8  1  0
  9 10  2  0
 10 11  1  0
 11 17  2  0
 11 12  1  0
 13 12  1  1
 13 14  1  0
 14  5  1  0
 15 13  1  0
 16 15  2  0
 18 17  1  0
 20 21  2  0
 20 19  1  0
 23 22  1  6
 22 20  1  0
 23 24  1  0
 24 15  1  0
 25 23  1  0
 26 25  2  0
 27 25  1  0
M  END
$$$$
