CYN.pdb
     RDKit          3D

 27 27  0  0  1  0  0  0  0  0999 V2000
   21.8930  -19.6593  -10.5309 N   0  0  0  0  0  0  0  0  0  0  0  0
   22.6577  -20.7934  -11.0848 C   0  0  1  0  0  0  0  0  0  0  0  0
   22.2010  -21.0687  -12.4898 C   0  0  0  0  0  0  0  0  0  0  0  0
   21.5104  -22.7207  -12.6262 S   0  0  0  0  0  0  0  0  0  0  0  0
   24.0877  -20.4039  -11.0080 C   0  0  0  0  0  0  0  0  0  0  0  0
   24.3920  -19.1891  -11.3073 O   0  0  0  0  0  0  0  0  0  0  0  0
   27.5126  -18.5340   -4.7657 O   0  0  0  0  0  0  0  0  0  0  0  0
   27.4511  -19.2615   -5.9602 C   0  0  0  0  0  0  0  0  0  0  0  0
   26.4019  -20.1146   -6.2298 C   0  0  0  0  0  0  0  0  0  0  0  0
   26.3479  -20.8299   -7.4124 C   0  0  0  0  0  0  0  0  0  0  0  0
   27.3296  -20.7306   -8.3764 C   0  0  0  0  0  0  0  0  0  0  0  0
   27.3188  -21.4694   -9.6526 C   0  0  0  0  0  0  0  0  0  0  0  0
   26.4919  -20.8413  -10.7128 C   0  0  2  0  0  0  0  0  0  0  0  0
   25.1228  -21.2991  -10.6206 N   0  0  0  0  0  0  0  0  0  0  0  0
   26.9652  -21.1513  -12.1008 C   0  0  0  0  0  0  0  0  0  0  0  0
   27.1724  -22.3192  -12.5179 O   0  0  0  0  0  0  0  0  0  0  0  0
   28.3801  -19.8709   -8.0964 C   0  0  0  0  0  0  0  0  0  0  0  0
   28.4386  -19.1537   -6.9155 C   0  0  0  0  0  0  0  0  0  0  0  0
   24.8515  -20.8125  -17.1610 N   0  0  0  0  0  0  0  0  0  0  0  0
   25.8809  -21.3282  -16.3146 C   0  0  0  0  0  0  0  0  0  0  0  0
   26.7519  -22.0659  -16.8568 O   0  0  0  0  0  0  0  0  0  0  0  0
   25.8852  -20.9894  -14.8888 C   0  0  0  0  0  0  0  0  0  0  0  0
   27.2228  -20.3773  -14.4666 C   0  0  2  0  0  0  0  0  0  0  0  0
   27.2110  -20.1009  -13.0457 N   0  0  0  0  0  0  0  0  0  0  0  0
   27.4471  -19.1298  -15.2268 C   0  0  0  0  0  0  0  0  0  0  0  0
   27.1322  -18.0369  -14.6960 O   0  0  0  0  0  0  0  0  0  0  0  0
   27.9865  -19.1395  -16.4852 O   0  0  0  0  0  0  0  0  0  0  0  0
  2  1  1  6
  3  2  1  0
  4  3  1  0
  5  2  1  0
  5  6  2  0
  7  8  1  0
  8 18  2  0
  9  8  1  0
  9 10  2  0
 10 11  1  0
 11 17  2  0
 11 12  1  0
 13 12  1  1
 13 14  1  0
 14  5  1  0
 15 13  1  0
 16 15  2  0
 18 17  1  0
 20 21  2  0
 20 19  1  0
 23 22  1  6
 22 20  1  0
 23 24  1  0
 24 15  1  0
 25 23  1  0
 26 25  2  0
 27 25  1  0
M  END
$$$$
