CYN.pdb
     RDKit          3D

 27 27  0  0  1  0  0  0  0  0999 V2000
   26.8149  -12.7067  -17.0397 N   0  0  0  0  0  0  0  0  0  0  0  0
   26.8661  -11.3704  -16.4157 C   0  0  1  0  0  0  0  0  0  0  0  0
   28.0960  -10.6445  -16.8835 C   0  0  0  0  0  0  0  0  0  0  0  0
   29.5839  -11.4875  -16.3359 S   0  0  0  0  0  0  0  0  0  0  0  0
   25.6081  -10.6851  -16.8036 C   0  0  0  0  0  0  0  0  0  0  0  0
   24.9783  -11.1326  -17.8338 O   0  0  0  0  0  0  0  0  0  0  0  0
   18.7341  -10.4744  -20.3041 O   0  0  0  0  0  0  0  0  0  0  0  0
   19.7151  -10.3962  -19.3083 C   0  0  0  0  0  0  0  0  0  0  0  0
   19.6966   -9.3981  -18.3570 C   0  0  0  0  0  0  0  0  0  0  0  0
   20.6691   -9.3275  -17.3760 C   0  0  0  0  0  0  0  0  0  0  0  0
   21.6995  -10.2412  -17.2961 C   0  0  0  0  0  0  0  0  0  0  0  0
   22.7591  -10.2111  -16.2709 C   0  0  0  0  0  0  0  0  0  0  0  0
   23.7454   -9.1163  -16.4465 C   0  0  2  0  0  0  0  0  0  0  0  0
   25.0724   -9.5736  -16.0964 N   0  0  0  0  0  0  0  0  0  0  0  0
   23.4588   -7.9133  -15.5996 C   0  0  0  0  0  0  0  0  0  0  0  0
   23.6434   -7.8808  -14.3563 O   0  0  0  0  0  0  0  0  0  0  0  0
   21.7097  -11.2404  -18.2565 C   0  0  0  0  0  0  0  0  0  0  0  0
   20.7398  -11.3152  -19.2393 C   0  0  0  0  0  0  0  0  0  0  0  0
   22.2984   -3.1706  -14.0546 N   0  0  0  0  0  0  0  0  0  0  0  0
   22.2845   -3.0980  -15.4818 C   0  0  0  0  0  0  0  0  0  0  0  0
   22.1015   -1.9580  -15.9953 O   0  0  0  0  0  0  0  0  0  0  0  0
   22.4783   -4.3169  -16.2719 C   0  0  0  0  0  0  0  0  0  0  0  0
   22.7395   -5.5272  -15.3724 C   0  0  2  0  0  0  0  0  0  0  0  0
   22.9460   -6.7082  -16.1837 N   0  0  0  0  0  0  0  0  0  0  0  0
   21.5829   -5.7222  -14.4731 C   0  0  0  0  0  0  0  0  0  0  0  0
   20.5550   -6.2812  -14.9276 O   0  0  0  0  0  0  0  0  0  0  0  0
   21.6075   -5.3112  -13.1673 O   0  0  0  0  0  0  0  0  0  0  0  0
  2  1  1  6
  3  2  1  0
  4  3  1  0
  5  2  1  0
  5  6  2  0
  7  8  1  0
  8 18  2  0
  9  8  1  0
  9 10  2  0
 10 11  1  0
 11 17  2  0
 11 12  1  0
 13 12  1  1
 13 14  1  0
 14  5  1  0
 15 13  1  0
 16 15  2  0
 18 17  1  0
 20 21  2  0
 20 19  1  0
 23 22  1  6
 22 20  1  0
 23 24  1  0
 24 15  1  0
 25 23  1  0
 26 25  2  0
 27 25  1  0
M  END
$$$$
