WWF.pdb
     RDKit          3D

 40 44  0  0  1  0  0  0  0  0999 V2000
   25.2509  -19.3383   -9.8107 N   0  0  0  0  0  0  0  0  0  0  0  0
   26.4483  -20.0905  -10.1232 C   0  0  1  0  0  0  0  0  0  0  0  0
   26.5229  -21.4131   -9.4066 C   0  0  0  0  0  0  0  0  0  0  0  0
   26.5313  -21.1561   -7.9390 C   0  0  0  0  0  0  0  0  0  0  0  0
   25.4850  -21.3706   -7.0521 C   0  0  0  0  0  0  0  0  0  0  0  0
   25.8784  -21.0209   -5.8182 N   0  0  0  0  0  0  0  0  0  0  0  0
   27.1665  -20.5723   -5.8347 C   0  0  0  0  0  0  0  0  0  0  0  0
   28.0079  -20.1082   -4.8505 C   0  0  0  0  0  0  0  0  0  0  0  0
   29.2821  -19.7179   -5.1782 C   0  0  0  0  0  0  0  0  0  0  0  0
   29.6679  -19.8114   -6.5085 C   0  0  0  0  0  0  0  0  0  0  0  0
   28.8426  -20.2711   -7.5010 C   0  0  0  0  0  0  0  0  0  0  0  0
   27.5576  -20.6630   -7.1611 C   0  0  0  0  0  0  0  0  0  0  0  0
   26.4466  -20.3286  -11.6108 C   0  0  0  0  0  0  0  0  0  0  0  0
   25.3649  -20.5828  -12.2323 O   0  0  0  0  0  0  0  0  0  0  0  0
   27.6533  -20.2746  -12.3566 N   0  0  0  0  0  0  0  0  0  0  0  0
   27.6815  -20.1123  -13.8156 C   0  0  1  0  0  0  0  0  0  0  0  0
   28.4883  -18.9033  -14.1084 C   0  0  0  0  0  0  0  0  0  0  0  0
   27.8194  -17.7813  -14.7432 C   0  0  0  0  0  0  0  0  0  0  0  0
   26.9496  -16.8893  -14.1818 C   0  0  0  0  0  0  0  0  0  0  0  0
   26.5464  -16.0202  -15.1214 N   0  0  0  0  0  0  0  0  0  0  0  0
   27.1340  -16.3195  -16.2996 C   0  0  0  0  0  0  0  0  0  0  0  0
   27.0949  -15.7871  -17.5656 C   0  0  0  0  0  0  0  0  0  0  0  0
   27.8140  -16.2995  -18.6160 C   0  0  0  0  0  0  0  0  0  0  0  0
   28.6167  -17.4006  -18.3997 C   0  0  0  0  0  0  0  0  0  0  0  0
   28.6677  -17.9478  -17.1371 C   0  0  0  0  0  0  0  0  0  0  0  0
   27.9366  -17.4248  -16.0742 C   0  0  0  0  0  0  0  0  0  0  0  0
   28.0663  -21.3568  -14.4754 C   0  0  0  0  0  0  0  0  0  0  0  0
   28.4247  -22.3525  -13.7499 O   0  0  0  0  0  0  0  0  0  0  0  0
   28.0917  -21.6100  -15.8631 N   0  0  0  0  0  0  0  0  0  0  0  0
   27.0632  -22.3844  -16.5554 C   0  0  1  0  0  0  0  0  0  0  0  0
   25.6932  -21.9973  -16.0990 C   0  0  0  0  0  0  0  0  0  0  0  0
   25.1459  -22.9122  -15.0807 C   0  0  0  0  0  0  0  0  0  0  0  0
   25.3093  -24.2806  -15.0868 C   0  0  0  0  0  0  0  0  0  0  0  0
   24.7826  -25.1080  -14.1111 C   0  0  0  0  0  0  0  0  0  0  0  0
   24.0559  -24.5697  -13.0718 C   0  0  0  0  0  0  0  0  0  0  0  0
   23.8765  -23.1928  -13.0425 C   0  0  0  0  0  0  0  0  0  0  0  0
   24.4138  -22.3935  -14.0293 C   0  0  0  0  0  0  0  0  0  0  0  0
   27.1935  -22.3027  -18.0097 C   0  0  0  0  0  0  0  0  0  0  0  0
   27.2894  -23.3722  -18.8573 O   0  0  0  0  0  0  0  0  0  0  0  0
   27.2223  -21.1336  -18.5265 O   0  0  0  0  0  0  0  0  0  0  0  0
  2  3  1  0
  2  1  1  1
  4  3  1  0
  4  5  2  0
  6  5  1  0
  7  6  1  0
  8  7  2  0
  9  8  1  0
 10  9  2  0
 10 11  1  0
 11 12  2  0
 12  7  1  0
 12  4  1  0
 13  2  1  0
 14 13  2  0
 15 13  1  0
 16 27  1  0
 16 15  1  0
 16 17  1  1
 18 17  1  0
 18 26  1  0
 19 20  1  0
 19 18  2  0
 20 21  1  0
 21 26  2  0
 21 22  1  0
 22 23  2  0
 23 24  1  0
 25 24  2  0
 26 25  1  0
 27 28  2  0
 29 27  1  0
 30 29  1  0
 30 31  1  6
 32 31  1  0
 33 32  2  0
 34 33  1  0
 35 34  2  0
 35 36  1  0
 36 37  2  0
 37 32  1  0
 38 30  1  0
 39 38  1  0
 40 38  2  0
M  END
$$$$
