WWF.pdb
     RDKit          3D

 40 44  0  0  1  0  0  0  0  0999 V2000
   26.5637  -20.3646  -17.9333 N   0  0  0  0  0  0  0  0  0  0  0  0
   26.2166  -19.4601  -16.8568 C   0  0  1  0  0  0  0  0  0  0  0  0
   24.8327  -18.8809  -16.9905 C   0  0  0  0  0  0  0  0  0  0  0  0
   24.8011  -18.0046  -18.1950 C   0  0  0  0  0  0  0  0  0  0  0  0
   24.5982  -18.4051  -19.5088 C   0  0  0  0  0  0  0  0  0  0  0  0
   24.6370  -17.3269  -20.3060 N   0  0  0  0  0  0  0  0  0  0  0  0
   24.8608  -16.1975  -19.5746 C   0  0  0  0  0  0  0  0  0  0  0  0
   24.9835  -14.8708  -19.9166 C   0  0  0  0  0  0  0  0  0  0  0  0
   25.2124  -13.9378  -18.9366 C   0  0  0  0  0  0  0  0  0  0  0  0
   25.3109  -14.3839  -17.6257 C   0  0  0  0  0  0  0  0  0  0  0  0
   25.1914  -15.7012  -17.2679 C   0  0  0  0  0  0  0  0  0  0  0  0
   24.9604  -16.6365  -18.2640 C   0  0  0  0  0  0  0  0  0  0  0  0
   26.3077  -20.2432  -15.5731 C   0  0  0  0  0  0  0  0  0  0  0  0
   25.6984  -21.3530  -15.4380 O   0  0  0  0  0  0  0  0  0  0  0  0
   27.0772  -19.7619  -14.4814 N   0  0  0  0  0  0  0  0  0  0  0  0
   26.9664  -20.3122  -13.1247 C   0  0  1  0  0  0  0  0  0  0  0  0
   28.1777  -19.8929  -12.3795 C   0  0  0  0  0  0  0  0  0  0  0  0
   28.4334  -20.5221  -11.0958 C   0  0  0  0  0  0  0  0  0  0  0  0
   29.0906  -21.6939  -10.8458 C   0  0  0  0  0  0  0  0  0  0  0  0
   29.0880  -21.9240   -9.5237 N   0  0  0  0  0  0  0  0  0  0  0  0
   28.4395  -20.9239   -8.8895 C   0  0  0  0  0  0  0  0  0  0  0  0
   28.1401  -20.6401   -7.5790 C   0  0  0  0  0  0  0  0  0  0  0  0
   27.4485  -19.5188   -7.1948 C   0  0  0  0  0  0  0  0  0  0  0  0
   27.0308  -18.6292   -8.1631 C   0  0  0  0  0  0  0  0  0  0  0  0
   27.3217  -18.8980   -9.4820 C   0  0  0  0  0  0  0  0  0  0  0  0
   28.0235  -20.0367   -9.8675 C   0  0  0  0  0  0  0  0  0  0  0  0
   25.6682  -19.9979  -12.5346 C   0  0  0  0  0  0  0  0  0  0  0  0
   25.1039  -18.8882  -12.8449 O   0  0  0  0  0  0  0  0  0  0  0  0
   24.9293  -20.7937  -11.6339 N   0  0  0  0  0  0  0  0  0  0  0  0
   23.6424  -20.3856  -11.0736 C   0  0  1  0  0  0  0  0  0  0  0  0
   22.5987  -20.2720  -12.1379 C   0  0  0  0  0  0  0  0  0  0  0  0
   22.4092  -21.5232  -12.8942 C   0  0  0  0  0  0  0  0  0  0  0  0
   22.8159  -21.7221  -14.1959 C   0  0  0  0  0  0  0  0  0  0  0  0
   22.6233  -22.9129  -14.8733 C   0  0  0  0  0  0  0  0  0  0  0  0
   21.9987  -23.9681  -14.2452 C   0  0  0  0  0  0  0  0  0  0  0  0
   21.5790  -23.7933  -12.9329 C   0  0  0  0  0  0  0  0  0  0  0  0
   21.7851  -22.5946  -12.2834 C   0  0  0  0  0  0  0  0  0  0  0  0
   23.2115  -21.2588   -9.9825 C   0  0  0  0  0  0  0  0  0  0  0  0
   22.0574  -21.1152   -9.2622 O   0  0  0  0  0  0  0  0  0  0  0  0
   23.9812  -22.2336   -9.6789 O   0  0  0  0  0  0  0  0  0  0  0  0
  2  3  1  0
  2  1  1  6
  4  3  1  0
  4  5  2  0
  6  5  1  0
  7  6  1  0
  8  7  2  0
  9  8  1  0
 10  9  2  0
 10 11  1  0
 11 12  2  0
 12  7  1  0
 12  4  1  0
 13  2  1  0
 14 13  2  0
 15 13  1  0
 16 27  1  0
 16 15  1  0
 16 17  1  1
 18 17  1  0
 18 26  1  0
 19 20  1  0
 19 18  2  0
 20 21  1  0
 21 26  2  0
 21 22  1  0
 22 23  2  0
 23 24  1  0
 25 24  2  0
 26 25  1  0
 27 28  2  0
 29 27  1  0
 30 29  1  0
 30 31  1  6
 32 31  1  0
 33 32  2  0
 34 33  1  0
 35 34  2  0
 35 36  1  0
 36 37  2  0
 37 32  1  0
 38 30  1  0
 39 38  1  0
 40 38  2  0
M  END
$$$$
