WWF.pdb
     RDKit          3D

 40 44  0  0  1  0  0  0  0  0999 V2000
   27.4178  -24.4910  -17.1366 N   0  0  0  0  0  0  0  0  0  0  0  0
   26.2994  -23.6657  -17.5435 C   0  0  1  0  0  0  0  0  0  0  0  0
   24.9742  -24.3759  -17.4555 C   0  0  0  0  0  0  0  0  0  0  0  0
   24.9034  -25.3826  -18.5517 C   0  0  0  0  0  0  0  0  0  0  0  0
   25.2334  -26.7284  -18.4663 C   0  0  0  0  0  0  0  0  0  0  0  0
   25.0351  -27.3044  -19.6614 N   0  0  0  0  0  0  0  0  0  0  0  0
   24.5778  -26.3900  -20.5645 C   0  0  0  0  0  0  0  0  0  0  0  0
   24.2322  -26.4796  -21.8929 C   0  0  0  0  0  0  0  0  0  0  0  0
   23.7946  -25.3601  -22.5552 C   0  0  0  0  0  0  0  0  0  0  0  0
   23.7202  -24.1713  -21.8419 C   0  0  0  0  0  0  0  0  0  0  0  0
   24.0606  -24.0647  -20.5190 C   0  0  0  0  0  0  0  0  0  0  0  0
   24.5015  -25.2002  -19.8582 C   0  0  0  0  0  0  0  0  0  0  0  0
   26.2824  -22.4636  -16.6356 C   0  0  0  0  0  0  0  0  0  0  0  0
   26.5707  -22.5714  -15.4002 O   0  0  0  0  0  0  0  0  0  0  0  0
   25.9443  -21.1792  -17.1371 N   0  0  0  0  0  0  0  0  0  0  0  0
   25.7677  -20.0069  -16.2709 C   0  0  1  0  0  0  0  0  0  0  0  0
   26.2016  -18.8187  -17.0446 C   0  0  0  0  0  0  0  0  0  0  0  0
   26.0675  -17.5165  -16.4158 C   0  0  0  0  0  0  0  0  0  0  0  0
   26.7925  -17.0012  -15.3784 C   0  0  0  0  0  0  0  0  0  0  0  0
   26.3335  -15.7734  -15.0906 N   0  0  0  0  0  0  0  0  0  0  0  0
   25.3143  -15.4632  -15.9201 C   0  0  0  0  0  0  0  0  0  0  0  0
   24.4924  -14.3741  -16.0812 C   0  0  0  0  0  0  0  0  0  0  0  0
   23.5057  -14.3149  -17.0330 C   0  0  0  0  0  0  0  0  0  0  0  0
   23.3237  -15.3949  -17.8721 C   0  0  0  0  0  0  0  0  0  0  0  0
   24.1383  -16.4954  -17.7246 C   0  0  0  0  0  0  0  0  0  0  0  0
   25.1380  -16.5513  -16.7576 C   0  0  0  0  0  0  0  0  0  0  0  0
   24.4291  -19.9810  -15.6881 C   0  0  0  0  0  0  0  0  0  0  0  0
   23.4375  -20.3622  -16.4075 O   0  0  0  0  0  0  0  0  0  0  0  0
   24.0785  -19.5760  -14.3829 N   0  0  0  0  0  0  0  0  0  0  0  0
   22.7068  -19.5977  -13.8783 C   0  0  1  0  0  0  0  0  0  0  0  0
   22.6553  -20.0895  -12.4674 C   0  0  0  0  0  0  0  0  0  0  0  0
   23.4078  -21.3413  -12.2664 C   0  0  0  0  0  0  0  0  0  0  0  0
   22.9495  -22.5953  -12.6077 C   0  0  0  0  0  0  0  0  0  0  0  0
   23.6862  -23.7489  -12.4063 C   0  0  0  0  0  0  0  0  0  0  0  0
   24.9399  -23.6741  -11.8400 C   0  0  0  0  0  0  0  0  0  0  0  0
   25.4251  -22.4216  -11.4868 C   0  0  0  0  0  0  0  0  0  0  0  0
   24.6676  -21.2894  -11.7000 C   0  0  0  0  0  0  0  0  0  0  0  0
   22.0418  -18.3037  -14.0261 C   0  0  0  0  0  0  0  0  0  0  0  0
   20.7019  -18.0792  -13.8656 O   0  0  0  0  0  0  0  0  0  0  0  0
   22.7768  -17.3035  -14.3330 O   0  0  0  0  0  0  0  0  0  0  0  0
  2  3  1  0
  2  1  1  1
  4  3  1  0
  4  5  2  0
  6  5  1  0
  7  6  1  0
  8  7  2  0
  9  8  1  0
 10  9  2  0
 10 11  1  0
 11 12  2  0
 12  7  1  0
 12  4  1  0
 13  2  1  0
 14 13  2  0
 15 13  1  0
 16 27  1  0
 16 15  1  0
 16 17  1  6
 18 17  1  0
 18 26  1  0
 19 20  1  0
 19 18  2  0
 20 21  1  0
 21 26  2  0
 21 22  1  0
 22 23  2  0
 23 24  1  0
 25 24  2  0
 26 25  1  0
 27 28  2  0
 29 27  1  0
 30 29  1  0
 30 31  1  1
 32 31  1  0
 33 32  2  0
 34 33  1  0
 35 34  2  0
 35 36  1  0
 36 37  2  0
 37 32  1  0
 38 30  1  0
 39 38  1  0
 40 38  2  0
M  END
$$$$
