WWF.pdb
     RDKit          3D

 40 44  0  0  1  0  0  0  0  0999 V2000
   27.7770  -21.0240  -15.5850 N   0  0  0  0  0  0  0  0  0  0  0  0
   27.8800  -20.1282  -14.4517 C   0  0  1  0  0  0  0  0  0  0  0  0
   27.0704  -18.8687  -14.6146 C   0  0  0  0  0  0  0  0  0  0  0  0
   27.5837  -18.1265  -15.8001 C   0  0  0  0  0  0  0  0  0  0  0  0
   26.8257  -17.5000  -16.7801 C   0  0  0  0  0  0  0  0  0  0  0  0
   27.6490  -16.9396  -17.6788 N   0  0  0  0  0  0  0  0  0  0  0  0
   28.9515  -17.1646  -17.3416 C   0  0  0  0  0  0  0  0  0  0  0  0
   30.1442  -16.8065  -17.9260 C   0  0  0  0  0  0  0  0  0  0  0  0
   31.3256  -17.1871  -17.3407 C   0  0  0  0  0  0  0  0  0  0  0  0
   31.2603  -17.9274  -16.1681 C   0  0  0  0  0  0  0  0  0  0  0  0
   30.0813  -18.2926  -15.5731 C   0  0  0  0  0  0  0  0  0  0  0  0
   28.8931  -17.9039  -16.1709 C   0  0  0  0  0  0  0  0  0  0  0  0
   27.3900  -20.8835  -13.2439 C   0  0  0  0  0  0  0  0  0  0  0  0
   26.5883  -21.8651  -13.3657 O   0  0  0  0  0  0  0  0  0  0  0  0
   27.8118  -20.5186  -11.9383 N   0  0  0  0  0  0  0  0  0  0  0  0
   27.2049  -21.0719  -10.7213 C   0  0  1  0  0  0  0  0  0  0  0  0
   28.1144  -20.7566   -9.5935 C   0  0  0  0  0  0  0  0  0  0  0  0
   27.5140  -20.3974   -8.3208 C   0  0  0  0  0  0  0  0  0  0  0  0
   26.2306  -19.9971   -8.0757 C   0  0  0  0  0  0  0  0  0  0  0  0
   26.0941  -19.7420   -6.7653 N   0  0  0  0  0  0  0  0  0  0  0  0
   27.2664  -19.9661   -6.1341 C   0  0  0  0  0  0  0  0  0  0  0  0
   27.7007  -19.8741   -4.8339 C   0  0  0  0  0  0  0  0  0  0  0  0
   28.9841  -20.1718   -4.4501 C   0  0  0  0  0  0  0  0  0  0  0  0
   29.8873  -20.5841   -5.4082 C   0  0  0  0  0  0  0  0  0  0  0  0
   29.4695  -20.6816   -6.7167 C   0  0  0  0  0  0  0  0  0  0  0  0
   28.1665  -20.3786   -7.1017 C   0  0  0  0  0  0  0  0  0  0  0  0
   25.8088  -20.6623  -10.5974 C   0  0  0  0  0  0  0  0  0  0  0  0
   25.5261  -19.4126  -10.6639 O   0  0  0  0  0  0  0  0  0  0  0  0
   24.6906  -21.5018  -10.4089 N   0  0  0  0  0  0  0  0  0  0  0  0
   23.3191  -21.0032  -10.3247 C   0  0  1  0  0  0  0  0  0  0  0  0
   22.4955  -21.4835  -11.4763 C   0  0  0  0  0  0  0  0  0  0  0  0
   22.7300  -20.7144  -12.7120 C   0  0  0  0  0  0  0  0  0  0  0  0
   22.3663  -19.3982  -12.8975 C   0  0  0  0  0  0  0  0  0  0  0  0
   22.6058  -18.7072  -14.0720 C   0  0  0  0  0  0  0  0  0  0  0  0
   23.2350  -19.3363  -15.1238 C   0  0  0  0  0  0  0  0  0  0  0  0
   23.6117  -20.6633  -14.9624 C   0  0  0  0  0  0  0  0  0  0  0  0
   23.3598  -21.3259  -13.7797 C   0  0  0  0  0  0  0  0  0  0  0  0
   22.6930  -21.3185   -9.0413 C   0  0  0  0  0  0  0  0  0  0  0  0
   21.4429  -20.9225   -8.6518 O   0  0  0  0  0  0  0  0  0  0  0  0
   23.3749  -22.0201   -8.2181 O   0  0  0  0  0  0  0  0  0  0  0  0
  2  3  1  0
  2  1  1  6
  4  3  1  0
  4  5  2  0
  6  5  1  0
  7  6  1  0
  8  7  2  0
  9  8  1  0
 10  9  2  0
 10 11  1  0
 11 12  2  0
 12  7  1  0
 12  4  1  0
 13  2  1  0
 14 13  2  0
 15 13  1  0
 16 27  1  0
 16 15  1  0
 16 17  1  1
 18 17  1  0
 18 26  1  0
 19 20  1  0
 19 18  2  0
 20 21  1  0
 21 26  2  0
 21 22  1  0
 22 23  2  0
 23 24  1  0
 25 24  2  0
 26 25  1  0
 27 28  2  0
 29 27  1  0
 30 29  1  0
 30 31  1  6
 32 31  1  0
 33 32  2  0
 34 33  1  0
 35 34  2  0
 35 36  1  0
 36 37  2  0
 37 32  1  0
 38 30  1  0
 39 38  1  0
 40 38  2  0
M  END
$$$$
