WWF.pdb
     RDKit          3D

 40 44  0  0  1  0  0  0  0  0999 V2000
   26.7410  -21.5024  -13.8043 N   0  0  0  0  0  0  0  0  0  0  0  0
   25.7476  -20.6566  -13.1758 C   0  0  1  0  0  0  0  0  0  0  0  0
   24.3757  -20.8017  -13.7802 C   0  0  0  0  0  0  0  0  0  0  0  0
   24.4061  -20.2441  -15.1615 C   0  0  0  0  0  0  0  0  0  0  0  0
   24.8654  -20.8828  -16.3054 C   0  0  0  0  0  0  0  0  0  0  0  0
   24.7272  -20.0568  -17.3534 N   0  0  0  0  0  0  0  0  0  0  0  0
   24.1853  -18.8687  -16.9593 C   0  0  0  0  0  0  0  0  0  0  0  0
   23.8534  -17.7204  -17.6402 C   0  0  0  0  0  0  0  0  0  0  0  0
   23.3105  -16.6615  -16.9567 C   0  0  0  0  0  0  0  0  0  0  0  0
   23.1189  -16.8012  -15.5888 C   0  0  0  0  0  0  0  0  0  0  0  0
   23.4440  -17.9374  -14.8954 C   0  0  0  0  0  0  0  0  0  0  0  0
   23.9916  -19.0017  -15.5936 C   0  0  0  0  0  0  0  0  0  0  0  0
   25.6946  -21.0416  -11.7203 C   0  0  0  0  0  0  0  0  0  0  0  0
   25.5432  -22.2559  -11.3689 O   0  0  0  0  0  0  0  0  0  0  0  0
   25.8132  -20.0577  -10.7037 N   0  0  0  0  0  0  0  0  0  0  0  0
   25.5998  -20.3522   -9.2812 C   0  0  1  0  0  0  0  0  0  0  0  0
   26.4374  -19.4061   -8.5055 C   0  0  0  0  0  0  0  0  0  0  0  0
   27.6065  -19.9375   -7.8273 C   0  0  0  0  0  0  0  0  0  0  0  0
   28.4374  -20.9416   -8.2383 C   0  0  0  0  0  0  0  0  0  0  0  0
   29.3843  -21.1352   -7.3074 N   0  0  0  0  0  0  0  0  0  0  0  0
   29.1970  -20.2758   -6.2830 C   0  0  0  0  0  0  0  0  0  0  0  0
   29.8410  -20.0283   -5.0948 C   0  0  0  0  0  0  0  0  0  0  0  0
   29.4310  -19.0653   -4.2073 C   0  0  0  0  0  0  0  0  0  0  0  0
   28.3214  -18.3051   -4.5145 C   0  0  0  0  0  0  0  0  0  0  0  0
   27.6632  -18.5398   -5.7011 C   0  0  0  0  0  0  0  0  0  0  0  0
   28.0824  -19.5177   -6.5987 C   0  0  0  0  0  0  0  0  0  0  0  0
   24.1755  -20.4091   -8.9643 C   0  0  0  0  0  0  0  0  0  0  0  0
   23.4823  -19.3330   -9.0519 O   0  0  0  0  0  0  0  0  0  0  0  0
   23.4396  -21.5432   -8.5609 N   0  0  0  0  0  0  0  0  0  0  0  0
   22.0011  -21.5150   -8.3030 C   0  0  1  0  0  0  0  0  0  0  0  0
   21.2293  -22.0298   -9.4754 C   0  0  0  0  0  0  0  0  0  0  0  0
   20.8879  -20.9754  -10.4476 C   0  0  0  0  0  0  0  0  0  0  0  0
   20.0579  -19.9068  -10.1864 C   0  0  0  0  0  0  0  0  0  0  0  0
   19.7624  -18.9336  -11.1243 C   0  0  0  0  0  0  0  0  0  0  0  0
   20.3072  -19.0080  -12.3875 C   0  0  0  0  0  0  0  0  0  0  0  0
   21.1472  -20.0756  -12.6763 C   0  0  0  0  0  0  0  0  0  0  0  0
   21.4235  -21.0303  -11.7206 C   0  0  0  0  0  0  0  0  0  0  0  0
   21.6457  -22.2161   -7.0698 C   0  0  0  0  0  0  0  0  0  0  0  0
   20.4143  -22.1957   -6.4741 O   0  0  0  0  0  0  0  0  0  0  0  0
   22.5653  -22.9010   -6.5042 O   0  0  0  0  0  0  0  0  0  0  0  0
  2  3  1  0
  2  1  1  6
  4  3  1  0
  4  5  2  0
  6  5  1  0
  7  6  1  0
  8  7  2  0
  9  8  1  0
 10  9  2  0
 10 11  1  0
 11 12  2  0
 12  7  1  0
 12  4  1  0
 13  2  1  0
 14 13  2  0
 15 13  1  0
 16 27  1  0
 16 15  1  0
 16 17  1  1
 18 17  1  0
 18 26  1  0
 19 20  1  0
 19 18  2  0
 20 21  1  0
 21 26  2  0
 21 22  1  0
 22 23  2  0
 23 24  1  0
 25 24  2  0
 26 25  1  0
 27 28  2  0
 29 27  1  0
 30 29  1  0
 30 31  1  6
 32 31  1  0
 33 32  2  0
 34 33  1  0
 35 34  2  0
 35 36  1  0
 36 37  2  0
 37 32  1  0
 38 30  1  0
 39 38  1  0
 40 38  2  0
M  END
$$$$
