WWF.pdb
     RDKit          3D

 40 44  0  0  1  0  0  0  0  0999 V2000
   27.3052  -21.7252  -16.6898 N   0  0  0  0  0  0  0  0  0  0  0  0
   28.1078  -21.4610  -15.5136 C   0  0  1  0  0  0  0  0  0  0  0  0
   29.3687  -20.6944  -15.8148 C   0  0  0  0  0  0  0  0  0  0  0  0
   30.2709  -21.5652  -16.6195 C   0  0  0  0  0  0  0  0  0  0  0  0
   30.5981  -21.4092  -17.9597 C   0  0  0  0  0  0  0  0  0  0  0  0
   31.4380  -22.3903  -18.3223 N   0  0  0  0  0  0  0  0  0  0  0  0
   31.6959  -23.2152  -17.2669 C   0  0  0  0  0  0  0  0  0  0  0  0
   32.4756  -24.3399  -17.1277 C   0  0  0  0  0  0  0  0  0  0  0  0
   32.5395  -24.9726  -15.9116 C   0  0  0  0  0  0  0  0  0  0  0  0
   31.8025  -24.4394  -14.8628 C   0  0  0  0  0  0  0  0  0  0  0  0
   31.0210  -23.3204  -14.9844 C   0  0  0  0  0  0  0  0  0  0  0  0
   30.9625  -22.6880  -16.2160 C   0  0  0  0  0  0  0  0  0  0  0  0
   27.2532  -20.6623  -14.5642 C   0  0  0  0  0  0  0  0  0  0  0  0
   26.9149  -19.4654  -14.8360 O   0  0  0  0  0  0  0  0  0  0  0  0
   26.8032  -21.2266  -13.3416 N   0  0  0  0  0  0  0  0  0  0  0  0
   25.7661  -20.6028  -12.5103 C   0  0  1  0  0  0  0  0  0  0  0  0
   24.4549  -20.9454  -13.1119 C   0  0  0  0  0  0  0  0  0  0  0  0
   23.2575  -20.5918  -12.3700 C   0  0  0  0  0  0  0  0  0  0  0  0
   23.0393  -19.4869  -11.5960 C   0  0  0  0  0  0  0  0  0  0  0  0
   21.8058  -19.5560  -11.0718 N   0  0  0  0  0  0  0  0  0  0  0  0
   21.1994  -20.6896  -11.4847 C   0  0  0  0  0  0  0  0  0  0  0  0
   19.9696  -21.2640  -11.2720 C   0  0  0  0  0  0  0  0  0  0  0  0
   19.5950  -22.4599  -11.8312 C   0  0  0  0  0  0  0  0  0  0  0  0
   20.4887  -23.1231  -12.6467 C   0  0  0  0  0  0  0  0  0  0  0  0
   21.7262  -22.5621  -12.8706 C   0  0  0  0  0  0  0  0  0  0  0  0
   22.1023  -21.3488  -12.3013 C   0  0  0  0  0  0  0  0  0  0  0  0
   25.9641  -20.9183  -11.0984 C   0  0  0  0  0  0  0  0  0  0  0  0
   26.1895  -22.1368  -10.7661 O   0  0  0  0  0  0  0  0  0  0  0  0
   25.9396  -20.0153  -10.0147 N   0  0  0  0  0  0  0  0  0  0  0  0
   25.9098  -20.4416   -8.6168 C   0  0  1  0  0  0  0  0  0  0  0  0
   26.5057  -19.4043   -7.7202 C   0  0  0  0  0  0  0  0  0  0  0  0
   27.7504  -19.8522   -7.0694 C   0  0  0  0  0  0  0  0  0  0  0  0
   28.9442  -20.0666   -7.7238 C   0  0  0  0  0  0  0  0  0  0  0  0
   30.0943  -20.4848   -7.0783 C   0  0  0  0  0  0  0  0  0  0  0  0
   30.0779  -20.7063   -5.7186 C   0  0  0  0  0  0  0  0  0  0  0  0
   28.8867  -20.4976   -5.0356 C   0  0  0  0  0  0  0  0  0  0  0  0
   27.7565  -20.0803   -5.7062 C   0  0  0  0  0  0  0  0  0  0  0  0
   24.5670  -20.8262   -8.1836 C   0  0  0  0  0  0  0  0  0  0  0  0
   23.4087  -20.5526   -8.8582 O   0  0  0  0  0  0  0  0  0  0  0  0
   24.4727  -21.4685   -7.0821 O   0  0  0  0  0  0  0  0  0  0  0  0
  2  3  1  0
  2  1  1  6
  4  3  1  0
  4  5  2  0
  6  5  1  0
  7  6  1  0
  8  7  2  0
  9  8  1  0
 10  9  2  0
 10 11  1  0
 11 12  2  0
 12  7  1  0
 12  4  1  0
 13  2  1  0
 14 13  2  0
 15 13  1  0
 16 27  1  0
 16 15  1  0
 16 17  1  6
 18 17  1  0
 18 26  1  0
 19 20  1  0
 19 18  2  0
 20 21  1  0
 21 26  2  0
 21 22  1  0
 22 23  2  0
 23 24  1  0
 25 24  2  0
 26 25  1  0
 27 28  2  0
 29 27  1  0
 30 29  1  0
 30 31  1  1
 32 31  1  0
 33 32  2  0
 34 33  1  0
 35 34  2  0
 35 36  1  0
 36 37  2  0
 37 32  1  0
 38 30  1  0
 39 38  1  0
 40 38  2  0
M  END
$$$$
