WWF.pdb
     RDKit          3D

 40 44  0  0  1  0  0  0  0  0999 V2000
   33.5397  -36.0615  -18.2094 N   0  0  0  0  0  0  0  0  0  0  0  0
   33.4236  -35.5697  -19.5666 C   0  0  1  0  0  0  0  0  0  0  0  0
   33.1467  -36.6574  -20.5709 C   0  0  0  0  0  0  0  0  0  0  0  0
   34.4289  -37.3478  -20.8861 C   0  0  0  0  0  0  0  0  0  0  0  0
   35.1281  -38.2186  -20.0614 C   0  0  0  0  0  0  0  0  0  0  0  0
   36.2325  -38.6340  -20.6997 N   0  0  0  0  0  0  0  0  0  0  0  0
   36.3097  -38.0717  -21.9400 C   0  0  0  0  0  0  0  0  0  0  0  0
   37.2284  -38.1757  -22.9586 C   0  0  0  0  0  0  0  0  0  0  0  0
   37.0332  -37.4718  -24.1204 C   0  0  0  0  0  0  0  0  0  0  0  0
   35.8999  -36.6754  -24.2143 C   0  0  0  0  0  0  0  0  0  0  0  0
   34.9753  -36.5604  -23.2097 C   0  0  0  0  0  0  0  0  0  0  0  0
   35.1805  -37.2747  -22.0401 C   0  0  0  0  0  0  0  0  0  0  0  0
   32.2914  -34.5760  -19.5827 C   0  0  0  0  0  0  0  0  0  0  0  0
   31.0864  -34.9530  -19.4184 O   0  0  0  0  0  0  0  0  0  0  0  0
   32.5415  -33.1927  -19.7810 N   0  0  0  0  0  0  0  0  0  0  0  0
   31.4684  -32.1963  -19.8873 C   0  0  1  0  0  0  0  0  0  0  0  0
   31.6133  -31.2695  -18.7390 C   0  0  0  0  0  0  0  0  0  0  0  0
   31.2022  -31.7453  -17.4299 C   0  0  0  0  0  0  0  0  0  0  0  0
   31.9027  -32.5318  -16.5591 C   0  0  0  0  0  0  0  0  0  0  0  0
   31.1516  -32.7557  -15.4698 N   0  0  0  0  0  0  0  0  0  0  0  0
   29.9620  -32.1308  -15.6016 C   0  0  0  0  0  0  0  0  0  0  0  0
   28.8363  -32.0145  -14.8227 C   0  0  0  0  0  0  0  0  0  0  0  0
   27.7320  -31.2952  -15.2052 C   0  0  0  0  0  0  0  0  0  0  0  0
   27.7442  -30.6554  -16.4275 C   0  0  0  0  0  0  0  0  0  0  0  0
   28.8641  -30.7615  -17.2217 C   0  0  0  0  0  0  0  0  0  0  0  0
   29.9823  -31.4922  -16.8298 C   0  0  0  0  0  0  0  0  0  0  0  0
   31.4242  -31.6122  -21.2248 C   0  0  0  0  0  0  0  0  0  0  0  0
   32.5305  -31.3241  -21.8072 O   0  0  0  0  0  0  0  0  0  0  0  0
   30.2730  -31.3166  -21.9851 N   0  0  0  0  0  0  0  0  0  0  0  0
   30.3249  -30.8462  -23.3681 C   0  0  1  0  0  0  0  0  0  0  0  0
   31.0937  -31.7916  -24.2343 C   0  0  0  0  0  0  0  0  0  0  0  0
   30.4220  -33.0930  -24.4037 C   0  0  0  0  0  0  0  0  0  0  0  0
   30.8014  -34.2591  -23.7748 C   0  0  0  0  0  0  0  0  0  0  0  0
   30.1440  -35.4628  -23.9563 C   0  0  0  0  0  0  0  0  0  0  0  0
   29.0561  -35.5321  -24.7986 C   0  0  0  0  0  0  0  0  0  0  0  0
   28.6534  -34.3705  -25.4447 C   0  0  0  0  0  0  0  0  0  0  0  0
   29.3284  -33.1851  -25.2439 C   0  0  0  0  0  0  0  0  0  0  0  0
   28.9945  -30.5735  -23.9106 C   0  0  0  0  0  0  0  0  0  0  0  0
   28.7363  -30.0418  -25.1443 O   0  0  0  0  0  0  0  0  0  0  0  0
   27.9938  -30.8544  -23.1660 O   0  0  0  0  0  0  0  0  0  0  0  0
  2  3  1  0
  2  1  1  1
  4  3  1  0
  4  5  2  0
  6  5  1  0
  7  6  1  0
  8  7  2  0
  9  8  1  0
 10  9  2  0
 10 11  1  0
 11 12  2  0
 12  7  1  0
 12  4  1  0
 13  2  1  0
 14 13  2  0
 15 13  1  0
 16 27  1  0
 16 15  1  0
 16 17  1  1
 18 17  1  0
 18 26  1  0
 19 20  1  0
 19 18  2  0
 20 21  1  0
 21 26  2  0
 21 22  1  0
 22 23  2  0
 23 24  1  0
 25 24  2  0
 26 25  1  0
 27 28  2  0
 29 27  1  0
 30 29  1  0
 30 31  1  6
 32 31  1  0
 33 32  2  0
 34 33  1  0
 35 34  2  0
 35 36  1  0
 36 37  2  0
 37 32  1  0
 38 30  1  0
 39 38  1  0
 40 38  2  0
M  END
$$$$
