WWF.pdb
     RDKit          3D

 40 44  0  0  1  0  0  0  0  0999 V2000
   26.3492  -21.5392  -14.4183 N   0  0  0  0  0  0  0  0  0  0  0  0
   26.6879  -20.5235  -13.4431 C   0  0  1  0  0  0  0  0  0  0  0  0
   26.0160  -19.2012  -13.7048 C   0  0  0  0  0  0  0  0  0  0  0  0
   26.4904  -18.6814  -15.0181 C   0  0  0  0  0  0  0  0  0  0  0  0
   25.7034  -18.1854  -16.0486 C   0  0  0  0  0  0  0  0  0  0  0  0
   26.4963  -17.8132  -17.0647 N   0  0  0  0  0  0  0  0  0  0  0  0
   27.8061  -18.0403  -16.7589 C   0  0  0  0  0  0  0  0  0  0  0  0
   28.9772  -17.8343  -17.4504 C   0  0  0  0  0  0  0  0  0  0  0  0
   30.1742  -18.1699  -16.8691 C   0  0  0  0  0  0  0  0  0  0  0  0
   30.1462  -18.7101  -15.5905 C   0  0  0  0  0  0  0  0  0  0  0  0
   28.9889  -18.9221  -14.8881 C   0  0  0  0  0  0  0  0  0  0  0  0
   27.7849  -18.5802  -15.4828 C   0  0  0  0  0  0  0  0  0  0  0  0
   26.2594  -21.0427  -12.0954 C   0  0  0  0  0  0  0  0  0  0  0  0
   25.2299  -21.7821  -11.9753 O   0  0  0  0  0  0  0  0  0  0  0  0
   26.9950  -20.7197  -10.9249 N   0  0  0  0  0  0  0  0  0  0  0  0
   26.4925  -20.9820   -9.5705 C   0  0  1  0  0  0  0  0  0  0  0  0
   27.5714  -20.6147   -8.6221 C   0  0  0  0  0  0  0  0  0  0  0  0
   27.2566  -20.6215   -7.2043 C   0  0  0  0  0  0  0  0  0  0  0  0
   26.1436  -21.1213   -6.5889 C   0  0  0  0  0  0  0  0  0  0  0  0
   26.2397  -20.9062   -5.2678 N   0  0  0  0  0  0  0  0  0  0  0  0
   27.3992  -20.2710   -4.9938 C   0  0  0  0  0  0  0  0  0  0  0  0
   28.0077  -19.8140   -3.8500 C   0  0  0  0  0  0  0  0  0  0  0  0
   29.2269  -19.1840   -3.8508 C   0  0  0  0  0  0  0  0  0  0  0  0
   29.8793  -18.9969   -5.0519 C   0  0  0  0  0  0  0  0  0  0  0  0
   29.2839  -19.4482   -6.2087 C   0  0  0  0  0  0  0  0  0  0  0  0
   28.0470  -20.0868   -6.2034 C   0  0  0  0  0  0  0  0  0  0  0  0
   25.1807  -20.3728   -9.3696 C   0  0  0  0  0  0  0  0  0  0  0  0
   24.9698  -19.1976   -9.8392 O   0  0  0  0  0  0  0  0  0  0  0  0
   24.0750  -20.9382   -8.7002 N   0  0  0  0  0  0  0  0  0  0  0  0
   22.7190  -20.9327   -9.2461 C   0  0  1  0  0  0  0  0  0  0  0  0
   22.7171  -21.2894  -10.6979 C   0  0  0  0  0  0  0  0  0  0  0  0
   21.3811  -21.1893  -11.3134 C   0  0  0  0  0  0  0  0  0  0  0  0
   20.4780  -22.2266  -11.4003 C   0  0  0  0  0  0  0  0  0  0  0  0
   19.2303  -22.0942  -11.9833 C   0  0  0  0  0  0  0  0  0  0  0  0
   18.8430  -20.8821  -12.5111 C   0  0  0  0  0  0  0  0  0  0  0  0
   19.7353  -19.8203  -12.4364 C   0  0  0  0  0  0  0  0  0  0  0  0
   20.9721  -19.9825  -11.8490 C   0  0  0  0  0  0  0  0  0  0  0  0
   21.8093  -21.7817   -8.4779 C   0  0  0  0  0  0  0  0  0  0  0  0
   22.1524  -22.9516   -7.8573 O   0  0  0  0  0  0  0  0  0  0  0  0
   20.5939  -21.3961   -8.3835 O   0  0  0  0  0  0  0  0  0  0  0  0
  2  3  1  0
  2  1  1  6
  4  3  1  0
  4  5  2  0
  6  5  1  0
  7  6  1  0
  8  7  2  0
  9  8  1  0
 10  9  2  0
 10 11  1  0
 11 12  2  0
 12  7  1  0
 12  4  1  0
 13  2  1  0
 14 13  2  0
 15 13  1  0
 16 27  1  0
 16 15  1  0
 16 17  1  1
 18 17  1  0
 18 26  1  0
 19 20  1  0
 19 18  2  0
 20 21  1  0
 21 26  2  0
 21 22  1  0
 22 23  2  0
 23 24  1  0
 25 24  2  0
 26 25  1  0
 27 28  2  0
 29 27  1  0
 30 29  1  0
 30 31  1  6
 32 31  1  0
 33 32  2  0
 34 33  1  0
 35 34  2  0
 35 36  1  0
 36 37  2  0
 37 32  1  0
 38 30  1  0
 39 38  1  0
 40 38  2  0
M  END
$$$$
