WWF.pdb
     RDKit          3D

 40 44  0  0  1  0  0  0  0  0999 V2000
   16.3579  -15.2447    7.6862 N   0  0  0  0  0  0  0  0  0  0  0  0
   16.9064  -16.3733    6.9631 C   0  0  1  0  0  0  0  0  0  0  0  0
   18.2350  -16.0768    6.3186 C   0  0  0  0  0  0  0  0  0  0  0  0
   18.1138  -14.8081    5.5469 C   0  0  0  0  0  0  0  0  0  0  0  0
   17.1445  -14.4998    4.6020 C   0  0  0  0  0  0  0  0  0  0  0  0
   17.3701  -13.2644    4.1305 N   0  0  0  0  0  0  0  0  0  0  0  0
   18.4680  -12.7167    4.7266 C   0  0  0  0  0  0  0  0  0  0  0  0
   19.0973  -11.5011    4.5909 C   0  0  0  0  0  0  0  0  0  0  0  0
   20.2109  -11.2277    5.3448 C   0  0  0  0  0  0  0  0  0  0  0  0
   20.6569  -12.2064    6.2227 C   0  0  0  0  0  0  0  0  0  0  0  0
   20.0422  -13.4221    6.3700 C   0  0  0  0  0  0  0  0  0  0  0  0
   18.9184  -13.6896    5.6047 C   0  0  0  0  0  0  0  0  0  0  0  0
   17.0720  -17.4962    7.9537 C   0  0  0  0  0  0  0  0  0  0  0  0
   17.5822  -17.2876    9.1013 O   0  0  0  0  0  0  0  0  0  0  0  0
   16.6617  -18.8164    7.6306 N   0  0  0  0  0  0  0  0  0  0  0  0
   16.9809  -19.9777    8.4703 C   0  0  1  0  0  0  0  0  0  0  0  0
   15.7396  -20.7773    8.6058 C   0  0  0  0  0  0  0  0  0  0  0  0
   15.8097  -22.0107    9.3694 C   0  0  0  0  0  0  0  0  0  0  0  0
   16.0583  -23.2741    8.9119 C   0  0  0  0  0  0  0  0  0  0  0  0
   16.0142  -24.1304    9.9442 N   0  0  0  0  0  0  0  0  0  0  0  0
   15.7402  -23.4569   11.0819 C   0  0  0  0  0  0  0  0  0  0  0  0
   15.5813  -23.8062   12.4011 C   0  0  0  0  0  0  0  0  0  0  0  0
   15.2996  -22.8956   13.3883 C   0  0  0  0  0  0  0  0  0  0  0  0
   15.1683  -21.5647   13.0492 C   0  0  0  0  0  0  0  0  0  0  0  0
   15.3238  -21.1964   11.7314 C   0  0  0  0  0  0  0  0  0  0  0  0
   15.6096  -22.1235   10.7331 C   0  0  0  0  0  0  0  0  0  0  0  0
   18.1760  -20.6633    7.9867 C   0  0  0  0  0  0  0  0  0  0  0  0
   18.2258  -21.0175    6.7545 O   0  0  0  0  0  0  0  0  0  0  0  0
   19.3262  -20.9946    8.7335 N   0  0  0  0  0  0  0  0  0  0  0  0
   20.3792  -21.8771    8.2345 C   0  0  1  0  0  0  0  0  0  0  0  0
   21.4970  -21.0958    7.6220 C   0  0  0  0  0  0  0  0  0  0  0  0
   21.9287  -19.9588    8.4554 C   0  0  0  0  0  0  0  0  0  0  0  0
   21.4567  -18.6702    8.3292 C   0  0  0  0  0  0  0  0  0  0  0  0
   21.8837  -17.6279    9.1326 C   0  0  0  0  0  0  0  0  0  0  0  0
   22.8239  -17.8561   10.1133 C   0  0  0  0  0  0  0  0  0  0  0  0
   23.3159  -19.1466   10.2610 C   0  0  0  0  0  0  0  0  0  0  0  0
   22.8710  -20.1653    9.4453 C   0  0  0  0  0  0  0  0  0  0  0  0
   20.8615  -22.7997    9.2615 C   0  0  0  0  0  0  0  0  0  0  0  0
   20.5598  -22.7292   10.5939 O   0  0  0  0  0  0  0  0  0  0  0  0
   21.6298  -23.7470    8.8780 O   0  0  0  0  0  0  0  0  0  0  0  0
  2  3  1  0
  2  1  1  1
  4  3  1  0
  4  5  2  0
  6  5  1  0
  7  6  1  0
  8  7  2  0
  9  8  1  0
 10  9  2  0
 10 11  1  0
 11 12  2  0
 12  7  1  0
 12  4  1  0
 13  2  1  0
 14 13  2  0
 15 13  1  0
 16 27  1  0
 16 15  1  0
 16 17  1  6
 18 17  1  0
 18 26  1  0
 19 20  1  0
 19 18  2  0
 20 21  1  0
 21 26  2  0
 21 22  1  0
 22 23  2  0
 23 24  1  0
 25 24  2  0
 26 25  1  0
 27 28  2  0
 29 27  1  0
 30 29  1  0
 30 31  1  1
 32 31  1  0
 33 32  2  0
 34 33  1  0
 35 34  2  0
 35 36  1  0
 36 37  2  0
 37 32  1  0
 38 30  1  0
 39 38  1  0
 40 38  2  0
M  END
$$$$
