TGH.pdb
     RDKit          3D

 22 22  0  0  1  0  0  0  0  0999 V2000
    5.4721  -19.2264   23.4746 C   0  0  0  0  0  0  0  0  0  0  0  0
    6.6860  -19.7286   22.7612 C   0  0  1  0  0  0  0  0  0  0  0  0
    6.5693  -21.1107   22.6084 O   0  0  0  0  0  0  0  0  0  0  0  0
    6.8401  -19.1371   21.3754 C   0  0  2  0  0  0  0  0  0  0  0  0
    7.6469  -20.0252   20.6001 N   0  0  0  0  0  0  0  0  0  0  0  0
    7.4226  -17.7977   21.3918 C   0  0  0  0  0  0  0  0  0  0  0  0
    6.7185  -16.7611   21.4636 O   0  0  0  0  0  0  0  0  0  0  0  0
    8.8357  -17.6428   21.3247 N   0  0  0  0  0  0  0  0  0  0  0  0
    9.4705  -16.3458   21.3339 C   0  0  0  0  0  0  0  0  0  0  0  0
    9.8258  -16.0068   22.7342 C   0  0  0  0  0  0  0  0  0  0  0  0
   10.5295  -15.0012   23.0090 O   0  0  0  0  0  0  0  0  0  0  0  0
    9.3845  -16.8053   23.8180 N   0  0  0  0  0  0  0  0  0  0  0  0
    9.6997  -16.4297   25.1642 C   0  0  1  0  0  0  0  0  0  0  0  0
    8.4696  -16.1999   26.0023 C   0  0  0  0  0  0  0  0  0  0  0  0
    7.6799  -15.0405   25.5321 C   0  0  0  0  0  0  0  0  0  0  0  0
    7.9852  -14.1101   24.5449 C   0  0  0  0  0  0  0  0  0  0  0  0
    6.9778  -13.2245   24.4667 N   0  0  0  0  0  0  0  0  0  0  0  0
    6.0449  -13.5454   25.3564 C   0  0  0  0  0  0  0  0  0  0  0  0
    6.4634  -14.6285   25.9919 N   0  0  0  0  0  0  0  0  0  0  0  0
   10.6610  -17.3929   25.7879 C   0  0  0  0  0  0  0  0  0  0  0  0
   11.0750  -18.4335   25.2282 O   0  0  0  0  0  0  0  0  0  0  0  0
   11.1623  -17.1653   27.0795 O   0  0  0  0  0  0  0  0  0  0  0  0
  2  4  1  0
  2  1  1  6
  2  3  1  0
  4  5  1  6
  6  4  1  0
  6  8  1  0
  7  6  2  0
  9  8  1  0
  9 10  1  0
 10 12  1  0
 10 11  2  0
 12 13  1  0
 13 14  1  1
 14 15  1  0
 15 16  2  0
 16 17  1  0
 18 17  1  0
 19 15  1  0
 19 18  2  0
 20 13  1  0
 20 22  1  0
 21 20  2  0
M  END
$$$$
