TGH.pdb
     RDKit          3D

 22 22  0  0  1  0  0  0  0  0999 V2000
   11.8559  -18.6887   17.3320 C   0  0  0  0  0  0  0  0  0  0  0  0
   10.7138  -18.3649   16.4235 C   0  0  1  0  0  0  0  0  0  0  0  0
   11.0211  -18.8287   15.1438 O   0  0  0  0  0  0  0  0  0  0  0  0
    9.4212  -19.0338   16.8429 C   0  0  2  0  0  0  0  0  0  0  0  0
    8.4761  -18.8790   15.7828 N   0  0  0  0  0  0  0  0  0  0  0  0
    8.8840  -18.4977   18.0909 C   0  0  0  0  0  0  0  0  0  0  0  0
    8.2197  -17.4335   18.1326 O   0  0  0  0  0  0  0  0  0  0  0  0
    9.1113  -19.1923   19.3120 N   0  0  0  0  0  0  0  0  0  0  0  0
    8.5654  -18.7395   20.5699 C   0  0  0  0  0  0  0  0  0  0  0  0
    9.4598  -17.6907   21.1195 C   0  0  0  0  0  0  0  0  0  0  0  0
   10.6361  -17.5433   20.6992 O   0  0  0  0  0  0  0  0  0  0  0  0
    9.0216  -16.8129   22.1415 N   0  0  0  0  0  0  0  0  0  0  0  0
    9.8516  -15.7225   22.5590 C   0  0  1  0  0  0  0  0  0  0  0  0
    9.0795  -14.4401   22.7258 C   0  0  0  0  0  0  0  0  0  0  0  0
    8.3320  -14.0732   21.5029 C   0  0  0  0  0  0  0  0  0  0  0  0
    8.8044  -13.5342   20.3115 C   0  0  0  0  0  0  0  0  0  0  0  0
    7.7628  -13.3525   19.4825 N   0  0  0  0  0  0  0  0  0  0  0  0
    6.6490  -13.7497   20.0879 C   0  0  0  0  0  0  0  0  0  0  0  0
    6.9883  -14.1795   21.2929 N   0  0  0  0  0  0  0  0  0  0  0  0
   10.6565  -16.0823   23.7688 C   0  0  0  0  0  0  0  0  0  0  0  0
   10.4762  -17.1174   24.4498 O   0  0  0  0  0  0  0  0  0  0  0  0
   11.6909  -15.2433   24.2132 O   0  0  0  0  0  0  0  0  0  0  0  0
  2  4  1  0
  2  1  1  1
  2  3  1  0
  4  5  1  6
  6  4  1  0
  6  8  1  0
  7  6  2  0
  9  8  1  0
  9 10  1  0
 10 12  1  0
 10 11  2  0
 12 13  1  0
 13 14  1  1
 14 15  1  0
 15 16  2  0
 16 17  1  0
 18 17  1  0
 19 15  1  0
 19 18  2  0
 20 13  1  0
 20 22  1  0
 21 20  2  0
M  END
$$$$
