TGH.pdb
     RDKit          3D

 22 22  0  0  1  0  0  0  0  0999 V2000
    8.1172  -12.2633   18.1548 C   0  0  0  0  0  0  0  0  0  0  0  0
    7.6634  -13.2927   19.1392 C   0  0  1  0  0  0  0  0  0  0  0  0
    7.5724  -14.5215   18.4843 O   0  0  0  0  0  0  0  0  0  0  0  0
    8.6303  -13.4707   20.2913 C   0  0  2  0  0  0  0  0  0  0  0  0
    9.8552  -13.9870   19.7679 N   0  0  0  0  0  0  0  0  0  0  0  0
    8.1105  -14.3469   21.3380 C   0  0  0  0  0  0  0  0  0  0  0  0
    7.1186  -14.0359   22.0415 O   0  0  0  0  0  0  0  0  0  0  0  0
    8.7374  -15.6007   21.5834 N   0  0  0  0  0  0  0  0  0  0  0  0
    8.2656  -16.5132   22.5984 C   0  0  0  0  0  0  0  0  0  0  0  0
    8.8523  -16.1109   23.9007 C   0  0  0  0  0  0  0  0  0  0  0  0
    9.8897  -15.4025   23.9637 O   0  0  0  0  0  0  0  0  0  0  0  0
    8.2645  -16.5106   25.1262 N   0  0  0  0  0  0  0  0  0  0  0  0
    8.9031  -16.1926   26.3685 C   0  0  1  0  0  0  0  0  0  0  0  0
    7.9729  -15.5125   27.3383 C   0  0  0  0  0  0  0  0  0  0  0  0
    7.4962  -14.2056   26.8345 C   0  0  0  0  0  0  0  0  0  0  0  0
    8.2281  -13.1396   26.3234 C   0  0  0  0  0  0  0  0  0  0  0  0
    7.3758  -12.1523   26.0006 N   0  0  0  0  0  0  0  0  0  0  0  0
    6.1358  -12.5375   26.2814 C   0  0  0  0  0  0  0  0  0  0  0  0
    6.2074  -13.7620   26.7788 N   0  0  0  0  0  0  0  0  0  0  0  0
    9.5842  -17.3904   26.9535 C   0  0  0  0  0  0  0  0  0  0  0  0
    9.5433  -18.5366   26.4512 O   0  0  0  0  0  0  0  0  0  0  0  0
   10.3293  -17.2800   28.1384 O   0  0  0  0  0  0  0  0  0  0  0  0
  2  4  1  0
  2  1  1  6
  2  3  1  0
  4  5  1  6
  6  4  1  0
  6  8  1  0
  7  6  2  0
  9  8  1  0
  9 10  1  0
 10 12  1  0
 10 11  2  0
 12 13  1  0
 13 14  1  1
 14 15  1  0
 15 16  2  0
 16 17  1  0
 18 17  1  0
 19 15  1  0
 19 18  2  0
 20 13  1  0
 20 22  1  0
 21 20  2  0
M  END
$$$$
