TGH.pdb
     RDKit          3D

 22 22  0  0  1  0  0  0  0  0999 V2000
   10.2767  -13.0403   19.9430 C   0  0  0  0  0  0  0  0  0  0  0  0
    8.9516  -12.9282   19.2603 C   0  0  1  0  0  0  0  0  0  0  0  0
    9.1360  -12.2759   18.0406 O   0  0  0  0  0  0  0  0  0  0  0  0
    8.3306  -14.2760   18.9570 C   0  0  2  0  0  0  0  0  0  0  0  0
    7.2000  -14.0641   18.1099 N   0  0  0  0  0  0  0  0  0  0  0  0
    7.9395  -15.0042   20.1612 C   0  0  0  0  0  0  0  0  0  0  0  0
    6.8899  -14.7367   20.7955 O   0  0  0  0  0  0  0  0  0  0  0  0
    8.7646  -16.0570   20.6474 N   0  0  0  0  0  0  0  0  0  0  0  0
    8.3952  -16.8623   21.7878 C   0  0  0  0  0  0  0  0  0  0  0  0
    9.0624  -16.3066   22.9910 C   0  0  0  0  0  0  0  0  0  0  0  0
   10.1434  -15.6688   22.9079 O   0  0  0  0  0  0  0  0  0  0  0  0
    8.5058  -16.4736   24.2830 N   0  0  0  0  0  0  0  0  0  0  0  0
    9.1927  -15.9677   25.4339 C   0  0  1  0  0  0  0  0  0  0  0  0
    8.2501  -15.4387   26.4826 C   0  0  0  0  0  0  0  0  0  0  0  0
    7.4757  -14.2729   26.0029 C   0  0  0  0  0  0  0  0  0  0  0  0
    7.8991  -13.1870   25.2447 C   0  0  0  0  0  0  0  0  0  0  0  0
    6.8539  -12.3639   25.0568 N   0  0  0  0  0  0  0  0  0  0  0  0
    5.7844  -12.8726   25.6587 C   0  0  0  0  0  0  0  0  0  0  0  0
    6.1551  -14.0111   26.2231 N   0  0  0  0  0  0  0  0  0  0  0  0
   10.1644  -16.9707   25.9732 C   0  0  0  0  0  0  0  0  0  0  0  0
   10.8663  -16.7897   26.9941 O   0  0  0  0  0  0  0  0  0  0  0  0
   10.3406  -18.2086   25.3347 O   0  0  0  0  0  0  0  0  0  0  0  0
  2  4  1  0
  2  1  1  6
  2  3  1  0
  4  5  1  6
  6  4  1  0
  6  8  1  0
  7  6  2  0
  9  8  1  0
  9 10  1  0
 10 12  1  0
 10 11  2  0
 12 13  1  0
 13 14  1  1
 14 15  1  0
 15 16  2  0
 16 17  1  0
 18 17  1  0
 19 15  1  0
 19 18  2  0
 20 13  1  0
 20 22  1  0
 21 20  2  0
M  END
$$$$
