TKV.pdb
     RDKit          3D

 24 23  0  0  1  0  0  0  0  0999 V2000
   23.4144  -12.7106  -21.0093 C   0  0  0  0  0  0  0  0  0  0  0  0
   22.5229  -11.5417  -20.6607 C   0  0  1  0  0  0  0  0  0  0  0  0
   21.2125  -11.8888  -20.9972 O   0  0  0  0  0  0  0  0  0  0  0  0
   22.6077  -11.2334  -19.1805 C   0  0  2  0  0  0  0  0  0  0  0  0
   22.2780  -12.4412  -18.4706 N   0  0  0  0  0  0  0  0  0  0  0  0
   21.7206  -10.1031  -18.8112 C   0  0  0  0  0  0  0  0  0  0  0  0
   22.0196   -8.9533  -19.2103 O   0  0  0  0  0  0  0  0  0  0  0  0
   20.5625  -10.2782  -18.0331 N   0  0  0  0  0  0  0  0  0  0  0  0
   19.7276   -9.2166  -17.5395 C   0  0  1  0  0  0  0  0  0  0  0  0
   18.3576   -9.7249  -17.1174 C   0  0  0  0  0  0  0  0  0  0  0  0
   17.4531   -8.6510  -16.6151 C   0  0  0  0  0  0  0  0  0  0  0  0
   16.0833   -9.1437  -16.2475 C   0  0  0  0  0  0  0  0  0  0  0  0
   15.3229   -7.9377  -15.6807 C   0  0  0  0  0  0  0  0  0  0  0  0
   13.9282   -8.2089  -15.5114 N   0  0  0  0  0  0  0  0  0  0  0  0
   20.3367   -8.6305  -16.3203 C   0  0  0  0  0  0  0  0  0  0  0  0
   20.6130   -9.4011  -15.3708 O   0  0  0  0  0  0  0  0  0  0  0  0
   22.9978   -4.9923  -14.2740 C   0  0  0  0  0  0  0  0  0  0  0  0
   22.3497   -5.6666  -15.4579 C   0  0  2  0  0  0  0  0  0  0  0  0
   21.8315   -4.6881  -16.4754 C   0  0  0  0  0  0  0  0  0  0  0  0
   21.3017   -6.6734  -15.0461 C   0  0  2  0  0  0  0  0  0  0  0  0
   20.6219   -7.2557  -16.1704 N   0  0  0  0  0  0  0  0  0  0  0  0
   20.3145   -5.9868  -14.1971 C   0  0  0  0  0  0  0  0  0  0  0  0
   19.0441   -5.7284  -14.6650 O   0  0  0  0  0  0  0  0  0  0  0  0
   20.6113   -5.6283  -13.0422 O   0  0  0  0  0  0  0  0  0  0  0  0
  2  1  1  1
  2  3  1  0
  4  2  1  0
  4  5  1  1
  6  7  2  0
  6  4  1  0
  8  6  1  0
  9 10  1  1
  9  8  1  0
 10 11  1  0
 11 12  1  0
 13 14  1  0
 13 12  1  0
 15  9  1  0
 16 15  2  0
 18 20  1  0
 18 17  1  1
 19 18  1  0
 20 21  1  6
 21 15  1  0
 22 23  1  0
 22 20  1  0
 24 22  2  0
M  END
$$$$
