TKV.pdb
     RDKit          3D

 24 23  0  0  1  0  0  0  0  0999 V2000
   19.7641   -8.5159  -11.8227 C   0  0  0  0  0  0  0  0  0  0  0  0
   19.3472   -8.2549  -13.2513 C   0  0  1  0  0  0  0  0  0  0  0  0
   20.4554   -8.4873  -14.0689 O   0  0  0  0  0  0  0  0  0  0  0  0
   18.2139   -9.1770  -13.6495 C   0  0  2  0  0  0  0  0  0  0  0  0
   18.0424   -9.0568  -15.0734 N   0  0  0  0  0  0  0  0  0  0  0  0
   16.9709   -8.8606  -12.9038 C   0  0  0  0  0  0  0  0  0  0  0  0
   16.4192   -7.7532  -13.1038 O   0  0  0  0  0  0  0  0  0  0  0  0
   16.3951   -9.7566  -11.9858 N   0  0  0  0  0  0  0  0  0  0  0  0
   15.1562   -9.5450  -11.2872 C   0  0  1  0  0  0  0  0  0  0  0  0
   14.5133  -10.8577  -10.8666 C   0  0  0  0  0  0  0  0  0  0  0  0
   13.1612  -10.6908  -10.2602 C   0  0  0  0  0  0  0  0  0  0  0  0
   12.4473  -11.9895  -10.0194 C   0  0  0  0  0  0  0  0  0  0  0  0
   11.0756  -11.6316   -9.4327 C   0  0  0  0  0  0  0  0  0  0  0  0
   10.2378  -12.7810   -9.2765 N   0  0  0  0  0  0  0  0  0  0  0  0
   15.4144   -8.7985  -10.0314 C   0  0  0  0  0  0  0  0  0  0  0  0
   16.2147   -9.2956   -9.2042 O   0  0  0  0  0  0  0  0  0  0  0  0
   15.7839   -4.6778   -7.4627 C   0  0  0  0  0  0  0  0  0  0  0  0
   15.7169   -5.5131   -8.7174 C   0  0  2  0  0  0  0  0  0  0  0  0
   15.1563   -4.7588   -9.8913 C   0  0  0  0  0  0  0  0  0  0  0  0
   15.0148   -6.8319   -8.4959 C   0  0  2  0  0  0  0  0  0  0  0  0
   14.8101   -7.5616   -9.7168 N   0  0  0  0  0  0  0  0  0  0  0  0
   13.7058   -6.5571   -7.8811 C   0  0  0  0  0  0  0  0  0  0  0  0
   12.5428   -6.7187   -8.6027 O   0  0  0  0  0  0  0  0  0  0  0  0
   13.6282   -6.1742   -6.6988 O   0  0  0  0  0  0  0  0  0  0  0  0
  2  1  1  1
  2  3  1  0
  4  2  1  0
  4  5  1  6
  6  7  2  0
  6  4  1  0
  8  6  1  0
  9 10  1  1
  9  8  1  0
 10 11  1  0
 11 12  1  0
 13 14  1  0
 13 12  1  0
 15  9  1  0
 16 15  2  0
 18 20  1  0
 18 17  1  1
 19 18  1  0
 20 21  1  6
 21 15  1  0
 22 23  1  0
 22 20  1  0
 24 22  2  0
M  END
$$$$
