TKV.pdb
     RDKit          3D

 24 23  0  0  1  0  0  0  0  0999 V2000
   26.7660  -10.9012  -15.7736 C   0  0  0  0  0  0  0  0  0  0  0  0
   26.8437  -11.4689  -17.1716 C   0  0  1  0  0  0  0  0  0  0  0  0
   27.9038  -12.3775  -17.2053 O   0  0  0  0  0  0  0  0  0  0  0  0
   25.5523  -12.1742  -17.5297 C   0  0  2  0  0  0  0  0  0  0  0  0
   25.7455  -12.7994  -18.8115 N   0  0  0  0  0  0  0  0  0  0  0  0
   24.4040  -11.2348  -17.5286 C   0  0  0  0  0  0  0  0  0  0  0  0
   24.1809  -10.5621  -18.5622 O   0  0  0  0  0  0  0  0  0  0  0  0
   23.5630  -11.0753  -16.4130 N   0  0  0  0  0  0  0  0  0  0  0  0
   22.3908  -10.2436  -16.3712 C   0  0  1  0  0  0  0  0  0  0  0  0
   21.2014  -10.9733  -15.7661 C   0  0  0  0  0  0  0  0  0  0  0  0
   19.9494  -10.1634  -15.7543 C   0  0  0  0  0  0  0  0  0  0  0  0
   18.7528  -10.9160  -15.2483 C   0  0  0  0  0  0  0  0  0  0  0  0
   17.5445   -9.9879  -15.4291 C   0  0  0  0  0  0  0  0  0  0  0  0
   16.3206  -10.6088  -15.0244 N   0  0  0  0  0  0  0  0  0  0  0  0
   22.6409   -9.0753  -15.4916 C   0  0  0  0  0  0  0  0  0  0  0  0
   23.1889   -9.2792  -14.3825 O   0  0  0  0  0  0  0  0  0  0  0  0
   23.3410   -4.1840  -15.0781 C   0  0  0  0  0  0  0  0  0  0  0  0
   23.0157   -5.4048  -15.9028 C   0  0  2  0  0  0  0  0  0  0  0  0
   22.0172   -5.1245  -16.9916 C   0  0  0  0  0  0  0  0  0  0  0  0
   22.6177   -6.5872  -15.0514 C   0  0  2  0  0  0  0  0  0  0  0  0
   22.2967   -7.7492  -15.8335 N   0  0  0  0  0  0  0  0  0  0  0  0
   21.4366   -6.2057  -14.2599 C   0  0  0  0  0  0  0  0  0  0  0  0
   21.5732   -5.4627  -13.1072 O   0  0  0  0  0  0  0  0  0  0  0  0
   20.2946   -6.5482  -14.6192 O   0  0  0  0  0  0  0  0  0  0  0  0
  2  1  1  1
  2  3  1  0
  4  2  1  0
  4  5  1  6
  6  7  2  0
  6  4  1  0
  8  6  1  0
  9 10  1  1
  9  8  1  0
 10 11  1  0
 11 12  1  0
 13 14  1  0
 13 12  1  0
 15  9  1  0
 16 15  2  0
 18 20  1  0
 18 17  1  1
 19 18  1  0
 20 21  1  6
 21 15  1  0
 22 23  1  0
 22 20  1  0
 24 22  2  0
M  END
$$$$
