TKV.pdb
     RDKit          3D

 24 23  0  0  1  0  0  0  0  0999 V2000
   22.5160  -10.7782  -14.0989 C   0  0  0  0  0  0  0  0  0  0  0  0
   22.8407  -11.3643  -15.4530 C   0  0  1  0  0  0  0  0  0  0  0  0
   23.5107  -12.5722  -15.2460 O   0  0  0  0  0  0  0  0  0  0  0  0
   21.5719  -11.6104  -16.2421 C   0  0  2  0  0  0  0  0  0  0  0  0
   21.9490  -12.2572  -17.4712 N   0  0  0  0  0  0  0  0  0  0  0  0
   20.8260  -10.3493  -16.4750 C   0  0  0  0  0  0  0  0  0  0  0  0
   21.2332   -9.5700  -17.3680 O   0  0  0  0  0  0  0  0  0  0  0  0
   19.6842  -10.0018  -15.7315 N   0  0  0  0  0  0  0  0  0  0  0  0
   18.9765   -8.7543  -15.8343 C   0  0  1  0  0  0  0  0  0  0  0  0
   17.4950   -8.9184  -15.5318 C   0  0  0  0  0  0  0  0  0  0  0  0
   16.7253   -9.5415  -16.6467 C   0  0  0  0  0  0  0  0  0  0  0  0
   15.2673   -9.7262  -16.3394 C   0  0  0  0  0  0  0  0  0  0  0  0
   14.6314  -10.3423  -17.5923 C   0  0  0  0  0  0  0  0  0  0  0  0
   13.2249  -10.5541  -17.4363 N   0  0  0  0  0  0  0  0  0  0  0  0
   19.4950   -7.8031  -14.8207 C   0  0  0  0  0  0  0  0  0  0  0  0
   19.3980   -8.1196  -13.6115 O   0  0  0  0  0  0  0  0  0  0  0  0
   22.7019   -5.2421  -15.6597 C   0  0  0  0  0  0  0  0  0  0  0  0
   22.2179   -5.6791  -14.2991 C   0  0  2  0  0  0  0  0  0  0  0  0
   22.8191   -6.9846  -13.8573 C   0  0  0  0  0  0  0  0  0  0  0  0
   20.7110   -5.6782  -14.1951 C   0  0  2  0  0  0  0  0  0  0  0  0
   20.0905   -6.5636  -15.1417 N   0  0  0  0  0  0  0  0  0  0  0  0
   20.2348   -4.3076  -14.4432 C   0  0  0  0  0  0  0  0  0  0  0  0
   19.4731   -4.0189  -15.5549 O   0  0  0  0  0  0  0  0  0  0  0  0
   20.5126   -3.3868  -13.6524 O   0  0  0  0  0  0  0  0  0  0  0  0
  2  1  1  1
  2  3  1  0
  4  2  1  0
  4  5  1  6
  6  7  2  0
  6  4  1  0
  8  6  1  0
  9 10  1  1
  9  8  1  0
 10 11  1  0
 11 12  1  0
 13 14  1  0
 13 12  1  0
 15  9  1  0
 16 15  2  0
 18 20  1  0
 18 17  1  6
 19 18  1  0
 20 21  1  6
 21 15  1  0
 22 23  1  0
 22 20  1  0
 24 22  2  0
M  END
$$$$
