TKV.pdb
     RDKit          3D

 24 23  0  0  1  0  0  0  0  0999 V2000
   27.0260  -25.4655  -16.0066 C   0  0  0  0  0  0  0  0  0  0  0  0
   28.3533  -25.0845  -16.6195 C   0  0  1  0  0  0  0  0  0  0  0  0
   28.7963  -26.1655  -17.3849 O   0  0  0  0  0  0  0  0  0  0  0  0
   28.1991  -23.8620  -17.4999 C   0  0  2  0  0  0  0  0  0  0  0  0
   29.4690  -23.6272  -18.1351 N   0  0  0  0  0  0  0  0  0  0  0  0
   27.7338  -22.6886  -16.7203 C   0  0  0  0  0  0  0  0  0  0  0  0
   28.5875  -21.8718  -16.3023 O   0  0  0  0  0  0  0  0  0  0  0  0
   26.3750  -22.4642  -16.4367 N   0  0  0  0  0  0  0  0  0  0  0  0
   25.8377  -21.2658  -15.8514 C   0  0  1  0  0  0  0  0  0  0  0  0
   24.7885  -20.6217  -16.7447 C   0  0  0  0  0  0  0  0  0  0  0  0
   24.1770  -19.3957  -16.1560 C   0  0  0  0  0  0  0  0  0  0  0  0
   23.1747  -18.7336  -17.0567 C   0  0  0  0  0  0  0  0  0  0  0  0
   22.8095  -17.3977  -16.3964 C   0  0  0  0  0  0  0  0  0  0  0  0
   21.8572  -16.6569  -17.1656 N   0  0  0  0  0  0  0  0  0  0  0  0
   25.1424  -21.5995  -14.5840 C   0  0  0  0  0  0  0  0  0  0  0  0
   24.2231  -22.4511  -14.6227 O   0  0  0  0  0  0  0  0  0  0  0  0
   25.1013  -21.3601   -9.5810 C   0  0  0  0  0  0  0  0  0  0  0  0
   25.7033  -20.9404  -10.8993 C   0  0  2  0  0  0  0  0  0  0  0  0
   26.0271  -19.4729  -10.9522 C   0  0  0  0  0  0  0  0  0  0  0  0
   24.8744  -21.3869  -12.0804 C   0  0  2  0  0  0  0  0  0  0  0  0
   25.4580  -21.0126  -13.3391 N   0  0  0  0  0  0  0  0  0  0  0  0
   23.5449  -20.7649  -11.9691 C   0  0  0  0  0  0  0  0  0  0  0  0
   22.6094  -21.2595  -11.0860 O   0  0  0  0  0  0  0  0  0  0  0  0
   23.2438  -19.7816  -12.6712 O   0  0  0  0  0  0  0  0  0  0  0  0
  2  1  1  6
  2  3  1  0
  4  2  1  0
  4  5  1  1
  6  7  2  0
  6  4  1  0
  8  6  1  0
  9 10  1  6
  9  8  1  0
 10 11  1  0
 11 12  1  0
 13 14  1  0
 13 12  1  0
 15  9  1  0
 16 15  2  0
 18 20  1  0
 18 17  1  1
 19 18  1  0
 20 21  1  6
 21 15  1  0
 22 23  1  0
 22 20  1  0
 24 22  2  0
M  END
$$$$
