TKV.pdb
     RDKit          3D

 24 23  0  0  1  0  0  0  0  0999 V2000
   28.6659  -22.4627  -18.3609 C   0  0  0  0  0  0  0  0  0  0  0  0
   27.6688  -22.6983  -17.2505 C   0  0  1  0  0  0  0  0  0  0  0  0
   28.3533  -23.2715  -16.1764 O   0  0  0  0  0  0  0  0  0  0  0  0
   27.0386  -21.3910  -16.8179 C   0  0  2  0  0  0  0  0  0  0  0  0
   28.1079  -20.4947  -16.4649 N   0  0  0  0  0  0  0  0  0  0  0  0
   26.0823  -21.5942  -15.7020 C   0  0  0  0  0  0  0  0  0  0  0  0
   25.0408  -22.2562  -15.9201 O   0  0  0  0  0  0  0  0  0  0  0  0
   26.3047  -21.0715  -14.4156 N   0  0  0  0  0  0  0  0  0  0  0  0
   25.4216  -21.2316  -13.2922 C   0  0  1  0  0  0  0  0  0  0  0  0
   26.0478  -20.7205  -12.0038 C   0  0  0  0  0  0  0  0  0  0  0  0
   25.1542  -20.8469  -10.8167 C   0  0  0  0  0  0  0  0  0  0  0  0
   25.7968  -20.4078   -9.5327 C   0  0  0  0  0  0  0  0  0  0  0  0
   24.7689  -20.6589   -8.4217 C   0  0  0  0  0  0  0  0  0  0  0  0
   25.2733  -20.3085   -7.1293 N   0  0  0  0  0  0  0  0  0  0  0  0
   24.1991  -20.4173  -13.5005 C   0  0  0  0  0  0  0  0  0  0  0  0
   24.3208  -19.1700  -13.5368 O   0  0  0  0  0  0  0  0  0  0  0  0
   21.8703  -20.4266  -16.3459 C   0  0  0  0  0  0  0  0  0  0  0  0
   20.9871  -20.5645  -15.1305 C   0  0  2  0  0  0  0  0  0  0  0  0
   19.6795  -19.8359  -15.2736 C   0  0  0  0  0  0  0  0  0  0  0  0
   21.7056  -20.2056  -13.8513 C   0  0  2  0  0  0  0  0  0  0  0  0
   22.9086  -20.9680  -13.6598 N   0  0  0  0  0  0  0  0  0  0  0  0
   20.7941  -20.4647  -12.7249 C   0  0  0  0  0  0  0  0  0  0  0  0
   20.0238  -19.4511  -12.1969 O   0  0  0  0  0  0  0  0  0  0  0  0
   20.7043  -21.6041  -12.2307 O   0  0  0  0  0  0  0  0  0  0  0  0
  2  1  1  6
  2  3  1  0
  4  2  1  0
  4  5  1  1
  6  7  2  0
  6  4  1  0
  8  6  1  0
  9 10  1  1
  9  8  1  0
 10 11  1  0
 11 12  1  0
 13 14  1  0
 13 12  1  0
 15  9  1  0
 16 15  2  0
 18 20  1  0
 18 17  1  6
 19 18  1  0
 20 21  1  1
 21 15  1  0
 22 23  1  0
 22 20  1  0
 24 22  2  0
M  END
$$$$
