TKV.pdb
     RDKit          3D

 24 23  0  0  1  0  0  0  0  0999 V2000
   27.7010  -19.5412  -13.4401 C   0  0  0  0  0  0  0  0  0  0  0  0
   26.8412  -19.0258  -14.5705 C   0  0  1  0  0  0  0  0  0  0  0  0
   27.4736  -19.3535  -15.7719 O   0  0  0  0  0  0  0  0  0  0  0  0
   25.4676  -19.6617  -14.5240 C   0  0  2  0  0  0  0  0  0  0  0  0
   25.6113  -21.0267  -14.9570 N   0  0  0  0  0  0  0  0  0  0  0  0
   24.4938  -18.9079  -15.3513 C   0  0  0  0  0  0  0  0  0  0  0  0
   24.4399  -19.1492  -16.5799 O   0  0  0  0  0  0  0  0  0  0  0  0
   23.6345  -17.9377  -14.8057 N   0  0  0  0  0  0  0  0  0  0  0  0
   22.7507  -17.0936  -15.5633 C   0  0  1  0  0  0  0  0  0  0  0  0
   21.3176  -17.1809  -15.0613 C   0  0  0  0  0  0  0  0  0  0  0  0
   20.6199  -18.4345  -15.4679 C   0  0  0  0  0  0  0  0  0  0  0  0
   19.1577  -18.4448  -15.1269 C   0  0  0  0  0  0  0  0  0  0  0  0
   18.5876  -19.7540  -15.6880 C   0  0  0  0  0  0  0  0  0  0  0  0
   17.1743  -19.8571  -15.4898 N   0  0  0  0  0  0  0  0  0  0  0  0
   23.1535  -15.6754  -15.3972 C   0  0  0  0  0  0  0  0  0  0  0  0
   23.1153  -15.1830  -14.2448 O   0  0  0  0  0  0  0  0  0  0  0  0
   25.6675  -13.5737  -18.1482 C   0  0  0  0  0  0  0  0  0  0  0  0
   25.3668  -13.1936  -16.7194 C   0  0  2  0  0  0  0  0  0  0  0  0
   26.3368  -13.7933  -15.7393 C   0  0  0  0  0  0  0  0  0  0  0  0
   23.9297  -13.4635  -16.3407 C   0  0  2  0  0  0  0  0  0  0  0  0
   23.5766  -14.8511  -16.4628 N   0  0  0  0  0  0  0  0  0  0  0  0
   23.0644  -12.6726  -17.2310 C   0  0  0  0  0  0  0  0  0  0  0  0
   23.0416  -11.2970  -17.1487 O   0  0  0  0  0  0  0  0  0  0  0  0
   22.3388  -13.2338  -18.0730 O   0  0  0  0  0  0  0  0  0  0  0  0
  2  1  1  1
  2  3  1  0
  4  2  1  0
  4  5  1  6
  6  7  2  0
  6  4  1  0
  8  6  1  0
  9 10  1  1
  9  8  1  0
 10 11  1  0
 11 12  1  0
 13 14  1  0
 13 12  1  0
 15  9  1  0
 16 15  2  0
 18 20  1  0
 18 17  1  6
 19 18  1  0
 20 21  1  6
 21 15  1  0
 22 23  1  0
 22 20  1  0
 24 22  2  0
M  END
$$$$
