TKV.pdb
     RDKit          3D

 24 23  0  0  1  0  0  0  0  0999 V2000
   25.1078  -19.6169  -10.5735 C   0  0  0  0  0  0  0  0  0  0  0  0
   25.8515  -20.9261  -10.6988 C   0  0  1  0  0  0  0  0  0  0  0  0
   26.0645  -21.4213   -9.4103 O   0  0  0  0  0  0  0  0  0  0  0  0
   25.0412  -21.9210  -11.5030 C   0  0  2  0  0  0  0  0  0  0  0  0
   25.7409  -23.1781  -11.4616 N   0  0  0  0  0  0  0  0  0  0  0  0
   24.8212  -21.4443  -12.8906 C   0  0  0  0  0  0  0  0  0  0  0  0
   25.7430  -21.5919  -13.7267 O   0  0  0  0  0  0  0  0  0  0  0  0
   23.6200  -20.8362  -13.2960 N   0  0  0  0  0  0  0  0  0  0  0  0
   23.3364  -20.3666  -14.6251 C   0  0  1  0  0  0  0  0  0  0  0  0
   21.8623  -20.0381  -14.8059 C   0  0  0  0  0  0  0  0  0  0  0  0
   21.5106  -19.6250  -16.1949 C   0  0  0  0  0  0  0  0  0  0  0  0
   20.0512  -19.3249  -16.3801 C   0  0  0  0  0  0  0  0  0  0  0  0
   19.8474  -19.0539  -17.8764 C   0  0  0  0  0  0  0  0  0  0  0  0
   18.4925  -18.7123  -18.1844 N   0  0  0  0  0  0  0  0  0  0  0  0
   24.0680  -19.0998  -14.8719 C   0  0  0  0  0  0  0  0  0  0  0  0
   23.8692  -18.1420  -14.0876 O   0  0  0  0  0  0  0  0  0  0  0  0
   27.7115  -18.9095  -17.2034 C   0  0  0  0  0  0  0  0  0  0  0  0
   27.2452  -17.9996  -16.0938 C   0  0  2  0  0  0  0  0  0  0  0  0
   27.6852  -18.4654  -14.7334 C   0  0  0  0  0  0  0  0  0  0  0  0
   25.7603  -17.7299  -16.1543 C   0  0  2  0  0  0  0  0  0  0  0  0
   24.9739  -18.9132  -15.9389 N   0  0  0  0  0  0  0  0  0  0  0  0
   25.4466  -17.1865  -17.4859 C   0  0  0  0  0  0  0  0  0  0  0  0
   25.8077  -15.8997  -17.8226 O   0  0  0  0  0  0  0  0  0  0  0  0
   24.8497  -17.8808  -18.3298 O   0  0  0  0  0  0  0  0  0  0  0  0
  2  1  1  1
  2  3  1  0
  4  2  1  0
  4  5  1  6
  6  7  2  0
  6  4  1  0
  8  6  1  0
  9 10  1  1
  9  8  1  0
 10 11  1  0
 11 12  1  0
 13 14  1  0
 13 12  1  0
 15  9  1  0
 16 15  2  0
 18 20  1  0
 18 17  1  6
 19 18  1  0
 20 21  1  6
 21 15  1  0
 22 23  1  0
 22 20  1  0
 24 22  2  0
M  END
$$$$
