TKV.pdb
     RDKit          3D

 24 23  0  0  1  0  0  0  0  0999 V2000
   26.4751  -16.0580  -18.1083 C   0  0  0  0  0  0  0  0  0  0  0  0
   27.2979  -16.8822  -19.0706 C   0  0  1  0  0  0  0  0  0  0  0  0
   28.0886  -16.0051  -19.8164 O   0  0  0  0  0  0  0  0  0  0  0  0
   28.1815  -17.8531  -18.3156 C   0  0  2  0  0  0  0  0  0  0  0  0
   28.9401  -18.5911  -19.2909 N   0  0  0  0  0  0  0  0  0  0  0  0
   27.3822  -18.7401  -17.4350 C   0  0  0  0  0  0  0  0  0  0  0  0
   26.7639  -19.6986  -17.9542 O   0  0  0  0  0  0  0  0  0  0  0  0
   27.2961  -18.5420  -16.0455 N   0  0  0  0  0  0  0  0  0  0  0  0
   26.4866  -19.3190  -15.1464 C   0  0  1  0  0  0  0  0  0  0  0  0
   27.0157  -19.2670  -13.7213 C   0  0  0  0  0  0  0  0  0  0  0  0
   26.1867  -20.0373  -12.7502 C   0  0  0  0  0  0  0  0  0  0  0  0
   26.1482  -21.5116  -13.0314 C   0  0  0  0  0  0  0  0  0  0  0  0
   25.2649  -22.1404  -11.9459 C   0  0  0  0  0  0  0  0  0  0  0  0
   25.1121  -23.5519  -12.1237 N   0  0  0  0  0  0  0  0  0  0  0  0
   25.1174  -18.7505  -15.0922 C   0  0  0  0  0  0  0  0  0  0  0  0
   24.9620  -17.6401  -14.5312 O   0  0  0  0  0  0  0  0  0  0  0  0
   21.9672  -19.9285  -17.7817 C   0  0  0  0  0  0  0  0  0  0  0  0
   22.0876  -18.6411  -17.0040 C   0  0  2  0  0  0  0  0  0  0  0  0
   22.8259  -17.5703  -17.7586 C   0  0  0  0  0  0  0  0  0  0  0  0
   22.6479  -18.8547  -15.6178 C   0  0  2  0  0  0  0  0  0  0  0  0
   23.9817  -19.3893  -15.6364 N   0  0  0  0  0  0  0  0  0  0  0  0
   21.7679  -19.7969  -14.9073 C   0  0  0  0  0  0  0  0  0  0  0  0
   20.5133  -19.4081  -14.4897 O   0  0  0  0  0  0  0  0  0  0  0  0
   22.1429  -20.9607  -14.6721 O   0  0  0  0  0  0  0  0  0  0  0  0
  2  1  1  1
  2  3  1  0
  4  2  1  0
  4  5  1  6
  6  7  2  0
  6  4  1  0
  8  6  1  0
  9 10  1  1
  9  8  1  0
 10 11  1  0
 11 12  1  0
 13 14  1  0
 13 12  1  0
 15  9  1  0
 16 15  2  0
 18 20  1  0
 18 17  1  6
 19 18  1  0
 20 21  1  6
 21 15  1  0
 22 23  1  0
 22 20  1  0
 24 22  2  0
M  END
$$$$
