TKV.pdb
     RDKit          3D

 24 23  0  0  1  0  0  0  0  0999 V2000
   24.3317  -12.6560  -19.2479 C   0  0  0  0  0  0  0  0  0  0  0  0
   23.1288  -11.7699  -19.0230 C   0  0  1  0  0  0  0  0  0  0  0  0
   21.9862  -12.5663  -19.1279 O   0  0  0  0  0  0  0  0  0  0  0  0
   23.1873  -11.1356  -17.6492 C   0  0  2  0  0  0  0  0  0  0  0  0
   23.2401  -12.2029  -16.6851 N   0  0  0  0  0  0  0  0  0  0  0  0
   22.0356  -10.2282  -17.4224 C   0  0  0  0  0  0  0  0  0  0  0  0
   21.9567   -9.1802  -18.1050 O   0  0  0  0  0  0  0  0  0  0  0  0
   21.0360  -10.5037  -16.4726 N   0  0  0  0  0  0  0  0  0  0  0  0
   19.9269   -9.6424  -16.1634 C   0  0  1  0  0  0  0  0  0  0  0  0
   18.7656  -10.4129  -15.5542 C   0  0  0  0  0  0  0  0  0  0  0  0
   17.5465   -9.5813  -15.3403 C   0  0  0  0  0  0  0  0  0  0  0  0
   16.3658  -10.3644  -14.8432 C   0  0  0  0  0  0  0  0  0  0  0  0
   15.2037   -9.3705  -14.7182 C   0  0  0  0  0  0  0  0  0  0  0  0
   13.9533  -10.0268  -14.4881 N   0  0  0  0  0  0  0  0  0  0  0  0
   20.3376   -8.6504  -15.1396 C   0  0  0  0  0  0  0  0  0  0  0  0
   20.7474   -9.0788  -14.0349 O   0  0  0  0  0  0  0  0  0  0  0  0
   22.5250   -4.5455  -13.9063 C   0  0  0  0  0  0  0  0  0  0  0  0
   22.0481   -5.6059  -14.8678 C   0  0  2  0  0  0  0  0  0  0  0  0
   21.9520   -5.1091  -16.2838 C   0  0  0  0  0  0  0  0  0  0  0  0
   20.7731   -6.2716  -14.4068 C   0  0  2  0  0  0  0  0  0  0  0  0
   20.2928   -7.2533  -15.3399 N   0  0  0  0  0  0  0  0  0  0  0  0
   19.7458   -5.2303  -14.2413 C   0  0  0  0  0  0  0  0  0  0  0  0
   19.7981   -4.3543  -13.1786 O   0  0  0  0  0  0  0  0  0  0  0  0
   18.8128   -5.1242  -15.0590 O   0  0  0  0  0  0  0  0  0  0  0  0
  2  1  1  1
  2  3  1  0
  4  2  1  0
  4  5  1  1
  6  7  2  0
  6  4  1  0
  8  6  1  0
  9 10  1  1
  9  8  1  0
 10 11  1  0
 11 12  1  0
 13 14  1  0
 13 12  1  0
 15  9  1  0
 16 15  2  0
 18 20  1  0
 18 17  1  1
 19 18  1  0
 20 21  1  6
 21 15  1  0
 22 23  1  0
 22 20  1  0
 24 22  2  0
M  END
$$$$
