VYA.pdb
     RDKit          3D

 25 25  0  0  1  0  0  0  0  0999 V2000
   28.3260  -20.7880  -11.0999 C   0  0  0  0  0  0  0  0  0  0  0  0
   26.9366  -20.2668  -11.4351 C   0  0  2  0  0  0  0  0  0  0  0  0
   25.9163  -20.8859  -10.4981 C   0  0  0  0  0  0  0  0  0  0  0  0
   26.6120  -20.7598  -12.8262 C   0  0  2  0  0  0  0  0  0  0  0  0
   27.6879  -20.3738  -13.6937 N   0  0  0  0  0  0  0  0  0  0  0  0
   25.3389  -20.0998  -13.2498 C   0  0  0  0  0  0  0  0  0  0  0  0
   25.1801  -18.8605  -13.2232 O   0  0  0  0  0  0  0  0  0  0  0  0
   26.1332  -16.9442  -18.5525 O   0  0  0  0  0  0  0  0  0  0  0  0
   25.2961  -17.7539  -17.8122 C   0  0  0  0  0  0  0  0  0  0  0  0
   25.6649  -19.0685  -17.5948 C   0  0  0  0  0  0  0  0  0  0  0  0
   24.8164  -19.8666  -16.8519 C   0  0  0  0  0  0  0  0  0  0  0  0
   23.6427  -19.3856  -16.3403 C   0  0  0  0  0  0  0  0  0  0  0  0
   22.7020  -20.1915  -15.5585 C   0  0  0  0  0  0  0  0  0  0  0  0
   23.0056  -20.2041  -14.1356 C   0  0  2  0  0  0  0  0  0  0  0  0
   24.2209  -20.8204  -13.7109 N   0  0  0  0  0  0  0  0  0  0  0  0
   21.9033  -20.8076  -13.3588 C   0  0  0  0  0  0  0  0  0  0  0  0
   21.7563  -22.0633  -13.1884 O   0  0  0  0  0  0  0  0  0  0  0  0
   23.3142  -18.0693  -16.5809 C   0  0  0  0  0  0  0  0  0  0  0  0
   24.1336  -17.2360  -17.3184 C   0  0  0  0  0  0  0  0  0  0  0  0
   19.3025  -19.4201  -11.1112 C   0  0  0  0  0  0  0  0  0  0  0  0
   19.9240  -20.5393  -11.9198 C   0  0  2  0  0  0  0  0  0  0  0  0
   20.9388  -19.9400  -12.7582 N   0  0  0  0  0  0  0  0  0  0  0  0
   18.9136  -21.2098  -12.7679 C   0  0  0  0  0  0  0  0  0  0  0  0
   18.8662  -21.0371  -14.1364 O   0  0  0  0  0  0  0  0  0  0  0  0
   18.0637  -21.9643  -12.2416 O   0  0  0  0  0  0  0  0  0  0  0  0
  2  1  1  1
  2  4  1  0
  3  2  1  0
  4  6  1  0
  4  5  1  6
  6  7  2  0
  8  9  1  0
  9 10  2  0
  9 19  1  0
 10 11  1  0
 11 12  2  0
 12 13  1  0
 14 13  1  6
 14 16  1  0
 15 14  1  0
 15  6  1  0
 16 17  2  0
 18 12  1  0
 19 18  2  0
 21 20  1  6
 21 23  1  0
 22 21  1  0
 22 16  1  0
 23 25  2  0
 23 24  1  0
M  END
$$$$
