VYA.pdb
     RDKit          3D

 25 25  0  0  1  0  0  0  0  0999 V2000
   22.5880  -13.0094  -19.1675 C   0  0  0  0  0  0  0  0  0  0  0  0
   21.9649  -12.3256  -20.3752 C   0  0  2  0  0  0  0  0  0  0  0  0
   22.7042  -12.7355  -21.6352 C   0  0  0  0  0  0  0  0  0  0  0  0
   22.1887  -10.8418  -20.1973 C   0  0  2  0  0  0  0  0  0  0  0  0
   23.5976  -10.6243  -20.0339 N   0  0  0  0  0  0  0  0  0  0  0  0
   21.4505  -10.4217  -18.9666 C   0  0  0  0  0  0  0  0  0  0  0  0
   20.2319  -10.6448  -18.8017 O   0  0  0  0  0  0  0  0  0  0  0  0
   22.9693  -15.0726  -14.6665 O   0  0  0  0  0  0  0  0  0  0  0  0
   22.7397  -13.7256  -14.8591 C   0  0  0  0  0  0  0  0  0  0  0  0
   23.8242  -12.8833  -15.0204 C   0  0  0  0  0  0  0  0  0  0  0  0
   23.5783  -11.5374  -15.2122 C   0  0  0  0  0  0  0  0  0  0  0  0
   22.3056  -11.0374  -15.2436 C   0  0  0  0  0  0  0  0  0  0  0  0
   21.9902   -9.6192  -15.4302 C   0  0  0  0  0  0  0  0  0  0  0  0
   21.3772   -9.3349  -16.7187 C   0  0  2  0  0  0  0  0  0  0  0  0
   22.0681   -9.7432  -17.8989 N   0  0  0  0  0  0  0  0  0  0  0  0
   21.0665   -7.8972  -16.8577 C   0  0  0  0  0  0  0  0  0  0  0  0
   21.9010   -7.0248  -17.2695 O   0  0  0  0  0  0  0  0  0  0  0  0
   21.2540  -11.9123  -15.0787 C   0  0  0  0  0  0  0  0  0  0  0  0
   21.4547  -13.2658  -14.8845 C   0  0  0  0  0  0  0  0  0  0  0  0
   17.9378   -5.9165  -16.6427 C   0  0  0  0  0  0  0  0  0  0  0  0
   19.4439   -6.0508  -16.7228 C   0  0  2  0  0  0  0  0  0  0  0  0
   19.7541   -7.4476  -16.5122 N   0  0  0  0  0  0  0  0  0  0  0  0
   20.1087   -5.2337  -15.6835 C   0  0  0  0  0  0  0  0  0  0  0  0
   20.2387   -3.8641  -15.7920 O   0  0  0  0  0  0  0  0  0  0  0  0
   20.5758   -5.7886  -14.6625 O   0  0  0  0  0  0  0  0  0  0  0  0
  2  1  1  1
  2  4  1  0
  3  2  1  0
  4  6  1  0
  4  5  1  1
  6  7  2  0
  8  9  1  0
  9 10  2  0
  9 19  1  0
 10 11  1  0
 11 12  2  0
 12 13  1  0
 14 13  1  1
 14 16  1  0
 15 14  1  0
 15  6  1  0
 16 17  2  0
 18 12  1  0
 19 18  2  0
 21 20  1  1
 21 23  1  0
 22 21  1  0
 22 16  1  0
 23 25  2  0
 23 24  1  0
M  END
$$$$
