VYA.pdb
     RDKit          3D

 25 25  0  0  1  0  0  0  0  0999 V2000
   26.4679  -18.8302  -18.7231 C   0  0  0  0  0  0  0  0  0  0  0  0
   24.9754  -18.7240  -18.4479 C   0  0  2  0  0  0  0  0  0  0  0  0
   24.7446  -17.9580  -17.1586 C   0  0  0  0  0  0  0  0  0  0  0  0
   24.4750  -20.1313  -18.2186 C   0  0  2  0  0  0  0  0  0  0  0  0
   24.7386  -20.8925  -19.4062 N   0  0  0  0  0  0  0  0  0  0  0  0
   23.0031  -20.0484  -17.9689 C   0  0  0  0  0  0  0  0  0  0  0  0
   22.2028  -19.5751  -18.8040 O   0  0  0  0  0  0  0  0  0  0  0  0
   19.5197  -23.6802  -21.7199 O   0  0  0  0  0  0  0  0  0  0  0  0
   19.7054  -23.1806  -20.4470 C   0  0  0  0  0  0  0  0  0  0  0  0
   20.8347  -23.5570  -19.7439 C   0  0  0  0  0  0  0  0  0  0  0  0
   21.0066  -23.0485  -18.4708 C   0  0  0  0  0  0  0  0  0  0  0  0
   20.0954  -22.1975  -17.9085 C   0  0  0  0  0  0  0  0  0  0  0  0
   20.2224  -21.6410  -16.5595 C   0  0  0  0  0  0  0  0  0  0  0  0
   21.0022  -20.4134  -16.5188 C   0  0  2  0  0  0  0  0  0  0  0  0
   22.4036  -20.4959  -16.7764 N   0  0  0  0  0  0  0  0  0  0  0  0
   20.8252  -19.7096  -15.2320 C   0  0  0  0  0  0  0  0  0  0  0  0
   21.3077  -20.1186  -14.1242 O   0  0  0  0  0  0  0  0  0  0  0  0
   18.9842  -21.8484  -18.6446 C   0  0  0  0  0  0  0  0  0  0  0  0
   18.7731  -22.3333  -19.9214 C   0  0  0  0  0  0  0  0  0  0  0  0
   19.7330  -16.3244  -14.3067 C   0  0  0  0  0  0  0  0  0  0  0  0
   19.9684  -17.7806  -13.9650 C   0  0  2  0  0  0  0  0  0  0  0  0
   20.0692  -18.4963  -15.2177 N   0  0  0  0  0  0  0  0  0  0  0  0
   18.8483  -18.3301  -13.1694 C   0  0  0  0  0  0  0  0  0  0  0  0
   18.7208  -18.0980  -11.8149 O   0  0  0  0  0  0  0  0  0  0  0  0
   17.9758  -19.0331  -13.7291 O   0  0  0  0  0  0  0  0  0  0  0  0
  2  1  1  1
  2  4  1  0
  3  2  1  0
  4  6  1  0
  4  5  1  6
  6  7  2  0
  8  9  1  0
  9 10  2  0
  9 19  1  0
 10 11  1  0
 11 12  2  0
 12 13  1  0
 14 13  1  1
 14 16  1  0
 15 14  1  0
 15  6  1  0
 16 17  2  0
 18 12  1  0
 19 18  2  0
 21 20  1  6
 21 23  1  0
 22 21  1  0
 22 16  1  0
 23 25  2  0
 23 24  1  0
M  END
$$$$
