VYA.pdb
     RDKit          3D

 25 25  0  0  1  0  0  0  0  0999 V2000
   26.1908  -23.1698  -17.7094 C   0  0  0  0  0  0  0  0  0  0  0  0
   27.0455  -24.3819  -17.3704 C   0  0  2  0  0  0  0  0  0  0  0  0
   27.6942  -24.9213  -18.6316 C   0  0  0  0  0  0  0  0  0  0  0  0
   26.1028  -25.4512  -16.8691 C   0  0  2  0  0  0  0  0  0  0  0  0
   25.5308  -24.9925  -15.6356 N   0  0  0  0  0  0  0  0  0  0  0  0
   26.9101  -26.6889  -16.6405 C   0  0  0  0  0  0  0  0  0  0  0  0
   27.6606  -26.8318  -15.6514 O   0  0  0  0  0  0  0  0  0  0  0  0
   26.4617  -33.6368  -13.1054 O   0  0  0  0  0  0  0  0  0  0  0  0
   26.5820  -32.8066  -14.2012 C   0  0  0  0  0  0  0  0  0  0  0  0
   27.8444  -32.3984  -14.5899 C   0  0  0  0  0  0  0  0  0  0  0  0
   27.9486  -31.5675  -15.6888 C   0  0  0  0  0  0  0  0  0  0  0  0
   26.8452  -31.1519  -16.3818 C   0  0  0  0  0  0  0  0  0  0  0  0
   26.8986  -30.2615  -17.5438 C   0  0  0  0  0  0  0  0  0  0  0  0
   27.5870  -29.0088  -17.2726 C   0  0  2  0  0  0  0  0  0  0  0  0
   26.8888  -27.7886  -17.5191 N   0  0  0  0  0  0  0  0  0  0  0  0
   28.8753  -28.9397  -17.9925 C   0  0  0  0  0  0  0  0  0  0  0  0
   29.0760  -28.2188  -19.0256 O   0  0  0  0  0  0  0  0  0  0  0  0
   25.6063  -31.5828  -15.9601 C   0  0  0  0  0  0  0  0  0  0  0  0
   25.4564  -32.4143  -14.8665 C   0  0  0  0  0  0  0  0  0  0  0  0
   32.2697  -30.3082  -17.3574 C   0  0  0  0  0  0  0  0  0  0  0  0
   31.2213  -29.6476  -18.2276 C   0  0  2  0  0  0  0  0  0  0  0  0
   29.9683  -29.7242  -17.5093 N   0  0  0  0  0  0  0  0  0  0  0  0
   31.0905  -30.3433  -19.5271 C   0  0  0  0  0  0  0  0  0  0  0  0
   31.9290  -30.0828  -20.5918 O   0  0  0  0  0  0  0  0  0  0  0  0
   30.1923  -31.2020  -19.6836 O   0  0  0  0  0  0  0  0  0  0  0  0
  2  1  1  6
  2  4  1  0
  3  2  1  0
  4  6  1  0
  4  5  1  1
  6  7  2  0
  8  9  1  0
  9 10  2  0
  9 19  1  0
 10 11  1  0
 11 12  2  0
 12 13  1  0
 14 13  1  6
 14 16  1  0
 15 14  1  0
 15  6  1  0
 16 17  2  0
 18 12  1  0
 19 18  2  0
 21 20  1  1
 21 23  1  0
 22 21  1  0
 22 16  1  0
 23 25  2  0
 23 24  1  0
M  END
$$$$
