VYA.pdb
     RDKit          3D

 25 25  0  0  1  0  0  0  0  0999 V2000
   22.2287  -25.9878  -15.6218 C   0  0  0  0  0  0  0  0  0  0  0  0
   20.9687  -25.5964  -16.3794 C   0  0  2  0  0  0  0  0  0  0  0  0
   21.2455  -25.5984  -17.8712 C   0  0  0  0  0  0  0  0  0  0  0  0
   20.6551  -24.1697  -15.9924 C   0  0  2  0  0  0  0  0  0  0  0  0
   21.7577  -23.3483  -16.4032 N   0  0  0  0  0  0  0  0  0  0  0  0
   20.5030  -24.1319  -14.5053 C   0  0  0  0  0  0  0  0  0  0  0  0
   21.4482  -23.8514  -13.7374 O   0  0  0  0  0  0  0  0  0  0  0  0
   13.5475  -22.5238  -14.9122 O   0  0  0  0  0  0  0  0  0  0  0  0
   14.7044  -22.6985  -14.1805 C   0  0  0  0  0  0  0  0  0  0  0  0
   14.7012  -23.6089  -13.1400 C   0  0  0  0  0  0  0  0  0  0  0  0
   15.8670  -23.7726  -12.4168 C   0  0  0  0  0  0  0  0  0  0  0  0
   16.9988  -23.0625  -12.7088 C   0  0  0  0  0  0  0  0  0  0  0  0
   18.2553  -23.1878  -11.9664 C   0  0  0  0  0  0  0  0  0  0  0  0
   19.0965  -24.2738  -12.4459 C   0  0  2  0  0  0  0  0  0  0  0  0
   19.2860  -24.4086  -13.8541 N   0  0  0  0  0  0  0  0  0  0  0  0
   18.6314  -25.5780  -11.9307 C   0  0  0  0  0  0  0  0  0  0  0  0
   17.9600  -26.4169  -12.6183 O   0  0  0  0  0  0  0  0  0  0  0  0
   16.9579  -22.1658  -13.7542 C   0  0  0  0  0  0  0  0  0  0  0  0
   15.8133  -21.9709  -14.5037 C   0  0  0  0  0  0  0  0  0  0  0  0
   19.2654  -27.5189   -8.8399 C   0  0  0  0  0  0  0  0  0  0  0  0
   18.4669  -27.2003  -10.0864 C   0  0  2  0  0  0  0  0  0  0  0  0
   18.9485  -25.9297  -10.5818 N   0  0  0  0  0  0  0  0  0  0  0  0
   17.0222  -27.0982   -9.7834 C   0  0  0  0  0  0  0  0  0  0  0  0
   16.3915  -25.8856   -9.5927 O   0  0  0  0  0  0  0  0  0  0  0  0
   16.3320  -28.1394   -9.6930 O   0  0  0  0  0  0  0  0  0  0  0  0
  2  1  1  1
  2  4  1  0
  3  2  1  0
  4  6  1  0
  4  5  1  1
  6  7  2  0
  8  9  1  0
  9 10  2  0
  9 19  1  0
 10 11  1  0
 11 12  2  0
 12 13  1  0
 14 13  1  6
 14 16  1  0
 15 14  1  0
 15  6  1  0
 16 17  2  0
 18 12  1  0
 19 18  2  0
 21 20  1  1
 21 23  1  0
 22 21  1  0
 22 16  1  0
 23 25  2  0
 23 24  1  0
M  END
$$$$
