VYA.pdb
     RDKit          3D

 25 25  0  0  1  0  0  0  0  0999 V2000
   27.7625  -12.2754  -16.6532 C   0  0  0  0  0  0  0  0  0  0  0  0
   26.6178  -11.3002  -16.8837 C   0  0  2  0  0  0  0  0  0  0  0  0
   26.9079   -9.9912  -16.1733 C   0  0  0  0  0  0  0  0  0  0  0  0
   25.3981  -11.8984  -16.2221 C   0  0  2  0  0  0  0  0  0  0  0  0
   25.1442  -13.1717  -16.8332 N   0  0  0  0  0  0  0  0  0  0  0  0
   24.2542  -10.9666  -16.4650 C   0  0  0  0  0  0  0  0  0  0  0  0
   23.7518  -10.7957  -17.5966 O   0  0  0  0  0  0  0  0  0  0  0  0
   19.1527  -14.2842  -17.5969 O   0  0  0  0  0  0  0  0  0  0  0  0
   19.6644  -13.1508  -16.9986 C   0  0  0  0  0  0  0  0  0  0  0  0
   19.6719  -11.9677  -17.7140 C   0  0  0  0  0  0  0  0  0  0  0  0
   20.1874  -10.8417  -17.1014 C   0  0  0  0  0  0  0  0  0  0  0  0
   20.6798  -10.8799  -15.8261 C   0  0  0  0  0  0  0  0  0  0  0  0
   21.2491   -9.7202  -15.1357 C   0  0  0  0  0  0  0  0  0  0  0  0
   22.5512   -9.3291  -15.6539 C   0  0  2  0  0  0  0  0  0  0  0  0
   23.6539  -10.2098  -15.4410 N   0  0  0  0  0  0  0  0  0  0  0  0
   22.9442   -7.9934  -15.1600 C   0  0  0  0  0  0  0  0  0  0  0  0
   23.5193   -7.7891  -14.0397 O   0  0  0  0  0  0  0  0  0  0  0  0
   20.6528  -12.0799  -15.1493 C   0  0  0  0  0  0  0  0  0  0  0  0
   20.1461  -13.2301  -15.7238 C   0  0  0  0  0  0  0  0  0  0  0  0
   22.9190   -4.5786  -16.6229 C   0  0  0  0  0  0  0  0  0  0  0  0
   23.0331   -5.5527  -15.4692 C   0  0  2  0  0  0  0  0  0  0  0  0
   22.6677   -6.8555  -15.9800 N   0  0  0  0  0  0  0  0  0  0  0  0
   22.1220   -5.1806  -14.3642 C   0  0  0  0  0  0  0  0  0  0  0  0
   22.4773   -4.2718  -13.3883 O   0  0  0  0  0  0  0  0  0  0  0  0
   20.9839   -5.6993  -14.2969 O   0  0  0  0  0  0  0  0  0  0  0  0
  2  1  1  1
  2  4  1  0
  3  2  1  0
  4  6  1  0
  4  5  1  6
  6  7  2  0
  8  9  1  0
  9 10  2  0
  9 19  1  0
 10 11  1  0
 11 12  2  0
 12 13  1  0
 14 13  1  1
 14 16  1  0
 15 14  1  0
 15  6  1  0
 16 17  2  0
 18 12  1  0
 19 18  2  0
 21 20  1  6
 21 23  1  0
 22 21  1  0
 22 16  1  0
 23 25  2  0
 23 24  1  0
M  END
$$$$
