VYA.pdb
     RDKit          3D

 25 25  0  0  1  0  0  0  0  0999 V2000
   21.5148  -35.0757  -12.8540 C   0  0  0  0  0  0  0  0  0  0  0  0
   20.2575  -34.5766  -12.1579 C   0  0  2  0  0  0  0  0  0  0  0  0
   19.0325  -35.1953  -12.8052 C   0  0  0  0  0  0  0  0  0  0  0  0
   20.1835  -33.0885  -12.4099 C   0  0  2  0  0  0  0  0  0  0  0  0
   20.2780  -32.8752  -13.8258 N   0  0  0  0  0  0  0  0  0  0  0  0
   21.3440  -32.4571  -11.7094 C   0  0  0  0  0  0  0  0  0  0  0  0
   22.3558  -32.0454  -12.3166 O   0  0  0  0  0  0  0  0  0  0  0  0
   19.7111  -26.4551  -12.2710 O   0  0  0  0  0  0  0  0  0  0  0  0
   20.2915  -27.4028  -11.4528 C   0  0  0  0  0  0  0  0  0  0  0  0
   21.6535  -27.6195  -11.5496 C   0  0  0  0  0  0  0  0  0  0  0  0
   22.2199  -28.5715  -10.7240 C   0  0  0  0  0  0  0  0  0  0  0  0
   21.4691  -29.2869   -9.8324 C   0  0  0  0  0  0  0  0  0  0  0  0
   22.0165  -30.3156   -8.9447 C   0  0  0  0  0  0  0  0  0  0  0  0
   22.4051  -31.5289   -9.6474 C   0  0  2  0  0  0  0  0  0  0  0  0
   21.3886  -32.2770  -10.3140 N   0  0  0  0  0  0  0  0  0  0  0  0
   23.1288  -32.4562   -8.7535 C   0  0  0  0  0  0  0  0  0  0  0  0
   22.5763  -33.4250   -8.1343 O   0  0  0  0  0  0  0  0  0  0  0  0
   20.1153  -29.0388   -9.7687 C   0  0  0  0  0  0  0  0  0  0  0  0
   19.5078  -28.0957  -10.5757 C   0  0  0  0  0  0  0  0  0  0  0  0
   26.7186  -32.8832   -7.8585 C   0  0  0  0  0  0  0  0  0  0  0  0
   25.2541  -33.2650   -7.8105 C   0  0  2  0  0  0  0  0  0  0  0  0
   24.5328  -32.2640   -8.5653 N   0  0  0  0  0  0  0  0  0  0  0  0
   24.7544  -33.2905   -6.4179 C   0  0  0  0  0  0  0  0  0  0  0  0
   25.0853  -34.2964   -5.5329 O   0  0  0  0  0  0  0  0  0  0  0  0
   24.0033  -32.3744   -6.0112 O   0  0  0  0  0  0  0  0  0  0  0  0
  2  1  1  6
  2  4  1  0
  3  2  1  0
  4  6  1  0
  4  5  1  6
  6  7  2  0
  8  9  1  0
  9 10  2  0
  9 19  1  0
 10 11  1  0
 11 12  2  0
 12 13  1  0
 14 13  1  1
 14 16  1  0
 15 14  1  0
 15  6  1  0
 16 17  2  0
 18 12  1  0
 19 18  2  0
 21 20  1  1
 21 23  1  0
 22 21  1  0
 22 16  1  0
 23 25  2  0
 23 24  1  0
M  END
$$$$
