IEE.pdb
     RDKit          3D

 27 26  0  0  1  0  0  0  0  0999 V2000
   11.4713   -9.1941   -8.2647 C   0  0  0  0  0  0  0  0  0  0  0  0
   11.5448  -10.1848   -9.4096 C   0  0  0  0  0  0  0  0  0  0  0  0
   12.8455   -9.9328  -10.1394 C   0  0  2  0  0  0  0  0  0  0  0  0
   12.8787   -8.4687  -10.5331 C   0  0  0  0  0  0  0  0  0  0  0  0
   12.9901  -10.8284  -11.3498 C   0  0  2  0  0  0  0  0  0  0  0  0
   13.2101  -12.1684  -10.9090 N   0  0  0  0  0  0  0  0  0  0  0  0
   14.0839  -10.3165  -12.2087 C   0  0  0  0  0  0  0  0  0  0  0  0
   15.2630  -10.7077  -11.8869 O   0  0  0  0  0  0  0  0  0  0  0  0
   13.9076   -9.4570  -13.3172 N   0  0  0  0  0  0  0  0  0  0  0  0
   15.0147   -9.1548  -14.1981 C   0  0  1  0  0  0  0  0  0  0  0  0
   14.6904   -9.2622  -15.6296 C   0  0  0  0  0  0  0  0  0  0  0  0
   15.7368   -8.9998  -16.6336 C   0  0  0  0  0  0  0  0  0  0  0  0
   15.4022   -9.0726  -18.0395 C   0  0  0  0  0  0  0  0  0  0  0  0
   14.2455   -9.3460  -18.4235 O   0  0  0  0  0  0  0  0  0  0  0  0
   15.7346   -7.9348  -13.8112 C   0  0  0  0  0  0  0  0  0  0  0  0
   15.1583   -6.9783  -13.2407 O   0  0  0  0  0  0  0  0  0  0  0  0
   16.3499   -8.8436  -19.0258 O   0  0  0  0  0  0  0  0  0  0  0  0
   17.1182   -7.8150  -14.0784 N   0  0  0  0  0  0  0  0  0  0  0  0
   17.8109   -6.6624  -13.6267 C   0  0  1  0  0  0  0  0  0  0  0  0
   19.2013   -6.9554  -13.1663 C   0  0  0  0  0  0  0  0  0  0  0  0
   20.1596   -7.5355  -14.1215 C   0  0  0  0  0  0  0  0  0  0  0  0
   21.4533   -8.0128  -13.6455 C   0  0  0  0  0  0  0  0  0  0  0  0
   21.8506   -7.7946  -12.4937 O   0  0  0  0  0  0  0  0  0  0  0  0
   17.7888   -5.5512  -14.6233 C   0  0  0  0  0  0  0  0  0  0  0  0
   17.4154   -5.8199  -15.7856 O   0  0  0  0  0  0  0  0  0  0  0  0
   22.3222   -8.7467  -14.4663 O   0  0  0  0  0  0  0  0  0  0  0  0
   18.1571   -4.2578  -14.3233 O   0  0  0  0  0  0  0  0  0  0  0  0
  2  1  1  0
  3  2  1  0
  3  4  1  6
  5  6  1  1
  5  3  1  0
  7  5  1  0
  8  7  2  0
  9  7  1  0
 10  9  1  0
 10 11  1  6
 11 12  1  0
 12 13  1  0
 13 14  2  0
 13 17  1  0
 15 18  1  0
 15 10  1  0
 16 15  2  0
 19 24  1  0
 19 18  1  0
 19 20  1  6
 21 20  1  0
 21 22  1  0
 22 23  2  0
 22 26  1  0
 24 27  1  0
 25 24  2  0
M  END
$$$$
