IEE.pdb
     RDKit          3D

 27 26  0  0  1  0  0  0  0  0999 V2000
   22.3782  -14.0811  -18.6303 C   0  0  0  0  0  0  0  0  0  0  0  0
   23.1686  -12.9035  -18.0955 C   0  0  0  0  0  0  0  0  0  0  0  0
   22.2574  -12.1367  -17.1629 C   0  0  2  0  0  0  0  0  0  0  0  0
   21.0547  -11.6784  -17.9648 C   0  0  0  0  0  0  0  0  0  0  0  0
   22.9690  -10.9642  -16.5250 C   0  0  2  0  0  0  0  0  0  0  0  0
   24.0490  -11.4557  -15.7312 N   0  0  0  0  0  0  0  0  0  0  0  0
   21.9941  -10.1675  -15.7431 C   0  0  0  0  0  0  0  0  0  0  0  0
   21.3927  -10.8037  -14.8049 O   0  0  0  0  0  0  0  0  0  0  0  0
   21.7025   -8.8020  -15.9642 N   0  0  0  0  0  0  0  0  0  0  0  0
   20.7003   -8.1251  -15.1704 C   0  0  1  0  0  0  0  0  0  0  0  0
   21.2500   -7.1663  -14.1986 C   0  0  0  0  0  0  0  0  0  0  0  0
   21.8722   -5.9198  -14.6794 C   0  0  0  0  0  0  0  0  0  0  0  0
   22.4965   -5.0277  -13.7266 C   0  0  0  0  0  0  0  0  0  0  0  0
   22.4785   -5.2636  -12.5001 O   0  0  0  0  0  0  0  0  0  0  0  0
   19.5783   -7.6245  -15.9746 C   0  0  0  0  0  0  0  0  0  0  0  0
   19.7546   -7.0739  -17.0874 O   0  0  0  0  0  0  0  0  0  0  0  0
   23.1426   -3.8688  -14.1301 O   0  0  0  0  0  0  0  0  0  0  0  0
   18.2528   -7.7584  -15.5004 N   0  0  0  0  0  0  0  0  0  0  0  0
   17.1785   -7.3414  -16.3277 C   0  0  1  0  0  0  0  0  0  0  0  0
   16.0298   -8.2962  -16.3246 C   0  0  0  0  0  0  0  0  0  0  0  0
   15.1278   -8.3201  -15.1614 C   0  0  0  0  0  0  0  0  0  0  0  0
   14.2227   -9.4487  -14.9734 C   0  0  0  0  0  0  0  0  0  0  0  0
   14.5829  -10.6178  -15.1620 O   0  0  0  0  0  0  0  0  0  0  0  0
   16.7313   -5.9486  -16.0305 C   0  0  0  0  0  0  0  0  0  0  0  0
   17.1463   -5.4167  -14.9782 O   0  0  0  0  0  0  0  0  0  0  0  0
   12.8914   -9.2738  -14.5681 O   0  0  0  0  0  0  0  0  0  0  0  0
   15.8915   -5.2312  -16.8543 O   0  0  0  0  0  0  0  0  0  0  0  0
  2  1  1  0
  3  2  1  0
  3  4  1  6
  5  6  1  1
  5  3  1  0
  7  5  1  0
  8  7  2  0
  9  7  1  0
 10  9  1  0
 10 11  1  6
 11 12  1  0
 12 13  1  0
 13 14  2  0
 13 17  1  0
 15 18  1  0
 15 10  1  0
 16 15  2  0
 19 24  1  0
 19 18  1  0
 19 20  1  1
 21 20  1  0
 21 22  1  0
 22 23  2  0
 22 26  1  0
 24 27  1  0
 25 24  2  0
M  END
$$$$
