IEE.pdb
     RDKit          3D

 27 26  0  0  1  0  0  0  0  0999 V2000
   24.0455  -21.9042   -6.9354 C   0  0  0  0  0  0  0  0  0  0  0  0
   24.5792  -20.7834   -7.8053 C   0  0  0  0  0  0  0  0  0  0  0  0
   26.0861  -20.9135   -7.8316 C   0  0  2  0  0  0  0  0  0  0  0  0
   26.5842  -20.8098   -6.4031 C   0  0  0  0  0  0  0  0  0  0  0  0
   26.7228  -19.8603   -8.7111 C   0  0  2  0  0  0  0  0  0  0  0  0
   26.3995  -18.5695   -8.1936 N   0  0  0  0  0  0  0  0  0  0  0  0
   26.2695  -20.0517  -10.1090 C   0  0  0  0  0  0  0  0  0  0  0  0
   25.2886  -19.3092  -10.4742 O   0  0  0  0  0  0  0  0  0  0  0  0
   26.8347  -20.9685  -11.0247 N   0  0  0  0  0  0  0  0  0  0  0  0
   26.3723  -21.0210  -12.3945 C   0  0  1  0  0  0  0  0  0  0  0  0
   27.4121  -21.3967  -13.3658 C   0  0  0  0  0  0  0  0  0  0  0  0
   28.0267  -20.3576  -14.2112 C   0  0  0  0  0  0  0  0  0  0  0  0
   27.7564  -20.3511  -15.6326 C   0  0  0  0  0  0  0  0  0  0  0  0
   27.1240  -21.2771  -16.1828 O   0  0  0  0  0  0  0  0  0  0  0  0
   25.0968  -21.7340  -12.5387 C   0  0  0  0  0  0  0  0  0  0  0  0
   24.6332  -22.4543  -11.6229 O   0  0  0  0  0  0  0  0  0  0  0  0
   28.1878  -19.3176  -16.4506 O   0  0  0  0  0  0  0  0  0  0  0  0
   24.3526  -21.6175  -13.7357 N   0  0  0  0  0  0  0  0  0  0  0  0
   22.9363  -21.6712  -13.6756 C   0  0  1  0  0  0  0  0  0  0  0  0
   22.3457  -20.6233  -12.7902 C   0  0  0  0  0  0  0  0  0  0  0  0
   20.8840  -20.5755  -12.6215 C   0  0  0  0  0  0  0  0  0  0  0  0
   20.2797  -19.4800  -11.8713 C   0  0  0  0  0  0  0  0  0  0  0  0
   20.5068  -18.2940  -12.1434 O   0  0  0  0  0  0  0  0  0  0  0  0
   22.3031  -21.6638  -15.0274 C   0  0  0  0  0  0  0  0  0  0  0  0
   22.8487  -20.9813  -15.9214 O   0  0  0  0  0  0  0  0  0  0  0  0
   19.4064  -19.7077  -10.7976 O   0  0  0  0  0  0  0  0  0  0  0  0
   21.1577  -22.3671  -15.3306 O   0  0  0  0  0  0  0  0  0  0  0  0
  2  1  1  0
  3  2  1  0
  3  4  1  1
  5  6  1  1
  5  3  1  0
  7  5  1  0
  8  7  2  0
  9  7  1  0
 10  9  1  0
 10 11  1  6
 11 12  1  0
 12 13  1  0
 13 14  2  0
 13 17  1  0
 15 18  1  0
 15 10  1  0
 16 15  2  0
 19 24  1  0
 19 18  1  0
 19 20  1  1
 21 20  1  0
 21 22  1  0
 22 23  2  0
 22 26  1  0
 24 27  1  0
 25 24  2  0
M  END
$$$$
