IEE.pdb
     RDKit          3D

 27 26  0  0  1  0  0  0  0  0999 V2000
   26.9412  -21.6276   -9.2803 C   0  0  0  0  0  0  0  0  0  0  0  0
   27.3034  -20.3496  -10.0103 C   0  0  0  0  0  0  0  0  0  0  0  0
   26.0565  -19.8674  -10.7181 C   0  0  2  0  0  0  0  0  0  0  0  0
   25.0305  -19.5149   -9.6587 C   0  0  0  0  0  0  0  0  0  0  0  0
   25.5194  -20.9081  -11.6755 C   0  0  2  0  0  0  0  0  0  0  0  0
   26.6110  -21.6749  -12.1841 N   0  0  0  0  0  0  0  0  0  0  0  0
   24.7403  -20.2354  -12.7418 C   0  0  0  0  0  0  0  0  0  0  0  0
   23.7413  -19.5399  -12.3355 O   0  0  0  0  0  0  0  0  0  0  0  0
   25.0252  -20.3139  -14.1242 N   0  0  0  0  0  0  0  0  0  0  0  0
   24.2556  -19.5471  -15.0794 C   0  0  1  0  0  0  0  0  0  0  0  0
   25.0012  -19.1766  -16.2930 C   0  0  0  0  0  0  0  0  0  0  0  0
   24.3485  -18.3486  -17.3227 C   0  0  0  0  0  0  0  0  0  0  0  0
   25.0968  -17.9639  -18.4999 C   0  0  0  0  0  0  0  0  0  0  0  0
   25.6104  -18.8153  -19.2559 O   0  0  0  0  0  0  0  0  0  0  0  0
   22.9186  -20.1066  -15.3149 C   0  0  0  0  0  0  0  0  0  0  0  0
   22.5775  -21.2229  -14.8567 O   0  0  0  0  0  0  0  0  0  0  0  0
   25.2797  -16.6327  -18.8430 O   0  0  0  0  0  0  0  0  0  0  0  0
   21.9723  -19.3817  -16.0760 N   0  0  0  0  0  0  0  0  0  0  0  0
   20.6506  -19.8837  -16.1929 C   0  0  1  0  0  0  0  0  0  0  0  0
   19.8567  -19.7463  -14.9352 C   0  0  0  0  0  0  0  0  0  0  0  0
   19.8466  -18.4496  -14.2382 C   0  0  0  0  0  0  0  0  0  0  0  0
   18.6489  -18.0249  -13.5218 C   0  0  0  0  0  0  0  0  0  0  0  0
   17.6112  -18.6997  -13.5194 O   0  0  0  0  0  0  0  0  0  0  0  0
   19.9209  -19.3138  -17.3639 C   0  0  0  0  0  0  0  0  0  0  0  0
   19.2687  -18.2622  -17.1870 O   0  0  0  0  0  0  0  0  0  0  0  0
   18.6041  -16.8265  -12.7944 O   0  0  0  0  0  0  0  0  0  0  0  0
   19.9338  -19.8880  -18.6164 O   0  0  0  0  0  0  0  0  0  0  0  0
  2  1  1  0
  3  2  1  0
  3  4  1  1
  5  6  1  6
  5  3  1  0
  7  5  1  0
  8  7  2  0
  9  7  1  0
 10  9  1  0
 10 11  1  6
 11 12  1  0
 12 13  1  0
 13 14  2  0
 13 17  1  0
 15 18  1  0
 15 10  1  0
 16 15  2  0
 19 24  1  0
 19 18  1  0
 19 20  1  1
 21 20  1  0
 21 22  1  0
 22 23  2  0
 22 26  1  0
 24 27  1  0
 25 24  2  0
M  END
$$$$
