IEE.pdb
     RDKit          3D

 27 26  0  0  1  0  0  0  0  0999 V2000
   29.0002  -11.8485  -16.9281 C   0  0  0  0  0  0  0  0  0  0  0  0
   27.6962  -12.5498  -16.6037 C   0  0  0  0  0  0  0  0  0  0  0  0
   26.5896  -11.5278  -16.7419 C   0  0  2  0  0  0  0  0  0  0  0  0
   26.8332  -10.4404  -15.7135 C   0  0  0  0  0  0  0  0  0  0  0  0
   25.2245  -12.1543  -16.5630 C   0  0  2  0  0  0  0  0  0  0  0  0
   25.1226  -13.2919  -17.4196 N   0  0  0  0  0  0  0  0  0  0  0  0
   24.1808  -11.1363  -16.8290 C   0  0  0  0  0  0  0  0  0  0  0  0
   24.1360  -10.6987  -18.0346 O   0  0  0  0  0  0  0  0  0  0  0  0
   23.2695  -10.6414  -15.8682 N   0  0  0  0  0  0  0  0  0  0  0  0
   22.3027   -9.6259  -16.2248 C   0  0  1  0  0  0  0  0  0  0  0  0
   20.9367  -10.1382  -16.4183 C   0  0  0  0  0  0  0  0  0  0  0  0
   20.7127  -11.2947  -17.3039 C   0  0  0  0  0  0  0  0  0  0  0  0
   19.3608  -11.7527  -17.5408 C   0  0  0  0  0  0  0  0  0  0  0  0
   18.6214  -11.2014  -18.3832 O   0  0  0  0  0  0  0  0  0  0  0  0
   22.4054   -8.4226  -15.3895 C   0  0  0  0  0  0  0  0  0  0  0  0
   22.7257   -8.4821  -14.1786 O   0  0  0  0  0  0  0  0  0  0  0  0
   18.8225  -12.8236  -16.8433 O   0  0  0  0  0  0  0  0  0  0  0  0
   22.1417   -7.1499  -15.9469 N   0  0  0  0  0  0  0  0  0  0  0  0
   22.1427   -6.0120  -15.0999 C   0  0  1  0  0  0  0  0  0  0  0  0
   22.2493   -4.7232  -15.8475 C   0  0  0  0  0  0  0  0  0  0  0  0
   22.3270   -3.4645  -15.0879 C   0  0  0  0  0  0  0  0  0  0  0  0
   22.4090   -2.1950  -15.8019 C   0  0  0  0  0  0  0  0  0  0  0  0
   22.4791   -2.1392  -17.0364 O   0  0  0  0  0  0  0  0  0  0  0  0
   20.9891   -5.9996  -14.1526 C   0  0  0  0  0  0  0  0  0  0  0  0
   19.9211   -6.5283  -14.5300 O   0  0  0  0  0  0  0  0  0  0  0  0
   22.4137   -0.9637  -15.1300 O   0  0  0  0  0  0  0  0  0  0  0  0
   21.0478   -5.4382  -12.8956 O   0  0  0  0  0  0  0  0  0  0  0  0
  2  1  1  0
  3  2  1  0
  3  4  1  1
  5  6  1  6
  5  3  1  0
  7  5  1  0
  8  7  2  0
  9  7  1  0
 10  9  1  0
 10 11  1  1
 11 12  1  0
 12 13  1  0
 13 14  2  0
 13 17  1  0
 15 18  1  0
 15 10  1  0
 16 15  2  0
 19 24  1  0
 19 18  1  0
 19 20  1  6
 21 20  1  0
 21 22  1  0
 22 23  2  0
 22 26  1  0
 24 27  1  0
 25 24  2  0
M  END
$$$$
