IEE.pdb
     RDKit          3D

 27 26  0  0  1  0  0  0  0  0999 V2000
   20.2749  -11.7103    5.0831 C   0  0  0  0  0  0  0  0  0  0  0  0
   19.2231  -11.4264    6.1370 C   0  0  0  0  0  0  0  0  0  0  0  0
   18.7485  -12.7603    6.6694 C   0  0  2  0  0  0  0  0  0  0  0  0
   19.9747  -13.5942    6.9870 C   0  0  0  0  0  0  0  0  0  0  0  0
   17.8466  -13.4674    5.6822 C   0  0  2  0  0  0  0  0  0  0  0  0
   16.6870  -12.6648    5.4592 N   0  0  0  0  0  0  0  0  0  0  0  0
   17.5227  -14.8188    6.1971 C   0  0  0  0  0  0  0  0  0  0  0  0
   17.1279  -14.8608    7.4175 O   0  0  0  0  0  0  0  0  0  0  0  0
   17.6202  -16.0145    5.4493 N   0  0  0  0  0  0  0  0  0  0  0  0
   17.3646  -17.2952    6.0716 C   0  0  1  0  0  0  0  0  0  0  0  0
   17.0424  -18.3717    5.1212 C   0  0  0  0  0  0  0  0  0  0  0  0
   16.6628  -19.7015    5.6305 C   0  0  0  0  0  0  0  0  0  0  0  0
   16.2724  -20.7327    4.6936 C   0  0  0  0  0  0  0  0  0  0  0  0
   16.2980  -20.5396    3.4598 O   0  0  0  0  0  0  0  0  0  0  0  0
   18.3611  -17.6420    7.0928 C   0  0  0  0  0  0  0  0  0  0  0  0
   19.5423  -17.2250    7.0342 O   0  0  0  0  0  0  0  0  0  0  0  0
   15.8504  -21.9826    5.1213 O   0  0  0  0  0  0  0  0  0  0  0  0
   17.9993  -18.4670    8.1830 N   0  0  0  0  0  0  0  0  0  0  0  0
   18.9482  -18.7098    9.2092 C   0  0  1  0  0  0  0  0  0  0  0  0
   19.2677  -17.4927   10.0140 C   0  0  0  0  0  0  0  0  0  0  0  0
   20.1130  -17.6331   11.2111 C   0  0  0  0  0  0  0  0  0  0  0  0
   20.3254  -16.4830   12.0831 C   0  0  0  0  0  0  0  0  0  0  0  0
   19.5019  -15.5630   12.1688 O   0  0  0  0  0  0  0  0  0  0  0  0
   18.5677  -19.8580   10.0839 C   0  0  0  0  0  0  0  0  0  0  0  0
   17.3582  -20.1686   10.1423 O   0  0  0  0  0  0  0  0  0  0  0  0
   21.4760  -16.3535   12.8748 O   0  0  0  0  0  0  0  0  0  0  0  0
   19.4788  -20.5826   10.8211 O   0  0  0  0  0  0  0  0  0  0  0  0
  2  1  1  0
  3  2  1  0
  3  4  1  6
  5  6  1  1
  5  3  1  0
  7  5  1  0
  8  7  2  0
  9  7  1  0
 10  9  1  0
 10 11  1  6
 11 12  1  0
 12 13  1  0
 13 14  2  0
 13 17  1  0
 15 18  1  0
 15 10  1  0
 16 15  2  0
 19 24  1  0
 19 18  1  0
 19 20  1  1
 21 20  1  0
 21 22  1  0
 22 23  2  0
 22 26  1  0
 24 27  1  0
 25 24  2  0
M  END
$$$$
