IEE.pdb
     RDKit          3D

 27 26  0  0  1  0  0  0  0  0999 V2000
   11.2307  -11.4322  -12.8976 C   0  0  0  0  0  0  0  0  0  0  0  0
   12.3814  -12.2093  -13.5058 C   0  0  0  0  0  0  0  0  0  0  0  0
   13.6132  -11.3365  -13.4109 C   0  0  2  0  0  0  0  0  0  0  0  0
   13.2836  -10.0007  -14.0485 C   0  0  0  0  0  0  0  0  0  0  0  0
   14.8079  -11.9814  -14.0780 C   0  0  2  0  0  0  0  0  0  0  0  0
   15.1949  -13.1292  -13.3223 N   0  0  0  0  0  0  0  0  0  0  0  0
   15.8945  -10.9818  -14.2065 C   0  0  0  0  0  0  0  0  0  0  0  0
   16.5321  -10.7224  -13.1235 O   0  0  0  0  0  0  0  0  0  0  0  0
   16.2528  -10.3258  -15.4064 N   0  0  0  0  0  0  0  0  0  0  0  0
   17.3862   -9.4276  -15.4444 C   0  0  1  0  0  0  0  0  0  0  0  0
   18.5266   -9.9316  -16.2263 C   0  0  0  0  0  0  0  0  0  0  0  0
   19.4941  -10.8460  -15.5940 C   0  0  0  0  0  0  0  0  0  0  0  0
   20.5429  -11.4331  -16.3995 C   0  0  0  0  0  0  0  0  0  0  0  0
   20.6100  -11.2362  -17.6312 O   0  0  0  0  0  0  0  0  0  0  0  0
   17.0033   -8.0378  -15.7242 C   0  0  0  0  0  0  0  0  0  0  0  0
   16.0154   -7.7548  -16.4429 O   0  0  0  0  0  0  0  0  0  0  0  0
   21.5216  -12.2425  -15.8424 O   0  0  0  0  0  0  0  0  0  0  0  0
   17.7552   -6.9728  -15.1762 N   0  0  0  0  0  0  0  0  0  0  0  0
   17.4638   -5.6440  -15.5783 C   0  0  1  0  0  0  0  0  0  0  0  0
   17.1748   -4.7328  -14.4306 C   0  0  0  0  0  0  0  0  0  0  0  0
   16.9423   -3.3038  -14.6976 C   0  0  0  0  0  0  0  0  0  0  0  0
   16.6955   -2.3928  -13.5853 C   0  0  0  0  0  0  0  0  0  0  0  0
   15.6164   -2.3736  -12.9793 O   0  0  0  0  0  0  0  0  0  0  0  0
   18.5094   -5.0735  -16.4781 C   0  0  0  0  0  0  0  0  0  0  0  0
   18.1608   -4.1832  -17.2834 O   0  0  0  0  0  0  0  0  0  0  0  0
   17.6673   -1.4854  -13.1386 O   0  0  0  0  0  0  0  0  0  0  0  0
   19.8261   -5.4792  -16.4612 O   0  0  0  0  0  0  0  0  0  0  0  0
  2  1  1  0
  3  2  1  0
  3  4  1  6
  5  6  1  1
  5  3  1  0
  7  5  1  0
  8  7  2  0
  9  7  1  0
 10  9  1  0
 10 11  1  6
 11 12  1  0
 12 13  1  0
 13 14  2  0
 13 17  1  0
 15 18  1  0
 15 10  1  0
 16 15  2  0
 19 24  1  0
 19 18  1  0
 19 20  1  1
 21 20  1  0
 21 22  1  0
 22 23  2  0
 22 26  1  0
 24 27  1  0
 25 24  2  0
M  END
$$$$
