IEE.pdb
     RDKit          3D

 27 26  0  0  1  0  0  0  0  0999 V2000
   18.1685  -12.2566  -17.3372 C   0  0  0  0  0  0  0  0  0  0  0  0
   17.4926  -12.2964  -15.9810 C   0  0  0  0  0  0  0  0  0  0  0  0
   17.5245  -10.8915  -15.4214 C   0  0  2  0  0  0  0  0  0  0  0  0
   18.9780  -10.4829  -15.2800 C   0  0  0  0  0  0  0  0  0  0  0  0
   16.7992  -10.8007  -14.0971 C   0  0  2  0  0  0  0  0  0  0  0  0
   15.4486  -11.2258  -14.2801 N   0  0  0  0  0  0  0  0  0  0  0  0
   16.9031   -9.4168  -13.5768 C   0  0  0  0  0  0  0  0  0  0  0  0
   16.3305   -8.5177  -14.2913 O   0  0  0  0  0  0  0  0  0  0  0  0
   17.5700   -9.0479  -12.3862 N   0  0  0  0  0  0  0  0  0  0  0  0
   17.6783   -7.6570  -12.0035 C   0  0  1  0  0  0  0  0  0  0  0  0
   17.1189   -7.3534  -10.6765 C   0  0  0  0  0  0  0  0  0  0  0  0
   17.1798   -5.9744  -10.1602 C   0  0  0  0  0  0  0  0  0  0  0  0
   16.5506   -5.6647   -8.8945 C   0  0  0  0  0  0  0  0  0  0  0  0
   16.0033   -6.5486   -8.2022 O   0  0  0  0  0  0  0  0  0  0  0  0
   19.0106   -7.0965  -12.2622 C   0  0  0  0  0  0  0  0  0  0  0  0
   20.0587   -7.7416  -12.0219 O   0  0  0  0  0  0  0  0  0  0  0  0
   16.5247   -4.3725   -8.3918 O   0  0  0  0  0  0  0  0  0  0  0  0
   19.1383   -5.7944  -12.7992 N   0  0  0  0  0  0  0  0  0  0  0  0
   20.3804   -5.3970  -13.3574 C   0  0  1  0  0  0  0  0  0  0  0  0
   20.8588   -6.3117  -14.4370 C   0  0  0  0  0  0  0  0  0  0  0  0
   22.0832   -5.9614  -15.1755 C   0  0  0  0  0  0  0  0  0  0  0  0
   22.5108   -6.7897  -16.2977 C   0  0  0  0  0  0  0  0  0  0  0  0
   21.9397   -7.8490  -16.5871 O   0  0  0  0  0  0  0  0  0  0  0  0
   20.3787   -3.9741  -13.8087 C   0  0  0  0  0  0  0  0  0  0  0  0
   19.2715   -3.4238  -13.9928 O   0  0  0  0  0  0  0  0  0  0  0  0
   23.5947   -6.4334  -17.1135 O   0  0  0  0  0  0  0  0  0  0  0  0
   21.5292   -3.2484  -14.0289 O   0  0  0  0  0  0  0  0  0  0  0  0
  2  1  1  0
  3  2  1  0
  3  4  1  1
  5  6  1  6
  5  3  1  0
  7  5  1  0
  8  7  2  0
  9  7  1  0
 10  9  1  0
 10 11  1  1
 11 12  1  0
 12 13  1  0
 13 14  2  0
 13 17  1  0
 15 18  1  0
 15 10  1  0
 16 15  2  0
 19 24  1  0
 19 18  1  0
 19 20  1  6
 21 20  1  0
 21 22  1  0
 22 23  2  0
 22 26  1  0
 24 27  1  0
 25 24  2  0
M  END
$$$$
