WFK.pdb
     RDKit          3D

 35 37  0  0  1  0  0  0  0  0999 V2000
   26.4294  -21.1476  -13.4352 N   0  0  0  0  0  0  0  0  0  0  0  0
   25.4659  -20.8073  -12.4240 C   0  0  1  0  0  0  0  0  0  0  0  0
   24.1002  -21.3873  -12.6848 C   0  0  0  0  0  0  0  0  0  0  0  0
   23.5111  -20.8120  -13.9025 C   0  0  0  0  0  0  0  0  0  0  0  0
   23.7565  -21.2299  -15.2000 C   0  0  0  0  0  0  0  0  0  0  0  0
   23.0317  -20.5110  -16.0591 N   0  0  0  0  0  0  0  0  0  0  0  0
   22.3235  -19.6367  -15.3370 C   0  0  0  0  0  0  0  0  0  0  0  0
   21.4286  -18.6645  -15.7136 C   0  0  0  0  0  0  0  0  0  0  0  0
   20.8019  -17.8488  -14.7935 C   0  0  0  0  0  0  0  0  0  0  0  0
   21.0790  -18.0096  -13.4527 C   0  0  0  0  0  0  0  0  0  0  0  0
   21.9851  -18.9933  -13.0630 C   0  0  0  0  0  0  0  0  0  0  0  0
   22.5959  -19.7925  -13.9797 C   0  0  0  0  0  0  0  0  0  0  0  0
   25.9775  -21.1850  -11.0788 C   0  0  0  0  0  0  0  0  0  0  0  0
   26.2986  -22.3808  -10.8261 O   0  0  0  0  0  0  0  0  0  0  0  0
   26.1188  -20.2320  -10.0547 N   0  0  0  0  0  0  0  0  0  0  0  0
   26.5564  -20.6184   -8.6838 C   0  0  1  0  0  0  0  0  0  0  0  0
   27.5353  -19.5760   -8.2936 C   0  0  0  0  0  0  0  0  0  0  0  0
   28.0728  -19.6304   -6.9296 C   0  0  0  0  0  0  0  0  0  0  0  0
   28.9376  -20.6482   -6.5078 C   0  0  0  0  0  0  0  0  0  0  0  0
   29.4698  -20.6930   -5.2378 C   0  0  0  0  0  0  0  0  0  0  0  0
   29.1519  -19.7032   -4.3232 C   0  0  0  0  0  0  0  0  0  0  0  0
   28.3025  -18.6876   -4.7092 C   0  0  0  0  0  0  0  0  0  0  0  0
   27.7923  -18.6768   -5.9825 C   0  0  0  0  0  0  0  0  0  0  0  0
   25.3190  -20.6623   -7.8925 C   0  0  0  0  0  0  0  0  0  0  0  0
   24.4634  -19.7097   -7.9525 O   0  0  0  0  0  0  0  0  0  0  0  0
   24.9581  -21.7220   -7.0241 N   0  0  0  0  0  0  0  0  0  0  0  0
   23.7512  -21.6750   -6.1944 C   0  0  1  0  0  0  0  0  0  0  0  0
   22.9259  -22.9299   -6.4314 C   0  0  0  0  0  0  0  0  0  0  0  0
   21.6350  -22.9669   -5.6900 C   0  0  0  0  0  0  0  0  0  0  0  0
   20.9222  -24.2694   -6.1004 C   0  0  0  0  0  0  0  0  0  0  0  0
   19.6035  -24.3916   -5.3668 C   0  0  0  0  0  0  0  0  0  0  0  0
   18.8471  -25.5480   -5.7332 N   0  0  0  0  0  0  0  0  0  0  0  0
   23.9912  -21.3662   -4.7944 C   0  0  0  0  0  0  0  0  0  0  0  0
   23.0022  -20.8569   -3.9432 O   0  0  0  0  0  0  0  0  0  0  0  0
   25.1138  -21.5284   -4.2149 O   0  0  0  0  0  0  0  0  0  0  0  0
  2  1  1  6
  3  2  1  0
  4  3  1  0
  4  5  2  0
  6  5  1  0
  7  6  1  0
  8  7  2  0
  9  8  1  0
 10  9  2  0
 10 11  1  0
 11 12  2  0
 12  7  1  0
 12  4  1  0
 13 14  2  0
 13  2  1  0
 15 13  1  0
 16 17  1  1
 16 15  1  0
 18 17  1  0
 18 23  1  0
 19 18  2  0
 20 19  1  0
 20 21  2  0
 21 22  1  0
 22 23  2  0
 24 16  1  0
 25 24  2  0
 26 24  1  0
 27 26  1  0
 28 29  1  0
 27 28  1  1
 30 29  1  0
 31 30  1  0
 32 31  1  0
 33 34  1  0
 33 27  1  0
 35 33  2  0
M  END
$$$$
