WFK.pdb
     RDKit          3D

 35 37  0  0  1  0  0  0  0  0999 V2000
   29.0839  -20.8886  -14.0568 N   0  0  0  0  0  0  0  0  0  0  0  0
   27.8750  -20.1750  -13.7468 C   0  0  1  0  0  0  0  0  0  0  0  0
   26.9946  -19.9470  -14.9478 C   0  0  0  0  0  0  0  0  0  0  0  0
   27.5669  -18.9188  -15.8287 C   0  0  0  0  0  0  0  0  0  0  0  0
   28.1506  -19.1406  -17.0649 C   0  0  0  0  0  0  0  0  0  0  0  0
   28.5339  -17.9830  -17.6064 N   0  0  0  0  0  0  0  0  0  0  0  0
   28.2072  -17.0190  -16.7397 C   0  0  0  0  0  0  0  0  0  0  0  0
   28.3784  -15.6567  -16.7922 C   0  0  0  0  0  0  0  0  0  0  0  0
   27.9693  -14.8263  -15.7685 C   0  0  0  0  0  0  0  0  0  0  0  0
   27.3697  -15.3755  -14.6554 C   0  0  0  0  0  0  0  0  0  0  0  0
   27.1922  -16.7559  -14.5948 C   0  0  0  0  0  0  0  0  0  0  0  0
   27.5988  -17.5643  -15.6113 C   0  0  0  0  0  0  0  0  0  0  0  0
   27.1418  -20.8593  -12.6476 C   0  0  0  0  0  0  0  0  0  0  0  0
   27.1159  -22.1209  -12.5808 O   0  0  0  0  0  0  0  0  0  0  0  0
   26.4602  -20.1306  -11.6570 N   0  0  0  0  0  0  0  0  0  0  0  0
   25.3994  -20.7565  -10.8185 C   0  0  1  0  0  0  0  0  0  0  0  0
   25.5329  -20.1042   -9.4942 C   0  0  0  0  0  0  0  0  0  0  0  0
   26.8027  -20.2778   -8.7804 C   0  0  0  0  0  0  0  0  0  0  0  0
   27.7763  -21.1931   -9.2001 C   0  0  0  0  0  0  0  0  0  0  0  0
   28.9833  -21.3438   -8.5533 C   0  0  0  0  0  0  0  0  0  0  0  0
   29.2691  -20.5705   -7.4407 C   0  0  0  0  0  0  0  0  0  0  0  0
   28.3299  -19.6603   -7.0032 C   0  0  0  0  0  0  0  0  0  0  0  0
   27.1391  -19.5386   -7.6733 C   0  0  0  0  0  0  0  0  0  0  0  0
   24.1461  -20.4920  -11.5385 C   0  0  0  0  0  0  0  0  0  0  0  0
   24.1287  -19.7462  -12.5809 O   0  0  0  0  0  0  0  0  0  0  0  0
   22.8828  -21.0188  -11.1723 N   0  0  0  0  0  0  0  0  0  0  0  0
   21.7629  -21.0886  -12.1148 C   0  0  1  0  0  0  0  0  0  0  0  0
   22.1588  -21.9446  -13.3074 C   0  0  0  0  0  0  0  0  0  0  0  0
   21.7943  -23.3828  -13.1811 C   0  0  0  0  0  0  0  0  0  0  0  0
   22.3379  -24.0926  -14.4356 C   0  0  0  0  0  0  0  0  0  0  0  0
   22.0588  -25.5783  -14.3522 C   0  0  0  0  0  0  0  0  0  0  0  0
   22.9400  -26.3741  -15.1484 N   0  0  0  0  0  0  0  0  0  0  0  0
   20.4878  -21.4438  -11.5139 C   0  0  0  0  0  0  0  0  0  0  0  0
   19.2542  -21.1535  -12.1103 O   0  0  0  0  0  0  0  0  0  0  0  0
   20.3735  -22.0474  -10.3981 O   0  0  0  0  0  0  0  0  0  0  0  0
  2  1  1  6
  3  2  1  0
  4  3  1  0
  4  5  2  0
  6  5  1  0
  7  6  1  0
  8  7  2  0
  9  8  1  0
 10  9  2  0
 10 11  1  0
 11 12  2  0
 12  7  1  0
 12  4  1  0
 13 14  2  0
 13  2  1  0
 15 13  1  0
 16 17  1  1
 16 15  1  0
 18 17  1  0
 18 23  1  0
 19 18  2  0
 20 19  1  0
 20 21  2  0
 21 22  1  0
 22 23  2  0
 24 16  1  0
 25 24  2  0
 26 24  1  0
 27 26  1  0
 28 29  1  0
 27 28  1  6
 30 29  1  0
 31 30  1  0
 32 31  1  0
 33 34  1  0
 33 27  1  0
 35 33  2  0
M  END
$$$$
