WFK.pdb
     RDKit          3D

 35 37  0  0  1  0  0  0  0  0999 V2000
   29.0395  -20.7941  -14.3879 N   0  0  0  0  0  0  0  0  0  0  0  0
   27.8346  -20.0665  -14.0953 C   0  0  1  0  0  0  0  0  0  0  0  0
   27.0898  -19.6289  -15.3296 C   0  0  0  0  0  0  0  0  0  0  0  0
   27.7648  -18.4926  -15.9728 C   0  0  0  0  0  0  0  0  0  0  0  0
   28.5579  -18.5540  -17.1066 C   0  0  0  0  0  0  0  0  0  0  0  0
   28.9843  -17.3333  -17.4357 N   0  0  0  0  0  0  0  0  0  0  0  0
   28.4796  -16.4864  -16.5329 C   0  0  0  0  0  0  0  0  0  0  0  0
   28.6065  -15.1251  -16.3966 C   0  0  0  0  0  0  0  0  0  0  0  0
   27.9989  -14.4311  -15.3700 C   0  0  0  0  0  0  0  0  0  0  0  0
   27.2397  -15.1204  -14.4488 C   0  0  0  0  0  0  0  0  0  0  0  0
   27.1059  -16.5008  -14.5802 C   0  0  0  0  0  0  0  0  0  0  0  0
   27.7090  -17.1739  -15.5977 C   0  0  0  0  0  0  0  0  0  0  0  0
   26.9677  -20.8554  -13.1789 C   0  0  0  0  0  0  0  0  0  0  0  0
   26.8728  -22.1092  -13.3050 O   0  0  0  0  0  0  0  0  0  0  0  0
   26.2325  -20.2367  -12.1524 N   0  0  0  0  0  0  0  0  0  0  0  0
   25.3264  -21.0159  -11.2624 C   0  0  1  0  0  0  0  0  0  0  0  0
   25.4370  -20.3541   -9.9406 C   0  0  0  0  0  0  0  0  0  0  0  0
   26.6633  -20.5857   -9.1695 C   0  0  0  0  0  0  0  0  0  0  0  0
   26.9004  -19.9613   -7.9384 C   0  0  0  0  0  0  0  0  0  0  0  0
   28.0358  -20.1933   -7.1933 C   0  0  0  0  0  0  0  0  0  0  0  0
   28.9962  -21.0753   -7.6591 C   0  0  0  0  0  0  0  0  0  0  0  0
   28.7910  -21.7056   -8.8686 C   0  0  0  0  0  0  0  0  0  0  0  0
   27.6479  -21.4491   -9.5821 C   0  0  0  0  0  0  0  0  0  0  0  0
   24.0086  -20.9395  -11.9078 C   0  0  0  0  0  0  0  0  0  0  0  0
   23.4509  -19.8084  -12.1376 O   0  0  0  0  0  0  0  0  0  0  0  0
   23.2549  -22.0624  -12.3305 N   0  0  0  0  0  0  0  0  0  0  0  0
   21.8716  -21.9429  -12.7991 C   0  0  1  0  0  0  0  0  0  0  0  0
   21.3729  -23.3051  -13.2546 C   0  0  0  0  0  0  0  0  0  0  0  0
   19.9662  -23.3139  -13.7430 C   0  0  0  0  0  0  0  0  0  0  0  0
   19.6018  -24.7835  -14.0266 C   0  0  0  0  0  0  0  0  0  0  0  0
   18.1866  -24.8734  -14.5570 C   0  0  0  0  0  0  0  0  0  0  0  0
   17.1963  -24.4178  -13.6322 N   0  0  0  0  0  0  0  0  0  0  0  0
   20.9807  -21.2493  -11.8836 C   0  0  0  0  0  0  0  0  0  0  0  0
   19.9413  -20.4145  -12.3135 O   0  0  0  0  0  0  0  0  0  0  0  0
   21.0605  -21.3349  -10.6153 O   0  0  0  0  0  0  0  0  0  0  0  0
  2  1  1  6
  3  2  1  0
  4  3  1  0
  4  5  2  0
  6  5  1  0
  7  6  1  0
  8  7  2  0
  9  8  1  0
 10  9  2  0
 10 11  1  0
 11 12  2  0
 12  7  1  0
 12  4  1  0
 13 14  2  0
 13  2  1  0
 15 13  1  0
 16 17  1  1
 16 15  1  0
 18 17  1  0
 18 23  1  0
 19 18  2  0
 20 19  1  0
 20 21  2  0
 21 22  1  0
 22 23  2  0
 24 16  1  0
 25 24  2  0
 26 24  1  0
 27 26  1  0
 28 29  1  0
 27 28  1  1
 30 29  1  0
 31 30  1  0
 32 31  1  0
 33 34  1  0
 33 27  1  0
 35 33  2  0
M  END
$$$$
