WFK.pdb
     RDKit          3D

 35 37  0  0  1  0  0  0  0  0999 V2000
   17.9075  -10.4684  -15.7174 N   0  0  0  0  0  0  0  0  0  0  0  0
   17.3605   -9.2025  -15.3113 C   0  0  1  0  0  0  0  0  0  0  0  0
   15.8766   -9.0926  -15.5478 C   0  0  0  0  0  0  0  0  0  0  0  0
   15.5699   -9.1507  -16.9842 C   0  0  0  0  0  0  0  0  0  0  0  0
   15.0726  -10.2492  -17.6654 C   0  0  0  0  0  0  0  0  0  0  0  0
   14.8793   -9.9444  -18.9500 N   0  0  0  0  0  0  0  0  0  0  0  0
   15.2441   -8.6680  -19.1079 C   0  0  0  0  0  0  0  0  0  0  0  0
   15.2546   -7.8590  -20.2184 C   0  0  0  0  0  0  0  0  0  0  0  0
   15.6849   -6.5487  -20.1670 C   0  0  0  0  0  0  0  0  0  0  0  0
   16.1194   -6.0297  -18.9661 C   0  0  0  0  0  0  0  0  0  0  0  0
   16.1115   -6.8436  -17.8355 C   0  0  0  0  0  0  0  0  0  0  0  0
   15.6837   -8.1340  -17.8986 C   0  0  0  0  0  0  0  0  0  0  0  0
   17.7153   -8.9202  -13.8942 C   0  0  0  0  0  0  0  0  0  0  0  0
   17.6579   -9.8341  -13.0233 O   0  0  0  0  0  0  0  0  0  0  0  0
   18.1221   -7.6389  -13.4821 N   0  0  0  0  0  0  0  0  0  0  0  0
   18.6030   -7.3808  -12.0957 C   0  0  1  0  0  0  0  0  0  0  0  0
   19.9868   -6.8772  -12.2651 C   0  0  0  0  0  0  0  0  0  0  0  0
   21.0039   -7.8341  -12.7146 C   0  0  0  0  0  0  0  0  0  0  0  0
   21.5199   -7.8190  -14.0166 C   0  0  0  0  0  0  0  0  0  0  0  0
   22.4951   -8.6950  -14.4403 C   0  0  0  0  0  0  0  0  0  0  0  0
   23.0017   -9.6380  -13.5619 C   0  0  0  0  0  0  0  0  0  0  0  0
   22.5132   -9.6777  -12.2728 C   0  0  0  0  0  0  0  0  0  0  0  0
   21.5419   -8.7889  -11.8875 C   0  0  0  0  0  0  0  0  0  0  0  0
   17.6384   -6.4247  -11.5350 C   0  0  0  0  0  0  0  0  0  0  0  0
   17.1995   -5.4437  -12.2337 O   0  0  0  0  0  0  0  0  0  0  0  0
   17.1121   -6.4917  -10.2212 N   0  0  0  0  0  0  0  0  0  0  0  0
   16.1060   -5.5443   -9.7338 C   0  0  1  0  0  0  0  0  0  0  0  0
   15.1588   -6.2580   -8.7824 C   0  0  0  0  0  0  0  0  0  0  0  0
   14.4664   -7.4370   -9.3723 C   0  0  0  0  0  0  0  0  0  0  0  0
   13.4911   -7.9629   -8.3022 C   0  0  0  0  0  0  0  0  0  0  0  0
   12.7897   -9.2062   -8.8066 C   0  0  0  0  0  0  0  0  0  0  0  0
   11.8251   -9.7327   -7.8924 N   0  0  0  0  0  0  0  0  0  0  0  0
   16.6481   -4.2963   -9.2222 C   0  0  0  0  0  0  0  0  0  0  0  0
   15.8739   -3.1428   -9.0431 O   0  0  0  0  0  0  0  0  0  0  0  0
   17.8676   -4.1358   -8.8914 O   0  0  0  0  0  0  0  0  0  0  0  0
  2  1  1  1
  3  2  1  0
  4  3  1  0
  4  5  2  0
  6  5  1  0
  7  6  1  0
  8  7  2  0
  9  8  1  0
 10  9  2  0
 10 11  1  0
 11 12  2  0
 12  7  1  0
 12  4  1  0
 13 14  2  0
 13  2  1  0
 15 13  1  0
 16 17  1  6
 16 15  1  0
 18 17  1  0
 18 23  1  0
 19 18  2  0
 20 19  1  0
 20 21  2  0
 21 22  1  0
 22 23  2  0
 24 16  1  0
 25 24  2  0
 26 24  1  0
 27 26  1  0
 28 29  1  0
 27 28  1  1
 30 29  1  0
 31 30  1  0
 32 31  1  0
 33 34  1  0
 33 27  1  0
 35 33  2  0
M  END
$$$$
