WFK.pdb
     RDKit          3D

 35 37  0  0  1  0  0  0  0  0999 V2000
   27.4904  -21.8173  -17.9036 N   0  0  0  0  0  0  0  0  0  0  0  0
   27.0463  -20.7370  -17.0656 C   0  0  1  0  0  0  0  0  0  0  0  0
   26.1483  -19.7608  -17.7801 C   0  0  0  0  0  0  0  0  0  0  0  0
   26.9006  -18.9973  -18.7860 C   0  0  0  0  0  0  0  0  0  0  0  0
   26.6871  -19.0243  -20.1541 C   0  0  0  0  0  0  0  0  0  0  0  0
   27.5258  -18.1868  -20.7668 N   0  0  0  0  0  0  0  0  0  0  0  0
   28.2766  -17.6208  -19.8163 C   0  0  0  0  0  0  0  0  0  0  0  0
   29.2912  -16.6975  -19.8926 C   0  0  0  0  0  0  0  0  0  0  0  0
   29.9541  -16.2422  -18.7709 C   0  0  0  0  0  0  0  0  0  0  0  0
   29.5912  -16.7259  -17.5322 C   0  0  0  0  0  0  0  0  0  0  0  0
   28.5632  -17.6621  -17.4466 C   0  0  0  0  0  0  0  0  0  0  0  0
   27.9162  -18.1026  -18.5598 C   0  0  0  0  0  0  0  0  0  0  0  0
   26.4085  -21.2719  -15.8324 C   0  0  0  0  0  0  0  0  0  0  0  0
   25.7854  -22.3711  -15.8563 O   0  0  0  0  0  0  0  0  0  0  0  0
   26.4777  -20.5777  -14.6116 N   0  0  0  0  0  0  0  0  0  0  0  0
   25.8590  -21.1197  -13.3692 C   0  0  1  0  0  0  0  0  0  0  0  0
   26.5994  -20.4658  -12.2640 C   0  0  0  0  0  0  0  0  0  0  0  0
   26.0459  -20.5933  -10.9114 C   0  0  0  0  0  0  0  0  0  0  0  0
   25.0474  -19.7375  -10.4294 C   0  0  0  0  0  0  0  0  0  0  0  0
   24.5014  -19.8663   -9.1711 C   0  0  0  0  0  0  0  0  0  0  0  0
   24.9409  -20.8748   -8.3301 C   0  0  0  0  0  0  0  0  0  0  0  0
   25.9235  -21.7334   -8.7767 C   0  0  0  0  0  0  0  0  0  0  0  0
   26.4432  -21.5737  -10.0361 C   0  0  0  0  0  0  0  0  0  0  0  0
   24.4348  -20.7748  -13.4771 C   0  0  0  0  0  0  0  0  0  0  0  0
   24.0652  -19.6194  -13.8911 O   0  0  0  0  0  0  0  0  0  0  0  0
   23.3694  -21.6513  -13.1541 N   0  0  0  0  0  0  0  0  0  0  0  0
   21.9662  -21.2354  -13.2285 C   0  0  1  0  0  0  0  0  0  0  0  0
   21.1496  -22.3298  -13.8973 C   0  0  0  0  0  0  0  0  0  0  0  0
   19.7100  -21.9974  -14.0831 C   0  0  0  0  0  0  0  0  0  0  0  0
   19.0658  -23.1945  -14.8076 C   0  0  0  0  0  0  0  0  0  0  0  0
   17.6074  -22.9040  -15.0924 C   0  0  0  0  0  0  0  0  0  0  0  0
   16.9456  -23.9429  -15.8180 N   0  0  0  0  0  0  0  0  0  0  0  0
   21.4122  -20.7493  -11.9756 C   0  0  0  0  0  0  0  0  0  0  0  0
   20.5751  -19.6293  -11.8932 O   0  0  0  0  0  0  0  0  0  0  0  0
   21.6337  -21.2917  -10.8447 O   0  0  0  0  0  0  0  0  0  0  0  0
  2  1  1  6
  3  2  1  0
  4  3  1  0
  4  5  2  0
  6  5  1  0
  7  6  1  0
  8  7  2  0
  9  8  1  0
 10  9  2  0
 10 11  1  0
 11 12  2  0
 12  7  1  0
 12  4  1  0
 13 14  2  0
 13  2  1  0
 15 13  1  0
 16 17  1  1
 16 15  1  0
 18 17  1  0
 18 23  1  0
 19 18  2  0
 20 19  1  0
 20 21  2  0
 21 22  1  0
 22 23  2  0
 24 16  1  0
 25 24  2  0
 26 24  1  0
 27 26  1  0
 28 29  1  0
 27 28  1  1
 30 29  1  0
 31 30  1  0
 32 31  1  0
 33 34  1  0
 33 27  1  0
 35 33  2  0
M  END
$$$$
