WFK.pdb
     RDKit          3D

 35 37  0  0  1  0  0  0  0  0999 V2000
   26.6688  -21.3642  -16.2675 N   0  0  0  0  0  0  0  0  0  0  0  0
   25.7710  -20.6936  -15.3670 C   0  0  1  0  0  0  0  0  0  0  0  0
   24.3270  -20.7897  -15.7858 C   0  0  0  0  0  0  0  0  0  0  0  0
   24.0810  -20.0005  -17.0012 C   0  0  0  0  0  0  0  0  0  0  0  0
   24.0762  -20.4856  -18.2984 C   0  0  0  0  0  0  0  0  0  0  0  0
   23.7859  -19.5045  -19.1548 N   0  0  0  0  0  0  0  0  0  0  0  0
   23.6037  -18.3952  -18.4312 C   0  0  0  0  0  0  0  0  0  0  0  0
   23.2942  -17.1098  -18.8049 C   0  0  0  0  0  0  0  0  0  0  0  0
   23.1567  -16.0913  -17.8837 C   0  0  0  0  0  0  0  0  0  0  0  0
   23.3347  -16.3665  -16.5447 C   0  0  0  0  0  0  0  0  0  0  0  0
   23.6484  -17.6675  -16.1578 C   0  0  0  0  0  0  0  0  0  0  0  0
   23.7803  -18.6637  -17.0756 C   0  0  0  0  0  0  0  0  0  0  0  0
   25.9757  -21.1839  -13.9772 C   0  0  0  0  0  0  0  0  0  0  0  0
   26.1068  -22.4191  -13.7446 O   0  0  0  0  0  0  0  0  0  0  0  0
   26.0294  -20.2967  -12.8878 N   0  0  0  0  0  0  0  0  0  0  0  0
   26.2084  -20.7850  -11.4914 C   0  0  1  0  0  0  0  0  0  0  0  0
   27.1788  -19.8427  -10.8849 C   0  0  0  0  0  0  0  0  0  0  0  0
   27.4199  -19.9566   -9.4423 C   0  0  0  0  0  0  0  0  0  0  0  0
   28.3293  -20.8778   -8.9076 C   0  0  0  0  0  0  0  0  0  0  0  0
   28.5835  -20.9735   -7.5569 C   0  0  0  0  0  0  0  0  0  0  0  0
   27.9258  -20.1359   -6.6719 C   0  0  0  0  0  0  0  0  0  0  0  0
   27.0241  -19.2182   -7.1685 C   0  0  0  0  0  0  0  0  0  0  0  0
   26.7973  -19.1525   -8.5198 C   0  0  0  0  0  0  0  0  0  0  0  0
   24.8578  -20.7729  -10.9128 C   0  0  0  0  0  0  0  0  0  0  0  0
   24.0589  -19.7926  -11.1225 O   0  0  0  0  0  0  0  0  0  0  0  0
   24.3215  -21.8047  -10.1034 N   0  0  0  0  0  0  0  0  0  0  0  0
   22.9986  -21.7016   -9.4817 C   0  0  1  0  0  0  0  0  0  0  0  0
   23.1535  -21.6473   -7.9701 C   0  0  0  0  0  0  0  0  0  0  0  0
   21.8745  -21.4807   -7.2257 C   0  0  0  0  0  0  0  0  0  0  0  0
   21.3595  -22.8959   -6.9017 C   0  0  0  0  0  0  0  0  0  0  0  0
   19.9673  -22.8182   -6.3120 C   0  0  0  0  0  0  0  0  0  0  0  0
   19.4096  -24.0933   -5.9853 N   0  0  0  0  0  0  0  0  0  0  0  0
   22.1478  -20.6629  -10.0388 C   0  0  0  0  0  0  0  0  0  0  0  0
   21.0269  -20.9369  -10.8328 O   0  0  0  0  0  0  0  0  0  0  0  0
   22.3398  -19.4168   -9.8586 O   0  0  0  0  0  0  0  0  0  0  0  0
  2  1  1  6
  3  2  1  0
  4  3  1  0
  4  5  2  0
  6  5  1  0
  7  6  1  0
  8  7  2  0
  9  8  1  0
 10  9  2  0
 10 11  1  0
 11 12  2  0
 12  7  1  0
 12  4  1  0
 13 14  2  0
 13  2  1  0
 15 13  1  0
 16 17  1  1
 16 15  1  0
 18 17  1  0
 18 23  1  0
 19 18  2  0
 20 19  1  0
 20 21  2  0
 21 22  1  0
 22 23  2  0
 24 16  1  0
 25 24  2  0
 26 24  1  0
 27 26  1  0
 28 29  1  0
 27 28  1  1
 30 29  1  0
 31 30  1  0
 32 31  1  0
 33 34  1  0
 33 27  1  0
 35 33  2  0
M  END
$$$$
