WFK.pdb
     RDKit          3D

 35 37  0  0  1  0  0  0  0  0999 V2000
   27.2884  -22.0181  -17.6340 N   0  0  0  0  0  0  0  0  0  0  0  0
   26.7742  -20.8953  -16.8980 C   0  0  1  0  0  0  0  0  0  0  0  0
   25.8236  -20.0442  -17.6991 C   0  0  0  0  0  0  0  0  0  0  0  0
   26.4933  -19.4821  -18.8807 C   0  0  0  0  0  0  0  0  0  0  0  0
   26.5812  -20.0803  -20.1267 C   0  0  0  0  0  0  0  0  0  0  0  0
   27.2287  -19.2802  -20.9758 N   0  0  0  0  0  0  0  0  0  0  0  0
   27.5596  -18.1766  -20.2978 C   0  0  0  0  0  0  0  0  0  0  0  0
   28.2351  -17.0441  -20.6836 C   0  0  0  0  0  0  0  0  0  0  0  0
   28.4836  -16.0050  -19.8098 C   0  0  0  0  0  0  0  0  0  0  0  0
   28.0428  -16.1012  -18.5073 C   0  0  0  0  0  0  0  0  0  0  0  0
   27.3569  -17.2463  -18.1085 C   0  0  0  0  0  0  0  0  0  0  0  0
   27.1169  -18.2638  -18.9797 C   0  0  0  0  0  0  0  0  0  0  0  0
   26.1617  -21.3543  -15.6220 C   0  0  0  0  0  0  0  0  0  0  0  0
   25.4038  -22.3652  -15.6004 O   0  0  0  0  0  0  0  0  0  0  0  0
   26.4042  -20.6838  -14.4102 N   0  0  0  0  0  0  0  0  0  0  0  0
   25.7477  -21.1043  -13.1404 C   0  0  1  0  0  0  0  0  0  0  0  0
   26.6180  -20.5627  -12.0696 C   0  0  0  0  0  0  0  0  0  0  0  0
   26.1073  -20.6100  -10.6952 C   0  0  0  0  0  0  0  0  0  0  0  0
   26.3134  -21.7150   -9.8595 C   0  0  0  0  0  0  0  0  0  0  0  0
   25.8622  -21.7579   -8.5585 C   0  0  0  0  0  0  0  0  0  0  0  0
   25.1745  -20.6772   -8.0327 C   0  0  0  0  0  0  0  0  0  0  0  0
   24.9558  -19.5743   -8.8314 C   0  0  0  0  0  0  0  0  0  0  0  0
   25.4203  -19.5684  -10.1221 C   0  0  0  0  0  0  0  0  0  0  0  0
   24.3936  -20.5384  -13.2117 C   0  0  0  0  0  0  0  0  0  0  0  0
   24.2023  -19.3322  -13.6012 O   0  0  0  0  0  0  0  0  0  0  0  0
   23.2102  -21.2423  -12.8775 N   0  0  0  0  0  0  0  0  0  0  0  0
   21.9009  -20.5865  -12.8222 C   0  0  1  0  0  0  0  0  0  0  0  0
   21.0289  -21.1028  -13.9556 C   0  0  0  0  0  0  0  0  0  0  0  0
   19.6461  -20.5502  -13.9694 C   0  0  0  0  0  0  0  0  0  0  0  0
   18.8867  -21.2769  -15.0956 C   0  0  0  0  0  0  0  0  0  0  0  0
   17.4880  -20.7120  -15.2256 C   0  0  0  0  0  0  0  0  0  0  0  0
   16.9079  -20.3213  -13.9788 N   0  0  0  0  0  0  0  0  0  0  0  0
   21.2672  -20.6105  -11.5142 C   0  0  0  0  0  0  0  0  0  0  0  0
   20.5333  -19.5339  -11.0002 O   0  0  0  0  0  0  0  0  0  0  0  0
   21.3190  -21.6045  -10.7194 O   0  0  0  0  0  0  0  0  0  0  0  0
  2  1  1  6
  3  2  1  0
  4  3  1  0
  4  5  2  0
  6  5  1  0
  7  6  1  0
  8  7  2  0
  9  8  1  0
 10  9  2  0
 10 11  1  0
 11 12  2  0
 12  7  1  0
 12  4  1  0
 13 14  2  0
 13  2  1  0
 15 13  1  0
 16 17  1  1
 16 15  1  0
 18 17  1  0
 18 23  1  0
 19 18  2  0
 20 19  1  0
 20 21  2  0
 21 22  1  0
 22 23  2  0
 24 16  1  0
 25 24  2  0
 26 24  1  0
 27 26  1  0
 28 29  1  0
 27 28  1  6
 30 29  1  0
 31 30  1  0
 32 31  1  0
 33 34  1  0
 33 27  1  0
 35 33  2  0
M  END
$$$$
