WFK.pdb
     RDKit          3D

 35 37  0  0  1  0  0  0  0  0999 V2000
   27.8118  -21.0629   -8.9151 N   0  0  0  0  0  0  0  0  0  0  0  0
   26.3878  -21.2090   -8.7824 C   0  0  1  0  0  0  0  0  0  0  0  0
   25.8424  -20.5959   -7.5190 C   0  0  0  0  0  0  0  0  0  0  0  0
   26.8658  -19.7815   -6.8483 C   0  0  0  0  0  0  0  0  0  0  0  0
   27.2081  -18.4788   -7.1710 C   0  0  0  0  0  0  0  0  0  0  0  0
   28.1510  -18.0320   -6.3393 N   0  0  0  0  0  0  0  0  0  0  0  0
   28.4223  -19.0251   -5.4864 C   0  0  0  0  0  0  0  0  0  0  0  0
   29.3095  -19.1045   -4.4403 C   0  0  0  0  0  0  0  0  0  0  0  0
   29.4419  -20.2462   -3.6762 C   0  0  0  0  0  0  0  0  0  0  0  0
   28.6622  -21.3450   -3.9675 C   0  0  0  0  0  0  0  0  0  0  0  0
   27.7600  -21.2722   -5.0265 C   0  0  0  0  0  0  0  0  0  0  0  0
   27.6377  -20.1403   -5.7720 C   0  0  0  0  0  0  0  0  0  0  0  0
   25.7020  -20.6805   -9.9924 C   0  0  0  0  0  0  0  0  0  0  0  0
   25.4828  -19.4422  -10.1172 O   0  0  0  0  0  0  0  0  0  0  0  0
   25.2793  -21.5341  -11.0266 N   0  0  0  0  0  0  0  0  0  0  0  0
   24.7294  -20.9998  -12.3042 C   0  0  1  0  0  0  0  0  0  0  0  0
   25.6934  -21.4386  -13.3413 C   0  0  0  0  0  0  0  0  0  0  0  0
   26.9331  -20.6667  -13.4814 C   0  0  0  0  0  0  0  0  0  0  0  0
   28.1789  -21.1783  -13.0969 C   0  0  0  0  0  0  0  0  0  0  0  0
   29.3521  -20.4726  -13.2501 C   0  0  0  0  0  0  0  0  0  0  0  0
   29.3246  -19.2038  -13.8042 C   0  0  0  0  0  0  0  0  0  0  0  0
   28.1124  -18.6728  -14.1925 C   0  0  0  0  0  0  0  0  0  0  0  0
   26.9653  -19.4059  -14.0240 C   0  0  0  0  0  0  0  0  0  0  0  0
   23.3800  -21.5730  -12.4017 C   0  0  0  0  0  0  0  0  0  0  0  0
   23.1579  -22.7953  -12.0860 O   0  0  0  0  0  0  0  0  0  0  0  0
   22.2333  -20.8596  -12.8305 N   0  0  0  0  0  0  0  0  0  0  0  0
   20.9214  -21.4984  -12.9652 C   0  0  1  0  0  0  0  0  0  0  0  0
   19.8704  -20.6448  -12.2734 C   0  0  0  0  0  0  0  0  0  0  0  0
   18.4728  -21.1287  -12.4466 C   0  0  0  0  0  0  0  0  0  0  0  0
   18.0177  -21.6758  -11.0804 C   0  0  0  0  0  0  0  0  0  0  0  0
   16.6558  -22.3243  -11.2096 C   0  0  0  0  0  0  0  0  0  0  0  0
   16.2022  -22.9527  -10.0084 N   0  0  0  0  0  0  0  0  0  0  0  0
   20.5789  -21.8967  -14.3206 C   0  0  0  0  0  0  0  0  0  0  0  0
   19.8186  -23.0360  -14.6137 O   0  0  0  0  0  0  0  0  0  0  0  0
   20.9345  -21.2524  -15.3601 O   0  0  0  0  0  0  0  0  0  0  0  0
  2  1  1  6
  3  2  1  0
  4  3  1  0
  4  5  2  0
  6  5  1  0
  7  6  1  0
  8  7  2  0
  9  8  1  0
 10  9  2  0
 10 11  1  0
 11 12  2  0
 12  7  1  0
 12  4  1  0
 13 14  2  0
 13  2  1  0
 15 13  1  0
 16 17  1  6
 16 15  1  0
 18 17  1  0
 18 23  1  0
 19 18  2  0
 20 19  1  0
 20 21  2  0
 21 22  1  0
 22 23  2  0
 24 16  1  0
 25 24  2  0
 26 24  1  0
 27 26  1  0
 28 29  1  0
 27 28  1  6
 30 29  1  0
 31 30  1  0
 32 31  1  0
 33 34  1  0
 33 27  1  0
 35 33  2  0
M  END
$$$$
