ILP.pdb
     RDKit          3D

 24 24  0  0  1  0  0  0  0  0999 V2000
   19.2838  -21.9243  -17.0968 C   0  0  0  0  0  0  0  0  0  0  0  0
   19.5842  -21.7286  -15.6401 C   0  0  0  0  0  0  0  0  0  0  0  0
   20.9271  -21.0515  -15.4980 C   0  0  2  0  0  0  0  0  0  0  0  0
   21.9256  -21.9043  -16.2578 C   0  0  0  0  0  0  0  0  0  0  0  0
   21.3374  -20.8447  -14.0713 C   0  0  2  0  0  0  0  0  0  0  0  0
   20.2880  -20.0822  -13.4162 N   0  0  0  0  0  0  0  0  0  0  0  0
   22.6574  -20.1491  -13.9484 C   0  0  0  0  0  0  0  0  0  0  0  0
   22.8473  -19.0005  -14.3487 O   0  0  0  0  0  0  0  0  0  0  0  0
   25.8056  -21.6047   -9.7534 C   0  0  0  0  0  0  0  0  0  0  0  0
   25.0908  -20.8396  -10.8813 C   0  0  1  0  0  0  0  0  0  0  0  0
   25.4408  -19.3397  -10.6602 C   0  0  0  0  0  0  0  0  0  0  0  0
   25.7416  -21.2727  -12.1403 C   0  0  0  0  0  0  0  0  0  0  0  0
   25.1096  -20.6249  -13.4050 C   0  0  2  0  0  0  0  0  0  0  0  0
   23.7050  -20.8562  -13.3489 N   0  0  0  0  0  0  0  0  0  0  0  0
   25.7722  -21.0175  -14.6117 C   0  0  0  0  0  0  0  0  0  0  0  0
   25.2721  -21.9987  -15.2590 O   0  0  0  0  0  0  0  0  0  0  0  0
   26.9212  -20.4154  -15.1454 N   0  0  0  0  0  0  0  0  0  0  0  0
   27.8181  -19.5009  -14.3823 C   0  0  0  0  0  0  0  0  0  0  0  0
   27.8443  -18.3424  -15.3568 C   0  0  0  0  0  0  0  0  0  0  0  0
   28.0143  -19.0697  -16.6694 C   0  0  0  0  0  0  0  0  0  0  0  0
   27.5842  -20.4970  -16.4224 C   0  0  1  0  0  0  0  0  0  0  0  0
   28.8497  -21.3200  -16.3407 C   0  0  0  0  0  0  0  0  0  0  0  0
   29.3100  -21.7501  -15.2573 O   0  0  0  0  0  0  0  0  0  0  0  0
   29.5631  -21.6363  -17.4841 O   0  0  0  0  0  0  0  0  0  0  0  0
  1  2  1  0
  3  4  1  6
  3  2  1  0
  5  3  1  0
  5  6  1  1
  7  8  2  0
  7  5  1  0
 10 11  1  1
 10  9  1  0
 12 10  1  0
 13 14  1  0
 13 12  1  1
 14  7  1  0
 15 13  1  0
 16 15  2  0
 17 18  1  0
 17 15  1  0
 19 18  1  0
 20 21  1  0
 20 19  1  0
 21 17  1  0
 21 22  1  1
 22 24  1  0
 23 22  2  0
M  END
$$$$
