ILP.pdb
     RDKit          3D

 24 24  0  0  1  0  0  0  0  0999 V2000
   22.5909  -20.2695  -13.3579 C   0  0  0  0  0  0  0  0  0  0  0  0
   24.0682  -20.1421  -13.1304 C   0  0  0  0  0  0  0  0  0  0  0  0
   24.3936  -20.5914  -11.7253 C   0  0  2  0  0  0  0  0  0  0  0  0
   23.5247  -19.7671  -10.7941 C   0  0  0  0  0  0  0  0  0  0  0  0
   25.8489  -20.4707  -11.3877 C   0  0  2  0  0  0  0  0  0  0  0  0
   26.6038  -21.1071  -12.4539 N   0  0  0  0  0  0  0  0  0  0  0  0
   26.1831  -21.0795  -10.0615 C   0  0  0  0  0  0  0  0  0  0  0  0
   26.0125  -22.2729   -9.8119 O   0  0  0  0  0  0  0  0  0  0  0  0
   29.3710  -20.4103   -5.5320 C   0  0  0  0  0  0  0  0  0  0  0  0
   28.1589  -19.4803   -5.7166 C   0  0  1  0  0  0  0  0  0  0  0  0
   28.6288  -18.0761   -5.2385 C   0  0  0  0  0  0  0  0  0  0  0  0
   27.9261  -19.4035   -7.1781 C   0  0  0  0  0  0  0  0  0  0  0  0
   26.9173  -20.4709   -7.6896 C   0  0  2  0  0  0  0  0  0  0  0  0
   26.7110  -20.2348   -9.0794 N   0  0  0  0  0  0  0  0  0  0  0  0
   25.7425  -20.5497   -6.8756 C   0  0  0  0  0  0  0  0  0  0  0  0
   24.7783  -19.7633   -7.1652 O   0  0  0  0  0  0  0  0  0  0  0  0
   25.5583  -21.4182   -5.7896 N   0  0  0  0  0  0  0  0  0  0  0  0
   26.6252  -22.2968   -5.2303 C   0  0  0  0  0  0  0  0  0  0  0  0
   25.8758  -23.6121   -5.2604 C   0  0  0  0  0  0  0  0  0  0  0  0
   24.5260  -23.1905   -4.7304 C   0  0  0  0  0  0  0  0  0  0  0  0
   24.4471  -21.6927   -4.9138 C   0  0  1  0  0  0  0  0  0  0  0  0
   24.6517  -21.0803   -3.5468 C   0  0  0  0  0  0  0  0  0  0  0  0
   23.7241  -20.9582   -2.7129 O   0  0  0  0  0  0  0  0  0  0  0  0
   25.8979  -20.6215   -3.1562 O   0  0  0  0  0  0  0  0  0  0  0  0
  1  2  1  0
  3  4  1  1
  3  2  1  0
  5  3  1  0
  5  6  1  6
  7  8  2  0
  7  5  1  0
 10 11  1  6
 10  9  1  0
 12 10  1  0
 13 14  1  0
 13 12  1  1
 14  7  1  0
 15 13  1  0
 16 15  2  0
 17 18  1  0
 17 15  1  0
 19 18  1  0
 20 21  1  0
 20 19  1  0
 21 17  1  0
 21 22  1  1
 22 24  1  0
 23 22  2  0
M  END
$$$$
