ILP.pdb
     RDKit          3D

 24 24  0  0  1  0  0  0  0  0999 V2000
   20.6516  -18.0502  -15.1608 C   0  0  0  0  0  0  0  0  0  0  0  0
   21.6886  -19.1190  -15.3411 C   0  0  0  0  0  0  0  0  0  0  0  0
   22.2260  -19.5211  -13.9877 C   0  0  2  0  0  0  0  0  0  0  0  0
   22.8406  -18.2755  -13.3775 C   0  0  0  0  0  0  0  0  0  0  0  0
   23.2041  -20.6549  -14.0526 C   0  0  2  0  0  0  0  0  0  0  0  0
   22.5631  -21.7512  -14.7589 N   0  0  0  0  0  0  0  0  0  0  0  0
   23.6670  -21.0923  -12.6977 C   0  0  0  0  0  0  0  0  0  0  0  0
   22.8988  -21.5134  -11.8328 O   0  0  0  0  0  0  0  0  0  0  0  0
   29.4242  -21.3807  -11.5821 C   0  0  0  0  0  0  0  0  0  0  0  0
   28.0682  -21.0207  -12.2148 C   0  0  1  0  0  0  0  0  0  0  0  0
   28.2229  -21.3106  -13.7357 C   0  0  0  0  0  0  0  0  0  0  0  0
   27.0946  -21.9948  -11.6677 C   0  0  0  0  0  0  0  0  0  0  0  0
   25.7522  -21.3368  -11.2392 C   0  0  2  0  0  0  0  0  0  0  0  0
   25.0369  -21.0091  -12.4268 N   0  0  0  0  0  0  0  0  0  0  0  0
   25.9377  -20.2774  -10.2945 C   0  0  0  0  0  0  0  0  0  0  0  0
   25.9355  -19.0835  -10.7489 O   0  0  0  0  0  0  0  0  0  0  0  0
   26.1186  -20.4378   -8.9128 N   0  0  0  0  0  0  0  0  0  0  0  0
   26.2984  -21.7561   -8.2397 C   0  0  0  0  0  0  0  0  0  0  0  0
   25.2253  -21.6189   -7.1803 C   0  0  0  0  0  0  0  0  0  0  0  0
   25.4556  -20.2009   -6.7144 C   0  0  0  0  0  0  0  0  0  0  0  0
   26.2354  -19.5151   -7.8119 C   0  0  1  0  0  0  0  0  0  0  0  0
   27.6624  -19.4088   -7.3241 C   0  0  0  0  0  0  0  0  0  0  0  0
   28.5594  -20.2121   -7.6718 O   0  0  0  0  0  0  0  0  0  0  0  0
   28.0403  -18.3985   -6.4565 O   0  0  0  0  0  0  0  0  0  0  0  0
  1  2  1  0
  3  4  1  6
  3  2  1  0
  5  3  1  0
  5  6  1  1
  7  8  2  0
  7  5  1  0
 10 11  1  6
 10  9  1  0
 12 10  1  0
 13 14  1  0
 13 12  1  6
 14  7  1  0
 15 13  1  0
 16 15  2  0
 17 18  1  0
 17 15  1  0
 19 18  1  0
 20 21  1  0
 20 19  1  0
 21 17  1  0
 21 22  1  1
 22 24  1  0
 23 22  2  0
M  END
$$$$
