ILP.pdb
     RDKit          3D

 24 24  0  0  1  0  0  0  0  0999 V2000
   11.3575  -23.7062   -0.5044 C   0  0  0  0  0  0  0  0  0  0  0  0
   11.7104  -22.6577    0.5087 C   0  0  0  0  0  0  0  0  0  0  0  0
   13.1719  -22.7883    0.8681 C   0  0  2  0  0  0  0  0  0  0  0  0
   13.3493  -24.1704    1.4679 C   0  0  0  0  0  0  0  0  0  0  0  0
   13.6526  -21.7102    1.7918 C   0  0  2  0  0  0  0  0  0  0  0  0
   13.3821  -20.4316    1.1567 N   0  0  0  0  0  0  0  0  0  0  0  0
   15.1065  -21.8438    2.1228 C   0  0  0  0  0  0  0  0  0  0  0  0
   16.0020  -21.5346    1.3367 O   0  0  0  0  0  0  0  0  0  0  0  0
   16.5082  -19.6925    6.5086 C   0  0  0  0  0  0  0  0  0  0  0  0
   16.7167  -20.3006    5.1103 C   0  0  1  0  0  0  0  0  0  0  0  0
   18.1335  -19.8423    4.6588 C   0  0  0  0  0  0  0  0  0  0  0  0
   16.7608  -21.7685    5.3095 C   0  0  0  0  0  0  0  0  0  0  0  0
   16.7154  -22.5644    3.9741 C   0  0  2  0  0  0  0  0  0  0  0  0
   15.4362  -22.3441    3.3868 N   0  0  0  0  0  0  0  0  0  0  0  0
   17.1159  -23.9292    4.1352 C   0  0  0  0  0  0  0  0  0  0  0  0
   16.1883  -24.7980    4.2644 O   0  0  0  0  0  0  0  0  0  0  0  0
   18.4389  -24.3945    4.1603 N   0  0  0  0  0  0  0  0  0  0  0  0
   19.6382  -23.5112    4.0907 C   0  0  0  0  0  0  0  0  0  0  0  0
   20.3611  -24.1985    2.9516 C   0  0  0  0  0  0  0  0  0  0  0  0
   20.1896  -25.6500    3.3314 C   0  0  0  0  0  0  0  0  0  0  0  0
   19.0306  -25.7013    4.2994 C   0  0  1  0  0  0  0  0  0  0  0  0
   19.6267  -25.8986    5.6746 C   0  0  0  0  0  0  0  0  0  0  0  0
   19.7377  -24.9669    6.5055 O   0  0  0  0  0  0  0  0  0  0  0  0
   20.0821  -27.1424    6.0767 O   0  0  0  0  0  0  0  0  0  0  0  0
  1  2  1  0
  3  4  1  1
  3  2  1  0
  5  3  1  0
  5  6  1  6
  7  8  2  0
  7  5  1  0
 10 11  1  1
 10  9  1  0
 12 10  1  0
 13 14  1  0
 13 12  1  1
 14  7  1  0
 15 13  1  0
 16 15  2  0
 17 18  1  0
 17 15  1  0
 19 18  1  0
 20 21  1  0
 20 19  1  0
 21 17  1  0
 21 22  1  1
 22 24  1  0
 23 22  2  0
M  END
$$$$
