ILP.pdb
     RDKit          3D

 24 24  0  0  1  0  0  0  0  0999 V2000
   23.2022  -21.7567  -14.0376 C   0  0  0  0  0  0  0  0  0  0  0  0
   22.9415  -21.3976  -12.6047 C   0  0  0  0  0  0  0  0  0  0  0  0
   24.2055  -20.8366  -11.9967 C   0  0  2  0  0  0  0  0  0  0  0  0
   25.2689  -21.9091  -12.1400 C   0  0  0  0  0  0  0  0  0  0  0  0
   24.0349  -20.4029  -10.5722 C   0  0  2  0  0  0  0  0  0  0  0  0
   22.9266  -19.4643  -10.5260 N   0  0  0  0  0  0  0  0  0  0  0  0
   25.2773  -19.7886  -10.0062 C   0  0  0  0  0  0  0  0  0  0  0  0
   25.7955  -18.7754  -10.4757 O   0  0  0  0  0  0  0  0  0  0  0  0
   28.3574  -18.2720   -5.6619 C   0  0  0  0  0  0  0  0  0  0  0  0
   28.3231  -19.7240   -6.1711 C   0  0  1  0  0  0  0  0  0  0  0  0
   28.2950  -20.6166   -4.8969 C   0  0  0  0  0  0  0  0  0  0  0  0
   27.0202  -19.8811   -6.8595 C   0  0  0  0  0  0  0  0  0  0  0  0
   27.1677  -20.2775   -8.3561 C   0  0  2  0  0  0  0  0  0  0  0  0
   25.8559  -20.4118   -8.8954 N   0  0  0  0  0  0  0  0  0  0  0  0
   28.0508  -21.3882   -8.5448 C   0  0  0  0  0  0  0  0  0  0  0  0
   27.6040  -22.5464   -8.2436 O   0  0  0  0  0  0  0  0  0  0  0  0
   29.3630  -21.3140   -9.0347 N   0  0  0  0  0  0  0  0  0  0  0  0
   30.1374  -20.0465   -9.1646 C   0  0  0  0  0  0  0  0  0  0  0  0
   30.5549  -20.1824  -10.6137 C   0  0  0  0  0  0  0  0  0  0  0  0
   30.9676  -21.6343  -10.6630 C   0  0  0  0  0  0  0  0  0  0  0  0
   30.3178  -22.3007   -9.4728 C   0  0  1  0  0  0  0  0  0  0  0  0
   31.4094  -22.5118   -8.4484 C   0  0  0  0  0  0  0  0  0  0  0  0
   31.4965  -21.8305   -7.4002 O   0  0  0  0  0  0  0  0  0  0  0  0
   32.3747  -23.4866   -8.6336 O   0  0  0  0  0  0  0  0  0  0  0  0
  1  2  1  0
  3  4  1  1
  3  2  1  0
  5  3  1  0
  5  6  1  6
  7  8  2  0
  7  5  1  0
 10 11  1  1
 10  9  1  0
 12 10  1  0
 13 14  1  0
 13 12  1  1
 14  7  1  0
 15 13  1  0
 16 15  2  0
 17 18  1  0
 17 15  1  0
 19 18  1  0
 20 21  1  0
 20 19  1  0
 21 17  1  0
 21 22  1  1
 22 24  1  0
 23 22  2  0
M  END
$$$$
