ILP.pdb
     RDKit          3D

 24 24  0  0  1  0  0  0  0  0999 V2000
   23.1821  -19.9843  -13.1729 C   0  0  0  0  0  0  0  0  0  0  0  0
   24.6541  -19.7028  -13.1087 C   0  0  0  0  0  0  0  0  0  0  0  0
   25.1610  -20.0296  -11.7237 C   0  0  2  0  0  0  0  0  0  0  0  0
   25.8701  -18.7879  -11.2170 C   0  0  0  0  0  0  0  0  0  0  0  0
   26.0492  -21.2364  -11.6883 C   0  0  2  0  0  0  0  0  0  0  0  0
   25.2689  -22.3727  -12.1483 N   0  0  0  0  0  0  0  0  0  0  0  0
   26.6136  -21.4942  -10.3258 C   0  0  0  0  0  0  0  0  0  0  0  0
   25.9151  -21.8059   -9.3611 O   0  0  0  0  0  0  0  0  0  0  0  0
   31.1356  -22.9592   -7.6997 C   0  0  0  0  0  0  0  0  0  0  0  0
   31.1942  -21.5170   -8.2336 C   0  0  1  0  0  0  0  0  0  0  0  0
   32.6408  -21.3267   -8.7743 C   0  0  0  0  0  0  0  0  0  0  0  0
   30.2716  -21.4764   -9.3926 C   0  0  0  0  0  0  0  0  0  0  0  0
   28.7794  -21.3384   -8.9767 C   0  0  2  0  0  0  0  0  0  0  0  0
   27.9978  -21.3690  -10.1674 N   0  0  0  0  0  0  0  0  0  0  0  0
   28.5555  -20.2324   -8.0960 C   0  0  0  0  0  0  0  0  0  0  0  0
   28.3169  -19.0981   -8.6330 O   0  0  0  0  0  0  0  0  0  0  0  0
   28.5727  -20.2881   -6.6945 N   0  0  0  0  0  0  0  0  0  0  0  0
   28.8104  -21.5331   -5.9093 C   0  0  0  0  0  0  0  0  0  0  0  0
   27.6006  -21.4640   -5.0014 C   0  0  0  0  0  0  0  0  0  0  0  0
   27.6081  -20.0037   -4.6167 C   0  0  0  0  0  0  0  0  0  0  0  0
   28.4418  -19.2947   -5.6586 C   0  0  1  0  0  0  0  0  0  0  0  0
   29.7726  -18.9887   -5.0099 C   0  0  0  0  0  0  0  0  0  0  0  0
   30.8034  -19.6686   -5.2238 O   0  0  0  0  0  0  0  0  0  0  0  0
   29.9056  -17.9232   -4.1363 O   0  0  0  0  0  0  0  0  0  0  0  0
  1  2  1  0
  3  4  1  6
  3  2  1  0
  5  3  1  0
  5  6  1  1
  7  8  2  0
  7  5  1  0
 10 11  1  6
 10  9  1  0
 12 10  1  0
 13 14  1  0
 13 12  1  6
 14  7  1  0
 15 13  1  0
 16 15  2  0
 17 18  1  0
 17 15  1  0
 19 18  1  0
 20 21  1  0
 20 19  1  0
 21 17  1  0
 21 22  1  1
 22 24  1  0
 23 22  2  0
M  END
$$$$
