PYF.pdb
     RDKit          3D

 31 33  0  0  1  0  0  0  0  0999 V2000
   21.3214  -22.1748  -18.8229 N   0  0  0  0  0  0  0  0  0  0  0  0
   21.7584  -22.7030  -20.0903 C   0  0  0  0  0  0  0  0  0  0  0  0
   23.2358  -22.9337  -20.0126 C   0  0  0  0  0  0  0  0  0  0  0  0
   23.6182  -22.0749  -18.7988 C   0  0  0  0  0  0  0  0  0  0  0  0
   22.4128  -22.2989  -17.9129 C   0  0  1  0  0  0  0  0  0  0  0  0
   22.3507  -21.3910  -16.7650 C   0  0  0  0  0  0  0  0  0  0  0  0
   23.2209  -21.5410  -15.8527 O   0  0  0  0  0  0  0  0  0  0  0  0
   25.7750  -17.7521  -19.9946 O   0  0  0  0  0  0  0  0  0  0  0  0
   24.8131  -17.8195  -18.9952 C   0  0  0  0  0  0  0  0  0  0  0  0
   25.1750  -17.9121  -17.6663 C   0  0  0  0  0  0  0  0  0  0  0  0
   24.2076  -17.9783  -16.6836 C   0  0  0  0  0  0  0  0  0  0  0  0
   22.8599  -17.9565  -16.9614 C   0  0  0  0  0  0  0  0  0  0  0  0
   21.7884  -18.0227  -15.9559 C   0  0  0  0  0  0  0  0  0  0  0  0
   21.4706  -19.4093  -15.4826 C   0  0  2  0  0  0  0  0  0  0  0  0
   21.4093  -20.3595  -16.5766 N   0  0  0  0  0  0  0  0  0  0  0  0
   20.2889  -19.5044  -14.6059 C   0  0  0  0  0  0  0  0  0  0  0  0
   20.2244  -18.6989  -13.6218 O   0  0  0  0  0  0  0  0  0  0  0  0
   22.5081  -17.8628  -18.3060 C   0  0  0  0  0  0  0  0  0  0  0  0
   23.4709  -17.7964  -19.2915 C   0  0  0  0  0  0  0  0  0  0  0  0
   19.2383  -20.4359  -14.8090 N   0  0  0  0  0  0  0  0  0  0  0  0
   18.1040  -20.5416  -13.9038 C   0  0  1  0  0  0  0  0  0  0  0  0
   16.9180  -20.0414  -14.7031 C   0  0  0  0  0  0  0  0  0  0  0  0
   16.5918  -20.8307  -15.8820 C   0  0  0  0  0  0  0  0  0  0  0  0
   16.9668  -20.4819  -17.1566 C   0  0  0  0  0  0  0  0  0  0  0  0
   16.6310  -21.2772  -18.2577 C   0  0  0  0  0  0  0  0  0  0  0  0
   15.9087  -22.4339  -18.0561 C   0  0  0  0  0  0  0  0  0  0  0  0
   15.5246  -22.7979  -16.7827 C   0  0  0  0  0  0  0  0  0  0  0  0
   15.8584  -22.0062  -15.6817 C   0  0  0  0  0  0  0  0  0  0  0  0
   17.9554  -21.9596  -13.5226 C   0  0  0  0  0  0  0  0  0  0  0  0
   18.9062  -22.8759  -13.9460 O   0  0  0  0  0  0  0  0  0  0  0  0
   17.0063  -22.3554  -12.8361 O   0  0  0  0  0  0  0  0  0  0  0  0
  1  2  1  0
  3  2  1  0
  4  3  1  0
  5  4  1  0
  5  1  1  0
  6  7  2  0
  5  6  1  1
  8  9  1  0
  9 10  2  0
  9 19  1  0
 10 11  1  0
 11 12  2  0
 12 13  1  0
 14 13  1  6
 14 15  1  0
 15  6  1  0
 16 17  2  0
 16 14  1  0
 18 12  1  0
 19 18  2  0
 20 16  1  0
 21 22  1  6
 21 20  1  0
 23 22  1  0
 23 28  1  0
 24 23  2  0
 25 24  1  0
 25 26  2  0
 26 27  1  0
 27 28  2  0
 29 21  1  0
 30 29  1  0
 31 29  2  0
M  END
$$$$
