PYF.pdb
     RDKit          3D

 31 33  0  0  1  0  0  0  0  0999 V2000
   27.7884  -20.7073  -15.9289 N   0  0  0  0  0  0  0  0  0  0  0  0
   28.2464  -20.4512  -17.2709 C   0  0  0  0  0  0  0  0  0  0  0  0
   29.0842  -19.2105  -17.2468 C   0  0  0  0  0  0  0  0  0  0  0  0
   28.6657  -18.5823  -15.9099 C   0  0  0  0  0  0  0  0  0  0  0  0
   28.4989  -19.8243  -15.0628 C   0  0  1  0  0  0  0  0  0  0  0  0
   27.8399  -19.5752  -13.7785 C   0  0  0  0  0  0  0  0  0  0  0  0
   28.4261  -18.8008  -12.9607 O   0  0  0  0  0  0  0  0  0  0  0  0
   23.8955  -15.4890  -16.5835 O   0  0  0  0  0  0  0  0  0  0  0  0
   24.0372  -16.4371  -15.5787 C   0  0  0  0  0  0  0  0  0  0  0  0
   23.8268  -17.7775  -15.8324 C   0  0  0  0  0  0  0  0  0  0  0  0
   23.9714  -18.7088  -14.8234 C   0  0  0  0  0  0  0  0  0  0  0  0
   24.3244  -18.3667  -13.5380 C   0  0  0  0  0  0  0  0  0  0  0  0
   24.4935  -19.3156  -12.4270 C   0  0  0  0  0  0  0  0  0  0  0  0
   25.9163  -19.7030  -12.1568 C   0  0  2  0  0  0  0  0  0  0  0  0
   26.6079  -20.1180  -13.3622 N   0  0  0  0  0  0  0  0  0  0  0  0
   26.0922  -20.6739  -11.0612 C   0  0  0  0  0  0  0  0  0  0  0  0
   25.8668  -21.8994  -11.3238 O   0  0  0  0  0  0  0  0  0  0  0  0
   24.5338  -17.0110  -13.2953 C   0  0  0  0  0  0  0  0  0  0  0  0
   24.3906  -16.0768  -14.3000 C   0  0  0  0  0  0  0  0  0  0  0  0
   26.4965  -20.3089   -9.7512 N   0  0  0  0  0  0  0  0  0  0  0  0
   26.6224  -21.2800   -8.6750 C   0  0  1  0  0  0  0  0  0  0  0  0
   28.0465  -21.1320   -8.1794 C   0  0  0  0  0  0  0  0  0  0  0  0
   28.1837  -20.4896   -6.8802 C   0  0  0  0  0  0  0  0  0  0  0  0
   28.5681  -21.1548   -5.7415 C   0  0  0  0  0  0  0  0  0  0  0  0
   28.6885  -20.4905   -4.5159 C   0  0  0  0  0  0  0  0  0  0  0  0
   28.4149  -19.1409   -4.4531 C   0  0  0  0  0  0  0  0  0  0  0  0
   28.0277  -18.4589   -5.5873 C   0  0  0  0  0  0  0  0  0  0  0  0
   27.9067  -19.1191   -6.8119 C   0  0  0  0  0  0  0  0  0  0  0  0
   25.6357  -20.9360   -7.6327 C   0  0  0  0  0  0  0  0  0  0  0  0
   24.8445  -19.8091   -7.7974 O   0  0  0  0  0  0  0  0  0  0  0  0
   25.4938  -21.6238   -6.6152 O   0  0  0  0  0  0  0  0  0  0  0  0
  1  2  1  0
  3  2  1  0
  4  3  1  0
  5  4  1  0
  5  1  1  0
  6  7  2  0
  5  6  1  1
  8  9  1  0
  9 10  2  0
  9 19  1  0
 10 11  1  0
 11 12  2  0
 12 13  1  0
 14 13  1  6
 14 15  1  0
 15  6  1  0
 16 17  2  0
 16 14  1  0
 18 12  1  0
 19 18  2  0
 20 16  1  0
 21 22  1  1
 21 20  1  0
 23 22  1  0
 23 28  1  0
 24 23  2  0
 25 24  1  0
 25 26  2  0
 26 27  1  0
 27 28  2  0
 29 21  1  0
 30 29  1  0
 31 29  2  0
M  END
$$$$
