PYF.pdb
     RDKit          3D

 31 33  0  0  1  0  0  0  0  0999 V2000
   27.0215  -21.7545  -17.3587 N   0  0  0  0  0  0  0  0  0  0  0  0
   27.5137  -21.8766  -18.7074 C   0  0  0  0  0  0  0  0  0  0  0  0
   28.9280  -21.3854  -18.7318 C   0  0  0  0  0  0  0  0  0  0  0  0
   28.9967  -20.5799  -17.4266 C   0  0  0  0  0  0  0  0  0  0  0  0
   28.1370  -21.4402  -16.5272 C   0  0  1  0  0  0  0  0  0  0  0  0
   27.7851  -20.7959  -15.2595 C   0  0  0  0  0  0  0  0  0  0  0  0
   28.7320  -20.5262  -14.4577 O   0  0  0  0  0  0  0  0  0  0  0  0
   27.5244  -15.0554  -17.8758 O   0  0  0  0  0  0  0  0  0  0  0  0
   26.9907  -15.9001  -16.9114 C   0  0  0  0  0  0  0  0  0  0  0  0
   26.0178  -16.8238  -17.2363 C   0  0  0  0  0  0  0  0  0  0  0  0
   25.4964  -17.6571  -16.2668 C   0  0  0  0  0  0  0  0  0  0  0  0
   25.9040  -17.6187  -14.9529 C   0  0  0  0  0  0  0  0  0  0  0  0
   25.3847  -18.4820  -13.8813 C   0  0  0  0  0  0  0  0  0  0  0  0
   26.2061  -19.7096  -13.6246 C   0  0  2  0  0  0  0  0  0  0  0  0
   26.4854  -20.4447  -14.8432 N   0  0  0  0  0  0  0  0  0  0  0  0
   25.6845  -20.5876  -12.5611 C   0  0  0  0  0  0  0  0  0  0  0  0
   24.7594  -21.4036  -12.8775 O   0  0  0  0  0  0  0  0  0  0  0  0
   26.8861  -16.6822  -14.6382 C   0  0  0  0  0  0  0  0  0  0  0  0
   27.4101  -15.8475  -15.6032 C   0  0  0  0  0  0  0  0  0  0  0  0
   26.1615  -20.5649  -11.2252 N   0  0  0  0  0  0  0  0  0  0  0  0
   25.7346  -21.5349  -10.2282 C   0  0  1  0  0  0  0  0  0  0  0  0
   26.9419  -21.7342   -9.3346 C   0  0  0  0  0  0  0  0  0  0  0  0
   27.1009  -20.7409   -8.2823 C   0  0  0  0  0  0  0  0  0  0  0  0
   26.3450  -19.5971   -8.1978 C   0  0  0  0  0  0  0  0  0  0  0  0
   26.5346  -18.6739   -7.1637 C   0  0  0  0  0  0  0  0  0  0  0  0
   27.5007  -18.9199   -6.2116 C   0  0  0  0  0  0  0  0  0  0  0  0
   28.2679  -20.0636   -6.2825 C   0  0  0  0  0  0  0  0  0  0  0  0
   28.0809  -20.9869   -7.3134 C   0  0  0  0  0  0  0  0  0  0  0  0
   24.5914  -20.9601   -9.4929 C   0  0  0  0  0  0  0  0  0  0  0  0
   23.9136  -21.7483   -8.5751 O   0  0  0  0  0  0  0  0  0  0  0  0
   24.2192  -19.7947   -9.6717 O   0  0  0  0  0  0  0  0  0  0  0  0
  1  2  1  0
  3  2  1  0
  4  3  1  0
  5  4  1  0
  5  1  1  0
  6  7  2  0
  5  6  1  1
  8  9  1  0
  9 10  2  0
  9 19  1  0
 10 11  1  0
 11 12  2  0
 12 13  1  0
 14 13  1  6
 14 15  1  0
 15  6  1  0
 16 17  2  0
 16 14  1  0
 18 12  1  0
 19 18  2  0
 20 16  1  0
 21 22  1  1
 21 20  1  0
 23 22  1  0
 23 28  1  0
 24 23  2  0
 25 24  1  0
 25 26  2  0
 26 27  1  0
 27 28  2  0
 29 21  1  0
 30 29  1  0
 31 29  2  0
M  END
$$$$
