PYF.pdb
     RDKit          3D

 31 33  0  0  1  0  0  0  0  0999 V2000
   27.8657  -20.9240  -15.0410 N   0  0  0  0  0  0  0  0  0  0  0  0
   28.1763  -20.6363  -16.4183 C   0  0  0  0  0  0  0  0  0  0  0  0
   28.1711  -19.1495  -16.5946 C   0  0  0  0  0  0  0  0  0  0  0  0
   27.3974  -18.6943  -15.3491 C   0  0  0  0  0  0  0  0  0  0  0  0
   27.9084  -19.6883  -14.3298 C   0  0  1  0  0  0  0  0  0  0  0  0
   27.1517  -19.6848  -13.0755 C   0  0  0  0  0  0  0  0  0  0  0  0
   27.0856  -18.5904  -12.4351 O   0  0  0  0  0  0  0  0  0  0  0  0
   21.0018  -18.8419  -15.4517 O   0  0  0  0  0  0  0  0  0  0  0  0
   21.8013  -19.4478  -14.4915 C   0  0  0  0  0  0  0  0  0  0  0  0
   21.7668  -19.0344  -13.1749 C   0  0  0  0  0  0  0  0  0  0  0  0
   22.5675  -19.6463  -12.2312 C   0  0  0  0  0  0  0  0  0  0  0  0
   23.4255  -20.6778  -12.5372 C   0  0  0  0  0  0  0  0  0  0  0  0
   24.2983  -21.3654  -11.5734 C   0  0  0  0  0  0  0  0  0  0  0  0
   25.6198  -20.6940  -11.3488 C   0  0  2  0  0  0  0  0  0  0  0  0
   26.4854  -20.7896  -12.5086 N   0  0  0  0  0  0  0  0  0  0  0  0
   26.3129  -21.0983  -10.1118 C   0  0  0  0  0  0  0  0  0  0  0  0
   26.8376  -22.2584  -10.0877 O   0  0  0  0  0  0  0  0  0  0  0  0
   23.4508  -21.0854  -13.8691 C   0  0  0  0  0  0  0  0  0  0  0  0
   22.6528  -20.4773  -14.8157 C   0  0  0  0  0  0  0  0  0  0  0  0
   26.4206  -20.2651   -8.9686 N   0  0  0  0  0  0  0  0  0  0  0  0
   27.0851  -20.6974   -7.7485 C   0  0  1  0  0  0  0  0  0  0  0  0
   27.9052  -19.5028   -7.3056 C   0  0  0  0  0  0  0  0  0  0  0  0
   28.4680  -19.6033   -5.9668 C   0  0  0  0  0  0  0  0  0  0  0  0
   27.9758  -18.9177   -4.8831 C   0  0  0  0  0  0  0  0  0  0  0  0
   28.5510  -19.0512   -3.6146 C   0  0  0  0  0  0  0  0  0  0  0  0
   29.6338  -19.8887   -3.4523 C   0  0  0  0  0  0  0  0  0  0  0  0
   30.1398  -20.5840   -4.5303 C   0  0  0  0  0  0  0  0  0  0  0  0
   29.5678  -20.4528   -5.7976 C   0  0  0  0  0  0  0  0  0  0  0  0
   26.0447  -21.0497   -6.7629 C   0  0  0  0  0  0  0  0  0  0  0  0
   26.3965  -21.7922   -5.6457 O   0  0  0  0  0  0  0  0  0  0  0  0
   24.8666  -20.7022   -6.9042 O   0  0  0  0  0  0  0  0  0  0  0  0
  1  2  1  0
  3  2  1  0
  4  3  1  0
  5  4  1  0
  5  1  1  0
  6  7  2  0
  5  6  1  1
  8  9  1  0
  9 10  2  0
  9 19  1  0
 10 11  1  0
 11 12  2  0
 12 13  1  0
 14 13  1  6
 14 15  1  0
 15  6  1  0
 16 17  2  0
 16 14  1  0
 18 12  1  0
 19 18  2  0
 20 16  1  0
 21 22  1  1
 21 20  1  0
 23 22  1  0
 23 28  1  0
 24 23  2  0
 25 24  1  0
 25 26  2  0
 26 27  1  0
 27 28  2  0
 29 21  1  0
 30 29  1  0
 31 29  2  0
M  END
$$$$
