PYF.pdb
     RDKit          3D

 31 33  0  0  1  0  0  0  0  0999 V2000
   26.3237  -34.6771   -8.8310 N   0  0  0  0  0  0  0  0  0  0  0  0
   26.8429  -34.8855  -10.1588 C   0  0  0  0  0  0  0  0  0  0  0  0
   27.0206  -33.5458  -10.8035 C   0  0  0  0  0  0  0  0  0  0  0  0
   26.1421  -32.6563   -9.9123 C   0  0  0  0  0  0  0  0  0  0  0  0
   26.4041  -33.2792   -8.5590 C   0  0  1  0  0  0  0  0  0  0  0  0
   25.4928  -32.8125   -7.5114 C   0  0  0  0  0  0  0  0  0  0  0  0
   25.4643  -31.5656   -7.2736 O   0  0  0  0  0  0  0  0  0  0  0  0
   20.3215  -31.9018  -11.1477 O   0  0  0  0  0  0  0  0  0  0  0  0
   20.7950  -32.2881   -9.9006 C   0  0  0  0  0  0  0  0  0  0  0  0
   20.5910  -31.4976   -8.7876 C   0  0  0  0  0  0  0  0  0  0  0  0
   21.0675  -31.8945   -7.5541 C   0  0  0  0  0  0  0  0  0  0  0  0
   21.7562  -33.0707   -7.3642 C   0  0  0  0  0  0  0  0  0  0  0  0
   22.2840  -33.5424   -6.0749 C   0  0  0  0  0  0  0  0  0  0  0  0
   23.6845  -33.0959   -5.7804 C   0  0  2  0  0  0  0  0  0  0  0  0
   24.6387  -33.6229   -6.7370 N   0  0  0  0  0  0  0  0  0  0  0  0
   24.1216  -33.3181   -4.3898 C   0  0  0  0  0  0  0  0  0  0  0  0
   25.0182  -34.2006   -4.1925 O   0  0  0  0  0  0  0  0  0  0  0  0
   21.9553  -33.8592   -8.4952 C   0  0  0  0  0  0  0  0  0  0  0  0
   21.4812  -33.4670   -9.7298 C   0  0  0  0  0  0  0  0  0  0  0  0
   23.5976  -32.6028   -3.2823 N   0  0  0  0  0  0  0  0  0  0  0  0
   24.1016  -32.7820   -1.9292 C   0  0  1  0  0  0  0  0  0  0  0  0
   25.4442  -32.0799   -1.9157 C   0  0  0  0  0  0  0  0  0  0  0  0
   25.4115  -30.6790   -2.3104 C   0  0  0  0  0  0  0  0  0  0  0  0
   24.7222  -29.7120   -1.6201 C   0  0  0  0  0  0  0  0  0  0  0  0
   24.7248  -28.3770   -2.0390 C   0  0  0  0  0  0  0  0  0  0  0  0
   25.4345  -28.0282   -3.1681 C   0  0  0  0  0  0  0  0  0  0  0  0
   26.1316  -28.9873   -3.8722 C   0  0  0  0  0  0  0  0  0  0  0  0
   26.1309  -30.3205   -3.4565 C   0  0  0  0  0  0  0  0  0  0  0  0
   23.1416  -32.1572   -0.9986 C   0  0  0  0  0  0  0  0  0  0  0  0
   23.4051  -32.1845    0.3626 O   0  0  0  0  0  0  0  0  0  0  0  0
   22.1074  -31.6095   -1.3974 O   0  0  0  0  0  0  0  0  0  0  0  0
  1  2  1  0
  3  2  1  0
  4  3  1  0
  5  4  1  0
  5  1  1  0
  6  7  2  0
  5  6  1  1
  8  9  1  0
  9 10  2  0
  9 19  1  0
 10 11  1  0
 11 12  2  0
 12 13  1  0
 14 13  1  1
 14 15  1  0
 15  6  1  0
 16 17  2  0
 16 14  1  0
 18 12  1  0
 19 18  2  0
 20 16  1  0
 21 22  1  6
 21 20  1  0
 23 22  1  0
 23 28  1  0
 24 23  2  0
 25 24  1  0
 25 26  2  0
 26 27  1  0
 27 28  2  0
 29 21  1  0
 30 29  1  0
 31 29  2  0
M  END
$$$$
