PYF.pdb
     RDKit          3D

 31 33  0  0  1  0  0  0  0  0999 V2000
   28.5347  -21.5416  -18.9001 N   0  0  0  0  0  0  0  0  0  0  0  0
   28.8436  -20.8549  -20.1286 C   0  0  0  0  0  0  0  0  0  0  0  0
   28.9533  -19.3922  -19.8280 C   0  0  0  0  0  0  0  0  0  0  0  0
   28.2394  -19.3022  -18.4717 C   0  0  0  0  0  0  0  0  0  0  0  0
   28.6873  -20.6010  -17.8387 C   0  0  1  0  0  0  0  0  0  0  0  0
   27.9547  -20.9422  -16.6170 C   0  0  0  0  0  0  0  0  0  0  0  0
   27.0122  -21.7871  -16.7166 O   0  0  0  0  0  0  0  0  0  0  0  0
   24.4848  -20.8626   -8.4232 O   0  0  0  0  0  0  0  0  0  0  0  0
   25.3178  -20.6907   -9.5209 C   0  0  0  0  0  0  0  0  0  0  0  0
   25.4271  -19.4639  -10.1441 C   0  0  0  0  0  0  0  0  0  0  0  0
   26.2594  -19.3079  -11.2346 C   0  0  0  0  0  0  0  0  0  0  0  0
   27.0104  -20.3382  -11.7527 C   0  0  0  0  0  0  0  0  0  0  0  0
   27.9126  -20.2280  -12.9092 C   0  0  0  0  0  0  0  0  0  0  0  0
   27.2686  -20.5395  -14.2267 C   0  0  2  0  0  0  0  0  0  0  0  0
   28.1992  -20.4172  -15.3323 N   0  0  0  0  0  0  0  0  0  0  0  0
   26.0117  -19.8130  -14.4841 C   0  0  0  0  0  0  0  0  0  0  0  0
   26.1029  -18.6455  -14.9844 O   0  0  0  0  0  0  0  0  0  0  0  0
   26.8909  -21.5708  -11.1148 C   0  0  0  0  0  0  0  0  0  0  0  0
   26.0608  -21.7317  -10.0250 C   0  0  0  0  0  0  0  0  0  0  0  0
   24.7281  -20.3493  -14.2059 N   0  0  0  0  0  0  0  0  0  0  0  0
   23.5002  -19.6281  -14.5045 C   0  0  1  0  0  0  0  0  0  0  0  0
   23.3896  -19.6528  -16.0154 C   0  0  0  0  0  0  0  0  0  0  0  0
   22.1440  -19.1232  -16.5513 C   0  0  0  0  0  0  0  0  0  0  0  0
   21.0047  -19.8745  -16.7074 C   0  0  0  0  0  0  0  0  0  0  0  0
   19.8303  -19.3172  -17.2249 C   0  0  0  0  0  0  0  0  0  0  0  0
   19.8195  -17.9864  -17.5845 C   0  0  0  0  0  0  0  0  0  0  0  0
   20.9551  -17.2187  -17.4341 C   0  0  0  0  0  0  0  0  0  0  0  0
   22.1287  -17.7723  -16.9179 C   0  0  0  0  0  0  0  0  0  0  0  0
   22.3829  -20.3422  -13.8566 C   0  0  0  0  0  0  0  0  0  0  0  0
   21.2331  -19.6404  -13.5274 O   0  0  0  0  0  0  0  0  0  0  0  0
   22.4420  -21.5498  -13.5979 O   0  0  0  0  0  0  0  0  0  0  0  0
  1  2  1  0
  3  2  1  0
  4  3  1  0
  5  4  1  0
  5  1  1  0
  6  7  2  0
  5  6  1  1
  8  9  1  0
  9 10  2  0
  9 19  1  0
 10 11  1  0
 11 12  2  0
 12 13  1  0
 14 13  1  1
 14 15  1  0
 15  6  1  0
 16 17  2  0
 16 14  1  0
 18 12  1  0
 19 18  2  0
 20 16  1  0
 21 22  1  6
 21 20  1  0
 23 22  1  0
 23 28  1  0
 24 23  2  0
 25 24  1  0
 25 26  2  0
 26 27  1  0
 27 28  2  0
 29 21  1  0
 30 29  1  0
 31 29  2  0
M  END
$$$$
