PYF.pdb
     RDKit          3D

 31 33  0  0  1  0  0  0  0  0999 V2000
   28.3553  -19.6615  -17.7787 N   0  0  0  0  0  0  0  0  0  0  0  0
   28.9869  -19.0027  -18.8938 C   0  0  0  0  0  0  0  0  0  0  0  0
   29.2956  -17.5951  -18.4872 C   0  0  0  0  0  0  0  0  0  0  0  0
   28.3845  -17.4210  -17.2638 C   0  0  0  0  0  0  0  0  0  0  0  0
   28.4831  -18.7996  -16.6493 C   0  0  1  0  0  0  0  0  0  0  0  0
   27.5021  -19.0414  -15.5887 C   0  0  0  0  0  0  0  0  0  0  0  0
   27.5832  -18.3263  -14.5427 O   0  0  0  0  0  0  0  0  0  0  0  0
   19.9773  -21.1071  -11.3404 O   0  0  0  0  0  0  0  0  0  0  0  0
   20.9886  -20.9685  -12.2820 C   0  0  0  0  0  0  0  0  0  0  0  0
   21.0876  -19.8294  -13.0553 C   0  0  0  0  0  0  0  0  0  0  0  0
   22.0984  -19.7056  -13.9875 C   0  0  0  0  0  0  0  0  0  0  0  0
   23.0434  -20.6839  -14.1969 C   0  0  0  0  0  0  0  0  0  0  0  0
   24.1404  -20.6043  -15.1735 C   0  0  0  0  0  0  0  0  0  0  0  0
   25.4325  -20.0934  -14.6106 C   0  0  2  0  0  0  0  0  0  0  0  0
   26.4694  -19.9998  -15.6202 N   0  0  0  0  0  0  0  0  0  0  0  0
   25.9017  -20.8022  -13.4058 C   0  0  0  0  0  0  0  0  0  0  0  0
   26.5226  -21.9006  -13.5781 O   0  0  0  0  0  0  0  0  0  0  0  0
   22.9323  -21.8282  -13.4102 C   0  0  0  0  0  0  0  0  0  0  0  0
   21.9242  -21.9566  -12.4775 C   0  0  0  0  0  0  0  0  0  0  0  0
   25.6971  -20.3212  -12.0869 N   0  0  0  0  0  0  0  0  0  0  0  0
   26.2347  -20.9997  -10.9173 C   0  0  1  0  0  0  0  0  0  0  0  0
   27.5026  -20.2440  -10.5753 C   0  0  0  0  0  0  0  0  0  0  0  0
   27.8165  -20.1770   -9.1554 C   0  0  0  0  0  0  0  0  0  0  0  0
   28.6549  -21.0609   -8.5209 C   0  0  0  0  0  0  0  0  0  0  0  0
   28.9276  -20.9517   -7.1529 C   0  0  0  0  0  0  0  0  0  0  0  0
   28.3412  -19.9351   -6.4296 C   0  0  0  0  0  0  0  0  0  0  0  0
   27.4971  -19.0397   -7.0519 C   0  0  0  0  0  0  0  0  0  0  0  0
   27.2231  -19.1462   -8.4172 C   0  0  0  0  0  0  0  0  0  0  0  0
   25.2313  -20.9129   -9.8386 C   0  0  0  0  0  0  0  0  0  0  0  0
   24.1404  -20.0715   -9.9970 O   0  0  0  0  0  0  0  0  0  0  0  0
   25.3350  -21.5689   -8.7958 O   0  0  0  0  0  0  0  0  0  0  0  0
  1  2  1  0
  3  2  1  0
  4  3  1  0
  5  4  1  0
  5  1  1  0
  6  7  2  0
  5  6  1  1
  8  9  1  0
  9 10  2  0
  9 19  1  0
 10 11  1  0
 11 12  2  0
 12 13  1  0
 14 13  1  6
 14 15  1  0
 15  6  1  0
 16 17  2  0
 16 14  1  0
 18 12  1  0
 19 18  2  0
 20 16  1  0
 21 22  1  1
 21 20  1  0
 23 22  1  0
 23 28  1  0
 24 23  2  0
 25 24  1  0
 25 26  2  0
 26 27  1  0
 27 28  2  0
 29 21  1  0
 30 29  1  0
 31 29  2  0
M  END
$$$$
