PYF.pdb
     RDKit          3D

 31 33  0  0  1  0  0  0  0  0999 V2000
   28.2487  -20.5583  -15.7710 N   0  0  0  0  0  0  0  0  0  0  0  0
   28.6856  -20.1476  -17.0812 C   0  0  0  0  0  0  0  0  0  0  0  0
   28.9006  -18.6660  -17.0557 C   0  0  0  0  0  0  0  0  0  0  0  0
   28.1190  -18.2630  -15.7972 C   0  0  0  0  0  0  0  0  0  0  0  0
   28.4179  -19.4425  -14.8986 C   0  0  1  0  0  0  0  0  0  0  0  0
   27.5892  -19.4862  -13.6916 C   0  0  0  0  0  0  0  0  0  0  0  0
   27.6686  -18.5034  -12.8915 O   0  0  0  0  0  0  0  0  0  0  0  0
   20.0344  -19.4976   -9.3572 O   0  0  0  0  0  0  0  0  0  0  0  0
   21.1041  -19.8749  -10.1582 C   0  0  0  0  0  0  0  0  0  0  0  0
   21.9225  -20.9275   -9.8006 C   0  0  0  0  0  0  0  0  0  0  0  0
   22.9823  -21.2914  -10.6070 C   0  0  0  0  0  0  0  0  0  0  0  0
   23.2795  -20.6445  -11.7847 C   0  0  0  0  0  0  0  0  0  0  0  0
   24.3931  -20.9902  -12.6813 C   0  0  0  0  0  0  0  0  0  0  0  0
   25.7130  -20.4021  -12.2818 C   0  0  2  0  0  0  0  0  0  0  0  0
   26.7057  -20.5235  -13.3321 N   0  0  0  0  0  0  0  0  0  0  0  0
   26.2280  -20.8722  -10.9826 C   0  0  0  0  0  0  0  0  0  0  0  0
   26.7009  -22.0535  -10.9337 O   0  0  0  0  0  0  0  0  0  0  0  0
   22.4462  -19.5843  -12.1341 C   0  0  0  0  0  0  0  0  0  0  0  0
   21.3861  -19.2169  -11.3318 C   0  0  0  0  0  0  0  0  0  0  0  0
   26.2218  -20.0790   -9.8064 N   0  0  0  0  0  0  0  0  0  0  0  0
   26.7145  -20.5736   -8.5297 C   0  0  1  0  0  0  0  0  0  0  0  0
   27.5521  -19.4423   -7.9691 C   0  0  0  0  0  0  0  0  0  0  0  0
   28.0988  -19.6795   -6.6409 C   0  0  0  0  0  0  0  0  0  0  0  0
   29.1165  -20.5662   -6.3863 C   0  0  0  0  0  0  0  0  0  0  0  0
   29.6097  -20.7560   -5.0908 C   0  0  0  0  0  0  0  0  0  0  0  0
   29.0609  -20.0370   -4.0506 C   0  0  0  0  0  0  0  0  0  0  0  0
   28.0386  -19.1430   -4.2896 C   0  0  0  0  0  0  0  0  0  0  0  0
   27.5443  -18.9514   -5.5817 C   0  0  0  0  0  0  0  0  0  0  0  0
   25.5484  -20.8736   -7.6763 C   0  0  0  0  0  0  0  0  0  0  0  0
   25.6775  -21.8095   -6.6612 O   0  0  0  0  0  0  0  0  0  0  0  0
   24.4579  -20.3146   -7.8402 O   0  0  0  0  0  0  0  0  0  0  0  0
  1  2  1  0
  3  2  1  0
  4  3  1  0
  5  4  1  0
  5  1  1  0
  6  7  2  0
  5  6  1  1
  8  9  1  0
  9 10  2  0
  9 19  1  0
 10 11  1  0
 11 12  2  0
 12 13  1  0
 14 13  1  6
 14 15  1  0
 15  6  1  0
 16 17  2  0
 16 14  1  0
 18 12  1  0
 19 18  2  0
 20 16  1  0
 21 22  1  1
 21 20  1  0
 23 22  1  0
 23 28  1  0
 24 23  2  0
 25 24  1  0
 25 26  2  0
 26 27  1  0
 27 28  2  0
 29 21  1  0
 30 29  1  0
 31 29  2  0
M  END
$$$$
