AGG.pdb
     RDKit          3D

 14 13  0  0  1  0  0  0  0  0999 V2000
   18.6541   -9.1415  -19.5756 C   0  0  0  0  0  0  0  0  0  0  0  0
   19.9087   -8.9853  -18.7477 C   0  0  2  0  0  0  0  0  0  0  0  0
   20.3496  -10.2943  -18.3621 N   0  0  0  0  0  0  0  0  0  0  0  0
   19.6626   -8.1456  -17.5514 C   0  0  0  0  0  0  0  0  0  0  0  0
   19.5209   -6.9248  -17.6882 O   0  0  0  0  0  0  0  0  0  0  0  0
   19.5875   -8.7144  -16.2626 N   0  0  0  0  0  0  0  0  0  0  0  0
   19.3443   -7.9721  -15.0601 C   0  0  0  0  0  0  0  0  0  0  0  0
   20.5520   -7.4680  -14.4131 C   0  0  0  0  0  0  0  0  0  0  0  0
   21.0459   -8.0758  -13.4417 O   0  0  0  0  0  0  0  0  0  0  0  0
   21.1810   -6.2896  -14.8716 N   0  0  0  0  0  0  0  0  0  0  0  0
   22.4302   -5.8132  -14.3158 C   0  0  0  0  0  0  0  0  0  0  0  0
   22.1350   -5.0477  -13.0855 C   0  0  0  0  0  0  0  0  0  0  0  0
   21.4637   -4.0031  -13.1607 O   0  0  0  0  0  0  0  0  0  0  0  0
   22.5943   -5.4698  -11.8259 O   0  0  0  0  0  0  0  0  0  0  0  0
  2  1  1  1
  3  2  1  0
  4  6  1  0
  4  2  1  0
  5  4  2  0
  7  6  1  0
  8  7  1  0
  9  8  2  0
 10  8  1  0
 11 10  1  0
 12 11  1  0
 12 14  1  0
 13 12  2  0
M  END
$$$$
