AGG.pdb
     RDKit          3D

 14 13  0  0  1  0  0  0  0  0999 V2000
   17.3955  -11.9011  -16.7098 C   0  0  0  0  0  0  0  0  0  0  0  0
   18.8166  -11.3873  -16.7360 C   0  0  2  0  0  0  0  0  0  0  0  0
   19.3394  -11.4651  -15.4029 N   0  0  0  0  0  0  0  0  0  0  0  0
   18.8754   -9.9938  -17.2375 C   0  0  0  0  0  0  0  0  0  0  0  0
   18.5276   -9.7542  -18.3998 O   0  0  0  0  0  0  0  0  0  0  0  0
   19.3202   -8.9389  -16.4131 N   0  0  0  0  0  0  0  0  0  0  0  0
   19.3639   -7.5615  -16.8093 C   0  0  0  0  0  0  0  0  0  0  0  0
   19.8461   -6.6550  -15.7714 C   0  0  0  0  0  0  0  0  0  0  0  0
   19.8208   -5.4207  -15.9526 O   0  0  0  0  0  0  0  0  0  0  0  0
   20.3477   -7.1548  -14.5494 N   0  0  0  0  0  0  0  0  0  0  0  0
   20.7265   -6.2853  -13.4555 C   0  0  0  0  0  0  0  0  0  0  0  0
   21.9854   -5.5984  -13.8162 C   0  0  0  0  0  0  0  0  0  0  0  0
   22.5840   -5.9238  -14.8571 O   0  0  0  0  0  0  0  0  0  0  0  0
   22.5281   -4.5818  -13.0112 O   0  0  0  0  0  0  0  0  0  0  0  0
  2  1  1  1
  3  2  1  0
  4  6  1  0
  4  2  1  0
  5  4  2  0
  7  6  1  0
  8  7  1  0
  9  8  2  0
 10  8  1  0
 11 10  1  0
 12 11  1  0
 12 14  1  0
 13 12  2  0
M  END
$$$$
