AGG.pdb
     RDKit          3D

 14 13  0  0  1  0  0  0  0  0999 V2000
   18.5974  -12.1446  -18.0417 C   0  0  0  0  0  0  0  0  0  0  0  0
   18.4253  -11.0368  -17.0282 C   0  0  2  0  0  0  0  0  0  0  0  0
   18.4518   -9.7869  -17.7308 N   0  0  0  0  0  0  0  0  0  0  0  0
   19.4918  -11.0784  -15.9997 C   0  0  0  0  0  0  0  0  0  0  0  0
   19.6106  -12.0855  -15.2921 O   0  0  0  0  0  0  0  0  0  0  0  0
   20.3715   -9.9910  -15.8152 N   0  0  0  0  0  0  0  0  0  0  0  0
   21.3633   -9.9149  -14.7825 C   0  0  0  0  0  0  0  0  0  0  0  0
   21.9862   -8.6016  -14.6462 C   0  0  0  0  0  0  0  0  0  0  0  0
   22.8951   -8.4199  -13.8107 O   0  0  0  0  0  0  0  0  0  0  0  0
   21.5746   -7.5178  -15.4527 N   0  0  0  0  0  0  0  0  0  0  0  0
   22.1684   -6.2020  -15.3419 C   0  0  0  0  0  0  0  0  0  0  0  0
   21.6107   -5.5346  -14.1459 C   0  0  0  0  0  0  0  0  0  0  0  0
   21.9249   -4.3563  -13.8998 O   0  0  0  0  0  0  0  0  0  0  0  0
   20.7302   -6.1981  -13.2740 O   0  0  0  0  0  0  0  0  0  0  0  0
  2  1  1  6
  3  2  1  0
  4  6  1  0
  4  2  1  0
  5  4  2  0
  7  6  1  0
  8  7  1  0
  9  8  2  0
 10  8  1  0
 11 10  1  0
 12 11  1  0
 12 14  1  0
 13 12  2  0
M  END
$$$$
