AGG.pdb
     RDKit          3D

 14 13  0  0  1  0  0  0  0  0999 V2000
   14.2852  -11.2374   -9.7731 C   0  0  0  0  0  0  0  0  0  0  0  0
   14.1105   -9.8558  -10.3601 C   0  0  2  0  0  0  0  0  0  0  0  0
   12.7862   -9.7706  -10.9036 N   0  0  0  0  0  0  0  0  0  0  0  0
   15.1220   -9.5854  -11.4093 C   0  0  0  0  0  0  0  0  0  0  0  0
   14.9664  -10.0668  -12.5377 O   0  0  0  0  0  0  0  0  0  0  0  0
   16.2563   -8.7901  -11.1427 N   0  0  0  0  0  0  0  0  0  0  0  0
   17.3181   -8.5509  -12.0762 C   0  0  0  0  0  0  0  0  0  0  0  0
   18.4213   -7.7603  -11.5385 C   0  0  0  0  0  0  0  0  0  0  0  0
   18.4462   -7.4560  -10.3286 O   0  0  0  0  0  0  0  0  0  0  0  0
   19.4757   -7.3273  -12.3724 N   0  0  0  0  0  0  0  0  0  0  0  0
   20.6233   -6.6094  -11.8585 C   0  0  0  0  0  0  0  0  0  0  0  0
   21.5862   -6.4113  -12.9632 C   0  0  0  0  0  0  0  0  0  0  0  0
   21.3953   -6.9826  -14.0517 O   0  0  0  0  0  0  0  0  0  0  0  0
   22.7180   -5.5906  -12.8172 O   0  0  0  0  0  0  0  0  0  0  0  0
  2  1  1  6
  3  2  1  0
  4  6  1  0
  4  2  1  0
  5  4  2  0
  7  6  1  0
  8  7  1  0
  9  8  2  0
 10  8  1  0
 11 10  1  0
 12 11  1  0
 12 14  1  0
 13 12  2  0
M  END
$$$$
