AGG.pdb
     RDKit          3D

 14 13  0  0  1  0  0  0  0  0999 V2000
   21.0148  -11.5552  -18.3398 C   0  0  0  0  0  0  0  0  0  0  0  0
   21.3565  -10.1660  -17.8525 C   0  0  2  0  0  0  0  0  0  0  0  0
   22.7482  -10.1488  -17.5070 N   0  0  0  0  0  0  0  0  0  0  0  0
   20.5257   -9.7860  -16.6854 C   0  0  0  0  0  0  0  0  0  0  0  0
   19.2983   -9.7116  -16.8153 O   0  0  0  0  0  0  0  0  0  0  0  0
   21.1106   -9.5086  -15.4319 N   0  0  0  0  0  0  0  0  0  0  0  0
   20.3955   -9.0045  -14.2958 C   0  0  0  0  0  0  0  0  0  0  0  0
   20.9841   -7.8084  -13.7005 C   0  0  0  0  0  0  0  0  0  0  0  0
   21.6467   -7.8911  -12.6464 O   0  0  0  0  0  0  0  0  0  0  0  0
   20.8157   -6.5421  -14.3026 N   0  0  0  0  0  0  0  0  0  0  0  0
   21.4401   -5.3463  -13.7765 C   0  0  0  0  0  0  0  0  0  0  0  0
   22.5796   -4.9893  -14.6487 C   0  0  0  0  0  0  0  0  0  0  0  0
   23.1534   -5.8793  -15.3015 O   0  0  0  0  0  0  0  0  0  0  0  0
   23.0355   -3.6644  -14.7616 O   0  0  0  0  0  0  0  0  0  0  0  0
  2  1  1  1
  3  2  1  0
  4  6  1  0
  4  2  1  0
  5  4  2  0
  7  6  1  0
  8  7  1  0
  9  8  2  0
 10  8  1  0
 11 10  1  0
 12 11  1  0
 12 14  1  0
 13 12  2  0
M  END
$$$$
