AGG.pdb
     RDKit          3D

 14 13  0  0  1  0  0  0  0  0999 V2000
   18.8502  -11.4400  -18.1484 C   0  0  0  0  0  0  0  0  0  0  0  0
   19.1887  -10.7874  -16.8278 C   0  0  2  0  0  0  0  0  0  0  0  0
   18.1600   -9.8338  -16.5296 N   0  0  0  0  0  0  0  0  0  0  0  0
   20.5135  -10.1249  -16.8793 C   0  0  0  0  0  0  0  0  0  0  0  0
   21.5342  -10.8189  -16.9555 O   0  0  0  0  0  0  0  0  0  0  0  0
   20.6292   -8.7194  -16.8430 N   0  0  0  0  0  0  0  0  0  0  0  0
   21.8575   -8.0008  -17.0189 C   0  0  0  0  0  0  0  0  0  0  0  0
   21.9038   -6.7159  -16.3273 C   0  0  0  0  0  0  0  0  0  0  0  0
   20.9919   -5.8800  -16.4910 O   0  0  0  0  0  0  0  0  0  0  0  0
   22.9753   -6.3960  -15.4647 N   0  0  0  0  0  0  0  0  0  0  0  0
   23.0029   -5.1765  -14.6848 C   0  0  0  0  0  0  0  0  0  0  0  0
   22.0456   -5.3131  -13.5660 C   0  0  0  0  0  0  0  0  0  0  0  0
   22.2834   -6.1228  -12.6521 O   0  0  0  0  0  0  0  0  0  0  0  0
   20.8672   -4.5490  -13.5058 O   0  0  0  0  0  0  0  0  0  0  0  0
  2  1  1  6
  3  2  1  0
  4  6  1  0
  4  2  1  0
  5  4  2  0
  7  6  1  0
  8  7  1  0
  9  8  2  0
 10  8  1  0
 11 10  1  0
 12 11  1  0
 12 14  1  0
 13 12  2  0
M  END
$$$$
