AEK.pdb
     RDKit          3D

 24 23  0  0  1  0  0  0  0  0999 V2000
   16.4459  -12.9119  -14.9498 C   0  0  0  0  0  0  0  0  0  0  0  0
   17.1410  -11.7019  -15.5000 C   0  0  2  0  0  0  0  0  0  0  0  0
   17.9935  -12.0152  -16.6234 N   0  0  0  0  0  0  0  0  0  0  0  0
   17.8901  -10.9606  -14.4629 C   0  0  0  0  0  0  0  0  0  0  0  0
   19.0988  -11.1651  -14.2334 O   0  0  0  0  0  0  0  0  0  0  0  0
   17.2093   -9.9798  -13.6998 N   0  0  0  0  0  0  0  0  0  0  0  0
   17.9301   -8.9810  -12.9351 C   0  0  1  0  0  0  0  0  0  0  0  0
   18.8786   -8.1891  -13.8107 C   0  0  0  0  0  0  0  0  0  0  0  0
   19.5350   -7.0872  -13.0355 C   0  0  0  0  0  0  0  0  0  0  0  0
   20.9731   -7.3695  -12.8520 C   0  0  0  0  0  0  0  0  0  0  0  0
   21.5032   -7.1588  -11.7400 O   0  0  0  0  0  0  0  0  0  0  0  0
   17.0072   -8.0848  -12.2193 C   0  0  0  0  0  0  0  0  0  0  0  0
   16.3200   -7.2644  -12.8541 O   0  0  0  0  0  0  0  0  0  0  0  0
   21.7489   -7.8621  -13.8816 O   0  0  0  0  0  0  0  0  0  0  0  0
   16.9013   -8.1548  -10.8178 N   0  0  0  0  0  0  0  0  0  0  0  0
   15.9371   -7.3348  -10.1291 C   0  0  1  0  0  0  0  0  0  0  0  0
   14.8798   -8.1740   -9.4412 C   0  0  0  0  0  0  0  0  0  0  0  0
   13.8109   -7.3086   -8.7863 C   0  0  0  0  0  0  0  0  0  0  0  0
   12.7454   -8.2568   -8.2768 C   0  0  0  0  0  0  0  0  0  0  0  0
   11.5689   -7.5070   -7.6861 C   0  0  0  0  0  0  0  0  0  0  0  0
   10.6195   -8.4841   -7.2099 N   0  0  0  0  0  0  0  0  0  0  0  0
   16.6468   -6.4551   -9.1726 C   0  0  0  0  0  0  0  0  0  0  0  0
   17.8178   -6.6873   -8.7894 O   0  0  0  0  0  0  0  0  0  0  0  0
   16.0148   -5.3273   -8.6679 O   0  0  0  0  0  0  0  0  0  0  0  0
  2  3  1  0
  2  1  1  1
  4  2  1  0
  4  5  2  0
  6  4  1  0
  7  6  1  0
  7 12  1  0
  7  8  1  6
  9  8  1  0
  9 10  1  0
 10 11  2  0
 12 13  2  0
 12 15  1  0
 14 10  1  0
 15 16  1  0
 16 22  1  0
 16 17  1  1
 18 17  1  0
 19 18  1  0
 20 19  1  0
 21 20  1  0
 22 23  2  0
 22 24  1  0
M  END
$$$$
