AEK.pdb
     RDKit          3D

 24 23  0  0  1  0  0  0  0  0999 V2000
   21.0006  -14.3349  -16.0496 C   0  0  0  0  0  0  0  0  0  0  0  0
   20.9585  -13.1147  -16.9208 C   0  0  2  0  0  0  0  0  0  0  0  0
   21.7346  -13.2693  -18.1294 N   0  0  0  0  0  0  0  0  0  0  0  0
   21.3551  -11.8889  -16.1953 C   0  0  0  0  0  0  0  0  0  0  0  0
   20.8529  -11.5651  -15.1006 O   0  0  0  0  0  0  0  0  0  0  0  0
   22.3439  -11.0489  -16.7650 N   0  0  0  0  0  0  0  0  0  0  0  0
   22.7924   -9.8448  -16.0935 C   0  0  1  0  0  0  0  0  0  0  0  0
   24.2925   -9.6715  -16.2073 C   0  0  0  0  0  0  0  0  0  0  0  0
   25.0091  -10.4793  -15.1681 C   0  0  0  0  0  0  0  0  0  0  0  0
   26.4680  -10.2712  -15.2664 C   0  0  0  0  0  0  0  0  0  0  0  0
   26.9153   -9.1116  -15.3983 O   0  0  0  0  0  0  0  0  0  0  0  0
   22.0884   -8.6549  -16.5993 C   0  0  0  0  0  0  0  0  0  0  0  0
   22.1120   -8.3885  -17.8145 O   0  0  0  0  0  0  0  0  0  0  0  0
   27.3528  -11.3291  -15.2160 O   0  0  0  0  0  0  0  0  0  0  0  0
   21.3887   -7.8183  -15.7100 N   0  0  0  0  0  0  0  0  0  0  0  0
   20.6884   -6.6633  -16.2119 C   0  0  1  0  0  0  0  0  0  0  0  0
   19.2279   -6.9670  -16.4770 C   0  0  0  0  0  0  0  0  0  0  0  0
   18.4618   -5.7219  -16.9053 C   0  0  0  0  0  0  0  0  0  0  0  0
   17.0433   -6.1694  -17.1907 C   0  0  0  0  0  0  0  0  0  0  0  0
   16.2080   -5.0419  -17.7621 C   0  0  0  0  0  0  0  0  0  0  0  0
   14.8713   -5.5459  -17.9673 N   0  0  0  0  0  0  0  0  0  0  0  0
   20.8509   -5.5461  -15.2538 C   0  0  0  0  0  0  0  0  0  0  0  0
   20.4131   -4.3944  -15.4858 O   0  0  0  0  0  0  0  0  0  0  0  0
   21.5077   -5.7560  -14.0493 O   0  0  0  0  0  0  0  0  0  0  0  0
  2  3  1  0
  2  1  1  1
  4  2  1  0
  4  5  2  0
  6  4  1  0
  7  6  1  0
  7 12  1  0
  7  8  1  6
  9  8  1  0
  9 10  1  0
 10 11  2  0
 12 13  2  0
 12 15  1  0
 14 10  1  0
 15 16  1  0
 16 22  1  0
 16 17  1  1
 18 17  1  0
 19 18  1  0
 20 19  1  0
 21 20  1  0
 22 23  2  0
 22 24  1  0
M  END
$$$$
