AEK.pdb
     RDKit          3D

 24 23  0  0  1  0  0  0  0  0999 V2000
   22.2186  -18.7030  -19.9742 C   0  0  0  0  0  0  0  0  0  0  0  0
   22.2816  -17.8162  -18.7661 C   0  0  2  0  0  0  0  0  0  0  0  0
   23.4172  -18.1086  -17.9224 N   0  0  0  0  0  0  0  0  0  0  0  0
   21.0270  -17.8374  -17.9841 C   0  0  0  0  0  0  0  0  0  0  0  0
   19.9186  -17.5645  -18.4864 O   0  0  0  0  0  0  0  0  0  0  0  0
   21.0851  -18.1811  -16.6106 N   0  0  0  0  0  0  0  0  0  0  0  0
   19.9143  -18.0985  -15.7596 C   0  0  1  0  0  0  0  0  0  0  0  0
   20.0851  -18.9199  -14.4988 C   0  0  0  0  0  0  0  0  0  0  0  0
   21.1530  -18.3427  -13.6198 C   0  0  0  0  0  0  0  0  0  0  0  0
   21.3331  -19.1729  -12.4116 C   0  0  0  0  0  0  0  0  0  0  0  0
   21.9642  -20.2485  -12.4942 O   0  0  0  0  0  0  0  0  0  0  0  0
   19.5862  -16.7010  -15.4331 C   0  0  0  0  0  0  0  0  0  0  0  0
   20.4918  -15.8510  -15.3589 O   0  0  0  0  0  0  0  0  0  0  0  0
   20.8199  -18.7892  -11.1893 O   0  0  0  0  0  0  0  0  0  0  0  0
   18.2494  -16.3252  -15.2049 N   0  0  0  0  0  0  0  0  0  0  0  0
   17.9251  -14.9439  -14.9533 C   0  0  1  0  0  0  0  0  0  0  0  0
   18.2786  -14.0630  -16.1341 C   0  0  0  0  0  0  0  0  0  0  0  0
   17.7943  -12.6324  -15.9353 C   0  0  0  0  0  0  0  0  0  0  0  0
   18.2523  -11.8529  -17.1504 C   0  0  0  0  0  0  0  0  0  0  0  0
   17.9322  -10.3779  -17.0189 C   0  0  0  0  0  0  0  0  0  0  0  0
   18.2278   -9.7497  -18.2842 N   0  0  0  0  0  0  0  0  0  0  0  0
   16.4902  -14.8410  -14.6026 C   0  0  0  0  0  0  0  0  0  0  0  0
   15.9329  -13.7416  -14.3728 O   0  0  0  0  0  0  0  0  0  0  0  0
   15.7131  -15.9879  -14.5190 O   0  0  0  0  0  0  0  0  0  0  0  0
  2  3  1  0
  2  1  1  6
  4  2  1  0
  4  5  2  0
  6  4  1  0
  7  6  1  0
  7 12  1  0
  7  8  1  1
  9  8  1  0
  9 10  1  0
 10 11  2  0
 12 13  2  0
 12 15  1  0
 14 10  1  0
 15 16  1  0
 16 22  1  0
 16 17  1  6
 18 17  1  0
 19 18  1  0
 20 19  1  0
 21 20  1  0
 22 23  2  0
 22 24  1  0
M  END
$$$$
