AEK.pdb
     RDKit          3D

 24 23  0  0  1  0  0  0  0  0999 V2000
   15.4417  -12.9157  -13.8478 C   0  0  0  0  0  0  0  0  0  0  0  0
   14.8320  -11.6662  -14.4106 C   0  0  2  0  0  0  0  0  0  0  0  0
   13.7467  -11.9415  -15.3235 N   0  0  0  0  0  0  0  0  0  0  0  0
   15.8360  -10.7817  -15.0398 C   0  0  0  0  0  0  0  0  0  0  0  0
   16.4016  -11.0666  -16.1142 O   0  0  0  0  0  0  0  0  0  0  0  0
   16.1691   -9.5632  -14.3980 N   0  0  0  0  0  0  0  0  0  0  0  0
   16.9828   -8.5593  -15.0554 C   0  0  1  0  0  0  0  0  0  0  0  0
   16.4299   -7.1665  -14.8374 C   0  0  0  0  0  0  0  0  0  0  0  0
   17.2090   -6.1493  -15.6149 C   0  0  0  0  0  0  0  0  0  0  0  0
   16.6380   -4.8011  -15.4202 C   0  0  0  0  0  0  0  0  0  0  0  0
   17.3563   -3.7966  -15.6125 O   0  0  0  0  0  0  0  0  0  0  0  0
   18.3872   -8.6387  -14.6209 C   0  0  0  0  0  0  0  0  0  0  0  0
   18.6598   -8.7096  -13.4089 O   0  0  0  0  0  0  0  0  0  0  0  0
   15.3264   -4.6224  -15.0299 O   0  0  0  0  0  0  0  0  0  0  0  0
   19.4218   -8.6346  -15.5748 N   0  0  0  0  0  0  0  0  0  0  0  0
   20.7923   -8.7595  -15.1475 C   0  0  1  0  0  0  0  0  0  0  0  0
   21.5957   -9.6277  -16.0942 C   0  0  0  0  0  0  0  0  0  0  0  0
   23.0552   -9.7249  -15.6688 C   0  0  0  0  0  0  0  0  0  0  0  0
   23.7171  -10.6920  -16.6281 C   0  0  0  0  0  0  0  0  0  0  0  0
   25.1874  -10.8728  -16.3107 C   0  0  0  0  0  0  0  0  0  0  0  0
   25.7034  -11.8969  -17.1871 N   0  0  0  0  0  0  0  0  0  0  0  0
   21.3805   -7.4075  -15.0108 C   0  0  0  0  0  0  0  0  0  0  0  0
   21.1122   -6.4756  -15.8055 O   0  0  0  0  0  0  0  0  0  0  0  0
   22.2628   -7.1371  -13.9742 O   0  0  0  0  0  0  0  0  0  0  0  0
  2  3  1  0
  2  1  1  6
  4  2  1  0
  4  5  2  0
  6  4  1  0
  7  6  1  0
  7 12  1  0
  7  8  1  1
  9  8  1  0
  9 10  1  0
 10 11  2  0
 12 13  2  0
 12 15  1  0
 14 10  1  0
 15 16  1  0
 16 22  1  0
 16 17  1  6
 18 17  1  0
 19 18  1  0
 20 19  1  0
 21 20  1  0
 22 23  2  0
 22 24  1  0
M  END
$$$$
