AEK.pdb
     RDKit          3D

 24 23  0  0  1  0  0  0  0  0999 V2000
   19.6437  -12.4419    5.0176 C   0  0  0  0  0  0  0  0  0  0  0  0
   18.3081  -13.1044    4.8530 C   0  0  2  0  0  0  0  0  0  0  0  0
   17.2083  -12.2171    5.1531 N   0  0  0  0  0  0  0  0  0  0  0  0
   18.1995  -14.3571    5.6308 C   0  0  0  0  0  0  0  0  0  0  0  0
   17.8448  -14.3759    6.8263 O   0  0  0  0  0  0  0  0  0  0  0  0
   18.5102  -15.5844    4.9942 N   0  0  0  0  0  0  0  0  0  0  0  0
   18.3925  -16.8498    5.6918 C   0  0  1  0  0  0  0  0  0  0  0  0
   18.0427  -17.9767    4.7426 C   0  0  0  0  0  0  0  0  0  0  0  0
   16.6027  -17.9091    4.3327 C   0  0  0  0  0  0  0  0  0  0  0  0
   16.2856  -18.9900    3.3774 C   0  0  0  0  0  0  0  0  0  0  0  0
   17.1068  -19.2765    2.4798 O   0  0  0  0  0  0  0  0  0  0  0  0
   19.6177  -17.1623    6.4459 C   0  0  0  0  0  0  0  0  0  0  0  0
   20.7312  -16.8827    5.9662 O   0  0  0  0  0  0  0  0  0  0  0  0
   15.1009  -19.6939    3.4514 O   0  0  0  0  0  0  0  0  0  0  0  0
   19.5310  -17.7768    7.7090 N   0  0  0  0  0  0  0  0  0  0  0  0
   20.7088  -17.8987    8.5301 C   0  0  1  0  0  0  0  0  0  0  0  0
   21.2082  -16.5461    8.9951 C   0  0  0  0  0  0  0  0  0  0  0  0
   22.4025  -16.6773    9.9315 C   0  0  0  0  0  0  0  0  0  0  0  0
   22.8102  -15.2674   10.3052 C   0  0  0  0  0  0  0  0  0  0  0  0
   24.0383  -15.2595   11.1924 C   0  0  0  0  0  0  0  0  0  0  0  0
   24.2964  -13.8915   11.5732 N   0  0  0  0  0  0  0  0  0  0  0  0
   20.4116  -18.7952    9.6705 C   0  0  0  0  0  0  0  0  0  0  0  0
   19.2414  -19.0160   10.0630 O   0  0  0  0  0  0  0  0  0  0  0  0
   21.4479  -19.4251   10.3454 O   0  0  0  0  0  0  0  0  0  0  0  0
  2  3  1  0
  2  1  1  1
  4  2  1  0
  4  5  2  0
  6  4  1  0
  7  6  1  0
  7 12  1  0
  7  8  1  6
  9  8  1  0
  9 10  1  0
 10 11  2  0
 12 13  2  0
 12 15  1  0
 14 10  1  0
 15 16  1  0
 16 22  1  0
 16 17  1  1
 18 17  1  0
 19 18  1  0
 20 19  1  0
 21 20  1  0
 22 23  2  0
 22 24  1  0
M  END
$$$$
