AEK.pdb
     RDKit          3D

 24 23  0  0  1  0  0  0  0  0999 V2000
   19.1672  -11.3873  -18.8000 C   0  0  0  0  0  0  0  0  0  0  0  0
   20.2461  -10.8703  -17.8953 C   0  0  2  0  0  0  0  0  0  0  0  0
   20.8658  -11.9175  -17.1167 N   0  0  0  0  0  0  0  0  0  0  0  0
   19.7734   -9.7755  -17.0211 C   0  0  0  0  0  0  0  0  0  0  0  0
   18.7524   -9.8765  -16.3121 O   0  0  0  0  0  0  0  0  0  0  0  0
   20.5082   -8.5644  -16.9869 N   0  0  0  0  0  0  0  0  0  0  0  0
   20.1462   -7.4846  -16.0898 C   0  0  1  0  0  0  0  0  0  0  0  0
   21.3716   -6.8100  -15.5097 C   0  0  0  0  0  0  0  0  0  0  0  0
   20.9870   -5.7476  -14.5251 C   0  0  0  0  0  0  0  0  0  0  0  0
   22.1905   -5.1569  -13.9052 C   0  0  0  0  0  0  0  0  0  0  0  0
   23.3118   -5.6535  -14.1461 O   0  0  0  0  0  0  0  0  0  0  0  0
   19.2748   -6.5030  -16.7566 C   0  0  0  0  0  0  0  0  0  0  0  0
   19.4923   -6.1805  -17.9384 O   0  0  0  0  0  0  0  0  0  0  0  0
   22.1073   -4.0662  -13.0638 O   0  0  0  0  0  0  0  0  0  0  0  0
   18.1961   -5.9287  -16.0587 N   0  0  0  0  0  0  0  0  0  0  0  0
   17.3439   -4.9710  -16.7167 C   0  0  1  0  0  0  0  0  0  0  0  0
   15.8996   -5.1178  -16.2834 C   0  0  0  0  0  0  0  0  0  0  0  0
   14.9839   -4.1650  -17.0412 C   0  0  0  0  0  0  0  0  0  0  0  0
   13.5790   -4.4361  -16.5445 C   0  0  0  0  0  0  0  0  0  0  0  0
   12.5608   -3.5650  -17.2514 C   0  0  0  0  0  0  0  0  0  0  0  0
   11.2802   -3.7890  -16.6243 N   0  0  0  0  0  0  0  0  0  0  0  0
   17.8587   -3.6074  -16.4559 C   0  0  0  0  0  0  0  0  0  0  0  0
   17.6107   -2.6403  -17.2144 O   0  0  0  0  0  0  0  0  0  0  0  0
   18.6459   -3.3656  -15.3388 O   0  0  0  0  0  0  0  0  0  0  0  0
  2  3  1  0
  2  1  1  1
  4  2  1  0
  4  5  2  0
  6  4  1  0
  7  6  1  0
  7 12  1  0
  7  8  1  6
  9  8  1  0
  9 10  1  0
 10 11  2  0
 12 13  2  0
 12 15  1  0
 14 10  1  0
 15 16  1  0
 16 22  1  0
 16 17  1  1
 18 17  1  0
 19 18  1  0
 20 19  1  0
 21 20  1  0
 22 23  2  0
 22 24  1  0
M  END
$$$$
