AEK.pdb
     RDKit          3D

 24 23  0  0  1  0  0  0  0  0999 V2000
   24.7208  -22.5224  -15.3002 C   0  0  0  0  0  0  0  0  0  0  0  0
   24.6030  -21.0271  -15.2909 C   0  0  2  0  0  0  0  0  0  0  0  0
   25.8894  -20.3698  -15.2747 N   0  0  0  0  0  0  0  0  0  0  0  0
   23.7478  -20.5348  -14.1899 C   0  0  0  0  0  0  0  0  0  0  0  0
   23.9418  -19.4381  -13.6287 O   0  0  0  0  0  0  0  0  0  0  0  0
   22.6655  -21.3394  -13.7549 N   0  0  0  0  0  0  0  0  0  0  0  0
   21.4383  -20.7513  -13.2551 C   0  0  1  0  0  0  0  0  0  0  0  0
   20.8332  -19.7920  -14.2585 C   0  0  0  0  0  0  0  0  0  0  0  0
   19.6379  -19.0939  -13.6842 C   0  0  0  0  0  0  0  0  0  0  0  0
   19.0895  -18.1246  -14.6543 C   0  0  0  0  0  0  0  0  0  0  0  0
   18.1034  -17.4265  -14.3342 O   0  0  0  0  0  0  0  0  0  0  0  0
   20.4658  -21.7870  -12.8692 C   0  0  0  0  0  0  0  0  0  0  0  0
   19.9558  -22.5158  -13.7392 O   0  0  0  0  0  0  0  0  0  0  0  0
   19.6407  -17.9699  -15.9100 O   0  0  0  0  0  0  0  0  0  0  0  0
   20.1121  -21.9538  -11.5173 N   0  0  0  0  0  0  0  0  0  0  0  0
   19.2491  -23.0409  -11.1301 C   0  0  1  0  0  0  0  0  0  0  0  0
   19.3128  -23.3010   -9.6390 C   0  0  0  0  0  0  0  0  0  0  0  0
   18.4177  -24.4639   -9.2306 C   0  0  0  0  0  0  0  0  0  0  0  0
   18.7502  -24.7730   -7.7857 C   0  0  0  0  0  0  0  0  0  0  0  0
   17.8801  -25.8868   -7.2401 C   0  0  0  0  0  0  0  0  0  0  0  0
   18.2416  -26.0895   -5.8576 N   0  0  0  0  0  0  0  0  0  0  0  0
   17.8688  -22.7439  -11.5764 C   0  0  0  0  0  0  0  0  0  0  0  0
   17.3829  -21.5889  -11.5310 O   0  0  0  0  0  0  0  0  0  0  0  0
   17.0643  -23.7632  -12.0663 O   0  0  0  0  0  0  0  0  0  0  0  0
  2  3  1  0
  2  1  1  1
  4  2  1  0
  4  5  2  0
  6  4  1  0
  7  6  1  0
  7 12  1  0
  7  8  1  6
  9  8  1  0
  9 10  1  0
 10 11  2  0
 12 13  2  0
 12 15  1  0
 14 10  1  0
 15 16  1  0
 16 22  1  0
 16 17  1  1
 18 17  1  0
 19 18  1  0
 20 19  1  0
 21 20  1  0
 22 23  2  0
 22 24  1  0
M  END
$$$$
