AEK.pdb
     RDKit          3D

 24 23  0  0  1  0  0  0  0  0999 V2000
   20.4913  -12.9047  -17.5093 C   0  0  0  0  0  0  0  0  0  0  0  0
   21.6089  -13.8232  -17.9060 C   0  0  2  0  0  0  0  0  0  0  0  0
   21.9663  -13.6918  -19.2995 N   0  0  0  0  0  0  0  0  0  0  0  0
   21.3274  -15.2345  -17.5668 C   0  0  0  0  0  0  0  0  0  0  0  0
   20.4181  -15.8879  -18.1160 O   0  0  0  0  0  0  0  0  0  0  0  0
   22.1209  -15.8701  -16.5798 N   0  0  0  0  0  0  0  0  0  0  0  0
   21.9221  -17.2630  -16.2305 C   0  0  1  0  0  0  0  0  0  0  0  0
   23.2391  -17.9639  -15.9709 C   0  0  0  0  0  0  0  0  0  0  0  0
   24.0127  -18.1458  -17.2416 C   0  0  0  0  0  0  0  0  0  0  0  0
   25.2483  -18.9147  -16.9893 C   0  0  0  0  0  0  0  0  0  0  0  0
   25.4920  -19.3232  -15.8335 O   0  0  0  0  0  0  0  0  0  0  0  0
   21.0187  -17.4027  -15.0764 C   0  0  0  0  0  0  0  0  0  0  0  0
   21.1723  -16.6794  -14.0757 O   0  0  0  0  0  0  0  0  0  0  0  0
   26.1436  -19.1943  -18.0016 O   0  0  0  0  0  0  0  0  0  0  0  0
   19.9816  -18.3535  -15.1036 N   0  0  0  0  0  0  0  0  0  0  0  0
   19.0895  -18.4749  -13.9785 C   0  0  1  0  0  0  0  0  0  0  0  0
   17.8304  -17.6550  -14.1728 C   0  0  0  0  0  0  0  0  0  0  0  0
   16.7325  -18.4608  -14.8554 C   0  0  0  0  0  0  0  0  0  0  0  0
   15.6802  -18.7301  -13.7999 C   0  0  0  0  0  0  0  0  0  0  0  0
   14.5137  -19.5151  -14.3641 C   0  0  0  0  0  0  0  0  0  0  0  0
   13.5367  -19.6668  -13.3127 N   0  0  0  0  0  0  0  0  0  0  0  0
   18.7830  -19.9066  -13.7576 C   0  0  0  0  0  0  0  0  0  0  0  0
   19.0312  -20.7860  -14.6161 O   0  0  0  0  0  0  0  0  0  0  0  0
   18.2000  -20.3147  -12.5661 O   0  0  0  0  0  0  0  0  0  0  0  0
  2  3  1  0
  2  1  1  6
  4  2  1  0
  4  5  2  0
  6  4  1  0
  7  6  1  0
  7 12  1  0
  7  8  1  1
  9  8  1  0
  9 10  1  0
 10 11  2  0
 12 13  2  0
 12 15  1  0
 14 10  1  0
 15 16  1  0
 16 22  1  0
 16 17  1  6
 18 17  1  0
 19 18  1  0
 20 19  1  0
 21 20  1  0
 22 23  2  0
 22 24  1  0
M  END
$$$$
