AEK.pdb
     RDKit          3D

 24 23  0  0  1  0  0  0  0  0999 V2000
   16.0479  -13.0052  -14.2406 C   0  0  0  0  0  0  0  0  0  0  0  0
   15.6925  -12.1689  -15.4340 C   0  0  2  0  0  0  0  0  0  0  0  0
   15.2769  -12.9655  -16.5653 N   0  0  0  0  0  0  0  0  0  0  0  0
   16.7777  -11.2402  -15.8161 C   0  0  0  0  0  0  0  0  0  0  0  0
   17.6690  -11.5491  -16.6318 O   0  0  0  0  0  0  0  0  0  0  0  0
   16.8069   -9.9488  -15.2334 N   0  0  0  0  0  0  0  0  0  0  0  0
   17.7277   -8.9298  -15.6975 C   0  0  1  0  0  0  0  0  0  0  0  0
   17.1301   -7.5438  -15.5748 C   0  0  0  0  0  0  0  0  0  0  0  0
   18.0173   -6.5159  -16.2091 C   0  0  0  0  0  0  0  0  0  0  0  0
   17.3972   -5.1777  -16.1299 C   0  0  0  0  0  0  0  0  0  0  0  0
   16.3276   -5.0330  -15.4998 O   0  0  0  0  0  0  0  0  0  0  0  0
   19.0160   -9.0086  -14.9894 C   0  0  0  0  0  0  0  0  0  0  0  0
   19.0383   -9.1608  -13.7547 O   0  0  0  0  0  0  0  0  0  0  0  0
   17.9715   -4.0792  -16.7365 O   0  0  0  0  0  0  0  0  0  0  0  0
   20.2225   -8.9119  -15.7074 N   0  0  0  0  0  0  0  0  0  0  0  0
   21.4793   -9.0960  -15.0269 C   0  0  1  0  0  0  0  0  0  0  0  0
   22.4932   -9.7986  -15.9064 C   0  0  0  0  0  0  0  0  0  0  0  0
   23.8361   -9.9553  -15.2045 C   0  0  0  0  0  0  0  0  0  0  0  0
   24.7981  -10.5026  -16.2385 C   0  0  0  0  0  0  0  0  0  0  0  0
   26.1692  -10.7543  -15.6452 C   0  0  0  0  0  0  0  0  0  0  0  0
   27.0463  -11.1535  -16.7197 N   0  0  0  0  0  0  0  0  0  0  0  0
   21.9744   -7.7798  -14.5631 C   0  0  0  0  0  0  0  0  0  0  0  0
   22.0581   -6.7879  -15.3254 O   0  0  0  0  0  0  0  0  0  0  0  0
   22.3658   -7.6128  -13.2421 O   0  0  0  0  0  0  0  0  0  0  0  0
  2  3  1  0
  2  1  1  1
  4  2  1  0
  4  5  2  0
  6  4  1  0
  7  6  1  0
  7 12  1  0
  7  8  1  1
  9  8  1  0
  9 10  1  0
 10 11  2  0
 12 13  2  0
 12 15  1  0
 14 10  1  0
 15 16  1  0
 16 22  1  0
 16 17  1  6
 18 17  1  0
 19 18  1  0
 20 19  1  0
 21 20  1  0
 22 23  2  0
 22 24  1  0
M  END
$$$$
