DPW.pdb
     RDKit          3D

 30 32  0  0  1  0  0  0  0  0999 V2000
    8.1815  -18.8035   18.0918 N   0  0  0  0  0  0  0  0  0  0  0  0
    7.7126  -17.7469   18.9368 C   0  0  1  0  0  0  0  0  0  0  0  0
    7.2284  -18.3438   20.2348 C   0  0  0  0  0  0  0  0  0  0  0  0
    6.1880  -19.3435   19.9466 C   0  0  0  0  0  0  0  0  0  0  0  0
    5.4016  -19.1921   18.9890 O   0  0  0  0  0  0  0  0  0  0  0  0
    8.7358  -16.6990   19.1742 C   0  0  0  0  0  0  0  0  0  0  0  0
    9.9110  -17.0164   18.7856 O   0  0  0  0  0  0  0  0  0  0  0  0
    6.0758  -20.4623   20.7399 O   0  0  0  0  0  0  0  0  0  0  0  0
    8.4955  -15.4431   19.7720 N   0  0  0  0  0  0  0  0  0  0  0  0
    7.3344  -14.9512   20.4663 C   0  0  0  0  0  0  0  0  0  0  0  0
    7.4192  -13.4230   20.4348 C   0  0  0  0  0  0  0  0  0  0  0  0
    8.5411  -13.1918   19.4111 C   0  0  0  0  0  0  0  0  0  0  0  0
    9.4407  -14.3492   19.7940 C   0  0  1  0  0  0  0  0  0  0  0  0
    9.9529  -14.1072   21.1797 C   0  0  0  0  0  0  0  0  0  0  0  0
   10.3023  -12.9525   21.5705 O   0  0  0  0  0  0  0  0  0  0  0  0
   10.0515  -15.1980   22.0840 N   0  0  0  0  0  0  0  0  0  0  0  0
    9.5603  -15.0969   23.4622 C   0  0  1  0  0  0  0  0  0  0  0  0
    8.0427  -14.9159   23.3194 C   0  0  0  0  0  0  0  0  0  0  0  0
    7.4003  -14.6835   24.6231 C   0  0  0  0  0  0  0  0  0  0  0  0
    6.7740  -15.6045   25.4363 C   0  0  0  0  0  0  0  0  0  0  0  0
    6.3259  -14.9673   26.5329 N   0  0  0  0  0  0  0  0  0  0  0  0
    6.6399  -13.6580   26.4620 C   0  0  0  0  0  0  0  0  0  0  0  0
    6.4350  -12.5845   27.2738 C   0  0  0  0  0  0  0  0  0  0  0  0
    6.8830  -11.3308   26.9284 C   0  0  0  0  0  0  0  0  0  0  0  0
    7.5589  -11.1080   25.7447 C   0  0  0  0  0  0  0  0  0  0  0  0
    7.7629  -12.2046   24.9252 C   0  0  0  0  0  0  0  0  0  0  0  0
    7.3187  -13.4727   25.2577 C   0  0  0  0  0  0  0  0  0  0  0  0
    9.7858  -16.3840   24.1668 C   0  0  0  0  0  0  0  0  0  0  0  0
    9.6084  -17.4977   23.6441 O   0  0  0  0  0  0  0  0  0  0  0  0
   10.2182  -16.3535   25.4813 O   0  0  0  0  0  0  0  0  0  0  0  0
  2  1  1  6
  2  6  1  0
  3  2  1  0
  4  8  1  0
  4  3  1  0
  5  4  2  0
  6  7  2  0
  9  6  1  0
  9 13  1  0
 10  9  1  0
 11 10  1  0
 11 12  1  0
 12 13  1  0
 13 14  1  1
 14 15  2  0
 16 14  1  0
 17 16  1  0
 17 28  1  0
 17 18  1  6
 19 18  1  0
 20 19  2  0
 21 22  1  0
 21 20  1  0
 22 27  2  0
 23 24  2  0
 23 22  1  0
 24 25  1  0
 25 26  2  0
 27 26  1  0
 27 19  1  0
 28 29  2  0
 28 30  1  0
M  END
$$$$
