DPW.pdb
     RDKit          3D

 30 32  0  0  1  0  0  0  0  0999 V2000
    6.1866  -19.1479   20.0457 N   0  0  0  0  0  0  0  0  0  0  0  0
    6.1540  -17.9176   20.7776 C   0  0  1  0  0  0  0  0  0  0  0  0
    5.6419  -18.1955   22.1690 C   0  0  0  0  0  0  0  0  0  0  0  0
    6.3709  -19.3439   22.7300 C   0  0  0  0  0  0  0  0  0  0  0  0
    6.2442  -20.4849   22.2395 O   0  0  0  0  0  0  0  0  0  0  0  0
    7.4691  -17.2317   20.8145 C   0  0  0  0  0  0  0  0  0  0  0  0
    8.4249  -17.9026   20.2957 O   0  0  0  0  0  0  0  0  0  0  0  0
    7.2049  -19.1637   23.8096 O   0  0  0  0  0  0  0  0  0  0  0  0
    7.7081  -15.9522   21.3606 N   0  0  0  0  0  0  0  0  0  0  0  0
    6.8517  -15.1017   22.1451 C   0  0  0  0  0  0  0  0  0  0  0  0
    7.4070  -13.6809   22.0160 C   0  0  0  0  0  0  0  0  0  0  0  0
    8.4139  -13.8406   20.8667 C   0  0  0  0  0  0  0  0  0  0  0  0
    8.9441  -15.2157   21.2180 C   0  0  1  0  0  0  0  0  0  0  0  0
    9.6683  -15.1199   22.5247 C   0  0  0  0  0  0  0  0  0  0  0  0
   10.4447  -14.1526   22.7888 O   0  0  0  0  0  0  0  0  0  0  0  0
    9.4831  -16.1380   23.4977 N   0  0  0  0  0  0  0  0  0  0  0  0
   10.3676  -16.2548   24.6617 C   0  0  1  0  0  0  0  0  0  0  0  0
   10.0384  -15.0270   25.5221 C   0  0  0  0  0  0  0  0  0  0  0  0
    8.5882  -14.8838   25.7286 C   0  0  0  0  0  0  0  0  0  0  0  0
    7.6218  -15.8659   25.6683 C   0  0  0  0  0  0  0  0  0  0  0  0
    6.4269  -15.3017   25.9192 N   0  0  0  0  0  0  0  0  0  0  0  0
    6.5820  -13.9808   26.1417 C   0  0  0  0  0  0  0  0  0  0  0  0
    5.7319  -12.9583   26.4338 C   0  0  0  0  0  0  0  0  0  0  0  0
    6.1920  -11.6745   26.6118 C   0  0  0  0  0  0  0  0  0  0  0  0
    7.5343  -11.3685   26.5019 C   0  0  0  0  0  0  0  0  0  0  0  0
    8.3916  -12.4136   26.2048 C   0  0  0  0  0  0  0  0  0  0  0  0
    7.9452  -13.7111   26.0226 C   0  0  0  0  0  0  0  0  0  0  0  0
    9.9969  -17.4570   25.4500 C   0  0  0  0  0  0  0  0  0  0  0  0
   10.5832  -17.8103   26.4874 O   0  0  0  0  0  0  0  0  0  0  0  0
    8.9395  -18.2361   25.0132 O   0  0  0  0  0  0  0  0  0  0  0  0
  2  1  1  6
  2  6  1  0
  3  2  1  0
  4  8  1  0
  4  3  1  0
  5  4  2  0
  6  7  2  0
  9  6  1  0
  9 13  1  0
 10  9  1  0
 11 10  1  0
 11 12  1  0
 12 13  1  0
 13 14  1  1
 14 15  2  0
 16 14  1  0
 17 16  1  0
 17 28  1  0
 17 18  1  1
 19 18  1  0
 20 19  2  0
 21 22  1  0
 21 20  1  0
 22 27  2  0
 23 24  2  0
 23 22  1  0
 24 25  1  0
 25 26  2  0
 27 26  1  0
 27 19  1  0
 28 29  2  0
 28 30  1  0
M  END
$$$$
