DPW.pdb
     RDKit          3D

 30 32  0  0  1  0  0  0  0  0999 V2000
    9.3980  -15.6121   16.8430 N   0  0  0  0  0  0  0  0  0  0  0  0
    9.3274  -16.6568   17.8198 C   0  0  1  0  0  0  0  0  0  0  0  0
   10.6842  -17.3063   17.9328 C   0  0  0  0  0  0  0  0  0  0  0  0
   11.1135  -17.7596   16.6005 C   0  0  0  0  0  0  0  0  0  0  0  0
   10.4479  -18.6036   15.9654 O   0  0  0  0  0  0  0  0  0  0  0  0
    8.8456  -16.1821   19.1404 C   0  0  0  0  0  0  0  0  0  0  0  0
    9.0251  -14.9338   19.3461 O   0  0  0  0  0  0  0  0  0  0  0  0
   12.2631  -17.2497   16.0419 O   0  0  0  0  0  0  0  0  0  0  0  0
    8.2353  -16.9883   20.1253 N   0  0  0  0  0  0  0  0  0  0  0  0
    8.0073  -18.4093   20.1529 C   0  0  0  0  0  0  0  0  0  0  0  0
    6.8870  -18.6543   21.1670 C   0  0  0  0  0  0  0  0  0  0  0  0
    6.3672  -17.2294   21.4109 C   0  0  0  0  0  0  0  0  0  0  0  0
    7.6912  -16.4940   21.3703 C   0  0  1  0  0  0  0  0  0  0  0  0
    8.5151  -16.9458   22.5357 C   0  0  0  0  0  0  0  0  0  0  0  0
    9.1259  -18.0572   22.5312 O   0  0  0  0  0  0  0  0  0  0  0  0
    8.6180  -16.1096   23.6793 N   0  0  0  0  0  0  0  0  0  0  0  0
    9.7040  -16.2721   24.6515 C   0  0  1  0  0  0  0  0  0  0  0  0
    9.5478  -15.0818   25.6081 C   0  0  0  0  0  0  0  0  0  0  0  0
    8.1363  -14.6956   25.7655 C   0  0  0  0  0  0  0  0  0  0  0  0
    7.0289  -15.5173   25.7831 C   0  0  0  0  0  0  0  0  0  0  0  0
    5.9351  -14.7522   25.9478 N   0  0  0  0  0  0  0  0  0  0  0  0
    6.2929  -13.4553   26.0384 C   0  0  0  0  0  0  0  0  0  0  0  0
    5.6108  -12.2890   26.2054 C   0  0  0  0  0  0  0  0  0  0  0  0
    6.2644  -11.0802   26.2626 C   0  0  0  0  0  0  0  0  0  0  0  0
    7.6389  -10.9984   26.1532 C   0  0  0  0  0  0  0  0  0  0  0  0
    8.3245  -12.1887   25.9836 C   0  0  0  0  0  0  0  0  0  0  0  0
    7.6822  -13.4134   25.9240 C   0  0  0  0  0  0  0  0  0  0  0  0
    9.4811  -17.5069   25.4450 C   0  0  0  0  0  0  0  0  0  0  0  0
    8.4123  -18.1415   25.4492 O   0  0  0  0  0  0  0  0  0  0  0  0
   10.5160  -17.9874   26.2285 O   0  0  0  0  0  0  0  0  0  0  0  0
  2  1  1  6
  2  6  1  0
  3  2  1  0
  4  8  1  0
  4  3  1  0
  5  4  2  0
  6  7  2  0
  9  6  1  0
  9 13  1  0
 10  9  1  0
 11 10  1  0
 11 12  1  0
 12 13  1  0
 13 14  1  1
 14 15  2  0
 16 14  1  0
 17 16  1  0
 17 28  1  0
 17 18  1  1
 19 18  1  0
 20 19  2  0
 21 22  1  0
 21 20  1  0
 22 27  2  0
 23 24  2  0
 23 22  1  0
 24 25  1  0
 25 26  2  0
 27 26  1  0
 27 19  1  0
 28 29  2  0
 28 30  1  0
M  END
$$$$
