DPW.pdb
     RDKit          3D

 30 32  0  0  1  0  0  0  0  0999 V2000
   11.1711  -17.2947   17.4692 N   0  0  0  0  0  0  0  0  0  0  0  0
    9.9775  -17.4401   18.2468 C   0  0  1  0  0  0  0  0  0  0  0  0
    9.8042  -18.8964   18.5999 C   0  0  0  0  0  0  0  0  0  0  0  0
    9.8261  -19.6970   17.3656 C   0  0  0  0  0  0  0  0  0  0  0  0
    8.9078  -19.6039   16.5250 O   0  0  0  0  0  0  0  0  0  0  0  0
    9.9706  -16.5869   19.4606 C   0  0  0  0  0  0  0  0  0  0  0  0
   11.1305  -16.2148   19.8464 O   0  0  0  0  0  0  0  0  0  0  0  0
   10.8703  -20.5616   17.1294 O   0  0  0  0  0  0  0  0  0  0  0  0
    8.8186  -16.1872   20.1716 N   0  0  0  0  0  0  0  0  0  0  0  0
    7.4295  -16.4767   19.9289 C   0  0  0  0  0  0  0  0  0  0  0  0
    6.6228  -15.4017   20.6618 C   0  0  0  0  0  0  0  0  0  0  0  0
    7.7145  -14.3845   21.0274 C   0  0  0  0  0  0  0  0  0  0  0  0
    8.8302  -15.3559   21.3545 C   0  0  1  0  0  0  0  0  0  0  0  0
    8.4312  -16.1381   22.5670 C   0  0  0  0  0  0  0  0  0  0  0  0
    8.0132  -17.3325   22.4838 O   0  0  0  0  0  0  0  0  0  0  0  0
    8.5222  -15.5293   23.8471 N   0  0  0  0  0  0  0  0  0  0  0  0
    9.5101  -15.9714   24.8369 C   0  0  1  0  0  0  0  0  0  0  0  0
    9.3884  -14.9585   25.9837 C   0  0  0  0  0  0  0  0  0  0  0  0
    8.0027  -14.4900   26.1472 C   0  0  0  0  0  0  0  0  0  0  0  0
    6.8389  -15.2143   25.9957 C   0  0  0  0  0  0  0  0  0  0  0  0
    5.7969  -14.3988   26.2372 N   0  0  0  0  0  0  0  0  0  0  0  0
    6.2432  -13.1635   26.5419 C   0  0  0  0  0  0  0  0  0  0  0  0
    5.6405  -11.9858   26.8633 C   0  0  0  0  0  0  0  0  0  0  0  0
    6.3767  -10.8556   27.1321 C   0  0  0  0  0  0  0  0  0  0  0  0
    7.7571  -10.8675   27.0875 C   0  0  0  0  0  0  0  0  0  0  0  0
    8.3618  -12.0686   26.7600 C   0  0  0  0  0  0  0  0  0  0  0  0
    7.6359  -13.2150   26.4866 C   0  0  0  0  0  0  0  0  0  0  0  0
    9.1153  -17.2970   25.3764 C   0  0  0  0  0  0  0  0  0  0  0  0
    9.8386  -17.9839   26.1180 O   0  0  0  0  0  0  0  0  0  0  0  0
    7.8730  -17.8064   25.0404 O   0  0  0  0  0  0  0  0  0  0  0  0
  2  1  1  1
  2  6  1  0
  3  2  1  0
  4  8  1  0
  4  3  1  0
  5  4  2  0
  6  7  2  0
  9  6  1  0
  9 13  1  0
 10  9  1  0
 11 10  1  0
 11 12  1  0
 12 13  1  0
 13 14  1  1
 14 15  2  0
 16 14  1  0
 17 16  1  0
 17 28  1  0
 17 18  1  1
 19 18  1  0
 20 19  2  0
 21 22  1  0
 21 20  1  0
 22 27  2  0
 23 24  2  0
 23 22  1  0
 24 25  1  0
 25 26  2  0
 27 26  1  0
 27 19  1  0
 28 29  2  0
 28 30  1  0
M  END
$$$$
