DPW.pdb
     RDKit          3D

 30 32  0  0  1  0  0  0  0  0999 V2000
    7.3997  -19.2063   19.3360 N   0  0  0  0  0  0  0  0  0  0  0  0
    7.1736  -18.2058   20.3352 C   0  0  1  0  0  0  0  0  0  0  0  0
    6.8682  -18.8897   21.6445 C   0  0  0  0  0  0  0  0  0  0  0  0
    5.7094  -19.7784   21.4647 C   0  0  0  0  0  0  0  0  0  0  0  0
    5.2559  -20.0178   20.3265 O   0  0  0  0  0  0  0  0  0  0  0  0
    8.3081  -17.2597   20.4733 C   0  0  0  0  0  0  0  0  0  0  0  0
    9.3959  -17.6641   19.9386 O   0  0  0  0  0  0  0  0  0  0  0  0
    5.1136  -20.3564   22.5623 O   0  0  0  0  0  0  0  0  0  0  0  0
    8.2543  -16.0093   21.1261 N   0  0  0  0  0  0  0  0  0  0  0  0
    7.1682  -15.3700   21.8216 C   0  0  0  0  0  0  0  0  0  0  0  0
    7.4946  -13.8750   21.8651 C   0  0  0  0  0  0  0  0  0  0  0  0
    8.6651  -13.7803   20.8746 C   0  0  0  0  0  0  0  0  0  0  0  0
    9.3598  -15.0821   21.2182 C   0  0  1  0  0  0  0  0  0  0  0  0
    9.8679  -14.9867   22.6231 C   0  0  0  0  0  0  0  0  0  0  0  0
   10.5779  -14.0105   23.0118 O   0  0  0  0  0  0  0  0  0  0  0  0
    9.5477  -16.0154   23.5487 N   0  0  0  0  0  0  0  0  0  0  0  0
   10.2837  -16.1686   24.8080 C   0  0  1  0  0  0  0  0  0  0  0  0
    9.8278  -14.9825   25.6691 C   0  0  0  0  0  0  0  0  0  0  0  0
    8.3602  -14.9008   25.7442 C   0  0  0  0  0  0  0  0  0  0  0  0
    7.4417  -15.9019   25.5077 C   0  0  0  0  0  0  0  0  0  0  0  0
    6.2079  -15.3972   25.6872 N   0  0  0  0  0  0  0  0  0  0  0  0
    6.2911  -14.0968   26.0338 C   0  0  0  0  0  0  0  0  0  0  0  0
    5.3792  -13.1292   26.3262 C   0  0  0  0  0  0  0  0  0  0  0  0
    5.7715  -11.8528   26.6553 C   0  0  0  0  0  0  0  0  0  0  0  0
    7.1057  -11.4989   26.7032 C   0  0  0  0  0  0  0  0  0  0  0  0
    8.0262  -12.4884   26.4046 C   0  0  0  0  0  0  0  0  0  0  0  0
    7.6483  -13.7776   26.0714 C   0  0  0  0  0  0  0  0  0  0  0  0
    9.8412  -17.4078   25.4957 C   0  0  0  0  0  0  0  0  0  0  0  0
    8.8799  -18.1003   25.1198 O   0  0  0  0  0  0  0  0  0  0  0  0
   10.5316  -17.8245   26.6206 O   0  0  0  0  0  0  0  0  0  0  0  0
  2  1  1  6
  2  6  1  0
  3  2  1  0
  4  8  1  0
  4  3  1  0
  5  4  2  0
  6  7  2  0
  9  6  1  0
  9 13  1  0
 10  9  1  0
 11 10  1  0
 11 12  1  0
 12 13  1  0
 13 14  1  1
 14 15  2  0
 16 14  1  0
 17 16  1  0
 17 28  1  0
 17 18  1  1
 19 18  1  0
 20 19  2  0
 21 22  1  0
 21 20  1  0
 22 27  2  0
 23 24  2  0
 23 22  1  0
 24 25  1  0
 25 26  2  0
 27 26  1  0
 27 19  1  0
 28 29  2  0
 28 30  1  0
M  END
$$$$
