DPW.pdb
     RDKit          3D

 30 32  0  0  1  0  0  0  0  0999 V2000
   12.2767  -14.7839   17.6780 N   0  0  0  0  0  0  0  0  0  0  0  0
   11.3622  -15.6545   18.3535 C   0  0  1  0  0  0  0  0  0  0  0  0
   12.0284  -16.9926   18.5569 C   0  0  0  0  0  0  0  0  0  0  0  0
   12.4957  -17.5004   17.2574 C   0  0  0  0  0  0  0  0  0  0  0  0
   11.7741  -17.4220   16.2417 O   0  0  0  0  0  0  0  0  0  0  0  0
   10.8730  -15.0954   19.6377 C   0  0  0  0  0  0  0  0  0  0  0  0
   11.7391  -14.4016   20.2711 O   0  0  0  0  0  0  0  0  0  0  0  0
   13.7440  -18.0703   17.1544 O   0  0  0  0  0  0  0  0  0  0  0  0
    9.5775  -15.2781   20.1675 N   0  0  0  0  0  0  0  0  0  0  0  0
    8.4547  -16.0120   19.6450 C   0  0  0  0  0  0  0  0  0  0  0  0
    7.2069  -15.4545   20.3348 C   0  0  0  0  0  0  0  0  0  0  0  0
    7.7585  -14.1869   21.0049 C   0  0  0  0  0  0  0  0  0  0  0  0
    9.1150  -14.7200   21.4185 C   0  0  1  0  0  0  0  0  0  0  0  0
    8.9059  -15.7918   22.4425 C   0  0  0  0  0  0  0  0  0  0  0  0
    8.8505  -17.0181   22.1242 O   0  0  0  0  0  0  0  0  0  0  0  0
    8.7658  -15.4293   23.8087 N   0  0  0  0  0  0  0  0  0  0  0  0
    9.6846  -15.9358   24.8335 C   0  0  1  0  0  0  0  0  0  0  0  0
    9.4698  -15.0085   26.0377 C   0  0  0  0  0  0  0  0  0  0  0  0
    8.0443  -14.6996   26.2353 C   0  0  0  0  0  0  0  0  0  0  0  0
    6.9640  -15.5421   26.0772 C   0  0  0  0  0  0  0  0  0  0  0  0
    5.8436  -14.8533   26.3590 N   0  0  0  0  0  0  0  0  0  0  0  0
    6.1579  -13.5862   26.6966 C   0  0  0  0  0  0  0  0  0  0  0  0
    5.4361  -12.4918   27.0636 C   0  0  0  0  0  0  0  0  0  0  0  0
    6.0493  -11.2965   27.3580 C   0  0  0  0  0  0  0  0  0  0  0  0
    7.4218  -11.1558   27.2938 C   0  0  0  0  0  0  0  0  0  0  0  0
    8.1480  -12.2731   26.9198 C   0  0  0  0  0  0  0  0  0  0  0  0
    7.5467  -13.4833   26.6203 C   0  0  0  0  0  0  0  0  0  0  0  0
    9.2664  -17.2989   25.2471 C   0  0  0  0  0  0  0  0  0  0  0  0
    8.1635  -17.7981   24.9654 O   0  0  0  0  0  0  0  0  0  0  0  0
   10.1475  -18.0661   25.9894 O   0  0  0  0  0  0  0  0  0  0  0  0
  2  1  1  1
  2  6  1  0
  3  2  1  0
  4  8  1  0
  4  3  1  0
  5  4  2  0
  6  7  2  0
  9  6  1  0
  9 13  1  0
 10  9  1  0
 11 10  1  0
 11 12  1  0
 12 13  1  0
 13 14  1  1
 14 15  2  0
 16 14  1  0
 17 16  1  0
 17 28  1  0
 17 18  1  1
 19 18  1  0
 20 19  2  0
 21 22  1  0
 21 20  1  0
 22 27  2  0
 23 24  2  0
 23 22  1  0
 24 25  1  0
 25 26  2  0
 27 26  1  0
 27 19  1  0
 28 29  2  0
 28 30  1  0
M  END
$$$$
