YWF.pdb
     RDKit          3D

 38 41  0  0  1  0  0  0  0  0999 V2000
   29.6272  -15.6460  -18.8531 O   0  0  0  0  0  0  0  0  0  0  0  0
   29.0164  -16.5201  -17.9327 C   0  0  0  0  0  0  0  0  0  0  0  0
   27.7091  -16.9050  -18.1423 C   0  0  0  0  0  0  0  0  0  0  0  0
   27.1065  -17.7708  -17.2286 C   0  0  0  0  0  0  0  0  0  0  0  0
   27.8152  -18.2272  -16.1389 C   0  0  0  0  0  0  0  0  0  0  0  0
   27.1413  -19.1447  -15.1958 C   0  0  0  0  0  0  0  0  0  0  0  0
   27.8756  -20.4699  -15.1512 C   0  0  2  0  0  0  0  0  0  0  0  0
   27.9722  -21.0780  -16.4390 N   0  0  0  0  0  0  0  0  0  0  0  0
   27.2291  -21.3210  -14.1239 C   0  0  0  0  0  0  0  0  0  0  0  0
   26.4469  -22.2629  -14.4716 O   0  0  0  0  0  0  0  0  0  0  0  0
   29.1160  -17.8594  -15.9084 C   0  0  0  0  0  0  0  0  0  0  0  0
   29.6846  -16.9919  -16.8446 C   0  0  0  0  0  0  0  0  0  0  0  0
   27.4162  -21.1685  -12.7269 N   0  0  0  0  0  0  0  0  0  0  0  0
   26.8142  -22.0960  -11.7473 C   0  0  1  0  0  0  0  0  0  0  0  0
   27.6163  -22.0491  -10.4802 C   0  0  0  0  0  0  0  0  0  0  0  0
   27.0645  -21.0770   -9.5315 C   0  0  0  0  0  0  0  0  0  0  0  0
   25.8406  -20.4007   -9.6170 C   0  0  0  0  0  0  0  0  0  0  0  0
   25.7085  -19.5724   -8.5757 N   0  0  0  0  0  0  0  0  0  0  0  0
   26.7813  -19.6563   -7.7930 C   0  0  0  0  0  0  0  0  0  0  0  0
   27.1056  -18.9983   -6.6057 C   0  0  0  0  0  0  0  0  0  0  0  0
   28.3134  -19.3064   -6.0215 C   0  0  0  0  0  0  0  0  0  0  0  0
   29.1968  -20.2282   -6.5630 C   0  0  0  0  0  0  0  0  0  0  0  0
   28.8273  -20.8562   -7.7465 C   0  0  0  0  0  0  0  0  0  0  0  0
   27.6349  -20.5773   -8.3585 C   0  0  0  0  0  0  0  0  0  0  0  0
   25.4119  -21.6804  -11.6148 C   0  0  0  0  0  0  0  0  0  0  0  0
   24.6743  -22.2830  -10.7623 O   0  0  0  0  0  0  0  0  0  0  0  0
   24.8386  -20.6409  -12.3792 N   0  0  0  0  0  0  0  0  0  0  0  0
   23.4279  -20.3303  -12.1332 C   0  0  1  0  0  0  0  0  0  0  0  0
   23.1736  -18.8743  -12.5217 C   0  0  0  0  0  0  0  0  0  0  0  0
   23.2170  -18.7734  -13.9924 C   0  0  0  0  0  0  0  0  0  0  0  0
   24.4302  -18.5083  -14.6326 C   0  0  0  0  0  0  0  0  0  0  0  0
   24.4767  -18.4403  -15.9979 C   0  0  0  0  0  0  0  0  0  0  0  0
   23.3756  -18.6209  -16.8087 C   0  0  0  0  0  0  0  0  0  0  0  0
   22.1826  -18.8816  -16.1820 C   0  0  0  0  0  0  0  0  0  0  0  0
   22.1169  -18.9538  -14.8104 C   0  0  0  0  0  0  0  0  0  0  0  0
   22.6077  -21.2163  -12.9519 C   0  0  0  0  0  0  0  0  0  0  0  0
   23.1669  -22.0458  -13.8986 O   0  0  0  0  0  0  0  0  0  0  0  0
   21.3642  -21.2424  -12.8123 O   0  0  0  0  0  0  0  0  0  0  0  0
  2  1  1  0
  3  2  2  0
  4  3  1  0
  5  4  2  0
  5 11  1  0
  6  5  1  0
  7  8  1  6
  7  6  1  0
  9  7  1  0
 10  9  2  0
 11 12  2  0
 12  2  1  0
 13  9  1  0
 14 13  1  0
 14 25  1  0
 14 15  1  1
 16 15  1  0
 17 16  2  0
 18 17  1  0
 19 18  1  0
 19 24  2  0
 20 21  2  0
 20 19  1  0
 21 22  1  0
 22 23  2  0
 24 23  1  0
 24 16  1  0
 25 26  2  0
 27 25  1  0
 27 28  1  0
 28 29  1  6
 29 30  1  0
 30 35  2  0
 31 32  2  0
 31 30  1  0
 32 33  1  0
 33 34  2  0
 35 34  1  0
 36 37  1  0
 36 28  1  0
 38 36  2  0
M  END
$$$$
