YWF.pdb
     RDKit          3D

 38 41  0  0  1  0  0  0  0  0999 V2000
   29.4187  -18.2992  -20.8291 O   0  0  0  0  0  0  0  0  0  0  0  0
   28.6621  -18.7757  -19.7406 C   0  0  0  0  0  0  0  0  0  0  0  0
   28.9327  -18.2955  -18.4769 C   0  0  0  0  0  0  0  0  0  0  0  0
   28.1816  -18.7696  -17.4004 C   0  0  0  0  0  0  0  0  0  0  0  0
   27.1887  -19.7016  -17.6084 C   0  0  0  0  0  0  0  0  0  0  0  0
   26.4145  -20.1766  -16.4420 C   0  0  0  0  0  0  0  0  0  0  0  0
   27.2390  -21.1666  -15.6437 C   0  0  2  0  0  0  0  0  0  0  0  0
   27.5410  -22.3450  -16.3905 N   0  0  0  0  0  0  0  0  0  0  0  0
   26.5392  -21.4219  -14.3619 C   0  0  0  0  0  0  0  0  0  0  0  0
   25.5930  -22.2712  -14.3064 O   0  0  0  0  0  0  0  0  0  0  0  0
   26.9001  -20.1945  -18.8552 C   0  0  0  0  0  0  0  0  0  0  0  0
   27.6732  -19.6962  -19.9071 C   0  0  0  0  0  0  0  0  0  0  0  0
   26.8477  -20.7724  -13.1401 N   0  0  0  0  0  0  0  0  0  0  0  0
   26.1744  -21.1214  -11.8724 C   0  0  1  0  0  0  0  0  0  0  0  0
   27.0400  -20.6833  -10.7280 C   0  0  0  0  0  0  0  0  0  0  0  0
   26.3247  -20.7682   -9.4510 C   0  0  0  0  0  0  0  0  0  0  0  0
   25.2066  -21.5568   -9.1495 C   0  0  0  0  0  0  0  0  0  0  0  0
   24.8235  -21.3336   -7.8880 N   0  0  0  0  0  0  0  0  0  0  0  0
   25.6266  -20.4348   -7.3243 C   0  0  0  0  0  0  0  0  0  0  0  0
   25.6319  -19.8843   -6.0419 C   0  0  0  0  0  0  0  0  0  0  0  0
   26.6104  -18.9595   -5.7548 C   0  0  0  0  0  0  0  0  0  0  0  0
   27.5681  -18.5673   -6.6781 C   0  0  0  0  0  0  0  0  0  0  0  0
   27.5197  -19.1449   -7.9413 C   0  0  0  0  0  0  0  0  0  0  0  0
   26.5625  -20.0682   -8.2659 C   0  0  0  0  0  0  0  0  0  0  0  0
   24.8523  -20.4850  -11.9352 C   0  0  0  0  0  0  0  0  0  0  0  0
   24.7835  -19.2510  -12.2618 O   0  0  0  0  0  0  0  0  0  0  0  0
   23.6501  -21.1720  -11.6592 N   0  0  0  0  0  0  0  0  0  0  0  0
   22.3989  -20.4352  -11.8562 C   0  0  1  0  0  0  0  0  0  0  0  0
   21.8486  -20.7695  -13.2422 C   0  0  0  0  0  0  0  0  0  0  0  0
   22.0850  -19.6123  -14.1255 C   0  0  0  0  0  0  0  0  0  0  0  0
   23.1232  -19.6551  -15.0594 C   0  0  0  0  0  0  0  0  0  0  0  0
   23.3271  -18.5931  -15.8970 C   0  0  0  0  0  0  0  0  0  0  0  0
   22.5553  -17.4501  -15.8816 C   0  0  0  0  0  0  0  0  0  0  0  0
   21.5346  -17.4059  -14.9650 C   0  0  0  0  0  0  0  0  0  0  0  0
   21.3146  -18.4643  -14.1151 C   0  0  0  0  0  0  0  0  0  0  0  0
   21.4496  -20.8489  -10.8287 C   0  0  0  0  0  0  0  0  0  0  0  0
   21.6919  -21.9369  -10.0197 O   0  0  0  0  0  0  0  0  0  0  0  0
   20.3818  -20.2189  -10.6578 O   0  0  0  0  0  0  0  0  0  0  0  0
  2  1  1  0
  3  2  2  0
  4  3  1  0
  5  4  2  0
  5 11  1  0
  6  5  1  0
  7  8  1  6
  7  6  1  0
  9  7  1  0
 10  9  2  0
 11 12  2  0
 12  2  1  0
 13  9  1  0
 14 13  1  0
 14 25  1  0
 14 15  1  1
 16 15  1  0
 17 16  2  0
 18 17  1  0
 19 18  1  0
 19 24  2  0
 20 21  2  0
 20 19  1  0
 21 22  1  0
 22 23  2  0
 24 23  1  0
 24 16  1  0
 25 26  2  0
 27 25  1  0
 27 28  1  0
 28 29  1  6
 29 30  1  0
 30 35  2  0
 31 32  2  0
 31 30  1  0
 32 33  1  0
 33 34  2  0
 35 34  1  0
 36 37  1  0
 36 28  1  0
 38 36  2  0
M  END
$$$$
