YWF.pdb
     RDKit          3D

 38 41  0  0  1  0  0  0  0  0999 V2000
   21.2053  -13.1967  -17.0423 O   0  0  0  0  0  0  0  0  0  0  0  0
   21.5306  -14.2947  -16.2218 C   0  0  0  0  0  0  0  0  0  0  0  0
   22.7958  -14.3726  -15.6796 C   0  0  0  0  0  0  0  0  0  0  0  0
   23.1152  -15.4616  -14.8673 C   0  0  0  0  0  0  0  0  0  0  0  0
   22.1745  -16.4367  -14.6181 C   0  0  0  0  0  0  0  0  0  0  0  0
   22.5519  -17.5728  -13.7508 C   0  0  0  0  0  0  0  0  0  0  0  0
   23.3530  -18.5849  -14.5454 C   0  0  2  0  0  0  0  0  0  0  0  0
   22.5592  -19.2535  -15.5253 N   0  0  0  0  0  0  0  0  0  0  0  0
   24.0287  -19.4926  -13.5876 C   0  0  0  0  0  0  0  0  0  0  0  0
   23.3576  -20.3664  -12.9505 O   0  0  0  0  0  0  0  0  0  0  0  0
   20.9097  -16.3820  -15.1453 C   0  0  0  0  0  0  0  0  0  0  0  0
   20.6277  -15.2773  -15.9530 C   0  0  0  0  0  0  0  0  0  0  0  0
   25.4185  -19.4692  -13.3093 N   0  0  0  0  0  0  0  0  0  0  0  0
   26.0496  -20.4251  -12.3764 C   0  0  1  0  0  0  0  0  0  0  0  0
   27.3980  -20.8061  -12.9127 C   0  0  0  0  0  0  0  0  0  0  0  0
   28.1064  -21.7038  -11.9951 C   0  0  0  0  0  0  0  0  0  0  0  0
   27.5860  -22.8110  -11.3123 C   0  0  0  0  0  0  0  0  0  0  0  0
   28.5357  -23.3554  -10.5445 N   0  0  0  0  0  0  0  0  0  0  0  0
   29.6695  -22.6713  -10.6753 C   0  0  0  0  0  0  0  0  0  0  0  0
   30.9224  -22.8491  -10.0868 C   0  0  0  0  0  0  0  0  0  0  0  0
   31.9146  -21.9588  -10.4304 C   0  0  0  0  0  0  0  0  0  0  0  0
   31.7126  -20.9156  -11.3217 C   0  0  0  0  0  0  0  0  0  0  0  0
   30.4470  -20.7815  -11.8804 C   0  0  0  0  0  0  0  0  0  0  0  0
   29.4339  -21.6463  -11.5644 C   0  0  0  0  0  0  0  0  0  0  0  0
   26.0634  -19.7560  -11.0692 C   0  0  0  0  0  0  0  0  0  0  0  0
   26.5655  -18.5833  -10.9887 O   0  0  0  0  0  0  0  0  0  0  0  0
   25.5417  -20.3425   -9.8955 N   0  0  0  0  0  0  0  0  0  0  0  0
   26.3875  -20.3101   -8.6994 C   0  0  1  0  0  0  0  0  0  0  0  0
   26.1100  -19.0132   -7.9402 C   0  0  0  0  0  0  0  0  0  0  0  0
   26.9557  -18.9941   -6.7320 C   0  0  0  0  0  0  0  0  0  0  0  0
   28.0969  -18.1888   -6.6985 C   0  0  0  0  0  0  0  0  0  0  0  0
   28.8676  -18.1502   -5.5692 C   0  0  0  0  0  0  0  0  0  0  0  0
   28.5866  -18.8731   -4.4286 C   0  0  0  0  0  0  0  0  0  0  0  0
   27.4658  -19.6649   -4.4592 C   0  0  0  0  0  0  0  0  0  0  0  0
   26.6789  -19.7160   -5.5857 C   0  0  0  0  0  0  0  0  0  0  0  0
   26.0549  -21.4589   -7.8641 C   0  0  0  0  0  0  0  0  0  0  0  0
   26.9853  -22.0358   -7.0283 O   0  0  0  0  0  0  0  0  0  0  0  0
   24.9051  -21.9524   -7.8890 O   0  0  0  0  0  0  0  0  0  0  0  0
  2  1  1  0
  3  2  2  0
  4  3  1  0
  5  4  2  0
  5 11  1  0
  6  5  1  0
  7  8  1  6
  7  6  1  0
  9  7  1  0
 10  9  2  0
 11 12  2  0
 12  2  1  0
 13  9  1  0
 14 13  1  0
 14 25  1  0
 14 15  1  6
 16 15  1  0
 17 16  2  0
 18 17  1  0
 19 18  1  0
 19 24  2  0
 20 21  2  0
 20 19  1  0
 21 22  1  0
 22 23  2  0
 24 23  1  0
 24 16  1  0
 25 26  2  0
 27 25  1  0
 27 28  1  0
 28 29  1  1
 29 30  1  0
 30 35  2  0
 31 32  2  0
 31 30  1  0
 32 33  1  0
 33 34  2  0
 35 34  1  0
 36 37  1  0
 36 28  1  0
 38 36  2  0
M  END
$$$$
