YWF.pdb
     RDKit          3D

 38 41  0  0  1  0  0  0  0  0999 V2000
   28.9679  -28.9446  -18.6991 O   0  0  0  0  0  0  0  0  0  0  0  0
   28.3609  -28.0257  -17.8207 C   0  0  0  0  0  0  0  0  0  0  0  0
   29.1438  -27.3660  -16.8972 C   0  0  0  0  0  0  0  0  0  0  0  0
   28.5396  -26.4564  -16.0282 C   0  0  0  0  0  0  0  0  0  0  0  0
   27.1828  -26.2290  -16.1005 C   0  0  0  0  0  0  0  0  0  0  0  0
   26.5818  -25.2562  -15.1636 C   0  0  0  0  0  0  0  0  0  0  0  0
   26.0184  -24.0784  -15.9336 C   0  0  2  0  0  0  0  0  0  0  0  0
   27.0114  -23.4233  -16.7223 N   0  0  0  0  0  0  0  0  0  0  0  0
   25.3217  -23.1901  -14.9727 C   0  0  0  0  0  0  0  0  0  0  0  0
   24.5197  -23.6787  -14.1137 O   0  0  0  0  0  0  0  0  0  0  0  0
   26.3827  -26.8721  -17.0099 C   0  0  0  0  0  0  0  0  0  0  0  0
   27.0236  -27.7748  -17.8623 C   0  0  0  0  0  0  0  0  0  0  0  0
   25.4798  -21.7820  -14.9272 N   0  0  0  0  0  0  0  0  0  0  0  0
   24.8860  -20.9586  -13.8540 C   0  0  1  0  0  0  0  0  0  0  0  0
   25.8609  -19.8836  -13.4733 C   0  0  0  0  0  0  0  0  0  0  0  0
   26.8861  -20.3895  -12.5553 C   0  0  0  0  0  0  0  0  0  0  0  0
   28.1997  -20.7648  -12.8658 C   0  0  0  0  0  0  0  0  0  0  0  0
   28.8158  -21.2057  -11.7641 N   0  0  0  0  0  0  0  0  0  0  0  0
   27.9841  -21.1466  -10.7271 C   0  0  0  0  0  0  0  0  0  0  0  0
   28.1619  -21.4909   -9.3864 C   0  0  0  0  0  0  0  0  0  0  0  0
   27.0913  -21.3110   -8.5399 C   0  0  0  0  0  0  0  0  0  0  0  0
   25.8707  -20.8102   -8.9677 C   0  0  0  0  0  0  0  0  0  0  0  0
   25.7446  -20.4824  -10.3125 C   0  0  0  0  0  0  0  0  0  0  0  0
   26.7857  -20.6466  -11.1862 C   0  0  0  0  0  0  0  0  0  0  0  0
   23.6027  -20.4793  -14.3834 C   0  0  0  0  0  0  0  0  0  0  0  0
   23.5316  -20.1645  -15.6203 O   0  0  0  0  0  0  0  0  0  0  0  0
   22.4389  -20.3555  -13.5936 N   0  0  0  0  0  0  0  0  0  0  0  0
   21.2385  -19.8305  -14.2500 C   0  0  1  0  0  0  0  0  0  0  0  0
   20.1233  -20.8686  -14.1307 C   0  0  0  0  0  0  0  0  0  0  0  0
   19.8268  -21.0668  -12.6996 C   0  0  0  0  0  0  0  0  0  0  0  0
   18.7288  -20.4221  -12.1245 C   0  0  0  0  0  0  0  0  0  0  0  0
   18.4373  -20.6256  -10.8037 C   0  0  0  0  0  0  0  0  0  0  0  0
   19.1749  -21.4476   -9.9774 C   0  0  0  0  0  0  0  0  0  0  0  0
   20.2540  -22.0822  -10.5403 C   0  0  0  0  0  0  0  0  0  0  0  0
   20.5621  -21.8897  -11.8666 C   0  0  0  0  0  0  0  0  0  0  0  0
   20.8453  -18.5957  -13.5803 C   0  0  0  0  0  0  0  0  0  0  0  0
   19.7962  -17.8299  -14.0384 O   0  0  0  0  0  0  0  0  0  0  0  0
   21.4593  -18.1992  -12.5643 O   0  0  0  0  0  0  0  0  0  0  0  0
  2  1  1  0
  3  2  2  0
  4  3  1  0
  5  4  2  0
  5 11  1  0
  6  5  1  0
  7  8  1  1
  7  6  1  0
  9  7  1  0
 10  9  2  0
 11 12  2  0
 12  2  1  0
 13  9  1  0
 14 13  1  0
 14 25  1  0
 14 15  1  6
 16 15  1  0
 17 16  2  0
 18 17  1  0
 19 18  1  0
 19 24  2  0
 20 21  2  0
 20 19  1  0
 21 22  1  0
 22 23  2  0
 24 23  1  0
 24 16  1  0
 25 26  2  0
 27 25  1  0
 27 28  1  0
 28 29  1  1
 29 30  1  0
 30 35  2  0
 31 32  2  0
 31 30  1  0
 32 33  1  0
 33 34  2  0
 35 34  1  0
 36 37  1  0
 36 28  1  0
 38 36  2  0
M  END
$$$$
