GWT.pdb
     RDKit          3D

 26 27  0  0  1  0  0  0  0  0999 V2000
   28.8065  -21.1175  -14.2175 N   0  0  0  0  0  0  0  0  0  0  0  0
   28.4129  -20.2044  -13.1487 C   0  0  0  0  0  0  0  0  0  0  0  0
   27.3831  -20.8747  -12.3051 C   0  0  0  0  0  0  0  0  0  0  0  0
   26.8026  -21.9101  -12.6753 O   0  0  0  0  0  0  0  0  0  0  0  0
   27.0576  -20.3044  -11.0321 N   0  0  0  0  0  0  0  0  0  0  0  0
   25.9593  -20.7416  -10.2301 C   0  0  1  0  0  0  0  0  0  0  0  0
   26.1348  -20.3736   -8.7718 C   0  0  0  0  0  0  0  0  0  0  0  0
   27.4731  -20.6495   -8.2438 C   0  0  0  0  0  0  0  0  0  0  0  0
   28.5164  -21.3702   -8.8139 C   0  0  0  0  0  0  0  0  0  0  0  0
   29.5673  -21.3681   -7.9724 N   0  0  0  0  0  0  0  0  0  0  0  0
   29.2455  -20.6732   -6.8777 C   0  0  0  0  0  0  0  0  0  0  0  0
   29.9679  -20.3894   -5.7524 C   0  0  0  0  0  0  0  0  0  0  0  0
   29.4207  -19.6353   -4.7241 C   0  0  0  0  0  0  0  0  0  0  0  0
   28.1279  -19.1722   -4.8537 C   0  0  0  0  0  0  0  0  0  0  0  0
   27.4328  -19.4706   -5.9855 C   0  0  0  0  0  0  0  0  0  0  0  0
   27.9463  -20.2182   -7.0281 C   0  0  0  0  0  0  0  0  0  0  0  0
   24.6471  -20.2695  -10.6749 C   0  0  0  0  0  0  0  0  0  0  0  0
   24.3805  -19.0465  -10.5129 O   0  0  0  0  0  0  0  0  0  0  0  0
   23.5654  -20.1020  -14.1202 C   0  0  0  0  0  0  0  0  0  0  0  0
   22.4431  -20.8194  -13.4032 C   0  0  1  0  0  0  0  0  0  0  0  0
   22.5518  -22.2063  -13.5989 O   0  0  0  0  0  0  0  0  0  0  0  0
   22.4817  -20.4724  -11.9245 C   0  0  2  0  0  0  0  0  0  0  0  0
   23.6346  -21.0661  -11.2780 N   0  0  0  0  0  0  0  0  0  0  0  0
   21.2643  -21.0396  -11.3154 C   0  0  0  0  0  0  0  0  0  0  0  0
   20.1287  -20.5486  -11.5014 O   0  0  0  0  0  0  0  0  0  0  0  0
   21.3760  -22.1514  -10.5105 O   0  0  0  0  0  0  0  0  0  0  0  0
  2  1  1  0
  3  2  1  0
  4  3  2  0
  5  3  1  0
  6  5  1  0
  7  8  1  0
  6  7  1  1
  8  9  2  0
  9 10  1  0
 11 10  1  0
 12 11  2  0
 13 12  1  0
 14 15  1  0
 14 13  2  0
 15 16  2  0
 16  8  1  0
 16 11  1  0
 17  6  1  0
 17 23  1  0
 18 17  2  0
 20 19  1  6
 20 21  1  0
 22 20  1  0
 22 23  1  1
 22 24  1  0
 24 25  2  0
 24 26  1  0
M  END
$$$$
