GWT.pdb
     RDKit          3D

 26 27  0  0  1  0  0  0  0  0999 V2000
   28.5573  -22.0280  -15.3475 N   0  0  0  0  0  0  0  0  0  0  0  0
   27.9933  -20.9135  -14.5919 C   0  0  0  0  0  0  0  0  0  0  0  0
   26.9772  -21.4485  -13.6417 C   0  0  0  0  0  0  0  0  0  0  0  0
   26.4249  -22.5481  -13.8203 O   0  0  0  0  0  0  0  0  0  0  0  0
   26.6318  -20.6680  -12.4912 N   0  0  0  0  0  0  0  0  0  0  0  0
   25.5580  -20.9977  -11.6086 C   0  0  1  0  0  0  0  0  0  0  0  0
   25.7837  -20.4630  -10.2101 C   0  0  0  0  0  0  0  0  0  0  0  0
   27.0899  -20.8075   -9.6432 C   0  0  0  0  0  0  0  0  0  0  0  0
   28.1082  -21.5866  -10.1804 C   0  0  0  0  0  0  0  0  0  0  0  0
   29.1337  -21.6362   -9.3096 N   0  0  0  0  0  0  0  0  0  0  0  0
   28.8194  -20.9186   -8.2274 C   0  0  0  0  0  0  0  0  0  0  0  0
   29.5242  -20.6676   -7.0834 C   0  0  0  0  0  0  0  0  0  0  0  0
   28.9899  -19.8792   -6.0742 C   0  0  0  0  0  0  0  0  0  0  0  0
   27.7282  -19.3479   -6.2423 C   0  0  0  0  0  0  0  0  0  0  0  0
   27.0500  -19.6150   -7.3920 C   0  0  0  0  0  0  0  0  0  0  0  0
   27.5514  -20.3952   -8.4165 C   0  0  0  0  0  0  0  0  0  0  0  0
   24.2346  -20.5683  -12.0634 C   0  0  0  0  0  0  0  0  0  0  0  0
   24.0694  -19.3403  -12.3039 O   0  0  0  0  0  0  0  0  0  0  0  0
   22.5277  -21.7958  -15.1546 C   0  0  0  0  0  0  0  0  0  0  0  0
   21.4956  -21.8617  -14.0506 C   0  0  1  0  0  0  0  0  0  0  0  0
   21.3555  -23.1839  -13.5969 O   0  0  0  0  0  0  0  0  0  0  0  0
   21.9049  -20.9365  -12.9171 C   0  0  2  0  0  0  0  0  0  0  0  0
   23.1066  -21.4120  -12.2619 N   0  0  0  0  0  0  0  0  0  0  0  0
   20.8057  -20.9446  -11.9341 C   0  0  0  0  0  0  0  0  0  0  0  0
   20.9270  -21.4470  -10.7947 O   0  0  0  0  0  0  0  0  0  0  0  0
   19.5978  -20.3797  -12.2783 O   0  0  0  0  0  0  0  0  0  0  0  0
  2  1  1  0
  3  2  1  0
  4  3  2  0
  5  3  1  0
  6  5  1  0
  7  8  1  0
  6  7  1  1
  8  9  2  0
  9 10  1  0
 11 10  1  0
 12 11  2  0
 13 12  1  0
 14 15  1  0
 14 13  2  0
 15 16  2  0
 16  8  1  0
 16 11  1  0
 17  6  1  0
 17 23  1  0
 18 17  2  0
 20 19  1  6
 20 21  1  0
 22 20  1  0
 22 23  1  1
 22 24  1  0
 24 25  2  0
 24 26  1  0
M  END
$$$$
