GWT.pdb
     RDKit          3D

 26 27  0  0  1  0  0  0  0  0999 V2000
   23.4043  -29.4013  -16.4977 N   0  0  0  0  0  0  0  0  0  0  0  0
   22.1301  -28.7107  -16.6728 C   0  0  0  0  0  0  0  0  0  0  0  0
   21.6773  -28.2037  -15.3464 C   0  0  0  0  0  0  0  0  0  0  0  0
   22.3256  -28.4136  -14.3063 O   0  0  0  0  0  0  0  0  0  0  0  0
   20.4591  -27.4535  -15.2750 N   0  0  0  0  0  0  0  0  0  0  0  0
   19.9927  -26.8191  -14.0830 C   0  0  1  0  0  0  0  0  0  0  0  0
   19.6135  -25.3720  -14.3171 C   0  0  0  0  0  0  0  0  0  0  0  0
   20.6212  -24.6023  -15.0506 C   0  0  0  0  0  0  0  0  0  0  0  0
   21.9765  -24.4427  -14.7854 C   0  0  0  0  0  0  0  0  0  0  0  0
   22.5204  -23.6462  -15.7246 N   0  0  0  0  0  0  0  0  0  0  0  0
   21.5692  -23.2828  -16.5895 C   0  0  0  0  0  0  0  0  0  0  0  0
   21.6255  -22.4902  -17.7019 C   0  0  0  0  0  0  0  0  0  0  0  0
   20.4911  -22.2471  -18.4632 C   0  0  0  0  0  0  0  0  0  0  0  0
   19.2967  -22.8203  -18.0795 C   0  0  0  0  0  0  0  0  0  0  0  0
   19.2711  -23.6048  -16.9673 C   0  0  0  0  0  0  0  0  0  0  0  0
   20.3806  -23.8679  -16.1866 C   0  0  0  0  0  0  0  0  0  0  0  0
   18.8723  -27.4938  -13.4258 C   0  0  0  0  0  0  0  0  0  0  0  0
   17.9919  -28.0177  -14.1631 O   0  0  0  0  0  0  0  0  0  0  0  0
   18.9583  -30.4215  -10.8150 C   0  0  0  0  0  0  0  0  0  0  0  0
   18.1328  -29.2651  -10.2960 C   0  0  1  0  0  0  0  0  0  0  0  0
   18.8979  -28.4796   -9.4178 O   0  0  0  0  0  0  0  0  0  0  0  0
   17.6249  -28.4387  -11.4654 C   0  0  2  0  0  0  0  0  0  0  0  0
   18.6799  -27.6159  -12.0216 N   0  0  0  0  0  0  0  0  0  0  0  0
   16.5705  -27.5507  -10.9416 C   0  0  0  0  0  0  0  0  0  0  0  0
   16.7366  -26.3182  -10.8053 O   0  0  0  0  0  0  0  0  0  0  0  0
   15.3554  -28.0934  -10.5873 O   0  0  0  0  0  0  0  0  0  0  0  0
  2  1  1  0
  3  2  1  0
  4  3  2  0
  5  3  1  0
  6  5  1  0
  7  8  1  0
  6  7  1  6
  8  9  2  0
  9 10  1  0
 11 10  1  0
 12 11  2  0
 13 12  1  0
 14 15  1  0
 14 13  2  0
 15 16  2  0
 16  8  1  0
 16 11  1  0
 17  6  1  0
 17 23  1  0
 18 17  2  0
 20 19  1  6
 20 21  1  0
 22 20  1  0
 22 23  1  1
 22 24  1  0
 24 25  2  0
 24 26  1  0
M  END
$$$$
