GWT.pdb
     RDKit          3D

 26 27  0  0  1  0  0  0  0  0999 V2000
   28.7476  -22.5516  -15.1169 N   0  0  0  0  0  0  0  0  0  0  0  0
   28.3575  -21.3138  -14.4484 C   0  0  0  0  0  0  0  0  0  0  0  0
   27.2826  -21.6232  -13.4634 C   0  0  0  0  0  0  0  0  0  0  0  0
   26.5576  -22.6271  -13.5754 O   0  0  0  0  0  0  0  0  0  0  0  0
   27.0845  -20.7340  -12.3579 N   0  0  0  0  0  0  0  0  0  0  0  0
   26.0337  -20.8864  -11.4022 C   0  0  1  0  0  0  0  0  0  0  0  0
   26.3209  -20.1437  -10.1143 C   0  0  0  0  0  0  0  0  0  0  0  0
   27.4834  -20.6497   -9.3803 C   0  0  0  0  0  0  0  0  0  0  0  0
   28.5399  -21.4332   -9.8306 C   0  0  0  0  0  0  0  0  0  0  0  0
   29.3871  -21.6625   -8.8098 N   0  0  0  0  0  0  0  0  0  0  0  0
   28.9204  -21.0573   -7.7139 C   0  0  0  0  0  0  0  0  0  0  0  0
   29.4191  -20.9977   -6.4426 C   0  0  0  0  0  0  0  0  0  0  0  0
   28.7533  -20.2972   -5.4467 C   0  0  0  0  0  0  0  0  0  0  0  0
   27.5722  -19.6571   -5.7594 C   0  0  0  0  0  0  0  0  0  0  0  0
   27.0999  -19.7340   -7.0338 C   0  0  0  0  0  0  0  0  0  0  0  0
   27.7366  -20.4220   -8.0492 C   0  0  0  0  0  0  0  0  0  0  0  0
   24.7069  -20.4944  -11.8799 C   0  0  0  0  0  0  0  0  0  0  0  0
   24.5179  -19.2748  -12.1446 O   0  0  0  0  0  0  0  0  0  0  0  0
   23.0359  -21.6820  -14.9847 C   0  0  0  0  0  0  0  0  0  0  0  0
   22.0111  -21.8267  -13.8815 C   0  0  1  0  0  0  0  0  0  0  0  0
   21.9311  -23.1668  -13.4676 O   0  0  0  0  0  0  0  0  0  0  0  0
   22.3823  -20.9185  -12.7214 C   0  0  2  0  0  0  0  0  0  0  0  0
   23.5998  -21.3660  -12.0759 N   0  0  0  0  0  0  0  0  0  0  0  0
   21.2820  -20.9961  -11.7426 C   0  0  0  0  0  0  0  0  0  0  0  0
   21.4052  -21.5693  -10.6373 O   0  0  0  0  0  0  0  0  0  0  0  0
   20.0711  -20.4177  -12.0517 O   0  0  0  0  0  0  0  0  0  0  0  0
  2  1  1  0
  3  2  1  0
  4  3  2  0
  5  3  1  0
  6  5  1  0
  7  8  1  0
  6  7  1  1
  8  9  2  0
  9 10  1  0
 11 10  1  0
 12 11  2  0
 13 12  1  0
 14 15  1  0
 14 13  2  0
 15 16  2  0
 16  8  1  0
 16 11  1  0
 17  6  1  0
 17 23  1  0
 18 17  2  0
 20 19  1  6
 20 21  1  0
 22 20  1  0
 22 23  1  1
 22 24  1  0
 24 25  2  0
 24 26  1  0
M  END
$$$$
