GWT.pdb
     RDKit          3D

 26 27  0  0  1  0  0  0  0  0999 V2000
   29.2092  -21.8608  -14.3430 N   0  0  0  0  0  0  0  0  0  0  0  0
   28.5458  -20.7087  -13.7400 C   0  0  0  0  0  0  0  0  0  0  0  0
   27.4361  -21.1982  -12.8736 C   0  0  0  0  0  0  0  0  0  0  0  0
   26.7365  -22.1759  -13.1912 O   0  0  0  0  0  0  0  0  0  0  0  0
   27.1734  -20.5179  -11.6407 N   0  0  0  0  0  0  0  0  0  0  0  0
   26.0627  -20.8204  -10.7947 C   0  0  1  0  0  0  0  0  0  0  0  0
   26.2340  -20.2513   -9.4020 C   0  0  0  0  0  0  0  0  0  0  0  0
   27.4940  -20.6260   -8.7552 C   0  0  0  0  0  0  0  0  0  0  0  0
   28.5373  -21.4069   -9.2393 C   0  0  0  0  0  0  0  0  0  0  0  0
   29.5000  -21.4896   -8.3019 N   0  0  0  0  0  0  0  0  0  0  0  0
   29.1208  -20.7917   -7.2275 C   0  0  0  0  0  0  0  0  0  0  0  0
   29.7485  -20.5756   -6.0325 C   0  0  0  0  0  0  0  0  0  0  0  0
   29.1558  -19.8023   -5.0445 C   0  0  0  0  0  0  0  0  0  0  0  0
   27.9151  -19.2503   -5.2862 C   0  0  0  0  0  0  0  0  0  0  0  0
   27.3142  -19.4828   -6.4853 C   0  0  0  0  0  0  0  0  0  0  0  0
   27.8752  -20.2471   -7.4907 C   0  0  0  0  0  0  0  0  0  0  0  0
   24.7614  -20.3970  -11.3139 C   0  0  0  0  0  0  0  0  0  0  0  0
   24.5871  -19.1638  -11.5188 O   0  0  0  0  0  0  0  0  0  0  0  0
   23.3043  -21.0983  -14.5761 C   0  0  0  0  0  0  0  0  0  0  0  0
   22.2294  -21.4823  -13.5834 C   0  0  1  0  0  0  0  0  0  0  0  0
   22.2166  -22.8747  -13.3979 O   0  0  0  0  0  0  0  0  0  0  0  0
   22.4704  -20.7590  -12.2691 C   0  0  2  0  0  0  0  0  0  0  0  0
   23.6642  -21.2518  -11.6122 N   0  0  0  0  0  0  0  0  0  0  0  0
   21.3122  -21.0420  -11.4013 C   0  0  0  0  0  0  0  0  0  0  0  0
   21.3973  -21.7601  -10.3803 O   0  0  0  0  0  0  0  0  0  0  0  0
   20.0885  -20.4981  -11.7224 O   0  0  0  0  0  0  0  0  0  0  0  0
  2  1  1  0
  3  2  1  0
  4  3  2  0
  5  3  1  0
  6  5  1  0
  7  8  1  0
  6  7  1  1
  8  9  2  0
  9 10  1  0
 11 10  1  0
 12 11  2  0
 13 12  1  0
 14 15  1  0
 14 13  2  0
 15 16  2  0
 16  8  1  0
 16 11  1  0
 17  6  1  0
 17 23  1  0
 18 17  2  0
 20 19  1  6
 20 21  1  0
 22 20  1  0
 22 23  1  1
 22 24  1  0
 24 25  2  0
 24 26  1  0
M  END
$$$$
