DTG.pdb
     RDKit          3D

 20 19  0  0  1  0  0  0  0  0999 V2000
    7.8592  -16.6515   16.2494 N   0  0  0  0  0  0  0  0  0  0  0  0
    8.9010  -15.6897   16.0661 C   0  0  1  0  0  0  0  0  0  0  0  0
    8.5106  -14.7434   14.9488 C   0  0  0  0  0  0  0  0  0  0  0  0
    8.3306  -15.4935   13.6803 C   0  0  0  0  0  0  0  0  0  0  0  0
    8.8820  -16.6159   13.5506 O   0  0  0  0  0  0  0  0  0  0  0  0
    9.2274  -14.9531   17.3134 C   0  0  0  0  0  0  0  0  0  0  0  0
   10.1191  -14.0880   17.3018 O   0  0  0  0  0  0  0  0  0  0  0  0
    7.5802  -15.0158   12.6246 O   0  0  0  0  0  0  0  0  0  0  0  0
    7.5908  -12.6501   19.4004 C   0  0  0  0  0  0  0  0  0  0  0  0
    7.9389  -13.7269   20.4060 C   0  0  1  0  0  0  0  0  0  0  0  0
    6.8082  -14.3609   20.8763 O   0  0  0  0  0  0  0  0  0  0  0  0
    8.9527  -14.6402   19.7932 C   0  0  2  0  0  0  0  0  0  0  0  0
    8.5484  -15.2038   18.5384 N   0  0  0  0  0  0  0  0  0  0  0  0
    9.4575  -15.6680   20.7452 C   0  0  0  0  0  0  0  0  0  0  0  0
    8.8061  -16.7173   21.0013 O   0  0  0  0  0  0  0  0  0  0  0  0
   10.6988  -15.5316   21.4217 N   0  0  0  0  0  0  0  0  0  0  0  0
   11.2065  -16.5357   22.3355 C   0  0  0  0  0  0  0  0  0  0  0  0
   12.5494  -16.1830   22.8021 C   0  0  0  0  0  0  0  0  0  0  0  0
   13.1879  -17.0084   23.7137 O   0  0  0  0  0  0  0  0  0  0  0  0
   13.1486  -15.1564   22.4066 O   0  0  0  0  0  0  0  0  0  0  0  0
  2  1  1  1
  3  2  1  0
  4  3  1  0
  4  5  2  0
  6  2  1  0
  7  6  2  0
  8  4  1  0
 10  9  1  6
 10 12  1  0
 11 10  1  0
 12 13  1  6
 13  6  1  0
 14 15  2  0
 14 12  1  0
 16 14  1  0
 17 18  1  0
 17 16  1  0
 18 19  1  0
 20 18  2  0
M  END
$$$$
