DTG.pdb
     RDKit          3D

 20 19  0  0  1  0  0  0  0  0999 V2000
    8.9219  -17.5840   15.9827 N   0  0  0  0  0  0  0  0  0  0  0  0
    9.9586  -16.6097   15.8410 C   0  0  1  0  0  0  0  0  0  0  0  0
    9.8780  -15.9982   14.4568 C   0  0  0  0  0  0  0  0  0  0  0  0
   10.0834  -17.0425   13.4217 C   0  0  0  0  0  0  0  0  0  0  0  0
    9.1178  -17.3738   12.6880 O   0  0  0  0  0  0  0  0  0  0  0  0
    9.9153  -15.5683   16.8987 C   0  0  0  0  0  0  0  0  0  0  0  0
   10.7950  -14.6917   16.9356 O   0  0  0  0  0  0  0  0  0  0  0  0
   11.2941  -17.6750   13.2221 O   0  0  0  0  0  0  0  0  0  0  0  0
    7.9085  -12.5658   19.9462 C   0  0  0  0  0  0  0  0  0  0  0  0
    7.6870  -13.6631   18.9268 C   0  0  1  0  0  0  0  0  0  0  0  0
    7.4043  -13.1433   17.6813 O   0  0  0  0  0  0  0  0  0  0  0  0
    8.8618  -14.5882   18.9609 C   0  0  2  0  0  0  0  0  0  0  0  0
    8.8906  -15.5358   17.8853 N   0  0  0  0  0  0  0  0  0  0  0  0
    9.0577  -15.2278   20.2914 C   0  0  0  0  0  0  0  0  0  0  0  0
    8.1006  -15.7427   20.9314 O   0  0  0  0  0  0  0  0  0  0  0  0
   10.3292  -15.2975   20.9203 N   0  0  0  0  0  0  0  0  0  0  0  0
   10.5341  -15.9436   22.2016 C   0  0  0  0  0  0  0  0  0  0  0  0
   11.9080  -15.7467   22.6696 C   0  0  0  0  0  0  0  0  0  0  0  0
   12.2523  -16.1537   23.9486 O   0  0  0  0  0  0  0  0  0  0  0  0
   12.7914  -15.2207   21.9538 O   0  0  0  0  0  0  0  0  0  0  0  0
  2  1  1  1
  3  2  1  0
  4  3  1  0
  4  5  2  0
  6  2  1  0
  7  6  2  0
  8  4  1  0
 10  9  1  1
 10 12  1  0
 11 10  1  0
 12 13  1  6
 13  6  1  0
 14 15  2  0
 14 12  1  0
 16 14  1  0
 17 18  1  0
 17 16  1  0
 18 19  1  0
 20 18  2  0
M  END
$$$$
