DTG.pdb
     RDKit          3D

 20 19  0  0  1  0  0  0  0  0999 V2000
    9.8987  -15.2532   15.2144 N   0  0  0  0  0  0  0  0  0  0  0  0
    9.7633  -16.1378   16.3294 C   0  0  1  0  0  0  0  0  0  0  0  0
   10.7998  -17.2377   16.2179 C   0  0  0  0  0  0  0  0  0  0  0  0
   10.7252  -17.8797   14.8814 C   0  0  0  0  0  0  0  0  0  0  0  0
    9.6892  -18.5193   14.5678 O   0  0  0  0  0  0  0  0  0  0  0  0
    9.8550  -15.4344   17.6338 C   0  0  0  0  0  0  0  0  0  0  0  0
   10.8038  -14.6623   17.8513 O   0  0  0  0  0  0  0  0  0  0  0  0
   11.7467  -17.8091   13.9556 O   0  0  0  0  0  0  0  0  0  0  0  0
    8.1440  -12.8321   19.2014 C   0  0  0  0  0  0  0  0  0  0  0  0
    7.9500  -13.9481   20.2059 C   0  0  1  0  0  0  0  0  0  0  0  0
    6.6499  -14.4077   20.2029 O   0  0  0  0  0  0  0  0  0  0  0  0
    8.9810  -15.0015   19.9515 C   0  0  2  0  0  0  0  0  0  0  0  0
    8.8842  -15.6134   18.6586 N   0  0  0  0  0  0  0  0  0  0  0  0
    9.0720  -16.0011   21.0515 C   0  0  0  0  0  0  0  0  0  0  0  0
    8.5045  -17.1253   20.9801 O   0  0  0  0  0  0  0  0  0  0  0  0
    9.8005  -15.7522   22.2451 N   0  0  0  0  0  0  0  0  0  0  0  0
    9.7652  -16.6475   23.3845 C   0  0  0  0  0  0  0  0  0  0  0  0
   10.5951  -16.1329   24.4762 C   0  0  0  0  0  0  0  0  0  0  0  0
   10.5085  -16.7213   25.7278 O   0  0  0  0  0  0  0  0  0  0  0  0
   11.3866  -15.1741   24.3224 O   0  0  0  0  0  0  0  0  0  0  0  0
  2  1  1  6
  3  2  1  0
  4  3  1  0
  4  5  2  0
  6  2  1  0
  7  6  2  0
  8  4  1  0
 10  9  1  6
 10 12  1  0
 11 10  1  0
 12 13  1  6
 13  6  1  0
 14 15  2  0
 14 12  1  0
 16 14  1  0
 17 18  1  0
 17 16  1  0
 18 19  1  0
 20 18  2  0
M  END
$$$$
