DTG.pdb
     RDKit          3D

 20 19  0  0  1  0  0  0  0  0999 V2000
    9.9911  -18.5022   20.2992 N   0  0  0  0  0  0  0  0  0  0  0  0
   10.9781  -17.4774   20.4391 C   0  0  1  0  0  0  0  0  0  0  0  0
   11.5013  -17.1028   19.0671 C   0  0  0  0  0  0  0  0  0  0  0  0
   12.0480  -18.3008   18.3816 C   0  0  0  0  0  0  0  0  0  0  0  0
   12.9942  -18.9324   18.9168 O   0  0  0  0  0  0  0  0  0  0  0  0
   10.4711  -16.2889   21.1708 C   0  0  0  0  0  0  0  0  0  0  0  0
   11.1904  -15.2820   21.2826 O   0  0  0  0  0  0  0  0  0  0  0  0
   11.5647  -18.7614   17.1733 O   0  0  0  0  0  0  0  0  0  0  0  0
    7.1475  -14.3250   20.6180 C   0  0  0  0  0  0  0  0  0  0  0  0
    7.2010  -14.8235   22.0465 C   0  0  1  0  0  0  0  0  0  0  0  0
    6.3465  -15.8883   22.2403 O   0  0  0  0  0  0  0  0  0  0  0  0
    8.6276  -15.1006   22.4006 C   0  0  2  0  0  0  0  0  0  0  0  0
    9.1749  -16.2589   21.7568 N   0  0  0  0  0  0  0  0  0  0  0  0
    8.8721  -15.0940   23.8695 C   0  0  0  0  0  0  0  0  0  0  0  0
    8.5134  -14.1313   24.6012 O   0  0  0  0  0  0  0  0  0  0  0  0
    9.5219  -16.1669   24.5357 N   0  0  0  0  0  0  0  0  0  0  0  0
    9.6389  -16.2358   25.9788 C   0  0  0  0  0  0  0  0  0  0  0  0
   10.3233  -17.4648   26.3870 C   0  0  0  0  0  0  0  0  0  0  0  0
   10.4449  -17.7558   27.7363 O   0  0  0  0  0  0  0  0  0  0  0  0
   10.8071  -18.2700   25.5581 O   0  0  0  0  0  0  0  0  0  0  0  0
  2  1  1  6
  3  2  1  0
  4  3  1  0
  4  5  2  0
  6  2  1  0
  7  6  2  0
  8  4  1  0
 10  9  1  6
 10 12  1  0
 11 10  1  0
 12 13  1  1
 13  6  1  0
 14 15  2  0
 14 12  1  0
 16 14  1  0
 17 18  1  0
 17 16  1  0
 18 19  1  0
 20 18  2  0
M  END
$$$$
