DTG.pdb
     RDKit          3D

 20 19  0  0  1  0  0  0  0  0999 V2000
    9.9868  -18.1812   19.9425 N   0  0  0  0  0  0  0  0  0  0  0  0
   10.9758  -17.4139   20.6334 C   0  0  1  0  0  0  0  0  0  0  0  0
   11.8203  -16.6672   19.6205 C   0  0  0  0  0  0  0  0  0  0  0  0
   12.3219  -17.6020   18.5818 C   0  0  0  0  0  0  0  0  0  0  0  0
   12.9377  -18.6383   18.9386 O   0  0  0  0  0  0  0  0  0  0  0  0
   10.3877  -16.4909   21.6369 C   0  0  0  0  0  0  0  0  0  0  0  0
   11.1008  -15.6221   22.1663 O   0  0  0  0  0  0  0  0  0  0  0  0
   12.1444  -17.3883   17.2296 O   0  0  0  0  0  0  0  0  0  0  0  0
    7.7370  -14.0179   21.3844 C   0  0  0  0  0  0  0  0  0  0  0  0
    7.2641  -14.9151   22.5084 C   0  0  1  0  0  0  0  0  0  0  0  0
    6.1793  -15.6747   22.1236 O   0  0  0  0  0  0  0  0  0  0  0  0
    8.4305  -15.7075   23.0075 C   0  0  2  0  0  0  0  0  0  0  0  0
    9.0195  -16.5647   22.0207 N   0  0  0  0  0  0  0  0  0  0  0  0
    8.1447  -16.4181   24.2845 C   0  0  0  0  0  0  0  0  0  0  0  0
    7.6785  -17.5898   24.3061 O   0  0  0  0  0  0  0  0  0  0  0  0
    8.3782  -15.8232   25.5529 N   0  0  0  0  0  0  0  0  0  0  0  0
    8.0269  -16.4746   26.7993 C   0  0  0  0  0  0  0  0  0  0  0  0
    9.1776  -17.1913   27.3539 C   0  0  0  0  0  0  0  0  0  0  0  0
    9.0752  -17.7671   28.6102 O   0  0  0  0  0  0  0  0  0  0  0  0
   10.2595  -17.3055   26.7328 O   0  0  0  0  0  0  0  0  0  0  0  0
  2  1  1  6
  3  2  1  0
  4  3  1  0
  4  5  2  0
  6  2  1  0
  7  6  2  0
  8  4  1  0
 10  9  1  6
 10 12  1  0
 11 10  1  0
 12 13  1  6
 13  6  1  0
 14 15  2  0
 14 12  1  0
 16 14  1  0
 17 18  1  0
 17 16  1  0
 18 19  1  0
 20 18  2  0
M  END
$$$$
