DTG.pdb
     RDKit          3D

 20 19  0  0  1  0  0  0  0  0999 V2000
    8.9737  -18.3886   18.5985 N   0  0  0  0  0  0  0  0  0  0  0  0
   10.2223  -17.8044   18.9775 C   0  0  1  0  0  0  0  0  0  0  0  0
   10.8541  -17.1543   17.7631 C   0  0  0  0  0  0  0  0  0  0  0  0
   11.5027  -18.1818   16.9101 C   0  0  0  0  0  0  0  0  0  0  0  0
   10.8167  -19.1472   16.4881 O   0  0  0  0  0  0  0  0  0  0  0  0
   10.0880  -16.8428   20.1009 C   0  0  0  0  0  0  0  0  0  0  0  0
   11.0767  -16.1885   20.4725 O   0  0  0  0  0  0  0  0  0  0  0  0
   12.8351  -18.1301   16.5530 O   0  0  0  0  0  0  0  0  0  0  0  0
    7.7081  -14.0046   20.5768 C   0  0  0  0  0  0  0  0  0  0  0  0
    7.5553  -14.8377   21.8316 C   0  0  1  0  0  0  0  0  0  0  0  0
    6.3169  -15.4419   21.8869 O   0  0  0  0  0  0  0  0  0  0  0  0
    8.7112  -15.7830   21.9187 C   0  0  2  0  0  0  0  0  0  0  0  0
    8.8529  -16.6392   20.7775 N   0  0  0  0  0  0  0  0  0  0  0  0
    8.7508  -16.5332   23.2045 C   0  0  0  0  0  0  0  0  0  0  0  0
    8.1401  -17.6260   23.3584 O   0  0  0  0  0  0  0  0  0  0  0  0
    9.4759  -16.0671   24.3333 N   0  0  0  0  0  0  0  0  0  0  0  0
    9.4248  -16.7266   25.6230 C   0  0  0  0  0  0  0  0  0  0  0  0
   10.2724  -16.0331   26.5957 C   0  0  0  0  0  0  0  0  0  0  0  0
   10.2578  -16.4424   27.9196 O   0  0  0  0  0  0  0  0  0  0  0  0
   11.0160  -15.0770   26.2761 O   0  0  0  0  0  0  0  0  0  0  0  0
  2  1  1  6
  3  2  1  0
  4  3  1  0
  4  5  2  0
  6  2  1  0
  7  6  2  0
  8  4  1  0
 10  9  1  6
 10 12  1  0
 11 10  1  0
 12 13  1  6
 13  6  1  0
 14 15  2  0
 14 12  1  0
 16 14  1  0
 17 18  1  0
 17 16  1  0
 18 19  1  0
 20 18  2  0
M  END
$$$$
