DTG.pdb
     RDKit          3D

 20 19  0  0  1  0  0  0  0  0999 V2000
    8.1989  -14.2561   15.7888 N   0  0  0  0  0  0  0  0  0  0  0  0
    8.9493  -15.1146   16.6513 C   0  0  1  0  0  0  0  0  0  0  0  0
   10.2623  -15.4653   15.9809 C   0  0  0  0  0  0  0  0  0  0  0  0
   10.0340  -16.4375   14.8823 C   0  0  0  0  0  0  0  0  0  0  0  0
    8.8564  -16.7770   14.6018 O   0  0  0  0  0  0  0  0  0  0  0  0
    9.1662  -14.5273   17.9977 C   0  0  0  0  0  0  0  0  0  0  0  0
    9.6340  -13.3809   18.1011 O   0  0  0  0  0  0  0  0  0  0  0  0
   11.0603  -16.9934   14.1452 O   0  0  0  0  0  0  0  0  0  0  0  0
    6.8640  -13.3806   20.2517 C   0  0  0  0  0  0  0  0  0  0  0  0
    7.6042  -14.3736   21.1225 C   0  0  1  0  0  0  0  0  0  0  0  0
    6.8398  -15.4945   21.3692 O   0  0  0  0  0  0  0  0  0  0  0  0
    8.9342  -14.6547   20.4983 C   0  0  2  0  0  0  0  0  0  0  0  0
    8.8544  -15.2373   19.1908 N   0  0  0  0  0  0  0  0  0  0  0  0
    9.8522  -15.4019   21.4019 C   0  0  0  0  0  0  0  0  0  0  0  0
   10.2815  -16.5523   21.1139 O   0  0  0  0  0  0  0  0  0  0  0  0
   10.2998  -14.8680   22.6396 N   0  0  0  0  0  0  0  0  0  0  0  0
   11.2898  -15.5307   23.4653 C   0  0  0  0  0  0  0  0  0  0  0  0
   10.6944  -16.6567   24.1885 C   0  0  0  0  0  0  0  0  0  0  0  0
   11.2612  -17.9154   24.0664 O   0  0  0  0  0  0  0  0  0  0  0  0
    9.6850  -16.5264   24.9189 O   0  0  0  0  0  0  0  0  0  0  0  0
  2  1  1  6
  3  2  1  0
  4  3  1  0
  4  5  2  0
  6  2  1  0
  7  6  2  0
  8  4  1  0
 10  9  1  6
 10 12  1  0
 11 10  1  0
 12 13  1  6
 13  6  1  0
 14 15  2  0
 14 12  1  0
 16 14  1  0
 17 18  1  0
 17 16  1  0
 18 19  1  0
 20 18  2  0
M  END
$$$$
