DTG.pdb
     RDKit          3D

 20 19  0  0  1  0  0  0  0  0999 V2000
    9.0555  -15.5351   14.5306 N   0  0  0  0  0  0  0  0  0  0  0  0
    8.5377  -16.1075   15.7340 C   0  0  1  0  0  0  0  0  0  0  0  0
    8.6719  -17.6153   15.6632 C   0  0  0  0  0  0  0  0  0  0  0  0
    7.8992  -18.1457   14.5118 C   0  0  0  0  0  0  0  0  0  0  0  0
    8.4699  -18.2705   13.3985 O   0  0  0  0  0  0  0  0  0  0  0  0
    9.1847  -15.5608   16.9536 C   0  0  0  0  0  0  0  0  0  0  0  0
   10.3766  -15.2125   16.9145 O   0  0  0  0  0  0  0  0  0  0  0  0
    6.5716  -18.5129   14.6027 O   0  0  0  0  0  0  0  0  0  0  0  0
    8.0340  -12.6309   18.7149 C   0  0  0  0  0  0  0  0  0  0  0  0
    8.2179  -13.6249   19.8420 C   0  0  1  0  0  0  0  0  0  0  0  0
    7.0084  -13.9852   20.3977 O   0  0  0  0  0  0  0  0  0  0  0  0
    9.0345  -14.7716   19.3364 C   0  0  2  0  0  0  0  0  0  0  0  0
    8.4817  -15.4185   18.1825 N   0  0  0  0  0  0  0  0  0  0  0  0
    9.4065  -15.7356   20.4088 C   0  0  0  0  0  0  0  0  0  0  0  0
    8.6994  -16.7463   20.6719 O   0  0  0  0  0  0  0  0  0  0  0  0
   10.5760  -15.5778   21.1990 N   0  0  0  0  0  0  0  0  0  0  0  0
   10.9069  -16.4686   22.2936 C   0  0  0  0  0  0  0  0  0  0  0  0
   12.2118  -16.1280   22.8651 C   0  0  0  0  0  0  0  0  0  0  0  0
   12.6440  -16.7860   24.0054 O   0  0  0  0  0  0  0  0  0  0  0  0
   12.9589  -15.2584   22.3600 O   0  0  0  0  0  0  0  0  0  0  0  0
  2  1  1  6
  3  2  1  0
  4  3  1  0
  4  5  2  0
  6  2  1  0
  7  6  2  0
  8  4  1  0
 10  9  1  6
 10 12  1  0
 11 10  1  0
 12 13  1  6
 13  6  1  0
 14 15  2  0
 14 12  1  0
 16 14  1  0
 17 18  1  0
 17 16  1  0
 18 19  1  0
 20 18  2  0
M  END
$$$$
