DTG.pdb
     RDKit          3D

 20 19  0  0  1  0  0  0  0  0999 V2000
    7.8589  -16.6853   15.7087 N   0  0  0  0  0  0  0  0  0  0  0  0
    9.0633  -15.9297   15.5588 C   0  0  1  0  0  0  0  0  0  0  0  0
    8.8922  -14.9456   14.4192 C   0  0  0  0  0  0  0  0  0  0  0  0
    8.5402  -15.6646   13.1688 C   0  0  0  0  0  0  0  0  0  0  0  0
    9.1798  -16.7020   12.8598 O   0  0  0  0  0  0  0  0  0  0  0  0
    9.4704  -15.2449   16.8119 C   0  0  0  0  0  0  0  0  0  0  0  0
   10.4965  -14.5446   16.8251 O   0  0  0  0  0  0  0  0  0  0  0  0
    7.5355  -15.2472   12.3192 O   0  0  0  0  0  0  0  0  0  0  0  0
    7.7874  -12.7657   18.7359 C   0  0  0  0  0  0  0  0  0  0  0  0
    8.1088  -13.7903   19.8031 C   0  0  1  0  0  0  0  0  0  0  0  0
    6.9637  -14.3788   20.2970 O   0  0  0  0  0  0  0  0  0  0  0  0
    9.1126  -14.7525   19.2517 C   0  0  2  0  0  0  0  0  0  0  0  0
    8.7195  -15.3619   18.0149 N   0  0  0  0  0  0  0  0  0  0  0  0
    9.5746  -15.7482   20.2580 C   0  0  0  0  0  0  0  0  0  0  0  0
    8.9332  -16.8091   20.4901 O   0  0  0  0  0  0  0  0  0  0  0  0
   10.7617  -15.5662   21.0163 N   0  0  0  0  0  0  0  0  0  0  0  0
   11.1812  -16.4940   22.0479 C   0  0  0  0  0  0  0  0  0  0  0  0
   12.4992  -16.1282   22.5717 C   0  0  0  0  0  0  0  0  0  0  0  0
   13.0275  -16.8432   23.6347 O   0  0  0  0  0  0  0  0  0  0  0  0
   13.1735  -15.1871   22.0932 O   0  0  0  0  0  0  0  0  0  0  0  0
  2  1  1  1
  3  2  1  0
  4  3  1  0
  4  5  2  0
  6  2  1  0
  7  6  2  0
  8  4  1  0
 10  9  1  6
 10 12  1  0
 11 10  1  0
 12 13  1  6
 13  6  1  0
 14 15  2  0
 14 12  1  0
 16 14  1  0
 17 18  1  0
 17 16  1  0
 18 19  1  0
 20 18  2  0
M  END
$$$$
