DTG.pdb
     RDKit          3D

 20 19  0  0  1  0  0  0  0  0999 V2000
    9.0556  -18.0649   17.2474 N   0  0  0  0  0  0  0  0  0  0  0  0
   10.3063  -17.4955   17.6419 C   0  0  1  0  0  0  0  0  0  0  0  0
   11.1113  -17.1609   16.4024 C   0  0  0  0  0  0  0  0  0  0  0  0
   11.3293  -18.3821   15.5868 C   0  0  0  0  0  0  0  0  0  0  0  0
   10.4929  -19.3184   15.6531 O   0  0  0  0  0  0  0  0  0  0  0  0
   10.1446  -16.3102   18.5216 C   0  0  0  0  0  0  0  0  0  0  0  0
   11.1334  -15.8407   19.1095 O   0  0  0  0  0  0  0  0  0  0  0  0
   12.4156  -18.5434   14.7505 O   0  0  0  0  0  0  0  0  0  0  0  0
    7.6329  -12.4228   20.0873 C   0  0  0  0  0  0  0  0  0  0  0  0
    7.6106  -13.6297   19.1734 C   0  0  1  0  0  0  0  0  0  0  0  0
    7.6794  -13.2581   17.8472 O   0  0  0  0  0  0  0  0  0  0  0  0
    8.6841  -14.5760   19.6089 C   0  0  2  0  0  0  0  0  0  0  0  0
    8.8829  -15.6830   18.7198 N   0  0  0  0  0  0  0  0  0  0  0  0
    8.5403  -15.0019   21.0286 C   0  0  0  0  0  0  0  0  0  0  0  0
    7.6719  -15.8430   21.3881 O   0  0  0  0  0  0  0  0  0  0  0  0
    9.3687  -14.4897   22.0624 N   0  0  0  0  0  0  0  0  0  0  0  0
    9.2246  -14.8860   23.4492 C   0  0  0  0  0  0  0  0  0  0  0  0
   10.4502  -15.5214   23.9385 C   0  0  0  0  0  0  0  0  0  0  0  0
   11.4803  -15.7805   23.0486 O   0  0  0  0  0  0  0  0  0  0  0  0
   10.6057  -15.8427   25.1394 O   0  0  0  0  0  0  0  0  0  0  0  0
  2  1  1  6
  3  2  1  0
  4  3  1  0
  4  5  2  0
  6  2  1  0
  7  6  2  0
  8  4  1  0
 10  9  1  1
 10 12  1  0
 11 10  1  0
 12 13  1  6
 13  6  1  0
 14 15  2  0
 14 12  1  0
 16 14  1  0
 17 18  1  0
 17 16  1  0
 18 19  1  0
 20 18  2  0
M  END
$$$$
