DTG.pdb
     RDKit          3D

 20 19  0  0  1  0  0  0  0  0999 V2000
    9.6840  -18.3630   20.6851 N   0  0  0  0  0  0  0  0  0  0  0  0
   10.7988  -17.5299   21.0126 C   0  0  1  0  0  0  0  0  0  0  0  0
   11.1263  -16.6502   19.8229 C   0  0  0  0  0  0  0  0  0  0  0  0
   11.5774  -17.4816   18.6787 C   0  0  0  0  0  0  0  0  0  0  0  0
   12.5463  -18.2667   18.8384 O   0  0  0  0  0  0  0  0  0  0  0  0
   10.5715  -16.7237   22.2387 C   0  0  0  0  0  0  0  0  0  0  0  0
   11.3637  -15.8125   22.5317 O   0  0  0  0  0  0  0  0  0  0  0  0
   10.9805  -17.4357   17.4348 O   0  0  0  0  0  0  0  0  0  0  0  0
    8.2287  -14.3299   23.3836 C   0  0  0  0  0  0  0  0  0  0  0  0
    8.0912  -15.4138   24.4316 C   0  0  1  0  0  0  0  0  0  0  0  0
    6.8883  -16.0778   24.3141 O   0  0  0  0  0  0  0  0  0  0  0  0
    9.2965  -16.2969   24.3636 C   0  0  2  0  0  0  0  0  0  0  0  0
    9.4657  -16.9583   23.1029 N   0  0  0  0  0  0  0  0  0  0  0  0
    9.3952  -17.2328   25.5178 C   0  0  0  0  0  0  0  0  0  0  0  0
    8.9897  -18.4249   25.4466 O   0  0  0  0  0  0  0  0  0  0  0  0
    9.9501  -16.8430   26.7658 N   0  0  0  0  0  0  0  0  0  0  0  0
   10.0425  -17.7448   27.8968 C   0  0  0  0  0  0  0  0  0  0  0  0
   10.7041  -17.0926   29.0292 C   0  0  0  0  0  0  0  0  0  0  0  0
   10.8221  -17.7755   30.2292 O   0  0  0  0  0  0  0  0  0  0  0  0
   11.1713  -15.9326   28.9557 O   0  0  0  0  0  0  0  0  0  0  0  0
  2  1  1  6
  3  2  1  0
  4  3  1  0
  4  5  2  0
  6  2  1  0
  7  6  2  0
  8  4  1  0
 10  9  1  6
 10 12  1  0
 11 10  1  0
 12 13  1  6
 13  6  1  0
 14 15  2  0
 14 12  1  0
 16 14  1  0
 17 18  1  0
 17 16  1  0
 18 19  1  0
 20 18  2  0
M  END
$$$$
