QSA.pdb
     RDKit          3D

 21 20  0  0  1  0  0  0  0  0999 V2000
   12.4719   -7.6727   -7.1980 N   0  0  0  0  0  0  0  0  0  0  0  0
   13.1659   -6.4519   -7.0907 C   0  0  0  0  0  0  0  0  0  0  0  0
   12.5884   -5.4572   -6.5475 O   0  0  0  0  0  0  0  0  0  0  0  0
   14.5389   -6.2528   -7.5742 C   0  0  0  0  0  0  0  0  0  0  0  0
   15.1990   -7.4849   -8.1310 C   0  0  0  0  0  0  0  0  0  0  0  0
   14.8510   -7.7806   -9.5476 C   0  0  2  0  0  0  0  0  0  0  0  0
   13.9489   -8.9347   -9.5235 N   0  0  0  0  0  0  0  0  0  0  0  0
   16.0408   -8.0582  -10.3950 C   0  0  0  0  0  0  0  0  0  0  0  0
   16.5419   -9.2092  -10.2956 O   0  0  0  0  0  0  0  0  0  0  0  0
   16.3496   -6.4032  -14.0674 O   0  0  0  0  0  0  0  0  0  0  0  0
   17.0110   -7.5509  -13.6442 C   0  0  0  0  0  0  0  0  0  0  0  0
   17.5855   -7.4111  -12.2601 C   0  0  2  0  0  0  0  0  0  0  0  0
   16.5889   -7.0832  -11.2718 N   0  0  0  0  0  0  0  0  0  0  0  0
   18.7002   -6.4702  -12.1790 C   0  0  0  0  0  0  0  0  0  0  0  0
   18.4716   -5.2700  -11.9026 O   0  0  0  0  0  0  0  0  0  0  0  0
   22.4609   -6.4767  -12.5413 C   0  0  0  0  0  0  0  0  0  0  0  0
   21.0780   -5.8389  -12.4266 C   0  0  2  0  0  0  0  0  0  0  0  0
   20.0472   -6.8539  -12.4008 N   0  0  0  0  0  0  0  0  0  0  0  0
   20.9286   -4.9572  -13.5998 C   0  0  0  0  0  0  0  0  0  0  0  0
   20.1506   -5.2566  -14.5361 O   0  0  0  0  0  0  0  0  0  0  0  0
   21.6557   -3.7884  -13.6647 O   0  0  0  0  0  0  0  0  0  0  0  0
  2  3  2  0
  2  1  1  0
  4  2  1  0
  5  4  1  0
  6  7  1  1
  6  5  1  0
  8  6  1  0
  9  8  2  0
 10 11  1  0
 12 11  1  6
 12 13  1  0
 12 14  1  0
 13  8  1  0
 14 18  1  0
 15 14  2  0
 17 16  1  6
 17 19  1  0
 18 17  1  0
 19 20  2  0
 19 21  1  0
M  END
$$$$
