QSA.pdb
     RDKit          3D

 21 20  0  0  1  0  0  0  0  0999 V2000
   20.9684  -14.4190  -15.3274 N   0  0  0  0  0  0  0  0  0  0  0  0
   19.6166  -14.7557  -15.5340 C   0  0  0  0  0  0  0  0  0  0  0  0
   19.2029  -15.9039  -15.1756 O   0  0  0  0  0  0  0  0  0  0  0  0
   18.6378  -13.8475  -16.1467 C   0  0  0  0  0  0  0  0  0  0  0  0
   19.1456  -12.4568  -16.4150 C   0  0  0  0  0  0  0  0  0  0  0  0
   18.0995  -11.4972  -16.8623 C   0  0  2  0  0  0  0  0  0  0  0  0
   17.5501  -12.0309  -18.1111 N   0  0  0  0  0  0  0  0  0  0  0  0
   18.6192  -10.1184  -17.0609 C   0  0  0  0  0  0  0  0  0  0  0  0
   19.2201   -9.8981  -18.1455 O   0  0  0  0  0  0  0  0  0  0  0  0
   18.1330   -5.4390  -16.3714 O   0  0  0  0  0  0  0  0  0  0  0  0
   17.7359   -6.7515  -16.1403 C   0  0  0  0  0  0  0  0  0  0  0  0
   18.8600   -7.7364  -16.3179 C   0  0  2  0  0  0  0  0  0  0  0  0
   18.4512   -9.0989  -16.0851 N   0  0  0  0  0  0  0  0  0  0  0  0
   20.0447   -7.4257  -15.5215 C   0  0  0  0  0  0  0  0  0  0  0  0
   20.1054   -7.8168  -14.3330 O   0  0  0  0  0  0  0  0  0  0  0  0
   23.3903   -5.7229  -15.9631 C   0  0  0  0  0  0  0  0  0  0  0  0
   22.3075   -6.4822  -15.1995 C   0  0  2  0  0  0  0  0  0  0  0  0
   21.1449   -6.6929  -16.0348 N   0  0  0  0  0  0  0  0  0  0  0  0
   21.9751   -5.6590  -14.0213 C   0  0  0  0  0  0  0  0  0  0  0  0
   21.0177   -4.8501  -14.0495 O   0  0  0  0  0  0  0  0  0  0  0  0
   22.7295   -5.7829  -12.8748 O   0  0  0  0  0  0  0  0  0  0  0  0
  2  3  2  0
  2  1  1  0
  4  2  1  0
  5  4  1  0
  6  7  1  6
  6  5  1  0
  8  6  1  0
  9  8  2  0
 10 11  1  0
 12 11  1  1
 12 13  1  0
 12 14  1  0
 13  8  1  0
 14 18  1  0
 15 14  2  0
 17 16  1  6
 17 19  1  0
 18 17  1  0
 19 20  2  0
 19 21  1  0
M  END
$$$$
