QSA.pdb
     RDKit          3D

 21 20  0  0  1  0  0  0  0  0999 V2000
   15.9163   -9.8630  -14.9206 N   0  0  0  0  0  0  0  0  0  0  0  0
   14.9122  -10.2998  -14.0350 C   0  0  0  0  0  0  0  0  0  0  0  0
   14.1220  -11.2261  -14.4033 O   0  0  0  0  0  0  0  0  0  0  0  0
   14.7181   -9.7436  -12.6890 C   0  0  0  0  0  0  0  0  0  0  0  0
   15.6944   -8.6660  -12.3024 C   0  0  0  0  0  0  0  0  0  0  0  0
   17.0005   -9.1729  -11.7998 C   0  0  2  0  0  0  0  0  0  0  0  0
   16.7773   -9.6029  -10.4172 N   0  0  0  0  0  0  0  0  0  0  0  0
   18.0854   -8.1586  -11.8685 C   0  0  0  0  0  0  0  0  0  0  0  0
   18.2326   -7.4275  -10.8538 O   0  0  0  0  0  0  0  0  0  0  0  0
   21.4336   -8.7222  -14.1983 O   0  0  0  0  0  0  0  0  0  0  0  0
   21.3634   -7.8611  -13.1086 C   0  0  0  0  0  0  0  0  0  0  0  0
   20.0511   -7.1279  -13.0336 C   0  0  2  0  0  0  0  0  0  0  0  0
   18.9154   -8.0153  -13.0132 N   0  0  0  0  0  0  0  0  0  0  0  0
   19.8808   -6.1200  -14.0775 C   0  0  0  0  0  0  0  0  0  0  0  0
   19.3956   -6.4564  -15.1823 O   0  0  0  0  0  0  0  0  0  0  0  0
   20.2705   -2.4020  -14.5506 C   0  0  0  0  0  0  0  0  0  0  0  0
   20.1519   -3.8503  -15.0202 C   0  0  2  0  0  0  0  0  0  0  0  0
   20.2426   -4.7605  -13.8991 N   0  0  0  0  0  0  0  0  0  0  0  0
   21.2548   -4.0691  -15.9750 C   0  0  0  0  0  0  0  0  0  0  0  0
   22.2919   -4.6843  -15.6319 O   0  0  0  0  0  0  0  0  0  0  0  0
   21.1409   -3.5894  -17.2618 O   0  0  0  0  0  0  0  0  0  0  0  0
  2  3  2  0
  2  1  1  0
  4  2  1  0
  5  4  1  0
  6  7  1  1
  6  5  1  0
  8  6  1  0
  9  8  2  0
 10 11  1  0
 12 11  1  6
 12 13  1  0
 12 14  1  0
 13  8  1  0
 14 18  1  0
 15 14  2  0
 17 16  1  1
 17 19  1  0
 18 17  1  0
 19 20  2  0
 19 21  1  0
M  END
$$$$
