QSA.pdb
     RDKit          3D

 21 20  0  0  1  0  0  0  0  0999 V2000
   18.5262   -7.6690  -19.4615 N   0  0  0  0  0  0  0  0  0  0  0  0
   18.1600   -8.7889  -20.2330 C   0  0  0  0  0  0  0  0  0  0  0  0
   18.0331   -8.6586  -21.4919 O   0  0  0  0  0  0  0  0  0  0  0  0
   17.9126  -10.1209  -19.6647 C   0  0  0  0  0  0  0  0  0  0  0  0
   18.0177  -10.1995  -18.1659 C   0  0  0  0  0  0  0  0  0  0  0  0
   19.1561  -11.0220  -17.6729 C   0  0  2  0  0  0  0  0  0  0  0  0
   18.5884  -12.2983  -17.2313 N   0  0  0  0  0  0  0  0  0  0  0  0
   19.9119  -10.3709  -16.5704 C   0  0  0  0  0  0  0  0  0  0  0  0
   19.4280  -10.4904  -15.4140 O   0  0  0  0  0  0  0  0  0  0  0  0
   23.9631   -8.9929  -16.8836 O   0  0  0  0  0  0  0  0  0  0  0  0
   23.3034   -9.3785  -15.7217 C   0  0  0  0  0  0  0  0  0  0  0  0
   21.8441   -9.0100  -15.7350 C   0  0  2  0  0  0  0  0  0  0  0  0
   21.1155   -9.6511  -16.8007 N   0  0  0  0  0  0  0  0  0  0  0  0
   21.6022   -7.5694  -15.7586 C   0  0  0  0  0  0  0  0  0  0  0  0
   21.2965   -7.0158  -16.8399 O   0  0  0  0  0  0  0  0  0  0  0  0
   21.5495   -4.6585  -13.3487 C   0  0  0  0  0  0  0  0  0  0  0  0
   21.4883   -5.3285  -14.7196 C   0  0  2  0  0  0  0  0  0  0  0  0
   21.6976   -6.7553  -14.6014 N   0  0  0  0  0  0  0  0  0  0  0  0
   22.5443   -4.7008  -15.5363 C   0  0  0  0  0  0  0  0  0  0  0  0
   23.6801   -5.2226  -15.6329 O   0  0  0  0  0  0  0  0  0  0  0  0
   22.2757   -3.5242  -16.2014 O   0  0  0  0  0  0  0  0  0  0  0  0
  2  3  2  0
  2  1  1  0
  4  2  1  0
  5  4  1  0
  6  7  1  1
  6  5  1  0
  8  6  1  0
  9  8  2  0
 10 11  1  0
 12 11  1  6
 12 13  1  0
 12 14  1  0
 13  8  1  0
 14 18  1  0
 15 14  2  0
 17 16  1  1
 17 19  1  0
 18 17  1  0
 19 20  2  0
 19 21  1  0
M  END
$$$$
