QSA.pdb
     RDKit          3D

 21 20  0  0  1  0  0  0  0  0999 V2000
   18.1246   -9.6068  -20.6449 N   0  0  0  0  0  0  0  0  0  0  0  0
   18.5529  -10.8665  -20.1832 C   0  0  0  0  0  0  0  0  0  0  0  0
   18.6043  -11.8404  -20.9998 O   0  0  0  0  0  0  0  0  0  0  0  0
   18.9519  -11.1298  -18.7940 C   0  0  0  0  0  0  0  0  0  0  0  0
   18.7983   -9.9613  -17.8587 C   0  0  0  0  0  0  0  0  0  0  0  0
   19.2198  -10.2368  -16.4581 C   0  0  2  0  0  0  0  0  0  0  0  0
   18.4353  -11.3881  -16.0050 N   0  0  0  0  0  0  0  0  0  0  0  0
   19.0247   -9.0752  -15.5508 C   0  0  0  0  0  0  0  0  0  0  0  0
   17.8696   -8.9281  -15.0712 O   0  0  0  0  0  0  0  0  0  0  0  0
   21.5905   -7.9797  -12.8235 O   0  0  0  0  0  0  0  0  0  0  0  0
   20.3032   -7.4594  -12.8998 C   0  0  0  0  0  0  0  0  0  0  0  0
   19.9107   -7.0887  -14.3048 C   0  0  2  0  0  0  0  0  0  0  0  0
   20.0788   -8.1752  -15.2370 N   0  0  0  0  0  0  0  0  0  0  0  0
   20.5808   -5.8908  -14.8053 C   0  0  0  0  0  0  0  0  0  0  0  0
   21.6627   -6.0066  -15.4260 O   0  0  0  0  0  0  0  0  0  0  0  0
   19.9935   -2.1638  -14.9680 C   0  0  0  0  0  0  0  0  0  0  0  0
   20.8088   -3.4474  -15.1081 C   0  0  2  0  0  0  0  0  0  0  0  0
   20.0594   -4.5851  -14.6205 N   0  0  0  0  0  0  0  0  0  0  0  0
   22.0410   -3.2447  -14.3228 C   0  0  0  0  0  0  0  0  0  0  0  0
   22.2028   -3.8157  -13.2185 O   0  0  0  0  0  0  0  0  0  0  0  0
   23.0266   -2.4153  -14.8124 O   0  0  0  0  0  0  0  0  0  0  0  0
  2  3  2  0
  2  1  1  0
  4  2  1  0
  5  4  1  0
  6  7  1  1
  6  5  1  0
  8  6  1  0
  9  8  2  0
 10 11  1  0
 12 11  1  1
 12 13  1  0
 12 14  1  0
 13  8  1  0
 14 18  1  0
 15 14  2  0
 17 16  1  1
 17 19  1  0
 18 17  1  0
 19 20  2  0
 19 21  1  0
M  END
$$$$
