QSA.pdb
     RDKit          3D

 21 20  0  0  1  0  0  0  0  0999 V2000
   16.9316   -6.8287  -17.8287 N   0  0  0  0  0  0  0  0  0  0  0  0
   16.6120   -7.8081  -18.7889 C   0  0  0  0  0  0  0  0  0  0  0  0
   16.4212   -7.4532  -19.9954 O   0  0  0  0  0  0  0  0  0  0  0  0
   16.4844   -9.2386  -18.4787 C   0  0  0  0  0  0  0  0  0  0  0  0
   16.7874   -9.6065  -17.0517 C   0  0  0  0  0  0  0  0  0  0  0  0
   17.9564  -10.5130  -16.8867 C   0  0  2  0  0  0  0  0  0  0  0  0
   17.4445  -11.7500  -16.2915 N   0  0  0  0  0  0  0  0  0  0  0  0
   19.0337   -9.9287  -16.0449 C   0  0  0  0  0  0  0  0  0  0  0  0
   18.8819  -10.0218  -14.7982 O   0  0  0  0  0  0  0  0  0  0  0  0
   23.6420   -8.8200  -15.4544 O   0  0  0  0  0  0  0  0  0  0  0  0
   22.5970   -9.3421  -16.2089 C   0  0  0  0  0  0  0  0  0  0  0  0
   21.2562   -8.7963  -15.7970 C   0  0  2  0  0  0  0  0  0  0  0  0
   20.1755   -9.2977  -16.6085 N   0  0  0  0  0  0  0  0  0  0  0  0
   21.2073   -7.3371  -15.7434 C   0  0  0  0  0  0  0  0  0  0  0  0
   20.9935   -6.6909  -16.7950 O   0  0  0  0  0  0  0  0  0  0  0  0
   21.1210   -4.6073  -13.1570 C   0  0  0  0  0  0  0  0  0  0  0  0
   21.2919   -5.1626  -14.5692 C   0  0  2  0  0  0  0  0  0  0  0  0
   21.3923   -6.6058  -14.5425 N   0  0  0  0  0  0  0  0  0  0  0  0
   22.5217   -4.5527  -15.1095 C   0  0  0  0  0  0  0  0  0  0  0  0
   23.5848   -5.2118  -15.1936 O   0  0  0  0  0  0  0  0  0  0  0  0
   22.4986   -3.2397  -15.5270 O   0  0  0  0  0  0  0  0  0  0  0  0
  2  3  2  0
  2  1  1  0
  4  2  1  0
  5  4  1  0
  6  7  1  1
  6  5  1  0
  8  6  1  0
  9  8  2  0
 10 11  1  0
 12 11  1  6
 12 13  1  0
 12 14  1  0
 13  8  1  0
 14 18  1  0
 15 14  2  0
 17 16  1  1
 17 19  1  0
 18 17  1  0
 19 20  2  0
 19 21  1  0
M  END
$$$$
