QSA.pdb
     RDKit          3D

 21 20  0  0  1  0  0  0  0  0999 V2000
   14.0952  -11.0407  -13.9899 N   0  0  0  0  0  0  0  0  0  0  0  0
   13.7388  -12.2712  -13.4049 C   0  0  0  0  0  0  0  0  0  0  0  0
   13.2523  -13.1883  -14.1400 O   0  0  0  0  0  0  0  0  0  0  0  0
   13.8980  -12.5670  -11.9746 C   0  0  0  0  0  0  0  0  0  0  0  0
   14.4485  -11.4344  -11.1512 C   0  0  0  0  0  0  0  0  0  0  0  0
   15.9350  -11.3771  -11.1028 C   0  0  2  0  0  0  0  0  0  0  0  0
   16.3724  -12.5393  -10.3254 N   0  0  0  0  0  0  0  0  0  0  0  0
   16.4512  -10.1175  -10.5048 C   0  0  0  0  0  0  0  0  0  0  0  0
   16.6181  -10.1184   -9.2566 O   0  0  0  0  0  0  0  0  0  0  0  0
   19.3502   -7.6177  -11.8457 O   0  0  0  0  0  0  0  0  0  0  0  0
   18.1331   -6.9777  -11.6388 C   0  0  0  0  0  0  0  0  0  0  0  0
   17.2267   -7.7428  -10.7122 C   0  0  2  0  0  0  0  0  0  0  0  0
   16.7426   -8.9706  -11.2918 N   0  0  0  0  0  0  0  0  0  0  0  0
   16.1078   -6.9544  -10.2015 C   0  0  0  0  0  0  0  0  0  0  0  0
   15.0954   -6.7880  -10.9202 O   0  0  0  0  0  0  0  0  0  0  0  0
   15.0552   -5.1931   -7.0403 C   0  0  0  0  0  0  0  0  0  0  0  0
   15.0335   -5.4690   -8.5421 C   0  0  2  0  0  0  0  0  0  0  0  0
   16.1112   -6.3599   -8.9140 N   0  0  0  0  0  0  0  0  0  0  0  0
   15.1709   -4.1595   -9.2072 C   0  0  0  0  0  0  0  0  0  0  0  0
   16.2556   -3.8139   -9.7322 O   0  0  0  0  0  0  0  0  0  0  0  0
   14.0899   -3.3060   -9.2505 O   0  0  0  0  0  0  0  0  0  0  0  0
  2  3  2  0
  2  1  1  0
  4  2  1  0
  5  4  1  0
  6  7  1  1
  6  5  1  0
  8  6  1  0
  9  8  2  0
 10 11  1  0
 12 11  1  6
 12 13  1  0
 12 14  1  0
 13  8  1  0
 14 18  1  0
 15 14  2  0
 17 16  1  1
 17 19  1  0
 18 17  1  0
 19 20  2  0
 19 21  1  0
M  END
$$$$
