ARR.pdb
     RDKit          3D

 28 27  0  0  1  0  0  0  0  0999 V2000
   28.3323  -20.9441  -15.6625 C   0  0  0  0  0  0  0  0  0  0  0  0
   26.9385  -21.0942  -16.2775 C   0  0  2  0  0  0  0  0  0  0  0  0
   26.9250  -20.3794  -17.5272 N   0  0  0  0  0  0  0  0  0  0  0  0
   25.9864  -20.5106  -15.2975 C   0  0  0  0  0  0  0  0  0  0  0  0
   25.7444  -21.1393  -14.2389 O   0  0  0  0  0  0  0  0  0  0  0  0
   26.7616  -15.6341  -18.1554 N   0  0  0  0  0  0  0  0  0  0  0  0
   25.4124  -15.2280  -18.0481 C   0  0  0  0  0  0  0  0  0  0  0  0
   24.7240  -15.0819  -19.1464 N   0  0  0  0  0  0  0  0  0  0  0  0
   24.7978  -14.9711  -16.8008 N   0  0  0  0  0  0  0  0  0  0  0  0
   25.4317  -15.2264  -15.5587 C   0  0  0  0  0  0  0  0  0  0  0  0
   25.5419  -16.6764  -15.2234 C   0  0  0  0  0  0  0  0  0  0  0  0
   24.2692  -17.2395  -14.7076 C   0  0  0  0  0  0  0  0  0  0  0  0
   24.3610  -18.7433  -14.5240 C   0  0  2  0  0  0  0  0  0  0  0  0
   25.3331  -19.2791  -15.4907 N   0  0  0  0  0  0  0  0  0  0  0  0
   23.0596  -19.4008  -14.7236 C   0  0  0  0  0  0  0  0  0  0  0  0
   22.6524  -19.7382  -15.8771 O   0  0  0  0  0  0  0  0  0  0  0  0
   23.7652  -14.7367  -19.0873 N   0  0  0  0  0  0  0  0  0  0  0  0
   18.6398  -24.3200   -8.9138 C   0  0  0  0  0  0  0  0  0  0  0  0
   18.8270  -25.0065  -10.1528 N   0  0  0  0  0  0  0  0  0  0  0  0
   18.5879  -26.2812  -10.2004 N   0  0  0  0  0  0  0  0  0  0  0  0
   19.2650  -24.2973  -11.2997 C   0  0  0  0  0  0  0  0  0  0  0  0
   19.6757  -22.8782  -11.0473 C   0  0  0  0  0  0  0  0  0  0  0  0
   20.0478  -22.3388  -12.3742 C   0  0  0  0  0  0  0  0  0  0  0  0
   20.5901  -21.0105  -12.5531 C   0  0  2  0  0  0  0  0  0  0  0  0
   20.9425  -20.3910  -13.8438 N   0  0  0  0  0  0  0  0  0  0  0  0
   22.2395  -19.6649  -13.6014 C   0  0  0  0  0  0  0  0  0  0  0  0
   20.0843  -19.3518  -14.4013 O   0  0  0  0  0  0  0  0  0  0  0  0
   20.2420  -18.1007  -14.1097 O   0  0  0  0  0  0  0  0  0  0  0  0
  2  1  1  1
  2  3  1  0
  4  2  1  0
  5  4  2  0
  7  6  1  0
  7  8  2  0
  9  7  1  0
 10  9  1  0
 11 10  1  0
 13 12  1  6
 12 11  1  0
 13 14  1  0
 14  4  1  0
 15 25  1  0
 15 13  1  0
 16 15  2  0
 18 17  1  0
 18 19  2  0
 20 18  1  0
 21 20  1  0
 22 21  1  0
 23 22  1  0
 24 23  1  6
 24 25  1  0
 26 28  1  0
 26 24  1  0
 27 26  2  0
M  END
$$$$
