ARR.pdb
     RDKit          3D

 28 27  0  0  1  0  0  0  0  0999 V2000
   24.8354  -25.0217  -16.1239 C   0  0  0  0  0  0  0  0  0  0  0  0
   25.4330  -25.1776  -14.7232 C   0  0  2  0  0  0  0  0  0  0  0  0
   24.6895  -26.1999  -14.0341 N   0  0  0  0  0  0  0  0  0  0  0  0
   25.2947  -23.8541  -14.0623 C   0  0  0  0  0  0  0  0  0  0  0  0
   24.1703  -23.5089  -13.6255 O   0  0  0  0  0  0  0  0  0  0  0  0
   32.1189  -21.4788  -10.5973 N   0  0  0  0  0  0  0  0  0  0  0  0
   31.6474  -21.9221  -11.8536 C   0  0  0  0  0  0  0  0  0  0  0  0
   32.2471  -22.9362  -12.4136 N   0  0  0  0  0  0  0  0  0  0  0  0
   30.5636  -21.3006  -12.5158 N   0  0  0  0  0  0  0  0  0  0  0  0
   29.5190  -20.6310  -11.8300 C   0  0  0  0  0  0  0  0  0  0  0  0
   28.1819  -21.2742  -11.9897 C   0  0  0  0  0  0  0  0  0  0  0  0
   27.5269  -20.9143  -13.2720 C   0  0  0  0  0  0  0  0  0  0  0  0
   26.1699  -21.5802  -13.4088 C   0  0  2  0  0  0  0  0  0  0  0  0
   26.3649  -22.9553  -13.8962 N   0  0  0  0  0  0  0  0  0  0  0  0
   25.2925  -20.8515  -14.3388 C   0  0  0  0  0  0  0  0  0  0  0  0
   25.3745  -21.0088  -15.5953 O   0  0  0  0  0  0  0  0  0  0  0  0
   31.9251  -23.2587  -13.3269 N   0  0  0  0  0  0  0  0  0  0  0  0
   17.7132  -22.7715  -14.7435 C   0  0  0  0  0  0  0  0  0  0  0  0
   17.4720  -21.4802  -15.3056 N   0  0  0  0  0  0  0  0  0  0  0  0
   16.4558  -21.3263  -16.0979 N   0  0  0  0  0  0  0  0  0  0  0  0
   18.3329  -20.3973  -14.9950 C   0  0  0  0  0  0  0  0  0  0  0  0
   19.4937  -20.7449  -14.1130 C   0  0  0  0  0  0  0  0  0  0  0  0
   20.6624  -20.0750  -14.7258 C   0  0  0  0  0  0  0  0  0  0  0  0
   21.9956  -20.1719  -14.1748 C   0  0  2  0  0  0  0  0  0  0  0  0
   23.2051  -19.5377  -14.7307 N   0  0  0  0  0  0  0  0  0  0  0  0
   24.3315  -19.9517  -13.8207 C   0  0  0  0  0  0  0  0  0  0  0  0
   23.3131  -18.0832  -14.7451 O   0  0  0  0  0  0  0  0  0  0  0  0
   24.1511  -17.4488  -13.9899 O   0  0  0  0  0  0  0  0  0  0  0  0
  2  1  1  6
  2  3  1  0
  4  2  1  0
  5  4  2  0
  7  6  1  0
  7  8  2  0
  9  7  1  0
 10  9  1  0
 11 10  1  0
 13 12  1  6
 12 11  1  0
 13 14  1  0
 14  4  1  0
 15 25  1  0
 15 13  1  0
 16 15  2  0
 18 17  1  0
 18 19  2  0
 20 18  1  0
 21 20  1  0
 22 21  1  0
 23 22  1  0
 24 23  1  6
 24 25  1  0
 26 28  1  0
 26 24  1  0
 27 26  2  0
M  END
$$$$
