ARR.pdb
     RDKit          3D

 28 27  0  0  1  0  0  0  0  0999 V2000
   28.7805  -19.9908  -13.2294 C   0  0  0  0  0  0  0  0  0  0  0  0
   27.6457  -20.6788  -13.9925 C   0  0  2  0  0  0  0  0  0  0  0  0
   28.2277  -21.4206  -15.0805 N   0  0  0  0  0  0  0  0  0  0  0  0
   26.7539  -19.5944  -14.4784 C   0  0  0  0  0  0  0  0  0  0  0  0
   26.0967  -18.9291  -13.6419 O   0  0  0  0  0  0  0  0  0  0  0  0
   30.5321  -15.9668  -19.8583 N   0  0  0  0  0  0  0  0  0  0  0  0
   29.5510  -16.9582  -20.0850 C   0  0  0  0  0  0  0  0  0  0  0  0
   29.8209  -17.9083  -20.9370 N   0  0  0  0  0  0  0  0  0  0  0  0
   28.2983  -16.9450  -19.4292 N   0  0  0  0  0  0  0  0  0  0  0  0
   27.9686  -16.0174  -18.4091 C   0  0  0  0  0  0  0  0  0  0  0  0
   27.3540  -16.6414  -17.2008 C   0  0  0  0  0  0  0  0  0  0  0  0
   26.2463  -17.5690  -17.5404 C   0  0  0  0  0  0  0  0  0  0  0  0
   25.6702  -18.2247  -16.2987 C   0  0  2  0  0  0  0  0  0  0  0  0
   26.6022  -19.2670  -15.8388 N   0  0  0  0  0  0  0  0  0  0  0  0
   24.3524  -18.8266  -16.5574 C   0  0  0  0  0  0  0  0  0  0  0  0
   24.2299  -20.0414  -16.9032 O   0  0  0  0  0  0  0  0  0  0  0  0
   29.1110  -18.6155  -21.1309 N   0  0  0  0  0  0  0  0  0  0  0  0
   19.7067  -22.1116  -11.5978 C   0  0  0  0  0  0  0  0  0  0  0  0
   19.1202  -22.7004  -12.7601 N   0  0  0  0  0  0  0  0  0  0  0  0
   18.0792  -23.4614  -12.6144 N   0  0  0  0  0  0  0  0  0  0  0  0
   19.6741  -22.4493  -14.0409 C   0  0  0  0  0  0  0  0  0  0  0  0
   20.9791  -21.7124  -14.0324 C   0  0  0  0  0  0  0  0  0  0  0  0
   20.8169  -20.6221  -15.0197 C   0  0  0  0  0  0  0  0  0  0  0  0
   21.8977  -19.7355  -15.3887 C   0  0  1  0  0  0  0  0  0  0  0  0
   21.8584  -18.7332  -16.4694 N   0  0  0  0  0  0  0  0  0  0  0  0
   23.1903  -18.0320  -16.4172 C   0  0  0  0  0  0  0  0  0  0  0  0
   20.9051  -17.6318  -16.3949 O   0  0  0  0  0  0  0  0  0  0  0  0
   19.7810  -17.6514  -17.0360 O   0  0  0  0  0  0  0  0  0  0  0  0
  2  1  1  6
  2  3  1  0
  4  2  1  0
  5  4  2  0
  7  6  1  0
  7  8  2  0
  9  7  1  0
 10  9  1  0
 11 10  1  0
 13 12  1  6
 12 11  1  0
 13 14  1  0
 14  4  1  0
 15 25  1  0
 15 13  1  0
 16 15  2  0
 18 17  1  0
 18 19  2  0
 20 18  1  0
 21 20  1  0
 22 21  1  0
 23 22  1  0
 24 23  1  6
 24 25  1  0
 26 28  1  0
 26 24  1  0
 27 26  2  0
M  END
$$$$
