ARR.pdb
     RDKit          3D

 28 27  0  0  1  0  0  0  0  0999 V2000
   20.4723  -32.0841  -10.0686 C   0  0  0  0  0  0  0  0  0  0  0  0
   19.3947  -31.5153  -10.9953 C   0  0  2  0  0  0  0  0  0  0  0  0
   19.2613  -32.4043  -12.1198 N   0  0  0  0  0  0  0  0  0  0  0  0
   19.8697  -30.1696  -11.4087 C   0  0  0  0  0  0  0  0  0  0  0  0
   19.9498  -29.2629  -10.5451 O   0  0  0  0  0  0  0  0  0  0  0  0
   24.9064  -25.6536  -14.2061 N   0  0  0  0  0  0  0  0  0  0  0  0
   24.5091  -25.3564  -15.5293 C   0  0  0  0  0  0  0  0  0  0  0  0
   24.8925  -24.2224  -16.0474 N   0  0  0  0  0  0  0  0  0  0  0  0
   23.7115  -26.2383  -16.2945 N   0  0  0  0  0  0  0  0  0  0  0  0
   23.2414  -27.4816  -15.8015 C   0  0  0  0  0  0  0  0  0  0  0  0
   22.2478  -27.3561  -14.6951 C   0  0  0  0  0  0  0  0  0  0  0  0
   21.7317  -28.6718  -14.2419 C   0  0  0  0  0  0  0  0  0  0  0  0
   20.7367  -28.5171  -13.1063 C   0  0  2  0  0  0  0  0  0  0  0  0
   20.2393  -29.8500  -12.7286 N   0  0  0  0  0  0  0  0  0  0  0  0
   19.6013  -27.6606  -13.4845 C   0  0  0  0  0  0  0  0  0  0  0  0
   18.7854  -27.9981  -14.3959 O   0  0  0  0  0  0  0  0  0  0  0  0
   24.5889  -23.9821  -16.9918 N   0  0  0  0  0  0  0  0  0  0  0  0
   14.5449  -22.9120   -8.2361 C   0  0  0  0  0  0  0  0  0  0  0  0
   13.9111  -22.8529   -9.5153 N   0  0  0  0  0  0  0  0  0  0  0  0
   12.7291  -22.3239   -9.6003 N   0  0  0  0  0  0  0  0  0  0  0  0
   14.5717  -23.3650  -10.6606 C   0  0  0  0  0  0  0  0  0  0  0  0
   15.9187  -23.9669  -10.3976 C   0  0  0  0  0  0  0  0  0  0  0  0
   16.4212  -24.3908  -11.7235 C   0  0  0  0  0  0  0  0  0  0  0  0
   17.6379  -25.1539  -11.8900 C   0  0  2  0  0  0  0  0  0  0  0  0
   18.1910  -25.6231  -13.1737 N   0  0  0  0  0  0  0  0  0  0  0  0
   19.4125  -26.4282  -12.8158 C   0  0  0  0  0  0  0  0  0  0  0  0
   18.7074  -24.6529  -14.1324 O   0  0  0  0  0  0  0  0  0  0  0  0
   19.9345  -24.2426  -14.1018 O   0  0  0  0  0  0  0  0  0  0  0  0
  2  1  1  1
  2  3  1  0
  4  2  1  0
  5  4  2  0
  7  6  1  0
  7  8  2  0
  9  7  1  0
 10  9  1  0
 11 10  1  0
 13 12  1  6
 12 11  1  0
 13 14  1  0
 14  4  1  0
 15 25  1  0
 15 13  1  0
 16 15  2  0
 18 17  1  0
 18 19  2  0
 20 18  1  0
 21 20  1  0
 22 21  1  0
 23 22  1  0
 24 23  1  1
 24 25  1  0
 26 28  1  0
 26 24  1  0
 27 26  2  0
M  END
$$$$
