ARR.pdb
     RDKit          3D

 28 27  0  0  1  0  0  0  0  0999 V2000
   25.7851  -12.9546  -15.6198 C   0  0  0  0  0  0  0  0  0  0  0  0
   26.9795  -13.9034  -15.7491 C   0  0  2  0  0  0  0  0  0  0  0  0
   27.9567  -13.2744  -16.5988 N   0  0  0  0  0  0  0  0  0  0  0  0
   26.4521  -15.1566  -16.3481 C   0  0  0  0  0  0  0  0  0  0  0  0
   26.5412  -15.3200  -17.5890 O   0  0  0  0  0  0  0  0  0  0  0  0
   27.5320  -21.7284  -11.6615 N   0  0  0  0  0  0  0  0  0  0  0  0
   26.3761  -20.9430  -11.8711 C   0  0  0  0  0  0  0  0  0  0  0  0
   25.3548  -21.1272  -11.0807 N   0  0  0  0  0  0  0  0  0  0  0  0
   26.2932  -19.9817  -12.9046 N   0  0  0  0  0  0  0  0  0  0  0  0
   27.3848  -19.6575  -13.7492 C   0  0  0  0  0  0  0  0  0  0  0  0
   27.0968  -18.5544  -14.7122 C   0  0  0  0  0  0  0  0  0  0  0  0
   25.6947  -18.5750  -15.1983 C   0  0  0  0  0  0  0  0  0  0  0  0
   25.4359  -17.4605  -16.1955 C   0  0  2  0  0  0  0  0  0  0  0  0
   25.8516  -16.1826  -15.5949 N   0  0  0  0  0  0  0  0  0  0  0  0
   24.0164  -17.3833  -16.5759 C   0  0  0  0  0  0  0  0  0  0  0  0
   23.1505  -16.8489  -15.8177 O   0  0  0  0  0  0  0  0  0  0  0  0
   24.4920  -20.6119  -11.2589 N   0  0  0  0  0  0  0  0  0  0  0  0
   20.6375  -23.2203  -14.4426 C   0  0  0  0  0  0  0  0  0  0  0  0
   20.5550  -21.8842  -13.9432 N   0  0  0  0  0  0  0  0  0  0  0  0
   20.2032  -21.7023  -12.7074 N   0  0  0  0  0  0  0  0  0  0  0  0
   20.8547  -20.7882  -14.7914 C   0  0  0  0  0  0  0  0  0  0  0  0
   21.1045  -21.1474  -16.2248 C   0  0  0  0  0  0  0  0  0  0  0  0
   21.9916  -20.0827  -16.7440 C   0  0  0  0  0  0  0  0  0  0  0  0
   21.5004  -18.7828  -17.1432 C   0  0  2  0  0  0  0  0  0  0  0  0
   22.1313  -17.8909  -18.1334 N   0  0  0  0  0  0  0  0  0  0  0  0
   23.6040  -17.9180  -17.8192 C   0  0  0  0  0  0  0  0  0  0  0  0
   21.8196  -16.4661  -18.1202 O   0  0  0  0  0  0  0  0  0  0  0  0
   20.6115  -16.0256  -18.2671 O   0  0  0  0  0  0  0  0  0  0  0  0
  2  1  1  6
  2  3  1  0
  4  2  1  0
  5  4  2  0
  7  6  1  0
  7  8  2  0
  9  7  1  0
 10  9  1  0
 11 10  1  0
 13 12  1  1
 12 11  1  0
 13 14  1  0
 14  4  1  0
 15 25  1  0
 15 13  1  0
 16 15  2  0
 18 17  1  0
 18 19  2  0
 20 18  1  0
 21 20  1  0
 22 21  1  0
 23 22  1  0
 24 23  1  6
 24 25  1  0
 26 28  1  0
 26 24  1  0
 27 26  2  0
M  END
$$$$
