ARR.pdb
     RDKit          3D

 28 27  0  0  1  0  0  0  0  0999 V2000
   26.5940  -16.8369  -15.8007 C   0  0  0  0  0  0  0  0  0  0  0  0
   27.6862  -17.8583  -16.1282 C   0  0  2  0  0  0  0  0  0  0  0  0
   27.4749  -18.3179  -17.4762 N   0  0  0  0  0  0  0  0  0  0  0  0
   27.5371  -18.9579  -15.1403 C   0  0  0  0  0  0  0  0  0  0  0  0
   26.6174  -19.7964  -15.3003 O   0  0  0  0  0  0  0  0  0  0  0  0
   33.0306  -23.4856  -13.5011 N   0  0  0  0  0  0  0  0  0  0  0  0
   33.1782  -22.9788  -12.1902 C   0  0  0  0  0  0  0  0  0  0  0  0
   33.9536  -23.6249  -11.3639 N   0  0  0  0  0  0  0  0  0  0  0  0
   32.5115  -21.8113  -11.7523 N   0  0  0  0  0  0  0  0  0  0  0  0
   31.7844  -20.9623  -12.6242 C   0  0  0  0  0  0  0  0  0  0  0  0
   30.3471  -21.3360  -12.7718 C   0  0  0  0  0  0  0  0  0  0  0  0
   29.4327  -20.3193  -12.1946 C   0  0  0  0  0  0  0  0  0  0  0  0
   28.1691  -20.1746  -13.0228 C   0  0  2  0  0  0  0  0  0  0  0  0
   28.3778  -19.1148  -14.0226 N   0  0  0  0  0  0  0  0  0  0  0  0
   27.0030  -19.8387  -12.1902 C   0  0  0  0  0  0  0  0  0  0  0  0
   26.5176  -18.6665  -12.1635 O   0  0  0  0  0  0  0  0  0  0  0  0
   34.0763  -23.2651  -10.4166 N   0  0  0  0  0  0  0  0  0  0  0  0
   20.0534  -20.5700  -15.4679 C   0  0  0  0  0  0  0  0  0  0  0  0
   19.7172  -19.8977  -14.2527 N   0  0  0  0  0  0  0  0  0  0  0  0
   18.5331  -19.3799  -14.1350 N   0  0  0  0  0  0  0  0  0  0  0  0
   20.6674  -19.8060  -13.2044 C   0  0  0  0  0  0  0  0  0  0  0  0
   21.9924  -20.4438  -13.4941 C   0  0  0  0  0  0  0  0  0  0  0  0
   22.7990  -20.2385  -12.2704 C   0  0  0  0  0  0  0  0  0  0  0  0
   24.1546  -20.7234  -12.1383 C   0  0  2  0  0  0  0  0  0  0  0  0
   24.9928  -20.6180  -10.9298 N   0  0  0  0  0  0  0  0  0  0  0  0
   26.4057  -20.8474  -11.3983 C   0  0  0  0  0  0  0  0  0  0  0  0
   24.8392  -21.5972   -9.8598 O   0  0  0  0  0  0  0  0  0  0  0  0
   25.5453  -22.6809   -9.8134 O   0  0  0  0  0  0  0  0  0  0  0  0
  2  1  1  1
  2  3  1  0
  4  2  1  0
  5  4  2  0
  7  6  1  0
  7  8  2  0
  9  7  1  0
 10  9  1  0
 11 10  1  0
 13 12  1  1
 12 11  1  0
 13 14  1  0
 14  4  1  0
 15 25  1  0
 15 13  1  0
 16 15  2  0
 18 17  1  0
 18 19  2  0
 20 18  1  0
 21 20  1  0
 22 21  1  0
 23 22  1  0
 24 23  1  6
 24 25  1  0
 26 28  1  0
 26 24  1  0
 27 26  2  0
M  END
$$$$
