ARR.pdb
     RDKit          3D

 28 27  0  0  1  0  0  0  0  0999 V2000
   26.2553  -23.5047  -18.1003 C   0  0  0  0  0  0  0  0  0  0  0  0
   27.0749  -22.9203  -16.9469 C   0  0  2  0  0  0  0  0  0  0  0  0
   28.1260  -23.8524  -16.6319 N   0  0  0  0  0  0  0  0  0  0  0  0
   26.1317  -22.7477  -15.8121 C   0  0  0  0  0  0  0  0  0  0  0  0
   25.0720  -23.4193  -15.7967 O   0  0  0  0  0  0  0  0  0  0  0  0
   27.3131  -19.9214   -7.3732 N   0  0  0  0  0  0  0  0  0  0  0  0
   25.9408  -20.2080   -7.5504 C   0  0  0  0  0  0  0  0  0  0  0  0
   25.1451  -20.0678   -6.5263 N   0  0  0  0  0  0  0  0  0  0  0  0
   25.4139  -20.6444   -8.7879 N   0  0  0  0  0  0  0  0  0  0  0  0
   26.1991  -20.7719   -9.9614 C   0  0  0  0  0  0  0  0  0  0  0  0
   25.4237  -21.1955  -11.1641 C   0  0  0  0  0  0  0  0  0  0  0  0
   26.2715  -21.3086  -12.3769 C   0  0  0  0  0  0  0  0  0  0  0  0
   25.4714  -21.7969  -13.5706 C   0  0  2  0  0  0  0  0  0  0  0  0
   26.3615  -21.8641  -14.7410 N   0  0  0  0  0  0  0  0  0  0  0  0
   24.3360  -20.9099  -13.8700 C   0  0  0  0  0  0  0  0  0  0  0  0
   24.5077  -19.7215  -14.2807 O   0  0  0  0  0  0  0  0  0  0  0  0
   24.1560  -20.2958   -6.6332 N   0  0  0  0  0  0  0  0  0  0  0  0
   17.0535  -22.2692  -18.0884 C   0  0  0  0  0  0  0  0  0  0  0  0
   18.4500  -22.1299  -18.3566 N   0  0  0  0  0  0  0  0  0  0  0  0
   18.8722  -22.3147  -19.5697 N   0  0  0  0  0  0  0  0  0  0  0  0
   19.3454  -21.7956  -17.3093 C   0  0  0  0  0  0  0  0  0  0  0  0
   18.7028  -21.5786  -15.9728 C   0  0  0  0  0  0  0  0  0  0  0  0
   19.6404  -20.7102  -15.2266 C   0  0  0  0  0  0  0  0  0  0  0  0
   20.9858  -21.1201  -14.8915 C   0  0  1  0  0  0  0  0  0  0  0  0
   21.8862  -20.4308  -13.9491 N   0  0  0  0  0  0  0  0  0  0  0  0
   23.0175  -21.3925  -13.6965 C   0  0  0  0  0  0  0  0  0  0  0  0
   21.4167  -20.1166  -12.6045 O   0  0  0  0  0  0  0  0  0  0  0  0
   20.7820  -19.0209  -12.3368 O   0  0  0  0  0  0  0  0  0  0  0  0
  2  1  1  6
  2  3  1  0
  4  2  1  0
  5  4  2  0
  7  6  1  0
  7  8  2  0
  9  7  1  0
 10  9  1  0
 11 10  1  0
 13 12  1  1
 12 11  1  0
 13 14  1  0
 14  4  1  0
 15 25  1  0
 15 13  1  0
 16 15  2  0
 18 17  1  0
 18 19  2  0
 20 18  1  0
 21 20  1  0
 22 21  1  0
 23 22  1  0
 24 23  1  6
 24 25  1  0
 26 28  1  0
 26 24  1  0
 27 26  2  0
M  END
$$$$
