ARR.pdb
     RDKit          3D

 28 27  0  0  1  0  0  0  0  0999 V2000
   25.7807  -23.8717  -16.5989 C   0  0  0  0  0  0  0  0  0  0  0  0
   26.2717  -22.5658  -17.2292 C   0  0  2  0  0  0  0  0  0  0  0  0
   27.6508  -22.3842  -16.8578 N   0  0  0  0  0  0  0  0  0  0  0  0
   25.4063  -21.4890  -16.6824 C   0  0  0  0  0  0  0  0  0  0  0  0
   25.6426  -21.0463  -15.5324 O   0  0  0  0  0  0  0  0  0  0  0  0
   19.3818  -15.8564  -20.3651 N   0  0  0  0  0  0  0  0  0  0  0  0
   19.3852  -15.6644  -18.9651 C   0  0  0  0  0  0  0  0  0  0  0  0
   18.6758  -14.6850  -18.4760 N   0  0  0  0  0  0  0  0  0  0  0  0
   20.1322  -16.4879  -18.0915 N   0  0  0  0  0  0  0  0  0  0  0  0
   21.0473  -17.4700  -18.5475 C   0  0  0  0  0  0  0  0  0  0  0  0
   21.7772  -18.1713  -17.4508 C   0  0  0  0  0  0  0  0  0  0  0  0
   22.7301  -19.1883  -17.9609 C   0  0  0  0  0  0  0  0  0  0  0  0
   23.4895  -19.8556  -16.8288 C   0  0  2  0  0  0  0  0  0  0  0  0
   24.3245  -20.9306  -17.3886 N   0  0  0  0  0  0  0  0  0  0  0  0
   22.5819  -20.4183  -15.8162 C   0  0  0  0  0  0  0  0  0  0  0  0
   22.3390  -21.6623  -15.7554 O   0  0  0  0  0  0  0  0  0  0  0  0
   18.6251  -14.5683  -17.4633 N   0  0  0  0  0  0  0  0  0  0  0  0
   25.4370  -21.7324   -8.5823 C   0  0  0  0  0  0  0  0  0  0  0  0
   24.0804  -21.5268   -8.1838 N   0  0  0  0  0  0  0  0  0  0  0  0
   23.7621  -21.7133   -6.9396 N   0  0  0  0  0  0  0  0  0  0  0  0
   23.1116  -21.1266   -9.1387 C   0  0  0  0  0  0  0  0  0  0  0  0
   23.5967  -21.0937  -10.5563 C   0  0  0  0  0  0  0  0  0  0  0  0
   22.4088  -20.7429  -11.3661 C   0  0  0  0  0  0  0  0  0  0  0  0
   22.4655  -20.5672  -12.8001 C   0  0  1  0  0  0  0  0  0  0  0  0
   21.3374  -20.1746  -13.6647 N   0  0  0  0  0  0  0  0  0  0  0  0
   21.9630  -19.5515  -14.8849 C   0  0  0  0  0  0  0  0  0  0  0  0
   20.4076  -19.1462  -13.2117 O   0  0  0  0  0  0  0  0  0  0  0  0
   20.5573  -17.8989  -13.5233 O   0  0  0  0  0  0  0  0  0  0  0  0
  2  1  1  1
  2  3  1  0
  4  2  1  0
  5  4  2  0
  7  6  1  0
  7  8  2  0
  9  7  1  0
 10  9  1  0
 11 10  1  0
 13 12  1  6
 12 11  1  0
 13 14  1  0
 14  4  1  0
 15 25  1  0
 15 13  1  0
 16 15  2  0
 18 17  1  0
 18 19  2  0
 20 18  1  0
 21 20  1  0
 22 21  1  0
 23 22  1  0
 24 23  1  6
 24 25  1  0
 26 28  1  0
 26 24  1  0
 27 26  2  0
M  END
$$$$
