CPR.pdb
     RDKit          3D

 25 25  0  0  1  0  0  0  0  0999 V2000
    7.6389  -12.7100   18.2663 N   0  0  0  0  0  0  0  0  0  0  0  0
    8.7717  -13.5011   18.6531 C   0  0  1  0  0  0  0  0  0  0  0  0
    9.7685  -12.6534   19.4181 C   0  0  0  0  0  0  0  0  0  0  0  0
   11.1831  -13.6347   19.9754 S   0  0  0  0  0  0  0  0  0  0  0  0
    8.3814  -14.6954   19.4214 C   0  0  0  0  0  0  0  0  0  0  0  0
    7.4921  -14.5456   20.2955 O   0  0  0  0  0  0  0  0  0  0  0  0
    8.9583  -15.9958   19.2218 N   0  0  0  0  0  0  0  0  0  0  0  0
    9.9368  -16.3673   18.2251 C   0  0  0  0  0  0  0  0  0  0  0  0
   10.1619  -17.8464   18.3709 C   0  0  0  0  0  0  0  0  0  0  0  0
    8.9365  -18.3117   19.1219 C   0  0  0  0  0  0  0  0  0  0  0  0
    8.6360  -17.1356   20.0075 C   0  0  1  0  0  0  0  0  0  0  0  0
    9.5556  -17.1918   21.1806 C   0  0  0  0  0  0  0  0  0  0  0  0
   10.7934  -17.1536   20.9094 O   0  0  0  0  0  0  0  0  0  0  0  0
    8.9023  -13.7178   28.8825 N   0  0  0  0  0  0  0  0  0  0  0  0
   10.0241  -14.5496   29.0944 C   0  0  0  0  0  0  0  0  0  0  0  0
   10.7644  -14.4329   30.1515 N   0  0  0  0  0  0  0  0  0  0  0  0
   10.3331  -15.5290   28.1189 N   0  0  0  0  0  0  0  0  0  0  0  0
    9.5817  -15.5893   26.9021 C   0  0  0  0  0  0  0  0  0  0  0  0
   10.0981  -16.7858   26.0901 C   0  0  0  0  0  0  0  0  0  0  0  0
    9.2809  -16.7959   24.8245 C   0  0  0  0  0  0  0  0  0  0  0  0
   10.0450  -17.2001   23.5985 C   0  0  2  0  0  0  0  0  0  0  0  0
    9.0970  -17.2828   22.5111 N   0  0  0  0  0  0  0  0  0  0  0  0
   10.7704  -18.4676   23.7028 C   0  0  0  0  0  0  0  0  0  0  0  0
   10.2086  -19.5500   23.4066 O   0  0  0  0  0  0  0  0  0  0  0  0
   12.0915  -18.5735   24.1220 O   0  0  0  0  0  0  0  0  0  0  0  0
  2  1  1  1
  2  3  1  0
  4  3  1  0
  5  2  1  0
  6  5  2  0
  7  5  1  0
  7  8  1  0
  9  8  1  0
 10  9  1  0
 10 11  1  0
 11  7  1  0
 11 12  1  1
 12 22  1  0
 13 12  2  0
 15 16  2  0
 15 14  1  0
 17 15  1  0
 18 17  1  0
 19 18  1  0
 20 19  1  0
 21 22  1  0
 21 20  1  1
 23 21  1  0
 24 23  2  0
 25 23  1  0
M  END
$$$$
