CPR.pdb
     RDKit          3D

 25 25  0  0  1  0  0  0  0  0999 V2000
    8.8997  -12.3979   18.0269 N   0  0  0  0  0  0  0  0  0  0  0  0
    9.3162  -13.7626   18.1781 C   0  0  1  0  0  0  0  0  0  0  0  0
   10.8010  -13.8293   18.4755 C   0  0  0  0  0  0  0  0  0  0  0  0
   11.2027  -13.0004   20.0332 S   0  0  0  0  0  0  0  0  0  0  0  0
    8.5314  -14.4751   19.2004 C   0  0  0  0  0  0  0  0  0  0  0  0
    7.9744  -13.7751   20.0820 O   0  0  0  0  0  0  0  0  0  0  0  0
    8.3768  -15.9028   19.2355 N   0  0  0  0  0  0  0  0  0  0  0  0
    8.9648  -16.8619   18.3281 C   0  0  0  0  0  0  0  0  0  0  0  0
    8.4442  -18.2133   18.7311 C   0  0  0  0  0  0  0  0  0  0  0  0
    7.2115  -17.8836   19.5397 C   0  0  0  0  0  0  0  0  0  0  0  0
    7.5985  -16.5927   20.2044 C   0  0  1  0  0  0  0  0  0  0  0  0
    8.4603  -16.9160   21.3782 C   0  0  0  0  0  0  0  0  0  0  0  0
    9.6814  -17.1363   21.1178 O   0  0  0  0  0  0  0  0  0  0  0  0
   10.4899  -14.2344   30.0172 N   0  0  0  0  0  0  0  0  0  0  0  0
    9.7980  -14.3818   28.7945 C   0  0  0  0  0  0  0  0  0  0  0  0
    8.8497  -13.5687   28.4500 N   0  0  0  0  0  0  0  0  0  0  0  0
   10.1616  -15.4487   27.9366 N   0  0  0  0  0  0  0  0  0  0  0  0
    9.7577  -15.4325   26.5635 C   0  0  0  0  0  0  0  0  0  0  0  0
    8.9311  -16.6999   26.3022 C   0  0  0  0  0  0  0  0  0  0  0  0
    8.2205  -16.4547   24.9966 C   0  0  0  0  0  0  0  0  0  0  0  0
    8.8955  -17.0612   23.8021 C   0  0  2  0  0  0  0  0  0  0  0  0
    7.9671  -16.9783   22.6979 N   0  0  0  0  0  0  0  0  0  0  0  0
    9.3271  -18.4506   23.9655 C   0  0  0  0  0  0  0  0  0  0  0  0
    8.5670  -19.3963   23.6448 O   0  0  0  0  0  0  0  0  0  0  0  0
   10.5676  -18.8237   24.4697 O   0  0  0  0  0  0  0  0  0  0  0  0
  2  1  1  1
  2  3  1  0
  4  3  1  0
  5  2  1  0
  6  5  2  0
  7  5  1  0
  7  8  1  0
  9  8  1  0
 10  9  1  0
 10 11  1  0
 11  7  1  0
 11 12  1  1
 12 22  1  0
 13 12  2  0
 15 16  2  0
 15 14  1  0
 17 15  1  0
 18 17  1  0
 19 18  1  0
 20 19  1  0
 21 22  1  0
 21 20  1  1
 23 21  1  0
 24 23  2  0
 25 23  1  0
M  END
$$$$
