CPR.pdb
     RDKit          3D

 25 25  0  0  1  0  0  0  0  0999 V2000
    5.5016  -18.5808   19.2510 N   0  0  0  0  0  0  0  0  0  0  0  0
    5.4881  -17.3356   19.9638 C   0  0  1  0  0  0  0  0  0  0  0  0
    4.7104  -17.4785   21.2570 C   0  0  0  0  0  0  0  0  0  0  0  0
    3.0162  -18.0370   20.9533 S   0  0  0  0  0  0  0  0  0  0  0  0
    6.8451  -16.8182   20.2078 C   0  0  0  0  0  0  0  0  0  0  0  0
    7.7786  -17.6578   20.2384 O   0  0  0  0  0  0  0  0  0  0  0  0
    7.1442  -15.4275   20.4082 N   0  0  0  0  0  0  0  0  0  0  0  0
    6.2009  -14.3331   20.4421 C   0  0  0  0  0  0  0  0  0  0  0  0
    7.0060  -13.0734   20.5991 C   0  0  0  0  0  0  0  0  0  0  0  0
    8.3898  -13.4885   20.1576 C   0  0  0  0  0  0  0  0  0  0  0  0
    8.4563  -14.9196   20.6107 C   0  0  1  0  0  0  0  0  0  0  0  0
    8.7603  -14.9298   22.0710 C   0  0  0  0  0  0  0  0  0  0  0  0
    7.7944  -14.6273   22.8343 O   0  0  0  0  0  0  0  0  0  0  0  0
    8.3472  -21.3460   26.5621 N   0  0  0  0  0  0  0  0  0  0  0  0
    7.7709  -20.2512   27.2437 C   0  0  0  0  0  0  0  0  0  0  0  0
    7.1830  -20.3991   28.3890 N   0  0  0  0  0  0  0  0  0  0  0  0
    7.8461  -18.9685   26.6476 N   0  0  0  0  0  0  0  0  0  0  0  0
    8.4577  -18.8109   25.3631 C   0  0  0  0  0  0  0  0  0  0  0  0
    9.4039  -17.6040   25.4385 C   0  0  0  0  0  0  0  0  0  0  0  0
    9.3048  -16.9304   24.0945 C   0  0  0  0  0  0  0  0  0  0  0  0
   10.1535  -15.7014   23.9550 C   0  0  2  0  0  0  0  0  0  0  0  0
   10.0328  -15.2509   22.5873 N   0  0  0  0  0  0  0  0  0  0  0  0
   11.5697  -15.8786   24.2808 C   0  0  0  0  0  0  0  0  0  0  0  0
   12.4205  -16.0224   23.3695 O   0  0  0  0  0  0  0  0  0  0  0  0
   12.0710  -15.9008   25.5772 O   0  0  0  0  0  0  0  0  0  0  0  0
  2  1  1  1
  2  3  1  0
  4  3  1  0
  5  2  1  0
  6  5  2  0
  7  5  1  0
  7  8  1  0
  9  8  1  0
 10  9  1  0
 10 11  1  0
 11  7  1  0
 11 12  1  1
 12 22  1  0
 13 12  2  0
 15 16  2  0
 15 14  1  0
 17 15  1  0
 18 17  1  0
 19 18  1  0
 20 19  1  0
 21 22  1  0
 21 20  1  6
 23 21  1  0
 24 23  2  0
 25 23  1  0
M  END
$$$$
