CPR.pdb
     RDKit          3D

 25 25  0  0  1  0  0  0  0  0999 V2000
    7.4837  -12.1763   19.7586 N   0  0  0  0  0  0  0  0  0  0  0  0
    8.3987  -13.2337   19.4374 C   0  0  1  0  0  0  0  0  0  0  0  0
    9.8074  -12.6892   19.3092 C   0  0  0  0  0  0  0  0  0  0  0  0
   11.0314  -14.0213   19.2647 S   0  0  0  0  0  0  0  0  0  0  0  0
    8.3367  -14.3388   20.4088 C   0  0  0  0  0  0  0  0  0  0  0  0
    8.0777  -14.0370   21.6001 O   0  0  0  0  0  0  0  0  0  0  0  0
    8.5541  -15.7164   20.0644 N   0  0  0  0  0  0  0  0  0  0  0  0
    8.8893  -16.2425   18.7607 C   0  0  0  0  0  0  0  0  0  0  0  0
    8.9339  -17.7389   18.8970 C   0  0  0  0  0  0  0  0  0  0  0  0
    8.1447  -17.9962   20.1592 C   0  0  0  0  0  0  0  0  0  0  0  0
    8.4691  -16.7891   20.9932 C   0  0  1  0  0  0  0  0  0  0  0  0
    9.8090  -17.0009   21.6136 C   0  0  0  0  0  0  0  0  0  0  0  0
   10.8039  -16.7508   20.8688 O   0  0  0  0  0  0  0  0  0  0  0  0
   10.2259  -16.1212   29.8596 N   0  0  0  0  0  0  0  0  0  0  0  0
   10.1755  -14.9645   29.0505 C   0  0  0  0  0  0  0  0  0  0  0  0
   10.1025  -13.7784   29.5673 N   0  0  0  0  0  0  0  0  0  0  0  0
   10.2064  -15.1223   27.6432 N   0  0  0  0  0  0  0  0  0  0  0  0
   10.7052  -16.3352   27.0697 C   0  0  0  0  0  0  0  0  0  0  0  0
   10.6233  -16.2009   25.5423 C   0  0  0  0  0  0  0  0  0  0  0  0
   11.1590  -17.4983   24.9951 C   0  0  0  0  0  0  0  0  0  0  0  0
   11.3065  -17.5255   23.5024 C   0  0  2  0  0  0  0  0  0  0  0  0
    9.9778  -17.4505   22.9396 N   0  0  0  0  0  0  0  0  0  0  0  0
   11.9928  -18.7008   22.9628 C   0  0  0  0  0  0  0  0  0  0  0  0
   11.3379  -19.6530   22.4737 O   0  0  0  0  0  0  0  0  0  0  0  0
   13.3744  -18.8537   22.9473 O   0  0  0  0  0  0  0  0  0  0  0  0
  2  1  1  1
  2  3  1  0
  4  3  1  0
  5  2  1  0
  6  5  2  0
  7  5  1  0
  7  8  1  0
  9  8  1  0
 10  9  1  0
 10 11  1  0
 11  7  1  0
 11 12  1  6
 12 22  1  0
 13 12  2  0
 15 16  2  0
 15 14  1  0
 17 15  1  0
 18 17  1  0
 19 18  1  0
 20 19  1  0
 21 22  1  0
 21 20  1  1
 23 21  1  0
 24 23  2  0
 25 23  1  0
M  END
$$$$
