CPR.pdb
     RDKit          3D

 25 25  0  0  1  0  0  0  0  0999 V2000
    5.9098  -18.4668   19.2351 N   0  0  0  0  0  0  0  0  0  0  0  0
    5.7938  -17.1610   19.8183 C   0  0  1  0  0  0  0  0  0  0  0  0
    4.7329  -17.1609   20.9008 C   0  0  0  0  0  0  0  0  0  0  0  0
    5.2668  -18.1008   22.3521 S   0  0  0  0  0  0  0  0  0  0  0  0
    7.0818  -16.6621   20.3290 C   0  0  0  0  0  0  0  0  0  0  0  0
    7.9863  -17.5117   20.5222 O   0  0  0  0  0  0  0  0  0  0  0  0
    7.3460  -15.2784   20.6106 N   0  0  0  0  0  0  0  0  0  0  0  0
    6.4079  -14.1819   20.5299 C   0  0  0  0  0  0  0  0  0  0  0  0
    7.1789  -12.9298   20.8423 C   0  0  0  0  0  0  0  0  0  0  0  0
    8.6141  -13.3378   20.6062 C   0  0  0  0  0  0  0  0  0  0  0  0
    8.6115  -14.7809   21.0249 C   0  0  1  0  0  0  0  0  0  0  0  0
    8.6888  -14.8317   22.5137 C   0  0  0  0  0  0  0  0  0  0  0  0
    7.5826  -14.7272   23.1241 O   0  0  0  0  0  0  0  0  0  0  0  0
    6.2862  -20.1711   27.4919 N   0  0  0  0  0  0  0  0  0  0  0  0
    7.6555  -20.3416   27.1898 C   0  0  0  0  0  0  0  0  0  0  0  0
    8.4679  -20.9109   28.0237 N   0  0  0  0  0  0  0  0  0  0  0  0
    8.1357  -19.8739   25.9420 N   0  0  0  0  0  0  0  0  0  0  0  0
    8.1857  -18.4684   25.6756 C   0  0  0  0  0  0  0  0  0  0  0  0
    9.6162  -18.1243   25.2363 C   0  0  0  0  0  0  0  0  0  0  0  0
    9.4643  -17.1348   24.1105 C   0  0  0  0  0  0  0  0  0  0  0  0
    9.9273  -15.7467   24.4410 C   0  0  2  0  0  0  0  0  0  0  0  0
    9.9035  -14.9840   23.2139 N   0  0  0  0  0  0  0  0  0  0  0  0
   11.2611  -15.6575   25.0380 C   0  0  0  0  0  0  0  0  0  0  0  0
   12.2838  -15.6225   24.3115 O   0  0  0  0  0  0  0  0  0  0  0  0
   11.4968  -15.6055   26.4069 O   0  0  0  0  0  0  0  0  0  0  0  0
  2  1  1  1
  2  3  1  0
  4  3  1  0
  5  2  1  0
  6  5  2  0
  7  5  1  0
  7  8  1  0
  9  8  1  0
 10  9  1  0
 10 11  1  0
 11  7  1  0
 11 12  1  1
 12 22  1  0
 13 12  2  0
 15 16  2  0
 15 14  1  0
 17 15  1  0
 18 17  1  0
 19 18  1  0
 20 19  1  0
 21 22  1  0
 21 20  1  6
 23 21  1  0
 24 23  2  0
 25 23  1  0
M  END
$$$$
