CPR.pdb
     RDKit          3D

 25 25  0  0  1  0  0  0  0  0999 V2000
    7.0746  -18.2292   18.1338 N   0  0  0  0  0  0  0  0  0  0  0  0
    6.5393  -17.3503   19.1337 C   0  0  1  0  0  0  0  0  0  0  0  0
    5.6224  -18.1139   20.0685 C   0  0  0  0  0  0  0  0  0  0  0  0
    5.0993  -17.0905   21.4661 S   0  0  0  0  0  0  0  0  0  0  0  0
    7.5954  -16.6428   19.8772 C   0  0  0  0  0  0  0  0  0  0  0  0
    8.5807  -17.3237   20.2550 O   0  0  0  0  0  0  0  0  0  0  0  0
    7.5519  -15.2400   20.1838 N   0  0  0  0  0  0  0  0  0  0  0  0
    6.5149  -14.3031   19.8154 C   0  0  0  0  0  0  0  0  0  0  0  0
    6.9633  -12.9513   20.2963 C   0  0  0  0  0  0  0  0  0  0  0  0
    8.4527  -13.1248   20.4805 C   0  0  0  0  0  0  0  0  0  0  0  0
    8.5577  -14.5576   20.9207 C   0  0  1  0  0  0  0  0  0  0  0  0
    8.2230  -14.6220   22.3729 C   0  0  0  0  0  0  0  0  0  0  0  0
    6.9990  -14.4608   22.6612 O   0  0  0  0  0  0  0  0  0  0  0  0
    6.3674  -21.4312   24.9607 N   0  0  0  0  0  0  0  0  0  0  0  0
    6.4230  -20.8690   26.2553 C   0  0  0  0  0  0  0  0  0  0  0  0
    6.0657  -21.5429   27.3029 N   0  0  0  0  0  0  0  0  0  0  0  0
    6.8823  -19.5363   26.3942 N   0  0  0  0  0  0  0  0  0  0  0  0
    7.1304  -18.7398   25.2311 C   0  0  0  0  0  0  0  0  0  0  0  0
    7.7348  -17.4067   25.6950 C   0  0  0  0  0  0  0  0  0  0  0  0
    8.1508  -16.6934   24.4349 C   0  0  0  0  0  0  0  0  0  0  0  0
    8.7784  -15.3501   24.6635 C   0  0  2  0  0  0  0  0  0  0  0  0
    9.1909  -14.8455   23.3739 N   0  0  0  0  0  0  0  0  0  0  0  0
    9.9253  -15.3420   25.5735 C   0  0  0  0  0  0  0  0  0  0  0  0
   11.0948  -15.4249   25.1261 O   0  0  0  0  0  0  0  0  0  0  0  0
    9.8183  -15.2449   26.9560 O   0  0  0  0  0  0  0  0  0  0  0  0
  2  1  1  6
  2  3  1  0
  4  3  1  0
  5  2  1  0
  6  5  2  0
  7  5  1  0
  7  8  1  0
  9  8  1  0
 10  9  1  0
 10 11  1  0
 11  7  1  0
 11 12  1  1
 12 22  1  0
 13 12  2  0
 15 16  2  0
 15 14  1  0
 17 15  1  0
 18 17  1  0
 19 18  1  0
 20 19  1  0
 21 22  1  0
 21 20  1  6
 23 21  1  0
 24 23  2  0
 25 23  1  0
M  END
$$$$
