CPR.pdb
     RDKit          3D

 25 25  0  0  1  0  0  0  0  0999 V2000
    5.6685  -13.7576   26.6283 N   0  0  0  0  0  0  0  0  0  0  0  0
    6.5554  -13.1773   25.6612 C   0  0  1  0  0  0  0  0  0  0  0  0
    7.6833  -12.4415   26.3569 C   0  0  0  0  0  0  0  0  0  0  0  0
    7.0768  -10.9859   27.2448 S   0  0  0  0  0  0  0  0  0  0  0  0
    7.0721  -14.1750   24.7093 C   0  0  0  0  0  0  0  0  0  0  0  0
    7.0378  -15.3778   25.0692 O   0  0  0  0  0  0  0  0  0  0  0  0
    7.6025  -13.8436   23.4160 N   0  0  0  0  0  0  0  0  0  0  0  0
    7.8016  -12.5190   22.8732 C   0  0  0  0  0  0  0  0  0  0  0  0
    8.3025  -12.6989   21.4674 C   0  0  0  0  0  0  0  0  0  0  0  0
    7.8960  -14.1149   21.1326 C   0  0  0  0  0  0  0  0  0  0  0  0
    8.0217  -14.8081   22.4597 C   0  0  1  0  0  0  0  0  0  0  0  0
    9.4629  -15.1199   22.6851 C   0  0  0  0  0  0  0  0  0  0  0  0
   10.1207  -14.2428   23.3218 O   0  0  0  0  0  0  0  0  0  0  0  0
   12.7732  -23.1342   23.8124 N   0  0  0  0  0  0  0  0  0  0  0  0
   13.6242  -22.0067   23.8110 C   0  0  0  0  0  0  0  0  0  0  0  0
   14.8273  -22.0661   23.3331 N   0  0  0  0  0  0  0  0  0  0  0  0
   13.1356  -20.7905   24.3481 N   0  0  0  0  0  0  0  0  0  0  0  0
   12.2346  -19.9817   23.5847 C   0  0  0  0  0  0  0  0  0  0  0  0
   11.8872  -18.7445   24.4251 C   0  0  0  0  0  0  0  0  0  0  0  0
   10.7851  -18.0442   23.6736 C   0  0  0  0  0  0  0  0  0  0  0  0
   11.2290  -16.8265   22.9183 C   0  0  2  0  0  0  0  0  0  0  0  0
   10.0718  -16.3065   22.2266 N   0  0  0  0  0  0  0  0  0  0  0  0
   12.3081  -17.0471   21.9538 C   0  0  0  0  0  0  0  0  0  0  0  0
   12.0484  -17.3711   20.7695 O   0  0  0  0  0  0  0  0  0  0  0  0
   13.6586  -16.9205   22.2577 O   0  0  0  0  0  0  0  0  0  0  0  0
  2  1  1  1
  2  3  1  0
  4  3  1  0
  5  2  1  0
  6  5  2  0
  7  5  1  0
  7  8  1  0
  9  8  1  0
 10  9  1  0
 10 11  1  0
 11  7  1  0
 11 12  1  1
 12 22  1  0
 13 12  2  0
 15 16  2  0
 15 14  1  0
 17 15  1  0
 18 17  1  0
 19 18  1  0
 20 19  1  0
 21 22  1  0
 21 20  1  6
 23 21  1  0
 24 23  2  0
 25 23  1  0
M  END
$$$$
