CPR.pdb
     RDKit          3D

 25 25  0  0  1  0  0  0  0  0999 V2000
    8.8102  -16.4884   15.8005 N   0  0  0  0  0  0  0  0  0  0  0  0
    8.0936  -15.9247   16.9084 C   0  0  1  0  0  0  0  0  0  0  0  0
    7.0280  -16.8887   17.3906 C   0  0  0  0  0  0  0  0  0  0  0  0
    7.6749  -18.0162   18.6496 S   0  0  0  0  0  0  0  0  0  0  0  0
    8.9899  -15.5227   18.0056 C   0  0  0  0  0  0  0  0  0  0  0  0
   10.1436  -16.0191   18.0104 O   0  0  0  0  0  0  0  0  0  0  0  0
    8.6140  -14.6089   19.0483 N   0  0  0  0  0  0  0  0  0  0  0  0
    7.3069  -14.0323   19.2673 C   0  0  0  0  0  0  0  0  0  0  0  0
    7.4411  -13.0856   20.4272 C   0  0  0  0  0  0  0  0  0  0  0  0
    8.9268  -12.8186   20.4874 C   0  0  0  0  0  0  0  0  0  0  0  0
    9.5079  -14.1318   20.0452 C   0  0  1  0  0  0  0  0  0  0  0  0
    9.4808  -15.0657   21.2081 C   0  0  0  0  0  0  0  0  0  0  0  0
    8.3380  -15.5139   21.5248 O   0  0  0  0  0  0  0  0  0  0  0  0
   14.2364  -21.0757   20.2150 N   0  0  0  0  0  0  0  0  0  0  0  0
   13.1972  -20.6838   19.3421 C   0  0  0  0  0  0  0  0  0  0  0  0
   13.0399  -21.2406   18.1826 N   0  0  0  0  0  0  0  0  0  0  0  0
   12.3153  -19.6569   19.7593 N   0  0  0  0  0  0  0  0  0  0  0  0
   12.4244  -19.1118   21.0783 C   0  0  0  0  0  0  0  0  0  0  0  0
   11.3724  -18.0018   21.2162 C   0  0  0  0  0  0  0  0  0  0  0  0
   11.4613  -17.5388   22.6471 C   0  0  0  0  0  0  0  0  0  0  0  0
   10.5395  -16.4056   22.9884 C   0  0  2  0  0  0  0  0  0  0  0  0
   10.6395  -15.4363   21.9214 N   0  0  0  0  0  0  0  0  0  0  0  0
   10.8073  -15.7444   24.2668 C   0  0  0  0  0  0  0  0  0  0  0  0
   11.3068  -14.5935   24.2971 O   0  0  0  0  0  0  0  0  0  0  0  0
   10.5403  -16.3143   25.5063 O   0  0  0  0  0  0  0  0  0  0  0  0
  2  1  1  6
  2  3  1  0
  4  3  1  0
  5  2  1  0
  6  5  2  0
  7  5  1  0
  7  8  1  0
  9  8  1  0
 10  9  1  0
 10 11  1  0
 11  7  1  0
 11 12  1  1
 12 22  1  0
 13 12  2  0
 15 16  2  0
 15 14  1  0
 17 15  1  0
 18 17  1  0
 19 18  1  0
 20 19  1  0
 21 22  1  0
 21 20  1  6
 23 21  1  0
 24 23  2  0
 25 23  1  0
M  END
$$$$
