KRV.pdb
     RDKit          3D

 28 27  0  0  1  0  0  0  0  0999 V2000
    8.6766  -15.8843   19.4411 N   0  0  0  0  0  0  0  0  0  0  0  0
    8.1585  -14.7041   20.0774 C   0  0  1  0  0  0  0  0  0  0  0  0
    7.0242  -14.1263   19.3161 C   0  0  0  0  0  0  0  0  0  0  0  0
    7.1572  -14.3333   17.8414 C   0  0  0  0  0  0  0  0  0  0  0  0
    8.1715  -13.5115   17.1365 C   0  0  0  0  0  0  0  0  0  0  0  0
    8.1712  -13.7862   15.6473 C   0  0  0  0  0  0  0  0  0  0  0  0
    9.2553  -13.0100   15.0647 N   0  0  0  0  0  0  0  0  0  0  0  0
    7.8093  -15.0032   21.4930 C   0  0  0  0  0  0  0  0  0  0  0  0
    7.1216  -14.1627   22.1210 O   0  0  0  0  0  0  0  0  0  0  0  0
   12.1413  -19.7926   25.5159 N   0  0  0  0  0  0  0  0  0  0  0  0
   12.2320  -19.9241   24.1029 C   0  0  0  0  0  0  0  0  0  0  0  0
   13.3788  -19.8067   23.4863 N   0  0  0  0  0  0  0  0  0  0  0  0
   11.1098  -20.1861   23.2780 N   0  0  0  0  0  0  0  0  0  0  0  0
    9.7826  -19.7414   23.6324 C   0  0  0  0  0  0  0  0  0  0  0  0
    9.6025  -18.2562   23.3879 C   0  0  0  0  0  0  0  0  0  0  0  0
    8.1799  -17.9218   23.7740 C   0  0  0  0  0  0  0  0  0  0  0  0
    7.7988  -16.4956   23.5371 C   0  0  2  0  0  0  0  0  0  0  0  0
    8.2042  -16.1698   22.1656 N   0  0  0  0  0  0  0  0  0  0  0  0
    8.3944  -15.5232   24.4517 C   0  0  0  0  0  0  0  0  0  0  0  0
    9.5783  -15.1062   24.3941 O   0  0  0  0  0  0  0  0  0  0  0  0
   13.4924  -19.8604   22.4678 C   0  0  0  0  0  0  0  0  0  0  0  0
    7.7266  -11.6922   27.3473 C   0  0  2  0  0  0  0  0  0  0  0  0
    7.1030  -12.7467   26.4583 C   0  0  0  0  0  0  0  0  0  0  0  0
    6.8908  -12.1173   25.0978 C   0  0  1  0  0  0  0  0  0  0  0  0
    8.0764  -13.8868   26.3422 N   0  0  0  0  0  0  0  0  0  0  0  0
    7.6092  -14.9635   25.5247 C   0  0  0  0  0  0  0  0  0  0  0  0
    8.5399  -14.3482   27.6738 O   0  0  0  0  0  0  0  0  0  0  0  0
    9.4248  -13.6109   28.4155 O   0  0  0  0  0  0  0  0  0  0  0  0
  2  1  1  6
  2  3  1  0
  3  4  1  0
  4  5  1  0
  5  6  1  0
  7  6  1  0
  8  9  2  0
  8  2  1  0
 10 11  1  0
 11 12  2  0
 13 14  1  0
 13 11  1  0
 14 15  1  0
 15 16  1  0
 17 16  1  1
 17 18  1  0
 18  8  1  0
 19 17  1  0
 20 19  2  0
 22 21  1  1
 22 24  1  0
 23 22  1  0
 24 26  1  0
 24 25  1  1
 25 19  1  0
 26 27  1  0
 28 26  2  0
M  END
$$$$
