KRV.pdb
     RDKit          3D

 28 27  0  0  1  0  0  0  0  0999 V2000
   10.3710  -19.7803   21.7822 N   0  0  0  0  0  0  0  0  0  0  0  0
    9.4268  -19.5278   22.8362 C   0  0  1  0  0  0  0  0  0  0  0  0
    9.7358  -20.3240   24.0488 C   0  0  0  0  0  0  0  0  0  0  0  0
    9.7367  -21.7957   23.7850 C   0  0  0  0  0  0  0  0  0  0  0  0
    9.9879  -22.6858   24.9450 C   0  0  0  0  0  0  0  0  0  0  0  0
   10.0182  -24.1422   24.5309 C   0  0  0  0  0  0  0  0  0  0  0  0
   10.2422  -24.9288   25.7343 N   0  0  0  0  0  0  0  0  0  0  0  0
    9.3517  -18.0667   23.1101 C   0  0  0  0  0  0  0  0  0  0  0  0
   10.4278  -17.4318   23.2227 O   0  0  0  0  0  0  0  0  0  0  0  0
    9.0882  -11.8911   19.5729 N   0  0  0  0  0  0  0  0  0  0  0  0
    8.7985  -13.1087   18.8981 C   0  0  0  0  0  0  0  0  0  0  0  0
    9.1829  -13.3044   17.6640 N   0  0  0  0  0  0  0  0  0  0  0  0
    8.0871  -14.1758   19.5012 N   0  0  0  0  0  0  0  0  0  0  0  0
    7.8125  -14.2041   20.9185 C   0  0  0  0  0  0  0  0  0  0  0  0
    6.9945  -15.4191   21.3093 C   0  0  0  0  0  0  0  0  0  0  0  0
    6.8758  -15.3965   22.8159 C   0  0  0  0  0  0  0  0  0  0  0  0
    8.0776  -15.9214   23.5341 C   0  0  2  0  0  0  0  0  0  0  0  0
    8.1482  -17.3586   23.2498 N   0  0  0  0  0  0  0  0  0  0  0  0
    8.0833  -15.7233   24.9824 C   0  0  0  0  0  0  0  0  0  0  0  0
    7.2441  -16.2075   25.7825 O   0  0  0  0  0  0  0  0  0  0  0  0
    9.1172  -14.2054   17.1770 C   0  0  0  0  0  0  0  0  0  0  0  0
   10.3620  -13.8953   28.9757 C   0  0  2  0  0  0  0  0  0  0  0  0
   10.5046  -14.2744   27.5173 C   0  0  0  0  0  0  0  0  0  0  0  0
   11.4265  -15.4736   27.4541 C   0  0  1  0  0  0  0  0  0  0  0  0
    9.1433  -14.6550   27.0043 N   0  0  0  0  0  0  0  0  0  0  0  0
    9.1091  -14.9177   25.5987 C   0  0  0  0  0  0  0  0  0  0  0  0
    8.1084  -13.6777   27.4220 O   0  0  0  0  0  0  0  0  0  0  0  0
    7.7540  -13.5330   28.7374 O   0  0  0  0  0  0  0  0  0  0  0  0
  2  1  1  6
  2  3  1  0
  3  4  1  0
  4  5  1  0
  5  6  1  0
  7  6  1  0
  8  9  2  0
  8  2  1  0
 10 11  1  0
 11 12  2  0
 13 14  1  0
 13 11  1  0
 14 15  1  0
 15 16  1  0
 17 16  1  1
 17 18  1  0
 18  8  1  0
 19 17  1  0
 20 19  2  0
 22 21  1  6
 22 24  1  0
 23 22  1  0
 24 26  1  0
 24 25  1  6
 25 19  1  0
 26 27  1  0
 28 26  2  0
M  END
$$$$
