KRV.pdb
     RDKit          3D

 28 27  0  0  1  0  0  0  0  0999 V2000
    8.3834  -17.0480   19.2381 N   0  0  0  0  0  0  0  0  0  0  0  0
    8.6677  -15.8467   19.9746 C   0  0  1  0  0  0  0  0  0  0  0  0
    8.0545  -14.6566   19.3361 C   0  0  0  0  0  0  0  0  0  0  0  0
    8.4453  -14.5093   17.9005 C   0  0  0  0  0  0  0  0  0  0  0  0
    7.9172  -13.3257   17.1786 C   0  0  0  0  0  0  0  0  0  0  0  0
    8.4360  -13.2655   15.7571 C   0  0  0  0  0  0  0  0  0  0  0  0
    7.7720  -12.1487   15.1020 N   0  0  0  0  0  0  0  0  0  0  0  0
    8.2569  -16.0139   21.3954 C   0  0  0  0  0  0  0  0  0  0  0  0
    7.0523  -16.2696   21.6348 O   0  0  0  0  0  0  0  0  0  0  0  0
   12.5716  -19.3094   21.6031 N   0  0  0  0  0  0  0  0  0  0  0  0
   11.6934  -20.4018   21.8428 C   0  0  0  0  0  0  0  0  0  0  0  0
   11.5304  -21.3447   20.9521 N   0  0  0  0  0  0  0  0  0  0  0  0
   10.9469  -20.5446   23.0389 N   0  0  0  0  0  0  0  0  0  0  0  0
   10.7105  -19.4313   23.9276 C   0  0  0  0  0  0  0  0  0  0  0  0
    9.7901  -18.3999   23.3054 C   0  0  0  0  0  0  0  0  0  0  0  0
    9.5892  -17.3166   24.3401 C   0  0  0  0  0  0  0  0  0  0  0  0
    8.7537  -16.1683   23.8723 C   0  0  2  0  0  0  0  0  0  0  0  0
    9.1379  -15.9022   22.4819 N   0  0  0  0  0  0  0  0  0  0  0  0
    8.8867  -14.9351   24.6457 C   0  0  0  0  0  0  0  0  0  0  0  0
    9.8974  -14.1885   24.6494 O   0  0  0  0  0  0  0  0  0  0  0  0
   10.8304  -22.0914   21.0266 C   0  0  0  0  0  0  0  0  0  0  0  0
    6.7159  -11.9097   24.8811 C   0  0  2  0  0  0  0  0  0  0  0  0
    6.8016  -12.4011   26.3102 C   0  0  0  0  0  0  0  0  0  0  0  0
    5.4947  -13.0982   26.6233 C   0  0  2  0  0  0  0  0  0  0  0  0
    7.9335  -13.3875   26.3919 N   0  0  0  0  0  0  0  0  0  0  0  0
    7.8048  -14.4897   25.4895 C   0  0  0  0  0  0  0  0  0  0  0  0
    8.1776  -13.8256   27.7881 O   0  0  0  0  0  0  0  0  0  0  0  0
    8.5345  -12.9324   28.7635 O   0  0  0  0  0  0  0  0  0  0  0  0
  2  1  1  6
  2  3  1  0
  3  4  1  0
  4  5  1  0
  5  6  1  0
  7  6  1  0
  8  9  2  0
  8  2  1  0
 10 11  1  0
 11 12  2  0
 13 14  1  0
 13 11  1  0
 14 15  1  0
 15 16  1  0
 17 16  1  1
 17 18  1  0
 18  8  1  0
 19 17  1  0
 20 19  2  0
 22 21  1  1
 22 24  1  0
 23 22  1  0
 24 26  1  0
 24 25  1  1
 25 19  1  0
 26 27  1  0
 28 26  2  0
M  END
$$$$
