KRV.pdb
     RDKit          3D

 28 27  0  0  1  0  0  0  0  0999 V2000
    6.3594  -17.0986   19.4474 N   0  0  0  0  0  0  0  0  0  0  0  0
    7.2120  -16.2958   20.2810 C   0  0  1  0  0  0  0  0  0  0  0  0
    7.2773  -14.8926   19.8048 C   0  0  0  0  0  0  0  0  0  0  0  0
    7.5017  -14.7962   18.3297 C   0  0  0  0  0  0  0  0  0  0  0  0
    8.3186  -13.6555   17.8477 C   0  0  0  0  0  0  0  0  0  0  0  0
    8.3539  -13.5981   16.3348 C   0  0  0  0  0  0  0  0  0  0  0  0
    9.2491  -12.5124   15.9646 N   0  0  0  0  0  0  0  0  0  0  0  0
    6.7788  -16.4026   21.7010 C   0  0  0  0  0  0  0  0  0  0  0  0
    5.5840  -16.1359   21.9747 O   0  0  0  0  0  0  0  0  0  0  0  0
   10.2834  -20.0484   26.1421 N   0  0  0  0  0  0  0  0  0  0  0  0
    9.7071  -19.9172   27.4354 C   0  0  0  0  0  0  0  0  0  0  0  0
   10.4507  -19.9341   28.5106 N   0  0  0  0  0  0  0  0  0  0  0  0
    8.3147  -19.7621   27.6485 N   0  0  0  0  0  0  0  0  0  0  0  0
    7.3777  -19.7011   26.5515 C   0  0  0  0  0  0  0  0  0  0  0  0
    7.0564  -18.2711   26.1645 C   0  0  0  0  0  0  0  0  0  0  0  0
    7.4286  -18.1214   24.7072 C   0  0  0  0  0  0  0  0  0  0  0  0
    7.2449  -16.7399   24.1656 C   0  0  2  0  0  0  0  0  0  0  0  0
    7.6286  -16.7839   22.7506 N   0  0  0  0  0  0  0  0  0  0  0  0
    8.0153  -15.6928   24.8340 C   0  0  0  0  0  0  0  0  0  0  0  0
    9.2487  -15.4995   24.6922 O   0  0  0  0  0  0  0  0  0  0  0  0
   10.0853  -19.8336   29.4643 C   0  0  0  0  0  0  0  0  0  0  0  0
    6.7529  -12.0121   25.3529 C   0  0  2  0  0  0  0  0  0  0  0  0
    7.2507  -12.5156   26.6908 C   0  0  0  0  0  0  0  0  0  0  0  0
    6.0328  -12.8659   27.5190 C   0  0  2  0  0  0  0  0  0  0  0  0
    8.0675  -13.7535   26.4431 N   0  0  0  0  0  0  0  0  0  0  0  0
    7.3617  -14.7792   25.7391 C   0  0  0  0  0  0  0  0  0  0  0  0
    8.6950  -14.2536   27.6910 O   0  0  0  0  0  0  0  0  0  0  0  0
    9.5550  -13.4740   28.4185 O   0  0  0  0  0  0  0  0  0  0  0  0
  2  1  1  6
  2  3  1  0
  3  4  1  0
  4  5  1  0
  5  6  1  0
  7  6  1  0
  8  9  2  0
  8  2  1  0
 10 11  1  0
 11 12  2  0
 13 14  1  0
 13 11  1  0
 14 15  1  0
 15 16  1  0
 17 16  1  1
 17 18  1  0
 18  8  1  0
 19 17  1  0
 20 19  2  0
 22 21  1  1
 22 24  1  0
 23 22  1  0
 24 26  1  0
 24 25  1  1
 25 19  1  0
 26 27  1  0
 28 26  2  0
M  END
$$$$
