KRV.pdb
     RDKit          3D

 28 27  0  0  1  0  0  0  0  0999 V2000
    8.5370  -15.9024   20.0353 N   0  0  0  0  0  0  0  0  0  0  0  0
    8.0449  -14.7177   20.6839 C   0  0  1  0  0  0  0  0  0  0  0  0
    6.9546  -14.0815   19.9051 C   0  0  0  0  0  0  0  0  0  0  0  0
    7.4472  -13.4314   18.6521 C   0  0  0  0  0  0  0  0  0  0  0  0
    7.8791  -14.3305   17.5539 C   0  0  0  0  0  0  0  0  0  0  0  0
    8.3520  -13.5461   16.3478 C   0  0  0  0  0  0  0  0  0  0  0  0
    8.7583  -14.5110   15.3374 N   0  0  0  0  0  0  0  0  0  0  0  0
    7.6451  -15.0342   22.0822 C   0  0  0  0  0  0  0  0  0  0  0  0
    6.9257  -14.2065   22.6915 O   0  0  0  0  0  0  0  0  0  0  0  0
    5.6964  -19.8295   19.9306 N   0  0  0  0  0  0  0  0  0  0  0  0
    5.0463  -19.7666   21.1936 C   0  0  0  0  0  0  0  0  0  0  0  0
    3.8883  -19.1748   21.3279 N   0  0  0  0  0  0  0  0  0  0  0  0
    5.5945  -20.3286   22.3734 N   0  0  0  0  0  0  0  0  0  0  0  0
    6.0803  -19.5053   23.4556 C   0  0  0  0  0  0  0  0  0  0  0  0
    7.3798  -18.8123   23.0963 C   0  0  0  0  0  0  0  0  0  0  0  0
    7.7849  -17.9964   24.3025 C   0  0  0  0  0  0  0  0  0  0  0  0
    7.6156  -16.5209   24.1302 C   0  0  2  0  0  0  0  0  0  0  0  0
    8.0258  -16.2035   22.7582 N   0  0  0  0  0  0  0  0  0  0  0  0
    8.3765  -15.6861   25.0581 C   0  0  0  0  0  0  0  0  0  0  0  0
    9.6302  -15.6371   25.1262 O   0  0  0  0  0  0  0  0  0  0  0  0
    3.4108  -19.0424   22.2266 C   0  0  0  0  0  0  0  0  0  0  0  0
    7.1707  -12.0762   26.0106 C   0  0  2  0  0  0  0  0  0  0  0  0
    7.6202  -12.7445   27.2921 C   0  0  0  0  0  0  0  0  0  0  0  0
    6.3725  -13.1178   28.0642 C   0  0  2  0  0  0  0  0  0  0  0  0
    8.3778  -13.9896   26.9222 N   0  0  0  0  0  0  0  0  0  0  0  0
    7.6878  -14.8302   25.9931 C   0  0  0  0  0  0  0  0  0  0  0  0
    8.8333  -14.7302   28.1241 O   0  0  0  0  0  0  0  0  0  0  0  0
    8.4747  -16.0354   28.3358 O   0  0  0  0  0  0  0  0  0  0  0  0
  2  1  1  6
  2  3  1  0
  3  4  1  0
  4  5  1  0
  5  6  1  0
  7  6  1  0
  8  9  2  0
  8  2  1  0
 10 11  1  0
 11 12  2  0
 13 14  1  0
 13 11  1  0
 14 15  1  0
 15 16  1  0
 17 16  1  1
 17 18  1  0
 18  8  1  0
 19 17  1  0
 20 19  2  0
 22 21  1  1
 22 24  1  0
 23 22  1  0
 24 26  1  0
 24 25  1  1
 25 19  1  0
 26 27  1  0
 28 26  2  0
M  END
$$$$
