KRV.pdb
     RDKit          3D

 28 27  0  0  1  0  0  0  0  0999 V2000
    8.8482  -15.7290   19.6685 N   0  0  0  0  0  0  0  0  0  0  0  0
    8.2204  -14.5916   20.2836 C   0  0  1  0  0  0  0  0  0  0  0  0
    7.0650  -14.1090   19.4885 C   0  0  0  0  0  0  0  0  0  0  0  0
    7.4820  -13.4225   18.2274 C   0  0  0  0  0  0  0  0  0  0  0  0
    7.9834  -14.2834   17.1282 C   0  0  0  0  0  0  0  0  0  0  0  0
    8.3467  -13.4672   15.9054 C   0  0  0  0  0  0  0  0  0  0  0  0
    8.8001  -14.3985   14.8835 N   0  0  0  0  0  0  0  0  0  0  0  0
    7.8572  -14.9125   21.6909 C   0  0  0  0  0  0  0  0  0  0  0  0
    7.0799  -14.1326   22.2919 O   0  0  0  0  0  0  0  0  0  0  0  0
    5.4879  -20.7600   24.6438 N   0  0  0  0  0  0  0  0  0  0  0  0
    6.1593  -21.5618   23.6804 C   0  0  0  0  0  0  0  0  0  0  0  0
    5.5735  -22.5968   23.1374 N   0  0  0  0  0  0  0  0  0  0  0  0
    7.4838  -21.3030   23.2480 N   0  0  0  0  0  0  0  0  0  0  0  0
    8.2401  -20.1759   23.7407 C   0  0  0  0  0  0  0  0  0  0  0  0
    7.5128  -18.8659   23.5105 C   0  0  0  0  0  0  0  0  0  0  0  0
    8.4247  -17.7691   24.0104 C   0  0  0  0  0  0  0  0  0  0  0  0
    7.9220  -16.3857   23.7479 C   0  0  2  0  0  0  0  0  0  0  0  0
    8.3334  -16.0359   22.3842 N   0  0  0  0  0  0  0  0  0  0  0  0
    8.4014  -15.3553   24.6673 C   0  0  0  0  0  0  0  0  0  0  0  0
    9.5833  -14.9332   24.7287 O   0  0  0  0  0  0  0  0  0  0  0  0
    6.0229  -23.2215   22.4584 C   0  0  0  0  0  0  0  0  0  0  0  0
    7.3803  -11.7122   27.8067 C   0  0  2  0  0  0  0  0  0  0  0  0
    6.7939  -12.7663   26.8923 C   0  0  0  0  0  0  0  0  0  0  0  0
    6.2852  -12.0548   25.6566 C   0  0  1  0  0  0  0  0  0  0  0  0
    7.8981  -13.7136   26.5123 N   0  0  0  0  0  0  0  0  0  0  0  0
    7.4913  -14.7382   25.6010 C   0  0  0  0  0  0  0  0  0  0  0  0
    8.5851  -14.2607   27.7079 O   0  0  0  0  0  0  0  0  0  0  0  0
    8.5680  -15.6015   27.9887 O   0  0  0  0  0  0  0  0  0  0  0  0
  2  1  1  6
  2  3  1  0
  3  4  1  0
  4  5  1  0
  5  6  1  0
  7  6  1  0
  8  9  2  0
  8  2  1  0
 10 11  1  0
 11 12  2  0
 13 14  1  0
 13 11  1  0
 14 15  1  0
 15 16  1  0
 17 16  1  1
 17 18  1  0
 18  8  1  0
 19 17  1  0
 20 19  2  0
 22 21  1  1
 22 24  1  0
 23 22  1  0
 24 26  1  0
 24 25  1  1
 25 19  1  0
 26 27  1  0
 28 26  2  0
M  END
$$$$
