KRV.pdb
     RDKit          3D

 28 27  0  0  1  0  0  0  0  0999 V2000
    6.1571  -17.3311   19.4770 N   0  0  0  0  0  0  0  0  0  0  0  0
    7.1568  -16.6231   20.2292 C   0  0  1  0  0  0  0  0  0  0  0  0
    7.4259  -15.2828   19.6539 C   0  0  0  0  0  0  0  0  0  0  0  0
    7.9866  -15.3537   18.2697 C   0  0  0  0  0  0  0  0  0  0  0  0
    8.2980  -14.0648   17.6042 C   0  0  0  0  0  0  0  0  0  0  0  0
    8.8912  -14.2800   16.2276 C   0  0  0  0  0  0  0  0  0  0  0  0
    9.0350  -12.9704   15.6099 N   0  0  0  0  0  0  0  0  0  0  0  0
    6.7655  -16.5660   21.6642 C   0  0  0  0  0  0  0  0  0  0  0  0
    5.5700  -16.3036   21.9394 O   0  0  0  0  0  0  0  0  0  0  0  0
   10.1275  -18.7600   28.7614 N   0  0  0  0  0  0  0  0  0  0  0  0
    9.0514  -19.6795   28.8977 C   0  0  0  0  0  0  0  0  0  0  0  0
    9.1134  -20.6695   29.7493 N   0  0  0  0  0  0  0  0  0  0  0  0
    7.8591  -19.5915   28.1368 N   0  0  0  0  0  0  0  0  0  0  0  0
    7.8803  -19.4559   26.6994 C   0  0  0  0  0  0  0  0  0  0  0  0
    7.4686  -18.0650   26.2589 C   0  0  0  0  0  0  0  0  0  0  0  0
    7.5936  -18.0316   24.7530 C   0  0  0  0  0  0  0  0  0  0  0  0
    7.2724  -16.7063   24.1398 C   0  0  2  0  0  0  0  0  0  0  0  0
    7.6553  -16.7883   22.7263 N   0  0  0  0  0  0  0  0  0  0  0  0
    7.9368  -15.5535   24.7453 C   0  0  0  0  0  0  0  0  0  0  0  0
    9.1645  -15.2997   24.6622 O   0  0  0  0  0  0  0  0  0  0  0  0
    8.3719  -21.3679   29.8743 C   0  0  0  0  0  0  0  0  0  0  0  0
    5.6968  -12.7550   27.2137 C   0  0  2  0  0  0  0  0  0  0  0  0
    6.8327  -12.3026   26.3213 C   0  0  0  0  0  0  0  0  0  0  0  0
    7.5451  -11.1761   27.0394 C   0  0  1  0  0  0  0  0  0  0  0  0
    7.7715  -13.4638   26.1447 N   0  0  0  0  0  0  0  0  0  0  0  0
    7.1737  -14.5978   25.5103 C   0  0  0  0  0  0  0  0  0  0  0  0
    8.4477  -13.8189   27.4166 O   0  0  0  0  0  0  0  0  0  0  0  0
    8.3025  -15.0596   27.9789 O   0  0  0  0  0  0  0  0  0  0  0  0
  2  1  1  6
  2  3  1  0
  3  4  1  0
  4  5  1  0
  5  6  1  0
  7  6  1  0
  8  9  2  0
  8  2  1  0
 10 11  1  0
 11 12  2  0
 13 14  1  0
 13 11  1  0
 14 15  1  0
 15 16  1  0
 17 16  1  1
 17 18  1  0
 18  8  1  0
 19 17  1  0
 20 19  2  0
 22 21  1  6
 22 24  1  0
 23 22  1  0
 24 26  1  0
 24 25  1  6
 25 19  1  0
 26 27  1  0
 28 26  2  0
M  END
$$$$
