KRV.pdb
     RDKit          3D

 28 27  0  0  1  0  0  0  0  0999 V2000
    9.0149  -19.8100   22.2730 N   0  0  0  0  0  0  0  0  0  0  0  0
    7.8423  -19.1061   22.7155 C   0  0  1  0  0  0  0  0  0  0  0  0
    7.1793  -19.8043   23.8437 C   0  0  0  0  0  0  0  0  0  0  0  0
    6.6702  -21.1574   23.4625 C   0  0  0  0  0  0  0  0  0  0  0  0
    5.3542  -21.5604   24.0161 C   0  0  0  0  0  0  0  0  0  0  0  0
    5.0035  -22.9833   23.6342 C   0  0  0  0  0  0  0  0  0  0  0  0
    3.7826  -23.3327   24.3445 N   0  0  0  0  0  0  0  0  0  0  0  0
    8.1891  -17.6945   23.0356 C   0  0  0  0  0  0  0  0  0  0  0  0
    9.2199  -17.4807   23.7180 O   0  0  0  0  0  0  0  0  0  0  0  0
   10.0564  -13.9114   19.1472 N   0  0  0  0  0  0  0  0  0  0  0  0
    9.0430  -13.8299   18.1530 C   0  0  0  0  0  0  0  0  0  0  0  0
    9.3178  -14.0320   16.8909 N   0  0  0  0  0  0  0  0  0  0  0  0
    7.6905  -13.5300   18.4515 N   0  0  0  0  0  0  0  0  0  0  0  0
    7.2417  -13.2974   19.8040 C   0  0  0  0  0  0  0  0  0  0  0  0
    8.0222  -14.1245   20.8063 C   0  0  0  0  0  0  0  0  0  0  0  0
    7.1246  -14.3115   22.0079 C   0  0  0  0  0  0  0  0  0  0  0  0
    7.6866  -15.2141   23.0592 C   0  0  2  0  0  0  0  0  0  0  0  0
    7.4308  -16.5897   22.6190 N   0  0  0  0  0  0  0  0  0  0  0  0
    7.1381  -15.0359   24.4024 C   0  0  0  0  0  0  0  0  0  0  0  0
    6.0165  -15.4514   24.7872 O   0  0  0  0  0  0  0  0  0  0  0  0
    8.6220  -13.9944   16.1376 C   0  0  0  0  0  0  0  0  0  0  0  0
    9.2806  -14.8332   27.8219 C   0  0  2  0  0  0  0  0  0  0  0  0
    8.3615  -13.6350   27.7183 C   0  0  0  0  0  0  0  0  0  0  0  0
    9.2094  -12.4553   27.2925 C   0  0  2  0  0  0  0  0  0  0  0  0
    7.3363  -13.9300   26.6587 N   0  0  0  0  0  0  0  0  0  0  0  0
    7.8994  -14.3357   25.4080 C   0  0  0  0  0  0  0  0  0  0  0  0
    6.3689  -12.8155   26.5080 O   0  0  0  0  0  0  0  0  0  0  0  0
    5.5312  -12.4554   27.5305 O   0  0  0  0  0  0  0  0  0  0  0  0
  2  1  1  1
  2  3  1  0
  3  4  1  0
  4  5  1  0
  5  6  1  0
  7  6  1  0
  8  9  2  0
  8  2  1  0
 10 11  1  0
 11 12  2  0
 13 14  1  0
 13 11  1  0
 14 15  1  0
 15 16  1  0
 17 16  1  6
 17 18  1  0
 18  8  1  0
 19 17  1  0
 20 19  2  0
 22 21  1  1
 22 24  1  0
 23 22  1  0
 24 26  1  0
 24 25  1  1
 25 19  1  0
 26 27  1  0
 28 26  2  0
M  END
$$$$
