KRV.pdb
     RDKit          3D

 28 27  0  0  1  0  0  0  0  0999 V2000
    8.4644  -17.5264   19.1160 N   0  0  0  0  0  0  0  0  0  0  0  0
    8.4585  -16.3040   19.8722 C   0  0  1  0  0  0  0  0  0  0  0  0
    7.7850  -15.2081   19.1336 C   0  0  0  0  0  0  0  0  0  0  0  0
    8.3826  -14.9729   17.7835 C   0  0  0  0  0  0  0  0  0  0  0  0
    7.7964  -13.8790   16.9707 C   0  0  0  0  0  0  0  0  0  0  0  0
    8.4911  -13.7490   15.6313 C   0  0  0  0  0  0  0  0  0  0  0  0
    7.8962  -12.6125   14.9448 N   0  0  0  0  0  0  0  0  0  0  0  0
    7.8655  -16.5422   21.2164 C   0  0  0  0  0  0  0  0  0  0  0  0
    6.8764  -17.3097   21.2969 O   0  0  0  0  0  0  0  0  0  0  0  0
   12.6892  -18.5611   23.9071 N   0  0  0  0  0  0  0  0  0  0  0  0
   12.0830  -19.7378   23.3875 C   0  0  0  0  0  0  0  0  0  0  0  0
   12.7671  -20.5882   22.6680 N   0  0  0  0  0  0  0  0  0  0  0  0
   10.7222  -20.0670   23.6071 N   0  0  0  0  0  0  0  0  0  0  0  0
    9.9157  -19.3672   24.5791 C   0  0  0  0  0  0  0  0  0  0  0  0
    9.7220  -17.9107   24.2060 C   0  0  0  0  0  0  0  0  0  0  0  0
    8.2376  -17.7071   24.0068 C   0  0  0  0  0  0  0  0  0  0  0  0
    7.8435  -16.2907   23.7347 C   0  0  2  0  0  0  0  0  0  0  0  0
    8.3479  -15.9588   22.3979 N   0  0  0  0  0  0  0  0  0  0  0  0
    8.3428  -15.3025   24.6892 C   0  0  0  0  0  0  0  0  0  0  0  0
    9.5489  -14.9816   24.8344 O   0  0  0  0  0  0  0  0  0  0  0  0
   12.3803  -21.4565   22.2814 C   0  0  0  0  0  0  0  0  0  0  0  0
    7.3706  -11.5705   27.7356 C   0  0  2  0  0  0  0  0  0  0  0  0
    6.7430  -12.7210   26.9783 C   0  0  0  0  0  0  0  0  0  0  0  0
    6.0118  -12.1303   25.7915 C   0  0  1  0  0  0  0  0  0  0  0  0
    7.8514  -13.6153   26.4959 N   0  0  0  0  0  0  0  0  0  0  0  0
    7.4251  -14.6088   25.5595 C   0  0  0  0  0  0  0  0  0  0  0  0
    8.6172  -14.1955   27.6262 O   0  0  0  0  0  0  0  0  0  0  0  0
    9.5691  -13.4679   28.2905 O   0  0  0  0  0  0  0  0  0  0  0  0
  2  1  1  6
  2  3  1  0
  3  4  1  0
  4  5  1  0
  5  6  1  0
  7  6  1  0
  8  9  2  0
  8  2  1  0
 10 11  1  0
 11 12  2  0
 13 14  1  0
 13 11  1  0
 14 15  1  0
 15 16  1  0
 17 16  1  1
 17 18  1  0
 18  8  1  0
 19 17  1  0
 20 19  2  0
 22 21  1  1
 22 24  1  0
 23 22  1  0
 24 26  1  0
 24 25  1  1
 25 19  1  0
 26 27  1  0
 28 26  2  0
M  END
$$$$
