KRV.pdb
     RDKit          3D

 28 27  0  0  1  0  0  0  0  0999 V2000
   12.4864  -17.7993   22.0163 N   0  0  0  0  0  0  0  0  0  0  0  0
   11.3699  -17.9100   22.9149 C   0  0  1  0  0  0  0  0  0  0  0  0
   11.7993  -18.3336   24.2699 C   0  0  0  0  0  0  0  0  0  0  0  0
   12.2109  -19.7701   24.3194 C   0  0  0  0  0  0  0  0  0  0  0  0
   11.2274  -20.7318   24.8752 C   0  0  0  0  0  0  0  0  0  0  0  0
   11.8350  -22.1078   25.0509 C   0  0  0  0  0  0  0  0  0  0  0  0
   10.7788  -22.9888   25.5256 N   0  0  0  0  0  0  0  0  0  0  0  0
   10.6003  -16.6360   22.9265 C   0  0  0  0  0  0  0  0  0  0  0  0
   11.2142  -15.5787   23.2076 O   0  0  0  0  0  0  0  0  0  0  0  0
    7.7711  -12.6396   17.9237 N   0  0  0  0  0  0  0  0  0  0  0  0
    8.1359  -13.9149   18.4361 C   0  0  0  0  0  0  0  0  0  0  0  0
    8.0545  -14.9887   17.6948 N   0  0  0  0  0  0  0  0  0  0  0  0
    8.6040  -14.1105   19.7594 N   0  0  0  0  0  0  0  0  0  0  0  0
    8.0386  -13.3985   20.8811 C   0  0  0  0  0  0  0  0  0  0  0  0
    6.7992  -14.0867   21.4180 C   0  0  0  0  0  0  0  0  0  0  0  0
    7.2464  -15.4235   21.9634 C   0  0  0  0  0  0  0  0  0  0  0  0
    8.4219  -15.3484   22.8844 C   0  0  2  0  0  0  0  0  0  0  0  0
    9.2290  -16.5488   22.6416 N   0  0  0  0  0  0  0  0  0  0  0  0
    8.1032  -15.2709   24.3089 C   0  0  0  0  0  0  0  0  0  0  0  0
    7.9604  -16.2578   25.0733 O   0  0  0  0  0  0  0  0  0  0  0  0
    8.4492  -15.8992   17.9560 C   0  0  0  0  0  0  0  0  0  0  0  0
    7.8785  -11.4460   26.0372 C   0  0  2  0  0  0  0  0  0  0  0  0
    6.9971  -12.5030   26.6673 C   0  0  0  0  0  0  0  0  0  0  0  0
    5.6204  -12.3627   26.0532 C   0  0  2  0  0  0  0  0  0  0  0  0
    7.5710  -13.8489   26.3207 N   0  0  0  0  0  0  0  0  0  0  0  0
    7.9271  -13.9869   24.9424 C   0  0  0  0  0  0  0  0  0  0  0  0
    6.6998  -14.9531   26.7927 O   0  0  0  0  0  0  0  0  0  0  0  0
    6.7470  -15.3942   28.0888 O   0  0  0  0  0  0  0  0  0  0  0  0
  2  1  1  6
  2  3  1  0
  3  4  1  0
  4  5  1  0
  5  6  1  0
  7  6  1  0
  8  9  2  0
  8  2  1  0
 10 11  1  0
 11 12  2  0
 13 14  1  0
 13 11  1  0
 14 15  1  0
 15 16  1  0
 17 16  1  6
 17 18  1  0
 18  8  1  0
 19 17  1  0
 20 19  2  0
 22 21  1  1
 22 24  1  0
 23 22  1  0
 24 26  1  0
 24 25  1  1
 25 19  1  0
 26 27  1  0
 28 26  2  0
M  END
$$$$
