KRV.pdb
     RDKit          3D

 28 27  0  0  1  0  0  0  0  0999 V2000
    9.2585  -20.3356   21.9823 N   0  0  0  0  0  0  0  0  0  0  0  0
    8.4194  -19.7469   22.9901 C   0  0  1  0  0  0  0  0  0  0  0  0
    8.4582  -20.5219   24.2542 C   0  0  0  0  0  0  0  0  0  0  0  0
    7.6673  -21.7883   24.1763 C   0  0  0  0  0  0  0  0  0  0  0  0
    6.1909  -21.6554   24.1144 C   0  0  0  0  0  0  0  0  0  0  0  0
    5.5145  -23.0083   24.0401 C   0  0  0  0  0  0  0  0  0  0  0  0
    5.4004  -23.5095   25.4014 N   0  0  0  0  0  0  0  0  0  0  0  0
    8.7831  -18.3162   23.1802 C   0  0  0  0  0  0  0  0  0  0  0  0
   10.0008  -18.0185   23.2275 O   0  0  0  0  0  0  0  0  0  0  0  0
    8.5871  -14.9892   18.2971 N   0  0  0  0  0  0  0  0  0  0  0  0
    8.2116  -13.6286   18.4693 C   0  0  0  0  0  0  0  0  0  0  0  0
    7.6334  -12.9608   17.5056 N   0  0  0  0  0  0  0  0  0  0  0  0
    8.4324  -12.9127   19.6723 N   0  0  0  0  0  0  0  0  0  0  0  0
    7.8270  -13.3140   20.9203 C   0  0  0  0  0  0  0  0  0  0  0  0
    8.1590  -14.7510   21.2707 C   0  0  0  0  0  0  0  0  0  0  0  0
    7.4178  -15.0687   22.5490 C   0  0  0  0  0  0  0  0  0  0  0  0
    8.2048  -15.8772   23.5301 C   0  0  2  0  0  0  0  0  0  0  0  0
    7.8438  -17.2816   23.3097 N   0  0  0  0  0  0  0  0  0  0  0  0
    7.9881  -15.5468   24.9375 C   0  0  0  0  0  0  0  0  0  0  0  0
    6.8822  -15.5997   25.5314 O   0  0  0  0  0  0  0  0  0  0  0  0
    7.4312  -11.9554   17.5433 C   0  0  0  0  0  0  0  0  0  0  0  0
   11.0586  -13.5788   27.3718 C   0  0  2  0  0  0  0  0  0  0  0  0
   10.2340  -14.7319   27.9023 C   0  0  0  0  0  0  0  0  0  0  0  0
    9.9541  -14.4478   29.3628 C   0  0  1  0  0  0  0  0  0  0  0  0
    8.9405  -14.7651   27.1363 N   0  0  0  0  0  0  0  0  0  0  0  0
    9.0943  -15.1200   25.7593 C   0  0  0  0  0  0  0  0  0  0  0  0
    8.1671  -13.5116   27.3140 O   0  0  0  0  0  0  0  0  0  0  0  0
    7.5737  -13.2035   28.5097 O   0  0  0  0  0  0  0  0  0  0  0  0
  2  1  1  6
  2  3  1  0
  3  4  1  0
  4  5  1  0
  5  6  1  0
  7  6  1  0
  8  9  2  0
  8  2  1  0
 10 11  1  0
 11 12  2  0
 13 14  1  0
 13 11  1  0
 14 15  1  0
 15 16  1  0
 17 16  1  6
 17 18  1  0
 18  8  1  0
 19 17  1  0
 20 19  2  0
 22 21  1  1
 22 24  1  0
 23 22  1  0
 24 26  1  0
 24 25  1  6
 25 19  1  0
 26 27  1  0
 28 26  2  0
M  END
$$$$
