KRV.pdb
     RDKit          3D

 28 27  0  0  1  0  0  0  0  0999 V2000
   11.2243  -19.0696   22.4779 N   0  0  0  0  0  0  0  0  0  0  0  0
   12.0919  -17.9805   22.8349 C   0  0  1  0  0  0  0  0  0  0  0  0
   13.2158  -17.8409   21.8771 C   0  0  0  0  0  0  0  0  0  0  0  0
   14.1757  -18.9851   21.9470 C   0  0  0  0  0  0  0  0  0  0  0  0
   15.5235  -18.7675   21.3663 C   0  0  0  0  0  0  0  0  0  0  0  0
   16.3663  -20.0239   21.4336 C   0  0  0  0  0  0  0  0  0  0  0  0
   17.6457  -19.7196   20.8111 N   0  0  0  0  0  0  0  0  0  0  0  0
   11.3003  -16.7285   22.9803 C   0  0  0  0  0  0  0  0  0  0  0  0
   11.8849  -15.7086   23.4185 O   0  0  0  0  0  0  0  0  0  0  0  0
    8.0937  -15.0105   18.1494 N   0  0  0  0  0  0  0  0  0  0  0  0
    7.8475  -13.6475   18.4715 C   0  0  0  0  0  0  0  0  0  0  0  0
    8.4533  -12.6825   17.8305 N   0  0  0  0  0  0  0  0  0  0  0  0
    6.9470  -13.2448   19.4890 N   0  0  0  0  0  0  0  0  0  0  0  0
    6.4391  -14.1750   20.4696 C   0  0  0  0  0  0  0  0  0  0  0  0
    7.2513  -14.1436   21.7492 C   0  0  0  0  0  0  0  0  0  0  0  0
    8.1898  -15.3273   21.6971 C   0  0  0  0  0  0  0  0  0  0  0  0
    9.1513  -15.3989   22.8399 C   0  0  2  0  0  0  0  0  0  0  0  0
    9.9390  -16.6224   22.6562 N   0  0  0  0  0  0  0  0  0  0  0  0
    8.5483  -15.4181   24.1714 C   0  0  0  0  0  0  0  0  0  0  0  0
    8.0545  -16.4308   24.7277 O   0  0  0  0  0  0  0  0  0  0  0  0
    8.3054  -11.6848   18.0198 C   0  0  0  0  0  0  0  0  0  0  0  0
    8.3118  -11.7574   26.2360 C   0  0  2  0  0  0  0  0  0  0  0  0
    7.2841  -12.8132   26.5828 C   0  0  0  0  0  0  0  0  0  0  0  0
    6.0682  -12.5559   25.7183 C   0  0  2  0  0  0  0  0  0  0  0  0
    7.8702  -14.1561   26.2451 N   0  0  0  0  0  0  0  0  0  0  0  0
    8.4867  -14.2089   24.9556 C   0  0  0  0  0  0  0  0  0  0  0  0
    6.8867  -15.2484   26.4465 O   0  0  0  0  0  0  0  0  0  0  0  0
    6.8665  -15.9856   27.6010 O   0  0  0  0  0  0  0  0  0  0  0  0
  2  1  1  6
  2  3  1  0
  3  4  1  0
  4  5  1  0
  5  6  1  0
  7  6  1  0
  8  9  2  0
  8  2  1  0
 10 11  1  0
 11 12  2  0
 13 14  1  0
 13 11  1  0
 14 15  1  0
 15 16  1  0
 17 16  1  6
 17 18  1  0
 18  8  1  0
 19 17  1  0
 20 19  2  0
 22 21  1  1
 22 24  1  0
 23 22  1  0
 24 26  1  0
 24 25  1  1
 25 19  1  0
 26 27  1  0
 28 26  2  0
M  END
$$$$
