AMM.pdb
     RDKit          3D

 22 21  0  0  1  0  0  0  0  0999 V2000
    8.6247  -18.3051   20.5250 C   0  0  0  0  0  0  0  0  0  0  0  0
    8.5611  -16.7954   20.3211 C   0  0  2  0  0  0  0  0  0  0  0  0
    9.2173  -16.3880   19.1228 N   0  0  0  0  0  0  0  0  0  0  0  0
    9.0519  -16.1564   21.5395 C   0  0  0  0  0  0  0  0  0  0  0  0
   10.2907  -15.9836   21.6701 O   0  0  0  0  0  0  0  0  0  0  0  0
    6.7182  -12.0066   27.9000 C   0  0  0  0  0  0  0  0  0  0  0  0
    6.2998  -12.9070   26.4008 S   0  0  0  0  0  0  0  0  0  0  0  0
    7.7661  -13.6544   25.6532 C   0  0  0  0  0  0  0  0  0  0  0  0
    7.3544  -14.3331   24.3596 C   0  0  0  0  0  0  0  0  0  0  0  0
    8.5486  -14.9993   23.6944 C   0  0  2  0  0  0  0  0  0  0  0  0
    8.1266  -15.7506   22.5357 N   0  0  0  0  0  0  0  0  0  0  0  0
    9.1133  -15.9465   24.6876 C   0  0  0  0  0  0  0  0  0  0  0  0
    8.4550  -16.9977   24.9386 O   0  0  0  0  0  0  0  0  0  0  0  0
   15.0824  -15.4631   24.2524 C   0  0  0  0  0  0  0  0  0  0  0  0
   14.6242  -17.1543   24.7505 S   0  0  0  0  0  0  0  0  0  0  0  0
   12.8046  -17.3132   24.7903 C   0  0  0  0  0  0  0  0  0  0  0  0
   12.3448  -16.7945   26.1180 C   0  0  0  0  0  0  0  0  0  0  0  0
   10.8574  -16.7536   26.2420 C   0  0  2  0  0  0  0  0  0  0  0  0
   10.3307  -15.7307   25.3529 N   0  0  0  0  0  0  0  0  0  0  0  0
   10.4304  -16.4684   27.6116 C   0  0  0  0  0  0  0  0  0  0  0  0
    9.8958  -15.3689   27.9307 O   0  0  0  0  0  0  0  0  0  0  0  0
   10.6228  -17.4534   28.6047 O   0  0  0  0  0  0  0  0  0  0  0  0
  2  1  1  1
  2  4  1  0
  3  2  1  0
  4  5  2  0
  4 11  1  0
  6  7  1  0
  7  8  1  0
  8  9  1  0
 10  9  1  1
 10 12  1  0
 11 10  1  0
 12 19  1  0
 12 13  2  0
 14 15  1  0
 15 16  1  0
 16 17  1  0
 18 17  1  1
 18 20  1  0
 19 18  1  0
 20 22  1  0
 21 20  2  0
M  END
$$$$
