AMM.pdb
     RDKit          3D

 22 21  0  0  1  0  0  0  0  0999 V2000
    8.8082  -14.9498   18.6310 C   0  0  0  0  0  0  0  0  0  0  0  0
    8.8991  -16.0427   19.6902 C   0  0  2  0  0  0  0  0  0  0  0  0
    7.7758  -16.9198   19.6536 N   0  0  0  0  0  0  0  0  0  0  0  0
    9.1363  -15.3997   20.9801 C   0  0  0  0  0  0  0  0  0  0  0  0
   10.1905  -14.7312   21.1334 O   0  0  0  0  0  0  0  0  0  0  0  0
    6.9151  -11.7396   26.3076 C   0  0  0  0  0  0  0  0  0  0  0  0
    6.1729  -13.3281   25.9088 S   0  0  0  0  0  0  0  0  0  0  0  0
    6.5322  -13.8111   24.2043 C   0  0  0  0  0  0  0  0  0  0  0  0
    7.2122  -15.1679   24.2213 C   0  0  0  0  0  0  0  0  0  0  0  0
    8.4757  -15.1504   23.3753 C   0  0  2  0  0  0  0  0  0  0  0  0
    8.1798  -15.5444   22.0180 N   0  0  0  0  0  0  0  0  0  0  0  0
    9.3951  -16.1547   23.9656 C   0  0  0  0  0  0  0  0  0  0  0  0
   10.3528  -16.5685   23.2492 O   0  0  0  0  0  0  0  0  0  0  0  0
   11.5617  -12.9789   30.0108 C   0  0  0  0  0  0  0  0  0  0  0  0
   10.3141  -14.2397   29.5957 S   0  0  0  0  0  0  0  0  0  0  0  0
   10.9892  -15.3854   28.3430 C   0  0  0  0  0  0  0  0  0  0  0  0
    9.9315  -15.5716   27.2990 C   0  0  0  0  0  0  0  0  0  0  0  0
   10.3410  -16.5189   26.2199 C   0  0  2  0  0  0  0  0  0  0  0  0
    9.2515  -16.6600   25.2676 N   0  0  0  0  0  0  0  0  0  0  0  0
   10.6902  -17.8359   26.7519 C   0  0  0  0  0  0  0  0  0  0  0  0
    9.8519  -18.7798   26.8053 O   0  0  0  0  0  0  0  0  0  0  0  0
   12.0043  -18.0559   27.2190 O   0  0  0  0  0  0  0  0  0  0  0  0
  2  1  1  6
  2  4  1  0
  3  2  1  0
  4  5  2  0
  4 11  1  0
  6  7  1  0
  7  8  1  0
  8  9  1  0
 10  9  1  1
 10 12  1  0
 11 10  1  0
 12 19  1  0
 12 13  2  0
 14 15  1  0
 15 16  1  0
 16 17  1  0
 18 17  1  1
 18 20  1  0
 19 18  1  0
 20 22  1  0
 21 20  2  0
M  END
$$$$
