AMM.pdb
     RDKit          3D

 22 21  0  0  1  0  0  0  0  0999 V2000
    9.2325  -18.5114   20.5071 C   0  0  0  0  0  0  0  0  0  0  0  0
    8.9384  -17.0364   20.2565 C   0  0  2  0  0  0  0  0  0  0  0  0
    9.6178  -16.5423   19.1047 N   0  0  0  0  0  0  0  0  0  0  0  0
    9.2120  -16.3074   21.4924 C   0  0  0  0  0  0  0  0  0  0  0  0
   10.3812  -15.8930   21.6992 O   0  0  0  0  0  0  0  0  0  0  0  0
    7.2796  -11.5125   26.7626 C   0  0  0  0  0  0  0  0  0  0  0  0
    7.0886  -12.4733   25.2547 S   0  0  0  0  0  0  0  0  0  0  0  0
    7.2355  -14.2450   25.5823 C   0  0  0  0  0  0  0  0  0  0  0  0
    7.0288  -14.9946   24.2789 C   0  0  0  0  0  0  0  0  0  0  0  0
    8.3614  -15.2985   23.6124 C   0  0  2  0  0  0  0  0  0  0  0  0
    8.1609  -16.0876   22.4198 N   0  0  0  0  0  0  0  0  0  0  0  0
    9.1462  -16.1036   24.5812 C   0  0  0  0  0  0  0  0  0  0  0  0
    8.5270  -16.9720   25.2625 O   0  0  0  0  0  0  0  0  0  0  0  0
    9.9361  -13.0712   28.7094 C   0  0  0  0  0  0  0  0  0  0  0  0
   10.5792  -14.5025   29.6349 S   0  0  0  0  0  0  0  0  0  0  0  0
   11.1808  -15.7717   28.4667 C   0  0  0  0  0  0  0  0  0  0  0  0
   10.6567  -15.4086   27.1114 C   0  0  0  0  0  0  0  0  0  0  0  0
   11.1287  -16.3344   26.0391 C   0  0  2  0  0  0  0  0  0  0  0  0
   10.5281  -15.9467   24.7731 N   0  0  0  0  0  0  0  0  0  0  0  0
   10.7863  -17.7266   26.3289 C   0  0  0  0  0  0  0  0  0  0  0  0
   11.4873  -18.4417   27.0994 O   0  0  0  0  0  0  0  0  0  0  0  0
    9.6371  -18.2853   25.7281 O   0  0  0  0  0  0  0  0  0  0  0  0
  2  1  1  1
  2  4  1  0
  3  2  1  0
  4  5  2  0
  4 11  1  0
  6  7  1  0
  7  8  1  0
  8  9  1  0
 10  9  1  1
 10 12  1  0
 11 10  1  0
 12 19  1  0
 12 13  2  0
 14 15  1  0
 15 16  1  0
 16 17  1  0
 18 17  1  1
 18 20  1  0
 19 18  1  0
 20 22  1  0
 21 20  2  0
M  END
$$$$
