AMM.pdb
     RDKit          3D

 22 21  0  0  1  0  0  0  0  0999 V2000
    8.6113  -18.0842   20.1857 C   0  0  0  0  0  0  0  0  0  0  0  0
    8.1195  -16.6432   20.2649 C   0  0  2  0  0  0  0  0  0  0  0  0
    8.2574  -15.9603   19.0210 N   0  0  0  0  0  0  0  0  0  0  0  0
    8.7857  -16.0026   21.3960 C   0  0  0  0  0  0  0  0  0  0  0  0
   10.0271  -15.8119   21.3326 O   0  0  0  0  0  0  0  0  0  0  0  0
    6.9312  -11.6726   26.5373 C   0  0  0  0  0  0  0  0  0  0  0  0
    5.9150  -12.3545   25.2198 S   0  0  0  0  0  0  0  0  0  0  0  0
    6.9283  -13.1702   23.9647 C   0  0  0  0  0  0  0  0  0  0  0  0
    7.5721  -14.3957   24.5870 C   0  0  0  0  0  0  0  0  0  0  0  0
    8.6352  -14.9746   23.6667 C   0  0  2  0  0  0  0  0  0  0  0  0
    8.0219  -15.6152   22.5272 N   0  0  0  0  0  0  0  0  0  0  0  0
    9.3594  -16.0055   24.4511 C   0  0  0  0  0  0  0  0  0  0  0  0
    8.7616  -17.0969   24.6817 O   0  0  0  0  0  0  0  0  0  0  0  0
   11.1101  -13.2643   28.9107 C   0  0  0  0  0  0  0  0  0  0  0  0
    9.8190  -14.5471   28.8358 S   0  0  0  0  0  0  0  0  0  0  0  0
   10.5804  -16.1671   28.4707 C   0  0  0  0  0  0  0  0  0  0  0  0
   10.0643  -16.6068   27.1352 C   0  0  0  0  0  0  0  0  0  0  0  0
   11.1188  -16.6114   26.0780 C   0  0  2  0  0  0  0  0  0  0  0  0
   10.6622  -15.8261   24.9427 N   0  0  0  0  0  0  0  0  0  0  0  0
   11.4378  -17.9667   25.6297 C   0  0  0  0  0  0  0  0  0  0  0  0
   10.6384  -18.6434   24.9231 O   0  0  0  0  0  0  0  0  0  0  0  0
   12.6774  -18.5328   25.9994 O   0  0  0  0  0  0  0  0  0  0  0  0
  2  1  1  6
  2  4  1  0
  3  2  1  0
  4  5  2  0
  4 11  1  0
  6  7  1  0
  7  8  1  0
  8  9  1  0
 10  9  1  1
 10 12  1  0
 11 10  1  0
 12 19  1  0
 12 13  2  0
 14 15  1  0
 15 16  1  0
 16 17  1  0
 18 17  1  1
 18 20  1  0
 19 18  1  0
 20 22  1  0
 21 20  2  0
M  END
$$$$
