AMM.pdb
     RDKit          3D

 22 21  0  0  1  0  0  0  0  0999 V2000
   12.0149  -17.7058   18.7933 C   0  0  0  0  0  0  0  0  0  0  0  0
   11.5386  -18.0352   20.2038 C   0  0  2  0  0  0  0  0  0  0  0  0
   10.7261  -19.2062   20.2357 N   0  0  0  0  0  0  0  0  0  0  0  0
   10.9135  -16.8370   20.7582 C   0  0  0  0  0  0  0  0  0  0  0  0
   11.5993  -15.7863   20.8436 O   0  0  0  0  0  0  0  0  0  0  0  0
    7.2448  -12.4997   18.7352 C   0  0  0  0  0  0  0  0  0  0  0  0
    7.7861  -13.4839   20.1393 S   0  0  0  0  0  0  0  0  0  0  0  0
    6.9857  -15.1046   20.1525 C   0  0  0  0  0  0  0  0  0  0  0  0
    7.3820  -15.8273   21.4270 C   0  0  0  0  0  0  0  0  0  0  0  0
    8.8787  -15.7132   21.6705 C   0  0  2  0  0  0  0  0  0  0  0  0
    9.5605  -16.8888   21.1824 N   0  0  0  0  0  0  0  0  0  0  0  0
    9.0646  -15.6396   23.1411 C   0  0  0  0  0  0  0  0  0  0  0  0
    9.5936  -16.6342   23.7177 O   0  0  0  0  0  0  0  0  0  0  0  0
    6.5311  -10.9729   26.6014 C   0  0  0  0  0  0  0  0  0  0  0  0
    6.6270  -12.2165   27.9291 S   0  0  0  0  0  0  0  0  0  0  0  0
    7.7295  -13.5803   27.4173 C   0  0  0  0  0  0  0  0  0  0  0  0
    7.8116  -13.5448   25.9222 C   0  0  0  0  0  0  0  0  0  0  0  0
    8.6731  -14.6281   25.3621 C   0  0  2  0  0  0  0  0  0  0  0  0
    8.6844  -14.5292   23.9115 N   0  0  0  0  0  0  0  0  0  0  0  0
    8.2025  -15.9573   25.7511 C   0  0  0  0  0  0  0  0  0  0  0  0
    7.2980  -16.5616   25.1083 O   0  0  0  0  0  0  0  0  0  0  0  0
    8.7783  -16.5811   26.8793 O   0  0  0  0  0  0  0  0  0  0  0  0
  2  1  1  6
  2  4  1  0
  3  2  1  0
  4  5  2  0
  4 11  1  0
  6  7  1  0
  7  8  1  0
  8  9  1  0
 10  9  1  1
 10 12  1  0
 11 10  1  0
 12 19  1  0
 12 13  2  0
 14 15  1  0
 15 16  1  0
 16 17  1  0
 18 17  1  1
 18 20  1  0
 19 18  1  0
 20 22  1  0
 21 20  2  0
M  END
$$$$
