EWI.pdb
     RDKit          3D

 32 33  0  0  1  0  0  0  0  0999 V2000
    9.9672  -17.9076   19.7141 N   0  0  0  0  0  0  0  0  0  0  0  0
   11.1561  -17.6473   20.4926 C   0  0  1  0  0  0  0  0  0  0  0  0
   12.2465  -17.0361   19.6371 C   0  0  0  0  0  0  0  0  0  0  0  0
   12.7634  -18.1116   18.7390 C   0  0  0  0  0  0  0  0  0  0  0  0
   13.9273  -17.6816   17.9297 C   0  0  0  0  0  0  0  0  0  0  0  0
   15.1184  -17.6994   18.3347 O   0  0  0  0  0  0  0  0  0  0  0  0
   10.7785  -16.7961   21.6458 C   0  0  0  0  0  0  0  0  0  0  0  0
   11.1042  -15.5794   21.7121 O   0  0  0  0  0  0  0  0  0  0  0  0
   13.7589  -17.2134   16.6199 O   0  0  0  0  0  0  0  0  0  0  0  0
   10.0393  -17.3307   22.7078 N   0  0  0  0  0  0  0  0  0  0  0  0
    9.4797  -16.6209   23.8041 C   0  0  1  0  0  0  0  0  0  0  0  0
    7.9952  -16.7578   23.8500 C   0  0  0  0  0  0  0  0  0  0  0  0
    7.2486  -15.5159   23.5711 C   0  0  0  0  0  0  0  0  0  0  0  0
    6.5489  -15.2445   22.3978 C   0  0  0  0  0  0  0  0  0  0  0  0
    5.9861  -14.0479   22.5668 N   0  0  0  0  0  0  0  0  0  0  0  0
    6.2949  -13.5447   23.7918 C   0  0  0  0  0  0  0  0  0  0  0  0
    5.9648  -12.3619   24.4090 C   0  0  0  0  0  0  0  0  0  0  0  0
    6.4526  -12.1259   25.6773 C   0  0  0  0  0  0  0  0  0  0  0  0
    7.2502  -13.0284   26.3336 C   0  0  0  0  0  0  0  0  0  0  0  0
    7.5808  -14.2127   25.7162 C   0  0  0  0  0  0  0  0  0  0  0  0
    7.0917  -14.4601   24.4365 C   0  0  0  0  0  0  0  0  0  0  0  0
   10.1355  -16.9209   25.0952 C   0  0  0  0  0  0  0  0  0  0  0  0
   10.9496  -17.8917   25.1170 O   0  0  0  0  0  0  0  0  0  0  0  0
    9.9281  -13.1375   29.1795 C   0  0  0  0  0  0  0  0  0  0  0  0
   10.5220  -14.0860   28.1504 C   0  0  0  0  0  0  0  0  0  0  0  0
   10.3576  -15.5140   28.5953 C   0  0  2  0  0  0  0  0  0  0  0  0
   11.3282  -15.8210   29.7484 C   0  0  0  0  0  0  0  0  0  0  0  0
   10.6387  -16.5258   27.5427 C   0  0  2  0  0  0  0  0  0  0  0  0
    9.9167  -16.2042   26.2971 N   0  0  0  0  0  0  0  0  0  0  0  0
   10.3753  -17.9292   27.9306 C   0  0  0  0  0  0  0  0  0  0  0  0
    9.2968  -18.5332   27.8455 O   0  0  0  0  0  0  0  0  0  0  0  0
   11.4465  -18.6842   28.4559 O   0  0  0  0  0  0  0  0  0  0  0  0
  2  1  1  6
  2  3  1  0
  3  4  1  0
  4  5  1  0
  5  6  2  0
  7  8  2  0
  7  2  1  0
  9  5  1  0
 10  7  1  0
 11 10  1  0
 11 12  1  1
 13 14  2  0
 13 12  1  0
 15 14  1  0
 16 21  2  0
 16 15  1  0
 17 16  1  0
 18 19  1  0
 18 17  2  0
 19 20  2  0
 20 21  1  0
 21 13  1  0
 22 11  1  0
 22 29  1  0
 23 22  2  0
 24 25  1  0
 26 25  1  0
 26 28  1  0
 26 27  1  1
 28 29  1  6
 28 30  1  0
 30 31  2  0
 30 32  1  0
M  END
$$$$
