EWI.pdb
     RDKit          3D

 32 33  0  0  1  0  0  0  0  0999 V2000
   10.3784  -17.2890   19.1607 N   0  0  0  0  0  0  0  0  0  0  0  0
   11.2673  -17.3692   20.2967 C   0  0  1  0  0  0  0  0  0  0  0  0
   12.6873  -17.0157   19.9054 C   0  0  0  0  0  0  0  0  0  0  0  0
   13.1669  -18.0731   18.9662 C   0  0  0  0  0  0  0  0  0  0  0  0
   14.5661  -17.8664   18.5258 C   0  0  0  0  0  0  0  0  0  0  0  0
   15.2921  -16.9078   18.8962 O   0  0  0  0  0  0  0  0  0  0  0  0
   10.7284  -16.5005   21.3699 C   0  0  0  0  0  0  0  0  0  0  0  0
   11.0585  -15.2878   21.4756 O   0  0  0  0  0  0  0  0  0  0  0  0
   15.1805  -18.7603   17.6389 O   0  0  0  0  0  0  0  0  0  0  0  0
    9.8249  -17.0131   22.3084 N   0  0  0  0  0  0  0  0  0  0  0  0
    9.2308  -16.3157   23.3945 C   0  0  1  0  0  0  0  0  0  0  0  0
    7.7418  -16.3889   23.3487 C   0  0  0  0  0  0  0  0  0  0  0  0
    7.0501  -15.6253   24.4052 C   0  0  0  0  0  0  0  0  0  0  0  0
    6.2804  -16.1795   25.4251 C   0  0  0  0  0  0  0  0  0  0  0  0
    5.8761  -15.1606   26.1837 N   0  0  0  0  0  0  0  0  0  0  0  0
    6.3516  -13.9842   25.6946 C   0  0  0  0  0  0  0  0  0  0  0  0
    6.1991  -12.6852   26.1166 C   0  0  0  0  0  0  0  0  0  0  0  0
    6.8049  -11.6836   25.3872 C   0  0  0  0  0  0  0  0  0  0  0  0
    7.5474  -11.9440   24.2637 C   0  0  0  0  0  0  0  0  0  0  0  0
    7.7005  -13.2444   23.8409 C   0  0  0  0  0  0  0  0  0  0  0  0
    7.0936  -14.2620   24.5718 C   0  0  0  0  0  0  0  0  0  0  0  0
    9.7950  -16.6862   24.7103 C   0  0  0  0  0  0  0  0  0  0  0  0
   10.0833  -17.9067   24.8916 O   0  0  0  0  0  0  0  0  0  0  0  0
   10.1754  -13.3458   29.5586 C   0  0  0  0  0  0  0  0  0  0  0  0
    9.7565  -14.4706   28.6253 C   0  0  0  0  0  0  0  0  0  0  0  0
   10.9530  -15.0261   27.9016 C   0  0  2  0  0  0  0  0  0  0  0  0
   11.5515  -13.9544   26.9747 C   0  0  0  0  0  0  0  0  0  0  0  0
   10.6623  -16.1999   27.0365 C   0  0  2  0  0  0  0  0  0  0  0  0
   10.0317  -15.7782   25.7713 N   0  0  0  0  0  0  0  0  0  0  0  0
    9.8564  -17.2666   27.6708 C   0  0  0  0  0  0  0  0  0  0  0  0
   10.2222  -18.0403   28.5667 O   0  0  0  0  0  0  0  0  0  0  0  0
    8.5272  -17.4449   27.2291 O   0  0  0  0  0  0  0  0  0  0  0  0
  2  1  1  6
  2  3  1  0
  3  4  1  0
  4  5  1  0
  5  6  2  0
  7  8  2  0
  7  2  1  0
  9  5  1  0
 10  7  1  0
 11 10  1  0
 11 12  1  1
 13 14  2  0
 13 12  1  0
 15 14  1  0
 16 21  2  0
 16 15  1  0
 17 16  1  0
 18 19  1  0
 18 17  2  0
 19 20  2  0
 20 21  1  0
 21 13  1  0
 22 11  1  0
 22 29  1  0
 23 22  2  0
 24 25  1  0
 26 25  1  0
 26 28  1  0
 26 27  1  6
 28 29  1  6
 28 30  1  0
 30 31  2  0
 30 32  1  0
M  END
$$$$
