EWI.pdb
     RDKit          3D

 32 33  0  0  1  0  0  0  0  0999 V2000
   10.7856  -18.4198   19.4251 N   0  0  0  0  0  0  0  0  0  0  0  0
   10.6660  -18.8464   20.8002 C   0  0  1  0  0  0  0  0  0  0  0  0
   11.8287  -19.7308   21.2010 C   0  0  0  0  0  0  0  0  0  0  0  0
   11.4642  -21.1344   20.8443 C   0  0  0  0  0  0  0  0  0  0  0  0
   12.4860  -22.1227   21.2612 C   0  0  0  0  0  0  0  0  0  0  0  0
   13.5022  -22.4219   20.5822 O   0  0  0  0  0  0  0  0  0  0  0  0
   10.5356  -17.6396   21.6508 C   0  0  0  0  0  0  0  0  0  0  0  0
   11.3437  -16.6747   21.5686 O   0  0  0  0  0  0  0  0  0  0  0  0
   12.3720  -22.8045   22.4799 O   0  0  0  0  0  0  0  0  0  0  0  0
    9.4951  -17.5395   22.5822 N   0  0  0  0  0  0  0  0  0  0  0  0
    9.2529  -16.4680   23.4832 C   0  0  1  0  0  0  0  0  0  0  0  0
    7.8512  -15.9682   23.3820 C   0  0  0  0  0  0  0  0  0  0  0  0
    7.6749  -14.5424   23.7189 C   0  0  0  0  0  0  0  0  0  0  0  0
    8.0784  -13.4724   22.9239 C   0  0  0  0  0  0  0  0  0  0  0  0
    7.6975  -12.3669   23.5641 N   0  0  0  0  0  0  0  0  0  0  0  0
    7.0712  -12.6826   24.7292 C   0  0  0  0  0  0  0  0  0  0  0  0
    6.5219  -11.9018   25.7179 C   0  0  0  0  0  0  0  0  0  0  0  0
    5.9583  -12.5276   26.8101 C   0  0  0  0  0  0  0  0  0  0  0  0
    5.9307  -13.8930   26.9369 C   0  0  0  0  0  0  0  0  0  0  0  0
    6.4803  -14.6752   25.9472 C   0  0  0  0  0  0  0  0  0  0  0  0
    7.0502  -14.0521   24.8404 C   0  0  0  0  0  0  0  0  0  0  0  0
    9.6712  -16.7607   24.8711 C   0  0  0  0  0  0  0  0  0  0  0  0
    9.3629  -17.8971   25.3392 O   0  0  0  0  0  0  0  0  0  0  0  0
    9.2514  -12.9701   28.6159 C   0  0  0  0  0  0  0  0  0  0  0  0
   10.0407  -13.8187   27.6317 C   0  0  0  0  0  0  0  0  0  0  0  0
   10.0034  -15.2668   28.0386 C   0  0  2  0  0  0  0  0  0  0  0  0
   10.6832  -15.4466   29.4066 C   0  0  0  0  0  0  0  0  0  0  0  0
   10.7062  -16.1888   27.1075 C   0  0  2  0  0  0  0  0  0  0  0  0
   10.3855  -15.8654   25.7044 N   0  0  0  0  0  0  0  0  0  0  0  0
   10.4809  -17.6298   27.3573 C   0  0  0  0  0  0  0  0  0  0  0  0
    9.4425  -18.2683   27.1358 O   0  0  0  0  0  0  0  0  0  0  0  0
   11.5430  -18.3817   27.9052 O   0  0  0  0  0  0  0  0  0  0  0  0
  2  1  1  6
  2  3  1  0
  3  4  1  0
  4  5  1  0
  5  6  2  0
  7  8  2  0
  7  2  1  0
  9  5  1  0
 10  7  1  0
 11 10  1  0
 11 12  1  1
 13 14  2  0
 13 12  1  0
 15 14  1  0
 16 21  2  0
 16 15  1  0
 17 16  1  0
 18 19  1  0
 18 17  2  0
 19 20  2  0
 20 21  1  0
 21 13  1  0
 22 11  1  0
 22 29  1  0
 23 22  2  0
 24 25  1  0
 26 25  1  0
 26 28  1  0
 26 27  1  1
 28 29  1  6
 28 30  1  0
 30 31  2  0
 30 32  1  0
M  END
$$$$
