EWI.pdb
     RDKit          3D

 32 33  0  0  1  0  0  0  0  0999 V2000
   10.7262  -17.6837   19.9277 N   0  0  0  0  0  0  0  0  0  0  0  0
   11.8379  -17.2371   20.7351 C   0  0  1  0  0  0  0  0  0  0  0  0
   12.7842  -16.3704   19.9303 C   0  0  0  0  0  0  0  0  0  0  0  0
   13.0451  -17.0752   18.6398 C   0  0  0  0  0  0  0  0  0  0  0  0
   14.4880  -17.1989   18.3280 C   0  0  0  0  0  0  0  0  0  0  0  0
   15.3282  -17.7687   19.0714 O   0  0  0  0  0  0  0  0  0  0  0  0
   11.2961  -16.5485   21.9306 C   0  0  0  0  0  0  0  0  0  0  0  0
   11.9911  -15.7444   22.6097 O   0  0  0  0  0  0  0  0  0  0  0  0
   15.0161  -16.6677   17.1438 O   0  0  0  0  0  0  0  0  0  0  0  0
    9.9779  -16.7779   22.3426 N   0  0  0  0  0  0  0  0  0  0  0  0
    9.3001  -16.1594   23.4275 C   0  0  1  0  0  0  0  0  0  0  0  0
    7.8199  -16.2026   23.2499 C   0  0  0  0  0  0  0  0  0  0  0  0
    7.0477  -15.5252   24.3093 C   0  0  0  0  0  0  0  0  0  0  0  0
    6.2266  -16.1609   25.2375 C   0  0  0  0  0  0  0  0  0  0  0  0
    5.7548  -15.2036   26.0363 N   0  0  0  0  0  0  0  0  0  0  0  0
    6.2361  -13.9887   25.6600 C   0  0  0  0  0  0  0  0  0  0  0  0
    6.0311  -12.7246   26.1590 C   0  0  0  0  0  0  0  0  0  0  0  0
    6.6612  -11.6654   25.5400 C   0  0  0  0  0  0  0  0  0  0  0  0
    7.4782  -11.8355   24.4514 C   0  0  0  0  0  0  0  0  0  0  0  0
    7.6839  -13.1009   23.9516 C   0  0  0  0  0  0  0  0  0  0  0  0
    7.0530  -14.1762   24.5710 C   0  0  0  0  0  0  0  0  0  0  0  0
    9.7454  -16.6437   24.7519 C   0  0  0  0  0  0  0  0  0  0  0  0
   10.1701  -17.8357   24.8175 O   0  0  0  0  0  0  0  0  0  0  0  0
   10.4781  -12.9266   28.8774 C   0  0  0  0  0  0  0  0  0  0  0  0
   10.7594  -13.9745   27.8124 C   0  0  0  0  0  0  0  0  0  0  0  0
   10.2603  -15.3226   28.2569 C   0  0  2  0  0  0  0  0  0  0  0  0
   11.1263  -15.8489   29.4140 C   0  0  0  0  0  0  0  0  0  0  0  0
   10.2986  -16.3734   27.2056 C   0  0  2  0  0  0  0  0  0  0  0  0
    9.7285  -15.8732   25.9403 N   0  0  0  0  0  0  0  0  0  0  0  0
    9.6613  -17.6571   27.5736 C   0  0  0  0  0  0  0  0  0  0  0  0
    8.4541  -17.9300   27.5166 O   0  0  0  0  0  0  0  0  0  0  0  0
   10.4910  -18.6990   28.0420 O   0  0  0  0  0  0  0  0  0  0  0  0
  2  1  1  6
  2  3  1  0
  3  4  1  0
  4  5  1  0
  5  6  2  0
  7  8  2  0
  7  2  1  0
  9  5  1  0
 10  7  1  0
 11 10  1  0
 11 12  1  6
 13 14  2  0
 13 12  1  0
 15 14  1  0
 16 21  2  0
 16 15  1  0
 17 16  1  0
 18 19  1  0
 18 17  2  0
 19 20  2  0
 20 21  1  0
 21 13  1  0
 22 11  1  0
 22 29  1  0
 23 22  2  0
 24 25  1  0
 26 25  1  0
 26 28  1  0
 26 27  1  1
 28 29  1  6
 28 30  1  0
 30 31  2  0
 30 32  1  0
M  END
$$$$
