EDY.pdb
     RDKit          3D

 30 30  0  0  1  0  0  0  0  0999 V2000
   28.4652  -19.3163  -16.2192 N   0  0  0  0  0  0  0  0  0  0  0  0
   27.9165  -18.1622  -15.5208 C   0  0  1  0  0  0  0  0  0  0  0  0
   27.5788  -17.1267  -16.5710 C   0  0  0  0  0  0  0  0  0  0  0  0
   27.4955  -17.6995  -17.9447 C   0  0  0  0  0  0  0  0  0  0  0  0
   28.5239  -17.0715  -18.8016 C   0  0  0  0  0  0  0  0  0  0  0  0
   29.0192  -15.9759  -18.4493 O   0  0  0  0  0  0  0  0  0  0  0  0
   26.7699  -18.5107  -14.6787 C   0  0  0  0  0  0  0  0  0  0  0  0
   26.1686  -17.6078  -14.0459 O   0  0  0  0  0  0  0  0  0  0  0  0
   28.9856  -17.6205  -19.9875 O   0  0  0  0  0  0  0  0  0  0  0  0
   26.3166  -19.8274  -14.5532 N   0  0  0  0  0  0  0  0  0  0  0  0
   25.2258  -20.2792  -13.7439 C   0  0  1  0  0  0  0  0  0  0  0  0
   24.0683  -20.7861  -14.5764 C   0  0  0  0  0  0  0  0  0  0  0  0
   24.3591  -22.0174  -15.3114 C   0  0  0  0  0  0  0  0  0  0  0  0
   25.1315  -21.9848  -16.2966 O   0  0  0  0  0  0  0  0  0  0  0  0
   25.6121  -21.3559  -12.8053 C   0  0  0  0  0  0  0  0  0  0  0  0
   26.5684  -22.1015  -13.1335 O   0  0  0  0  0  0  0  0  0  0  0  0
   23.7985  -23.2247  -14.9426 O   0  0  0  0  0  0  0  0  0  0  0  0
   29.2625  -19.3970   -5.3799 O   0  0  0  0  0  0  0  0  0  0  0  0
   28.6328  -19.6367   -6.6136 C   0  0  0  0  0  0  0  0  0  0  0  0
   27.5401  -18.8672   -6.9893 C   0  0  0  0  0  0  0  0  0  0  0  0
   26.9340  -19.1247   -8.2174 C   0  0  0  0  0  0  0  0  0  0  0  0
   27.3828  -20.1124   -9.0636 C   0  0  0  0  0  0  0  0  0  0  0  0
   26.6944  -20.3332  -10.3565 C   0  0  0  0  0  0  0  0  0  0  0  0
   25.6151  -21.3894  -10.2839 C   0  0  2  0  0  0  0  0  0  0  0  0
   24.9797  -21.6053  -11.5623 N   0  0  0  0  0  0  0  0  0  0  0  0
   24.5990  -20.9637   -9.3081 C   0  0  0  0  0  0  0  0  0  0  0  0
   23.5448  -20.1131   -9.6261 O   0  0  0  0  0  0  0  0  0  0  0  0
   28.4669  -20.8618   -8.6699 C   0  0  0  0  0  0  0  0  0  0  0  0
   29.0881  -20.6296   -7.4587 C   0  0  0  0  0  0  0  0  0  0  0  0
   24.6591  -21.3695   -8.1261 O   0  0  0  0  0  0  0  0  0  0  0  0
  2  1  1  6
  3  2  1  0
  4  3  1  0
  5  4  1  0
  5  6  2  0
  7  2  1  0
  7  8  2  0
  9  5  1  0
 10  7  1  0
 11 10  1  0
 11 12  1  6
 12 13  1  0
 13 14  2  0
 15 11  1  0
 16 15  2  0
 17 13  1  0
 18 19  1  0
 19 20  2  0
 19 29  1  0
 20 21  1  0
 21 22  2  0
 22 23  1  0
 24 23  1  6
 24 25  1  0
 25 15  1  0
 26 27  1  0
 26 24  1  0
 28 22  1  0
 29 28  2  0
 30 26  2  0
M  END
$$$$
