EDY.pdb
     RDKit          3D

 30 30  0  0  1  0  0  0  0  0999 V2000
   33.1115  -35.0078    4.5882 N   0  0  0  0  0  0  0  0  0  0  0  0
   31.8291  -35.5674    4.1843 C   0  0  1  0  0  0  0  0  0  0  0  0
   30.8728  -35.3660    5.3394 C   0  0  0  0  0  0  0  0  0  0  0  0
   31.0312  -36.3919    6.4091 C   0  0  0  0  0  0  0  0  0  0  0  0
   30.1673  -37.5534    6.1072 C   0  0  0  0  0  0  0  0  0  0  0  0
   30.6596  -38.5328    5.5004 O   0  0  0  0  0  0  0  0  0  0  0  0
   31.3357  -34.9893    2.9322 C   0  0  0  0  0  0  0  0  0  0  0  0
   31.4021  -33.7479    2.7542 O   0  0  0  0  0  0  0  0  0  0  0  0
   28.8282  -37.6347    6.4551 O   0  0  0  0  0  0  0  0  0  0  0  0
   30.7873  -35.7796    1.9175 N   0  0  0  0  0  0  0  0  0  0  0  0
   30.2011  -35.3134    0.6976 C   0  0  1  0  0  0  0  0  0  0  0  0
   30.3077  -36.3342   -0.4143 C   0  0  0  0  0  0  0  0  0  0  0  0
   29.7447  -35.8862   -1.6884 C   0  0  0  0  0  0  0  0  0  0  0  0
   29.4524  -34.6789   -1.8479 O   0  0  0  0  0  0  0  0  0  0  0  0
   28.7732  -34.9543    0.8450 C   0  0  0  0  0  0  0  0  0  0  0  0
   28.0072  -35.8056    1.3615 O   0  0  0  0  0  0  0  0  0  0  0  0
   29.5259  -36.7688   -2.7281 O   0  0  0  0  0  0  0  0  0  0  0  0
   27.1796  -30.8959    6.5458 O   0  0  0  0  0  0  0  0  0  0  0  0
   27.0376  -31.1426    5.1691 C   0  0  0  0  0  0  0  0  0  0  0  0
   28.0955  -31.6895    4.4555 C   0  0  0  0  0  0  0  0  0  0  0  0
   27.9291  -31.9247    3.0921 C   0  0  0  0  0  0  0  0  0  0  0  0
   26.7555  -31.6330    2.4358 C   0  0  0  0  0  0  0  0  0  0  0  0
   26.6434  -31.9096    0.9848 C   0  0  0  0  0  0  0  0  0  0  0  0
   26.8211  -33.3711    0.6416 C   0  0  2  0  0  0  0  0  0  0  0  0
   28.2088  -33.7180    0.4449 N   0  0  0  0  0  0  0  0  0  0  0  0
   26.0732  -33.6636   -0.5918 C   0  0  0  0  0  0  0  0  0  0  0  0
   26.6824  -34.0653   -1.7764 O   0  0  0  0  0  0  0  0  0  0  0  0
   25.7215  -31.0918    3.1637 C   0  0  0  0  0  0  0  0  0  0  0  0
   25.8571  -30.8477    4.5161 C   0  0  0  0  0  0  0  0  0  0  0  0
   24.8270  -33.5544   -0.6076 O   0  0  0  0  0  0  0  0  0  0  0  0
  2  1  1  1
  3  2  1  0
  4  3  1  0
  5  4  1  0
  5  6  2  0
  7  2  1  0
  7  8  2  0
  9  5  1  0
 10  7  1  0
 11 10  1  0
 11 12  1  6
 12 13  1  0
 13 14  2  0
 15 11  1  0
 16 15  2  0
 17 13  1  0
 18 19  1  0
 19 20  2  0
 19 29  1  0
 20 21  1  0
 21 22  2  0
 22 23  1  0
 24 23  1  6
 24 25  1  0
 25 15  1  0
 26 27  1  0
 26 24  1  0
 28 22  1  0
 29 28  2  0
 30 26  2  0
M  END
$$$$
