EDY.pdb
     RDKit          3D

 30 30  0  0  1  0  0  0  0  0999 V2000
   17.7165  -11.4978  -16.2127 N   0  0  0  0  0  0  0  0  0  0  0  0
   17.9717  -10.5916  -17.3238 C   0  0  1  0  0  0  0  0  0  0  0  0
   16.8180  -10.7390  -18.2915 C   0  0  0  0  0  0  0  0  0  0  0  0
   16.7468  -12.0948  -18.9068 C   0  0  0  0  0  0  0  0  0  0  0  0
   17.4343  -12.0766  -20.2158 C   0  0  0  0  0  0  0  0  0  0  0  0
   18.6825  -11.9710  -20.2428 O   0  0  0  0  0  0  0  0  0  0  0  0
   18.1697   -9.2085  -16.8839 C   0  0  0  0  0  0  0  0  0  0  0  0
   18.3722   -8.3097  -17.7373 O   0  0  0  0  0  0  0  0  0  0  0  0
   16.7824  -12.1700  -21.4352 O   0  0  0  0  0  0  0  0  0  0  0  0
   18.1409   -8.8502  -15.5327 N   0  0  0  0  0  0  0  0  0  0  0  0
   18.2972   -7.5318  -14.9976 C   0  0  1  0  0  0  0  0  0  0  0  0
   17.2922   -7.2354  -13.9059 C   0  0  0  0  0  0  0  0  0  0  0  0
   15.9074   -7.1715  -14.3742 C   0  0  0  0  0  0  0  0  0  0  0  0
   15.6474   -6.6268  -15.4715 O   0  0  0  0  0  0  0  0  0  0  0  0
   19.6483   -7.2908  -14.4448 C   0  0  0  0  0  0  0  0  0  0  0  0
   20.3855   -8.2888  -14.2482 O   0  0  0  0  0  0  0  0  0  0  0  0
   14.8714   -7.7014  -13.6301 O   0  0  0  0  0  0  0  0  0  0  0  0
   23.2103  -11.5944  -15.9406 O   0  0  0  0  0  0  0  0  0  0  0  0
   23.0191  -10.2197  -15.7177 C   0  0  0  0  0  0  0  0  0  0  0  0
   23.4008   -9.6595  -14.5061 C   0  0  0  0  0  0  0  0  0  0  0  0
   23.2009   -8.2944  -14.3104 C   0  0  0  0  0  0  0  0  0  0  0  0
   22.6401   -7.4899  -15.2755 C   0  0  0  0  0  0  0  0  0  0  0  0
   22.4570   -6.0451  -15.0042 C   0  0  0  0  0  0  0  0  0  0  0  0
   21.5603   -5.7707  -13.8183 C   0  0  2  0  0  0  0  0  0  0  0  0
   20.1697   -6.0137  -14.1213 N   0  0  0  0  0  0  0  0  0  0  0  0
   21.7253   -4.3654  -13.4134 C   0  0  0  0  0  0  0  0  0  0  0  0
   20.6953   -3.4312  -13.4625 O   0  0  0  0  0  0  0  0  0  0  0  0
   22.2699   -8.0673  -16.4677 C   0  0  0  0  0  0  0  0  0  0  0  0
   22.4557   -9.4173  -16.6904 C   0  0  0  0  0  0  0  0  0  0  0  0
   22.8346   -3.9603  -13.0004 O   0  0  0  0  0  0  0  0  0  0  0  0
  2  1  1  1
  3  2  1  0
  4  3  1  0
  5  4  1  0
  5  6  2  0
  7  2  1  0
  7  8  2  0
  9  5  1  0
 10  7  1  0
 11 10  1  0
 11 12  1  1
 12 13  1  0
 13 14  2  0
 15 11  1  0
 16 15  2  0
 17 13  1  0
 18 19  1  0
 19 20  2  0
 19 29  1  0
 20 21  1  0
 21 22  2  0
 22 23  1  0
 24 23  1  6
 24 25  1  0
 25 15  1  0
 26 27  1  0
 26 24  1  0
 28 22  1  0
 29 28  2  0
 30 26  2  0
M  END
$$$$
