EDY.pdb
     RDKit          3D

 30 30  0  0  1  0  0  0  0  0999 V2000
   20.8178  -32.5108    8.4943 N   0  0  0  0  0  0  0  0  0  0  0  0
   19.9877  -32.0002    7.4122 C   0  0  1  0  0  0  0  0  0  0  0  0
   19.1986  -30.8355    7.9690 C   0  0  0  0  0  0  0  0  0  0  0  0
   18.0473  -31.2654    8.8126 C   0  0  0  0  0  0  0  0  0  0  0  0
   16.8739  -31.5191    7.9493 C   0  0  0  0  0  0  0  0  0  0  0  0
   16.6971  -30.7976    6.9404 O   0  0  0  0  0  0  0  0  0  0  0  0
   20.7711  -31.6401    6.2281 C   0  0  0  0  0  0  0  0  0  0  0  0
   21.7848  -30.9095    6.3543 O   0  0  0  0  0  0  0  0  0  0  0  0
   15.9407  -32.5167    8.1831 O   0  0  0  0  0  0  0  0  0  0  0  0
   20.4260  -32.0858    4.9486 N   0  0  0  0  0  0  0  0  0  0  0  0
   21.1326  -31.8158    3.7332 C   0  0  1  0  0  0  0  0  0  0  0  0
   21.6633  -33.0776    3.0884 C   0  0  0  0  0  0  0  0  0  0  0  0
   22.5694  -32.8352    1.9654 C   0  0  0  0  0  0  0  0  0  0  0  0
   22.9530  -31.6691    1.7174 O   0  0  0  0  0  0  0  0  0  0  0  0
   20.3047  -31.1103    2.7301 C   0  0  0  0  0  0  0  0  0  0  0  0
   19.1801  -31.5974    2.4542 O   0  0  0  0  0  0  0  0  0  0  0  0
   23.0160  -33.8690    1.1655 O   0  0  0  0  0  0  0  0  0  0  0  0
   17.2098  -25.2124   -3.1545 O   0  0  0  0  0  0  0  0  0  0  0  0
   17.9707  -25.8662   -2.1698 C   0  0  0  0  0  0  0  0  0  0  0  0
   19.2401  -26.3349   -2.4798 C   0  0  0  0  0  0  0  0  0  0  0  0
   19.9740  -26.9792   -1.4857 C   0  0  0  0  0  0  0  0  0  0  0  0
   19.4817  -27.1638   -0.2143 C   0  0  0  0  0  0  0  0  0  0  0  0
   20.3146  -27.8554    0.7968 C   0  0  0  0  0  0  0  0  0  0  0  0
   19.8933  -29.2874    1.0371 C   0  0  2  0  0  0  0  0  0  0  0  0
   20.6907  -29.9239    2.0587 N   0  0  0  0  0  0  0  0  0  0  0  0
   20.0324  -30.0405   -0.2197 C   0  0  0  0  0  0  0  0  0  0  0  0
   21.1204  -30.8607   -0.5014 O   0  0  0  0  0  0  0  0  0  0  0  0
   18.2216  -26.6908    0.0693 C   0  0  0  0  0  0  0  0  0  0  0  0
   17.4709  -26.0484   -0.8953 C   0  0  0  0  0  0  0  0  0  0  0  0
   19.1451  -29.9595   -1.0981 O   0  0  0  0  0  0  0  0  0  0  0  0
  2  1  1  1
  3  2  1  0
  4  3  1  0
  5  4  1  0
  5  6  2  0
  7  2  1  0
  7  8  2  0
  9  5  1  0
 10  7  1  0
 11 10  1  0
 11 12  1  6
 12 13  1  0
 13 14  2  0
 15 11  1  0
 16 15  2  0
 17 13  1  0
 18 19  1  0
 19 20  2  0
 19 29  1  0
 20 21  1  0
 21 22  2  0
 22 23  1  0
 24 23  1  6
 24 25  1  0
 25 15  1  0
 26 27  1  0
 26 24  1  0
 28 22  1  0
 29 28  2  0
 30 26  2  0
M  END
$$$$
