EDY.pdb
     RDKit          3D

 30 30  0  0  1  0  0  0  0  0999 V2000
   23.2380  -11.9821  -18.5935 N   0  0  0  0  0  0  0  0  0  0  0  0
   22.9745  -11.6234  -17.2069 C   0  0  1  0  0  0  0  0  0  0  0  0
   24.3044  -11.2661  -16.5799 C   0  0  0  0  0  0  0  0  0  0  0  0
   25.2341  -12.4278  -16.4901 C   0  0  0  0  0  0  0  0  0  0  0  0
   26.5227  -11.9822  -15.9180 C   0  0  0  0  0  0  0  0  0  0  0  0
   27.3876  -12.8421  -15.6310 O   0  0  0  0  0  0  0  0  0  0  0  0
   21.9837  -10.5516  -17.0847 C   0  0  0  0  0  0  0  0  0  0  0  0
   22.0980   -9.5186  -17.7896 O   0  0  0  0  0  0  0  0  0  0  0  0
   26.8453  -10.6567  -15.6734 O   0  0  0  0  0  0  0  0  0  0  0  0
   20.9036  -10.6392  -16.2011 N   0  0  0  0  0  0  0  0  0  0  0  0
   19.9244   -9.6258  -15.9498 C   0  0  1  0  0  0  0  0  0  0  0  0
   18.5630  -10.2103  -15.6424 C   0  0  0  0  0  0  0  0  0  0  0  0
   17.5198   -9.2067  -15.4288 C   0  0  0  0  0  0  0  0  0  0  0  0
   17.0897   -8.9946  -14.2719 O   0  0  0  0  0  0  0  0  0  0  0  0
   20.2949   -8.7318  -14.8304 C   0  0  0  0  0  0  0  0  0  0  0  0
   20.4779   -9.2534  -13.7023 O   0  0  0  0  0  0  0  0  0  0  0  0
   16.9936   -8.4814  -16.4799 O   0  0  0  0  0  0  0  0  0  0  0  0
   25.4912   -5.0536  -18.0817 O   0  0  0  0  0  0  0  0  0  0  0  0
   24.7200   -5.4428  -16.9727 C   0  0  0  0  0  0  0  0  0  0  0  0
   24.1641   -4.4747  -16.1475 C   0  0  0  0  0  0  0  0  0  0  0  0
   23.4035   -4.8867  -15.0550 C   0  0  0  0  0  0  0  0  0  0  0  0
   23.1883   -6.2156  -14.7710 C   0  0  0  0  0  0  0  0  0  0  0  0
   22.3679   -6.5862  -13.5945 C   0  0  0  0  0  0  0  0  0  0  0  0
   20.8812   -6.4841  -13.8491 C   0  0  2  0  0  0  0  0  0  0  0  0
   20.4579   -7.3287  -14.9410 N   0  0  0  0  0  0  0  0  0  0  0  0
   20.5486   -5.0860  -14.1664 C   0  0  0  0  0  0  0  0  0  0  0  0
   20.7616   -4.0317  -13.2837 O   0  0  0  0  0  0  0  0  0  0  0  0
   23.7492   -7.1566  -15.6027 C   0  0  0  0  0  0  0  0  0  0  0  0
   24.5075   -6.7784  -16.6929 C   0  0  0  0  0  0  0  0  0  0  0  0
   20.0481   -4.7993  -15.2766 O   0  0  0  0  0  0  0  0  0  0  0  0
  2  1  1  6
  3  2  1  0
  4  3  1  0
  5  4  1  0
  5  6  2  0
  7  2  1  0
  7  8  2  0
  9  5  1  0
 10  7  1  0
 11 10  1  0
 11 12  1  1
 12 13  1  0
 13 14  2  0
 15 11  1  0
 16 15  2  0
 17 13  1  0
 18 19  1  0
 19 20  2  0
 19 29  1  0
 20 21  1  0
 21 22  2  0
 22 23  1  0
 24 23  1  6
 24 25  1  0
 25 15  1  0
 26 27  1  0
 26 24  1  0
 28 22  1  0
 29 28  2  0
 30 26  2  0
M  END
$$$$
