TLH.pdb
     RDKit          3D

 26 26  0  0  1  0  0  0  0  0999 V2000
    7.2507  -18.3132   20.3142 C   0  0  0  0  0  0  0  0  0  0  0  0
    7.7574  -17.4570   21.4289 C   0  0  1  0  0  0  0  0  0  0  0  0
    9.0820  -17.6419   21.7361 O   0  0  0  0  0  0  0  0  0  0  0  0
    7.4550  -15.9915   21.2066 C   0  0  2  0  0  0  0  0  0  0  0  0
    8.0860  -15.5838   19.9666 N   0  0  0  0  0  0  0  0  0  0  0  0
    7.9987  -15.1475   22.3007 C   0  0  0  0  0  0  0  0  0  0  0  0
    9.0985  -14.5196   22.1518 O   0  0  0  0  0  0  0  0  0  0  0  0
    7.7019  -11.4172   26.1907 C   0  0  0  0  0  0  0  0  0  0  0  0
    7.0330  -12.7073   26.5084 C   0  0  1  0  0  0  0  0  0  0  0  0
    5.6516  -12.3422   27.0851 C   0  0  0  0  0  0  0  0  0  0  0  0
    6.7797  -13.5454   25.3216 C   0  0  0  0  0  0  0  0  0  0  0  0
    7.9368  -14.1722   24.6371 C   0  0  2  0  0  0  0  0  0  0  0  0
    7.3613  -14.9822   23.5450 N   0  0  0  0  0  0  0  0  0  0  0  0
    8.7909  -15.0584   25.4044 C   0  0  0  0  0  0  0  0  0  0  0  0
    9.2938  -14.7392   26.5081 O   0  0  0  0  0  0  0  0  0  0  0  0
    9.0900  -16.3608   24.9151 N   0  0  0  0  0  0  0  0  0  0  0  0
   10.0251  -17.2515   25.6730 C   0  0  1  0  0  0  0  0  0  0  0  0
    9.4171  -18.6140   25.5558 C   0  0  0  0  0  0  0  0  0  0  0  0
    8.5481  -19.0413   26.6467 C   0  0  0  0  0  0  0  0  0  0  0  0
    8.2851  -18.5496   27.8973 C   0  0  0  0  0  0  0  0  0  0  0  0
    7.3430  -19.3001   28.5030 N   0  0  0  0  0  0  0  0  0  0  0  0
    7.0163  -20.2518   27.6435 C   0  0  0  0  0  0  0  0  0  0  0  0
    7.7115  -20.1272   26.5337 N   0  0  0  0  0  0  0  0  0  0  0  0
   11.2735  -17.1769   24.8886 C   0  0  0  0  0  0  0  0  0  0  0  0
   12.4117  -17.8279   25.2694 O   0  0  0  0  0  0  0  0  0  0  0  0
   11.3199  -16.5039   23.8373 O   0  0  0  0  0  0  0  0  0  0  0  0
  2  1  1  6
  2  4  1  0
  3  2  1  0
  4  6  1  0
  4  5  1  6
  6  7  2  0
  9  8  1  6
 10  9  1  0
 11  9  1  0
 12 11  1  1
 12 14  1  0
 13 12  1  0
 13  6  1  0
 14 15  2  0
 16 17  1  0
 16 14  1  0
 17 24  1  0
 17 18  1  6
 19 18  1  0
 20 19  2  0
 21 22  1  0
 21 20  1  0
 22 23  2  0
 23 19  1  0
 24 26  2  0
 24 25  1  0
M  END
$$$$
