TLH.pdb
     RDKit          3D

 26 26  0  0  1  0  0  0  0  0999 V2000
    7.6329  -18.8993   20.9309 C   0  0  0  0  0  0  0  0  0  0  0  0
    8.1616  -17.9277   21.9353 C   0  0  1  0  0  0  0  0  0  0  0  0
    9.4486  -18.1710   22.3447 O   0  0  0  0  0  0  0  0  0  0  0  0
    8.0024  -16.4933   21.4816 C   0  0  2  0  0  0  0  0  0  0  0  0
    8.8272  -16.2982   20.3053 N   0  0  0  0  0  0  0  0  0  0  0  0
    8.4508  -15.5356   22.5240 C   0  0  0  0  0  0  0  0  0  0  0  0
    9.6595  -15.1314   22.5584 O   0  0  0  0  0  0  0  0  0  0  0  0
    7.5176  -11.2221   25.8852 C   0  0  0  0  0  0  0  0  0  0  0  0
    6.9443  -12.5431   26.2581 C   0  0  1  0  0  0  0  0  0  0  0  0
    5.5111  -12.2638   26.7502 C   0  0  0  0  0  0  0  0  0  0  0  0
    6.8191  -13.4716   25.1191 C   0  0  0  0  0  0  0  0  0  0  0  0
    8.0559  -14.0391   24.5286 C   0  0  2  0  0  0  0  0  0  0  0  0
    7.6021  -15.0183   23.5211 N   0  0  0  0  0  0  0  0  0  0  0  0
    8.9752  -14.7409   25.4037 C   0  0  0  0  0  0  0  0  0  0  0  0
    9.9454  -14.1815   25.9684 O   0  0  0  0  0  0  0  0  0  0  0  0
    8.7960  -16.1290   25.6606 N   0  0  0  0  0  0  0  0  0  0  0  0
    9.6341  -16.8160   26.6939 C   0  0  1  0  0  0  0  0  0  0  0  0
    8.8152  -17.9973   27.1110 C   0  0  0  0  0  0  0  0  0  0  0  0
    9.4344  -18.9272   28.0489 C   0  0  0  0  0  0  0  0  0  0  0  0
   10.6114  -18.9248   28.7486 C   0  0  0  0  0  0  0  0  0  0  0  0
   10.6862  -20.0168   29.5358 N   0  0  0  0  0  0  0  0  0  0  0  0
    9.5694  -20.6974   29.3348 C   0  0  0  0  0  0  0  0  0  0  0  0
    8.8057  -20.0795   28.4599 N   0  0  0  0  0  0  0  0  0  0  0  0
   10.8188  -17.2559   25.9307 C   0  0  0  0  0  0  0  0  0  0  0  0
   12.0593  -17.3355   26.4955 O   0  0  0  0  0  0  0  0  0  0  0  0
   10.7132  -17.5723   24.7270 O   0  0  0  0  0  0  0  0  0  0  0  0
  2  1  1  6
  2  4  1  0
  3  2  1  0
  4  6  1  0
  4  5  1  6
  6  7  2  0
  9  8  1  6
 10  9  1  0
 11  9  1  0
 12 11  1  1
 12 14  1  0
 13 12  1  0
 13  6  1  0
 14 15  2  0
 16 17  1  0
 16 14  1  0
 17 24  1  0
 17 18  1  6
 19 18  1  0
 20 19  2  0
 21 22  1  0
 21 20  1  0
 22 23  2  0
 23 19  1  0
 24 26  2  0
 24 25  1  0
M  END
$$$$
