TLH.pdb
     RDKit          3D

 26 26  0  0  1  0  0  0  0  0999 V2000
    9.3611  -19.6237   17.8607 C   0  0  0  0  0  0  0  0  0  0  0  0
    9.9949  -18.9688   16.6767 C   0  0  1  0  0  0  0  0  0  0  0  0
    9.8075  -19.6294   15.4886 O   0  0  0  0  0  0  0  0  0  0  0  0
    9.6037  -17.5128   16.5515 C   0  0  2  0  0  0  0  0  0  0  0  0
   10.2808  -16.9619   15.3939 N   0  0  0  0  0  0  0  0  0  0  0  0
   10.0161  -16.7298   17.7438 C   0  0  0  0  0  0  0  0  0  0  0  0
   11.2483  -16.4955   17.9730 O   0  0  0  0  0  0  0  0  0  0  0  0
    6.3047  -13.2282   19.8492 C   0  0  0  0  0  0  0  0  0  0  0  0
    7.6033  -13.7352   19.3304 C   0  0  1  0  0  0  0  0  0  0  0  0
    8.5170  -12.5029   19.1869 C   0  0  0  0  0  0  0  0  0  0  0  0
    8.2879  -14.6545   20.2584 C   0  0  0  0  0  0  0  0  0  0  0  0
    9.5237  -15.3342   19.7990 C   0  0  2  0  0  0  0  0  0  0  0  0
    9.1068  -16.2038   18.6811 N   0  0  0  0  0  0  0  0  0  0  0  0
   10.2323  -16.1804   20.7400 C   0  0  0  0  0  0  0  0  0  0  0  0
    9.8321  -17.3222   21.0702 O   0  0  0  0  0  0  0  0  0  0  0  0
   11.4445  -15.7285   21.3327 N   0  0  0  0  0  0  0  0  0  0  0  0
   12.2112  -16.6270   22.2530 C   0  0  1  0  0  0  0  0  0  0  0  0
   13.5692  -16.0031   22.3353 C   0  0  0  0  0  0  0  0  0  0  0  0
   14.5163  -16.6119   23.2627 C   0  0  0  0  0  0  0  0  0  0  0  0
   14.4305  -17.6326   24.1714 C   0  0  0  0  0  0  0  0  0  0  0  0
   15.6306  -17.8429   24.7487 N   0  0  0  0  0  0  0  0  0  0  0  0
   16.4617  -16.9660   24.2089 C   0  0  0  0  0  0  0  0  0  0  0  0
   15.8338  -16.2216   23.3246 N   0  0  0  0  0  0  0  0  0  0  0  0
   11.5000  -16.4809   23.5385 C   0  0  0  0  0  0  0  0  0  0  0  0
   11.7935  -17.2552   24.6241 O   0  0  0  0  0  0  0  0  0  0  0  0
   10.5957  -15.6289   23.6669 O   0  0  0  0  0  0  0  0  0  0  0  0
  2  1  1  1
  2  4  1  0
  3  2  1  0
  4  6  1  0
  4  5  1  6
  6  7  2  0
  9  8  1  1
 10  9  1  0
 11  9  1  0
 12 11  1  1
 12 14  1  0
 13 12  1  0
 13  6  1  0
 14 15  2  0
 16 17  1  0
 16 14  1  0
 17 24  1  0
 17 18  1  1
 19 18  1  0
 20 19  2  0
 21 22  1  0
 21 20  1  0
 22 23  2  0
 23 19  1  0
 24 26  2  0
 24 25  1  0
M  END
$$$$
