TLH.pdb
     RDKit          3D

 26 26  0  0  1  0  0  0  0  0999 V2000
    7.3960  -18.4070   20.1566 C   0  0  0  0  0  0  0  0  0  0  0  0
    7.8563  -17.5970   21.3245 C   0  0  1  0  0  0  0  0  0  0  0  0
    9.1271  -17.8843   21.7553 O   0  0  0  0  0  0  0  0  0  0  0  0
    7.6891  -16.1116   21.0912 C   0  0  2  0  0  0  0  0  0  0  0  0
    8.4958  -15.7416   19.9448 N   0  0  0  0  0  0  0  0  0  0  0  0
    8.1526  -15.3179   22.2575 C   0  0  0  0  0  0  0  0  0  0  0  0
    9.3131  -14.7896   22.2642 O   0  0  0  0  0  0  0  0  0  0  0  0
    7.4028  -11.5188   26.0529 C   0  0  0  0  0  0  0  0  0  0  0  0
    6.7217  -12.8156   26.3125 C   0  0  1  0  0  0  0  0  0  0  0  0
    5.2859  -12.4648   26.7479 C   0  0  0  0  0  0  0  0  0  0  0  0
    6.5967  -13.6639   25.1126 C   0  0  0  0  0  0  0  0  0  0  0  0
    7.8263  -14.2595   24.5351 C   0  0  2  0  0  0  0  0  0  0  0  0
    7.3706  -15.0959   23.4070 N   0  0  0  0  0  0  0  0  0  0  0  0
    8.6390  -15.1122   25.3812 C   0  0  0  0  0  0  0  0  0  0  0  0
    9.0739  -14.7517   26.5009 O   0  0  0  0  0  0  0  0  0  0  0  0
    8.9743  -16.4280   24.9553 N   0  0  0  0  0  0  0  0  0  0  0  0
    9.8454  -17.2951   25.8105 C   0  0  1  0  0  0  0  0  0  0  0  0
    9.2625  -18.6659   25.6648 C   0  0  0  0  0  0  0  0  0  0  0  0
    8.2875  -19.0750   26.6697 C   0  0  0  0  0  0  0  0  0  0  0  0
    7.8794  -18.5462   27.8651 C   0  0  0  0  0  0  0  0  0  0  0  0
    6.8912  -19.2969   28.3920 N   0  0  0  0  0  0  0  0  0  0  0  0
    6.6793  -20.2853   27.5381 C   0  0  0  0  0  0  0  0  0  0  0  0
    7.4895  -20.1834   26.5068 N   0  0  0  0  0  0  0  0  0  0  0  0
   11.1585  -17.2214   25.1399 C   0  0  0  0  0  0  0  0  0  0  0  0
   12.3328  -17.3557   25.8235 O   0  0  0  0  0  0  0  0  0  0  0  0
   11.2288  -17.0311   23.9075 O   0  0  0  0  0  0  0  0  0  0  0  0
  2  1  1  6
  2  4  1  0
  3  2  1  0
  4  6  1  0
  4  5  1  6
  6  7  2  0
  9  8  1  6
 10  9  1  0
 11  9  1  0
 12 11  1  1
 12 14  1  0
 13 12  1  0
 13  6  1  0
 14 15  2  0
 16 17  1  0
 16 14  1  0
 17 24  1  0
 17 18  1  6
 19 18  1  0
 20 19  2  0
 21 22  1  0
 21 20  1  0
 22 23  2  0
 23 19  1  0
 24 26  2  0
 24 25  1  0
M  END
$$$$
