TLH.pdb
     RDKit          3D

 26 26  0  0  1  0  0  0  0  0999 V2000
   12.2342  -20.2163   18.1736 C   0  0  0  0  0  0  0  0  0  0  0  0
   11.9385  -18.9037   18.8231 C   0  0  1  0  0  0  0  0  0  0  0  0
   12.9095  -18.4599   19.6852 O   0  0  0  0  0  0  0  0  0  0  0  0
   11.5838  -17.8339   17.8140 C   0  0  2  0  0  0  0  0  0  0  0  0
   12.6989  -17.6897   16.8986 N   0  0  0  0  0  0  0  0  0  0  0  0
   11.3493  -16.5208   18.4666 C   0  0  0  0  0  0  0  0  0  0  0  0
   12.2840  -15.6571   18.5431 O   0  0  0  0  0  0  0  0  0  0  0  0
    8.6240  -12.0016   19.6729 C   0  0  0  0  0  0  0  0  0  0  0  0
    8.0252  -13.2572   20.1999 C   0  0  1  0  0  0  0  0  0  0  0  0
    6.5199  -13.1803   19.8799 C   0  0  0  0  0  0  0  0  0  0  0  0
    8.5300  -14.4729   19.5350 C   0  0  0  0  0  0  0  0  0  0  0  0
    9.9333  -14.8849   19.7829 C   0  0  2  0  0  0  0  0  0  0  0  0
   10.1166  -16.1428   19.0319 N   0  0  0  0  0  0  0  0  0  0  0  0
   10.3384  -15.1554   21.1490 C   0  0  0  0  0  0  0  0  0  0  0  0
   10.3709  -14.2743   22.0410 O   0  0  0  0  0  0  0  0  0  0  0  0
   10.7188  -16.4719   21.5327 N   0  0  0  0  0  0  0  0  0  0  0  0
   11.0513  -16.7713   22.9616 C   0  0  1  0  0  0  0  0  0  0  0  0
   10.2259  -17.9757   23.2906 C   0  0  0  0  0  0  0  0  0  0  0  0
    8.8091  -17.7488   23.5533 C   0  0  0  0  0  0  0  0  0  0  0  0
    8.0533  -16.6284   23.7733 C   0  0  0  0  0  0  0  0  0  0  0  0
    6.7550  -16.9639   23.9131 N   0  0  0  0  0  0  0  0  0  0  0  0
    6.6944  -18.2792   23.7814 C   0  0  0  0  0  0  0  0  0  0  0  0
    7.8938  -18.7753   23.5671 N   0  0  0  0  0  0  0  0  0  0  0  0
   12.4827  -17.1285   22.9081 C   0  0  0  0  0  0  0  0  0  0  0  0
   13.1988  -17.4328   24.0301 O   0  0  0  0  0  0  0  0  0  0  0  0
   13.0851  -17.1622   21.8143 O   0  0  0  0  0  0  0  0  0  0  0  0
  2  1  1  6
  2  4  1  0
  3  2  1  0
  4  6  1  0
  4  5  1  6
  6  7  2  0
  9  8  1  6
 10  9  1  0
 11  9  1  0
 12 11  1  1
 12 14  1  0
 13 12  1  0
 13  6  1  0
 14 15  2  0
 16 17  1  0
 16 14  1  0
 17 24  1  0
 17 18  1  6
 19 18  1  0
 20 19  2  0
 21 22  1  0
 21 20  1  0
 22 23  2  0
 23 19  1  0
 24 26  2  0
 24 25  1  0
M  END
$$$$
