TLH.pdb
     RDKit          3D

 26 26  0  0  1  0  0  0  0  0999 V2000
    6.8516  -16.9336   19.6885 C   0  0  0  0  0  0  0  0  0  0  0  0
    7.5015  -16.5962   20.9908 C   0  0  1  0  0  0  0  0  0  0  0  0
    8.7209  -17.1922   21.1934 O   0  0  0  0  0  0  0  0  0  0  0  0
    7.5873  -15.1028   21.2167 C   0  0  2  0  0  0  0  0  0  0  0  0
    8.4545  -14.5418   20.1992 N   0  0  0  0  0  0  0  0  0  0  0  0
    8.1670  -14.7818   22.5456 C   0  0  0  0  0  0  0  0  0  0  0  0
    9.4237  -14.6166   22.6837 O   0  0  0  0  0  0  0  0  0  0  0  0
    5.6087  -11.8726   26.4755 C   0  0  0  0  0  0  0  0  0  0  0  0
    6.7149  -12.4216   25.6462 C   0  0  1  0  0  0  0  0  0  0  0  0
    7.9851  -11.6581   26.0678 C   0  0  0  0  0  0  0  0  0  0  0  0
    6.9852  -13.8493   25.8985 C   0  0  0  0  0  0  0  0  0  0  0  0
    7.9977  -14.5373   25.0607 C   0  0  2  0  0  0  0  0  0  0  0  0
    7.3972  -14.6401   23.7158 N   0  0  0  0  0  0  0  0  0  0  0  0
    8.4037  -15.8780   25.4366 C   0  0  0  0  0  0  0  0  0  0  0  0
    7.6802  -16.8873   25.2611 O   0  0  0  0  0  0  0  0  0  0  0  0
    9.6782  -16.0969   26.0305 N   0  0  0  0  0  0  0  0  0  0  0  0
   10.1093  -17.4841   26.3937 C   0  0  1  0  0  0  0  0  0  0  0  0
   11.5388  -17.5555   25.9561 C   0  0  0  0  0  0  0  0  0  0  0  0
   11.8037  -18.2181   24.6839 C   0  0  0  0  0  0  0  0  0  0  0  0
   11.0143  -18.8573   23.7656 C   0  0  0  0  0  0  0  0  0  0  0  0
   11.7559  -19.2549   22.7121 N   0  0  0  0  0  0  0  0  0  0  0  0
   12.9965  -18.8694   22.9639 C   0  0  0  0  0  0  0  0  0  0  0  0
   13.0595  -18.2521   24.1238 N   0  0  0  0  0  0  0  0  0  0  0  0
   10.0223  -17.4904   27.8674 C   0  0  0  0  0  0  0  0  0  0  0  0
   10.1917  -18.6293   28.6012 O   0  0  0  0  0  0  0  0  0  0  0  0
    9.7875  -16.4338   28.4910 O   0  0  0  0  0  0  0  0  0  0  0  0
  2  1  1  6
  2  4  1  0
  3  2  1  0
  4  6  1  0
  4  5  1  6
  6  7  2  0
  9  8  1  1
 10  9  1  0
 11  9  1  0
 12 11  1  1
 12 14  1  0
 13 12  1  0
 13  6  1  0
 14 15  2  0
 16 17  1  0
 16 14  1  0
 17 24  1  0
 17 18  1  1
 19 18  1  0
 20 19  2  0
 21 22  1  0
 21 20  1  0
 22 23  2  0
 23 19  1  0
 24 26  2  0
 24 25  1  0
M  END
$$$$
