TLH.pdb
     RDKit          3D

 26 26  0  0  1  0  0  0  0  0999 V2000
    7.7946  -20.7296   19.3345 C   0  0  0  0  0  0  0  0  0  0  0  0
    8.2341  -19.5980   20.2054 C   0  0  1  0  0  0  0  0  0  0  0  0
    9.1541  -19.9380   21.1651 O   0  0  0  0  0  0  0  0  0  0  0  0
    8.7095  -18.4086   19.4004 C   0  0  2  0  0  0  0  0  0  0  0  0
    9.8991  -18.8037   18.6717 N   0  0  0  0  0  0  0  0  0  0  0  0
    9.0631  -17.2612   20.2741 C   0  0  0  0  0  0  0  0  0  0  0  0
   10.2625  -17.0933   20.6727 O   0  0  0  0  0  0  0  0  0  0  0  0
    6.4318  -12.6202   19.5513 C   0  0  0  0  0  0  0  0  0  0  0  0
    7.5157  -13.6043   19.8149 C   0  0  1  0  0  0  0  0  0  0  0  0
    8.8406  -12.8582   19.5654 C   0  0  0  0  0  0  0  0  0  0  0  0
    7.5582  -14.0708   21.2133 C   0  0  0  0  0  0  0  0  0  0  0  0
    8.5026  -15.1580   21.5689 C   0  0  2  0  0  0  0  0  0  0  0  0
    8.1303  -16.3029   20.7142 N   0  0  0  0  0  0  0  0  0  0  0  0
    8.5062  -15.6448   22.9351 C   0  0  0  0  0  0  0  0  0  0  0  0
    7.4761  -16.0619   23.5163 O   0  0  0  0  0  0  0  0  0  0  0  0
    9.7184  -15.6695   23.6801 N   0  0  0  0  0  0  0  0  0  0  0  0
    9.7651  -16.3435   25.0164 C   0  0  1  0  0  0  0  0  0  0  0  0
    9.5741  -17.7954   24.7069 C   0  0  0  0  0  0  0  0  0  0  0  0
    8.2239  -18.3265   24.8570 C   0  0  0  0  0  0  0  0  0  0  0  0
    7.0335  -17.7880   25.2669 C   0  0  0  0  0  0  0  0  0  0  0  0
    6.0505  -18.7056   25.1698 N   0  0  0  0  0  0  0  0  0  0  0  0
    6.6152  -19.8077   24.7032 C   0  0  0  0  0  0  0  0  0  0  0  0
    7.9019  -19.6171   24.5068 N   0  0  0  0  0  0  0  0  0  0  0  0
   11.1464  -16.0931   25.4734 C   0  0  0  0  0  0  0  0  0  0  0  0
   12.0863  -15.5184   24.6669 O   0  0  0  0  0  0  0  0  0  0  0  0
   11.4955  -16.4066   26.6309 O   0  0  0  0  0  0  0  0  0  0  0  0
  2  1  1  6
  2  4  1  0
  3  2  1  0
  4  6  1  0
  4  5  1  1
  6  7  2  0
  9  8  1  1
 10  9  1  0
 11  9  1  0
 12 11  1  1
 12 14  1  0
 13 12  1  0
 13  6  1  0
 14 15  2  0
 16 17  1  0
 16 14  1  0
 17 24  1  0
 17 18  1  6
 19 18  1  0
 20 19  2  0
 21 22  1  0
 21 20  1  0
 22 23  2  0
 23 19  1  0
 24 26  2  0
 24 25  1  0
M  END
$$$$
