TLH.pdb
     RDKit          3D

 26 26  0  0  1  0  0  0  0  0999 V2000
    6.7069  -17.1744   20.3287 C   0  0  0  0  0  0  0  0  0  0  0  0
    7.4068  -16.5804   21.5075 C   0  0  1  0  0  0  0  0  0  0  0  0
    8.7547  -16.8323   21.5597 O   0  0  0  0  0  0  0  0  0  0  0  0
    7.1292  -15.1002   21.6509 C   0  0  2  0  0  0  0  0  0  0  0  0
    7.5798  -14.4377   20.4425 N   0  0  0  0  0  0  0  0  0  0  0  0
    7.8634  -14.5135   22.8005 C   0  0  0  0  0  0  0  0  0  0  0  0
    8.9372  -13.8512   22.6159 O   0  0  0  0  0  0  0  0  0  0  0  0
    5.6084  -11.8348   26.9403 C   0  0  0  0  0  0  0  0  0  0  0  0
    6.5689  -12.2902   25.8997 C   0  0  1  0  0  0  0  0  0  0  0  0
    7.6838  -11.2277   25.8525 C   0  0  0  0  0  0  0  0  0  0  0  0
    7.2269  -13.5688   26.2271 C   0  0  0  0  0  0  0  0  0  0  0  0
    8.2245  -14.1159   25.2755 C   0  0  2  0  0  0  0  0  0  0  0  0
    7.4428  -14.6403   24.1380 N   0  0  0  0  0  0  0  0  0  0  0  0
    9.0799  -15.1979   25.7240 C   0  0  0  0  0  0  0  0  0  0  0  0
    9.6579  -15.1977   26.8370 O   0  0  0  0  0  0  0  0  0  0  0  0
    9.2923  -16.3315   24.8903 N   0  0  0  0  0  0  0  0  0  0  0  0
   10.2225  -17.4208   25.3265 C   0  0  1  0  0  0  0  0  0  0  0  0
    9.4266  -18.6775   25.1603 C   0  0  0  0  0  0  0  0  0  0  0  0
    8.5798  -19.0714   26.2808 C   0  0  0  0  0  0  0  0  0  0  0  0
    8.5621  -18.7544   27.6128 C   0  0  0  0  0  0  0  0  0  0  0  0
    7.5201  -19.3573   28.2200 N   0  0  0  0  0  0  0  0  0  0  0  0
    6.8891  -20.0441   27.2812 C   0  0  0  0  0  0  0  0  0  0  0  0
    7.4908  -19.8961   26.1208 N   0  0  0  0  0  0  0  0  0  0  0  0
   11.3053  -17.3623   24.3247 C   0  0  0  0  0  0  0  0  0  0  0  0
   12.4027  -18.1719   24.3919 O   0  0  0  0  0  0  0  0  0  0  0  0
   11.2426  -16.5559   23.3730 O   0  0  0  0  0  0  0  0  0  0  0  0
  2  1  1  6
  2  4  1  0
  3  2  1  0
  4  6  1  0
  4  5  1  6
  6  7  2  0
  9  8  1  1
 10  9  1  0
 11  9  1  0
 12 11  1  1
 12 14  1  0
 13 12  1  0
 13  6  1  0
 14 15  2  0
 16 17  1  0
 16 14  1  0
 17 24  1  0
 17 18  1  6
 19 18  1  0
 20 19  2  0
 21 22  1  0
 21 20  1  0
 22 23  2  0
 23 19  1  0
 24 26  2  0
 24 25  1  0
M  END
$$$$
