TLH.pdb
     RDKit          3D

 26 26  0  0  1  0  0  0  0  0999 V2000
    7.3013  -17.0140   19.0401 C   0  0  0  0  0  0  0  0  0  0  0  0
    7.7852  -16.7256   20.4239 C   0  0  1  0  0  0  0  0  0  0  0  0
    8.7610  -17.5768   20.8782 O   0  0  0  0  0  0  0  0  0  0  0  0
    8.2074  -15.2827   20.5925 C   0  0  2  0  0  0  0  0  0  0  0  0
    9.3476  -15.0426   19.7298 N   0  0  0  0  0  0  0  0  0  0  0  0
    8.6160  -14.9908   21.9899 C   0  0  0  0  0  0  0  0  0  0  0  0
    9.8290  -15.1342   22.3557 O   0  0  0  0  0  0  0  0  0  0  0  0
    8.3053  -11.9847   26.5619 C   0  0  0  0  0  0  0  0  0  0  0  0
    7.2134  -12.9725   26.3499 C   0  0  1  0  0  0  0  0  0  0  0  0
    5.9025  -12.2430   26.7015 C   0  0  0  0  0  0  0  0  0  0  0  0
    7.0821  -13.4108   24.9479 C   0  0  0  0  0  0  0  0  0  0  0  0
    8.1456  -14.2694   24.3716 C   0  0  2  0  0  0  0  0  0  0  0  0
    7.7234  -14.5478   22.9845 N   0  0  0  0  0  0  0  0  0  0  0  0
    8.4020  -15.5548   24.9925 C   0  0  0  0  0  0  0  0  0  0  0  0
    7.6627  -16.5545   24.8282 O   0  0  0  0  0  0  0  0  0  0  0  0
    9.5395  -15.7281   25.8299 N   0  0  0  0  0  0  0  0  0  0  0  0
    9.8445  -17.0727   26.4137 C   0  0  1  0  0  0  0  0  0  0  0  0
   11.1772  -17.4346   25.8367 C   0  0  0  0  0  0  0  0  0  0  0  0
   11.1723  -18.0912   24.5341 C   0  0  0  0  0  0  0  0  0  0  0  0
   10.1810  -18.5189   23.6919 C   0  0  0  0  0  0  0  0  0  0  0  0
   10.7167  -19.0232   22.5621 N   0  0  0  0  0  0  0  0  0  0  0  0
   12.0290  -18.9130   22.6913 C   0  0  0  0  0  0  0  0  0  0  0  0
   12.3325  -18.3646   23.8479 N   0  0  0  0  0  0  0  0  0  0  0  0
    9.9687  -16.7940   27.8581 C   0  0  0  0  0  0  0  0  0  0  0  0
   10.0191  -17.7912   28.7895 O   0  0  0  0  0  0  0  0  0  0  0  0
   10.0324  -15.6170   28.2714 O   0  0  0  0  0  0  0  0  0  0  0  0
  2  1  1  6
  2  4  1  0
  3  2  1  0
  4  6  1  0
  4  5  1  6
  6  7  2  0
  9  8  1  6
 10  9  1  0
 11  9  1  0
 12 11  1  1
 12 14  1  0
 13 12  1  0
 13  6  1  0
 14 15  2  0
 16 17  1  0
 16 14  1  0
 17 24  1  0
 17 18  1  6
 19 18  1  0
 20 19  2  0
 21 22  1  0
 21 20  1  0
 22 23  2  0
 23 19  1  0
 24 26  2  0
 24 25  1  0
M  END
$$$$
