IIH.pdb
     RDKit          3D

 27 27  0  0  1  0  0  0  0  0999 V2000
   37.1224  -27.8571    7.3503 C   0  0  0  0  0  0  0  0  0  0  0  0
   37.3733  -26.4419    6.8795 C   0  0  0  0  0  0  0  0  0  0  0  0
   36.9855  -26.1993    5.4566 C   0  0  2  0  0  0  0  0  0  0  0  0
   37.8670  -27.0669    4.5790 C   0  0  0  0  0  0  0  0  0  0  0  0
   37.1393  -24.7340    5.1006 C   0  0  2  0  0  0  0  0  0  0  0  0
   38.5308  -24.4195    5.5255 N   0  0  0  0  0  0  0  0  0  0  0  0
   36.2788  -23.8426    5.9037 C   0  0  0  0  0  0  0  0  0  0  0  0
   36.7953  -23.1712    6.8302 O   0  0  0  0  0  0  0  0  0  0  0  0
   31.5443  -21.3619    3.9798 C   0  0  0  0  0  0  0  0  0  0  0  0
   32.8815  -21.6143    4.6246 C   0  0  0  0  0  0  0  0  0  0  0  0
   32.8356  -22.2710    5.9427 C   0  0  2  0  0  0  0  0  0  0  0  0
   32.1971  -21.3602    7.0081 C   0  0  0  0  0  0  0  0  0  0  0  0
   34.0841  -22.7850    6.5436 C   0  0  2  0  0  0  0  0  0  0  0  0
   34.8776  -23.6647    5.7209 N   0  0  0  0  0  0  0  0  0  0  0  0
   33.8956  -23.3486    7.9177 C   0  0  0  0  0  0  0  0  0  0  0  0
   33.4160  -24.4893    8.1397 O   0  0  0  0  0  0  0  0  0  0  0  0
   34.2635  -22.5910    9.0606 N   0  0  0  0  0  0  0  0  0  0  0  0
   34.0083  -23.0711   10.4073 C   0  0  1  0  0  0  0  0  0  0  0  0
   35.2360  -22.7656   11.2348 C   0  0  0  0  0  0  0  0  0  0  0  0
   36.2954  -23.7436   10.9335 C   0  0  0  0  0  0  0  0  0  0  0  0
   37.2917  -23.6638    9.9865 C   0  0  0  0  0  0  0  0  0  0  0  0
   38.0610  -24.7602   10.0243 N   0  0  0  0  0  0  0  0  0  0  0  0
   37.5627  -25.5444   10.9921 C   0  0  0  0  0  0  0  0  0  0  0  0
   36.4809  -24.9206   11.5487 N   0  0  0  0  0  0  0  0  0  0  0  0
   32.7942  -22.4880   10.9865 C   0  0  0  0  0  0  0  0  0  0  0  0
   32.5070  -21.2827   10.9066 O   0  0  0  0  0  0  0  0  0  0  0  0
   31.9303  -23.3661   11.6614 O   0  0  0  0  0  0  0  0  0  0  0  0
  1  2  1  0
  2  3  1  0
  3  4  1  6
  5  3  1  0
  5  6  1  1
  7  8  2  0
  7  5  1  0
  9 10  1  0
 10 11  1  0
 11 13  1  0
 11 12  1  1
 13 14  1  6
 14  7  1  0
 15 13  1  0
 16 15  2  0
 17 15  1  0
 18 25  1  0
 18 17  1  0
 18 19  1  1
 20 19  1  0
 21 20  2  0
 22 21  1  0
 23 22  1  0
 23 24  2  0
 24 20  1  0
 25 27  1  0
 26 25  2  0
M  END
$$$$
