IIH.pdb
     RDKit          3D

 27 27  0  0  1  0  0  0  0  0999 V2000
   17.9492  -12.1576  -21.6283 C   0  0  0  0  0  0  0  0  0  0  0  0
   19.0847  -12.3201  -20.6427 C   0  0  0  0  0  0  0  0  0  0  0  0
   18.9730  -11.4406  -19.4395 C   0  0  2  0  0  0  0  0  0  0  0  0
   18.9833   -9.9999  -19.9128 C   0  0  0  0  0  0  0  0  0  0  0  0
   20.1121  -11.7034  -18.4748 C   0  0  2  0  0  0  0  0  0  0  0  0
   19.8510  -13.0902  -18.0013 N   0  0  0  0  0  0  0  0  0  0  0  0
   20.0577  -10.8637  -17.2614 C   0  0  0  0  0  0  0  0  0  0  0  0
   19.1650  -11.0861  -16.4074 O   0  0  0  0  0  0  0  0  0  0  0  0
   23.5484  -10.4329  -13.4119 C   0  0  0  0  0  0  0  0  0  0  0  0
   22.3378  -10.4185  -14.3072 C   0  0  0  0  0  0  0  0  0  0  0  0
   21.9178   -9.0891  -14.7838 C   0  0  2  0  0  0  0  0  0  0  0  0
   21.5231   -8.1664  -13.6154 C   0  0  0  0  0  0  0  0  0  0  0  0
   20.8246   -8.9823  -15.7724 C   0  0  2  0  0  0  0  0  0  0  0  0
   20.9491   -9.7953  -16.9573 N   0  0  0  0  0  0  0  0  0  0  0  0
   20.4695   -7.5694  -16.1173 C   0  0  0  0  0  0  0  0  0  0  0  0
   21.2703   -6.7653  -16.6584 O   0  0  0  0  0  0  0  0  0  0  0  0
   19.1716   -7.0669  -15.8372 N   0  0  0  0  0  0  0  0  0  0  0  0
   18.7978   -5.7009  -16.1585 C   0  0  1  0  0  0  0  0  0  0  0  0
   17.3627   -5.7261  -16.6330 C   0  0  0  0  0  0  0  0  0  0  0  0
   16.9351   -4.3645  -16.9979 C   0  0  0  0  0  0  0  0  0  0  0  0
   17.3860   -3.5719  -18.0294 C   0  0  0  0  0  0  0  0  0  0  0  0
   16.7458   -2.3948  -18.0282 N   0  0  0  0  0  0  0  0  0  0  0  0
   15.8851   -2.4282  -16.9997 C   0  0  0  0  0  0  0  0  0  0  0  0
   16.0018   -3.6355  -16.3690 N   0  0  0  0  0  0  0  0  0  0  0  0
   18.9878   -4.7896  -15.0258 C   0  0  0  0  0  0  0  0  0  0  0  0
   19.4032   -3.6255  -15.1446 O   0  0  0  0  0  0  0  0  0  0  0  0
   18.6741   -5.2901  -13.7514 O   0  0  0  0  0  0  0  0  0  0  0  0
  1  2  1  0
  2  3  1  0
  3  4  1  6
  5  3  1  0
  5  6  1  1
  7  8  2  0
  7  5  1  0
  9 10  1  0
 10 11  1  0
 11 13  1  0
 11 12  1  1
 13 14  1  6
 14  7  1  0
 15 13  1  0
 16 15  2  0
 17 15  1  0
 18 25  1  0
 18 17  1  0
 18 19  1  1
 20 19  1  0
 21 20  2  0
 22 21  1  0
 23 22  1  0
 23 24  2  0
 24 20  1  0
 25 27  1  0
 26 25  2  0
M  END
$$$$
