IIH.pdb
     RDKit          3D

 27 27  0  0  1  0  0  0  0  0999 V2000
   17.8561  -15.1283  -18.8840 C   0  0  0  0  0  0  0  0  0  0  0  0
   19.2905  -15.2247  -18.4145 C   0  0  0  0  0  0  0  0  0  0  0  0
   19.7623  -14.0249  -17.6584 C   0  0  2  0  0  0  0  0  0  0  0  0
   19.6224  -12.8177  -18.5656 C   0  0  0  0  0  0  0  0  0  0  0  0
   21.1992  -14.2036  -17.2102 C   0  0  2  0  0  0  0  0  0  0  0  0
   21.1262  -15.3519  -16.2659 N   0  0  0  0  0  0  0  0  0  0  0  0
   21.7070  -13.0737  -16.4068 C   0  0  0  0  0  0  0  0  0  0  0  0
   21.1698  -12.8244  -15.2999 O   0  0  0  0  0  0  0  0  0  0  0  0
   26.9623  -11.5812  -15.3615 C   0  0  0  0  0  0  0  0  0  0  0  0
   25.4905  -11.8986  -15.3834 C   0  0  0  0  0  0  0  0  0  0  0  0
   24.6155  -10.8148  -15.8634 C   0  0  2  0  0  0  0  0  0  0  0  0
   24.7484   -9.5511  -14.9929 C   0  0  0  0  0  0  0  0  0  0  0  0
   23.1650  -11.0592  -16.0051 C   0  0  2  0  0  0  0  0  0  0  0  0
   22.7814  -12.2154  -16.7776 N   0  0  0  0  0  0  0  0  0  0  0  0
   22.3946   -9.8457  -16.4236 C   0  0  0  0  0  0  0  0  0  0  0  0
   22.3390   -9.4347  -17.6105 O   0  0  0  0  0  0  0  0  0  0  0  0
   21.6735   -9.0874  -15.4642 N   0  0  0  0  0  0  0  0  0  0  0  0
   20.9449   -7.8867  -15.8336 C   0  0  1  0  0  0  0  0  0  0  0  0
   19.4737   -8.1740  -15.6375 C   0  0  0  0  0  0  0  0  0  0  0  0
   18.6805   -6.9940  -16.0222 C   0  0  0  0  0  0  0  0  0  0  0  0
   18.3399   -5.9026  -15.2550 C   0  0  0  0  0  0  0  0  0  0  0  0
   17.6073   -5.0388  -15.9707 N   0  0  0  0  0  0  0  0  0  0  0  0
   17.4757   -5.5710  -17.1951 C   0  0  0  0  0  0  0  0  0  0  0  0
   18.1336   -6.7690  -17.2257 N   0  0  0  0  0  0  0  0  0  0  0  0
   21.3831   -6.7123  -15.0731 C   0  0  0  0  0  0  0  0  0  0  0  0
   21.8168   -6.7707  -13.9111 O   0  0  0  0  0  0  0  0  0  0  0  0
   21.2952   -5.4695  -15.7217 O   0  0  0  0  0  0  0  0  0  0  0  0
  1  2  1  0
  2  3  1  0
  3  4  1  6
  5  3  1  0
  5  6  1  1
  7  8  2  0
  7  5  1  0
  9 10  1  0
 10 11  1  0
 11 13  1  0
 11 12  1  1
 13 14  1  6
 14  7  1  0
 15 13  1  0
 16 15  2  0
 17 15  1  0
 18 25  1  0
 18 17  1  0
 18 19  1  1
 20 19  1  0
 21 20  2  0
 22 21  1  0
 23 22  1  0
 23 24  2  0
 24 20  1  0
 25 27  1  0
 26 25  2  0
M  END
$$$$
