IIH.pdb
     RDKit          3D

 27 27  0  0  1  0  0  0  0  0999 V2000
   18.0245  -16.7600  -17.3956 C   0  0  0  0  0  0  0  0  0  0  0  0
   18.8016  -15.6057  -16.8032 C   0  0  0  0  0  0  0  0  0  0  0  0
   18.2264  -14.2628  -17.1190 C   0  0  2  0  0  0  0  0  0  0  0  0
   18.1361  -14.1377  -18.6276 C   0  0  0  0  0  0  0  0  0  0  0  0
   19.0851  -13.1597  -16.5332 C   0  0  2  0  0  0  0  0  0  0  0  0
   19.0383  -13.4260  -15.0694 N   0  0  0  0  0  0  0  0  0  0  0  0
   18.5031  -11.8130  -16.7002 C   0  0  0  0  0  0  0  0  0  0  0  0
   18.4190  -11.3256  -17.8540 O   0  0  0  0  0  0  0  0  0  0  0  0
   13.7683   -9.8056  -15.0011 C   0  0  0  0  0  0  0  0  0  0  0  0
   15.0364  -10.0524  -15.7747 C   0  0  0  0  0  0  0  0  0  0  0  0
   16.2188   -9.3076  -15.3079 C   0  0  2  0  0  0  0  0  0  0  0  0
   16.0470   -7.7897  -15.5053 C   0  0  0  0  0  0  0  0  0  0  0  0
   17.5508   -9.6398  -15.8546 C   0  0  2  0  0  0  0  0  0  0  0  0
   18.0113  -10.9907  -15.6464 N   0  0  0  0  0  0  0  0  0  0  0  0
   18.6082   -8.6432  -15.4937 C   0  0  0  0  0  0  0  0  0  0  0  0
   19.1653   -8.6002  -14.3674 O   0  0  0  0  0  0  0  0  0  0  0  0
   19.0364   -7.6765  -16.4411 N   0  0  0  0  0  0  0  0  0  0  0  0
   19.9909   -6.6390  -16.0926 C   0  0  1  0  0  0  0  0  0  0  0  0
   20.6163   -6.1513  -17.3796 C   0  0  0  0  0  0  0  0  0  0  0  0
   21.5610   -5.0586  -17.0911 C   0  0  0  0  0  0  0  0  0  0  0  0
   21.2981   -3.7156  -16.9395 C   0  0  0  0  0  0  0  0  0  0  0  0
   22.4291   -3.0442  -16.6838 N   0  0  0  0  0  0  0  0  0  0  0  0
   23.4179   -3.9507  -16.6706 C   0  0  0  0  0  0  0  0  0  0  0  0
   22.8851   -5.1848  -16.9203 N   0  0  0  0  0  0  0  0  0  0  0  0
   19.3753   -5.5479  -15.3309 C   0  0  0  0  0  0  0  0  0  0  0  0
   18.2652   -5.0629  -15.6032 O   0  0  0  0  0  0  0  0  0  0  0  0
   20.1058   -5.0464  -14.2410 O   0  0  0  0  0  0  0  0  0  0  0  0
  1  2  1  0
  2  3  1  0
  3  4  1  6
  5  3  1  0
  5  6  1  1
  7  8  2  0
  7  5  1  0
  9 10  1  0
 10 11  1  0
 11 13  1  0
 11 12  1  6
 13 14  1  1
 14  7  1  0
 15 13  1  0
 16 15  2  0
 17 15  1  0
 18 25  1  0
 18 17  1  0
 18 19  1  6
 20 19  1  0
 21 20  2  0
 22 21  1  0
 23 22  1  0
 23 24  2  0
 24 20  1  0
 25 27  1  0
 26 25  2  0
M  END
$$$$
