IIH.pdb
     RDKit          3D

 27 27  0  0  1  0  0  0  0  0999 V2000
   18.5648  -16.1301  -18.5885 C   0  0  0  0  0  0  0  0  0  0  0  0
   20.0483  -16.1516  -18.2949 C   0  0  0  0  0  0  0  0  0  0  0  0
   20.5187  -14.9995  -17.4670 C   0  0  2  0  0  0  0  0  0  0  0  0
   20.1331  -13.7211  -18.1858 C   0  0  0  0  0  0  0  0  0  0  0  0
   22.0173  -15.0701  -17.2511 C   0  0  2  0  0  0  0  0  0  0  0  0
   22.1985  -16.3421  -16.4995 N   0  0  0  0  0  0  0  0  0  0  0  0
   22.5303  -14.0148  -16.3548 C   0  0  0  0  0  0  0  0  0  0  0  0
   21.9576  -13.8195  -15.2549 O   0  0  0  0  0  0  0  0  0  0  0  0
   27.8113  -12.7378  -15.1908 C   0  0  0  0  0  0  0  0  0  0  0  0
   26.3308  -13.0124  -15.2073 C   0  0  0  0  0  0  0  0  0  0  0  0
   25.4780  -11.8684  -15.5744 C   0  0  2  0  0  0  0  0  0  0  0  0
   25.6063  -10.7169  -14.5596 C   0  0  0  0  0  0  0  0  0  0  0  0
   24.0283  -12.0753  -15.7723 C   0  0  2  0  0  0  0  0  0  0  0  0
   23.6474  -13.1738  -16.6259 N   0  0  0  0  0  0  0  0  0  0  0  0
   23.2923  -10.8234  -16.1363 C   0  0  0  0  0  0  0  0  0  0  0  0
   23.3735  -10.2742  -17.2644 O   0  0  0  0  0  0  0  0  0  0  0  0
   22.4465  -10.1874  -15.1900 N   0  0  0  0  0  0  0  0  0  0  0  0
   21.7803   -8.9315  -15.4866 C   0  0  1  0  0  0  0  0  0  0  0  0
   20.2988   -9.1466  -15.2764 C   0  0  0  0  0  0  0  0  0  0  0  0
   19.7193   -9.8079  -16.4583 C   0  0  0  0  0  0  0  0  0  0  0  0
   20.3532  -10.2111  -17.6121 C   0  0  0  0  0  0  0  0  0  0  0  0
   19.4768  -10.7756  -18.4537 N   0  0  0  0  0  0  0  0  0  0  0  0
   18.2819  -10.7367  -17.8451 C   0  0  0  0  0  0  0  0  0  0  0  0
   18.4314  -10.1435  -16.6224 N   0  0  0  0  0  0  0  0  0  0  0  0
   22.2961   -7.8222  -14.6785 C   0  0  0  0  0  0  0  0  0  0  0  0
   23.0846   -7.9727  -13.7312 O   0  0  0  0  0  0  0  0  0  0  0  0
   21.8558   -6.5327  -15.0195 O   0  0  0  0  0  0  0  0  0  0  0  0
  1  2  1  0
  2  3  1  0
  3  4  1  6
  5  3  1  0
  5  6  1  1
  7  8  2  0
  7  5  1  0
  9 10  1  0
 10 11  1  0
 11 13  1  0
 11 12  1  1
 13 14  1  6
 14  7  1  0
 15 13  1  0
 16 15  2  0
 17 15  1  0
 18 25  1  0
 18 17  1  0
 18 19  1  1
 20 19  1  0
 21 20  2  0
 22 21  1  0
 23 22  1  0
 23 24  2  0
 24 20  1  0
 25 27  1  0
 26 25  2  0
M  END
$$$$
