KII.pdb
     RDKit          3D

 26 25  0  0  1  0  0  0  0  0999 V2000
    6.1793  -18.6837   22.5925 N   0  0  0  0  0  0  0  0  0  0  0  0
    6.1551  -18.0958   23.9514 C   0  0  1  0  0  0  0  0  0  0  0  0
    6.7370  -19.0975   24.8951 C   0  0  0  0  0  0  0  0  0  0  0  0
    6.6449  -20.4790   24.3462 C   0  0  0  0  0  0  0  0  0  0  0  0
    8.0085  -21.1587   24.3646 C   0  0  0  0  0  0  0  0  0  0  0  0
    7.8929  -22.5341   24.9541 C   0  0  0  0  0  0  0  0  0  0  0  0
    9.1650  -23.2149   24.8600 N   0  0  0  0  0  0  0  0  0  0  0  0
    6.9374  -16.8551   23.8846 C   0  0  0  0  0  0  0  0  0  0  0  0
    7.8656  -16.6655   23.0479 O   0  0  0  0  0  0  0  0  0  0  0  0
    6.6300  -11.1986   26.3007 C   0  0  0  0  0  0  0  0  0  0  0  0
    7.3420  -12.2274   25.4489 C   0  0  0  0  0  0  0  0  0  0  0  0
    6.5869  -13.5598   25.4715 C   0  0  2  0  0  0  0  0  0  0  0  0
    6.3849  -13.8834   26.9262 C   0  0  0  0  0  0  0  0  0  0  0  0
    7.4665  -14.5466   24.7314 C   0  0  2  0  0  0  0  0  0  0  0  0
    6.6775  -15.7971   24.7663 N   0  0  0  0  0  0  0  0  0  0  0  0
    8.7549  -14.7806   25.3789 C   0  0  0  0  0  0  0  0  0  0  0  0
    9.6653  -13.9104   25.4064 O   0  0  0  0  0  0  0  0  0  0  0  0
   10.0973  -13.8712   29.6954 C   0  0  0  0  0  0  0  0  0  0  0  0
   10.1773  -14.3102   28.2699 C   0  0  0  0  0  0  0  0  0  0  0  0
   10.2746  -15.7899   28.0825 C   0  0  2  0  0  0  0  0  0  0  0  0
   11.4467  -16.2810   28.9189 C   0  0  0  0  0  0  0  0  0  0  0  0
   10.3965  -16.2119   26.6517 C   0  0  2  0  0  0  0  0  0  0  0  0
    9.0801  -16.0085   26.0284 N   0  0  0  0  0  0  0  0  0  0  0  0
   10.8371  -17.6143   26.4981 C   0  0  0  0  0  0  0  0  0  0  0  0
   10.0604  -18.5287   26.1684 O   0  0  0  0  0  0  0  0  0  0  0  0
   12.1744  -17.9605   26.7251 O   0  0  0  0  0  0  0  0  0  0  0  0
  2  1  1  6
  3  2  1  0
  4  3  1  0
  5  4  1  0
  6  5  1  0
  7  6  1  0
  8  2  1  0
  8  9  2  0
 10 11  1  0
 11 12  1  0
 12 13  1  1
 14 15  1  1
 14 12  1  0
 15  8  1  0
 16 14  1  0
 17 16  2  0
 19 18  1  0
 19 20  1  0
 20 21  1  1
 22 20  1  0
 22 23  1  1
 23 16  1  0
 24 26  1  0
 24 22  1  0
 25 24  2  0
M  END
$$$$
