KII.pdb
     RDKit          3D

 26 25  0  0  1  0  0  0  0  0999 V2000
    9.7668  -16.0778   19.7017 N   0  0  0  0  0  0  0  0  0  0  0  0
    9.0210  -16.6464   20.8478 C   0  0  1  0  0  0  0  0  0  0  0  0
    9.4978  -18.0470   21.0560 C   0  0  0  0  0  0  0  0  0  0  0  0
    9.3632  -18.8575   19.8137 C   0  0  0  0  0  0  0  0  0  0  0  0
    9.7895  -20.2991   20.0613 C   0  0  0  0  0  0  0  0  0  0  0  0
    9.5587  -21.1255   18.8298 C   0  0  0  0  0  0  0  0  0  0  0  0
    9.9097  -22.5034   19.0928 N   0  0  0  0  0  0  0  0  0  0  0  0
    9.2935  -15.7753   21.9978 C   0  0  0  0  0  0  0  0  0  0  0  0
   10.3824  -15.1524   22.1526 O   0  0  0  0  0  0  0  0  0  0  0  0
    6.0253  -12.4213   25.8339 C   0  0  0  0  0  0  0  0  0  0  0  0
    7.3635  -12.9985   25.4253 C   0  0  0  0  0  0  0  0  0  0  0  0
    7.1696  -14.1971   24.4916 C   0  0  2  0  0  0  0  0  0  0  0  0
    6.3546  -15.1894   25.2743 C   0  0  0  0  0  0  0  0  0  0  0  0
    8.5627  -14.6770   24.1394 C   0  0  2  0  0  0  0  0  0  0  0  0
    8.3295  -15.5879   22.9978 N   0  0  0  0  0  0  0  0  0  0  0  0
    9.2134  -15.4214   25.2148 C   0  0  0  0  0  0  0  0  0  0  0  0
    9.3734  -16.6702   25.1716 O   0  0  0  0  0  0  0  0  0  0  0  0
   11.3184  -14.4751   30.9925 C   0  0  0  0  0  0  0  0  0  0  0  0
   11.2715  -15.3238   29.7643 C   0  0  0  0  0  0  0  0  0  0  0  0
   10.6950  -14.6445   28.5642 C   0  0  2  0  0  0  0  0  0  0  0  0
    9.4191  -13.9424   29.0046 C   0  0  0  0  0  0  0  0  0  0  0  0
   10.4540  -15.5623   27.4067 C   0  0  2  0  0  0  0  0  0  0  0  0
    9.7166  -14.7935   26.3929 N   0  0  0  0  0  0  0  0  0  0  0  0
    9.7095  -16.7828   27.7818 C   0  0  0  0  0  0  0  0  0  0  0  0
   10.2732  -17.8086   28.2038 O   0  0  0  0  0  0  0  0  0  0  0  0
    8.3146  -16.8184   27.6696 O   0  0  0  0  0  0  0  0  0  0  0  0
  2  1  1  6
  3  2  1  0
  4  3  1  0
  5  4  1  0
  6  5  1  0
  7  6  1  0
  8  2  1  0
  8  9  2  0
 10 11  1  0
 11 12  1  0
 12 13  1  1
 14 15  1  6
 14 12  1  0
 15  8  1  0
 16 14  1  0
 17 16  2  0
 19 18  1  0
 19 20  1  0
 20 21  1  1
 22 20  1  0
 22 23  1  6
 23 16  1  0
 24 26  1  0
 24 22  1  0
 25 24  2  0
M  END
$$$$
