KII.pdb
     RDKit          3D

 26 25  0  0  1  0  0  0  0  0999 V2000
    8.9929  -15.4008   19.9676 N   0  0  0  0  0  0  0  0  0  0  0  0
    8.1974  -15.9627   21.0832 C   0  0  1  0  0  0  0  0  0  0  0  0
    8.3914  -17.4441   21.0843 C   0  0  0  0  0  0  0  0  0  0  0  0
    7.7548  -18.0767   19.8956 C   0  0  0  0  0  0  0  0  0  0  0  0
    8.7428  -18.9846   19.1738 C   0  0  0  0  0  0  0  0  0  0  0  0
    8.0648  -19.6813   18.0302 C   0  0  0  0  0  0  0  0  0  0  0  0
    8.8064  -19.4533   16.8100 N   0  0  0  0  0  0  0  0  0  0  0  0
    8.6880  -15.3233   22.3104 C   0  0  0  0  0  0  0  0  0  0  0  0
    9.9118  -15.0985   22.5331 O   0  0  0  0  0  0  0  0  0  0  0  0
    6.3680  -11.8443   26.7705 C   0  0  0  0  0  0  0  0  0  0  0  0
    7.5160  -12.6570   26.2115 C   0  0  0  0  0  0  0  0  0  0  0  0
    7.0381  -13.5360   25.0517 C   0  0  2  0  0  0  0  0  0  0  0  0
    5.9780  -14.4295   25.6343 C   0  0  0  0  0  0  0  0  0  0  0  0
    8.2665  -14.2706   24.5556 C   0  0  2  0  0  0  0  0  0  0  0  0
    7.7955  -14.9188   23.3125 N   0  0  0  0  0  0  0  0  0  0  0  0
    8.7430  -15.3001   25.4760 C   0  0  0  0  0  0  0  0  0  0  0  0
    8.1976  -16.4321   25.5648 O   0  0  0  0  0  0  0  0  0  0  0  0
   12.7382  -14.1569   29.4084 C   0  0  0  0  0  0  0  0  0  0  0  0
   11.4834  -14.6337   28.7531 C   0  0  0  0  0  0  0  0  0  0  0  0
   11.6847  -15.7225   27.7491 C   0  0  2  0  0  0  0  0  0  0  0  0
   12.6623  -15.2061   26.7039 C   0  0  0  0  0  0  0  0  0  0  0  0
   10.4151  -16.2153   27.1282 C   0  0  2  0  0  0  0  0  0  0  0  0
    9.8594  -15.1035   26.3422 N   0  0  0  0  0  0  0  0  0  0  0  0
    9.4331  -16.6949   28.1233 C   0  0  0  0  0  0  0  0  0  0  0  0
    8.3999  -16.0613   28.4046 O   0  0  0  0  0  0  0  0  0  0  0  0
    9.6442  -17.9058   28.7931 O   0  0  0  0  0  0  0  0  0  0  0  0
  2  1  1  6
  3  2  1  0
  4  3  1  0
  5  4  1  0
  6  5  1  0
  7  6  1  0
  8  2  1  0
  8  9  2  0
 10 11  1  0
 11 12  1  0
 12 13  1  1
 14 15  1  6
 14 12  1  0
 15  8  1  0
 16 14  1  0
 17 16  2  0
 19 18  1  0
 19 20  1  0
 20 21  1  6
 22 20  1  0
 22 23  1  1
 23 16  1  0
 24 26  1  0
 24 22  1  0
 25 24  2  0
M  END
$$$$
