KII.pdb
     RDKit          3D

 26 25  0  0  1  0  0  0  0  0999 V2000
    9.7425  -15.6927   19.6608 N   0  0  0  0  0  0  0  0  0  0  0  0
    9.4570  -16.5906   20.8033 C   0  0  1  0  0  0  0  0  0  0  0  0
   10.4107  -17.7387   20.7339 C   0  0  0  0  0  0  0  0  0  0  0  0
    9.7022  -19.0179   20.4514 C   0  0  0  0  0  0  0  0  0  0  0  0
   10.6890  -20.1764   20.3784 C   0  0  0  0  0  0  0  0  0  0  0  0
    9.9654  -21.4532   20.0638 C   0  0  0  0  0  0  0  0  0  0  0  0
   10.8940  -22.5612   20.0917 N   0  0  0  0  0  0  0  0  0  0  0  0
    9.6226  -15.7855   22.0198 C   0  0  0  0  0  0  0  0  0  0  0  0
   10.6378  -15.0659   22.2416 O   0  0  0  0  0  0  0  0  0  0  0  0
    6.0654  -12.8308   25.8591 C   0  0  0  0  0  0  0  0  0  0  0  0
    7.4334  -13.4074   25.5644 C   0  0  0  0  0  0  0  0  0  0  0  0
    7.3366  -14.5049   24.5004 C   0  0  2  0  0  0  0  0  0  0  0  0
    6.4660  -15.5732   25.1022 C   0  0  0  0  0  0  0  0  0  0  0  0
    8.7607  -14.9440   24.2278 C   0  0  2  0  0  0  0  0  0  0  0  0
    8.6326  -15.7760   23.0118 N   0  0  0  0  0  0  0  0  0  0  0  0
    9.3372  -15.7541   25.2981 C   0  0  0  0  0  0  0  0  0  0  0  0
    9.3932  -17.0111   25.2389 O   0  0  0  0  0  0  0  0  0  0  0  0
   10.1313  -13.1856   30.0071 C   0  0  0  0  0  0  0  0  0  0  0  0
   10.7116  -13.9249   28.8461 C   0  0  0  0  0  0  0  0  0  0  0  0
   10.3821  -15.3824   28.8133 C   0  0  2  0  0  0  0  0  0  0  0  0
   11.2085  -16.0628   29.8944 C   0  0  0  0  0  0  0  0  0  0  0  0
   10.5858  -16.0188   27.4740 C   0  0  2  0  0  0  0  0  0  0  0  0
    9.8799  -15.1858   26.4888 N   0  0  0  0  0  0  0  0  0  0  0  0
   10.1052  -17.4155   27.4184 C   0  0  0  0  0  0  0  0  0  0  0  0
   10.8670  -18.3917   27.5395 O   0  0  0  0  0  0  0  0  0  0  0  0
    8.7454  -17.6844   27.2231 O   0  0  0  0  0  0  0  0  0  0  0  0
  2  1  1  6
  3  2  1  0
  4  3  1  0
  5  4  1  0
  6  5  1  0
  7  6  1  0
  8  2  1  0
  8  9  2  0
 10 11  1  0
 11 12  1  0
 12 13  1  1
 14 15  1  6
 14 12  1  0
 15  8  1  0
 16 14  1  0
 17 16  2  0
 19 18  1  0
 19 20  1  0
 20 21  1  1
 22 20  1  0
 22 23  1  6
 23 16  1  0
 24 26  1  0
 24 22  1  0
 25 24  2  0
M  END
$$$$
