KII.pdb
     RDKit          3D

 26 25  0  0  1  0  0  0  0  0999 V2000
   11.5161  -17.6544   18.9564 N   0  0  0  0  0  0  0  0  0  0  0  0
   10.4536  -17.9463   19.9458 C   0  0  1  0  0  0  0  0  0  0  0  0
   10.7925  -19.2383   20.6153 C   0  0  0  0  0  0  0  0  0  0  0  0
   10.7577  -20.3748   19.6534 C   0  0  0  0  0  0  0  0  0  0  0  0
   10.4349  -21.6794   20.3712 C   0  0  0  0  0  0  0  0  0  0  0  0
    8.9793  -21.7232   20.7346 C   0  0  0  0  0  0  0  0  0  0  0  0
    8.6639  -22.9994   21.3370 N   0  0  0  0  0  0  0  0  0  0  0  0
   10.4264  -16.8120   20.8775 C   0  0  0  0  0  0  0  0  0  0  0  0
   11.4644  -16.1896   21.2420 O   0  0  0  0  0  0  0  0  0  0  0  0
    6.8373  -13.0235   20.2980 C   0  0  0  0  0  0  0  0  0  0  0  0
    8.0958  -13.7453   20.7295 C   0  0  0  0  0  0  0  0  0  0  0  0
    7.8443  -14.5451   22.0113 C   0  0  2  0  0  0  0  0  0  0  0  0
    7.3824  -13.5391   23.0293 C   0  0  0  0  0  0  0  0  0  0  0  0
    9.1625  -15.2109   22.3491 C   0  0  2  0  0  0  0  0  0  0  0  0
    9.2146  -16.3549   21.4132 N   0  0  0  0  0  0  0  0  0  0  0  0
    9.2282  -15.7152   23.7185 C   0  0  0  0  0  0  0  0  0  0  0  0
    8.5155  -16.6728   24.1210 O   0  0  0  0  0  0  0  0  0  0  0  0
    9.7838  -13.7139   29.3654 C   0  0  0  0  0  0  0  0  0  0  0  0
   10.1148  -14.8415   28.4433 C   0  0  0  0  0  0  0  0  0  0  0  0
   10.0545  -14.4918   26.9913 C   0  0  2  0  0  0  0  0  0  0  0  0
    8.7927  -13.6711   26.7704 C   0  0  0  0  0  0  0  0  0  0  0  0
   10.1136  -15.6778   26.0803 C   0  0  2  0  0  0  0  0  0  0  0  0
   10.1022  -15.1643   24.7024 N   0  0  0  0  0  0  0  0  0  0  0  0
    9.0010  -16.6271   26.2942 C   0  0  0  0  0  0  0  0  0  0  0  0
    7.8951  -16.4998   25.7386 O   0  0  0  0  0  0  0  0  0  0  0  0
    9.1658  -17.7230   27.1495 O   0  0  0  0  0  0  0  0  0  0  0  0
  2  1  1  6
  3  2  1  0
  4  3  1  0
  5  4  1  0
  6  5  1  0
  7  6  1  0
  8  2  1  0
  8  9  2  0
 10 11  1  0
 11 12  1  0
 12 13  1  1
 14 15  1  6
 14 12  1  0
 15  8  1  0
 16 14  1  0
 17 16  2  0
 19 18  1  0
 19 20  1  0
 20 21  1  1
 22 20  1  0
 22 23  1  6
 23 16  1  0
 24 26  1  0
 24 22  1  0
 25 24  2  0
M  END
$$$$
