KII.pdb
     RDKit          3D

 26 25  0  0  1  0  0  0  0  0999 V2000
    7.6167  -14.3942   20.1470 N   0  0  0  0  0  0  0  0  0  0  0  0
    7.0183  -15.0791   21.3157 C   0  0  1  0  0  0  0  0  0  0  0  0
    6.9465  -16.5388   21.0047 C   0  0  0  0  0  0  0  0  0  0  0  0
    6.9168  -16.7809   19.5355 C   0  0  0  0  0  0  0  0  0  0  0  0
    7.7038  -18.0361   19.1797 C   0  0  0  0  0  0  0  0  0  0  0  0
    7.6100  -18.3050   17.7060 C   0  0  0  0  0  0  0  0  0  0  0  0
    8.5142  -19.3742   17.3455 N   0  0  0  0  0  0  0  0  0  0  0  0
    7.8851  -14.7833   22.4631 C   0  0  0  0  0  0  0  0  0  0  0  0
    9.1426  -14.6898   22.3756 O   0  0  0  0  0  0  0  0  0  0  0  0
    5.8829  -11.4350   25.9336 C   0  0  0  0  0  0  0  0  0  0  0  0
    6.8839  -12.2265   25.1197 C   0  0  0  0  0  0  0  0  0  0  0  0
    7.2483  -13.5305   25.8357 C   0  0  2  0  0  0  0  0  0  0  0  0
    7.8688  -13.1134   27.1406 C   0  0  0  0  0  0  0  0  0  0  0  0
    8.1920  -14.2641   24.9050 C   0  0  2  0  0  0  0  0  0  0  0  0
    7.3400  -14.5810   23.7383 N   0  0  0  0  0  0  0  0  0  0  0  0
    8.7130  -15.5093   25.4638 C   0  0  0  0  0  0  0  0  0  0  0  0
    7.9623  -16.4067   25.9306 O   0  0  0  0  0  0  0  0  0  0  0  0
   13.0852  -17.7851   23.2748 C   0  0  0  0  0  0  0  0  0  0  0  0
   11.7870  -17.5189   23.9641 C   0  0  0  0  0  0  0  0  0  0  0  0
   11.8903  -17.3884   25.4495 C   0  0  2  0  0  0  0  0  0  0  0  0
   12.4882  -18.6821   25.9820 C   0  0  0  0  0  0  0  0  0  0  0  0
   10.5935  -17.0575   26.1195 C   0  0  2  0  0  0  0  0  0  0  0  0
   10.1076  -15.8041   25.5233 N   0  0  0  0  0  0  0  0  0  0  0  0
   10.7178  -16.9256   27.5864 C   0  0  0  0  0  0  0  0  0  0  0  0
   10.7225  -17.9082   28.3497 O   0  0  0  0  0  0  0  0  0  0  0  0
   10.8366  -15.6594   28.1714 O   0  0  0  0  0  0  0  0  0  0  0  0
  2  1  1  6
  3  2  1  0
  4  3  1  0
  5  4  1  0
  6  5  1  0
  7  6  1  0
  8  2  1  0
  8  9  2  0
 10 11  1  0
 11 12  1  0
 12 13  1  1
 14 15  1  6
 14 12  1  0
 15  8  1  0
 16 14  1  0
 17 16  2  0
 19 18  1  0
 19 20  1  0
 20 21  1  1
 22 20  1  0
 22 23  1  6
 23 16  1  0
 24 26  1  0
 24 22  1  0
 25 24  2  0
M  END
$$$$
