KII.pdb
     RDKit          3D

 26 25  0  0  1  0  0  0  0  0999 V2000
    7.9658  -14.9213   20.4346 N   0  0  0  0  0  0  0  0  0  0  0  0
    7.3590  -15.5849   21.6112 C   0  0  1  0  0  0  0  0  0  0  0  0
    7.4460  -17.0615   21.4006 C   0  0  0  0  0  0  0  0  0  0  0  0
    6.5664  -17.5042   20.2833 C   0  0  0  0  0  0  0  0  0  0  0  0
    6.5390  -19.0247   20.1883 C   0  0  0  0  0  0  0  0  0  0  0  0
    5.5426  -19.4603   19.1538 C   0  0  0  0  0  0  0  0  0  0  0  0
    5.4665  -20.9040   19.1257 N   0  0  0  0  0  0  0  0  0  0  0  0
    8.1165  -15.1313   22.7843 C   0  0  0  0  0  0  0  0  0  0  0  0
    9.3747  -15.0109   22.7925 O   0  0  0  0  0  0  0  0  0  0  0  0
    6.0675  -11.3597   25.8225 C   0  0  0  0  0  0  0  0  0  0  0  0
    7.0470  -12.2954   25.1474 C   0  0  0  0  0  0  0  0  0  0  0  0
    7.2177  -13.5780   25.9670 C   0  0  2  0  0  0  0  0  0  0  0  0
    7.7075  -13.1310   27.3167 C   0  0  0  0  0  0  0  0  0  0  0  0
    8.2055  -14.4319   25.1987 C   0  0  2  0  0  0  0  0  0  0  0  0
    7.4584  -14.7984   23.9761 N   0  0  0  0  0  0  0  0  0  0  0  0
    8.5929  -15.6525   25.9015 C   0  0  0  0  0  0  0  0  0  0  0  0
    7.7494  -16.4966   26.3051 O   0  0  0  0  0  0  0  0  0  0  0  0
   14.0228  -17.5194   25.9081 C   0  0  0  0  0  0  0  0  0  0  0  0
   12.7621  -16.9485   26.4702 C   0  0  0  0  0  0  0  0  0  0  0  0
   11.5390  -17.7639   26.2000 C   0  0  2  0  0  0  0  0  0  0  0  0
   11.3760  -17.8578   24.6903 C   0  0  0  0  0  0  0  0  0  0  0  0
   10.3033  -17.2388   26.8615 C   0  0  2  0  0  0  0  0  0  0  0  0
    9.9521  -15.9819   26.1835 N   0  0  0  0  0  0  0  0  0  0  0  0
   10.4731  -17.0205   28.3135 C   0  0  0  0  0  0  0  0  0  0  0  0
   10.4489  -15.8880   28.8283 O   0  0  0  0  0  0  0  0  0  0  0  0
   10.6706  -18.1097   29.1703 O   0  0  0  0  0  0  0  0  0  0  0  0
  2  1  1  6
  3  2  1  0
  4  3  1  0
  5  4  1  0
  6  5  1  0
  7  6  1  0
  8  2  1  0
  8  9  2  0
 10 11  1  0
 11 12  1  0
 12 13  1  1
 14 15  1  6
 14 12  1  0
 15  8  1  0
 16 14  1  0
 17 16  2  0
 19 18  1  0
 19 20  1  0
 20 21  1  6
 22 20  1  0
 22 23  1  6
 23 16  1  0
 24 26  1  0
 24 22  1  0
 25 24  2  0
M  END
$$$$
