KII.pdb
     RDKit          3D

 26 25  0  0  1  0  0  0  0  0999 V2000
    7.9396  -19.0056   19.5756 N   0  0  0  0  0  0  0  0  0  0  0  0
    7.6893  -18.4755   20.9355 C   0  0  1  0  0  0  0  0  0  0  0  0
    8.1087  -19.5192   21.9190 C   0  0  0  0  0  0  0  0  0  0  0  0
    7.4397  -20.8219   21.6479 C   0  0  0  0  0  0  0  0  0  0  0  0
    7.8708  -21.8716   22.6647 C   0  0  0  0  0  0  0  0  0  0  0  0
    7.1059  -23.1449   22.4495 C   0  0  0  0  0  0  0  0  0  0  0  0
    7.5804  -24.1607   23.3626 N   0  0  0  0  0  0  0  0  0  0  0  0
    8.4694  -17.2371   21.0520 C   0  0  0  0  0  0  0  0  0  0  0  0
    9.6813  -17.1463   20.7045 O   0  0  0  0  0  0  0  0  0  0  0  0
    6.6994  -12.8505   19.1779 C   0  0  0  0  0  0  0  0  0  0  0  0
    7.6840  -13.8451   19.7543 C   0  0  0  0  0  0  0  0  0  0  0  0
    7.7175  -13.7448   21.2824 C   0  0  2  0  0  0  0  0  0  0  0  0
    8.1805  -12.3460   21.5838 C   0  0  0  0  0  0  0  0  0  0  0  0
    8.6687  -14.8282   21.7476 C   0  0  2  0  0  0  0  0  0  0  0  0
    7.8861  -16.0695   21.5624 N   0  0  0  0  0  0  0  0  0  0  0  0
    9.0452  -14.7105   23.1542 C   0  0  0  0  0  0  0  0  0  0  0  0
   10.1162  -14.1594   23.5232 O   0  0  0  0  0  0  0  0  0  0  0  0
    6.0937  -12.1557   26.1801 C   0  0  0  0  0  0  0  0  0  0  0  0
    7.2174  -12.9324   25.5758 C   0  0  0  0  0  0  0  0  0  0  0  0
    7.5211  -14.2218   26.2682 C   0  0  2  0  0  0  0  0  0  0  0  0
    7.8405  -13.8975   27.7199 C   0  0  0  0  0  0  0  0  0  0  0  0
    8.6145  -15.0131   25.6212 C   0  0  2  0  0  0  0  0  0  0  0  0
    8.2314  -15.2084   24.2149 N   0  0  0  0  0  0  0  0  0  0  0  0
    8.8571  -16.3124   26.2828 C   0  0  0  0  0  0  0  0  0  0  0  0
    8.1606  -17.3189   26.0590 O   0  0  0  0  0  0  0  0  0  0  0  0
    9.9036  -16.4491   27.2023 O   0  0  0  0  0  0  0  0  0  0  0  0
  2  1  1  6
  3  2  1  0
  4  3  1  0
  5  4  1  0
  6  5  1  0
  7  6  1  0
  8  2  1  0
  8  9  2  0
 10 11  1  0
 11 12  1  0
 12 13  1  6
 14 15  1  1
 14 12  1  0
 15  8  1  0
 16 14  1  0
 17 16  2  0
 19 18  1  0
 19 20  1  0
 20 21  1  1
 22 20  1  0
 22 23  1  6
 23 16  1  0
 24 26  1  0
 24 22  1  0
 25 24  2  0
M  END
$$$$
