KII.pdb
     RDKit          3D

 26 25  0  0  1  0  0  0  0  0999 V2000
    7.5707  -13.4322   20.2543 N   0  0  0  0  0  0  0  0  0  0  0  0
    7.2288  -14.5407   21.1750 C   0  0  1  0  0  0  0  0  0  0  0  0
    7.5660  -15.8256   20.4911 C   0  0  0  0  0  0  0  0  0  0  0  0
    6.5004  -16.8459   20.6947 C   0  0  0  0  0  0  0  0  0  0  0  0
    7.1096  -18.2066   21.0092 C   0  0  0  0  0  0  0  0  0  0  0  0
    6.0370  -19.2556   21.0543 C   0  0  0  0  0  0  0  0  0  0  0  0
    6.6183  -20.5351   21.3944 N   0  0  0  0  0  0  0  0  0  0  0  0
    8.0108  -14.3245   22.3986 C   0  0  0  0  0  0  0  0  0  0  0  0
    9.2607  -14.1365   22.3980 O   0  0  0  0  0  0  0  0  0  0  0  0
    6.2988  -11.1787   26.1989 C   0  0  0  0  0  0  0  0  0  0  0  0
    7.1829  -12.0334   25.3164 C   0  0  0  0  0  0  0  0  0  0  0  0
    7.2362  -13.4717   25.8405 C   0  0  2  0  0  0  0  0  0  0  0  0
    7.7354  -13.3664   27.2551 C   0  0  0  0  0  0  0  0  0  0  0  0
    8.1667  -14.2183   24.9068 C   0  0  2  0  0  0  0  0  0  0  0  0
    7.3869  -14.3118   23.6536 N   0  0  0  0  0  0  0  0  0  0  0  0
    8.4940  -15.5668   25.3634 C   0  0  0  0  0  0  0  0  0  0  0  0
    7.6106  -16.3989   25.7010 O   0  0  0  0  0  0  0  0  0  0  0  0
   12.6452  -18.1142   23.0997 C   0  0  0  0  0  0  0  0  0  0  0  0
   11.3493  -17.7934   23.7696 C   0  0  0  0  0  0  0  0  0  0  0  0
   11.3971  -17.8366   25.2629 C   0  0  2  0  0  0  0  0  0  0  0  0
   11.7988  -19.2473   25.6672 C   0  0  0  0  0  0  0  0  0  0  0  0
   10.1225  -17.4106   25.9217 C   0  0  2  0  0  0  0  0  0  0  0  0
    9.8350  -16.0438   25.4614 N   0  0  0  0  0  0  0  0  0  0  0  0
   10.1890  -17.4626   27.3974 C   0  0  0  0  0  0  0  0  0  0  0  0
   10.0441  -18.5193   28.0380 O   0  0  0  0  0  0  0  0  0  0  0  0
   10.4226  -16.2946   28.1328 O   0  0  0  0  0  0  0  0  0  0  0  0
  2  1  1  6
  3  2  1  0
  4  3  1  0
  5  4  1  0
  6  5  1  0
  7  6  1  0
  8  2  1  0
  8  9  2  0
 10 11  1  0
 11 12  1  0
 12 13  1  1
 14 15  1  6
 14 12  1  0
 15  8  1  0
 16 14  1  0
 17 16  2  0
 19 18  1  0
 19 20  1  0
 20 21  1  6
 22 20  1  0
 22 23  1  1
 23 16  1  0
 24 26  1  0
 24 22  1  0
 25 24  2  0
M  END
$$$$
