KII.pdb
     RDKit          3D

 26 25  0  0  1  0  0  0  0  0999 V2000
    6.1851  -16.8242   20.8180 N   0  0  0  0  0  0  0  0  0  0  0  0
    6.5762  -17.1241   22.2145 C   0  0  1  0  0  0  0  0  0  0  0  0
    7.2742  -18.4452   22.2217 C   0  0  0  0  0  0  0  0  0  0  0  0
    6.4205  -19.5145   21.6334 C   0  0  0  0  0  0  0  0  0  0  0  0
    7.1072  -20.8707   21.7363 C   0  0  0  0  0  0  0  0  0  0  0  0
    6.2724  -21.9250   21.0698 C   0  0  0  0  0  0  0  0  0  0  0  0
    6.8632  -23.2266   21.2877 N   0  0  0  0  0  0  0  0  0  0  0  0
    7.4403  -16.0212   22.6531 C   0  0  0  0  0  0  0  0  0  0  0  0
    8.4240  -15.6015   21.9793 O   0  0  0  0  0  0  0  0  0  0  0  0
    5.1265  -12.2955   25.5384 C   0  0  0  0  0  0  0  0  0  0  0  0
    6.0698  -13.0336   24.6130 C   0  0  0  0  0  0  0  0  0  0  0  0
    7.2692  -13.5810   25.3927 C   0  0  2  0  0  0  0  0  0  0  0  0
    7.9398  -12.3779   25.9965 C   0  0  0  0  0  0  0  0  0  0  0  0
    8.1176  -14.3227   24.3802 C   0  0  2  0  0  0  0  0  0  0  0  0
    7.2016  -15.3649   23.8683 N   0  0  0  0  0  0  0  0  0  0  0  0
    9.2917  -14.9679   24.9626 C   0  0  0  0  0  0  0  0  0  0  0  0
   10.4463  -14.8357   24.4765 O   0  0  0  0  0  0  0  0  0  0  0  0
    9.7357  -13.7441   29.8567 C   0  0  0  0  0  0  0  0  0  0  0  0
   10.1009  -14.1930   28.4797 C   0  0  0  0  0  0  0  0  0  0  0  0
   10.1696  -15.6764   28.3100 C   0  0  2  0  0  0  0  0  0  0  0  0
   11.2307  -16.1979   29.2676 C   0  0  0  0  0  0  0  0  0  0  0  0
   10.4278  -16.1132   26.9019 C   0  0  2  0  0  0  0  0  0  0  0  0
    9.2216  -15.7943   26.1234 N   0  0  0  0  0  0  0  0  0  0  0  0
   10.7560  -17.5502   26.7933 C   0  0  0  0  0  0  0  0  0  0  0  0
   11.9237  -17.9767   26.8439 O   0  0  0  0  0  0  0  0  0  0  0  0
    9.7359  -18.4942   26.6262 O   0  0  0  0  0  0  0  0  0  0  0  0
  2  1  1  6
  3  2  1  0
  4  3  1  0
  5  4  1  0
  6  5  1  0
  7  6  1  0
  8  2  1  0
  8  9  2  0
 10 11  1  0
 11 12  1  0
 12 13  1  6
 14 15  1  1
 14 12  1  0
 15  8  1  0
 16 14  1  0
 17 16  2  0
 19 18  1  0
 19 20  1  0
 20 21  1  1
 22 20  1  0
 22 23  1  6
 23 16  1  0
 24 26  1  0
 24 22  1  0
 25 24  2  0
M  END
$$$$
