LME.pdb
     RDKit          3D

 26 25  0  0  1  0  0  0  0  0999 V2000
   28.8610  -20.4670  -17.1839 C   0  0  0  0  0  0  0  0  0  0  0  0
   27.4205  -20.6243  -17.5385 C   0  0  2  0  0  0  0  0  0  0  0  0
   26.9340  -19.2889  -18.1191 C   0  0  0  0  0  0  0  0  0  0  0  0
   26.4991  -20.9636  -16.4259 C   0  0  0  0  0  0  0  0  0  0  0  0
   26.9499  -22.0154  -15.4707 C   0  0  2  0  0  0  0  0  0  0  0  0
   26.8763  -23.3084  -16.1075 N   0  0  0  0  0  0  0  0  0  0  0  0
   26.1533  -21.9465  -14.2118 C   0  0  0  0  0  0  0  0  0  0  0  0
   24.9789  -22.4425  -14.1598 O   0  0  0  0  0  0  0  0  0  0  0  0
   26.2307  -19.7192   -6.5518 C   0  0  0  0  0  0  0  0  0  0  0  0
   27.0630  -19.8449   -8.1667 S   0  0  0  0  0  0  0  0  0  0  0  0
   25.9188  -20.4872   -9.4170 C   0  0  0  0  0  0  0  0  0  0  0  0
   26.6520  -20.7015  -10.7081 C   0  0  0  0  0  0  0  0  0  0  0  0
   25.7851  -21.2303  -11.8194 C   0  0  2  0  0  0  0  0  0  0  0  0
   26.5985  -21.3497  -13.0044 N   0  0  0  0  0  0  0  0  0  0  0  0
   24.6091  -20.3518  -12.0031 C   0  0  0  0  0  0  0  0  0  0  0  0
   24.7884  -19.2769  -12.6184 O   0  0  0  0  0  0  0  0  0  0  0  0
   23.3076  -20.6520  -11.5270 N   0  0  0  0  0  0  0  0  0  0  0  0
   22.1034  -20.0653  -12.1383 C   0  0  1  0  0  0  0  0  0  0  0  0
   22.2058  -20.1806  -13.6202 C   0  0  0  0  0  0  0  0  0  0  0  0
   21.0963  -19.6639  -14.4459 C   0  0  0  0  0  0  0  0  0  0  0  0
   20.3683  -20.6768  -15.2462 C   0  0  0  0  0  0  0  0  0  0  0  0
   19.3583  -20.3307  -15.9571 O   0  0  0  0  0  0  0  0  0  0  0  0
   20.8755  -20.3963  -11.4685 C   0  0  0  0  0  0  0  0  0  0  0  0
   19.6545  -19.7384  -11.6344 O   0  0  0  0  0  0  0  0  0  0  0  0
   20.7028  -22.0182  -15.2894 O   0  0  0  0  0  0  0  0  0  0  0  0
   20.8736  -21.3673  -10.6374 O   0  0  0  0  0  0  0  0  0  0  0  0
  2  4  1  0
  2  1  1  1
  3  2  1  0
  5  6  1  6
  5  4  1  0
  7  5  1  0
  8  7  2  0
 10  9  1  0
 10 11  1  0
 11 12  1  0
 13 12  1  1
 13 14  1  0
 14  7  1  0
 15 16  2  0
 15 13  1  0
 17 15  1  0
 18 19  1  6
 18 17  1  0
 19 20  1  0
 20 21  1  0
 21 22  2  0
 23 18  1  0
 24 23  1  0
 25 21  1  0
 26 23  2  0
M  END
$$$$
