LME.pdb
     RDKit          3D

 26 25  0  0  1  0  0  0  0  0999 V2000
   27.4780  -18.5254  -18.9471 C   0  0  0  0  0  0  0  0  0  0  0  0
   28.0095  -19.6033  -18.0634 C   0  0  2  0  0  0  0  0  0  0  0  0
   28.5604  -20.7171  -18.9651 C   0  0  0  0  0  0  0  0  0  0  0  0
   27.0366  -20.2444  -17.1443 C   0  0  0  0  0  0  0  0  0  0  0  0
   26.3518  -19.3595  -16.1594 C   0  0  2  0  0  0  0  0  0  0  0  0
   27.2728  -18.3492  -15.6970 N   0  0  0  0  0  0  0  0  0  0  0  0
   25.7791  -20.1704  -15.0465 C   0  0  0  0  0  0  0  0  0  0  0  0
   25.0790  -21.2079  -15.2939 O   0  0  0  0  0  0  0  0  0  0  0  0
   25.6738  -21.5267   -7.2205 C   0  0  0  0  0  0  0  0  0  0  0  0
   26.2084  -20.4956   -8.6232 S   0  0  0  0  0  0  0  0  0  0  0  0
   25.3362  -20.9862  -10.1344 C   0  0  0  0  0  0  0  0  0  0  0  0
   25.9335  -20.2769  -11.3136 C   0  0  0  0  0  0  0  0  0  0  0  0
   25.2286  -20.5580  -12.6137 C   0  0  2  0  0  0  0  0  0  0  0  0
   25.9452  -19.8827  -13.6674 N   0  0  0  0  0  0  0  0  0  0  0  0
   23.8098  -20.1503  -12.5164 C   0  0  0  0  0  0  0  0  0  0  0  0
   23.5386  -18.9563  -12.7752 O   0  0  0  0  0  0  0  0  0  0  0  0
   22.7532  -21.0220  -12.1500 N   0  0  0  0  0  0  0  0  0  0  0  0
   21.3739  -20.8094  -12.6194 C   0  0  1  0  0  0  0  0  0  0  0  0
   21.4031  -20.4492  -14.0648 C   0  0  0  0  0  0  0  0  0  0  0  0
   20.1200  -20.2594  -14.7701 C   0  0  0  0  0  0  0  0  0  0  0  0
   20.2235  -19.9584  -16.2175 C   0  0  0  0  0  0  0  0  0  0  0  0
   20.9244  -20.7121  -16.9830 O   0  0  0  0  0  0  0  0  0  0  0  0
   20.4249  -21.7721  -12.1311 C   0  0  0  0  0  0  0  0  0  0  0  0
   20.4569  -23.1461  -12.3812 O   0  0  0  0  0  0  0  0  0  0  0  0
   19.6014  -18.8876  -16.8337 O   0  0  0  0  0  0  0  0  0  0  0  0
   19.4526  -21.3625  -11.4097 O   0  0  0  0  0  0  0  0  0  0  0  0
  2  4  1  0
  2  1  1  6
  3  2  1  0
  5  6  1  1
  5  4  1  0
  7  5  1  0
  8  7  2  0
 10  9  1  0
 10 11  1  0
 11 12  1  0
 13 12  1  1
 13 14  1  0
 14  7  1  0
 15 16  2  0
 15 13  1  0
 17 15  1  0
 18 19  1  6
 18 17  1  0
 19 20  1  0
 20 21  1  0
 21 22  2  0
 23 18  1  0
 24 23  1  0
 25 21  1  0
 26 23  2  0
M  END
$$$$
