LME.pdb
     RDKit          3D

 26 25  0  0  1  0  0  0  0  0999 V2000
   27.8008  -19.0362   -4.0127 C   0  0  0  0  0  0  0  0  0  0  0  0
   28.1469  -19.8089   -5.2409 C   0  0  2  0  0  0  0  0  0  0  0  0
   29.5805  -19.4321   -5.6410 C   0  0  0  0  0  0  0  0  0  0  0  0
   27.2972  -19.5697   -6.4338 C   0  0  0  0  0  0  0  0  0  0  0  0
   27.0905  -20.7200   -7.3589 C   0  0  2  0  0  0  0  0  0  0  0  0
   28.2887  -21.5231   -7.4050 N   0  0  0  0  0  0  0  0  0  0  0  0
   26.6710  -20.2325   -8.7045 C   0  0  0  0  0  0  0  0  0  0  0  0
   26.4003  -18.9999   -8.8920 O   0  0  0  0  0  0  0  0  0  0  0  0
   29.9969  -22.6249  -11.5967 C   0  0  0  0  0  0  0  0  0  0  0  0
   30.2533  -20.8403  -11.3399 S   0  0  0  0  0  0  0  0  0  0  0  0
   28.7508  -19.9202  -11.7651 C   0  0  0  0  0  0  0  0  0  0  0  0
   27.6160  -20.8784  -11.9762 C   0  0  0  0  0  0  0  0  0  0  0  0
   26.3769  -20.5360  -11.1931 C   0  0  2  0  0  0  0  0  0  0  0  0
   26.5354  -21.0507   -9.8552 N   0  0  0  0  0  0  0  0  0  0  0  0
   25.1809  -21.0643  -11.8854 C   0  0  0  0  0  0  0  0  0  0  0  0
   24.4974  -21.9174  -11.2762 O   0  0  0  0  0  0  0  0  0  0  0  0
   24.7703  -20.6666  -13.1830 N   0  0  0  0  0  0  0  0  0  0  0  0
   23.4009  -20.9029  -13.6698 C   0  0  1  0  0  0  0  0  0  0  0  0
   22.4391  -20.6303  -12.5650 C   0  0  0  0  0  0  0  0  0  0  0  0
   20.9953  -20.7819  -12.8338 C   0  0  0  0  0  0  0  0  0  0  0  0
   20.0944  -20.4248  -11.7125 C   0  0  0  0  0  0  0  0  0  0  0  0
   19.5972  -21.3439  -10.9687 O   0  0  0  0  0  0  0  0  0  0  0  0
   23.1460  -20.4026  -14.9929 C   0  0  0  0  0  0  0  0  0  0  0  0
   22.2878  -20.9813  -15.9309 O   0  0  0  0  0  0  0  0  0  0  0  0
   19.7316  -19.1293  -11.3911 O   0  0  0  0  0  0  0  0  0  0  0  0
   23.7495  -19.3423  -15.3738 O   0  0  0  0  0  0  0  0  0  0  0  0
  2  4  1  0
  2  1  1  1
  3  2  1  0
  5  6  1  6
  5  4  1  0
  7  5  1  0
  8  7  2  0
 10  9  1  0
 10 11  1  0
 11 12  1  0
 13 12  1  6
 13 14  1  0
 14  7  1  0
 15 16  2  0
 15 13  1  0
 17 15  1  0
 18 19  1  1
 18 17  1  0
 19 20  1  0
 20 21  1  0
 21 22  2  0
 23 18  1  0
 24 23  1  0
 25 21  1  0
 26 23  2  0
M  END
$$$$
