LME.pdb
     RDKit          3D

 26 25  0  0  1  0  0  0  0  0999 V2000
   28.2097  -20.5458  -19.2208 C   0  0  0  0  0  0  0  0  0  0  0  0
   28.8466  -21.2563  -18.0741 C   0  0  2  0  0  0  0  0  0  0  0  0
   29.5076  -22.5289  -18.6224 C   0  0  0  0  0  0  0  0  0  0  0  0
   27.9428  -21.6864  -16.9785 C   0  0  0  0  0  0  0  0  0  0  0  0
   27.1274  -20.6273  -16.3189 C   0  0  2  0  0  0  0  0  0  0  0  0
   27.9773  -19.5172  -15.9611 N   0  0  0  0  0  0  0  0  0  0  0  0
   26.3941  -21.1923  -15.1496 C   0  0  0  0  0  0  0  0  0  0  0  0
   25.7607  -22.2951  -15.2528 O   0  0  0  0  0  0  0  0  0  0  0  0
   25.2748  -20.9821   -7.2954 C   0  0  0  0  0  0  0  0  0  0  0  0
   26.1910  -20.4686   -8.7831 S   0  0  0  0  0  0  0  0  0  0  0  0
   25.3659  -21.0838  -10.2750 C   0  0  0  0  0  0  0  0  0  0  0  0
   26.1276  -20.6431  -11.4900 C   0  0  0  0  0  0  0  0  0  0  0  0
   25.5060  -21.0802  -12.7894 C   0  0  2  0  0  0  0  0  0  0  0  0
   26.3283  -20.5889  -13.8675 N   0  0  0  0  0  0  0  0  0  0  0  0
   24.1050  -20.6105  -12.8612 C   0  0  0  0  0  0  0  0  0  0  0  0
   23.9050  -19.3832  -12.7205 O   0  0  0  0  0  0  0  0  0  0  0  0
   22.9896  -21.4593  -13.0758 N   0  0  0  0  0  0  0  0  0  0  0  0
   21.6259  -20.9251  -13.2276 C   0  0  1  0  0  0  0  0  0  0  0  0
   21.0370  -21.4496  -14.4918 C   0  0  0  0  0  0  0  0  0  0  0  0
   21.8615  -21.4264  -15.7163 C   0  0  0  0  0  0  0  0  0  0  0  0
   21.7723  -22.6338  -16.5711 C   0  0  0  0  0  0  0  0  0  0  0  0
   21.0535  -23.6307  -16.2038 O   0  0  0  0  0  0  0  0  0  0  0  0
   20.8525  -20.9171  -12.0162 C   0  0  0  0  0  0  0  0  0  0  0  0
   21.2510  -21.4594  -10.7921 O   0  0  0  0  0  0  0  0  0  0  0  0
   22.4280  -22.7785  -17.7804 O   0  0  0  0  0  0  0  0  0  0  0  0
   19.6924  -20.3810  -12.0336 O   0  0  0  0  0  0  0  0  0  0  0  0
  2  4  1  0
  2  1  1  6
  3  2  1  0
  5  6  1  1
  5  4  1  0
  7  5  1  0
  8  7  2  0
 10  9  1  0
 10 11  1  0
 11 12  1  0
 13 12  1  1
 13 14  1  0
 14  7  1  0
 15 16  2  0
 15 13  1  0
 17 15  1  0
 18 19  1  6
 18 17  1  0
 19 20  1  0
 20 21  1  0
 21 22  2  0
 23 18  1  0
 24 23  1  0
 25 21  1  0
 26 23  2  0
M  END
$$$$
