LME.pdb
     RDKit          3D

 26 25  0  0  1  0  0  0  0  0999 V2000
   24.8664  -22.0350   -8.1960 C   0  0  0  0  0  0  0  0  0  0  0  0
   25.6217  -20.7626   -8.3856 C   0  0  2  0  0  0  0  0  0  0  0  0
   24.9436  -19.6848   -7.5278 C   0  0  0  0  0  0  0  0  0  0  0  0
   25.6805  -20.2285   -9.7688 C   0  0  0  0  0  0  0  0  0  0  0  0
   26.2296  -21.1313  -10.8201 C   0  0  2  0  0  0  0  0  0  0  0  0
   27.6712  -21.1289  -10.7527 N   0  0  0  0  0  0  0  0  0  0  0  0
   25.7145  -20.7354  -12.1625 C   0  0  0  0  0  0  0  0  0  0  0  0
   25.5208  -19.5066  -12.4459 O   0  0  0  0  0  0  0  0  0  0  0  0
   27.8267  -23.5136  -17.2045 C   0  0  0  0  0  0  0  0  0  0  0  0
   26.3668  -22.8343  -18.0551 S   0  0  0  0  0  0  0  0  0  0  0  0
   25.4617  -21.7132  -16.9556 C   0  0  0  0  0  0  0  0  0  0  0  0
   25.6759  -22.1249  -15.5291 C   0  0  0  0  0  0  0  0  0  0  0  0
   24.9905  -21.2329  -14.5289 C   0  0  2  0  0  0  0  0  0  0  0  0
   25.4014  -21.6413  -13.2082 N   0  0  0  0  0  0  0  0  0  0  0  0
   23.5254  -21.2847  -14.7280 C   0  0  0  0  0  0  0  0  0  0  0  0
   22.8522  -21.8945  -13.8672 O   0  0  0  0  0  0  0  0  0  0  0  0
   22.8485  -20.6927  -15.8243 N   0  0  0  0  0  0  0  0  0  0  0  0
   21.4668  -20.1974  -15.7072 C   0  0  1  0  0  0  0  0  0  0  0  0
   21.3349  -19.4213  -14.4422 C   0  0  0  0  0  0  0  0  0  0  0  0
   20.2750  -19.8032  -13.4880 C   0  0  0  0  0  0  0  0  0  0  0  0
   19.4594  -18.6859  -12.9563 C   0  0  0  0  0  0  0  0  0  0  0  0
   18.6016  -18.9007  -12.0271 O   0  0  0  0  0  0  0  0  0  0  0  0
   20.9124  -19.6880  -16.9315 C   0  0  0  0  0  0  0  0  0  0  0  0
   19.6690  -20.0317  -17.4673 O   0  0  0  0  0  0  0  0  0  0  0  0
   19.5516  -17.3788  -13.3991 O   0  0  0  0  0  0  0  0  0  0  0  0
   21.5982  -18.8526  -17.6137 O   0  0  0  0  0  0  0  0  0  0  0  0
  2  4  1  0
  2  1  1  6
  3  2  1  0
  5  6  1  6
  5  4  1  0
  7  5  1  0
  8  7  2  0
 10  9  1  0
 10 11  1  0
 11 12  1  0
 13 12  1  6
 13 14  1  0
 14  7  1  0
 15 16  2  0
 15 13  1  0
 17 15  1  0
 18 19  1  1
 18 17  1  0
 19 20  1  0
 20 21  1  0
 21 22  2  0
 23 18  1  0
 24 23  1  0
 25 21  1  0
 26 23  2  0
M  END
$$$$
