LME.pdb
     RDKit          3D

 26 25  0  0  1  0  0  0  0  0999 V2000
   21.3103  -17.8119  -14.7418 C   0  0  0  0  0  0  0  0  0  0  0  0
   21.9347  -17.0826  -15.8836 C   0  0  2  0  0  0  0  0  0  0  0  0
   22.8930  -18.0527  -16.5891 C   0  0  0  0  0  0  0  0  0  0  0  0
   22.7281  -15.8758  -15.5426 C   0  0  0  0  0  0  0  0  0  0  0  0
   22.9021  -14.8552  -16.6149 C   0  0  2  0  0  0  0  0  0  0  0  0
   23.6818  -15.4157  -17.6922 N   0  0  0  0  0  0  0  0  0  0  0  0
   23.5048  -13.6122  -16.0529 C   0  0  0  0  0  0  0  0  0  0  0  0
   23.0347  -13.0873  -14.9892 O   0  0  0  0  0  0  0  0  0  0  0  0
   30.2304  -13.6561  -15.6513 C   0  0  0  0  0  0  0  0  0  0  0  0
   29.1514  -12.4115  -16.4281 S   0  0  0  0  0  0  0  0  0  0  0  0
   27.4521  -12.5845  -15.8222 C   0  0  0  0  0  0  0  0  0  0  0  0
   26.5722  -11.5722  -16.4942 C   0  0  0  0  0  0  0  0  0  0  0  0
   25.1213  -11.6742  -16.1062 C   0  0  2  0  0  0  0  0  0  0  0  0
   24.6068  -12.9206  -16.6180 N   0  0  0  0  0  0  0  0  0  0  0  0
   24.3833  -10.4903  -16.5987 C   0  0  0  0  0  0  0  0  0  0  0  0
   24.1166  -10.4499  -17.8207 O   0  0  0  0  0  0  0  0  0  0  0  0
   23.9675   -9.4117  -15.7775 N   0  0  0  0  0  0  0  0  0  0  0  0
   23.2496   -8.2498  -16.3275 C   0  0  1  0  0  0  0  0  0  0  0  0
   22.0086   -8.0258  -15.5339 C   0  0  0  0  0  0  0  0  0  0  0  0
   21.1247   -6.9044  -15.9091 C   0  0  0  0  0  0  0  0  0  0  0  0
   19.9351   -6.7106  -15.0467 C   0  0  0  0  0  0  0  0  0  0  0  0
   19.7465   -7.4701  -14.0304 O   0  0  0  0  0  0  0  0  0  0  0  0
   24.0943   -7.1418  -16.6804 C   0  0  0  0  0  0  0  0  0  0  0  0
   25.4285   -6.9813  -16.2991 O   0  0  0  0  0  0  0  0  0  0  0  0
   18.9735   -5.7391  -15.2581 O   0  0  0  0  0  0  0  0  0  0  0  0
   23.6062   -6.2036  -17.3981 O   0  0  0  0  0  0  0  0  0  0  0  0
  2  4  1  0
  2  1  1  1
  3  2  1  0
  5  6  1  6
  5  4  1  0
  7  5  1  0
  8  7  2  0
 10  9  1  0
 10 11  1  0
 11 12  1  0
 13 12  1  6
 13 14  1  0
 14  7  1  0
 15 16  2  0
 15 13  1  0
 17 15  1  0
 18 19  1  1
 18 17  1  0
 19 20  1  0
 20 21  1  0
 21 22  2  0
 23 18  1  0
 24 23  1  0
 25 21  1  0
 26 23  2  0
M  END
$$$$
