LME.pdb
     RDKit          3D

 26 25  0  0  1  0  0  0  0  0999 V2000
   20.3406  -23.6528  -17.9550 C   0  0  0  0  0  0  0  0  0  0  0  0
   20.3992  -25.1110  -17.6458 C   0  0  2  0  0  0  0  0  0  0  0  0
   19.2386  -25.7920  -18.3849 C   0  0  0  0  0  0  0  0  0  0  0  0
   20.2718  -25.4894  -16.2166 C   0  0  0  0  0  0  0  0  0  0  0  0
   21.2221  -24.8529  -15.2608 C   0  0  2  0  0  0  0  0  0  0  0  0
   22.3546  -25.7235  -15.0550 N   0  0  0  0  0  0  0  0  0  0  0  0
   20.5229  -24.5063  -13.9899 C   0  0  0  0  0  0  0  0  0  0  0  0
   20.2315  -25.4139  -13.1419 O   0  0  0  0  0  0  0  0  0  0  0  0
   21.8372  -19.6420  -10.2380 C   0  0  0  0  0  0  0  0  0  0  0  0
   20.0254  -19.5127  -10.1069 S   0  0  0  0  0  0  0  0  0  0  0  0
   19.2417  -21.0461  -10.6720 C   0  0  0  0  0  0  0  0  0  0  0  0
   19.9297  -21.5364  -11.9116 C   0  0  0  0  0  0  0  0  0  0  0  0
   19.4498  -22.8836  -12.3814 C   0  0  2  0  0  0  0  0  0  0  0  0
   20.1286  -23.1963  -13.6149 N   0  0  0  0  0  0  0  0  0  0  0  0
   17.9760  -22.8772  -12.5099 C   0  0  0  0  0  0  0  0  0  0  0  0
   17.4920  -22.3156  -13.5181 O   0  0  0  0  0  0  0  0  0  0  0  0
   17.0911  -23.4612  -11.5683 N   0  0  0  0  0  0  0  0  0  0  0  0
   15.6296  -23.4028  -11.7372 C   0  0  1  0  0  0  0  0  0  0  0  0
   14.9888  -24.2996  -10.7347 C   0  0  0  0  0  0  0  0  0  0  0  0
   13.5177  -24.4243  -10.7389 C   0  0  0  0  0  0  0  0  0  0  0  0
   12.9556  -25.4051   -9.7804 C   0  0  0  0  0  0  0  0  0  0  0  0
   13.7301  -26.0316   -8.9723 O   0  0  0  0  0  0  0  0  0  0  0  0
   15.1101  -22.0823  -11.9655 C   0  0  0  0  0  0  0  0  0  0  0  0
   14.2786  -21.7059  -13.0230 O   0  0  0  0  0  0  0  0  0  0  0  0
   11.6104  -25.7121   -9.6837 O   0  0  0  0  0  0  0  0  0  0  0  0
   15.4266  -21.1501  -11.1504 O   0  0  0  0  0  0  0  0  0  0  0  0
  2  4  1  0
  2  1  1  1
  3  2  1  0
  5  6  1  1
  5  4  1  0
  7  5  1  0
  8  7  2  0
 10  9  1  0
 10 11  1  0
 11 12  1  0
 13 12  1  6
 13 14  1  0
 14  7  1  0
 15 16  2  0
 15 13  1  0
 17 15  1  0
 18 19  1  1
 18 17  1  0
 19 20  1  0
 20 21  1  0
 21 22  2  0
 23 18  1  0
 24 23  1  0
 25 21  1  0
 26 23  2  0
M  END
$$$$
