MPY.pdb
     RDKit          3D

 28 29  0  0  1  0  0  0  0  0999 V2000
   27.1385  -14.8034  -15.5218 C   0  0  0  0  0  0  0  0  0  0  0  0
   25.3369  -14.8942  -15.6248 S   0  0  0  0  0  0  0  0  0  0  0  0
   24.8125  -16.5809  -16.0716 C   0  0  0  0  0  0  0  0  0  0  0  0
   25.8167  -17.1275  -17.0547 C   0  0  0  0  0  0  0  0  0  0  0  0
   25.5934  -18.5841  -17.4089 C   0  0  2  0  0  0  0  0  0  0  0  0
   24.3743  -18.6511  -18.1729 N   0  0  0  0  0  0  0  0  0  0  0  0
   25.5929  -19.4920  -16.2628 C   0  0  0  0  0  0  0  0  0  0  0  0
   24.4629  -19.7985  -15.7770 O   0  0  0  0  0  0  0  0  0  0  0  0
   26.7531  -20.0200  -15.6987 N   0  0  0  0  0  0  0  0  0  0  0  0
   28.0889  -19.7089  -16.2371 C   0  0  0  0  0  0  0  0  0  0  0  0
   29.0952  -20.3758  -15.3764 C   0  0  0  0  0  0  0  0  0  0  0  0
   28.3399  -21.4524  -14.6800 C   0  0  0  0  0  0  0  0  0  0  0  0
   26.9308  -20.8867  -14.5958 C   0  0  1  0  0  0  0  0  0  0  0  0
   26.7056  -20.2250  -13.2766 C   0  0  0  0  0  0  0  0  0  0  0  0
   26.8436  -18.9801  -13.1963 O   0  0  0  0  0  0  0  0  0  0  0  0
   19.9449  -21.8695  -12.7245 O   0  0  0  0  0  0  0  0  0  0  0  0
   21.1203  -21.2889  -12.3086 C   0  0  0  0  0  0  0  0  0  0  0  0
   22.0900  -20.8378  -13.2006 C   0  0  0  0  0  0  0  0  0  0  0  0
   23.2566  -20.2608  -12.7549 C   0  0  0  0  0  0  0  0  0  0  0  0
   23.5210  -20.1015  -11.3936 C   0  0  0  0  0  0  0  0  0  0  0  0
   24.7365  -19.4864  -10.8864 C   0  0  0  0  0  0  0  0  0  0  0  0
   25.9632  -20.3614  -10.8627 C   0  0  2  0  0  0  0  0  0  0  0  0
   26.3434  -20.9301  -12.1074 N   0  0  0  0  0  0  0  0  0  0  0  0
   25.8023  -21.3220   -9.7483 C   0  0  0  0  0  0  0  0  0  0  0  0
   25.9298  -22.5447   -9.9080 O   0  0  0  0  0  0  0  0  0  0  0  0
   22.5651  -20.5459  -10.5177 C   0  0  0  0  0  0  0  0  0  0  0  0
   21.3793  -21.1325  -10.9689 C   0  0  0  0  0  0  0  0  0  0  0  0
   25.5007  -20.8378   -8.4948 O   0  0  0  0  0  0  0  0  0  0  0  0
  2  1  1  0
  3  2  1  0
  4  3  1  0
  4  5  1  0
  5  6  1  1
  7  5  1  0
  7  8  2  0
  9  7  1  0
 10  9  1  0
 11 12  1  0
 11 10  1  0
 12 13  1  0
 13  9  1  0
 13 14  1  1
 14 23  1  0
 15 14  2  0
 17 16  1  0
 17 18  2  0
 18 19  1  0
 20 19  2  0
 21 20  1  0
 22 21  1  6
 22 23  1  0
 22 24  1  0
 24 25  2  0
 24 28  1  0
 26 27  2  0
 26 20  1  0
 27 17  1  0
M  END
$$$$
