MPY.pdb
     RDKit          3D

 28 29  0  0  1  0  0  0  0  0999 V2000
   15.7442   -9.3381  -22.6802 C   0  0  0  0  0  0  0  0  0  0  0  0
   16.8846   -8.7662  -21.4006 S   0  0  0  0  0  0  0  0  0  0  0  0
   18.5520   -8.5331  -22.0968 C   0  0  0  0  0  0  0  0  0  0  0  0
   19.4517   -8.0610  -20.9827 C   0  0  0  0  0  0  0  0  0  0  0  0
   20.9136   -7.9758  -21.3733 C   0  0  2  0  0  0  0  0  0  0  0  0
   21.3431   -9.3119  -21.6966 N   0  0  0  0  0  0  0  0  0  0  0  0
   21.7692   -7.3325  -20.3774 C   0  0  0  0  0  0  0  0  0  0  0  0
   22.4625   -8.0963  -19.6406 O   0  0  0  0  0  0  0  0  0  0  0  0
   21.8514   -5.9510  -20.2104 N   0  0  0  0  0  0  0  0  0  0  0  0
   21.2465   -5.0154  -21.1746 C   0  0  0  0  0  0  0  0  0  0  0  0
   21.4623   -3.6375  -20.6714 C   0  0  0  0  0  0  0  0  0  0  0  0
   22.6004   -3.7587  -19.7203 C   0  0  0  0  0  0  0  0  0  0  0  0
   22.4620   -5.1792  -19.1952 C   0  0  1  0  0  0  0  0  0  0  0  0
   21.7122   -5.1939  -17.9042 C   0  0  0  0  0  0  0  0  0  0  0  0
   20.4766   -4.9747  -17.9232 O   0  0  0  0  0  0  0  0  0  0  0  0
   24.6309  -11.3731  -15.5966 O   0  0  0  0  0  0  0  0  0  0  0  0
   23.7573  -10.3182  -15.4726 C   0  0  0  0  0  0  0  0  0  0  0  0
   23.2857   -9.8767  -14.2387 C   0  0  0  0  0  0  0  0  0  0  0  0
   22.4119   -8.8183  -14.1459 C   0  0  0  0  0  0  0  0  0  0  0  0
   21.9595   -8.1408  -15.2793 C   0  0  0  0  0  0  0  0  0  0  0  0
   21.0459   -7.0117  -15.2189 C   0  0  0  0  0  0  0  0  0  0  0  0
   21.6598   -5.6497  -15.4170 C   0  0  2  0  0  0  0  0  0  0  0  0
   22.3237   -5.4430  -16.6554 N   0  0  0  0  0  0  0  0  0  0  0  0
   22.4582   -5.3423  -14.2093 C   0  0  0  0  0  0  0  0  0  0  0  0
   23.6697   -5.0863  -14.2673 O   0  0  0  0  0  0  0  0  0  0  0  0
   22.4251   -8.5768  -16.4923 C   0  0  0  0  0  0  0  0  0  0  0  0
   23.3129   -9.6521  -16.5885 C   0  0  0  0  0  0  0  0  0  0  0  0
   21.8312   -5.3419  -12.9831 O   0  0  0  0  0  0  0  0  0  0  0  0
  2  1  1  0
  3  2  1  0
  4  3  1  0
  4  5  1  0
  5  6  1  1
  7  5  1  0
  7  8  2  0
  9  7  1  0
 10  9  1  0
 11 12  1  0
 11 10  1  0
 12 13  1  0
 13  9  1  0
 13 14  1  1
 14 23  1  0
 15 14  2  0
 17 16  1  0
 17 18  2  0
 18 19  1  0
 20 19  2  0
 21 20  1  0
 22 21  1  1
 22 23  1  0
 22 24  1  0
 24 25  2  0
 24 28  1  0
 26 27  2  0
 26 20  1  0
 27 17  1  0
M  END
$$$$
