MPY.pdb
     RDKit          3D

 28 29  0  0  1  0  0  0  0  0999 V2000
   23.5138  -14.8932  -14.0837 C   0  0  0  0  0  0  0  0  0  0  0  0
   23.1358  -15.3957  -15.7776 S   0  0  0  0  0  0  0  0  0  0  0  0
   24.2837  -16.7016  -16.3217 C   0  0  0  0  0  0  0  0  0  0  0  0
   24.5655  -17.5876  -15.1346 C   0  0  0  0  0  0  0  0  0  0  0  0
   24.7043  -19.0550  -15.4875 C   0  0  2  0  0  0  0  0  0  0  0  0
   23.5058  -19.4359  -16.1895 N   0  0  0  0  0  0  0  0  0  0  0  0
   24.9938  -19.9260  -14.3493 C   0  0  0  0  0  0  0  0  0  0  0  0
   24.0044  -20.3038  -13.6526 O   0  0  0  0  0  0  0  0  0  0  0  0
   26.2786  -20.3465  -14.0091 N   0  0  0  0  0  0  0  0  0  0  0  0
   27.4434  -20.0490  -14.8609 C   0  0  0  0  0  0  0  0  0  0  0  0
   28.6514  -20.5803  -14.1849 C   0  0  0  0  0  0  0  0  0  0  0  0
   28.1319  -21.5997  -13.2333 C   0  0  0  0  0  0  0  0  0  0  0  0
   26.7442  -21.0791  -12.8930 C   0  0  1  0  0  0  0  0  0  0  0  0
   26.7738  -20.2841  -11.6297 C   0  0  0  0  0  0  0  0  0  0  0  0
   27.5011  -19.2626  -11.5783 O   0  0  0  0  0  0  0  0  0  0  0  0
   29.3363  -19.8667   -3.3973 O   0  0  0  0  0  0  0  0  0  0  0  0
   28.8856  -19.8125   -4.6956 C   0  0  0  0  0  0  0  0  0  0  0  0
   29.4514  -20.5710   -5.7175 C   0  0  0  0  0  0  0  0  0  0  0  0
   28.9792  -20.4958   -7.0073 C   0  0  0  0  0  0  0  0  0  0  0  0
   27.9155  -19.6594   -7.3499 C   0  0  0  0  0  0  0  0  0  0  0  0
   27.3827  -19.5627   -8.6990 C   0  0  0  0  0  0  0  0  0  0  0  0
   26.5060  -20.7025   -9.1498 C   0  0  2  0  0  0  0  0  0  0  0  0
   26.0221  -20.6230  -10.4827 N   0  0  0  0  0  0  0  0  0  0  0  0
   25.4726  -20.9062   -8.1100 C   0  0  0  0  0  0  0  0  0  0  0  0
   24.2942  -20.5580   -8.2744 O   0  0  0  0  0  0  0  0  0  0  0  0
   27.3602  -18.9143   -6.3427 C   0  0  0  0  0  0  0  0  0  0  0  0
   27.8389  -18.9894   -5.0315 C   0  0  0  0  0  0  0  0  0  0  0  0
   25.8359  -21.5018   -6.9227 O   0  0  0  0  0  0  0  0  0  0  0  0
  2  1  1  0
  3  2  1  0
  4  3  1  0
  4  5  1  0
  5  6  1  1
  7  5  1  0
  7  8  2  0
  9  7  1  0
 10  9  1  0
 11 12  1  0
 11 10  1  0
 12 13  1  0
 13  9  1  0
 13 14  1  1
 14 23  1  0
 15 14  2  0
 17 16  1  0
 17 18  2  0
 18 19  1  0
 20 19  2  0
 21 20  1  0
 22 21  1  1
 22 23  1  0
 22 24  1  0
 24 25  2  0
 24 28  1  0
 26 27  2  0
 26 20  1  0
 27 17  1  0
M  END
$$$$
