MPY.pdb
     RDKit          3D

 28 29  0  0  1  0  0  0  0  0999 V2000
   16.2801  -11.9578  -15.6000 C   0  0  0  0  0  0  0  0  0  0  0  0
   16.8180  -13.4958  -16.3808 S   0  0  0  0  0  0  0  0  0  0  0  0
   17.9381  -13.1410  -17.7732 C   0  0  0  0  0  0  0  0  0  0  0  0
   18.6671  -11.8589  -17.4594 C   0  0  0  0  0  0  0  0  0  0  0  0
   19.8397  -11.5827  -18.3791 C   0  0  2  0  0  0  0  0  0  0  0  0
   20.6392  -12.7802  -18.4156 N   0  0  0  0  0  0  0  0  0  0  0  0
   20.6166  -10.3948  -18.0284 C   0  0  0  0  0  0  0  0  0  0  0  0
   21.6779  -10.5824  -17.3609 O   0  0  0  0  0  0  0  0  0  0  0  0
   20.2478   -9.0998  -18.3891 N   0  0  0  0  0  0  0  0  0  0  0  0
   19.1020   -8.8383  -19.2777 C   0  0  0  0  0  0  0  0  0  0  0  0
   18.9495   -7.3691  -19.4064 C   0  0  0  0  0  0  0  0  0  0  0  0
   20.2776   -6.8183  -19.0226 C   0  0  0  0  0  0  0  0  0  0  0  0
   20.8081   -7.8497  -18.0390 C   0  0  1  0  0  0  0  0  0  0  0  0
   20.5149   -7.4388  -16.6339 C   0  0  0  0  0  0  0  0  0  0  0  0
   19.6457   -8.0748  -15.9897 O   0  0  0  0  0  0  0  0  0  0  0  0
   20.2794   -5.8291   -8.2137 O   0  0  0  0  0  0  0  0  0  0  0  0
   20.5438   -6.1380   -9.5275 C   0  0  0  0  0  0  0  0  0  0  0  0
   19.6866   -6.9164  -10.3015 C   0  0  0  0  0  0  0  0  0  0  0  0
   19.9777   -7.2091  -11.6137 C   0  0  0  0  0  0  0  0  0  0  0  0
   21.1408   -6.7413  -12.2275 C   0  0  0  0  0  0  0  0  0  0  0  0
   21.4755   -7.0206  -13.6143 C   0  0  0  0  0  0  0  0  0  0  0  0
   21.0322   -5.9934  -14.6239 C   0  0  2  0  0  0  0  0  0  0  0  0
   21.1680   -6.3657  -15.9878 N   0  0  0  0  0  0  0  0  0  0  0  0
   21.6590   -4.7053  -14.2517 C   0  0  0  0  0  0  0  0  0  0  0  0
   22.8253   -4.4247  -14.5646 O   0  0  0  0  0  0  0  0  0  0  0  0
   21.9826   -5.9754  -11.4640 C   0  0  0  0  0  0  0  0  0  0  0  0
   21.6884   -5.6772  -10.1305 C   0  0  0  0  0  0  0  0  0  0  0  0
   20.9194   -3.7916  -13.5343 O   0  0  0  0  0  0  0  0  0  0  0  0
  2  1  1  0
  3  2  1  0
  4  3  1  0
  4  5  1  0
  5  6  1  1
  7  5  1  0
  7  8  2  0
  9  7  1  0
 10  9  1  0
 11 12  1  0
 11 10  1  0
 12 13  1  0
 13  9  1  0
 13 14  1  1
 14 23  1  0
 15 14  2  0
 17 16  1  0
 17 18  2  0
 18 19  1  0
 20 19  2  0
 21 20  1  0
 22 21  1  1
 22 23  1  0
 22 24  1  0
 24 25  2  0
 24 28  1  0
 26 27  2  0
 26 20  1  0
 27 17  1  0
M  END
$$$$
