MPY.pdb
     RDKit          3D

 28 29  0  0  1  0  0  0  0  0999 V2000
   20.7490  -18.1519  -14.5411 C   0  0  0  0  0  0  0  0  0  0  0  0
   21.5847  -19.7035  -14.9398 S   0  0  0  0  0  0  0  0  0  0  0  0
   23.3914  -19.4682  -14.9376 C   0  0  0  0  0  0  0  0  0  0  0  0
   23.7112  -18.3681  -15.9180 C   0  0  0  0  0  0  0  0  0  0  0  0
   25.1773  -17.9851  -15.9486 C   0  0  2  0  0  0  0  0  0  0  0  0
   25.3265  -16.9645  -16.9539 N   0  0  0  0  0  0  0  0  0  0  0  0
   26.0920  -19.1089  -16.1441 C   0  0  0  0  0  0  0  0  0  0  0  0
   26.1139  -19.6342  -17.2976 O   0  0  0  0  0  0  0  0  0  0  0  0
   26.9186  -19.6119  -15.1407 N   0  0  0  0  0  0  0  0  0  0  0  0
   26.8597  -19.1035  -13.7590 C   0  0  0  0  0  0  0  0  0  0  0  0
   27.8167  -19.8878  -12.9422 C   0  0  0  0  0  0  0  0  0  0  0  0
   28.7629  -20.4731  -13.9304 C   0  0  0  0  0  0  0  0  0  0  0  0
   27.9095  -20.6198  -15.1806 C   0  0  1  0  0  0  0  0  0  0  0  0
   27.3504  -22.0005  -15.2791 C   0  0  0  0  0  0  0  0  0  0  0  0
   28.0381  -22.9602  -14.8532 O   0  0  0  0  0  0  0  0  0  0  0  0
   22.3897  -20.3026  -10.8714 O   0  0  0  0  0  0  0  0  0  0  0  0
   23.0272  -21.1990  -11.6970 C   0  0  0  0  0  0  0  0  0  0  0  0
   22.3348  -22.1121  -12.4886 C   0  0  0  0  0  0  0  0  0  0  0  0
   23.0001  -22.9972  -13.3050 C   0  0  0  0  0  0  0  0  0  0  0  0
   24.3938  -23.0208  -13.3773 C   0  0  0  0  0  0  0  0  0  0  0  0
   25.1300  -23.9335  -14.2366 C   0  0  0  0  0  0  0  0  0  0  0  0
   25.3373  -23.4836  -15.6598 C   0  0  2  0  0  0  0  0  0  0  0  0
   26.0809  -22.2855  -15.8293 N   0  0  0  0  0  0  0  0  0  0  0  0
   24.0189  -23.5133  -16.3316 C   0  0  0  0  0  0  0  0  0  0  0  0
   23.5065  -22.4973  -16.8237 O   0  0  0  0  0  0  0  0  0  0  0  0
   25.0729  -22.1213  -12.5977 C   0  0  0  0  0  0  0  0  0  0  0  0
   24.3986  -21.2213  -11.7675 C   0  0  0  0  0  0  0  0  0  0  0  0
   23.3424  -24.7102  -16.4104 O   0  0  0  0  0  0  0  0  0  0  0  0
  2  1  1  0
  3  2  1  0
  4  3  1  0
  4  5  1  0
  5  6  1  6
  7  5  1  0
  7  8  2  0
  9  7  1  0
 10  9  1  0
 11 12  1  0
 11 10  1  0
 12 13  1  0
 13  9  1  0
 13 14  1  1
 14 23  1  0
 15 14  2  0
 17 16  1  0
 17 18  2  0
 18 19  1  0
 20 19  2  0
 21 20  1  0
 22 21  1  1
 22 23  1  0
 22 24  1  0
 24 25  2  0
 24 28  1  0
 26 27  2  0
 26 20  1  0
 27 17  1  0
M  END
$$$$
