MPY.pdb
     RDKit          3D

 28 29  0  0  1  0  0  0  0  0999 V2000
   26.1264  -12.6386  -24.4335 C   0  0  0  0  0  0  0  0  0  0  0  0
   25.5828  -11.7501  -22.9571 S   0  0  0  0  0  0  0  0  0  0  0  0
   25.7716  -12.8006  -21.4806 C   0  0  0  0  0  0  0  0  0  0  0  0
   25.1032  -12.0948  -20.3278 C   0  0  0  0  0  0  0  0  0  0  0  0
   25.1447  -12.8739  -19.0285 C   0  0  2  0  0  0  0  0  0  0  0  0
   24.4556  -14.1175  -19.2592 N   0  0  0  0  0  0  0  0  0  0  0  0
   24.6266  -12.1470  -17.8706 C   0  0  0  0  0  0  0  0  0  0  0  0
   23.3914  -12.2801  -17.6180 O   0  0  0  0  0  0  0  0  0  0  0  0
   25.4144  -11.3360  -17.0553 N   0  0  0  0  0  0  0  0  0  0  0  0
   26.8837  -11.3195  -17.1647 C   0  0  0  0  0  0  0  0  0  0  0  0
   27.4021  -10.3142  -16.2060 C   0  0  0  0  0  0  0  0  0  0  0  0
   26.3038  -10.1359  -15.2178 C   0  0  0  0  0  0  0  0  0  0  0  0
   25.0541  -10.4268  -16.0342 C   0  0  1  0  0  0  0  0  0  0  0  0
   24.4535   -9.1608  -16.5493 C   0  0  0  0  0  0  0  0  0  0  0  0
   24.9936   -8.5939  -17.5302 O   0  0  0  0  0  0  0  0  0  0  0  0
   17.8412  -11.7848  -17.3392 O   0  0  0  0  0  0  0  0  0  0  0  0
   18.7767  -10.7808  -17.4307 C   0  0  0  0  0  0  0  0  0  0  0  0
   18.5422   -9.4924  -16.9568 C   0  0  0  0  0  0  0  0  0  0  0  0
   19.4976   -8.5083  -17.0624 C   0  0  0  0  0  0  0  0  0  0  0  0
   20.7410   -8.7547  -17.6468 C   0  0  0  0  0  0  0  0  0  0  0  0
   21.7784   -7.7432  -17.7651 C   0  0  0  0  0  0  0  0  0  0  0  0
   22.5783   -7.4639  -16.5188 C   0  0  2  0  0  0  0  0  0  0  0  0
   23.3030   -8.5638  -15.9877 N   0  0  0  0  0  0  0  0  0  0  0  0
   21.6851   -6.7710  -15.5636 C   0  0  0  0  0  0  0  0  0  0  0  0
   21.3411   -7.2863  -14.4898 O   0  0  0  0  0  0  0  0  0  0  0  0
   20.9696  -10.0233  -18.1121 C   0  0  0  0  0  0  0  0  0  0  0  0
   19.9999  -11.0244  -18.0058 C   0  0  0  0  0  0  0  0  0  0  0  0
   21.2229   -5.5133  -15.8817 O   0  0  0  0  0  0  0  0  0  0  0  0
  2  1  1  0
  3  2  1  0
  4  3  1  0
  4  5  1  0
  5  6  1  6
  7  5  1  0
  7  8  2  0
  9  7  1  0
 10  9  1  0
 11 12  1  0
 11 10  1  0
 12 13  1  0
 13  9  1  0
 13 14  1  6
 14 23  1  0
 15 14  2  0
 17 16  1  0
 17 18  2  0
 18 19  1  0
 20 19  2  0
 21 20  1  0
 22 21  1  6
 22 23  1  0
 22 24  1  0
 24 25  2  0
 24 28  1  0
 26 27  2  0
 26 20  1  0
 27 17  1  0
M  END
$$$$
