MPY.pdb
     RDKit          3D

 28 29  0  0  1  0  0  0  0  0999 V2000
   18.9857  -13.9943  -17.0366 C   0  0  0  0  0  0  0  0  0  0  0  0
   18.9523  -12.1934  -17.1784 S   0  0  0  0  0  0  0  0  0  0  0  0
   20.5282  -11.4836  -16.6020 C   0  0  0  0  0  0  0  0  0  0  0  0
   20.4377   -9.9858  -16.7512 C   0  0  0  0  0  0  0  0  0  0  0  0
   21.6374   -9.2437  -16.1970 C   0  0  2  0  0  0  0  0  0  0  0  0
   21.6947   -9.5271  -14.7861 N   0  0  0  0  0  0  0  0  0  0  0  0
   21.6487   -7.8106  -16.4866 C   0  0  0  0  0  0  0  0  0  0  0  0
   21.0195   -7.0599  -15.6819 O   0  0  0  0  0  0  0  0  0  0  0  0
   22.3060   -7.2519  -17.5816 N   0  0  0  0  0  0  0  0  0  0  0  0
   23.1522   -8.0621  -18.4751 C   0  0  0  0  0  0  0  0  0  0  0  0
   23.6456   -7.1808  -19.5606 C   0  0  0  0  0  0  0  0  0  0  0  0
   23.5081   -5.8022  -19.0172 C   0  0  0  0  0  0  0  0  0  0  0  0
   22.3296   -5.9228  -18.0636 C   0  0  1  0  0  0  0  0  0  0  0  0
   21.0620   -5.5112  -18.7364 C   0  0  0  0  0  0  0  0  0  0  0  0
   20.5077   -6.3183  -19.5216 O   0  0  0  0  0  0  0  0  0  0  0  0
   17.1698    0.5623  -14.7866 O   0  0  0  0  0  0  0  0  0  0  0  0
   17.3523   -0.5213  -15.6137 C   0  0  0  0  0  0  0  0  0  0  0  0
   16.5980   -0.7187  -16.7677 C   0  0  0  0  0  0  0  0  0  0  0  0
   16.8033   -1.8128  -17.5759 C   0  0  0  0  0  0  0  0  0  0  0  0
   17.7731   -2.7715  -17.2780 C   0  0  0  0  0  0  0  0  0  0  0  0
   18.0257   -3.9334  -18.1143 C   0  0  0  0  0  0  0  0  0  0  0  0
   19.1982   -3.8315  -19.0555 C   0  0  2  0  0  0  0  0  0  0  0  0
   20.4501   -4.2541  -18.5346 N   0  0  0  0  0  0  0  0  0  0  0  0
   19.1803   -2.4728  -19.6420 C   0  0  0  0  0  0  0  0  0  0  0  0
   20.1160   -1.6748  -19.4859 O   0  0  0  0  0  0  0  0  0  0  0  0
   18.5143   -2.5749  -16.1422 C   0  0  0  0  0  0  0  0  0  0  0  0
   18.3069   -1.4639  -15.3197 C   0  0  0  0  0  0  0  0  0  0  0  0
   18.0867   -2.0861  -20.3844 O   0  0  0  0  0  0  0  0  0  0  0  0
  2  1  1  0
  3  2  1  0
  4  3  1  0
  4  5  1  0
  5  6  1  1
  7  5  1  0
  7  8  2  0
  9  7  1  0
 10  9  1  0
 11 12  1  0
 11 10  1  0
 12 13  1  0
 13  9  1  0
 13 14  1  6
 14 23  1  0
 15 14  2  0
 17 16  1  0
 17 18  2  0
 18 19  1  0
 20 19  2  0
 21 20  1  0
 22 21  1  1
 22 23  1  0
 22 24  1  0
 24 25  2  0
 24 28  1  0
 26 27  2  0
 26 20  1  0
 27 17  1  0
M  END
$$$$
