DHG.pdb
     RDKit          3D

 23 23  0  0  1  0  0  0  0  0999 V2000
   18.2070  -13.1354  -17.5399 N   0  0  0  0  0  0  0  0  0  0  0  0
   18.6763  -13.0453  -16.1750 C   0  0  1  0  0  0  0  0  0  0  0  0
   19.2793  -14.3815  -15.8052 C   0  0  0  0  0  0  0  0  0  0  0  0
   18.2198  -15.4189  -15.7174 C   0  0  0  0  0  0  0  0  0  0  0  0
   17.0174  -15.1272  -15.8940 O   0  0  0  0  0  0  0  0  0  0  0  0
   19.6653  -11.9456  -16.0753 C   0  0  0  0  0  0  0  0  0  0  0  0
   20.3683  -11.8048  -15.0333 O   0  0  0  0  0  0  0  0  0  0  0  0
   18.5273  -16.7423  -15.4378 O   0  0  0  0  0  0  0  0  0  0  0  0
   19.8740  -11.0089  -17.1231 N   0  0  0  0  0  0  0  0  0  0  0  0
   20.8174   -9.9397  -17.0686 C   0  0  1  0  0  0  0  0  0  0  0  0
   21.5510   -9.9168  -18.4107 C   0  0  0  0  0  0  0  0  0  0  0  0
   22.6924   -8.9863  -18.2942 C   0  0  0  0  0  0  0  0  0  0  0  0
   23.9722   -9.2705  -17.8423 C   0  0  0  0  0  0  0  0  0  0  0  0
   24.7089   -8.1526  -17.8932 N   0  0  0  0  0  0  0  0  0  0  0  0
   23.8925   -7.1933  -18.3704 C   0  0  0  0  0  0  0  0  0  0  0  0
   22.6735   -7.6947  -18.6135 N   0  0  0  0  0  0  0  0  0  0  0  0
   20.2395   -8.6199  -16.8368 C   0  0  0  0  0  0  0  0  0  0  0  0
   19.2172   -8.2492  -17.4477 O   0  0  0  0  0  0  0  0  0  0  0  0
   20.8477   -7.7436  -15.9035 N   0  0  0  0  0  0  0  0  0  0  0  0
   20.2965   -6.4370  -15.5878 C   0  0  0  0  0  0  0  0  0  0  0  0
   21.1668   -5.8193  -14.5705 C   0  0  0  0  0  0  0  0  0  0  0  0
   21.2921   -6.3710  -13.4427 O   0  0  0  0  0  0  0  0  0  0  0  0
   21.8645   -4.6434  -14.7973 O   0  0  0  0  0  0  0  0  0  0  0  0
  2  1  1  6
  2  3  1  0
  3  4  1  0
  4  8  1  0
  5  4  2  0
  6  9  1  0
  6  2  1  0
  7  6  2  0
 10 17  1  0
 10  9  1  0
 11 12  1  0
 10 11  1  6
 12 16  1  0
 13 14  1  0
 13 12  2  0
 14 15  1  0
 15 16  2  0
 17 19  1  0
 18 17  2  0
 19 20  1  0
 20 21  1  0
 21 22  2  0
 21 23  1  0
M  END
$$$$
