DHG.pdb
     RDKit          3D

 23 23  0  0  1  0  0  0  0  0999 V2000
   26.6096  -38.2601   -6.8446 N   0  0  0  0  0  0  0  0  0  0  0  0
   25.8116  -37.7204   -5.7662 C   0  0  1  0  0  0  0  0  0  0  0  0
   25.7795  -38.7474   -4.6571 C   0  0  0  0  0  0  0  0  0  0  0  0
   24.7086  -39.7454   -4.9091 C   0  0  0  0  0  0  0  0  0  0  0  0
   24.8156  -40.9213   -4.4995 O   0  0  0  0  0  0  0  0  0  0  0  0
   26.4084  -36.4399   -5.3170 C   0  0  0  0  0  0  0  0  0  0  0  0
   27.6618  -36.3219   -5.1950 O   0  0  0  0  0  0  0  0  0  0  0  0
   23.5570  -39.4078   -5.6048 O   0  0  0  0  0  0  0  0  0  0  0  0
   25.6218  -35.2984   -5.0057 N   0  0  0  0  0  0  0  0  0  0  0  0
   26.1591  -34.0291   -4.6365 C   0  0  1  0  0  0  0  0  0  0  0  0
   25.2585  -32.9601   -5.2580 C   0  0  0  0  0  0  0  0  0  0  0  0
   25.6626  -32.7823   -6.6677 C   0  0  0  0  0  0  0  0  0  0  0  0
   26.6710  -33.4476   -7.3485 C   0  0  0  0  0  0  0  0  0  0  0  0
   26.7147  -32.9961   -8.6093 N   0  0  0  0  0  0  0  0  0  0  0  0
   25.7456  -32.0652   -8.7023 C   0  0  0  0  0  0  0  0  0  0  0  0
   25.1085  -31.9342   -7.5304 N   0  0  0  0  0  0  0  0  0  0  0  0
   26.2362  -33.7877   -3.1993 C   0  0  0  0  0  0  0  0  0  0  0  0
   25.2075  -33.5752   -2.5267 O   0  0  0  0  0  0  0  0  0  0  0  0
   27.4988  -33.7941   -2.5553 N   0  0  0  0  0  0  0  0  0  0  0  0
   27.6601  -33.4490   -1.1534 C   0  0  0  0  0  0  0  0  0  0  0  0
   27.4865  -34.6840   -0.3669 C   0  0  0  0  0  0  0  0  0  0  0  0
   27.2091  -35.7633   -0.9587 O   0  0  0  0  0  0  0  0  0  0  0  0
   27.6153  -34.7167    1.0127 O   0  0  0  0  0  0  0  0  0  0  0  0
  2  1  1  6
  2  3  1  0
  3  4  1  0
  4  8  1  0
  5  4  2  0
  6  9  1  0
  6  2  1  0
  7  6  2  0
 10 17  1  0
 10  9  1  0
 11 12  1  0
 10 11  1  6
 12 16  1  0
 13 14  1  0
 13 12  2  0
 14 15  1  0
 15 16  2  0
 17 19  1  0
 18 17  2  0
 19 20  1  0
 20 21  1  0
 21 22  2  0
 21 23  1  0
M  END
$$$$
