YQG.pdb
     RDKit          3D

 26 26  0  0  1  0  0  0  0  0999 V2000
    6.9863  -12.2769   17.7382 O   0  0  0  0  0  0  0  0  0  0  0  0
    7.5154  -12.9205   18.8567 C   0  0  0  0  0  0  0  0  0  0  0  0
    6.7706  -13.9407   19.4157 C   0  0  0  0  0  0  0  0  0  0  0  0
    7.2281  -14.6310   20.5311 C   0  0  0  0  0  0  0  0  0  0  0  0
    8.4412  -14.2996   21.0942 C   0  0  0  0  0  0  0  0  0  0  0  0
    9.0009  -14.9907   22.2887 C   0  0  0  0  0  0  0  0  0  0  0  0
   10.0184  -15.9736   21.7874 C   0  0  2  0  0  0  0  0  0  0  0  0
    9.3391  -16.8819   20.8877 N   0  0  0  0  0  0  0  0  0  0  0  0
   10.7127  -16.7233   22.8161 C   0  0  0  0  0  0  0  0  0  0  0  0
   10.0350  -17.3673   23.6540 O   0  0  0  0  0  0  0  0  0  0  0  0
    9.1691  -13.2787   20.5215 C   0  0  0  0  0  0  0  0  0  0  0  0
    8.7304  -12.5801   19.4114 C   0  0  0  0  0  0  0  0  0  0  0  0
   10.9996  -21.1666   22.3473 N   0  0  0  0  0  0  0  0  0  0  0  0
   12.0576  -20.5843   21.6160 C   0  0  0  0  0  0  0  0  0  0  0  0
   12.3502  -21.0028   20.4688 O   0  0  0  0  0  0  0  0  0  0  0  0
   12.8362  -19.4712   22.1938 C   0  0  0  0  0  0  0  0  0  0  0  0
   12.3450  -19.1409   23.5889 C   0  0  0  0  0  0  0  0  0  0  0  0
   12.7509  -17.7149   23.8803 C   0  0  2  0  0  0  0  0  0  0  0  0
   12.1285  -16.7911   22.9580 N   0  0  0  0  0  0  0  0  0  0  0  0
   14.2270  -17.5428   23.8986 C   0  0  0  0  0  0  0  0  0  0  0  0
   14.9425  -18.2209   24.6963 O   0  0  0  0  0  0  0  0  0  0  0  0
   14.8663  -16.6216   23.0292 N   0  0  0  0  0  0  0  0  0  0  0  0
   15.5336  -15.4587   23.5726 C   0  0  0  0  0  0  0  0  0  0  0  0
   16.6213  -15.8668   24.4884 C   0  0  0  0  0  0  0  0  0  0  0  0
   16.4413  -16.7839   25.3295 O   0  0  0  0  0  0  0  0  0  0  0  0
   17.8584  -15.2140   24.4038 O   0  0  0  0  0  0  0  0  0  0  0  0
  2  3  2  0
  2  1  1  0
  4  3  1  0
  5  4  2  0
  6  5  1  0
  7  6  1  0
  7  9  1  0
  7  8  1  6
  9 19  1  0
  9 10  2  0
 11  5  1  0
 11 12  2  0
 12  2  1  0
 14 15  2  0
 14 13  1  0
 16 14  1  0
 17 16  1  0
 18 17  1  6
 19 18  1  0
 20 18  1  0
 20 21  2  0
 22 20  1  0
 23 22  1  0
 24 23  1  0
 25 24  2  0
 26 24  1  0
M  END
$$$$
