YQG.pdb
     RDKit          3D

 26 26  0  0  1  0  0  0  0  0999 V2000
    8.0217  -12.6029   16.7956 O   0  0  0  0  0  0  0  0  0  0  0  0
    7.8647  -13.2624   18.0145 C   0  0  0  0  0  0  0  0  0  0  0  0
    7.6023  -14.6180   17.9755 C   0  0  0  0  0  0  0  0  0  0  0  0
    7.4331  -15.3470   19.1460 C   0  0  0  0  0  0  0  0  0  0  0  0
    7.5267  -14.7164   20.3676 C   0  0  0  0  0  0  0  0  0  0  0  0
    7.3581  -15.4262   21.6658 C   0  0  0  0  0  0  0  0  0  0  0  0
    8.7322  -15.6256   22.2358 C   0  0  2  0  0  0  0  0  0  0  0  0
    9.4976  -16.3853   21.2698 N   0  0  0  0  0  0  0  0  0  0  0  0
    8.7760  -16.2819   23.5280 C   0  0  0  0  0  0  0  0  0  0  0  0
    9.4632  -17.3253   23.6513 O   0  0  0  0  0  0  0  0  0  0  0  0
    7.7891  -13.3633   20.3848 C   0  0  0  0  0  0  0  0  0  0  0  0
    7.9606  -12.6209   19.2306 C   0  0  0  0  0  0  0  0  0  0  0  0
    8.5249  -14.0212   29.3463 N   0  0  0  0  0  0  0  0  0  0  0  0
    9.6936  -14.6284   28.8375 C   0  0  0  0  0  0  0  0  0  0  0  0
   10.8094  -14.4217   29.3753 O   0  0  0  0  0  0  0  0  0  0  0  0
    9.6176  -15.5176   27.6616 C   0  0  0  0  0  0  0  0  0  0  0  0
    8.2037  -15.5684   27.1185 C   0  0  0  0  0  0  0  0  0  0  0  0
    8.2061  -16.5308   25.9536 C   0  0  2  0  0  0  0  0  0  0  0  0
    8.0903  -15.8320   24.6927 N   0  0  0  0  0  0  0  0  0  0  0  0
    7.1586  -17.5768   26.0860 C   0  0  0  0  0  0  0  0  0  0  0  0
    5.9704  -17.2598   26.3955 O   0  0  0  0  0  0  0  0  0  0  0  0
    7.4617  -18.9461   25.8706 N   0  0  0  0  0  0  0  0  0  0  0  0
    8.7481  -19.4732   26.2707 C   0  0  0  0  0  0  0  0  0  0  0  0
    8.5958  -20.3950   27.4177 C   0  0  0  0  0  0  0  0  0  0  0  0
    8.3210  -19.9541   28.5627 O   0  0  0  0  0  0  0  0  0  0  0  0
    8.7630  -21.7704   27.2079 O   0  0  0  0  0  0  0  0  0  0  0  0
  2  3  2  0
  2  1  1  0
  4  3  1  0
  5  4  2  0
  6  5  1  0
  7  6  1  0
  7  9  1  0
  7  8  1  6
  9 19  1  0
  9 10  2  0
 11  5  1  0
 11 12  2  0
 12  2  1  0
 14 15  2  0
 14 13  1  0
 16 14  1  0
 17 16  1  0
 18 17  1  1
 19 18  1  0
 20 18  1  0
 20 21  2  0
 22 20  1  0
 23 22  1  0
 24 23  1  0
 25 24  2  0
 26 24  1  0
M  END
$$$$
