YQG.pdb
     RDKit          3D

 26 26  0  0  1  0  0  0  0  0999 V2000
    6.8893  -13.0398   16.5247 O   0  0  0  0  0  0  0  0  0  0  0  0
    7.4539  -13.2089   17.7888 C   0  0  0  0  0  0  0  0  0  0  0  0
    6.6002  -13.5103   18.8320 C   0  0  0  0  0  0  0  0  0  0  0  0
    7.0842  -13.6940   20.1211 C   0  0  0  0  0  0  0  0  0  0  0  0
    8.4340  -13.5757   20.3714 C   0  0  0  0  0  0  0  0  0  0  0  0
    9.0308  -13.7575   21.7236 C   0  0  0  0  0  0  0  0  0  0  0  0
    9.7056  -15.0981   21.7262 C   0  0  2  0  0  0  0  0  0  0  0  0
    8.6737  -16.1046   21.5912 N   0  0  0  0  0  0  0  0  0  0  0  0
   10.5199  -15.3779   22.8928 C   0  0  0  0  0  0  0  0  0  0  0  0
    9.9638  -15.4340   24.0169 O   0  0  0  0  0  0  0  0  0  0  0  0
    9.2690  -13.2745   19.3169 C   0  0  0  0  0  0  0  0  0  0  0  0
    8.8060  -13.0881   18.0271 C   0  0  0  0  0  0  0  0  0  0  0  0
   10.4571  -18.9312   26.0015 N   0  0  0  0  0  0  0  0  0  0  0  0
   11.8569  -19.0827   26.1060 C   0  0  0  0  0  0  0  0  0  0  0  0
   12.3633  -19.7117   27.0677 O   0  0  0  0  0  0  0  0  0  0  0  0
   12.7460  -18.5009   25.0814 C   0  0  0  0  0  0  0  0  0  0  0  0
   11.9438  -17.7398   24.0451 C   0  0  0  0  0  0  0  0  0  0  0  0
   12.5854  -16.3803   23.8925 C   0  0  2  0  0  0  0  0  0  0  0  0
   11.9270  -15.5991   22.8689 N   0  0  0  0  0  0  0  0  0  0  0  0
   14.0470  -16.4733   23.6400 C   0  0  0  0  0  0  0  0  0  0  0  0
   14.8427  -16.7773   24.5795 O   0  0  0  0  0  0  0  0  0  0  0  0
   14.5832  -16.2256   22.3499 N   0  0  0  0  0  0  0  0  0  0  0  0
   15.1886  -14.9459   22.0523 C   0  0  0  0  0  0  0  0  0  0  0  0
   16.6629  -15.0405   22.1284 C   0  0  0  0  0  0  0  0  0  0  0  0
   17.2141  -15.8256   22.9412 O   0  0  0  0  0  0  0  0  0  0  0  0
   17.4376  -14.2396   21.2787 O   0  0  0  0  0  0  0  0  0  0  0  0
  2  3  2  0
  2  1  1  0
  4  3  1  0
  5  4  2  0
  6  5  1  0
  7  6  1  0
  7  9  1  0
  7  8  1  1
  9 19  1  0
  9 10  2  0
 11  5  1  0
 11 12  2  0
 12  2  1  0
 14 15  2  0
 14 13  1  0
 16 14  1  0
 17 16  1  0
 18 17  1  6
 19 18  1  0
 20 18  1  0
 20 21  2  0
 22 20  1  0
 23 22  1  0
 24 23  1  0
 25 24  2  0
 26 24  1  0
M  END
$$$$
