YQG.pdb
     RDKit          3D

 26 26  0  0  1  0  0  0  0  0999 V2000
   10.8899  -14.6554   29.8162 O   0  0  0  0  0  0  0  0  0  0  0  0
   10.0154  -14.5500   28.7347 C   0  0  0  0  0  0  0  0  0  0  0  0
   10.3582  -15.2123   27.5721 C   0  0  0  0  0  0  0  0  0  0  0  0
    9.5404  -15.1568   26.4505 C   0  0  0  0  0  0  0  0  0  0  0  0
    8.3686  -14.4330   26.4898 C   0  0  0  0  0  0  0  0  0  0  0  0
    7.4388  -14.3242   25.3316 C   0  0  0  0  0  0  0  0  0  0  0  0
    7.0788  -15.7243   24.9280 C   0  0  2  0  0  0  0  0  0  0  0  0
    6.9823  -16.5143   26.1375 N   0  0  0  0  0  0  0  0  0  0  0  0
    7.9952  -16.3543   23.9975 C   0  0  0  0  0  0  0  0  0  0  0  0
    8.8937  -17.1047   24.4509 O   0  0  0  0  0  0  0  0  0  0  0  0
    8.0446  -13.7794   27.6594 C   0  0  0  0  0  0  0  0  0  0  0  0
    8.8457  -13.8227   28.7859 C   0  0  0  0  0  0  0  0  0  0  0  0
    7.1766  -18.0046   18.0532 N   0  0  0  0  0  0  0  0  0  0  0  0
    6.5671  -18.4149   19.2588 C   0  0  0  0  0  0  0  0  0  0  0  0
    5.5154  -19.1010   19.2441 O   0  0  0  0  0  0  0  0  0  0  0  0
    7.1614  -18.0404   20.5571 C   0  0  0  0  0  0  0  0  0  0  0  0
    8.3477  -17.1188   20.3578 C   0  0  0  0  0  0  0  0  0  0  0  0
    8.9278  -16.8342   21.7237 C   0  0  2  0  0  0  0  0  0  0  0  0
    7.9599  -16.1890   22.5830 N   0  0  0  0  0  0  0  0  0  0  0  0
   10.1866  -16.0478   21.6475 C   0  0  0  0  0  0  0  0  0  0  0  0
   10.1493  -14.7826   21.5684 O   0  0  0  0  0  0  0  0  0  0  0  0
   11.4517  -16.6901   21.6613 N   0  0  0  0  0  0  0  0  0  0  0  0
   12.6608  -15.9080   21.5233 C   0  0  0  0  0  0  0  0  0  0  0  0
   13.8427  -16.7933   21.4345 C   0  0  0  0  0  0  0  0  0  0  0  0
   13.7247  -18.0369   21.5774 O   0  0  0  0  0  0  0  0  0  0  0  0
   15.0989  -16.2232   21.1880 O   0  0  0  0  0  0  0  0  0  0  0  0
  2  3  2  0
  2  1  1  0
  4  3  1  0
  5  4  2  0
  6  5  1  0
  7  6  1  0
  7  9  1  0
  7  8  1  1
  9 19  1  0
  9 10  2  0
 11  5  1  0
 11 12  2  0
 12  2  1  0
 14 15  2  0
 14 13  1  0
 16 14  1  0
 17 16  1  0
 18 17  1  6
 19 18  1  0
 20 18  1  0
 20 21  2  0
 22 20  1  0
 23 22  1  0
 24 23  1  0
 25 24  2  0
 26 24  1  0
M  END
$$$$
