YQG.pdb
     RDKit          3D

 26 26  0  0  1  0  0  0  0  0999 V2000
    7.2247  -11.9192   28.1944 O   0  0  0  0  0  0  0  0  0  0  0  0
    7.2336  -12.6476   27.0049 C   0  0  0  0  0  0  0  0  0  0  0  0
    6.0269  -13.1481   26.5561 C   0  0  0  0  0  0  0  0  0  0  0  0
    5.9516  -13.8838   25.3801 C   0  0  0  0  0  0  0  0  0  0  0  0
    7.0922  -14.1224   24.6448 C   0  0  0  0  0  0  0  0  0  0  0  0
    7.0952  -14.9009   23.3753 C   0  0  0  0  0  0  0  0  0  0  0  0
    7.0783  -16.3531   23.7539 C   0  0  2  0  0  0  0  0  0  0  0  0
    5.9310  -16.5657   24.6110 N   0  0  0  0  0  0  0  0  0  0  0  0
    8.2796  -16.8357   24.4067 C   0  0  0  0  0  0  0  0  0  0  0  0
    8.1628  -17.5944   25.4001 O   0  0  0  0  0  0  0  0  0  0  0  0
    8.2862  -13.6143   25.1099 C   0  0  0  0  0  0  0  0  0  0  0  0
    8.3812  -12.8798   26.2778 C   0  0  0  0  0  0  0  0  0  0  0  0
   12.6809  -18.7130   21.2357 N   0  0  0  0  0  0  0  0  0  0  0  0
   11.7504  -17.6898   20.9519 C   0  0  0  0  0  0  0  0  0  0  0  0
   11.3423  -17.5019   19.7793 O   0  0  0  0  0  0  0  0  0  0  0  0
   11.2439  -16.8244   22.0352 C   0  0  0  0  0  0  0  0  0  0  0  0
   11.8589  -17.2140   23.3644 C   0  0  0  0  0  0  0  0  0  0  0  0
   10.7274  -17.3614   24.3550 C   0  0  2  0  0  0  0  0  0  0  0  0
    9.6084  -16.5141   24.0064 N   0  0  0  0  0  0  0  0  0  0  0  0
   11.1689  -17.1196   25.7533 C   0  0  0  0  0  0  0  0  0  0  0  0
   12.1726  -17.7347   26.2250 O   0  0  0  0  0  0  0  0  0  0  0  0
   10.4821  -16.2005   26.5881 N   0  0  0  0  0  0  0  0  0  0  0  0
    9.8501  -16.6622   27.8047 C   0  0  0  0  0  0  0  0  0  0  0  0
   10.8483  -17.2812   28.7040 C   0  0  0  0  0  0  0  0  0  0  0  0
   11.5478  -18.2509   28.3151 O   0  0  0  0  0  0  0  0  0  0  0  0
   11.0028  -16.7688   29.9992 O   0  0  0  0  0  0  0  0  0  0  0  0
  2  3  2  0
  2  1  1  0
  4  3  1  0
  5  4  2  0
  6  5  1  0
  7  6  1  0
  7  9  1  0
  7  8  1  1
  9 19  1  0
  9 10  2  0
 11  5  1  0
 11 12  2  0
 12  2  1  0
 14 15  2  0
 14 13  1  0
 16 14  1  0
 17 16  1  0
 18 17  1  6
 19 18  1  0
 20 18  1  0
 20 21  2  0
 22 20  1  0
 23 22  1  0
 24 23  1  0
 25 24  2  0
 26 24  1  0
M  END
$$$$
