YQG.pdb
     RDKit          3D

 26 26  0  0  1  0  0  0  0  0999 V2000
    5.8212   -9.8696   26.6990 O   0  0  0  0  0  0  0  0  0  0  0  0
    6.2883  -11.1755   26.5515 C   0  0  0  0  0  0  0  0  0  0  0  0
    7.1896  -11.4178   25.5331 C   0  0  0  0  0  0  0  0  0  0  0  0
    7.7018  -12.6915   25.3204 C   0  0  0  0  0  0  0  0  0  0  0  0
    7.3104  -13.7338   26.1322 C   0  0  0  0  0  0  0  0  0  0  0  0
    7.8129  -15.1262   25.9697 C   0  0  0  0  0  0  0  0  0  0  0  0
    6.9747  -15.7710   24.9046 C   0  0  2  0  0  0  0  0  0  0  0  0
    6.2106  -16.8280   25.5332 N   0  0  0  0  0  0  0  0  0  0  0  0
    7.7119  -16.2992   23.7733 C   0  0  0  0  0  0  0  0  0  0  0  0
    8.2291  -17.4391   23.8697 O   0  0  0  0  0  0  0  0  0  0  0  0
    6.4103  -13.4711   27.1426 C   0  0  0  0  0  0  0  0  0  0  0  0
    5.8895  -12.2102   27.3699 C   0  0  0  0  0  0  0  0  0  0  0  0
    7.7478  -14.5633   17.7139 N   0  0  0  0  0  0  0  0  0  0  0  0
    8.2762  -13.6983   18.6967 C   0  0  0  0  0  0  0  0  0  0  0  0
    8.4441  -12.4779   18.4530 O   0  0  0  0  0  0  0  0  0  0  0  0
    8.6394  -14.2205   20.0288 C   0  0  0  0  0  0  0  0  0  0  0  0
    8.3187  -15.6981   20.1310 C   0  0  0  0  0  0  0  0  0  0  0  0
    8.7571  -16.1574   21.5022 C   0  0  2  0  0  0  0  0  0  0  0  0
    7.9021  -15.6183   22.5365 N   0  0  0  0  0  0  0  0  0  0  0  0
   10.1854  -15.8459   21.7697 C   0  0  0  0  0  0  0  0  0  0  0  0
   10.5226  -14.7038   22.2059 O   0  0  0  0  0  0  0  0  0  0  0  0
   11.1990  -16.8130   21.5448 N   0  0  0  0  0  0  0  0  0  0  0  0
   12.5855  -16.4754   21.7826 C   0  0  0  0  0  0  0  0  0  0  0  0
   13.4662  -17.5969   21.3889 C   0  0  0  0  0  0  0  0  0  0  0  0
   12.9793  -18.6828   20.9832 O   0  0  0  0  0  0  0  0  0  0  0  0
   14.8549  -17.4300   21.4753 O   0  0  0  0  0  0  0  0  0  0  0  0
  2  3  2  0
  2  1  1  0
  4  3  1  0
  5  4  2  0
  6  5  1  0
  7  6  1  0
  7  9  1  0
  7  8  1  1
  9 19  1  0
  9 10  2  0
 11  5  1  0
 11 12  2  0
 12  2  1  0
 14 15  2  0
 14 13  1  0
 16 14  1  0
 17 16  1  0
 18 17  1  6
 19 18  1  0
 20 18  1  0
 20 21  2  0
 22 20  1  0
 23 22  1  0
 24 23  1  0
 25 24  2  0
 26 24  1  0
M  END
$$$$
