YQG.pdb
     RDKit          3D

 26 26  0  0  1  0  0  0  0  0999 V2000
    5.7018  -10.6274   28.3963 O   0  0  0  0  0  0  0  0  0  0  0  0
    6.3375  -11.5333   27.5474 C   0  0  0  0  0  0  0  0  0  0  0  0
    5.6726  -11.8979   26.3929 C   0  0  0  0  0  0  0  0  0  0  0  0
    6.2382  -12.7951   25.4957 C   0  0  0  0  0  0  0  0  0  0  0  0
    7.4800  -13.3336   25.7534 C   0  0  0  0  0  0  0  0  0  0  0  0
    8.1537  -14.3004   24.8429 C   0  0  0  0  0  0  0  0  0  0  0  0
    7.1192  -15.3078   24.4334 C   0  0  2  0  0  0  0  0  0  0  0  0
    6.4940  -15.8046   25.6410 N   0  0  0  0  0  0  0  0  0  0  0  0
    7.6155  -16.4163   23.6413 C   0  0  0  0  0  0  0  0  0  0  0  0
    6.8921  -17.4336   23.5079 O   0  0  0  0  0  0  0  0  0  0  0  0
    8.1269  -12.9569   26.9108 C   0  0  0  0  0  0  0  0  0  0  0  0
    7.5802  -12.0654   27.8159 C   0  0  0  0  0  0  0  0  0  0  0  0
    7.8784  -12.9950   19.4108 N   0  0  0  0  0  0  0  0  0  0  0  0
    8.2758  -14.1814   18.7567 C   0  0  0  0  0  0  0  0  0  0  0  0
    8.7146  -14.1487   17.5806 O   0  0  0  0  0  0  0  0  0  0  0  0
    8.1799  -15.4807   19.4508 C   0  0  0  0  0  0  0  0  0  0  0  0
    8.1887  -15.2874   20.9539 C   0  0  0  0  0  0  0  0  0  0  0  0
    8.9876  -16.4248   21.5466 C   0  0  2  0  0  0  0  0  0  0  0  0
    8.8815  -16.4476   22.9888 N   0  0  0  0  0  0  0  0  0  0  0  0
   10.4090  -16.3995   21.1132 C   0  0  0  0  0  0  0  0  0  0  0  0
   10.7865  -17.0783   20.1108 O   0  0  0  0  0  0  0  0  0  0  0  0
   11.3708  -15.6201   21.8064 N   0  0  0  0  0  0  0  0  0  0  0  0
   12.1551  -16.2151   22.8664 C   0  0  0  0  0  0  0  0  0  0  0  0
   13.4731  -16.6495   22.3540 C   0  0  0  0  0  0  0  0  0  0  0  0
   13.7508  -16.5490   21.1319 O   0  0  0  0  0  0  0  0  0  0  0  0
   14.4094  -17.1762   23.2538 O   0  0  0  0  0  0  0  0  0  0  0  0
  2  3  2  0
  2  1  1  0
  4  3  1  0
  5  4  2  0
  6  5  1  0
  7  6  1  0
  7  9  1  0
  7  8  1  1
  9 19  1  0
  9 10  2  0
 11  5  1  0
 11 12  2  0
 12  2  1  0
 14 15  2  0
 14 13  1  0
 16 14  1  0
 17 16  1  0
 18 17  1  1
 19 18  1  0
 20 18  1  0
 20 21  2  0
 22 20  1  0
 23 22  1  0
 24 23  1  0
 25 24  2  0
 26 24  1  0
M  END
$$$$
