YQG.pdb
     RDKit          3D

 26 26  0  0  1  0  0  0  0  0999 V2000
    5.8713  -10.8902   27.8954 O   0  0  0  0  0  0  0  0  0  0  0  0
    6.2784  -12.1086   27.3521 C   0  0  0  0  0  0  0  0  0  0  0  0
    5.7586  -12.4624   26.1221 C   0  0  0  0  0  0  0  0  0  0  0  0
    6.1143  -13.6595   25.5137 C   0  0  0  0  0  0  0  0  0  0  0  0
    6.9977  -14.5121   26.1393 C   0  0  0  0  0  0  0  0  0  0  0  0
    7.4286  -15.8119   25.5539 C   0  0  0  0  0  0  0  0  0  0  0  0
    6.5811  -16.0449   24.3373 C   0  0  2  0  0  0  0  0  0  0  0  0
    5.9876  -17.3592   24.4660 N   0  0  0  0  0  0  0  0  0  0  0  0
    7.2770  -15.9384   23.0697 C   0  0  0  0  0  0  0  0  0  0  0  0
    7.4217  -16.9723   22.3725 O   0  0  0  0  0  0  0  0  0  0  0  0
    7.5049  -14.1407   27.3660 C   0  0  0  0  0  0  0  0  0  0  0  0
    7.1629  -12.9534   27.9873 C   0  0  0  0  0  0  0  0  0  0  0  0
    6.5620  -13.8270   18.4636 N   0  0  0  0  0  0  0  0  0  0  0  0
    7.9455  -13.7583   18.1906 C   0  0  0  0  0  0  0  0  0  0  0  0
    8.3904  -14.0586   17.0553 O   0  0  0  0  0  0  0  0  0  0  0  0
    8.8901  -13.3308   19.2413 C   0  0  0  0  0  0  0  0  0  0  0  0
    8.2103  -13.3059   20.5955 C   0  0  0  0  0  0  0  0  0  0  0  0
    8.3742  -14.6794   21.2038 C   0  0  2  0  0  0  0  0  0  0  0  0
    7.8213  -14.7336   22.5390 N   0  0  0  0  0  0  0  0  0  0  0  0
    9.7885  -15.1358   21.1893 C   0  0  0  0  0  0  0  0  0  0  0  0
   10.3611  -15.4172   20.0933 O   0  0  0  0  0  0  0  0  0  0  0  0
   10.5267  -15.2667   22.3940 N   0  0  0  0  0  0  0  0  0  0  0  0
   11.4973  -16.3301   22.5349 C   0  0  0  0  0  0  0  0  0  0  0  0
   12.8087  -15.9088   21.9953 C   0  0  0  0  0  0  0  0  0  0  0  0
   13.8356  -16.6087   22.1864 O   0  0  0  0  0  0  0  0  0  0  0  0
   12.8890  -14.7147   21.2662 O   0  0  0  0  0  0  0  0  0  0  0  0
  2  3  2  0
  2  1  1  0
  4  3  1  0
  5  4  2  0
  6  5  1  0
  7  6  1  0
  7  9  1  0
  7  8  1  1
  9 19  1  0
  9 10  2  0
 11  5  1  0
 11 12  2  0
 12  2  1  0
 14 15  2  0
 14 13  1  0
 16 14  1  0
 17 16  1  0
 18 17  1  1
 19 18  1  0
 20 18  1  0
 20 21  2  0
 22 20  1  0
 23 22  1  0
 24 23  1  0
 25 24  2  0
 26 24  1  0
M  END
$$$$
