YQG.pdb
     RDKit          3D

 26 26  0  0  1  0  0  0  0  0999 V2000
    6.9582  -15.3406   15.2594 O   0  0  0  0  0  0  0  0  0  0  0  0
    7.4791  -15.1700   16.5419 C   0  0  0  0  0  0  0  0  0  0  0  0
    8.3018  -14.0810   16.7550 C   0  0  0  0  0  0  0  0  0  0  0  0
    8.8603  -13.8411   18.0042 C   0  0  0  0  0  0  0  0  0  0  0  0
    8.5950  -14.6968   19.0511 C   0  0  0  0  0  0  0  0  0  0  0  0
    9.1543  -14.5091   20.4184 C   0  0  0  0  0  0  0  0  0  0  0  0
    8.0232  -14.0546   21.2940 C   0  0  2  0  0  0  0  0  0  0  0  0
    7.7250  -12.6823   20.9419 N   0  0  0  0  0  0  0  0  0  0  0  0
    8.2654  -14.1579   22.7199 C   0  0  0  0  0  0  0  0  0  0  0  0
    9.2171  -13.5085   23.2185 O   0  0  0  0  0  0  0  0  0  0  0  0
    7.7718  -15.7774   18.8178 C   0  0  0  0  0  0  0  0  0  0  0  0
    7.2066  -16.0328   17.5816 C   0  0  0  0  0  0  0  0  0  0  0  0
    7.1805  -12.6061   27.8306 N   0  0  0  0  0  0  0  0  0  0  0  0
    6.7088  -12.2250   26.5556 C   0  0  0  0  0  0  0  0  0  0  0  0
    6.3880  -11.0338   26.3207 O   0  0  0  0  0  0  0  0  0  0  0  0
    6.5866  -13.2267   25.4783 C   0  0  0  0  0  0  0  0  0  0  0  0
    6.9725  -14.6036   25.9803 C   0  0  0  0  0  0  0  0  0  0  0  0
    7.9371  -15.1917   24.9769 C   0  0  2  0  0  0  0  0  0  0  0  0
    7.4976  -14.9512   23.6202 N   0  0  0  0  0  0  0  0  0  0  0  0
    8.1822  -16.6384   25.2134 C   0  0  0  0  0  0  0  0  0  0  0  0
    7.7988  -17.5012   24.3669 O   0  0  0  0  0  0  0  0  0  0  0  0
    8.8468  -17.0851   26.3847 N   0  0  0  0  0  0  0  0  0  0  0  0
    9.0875  -18.4975   26.5849 C   0  0  0  0  0  0  0  0  0  0  0  0
    9.6455  -18.7416   27.9330 C   0  0  0  0  0  0  0  0  0  0  0  0
    9.8631  -17.7853   28.7198 O   0  0  0  0  0  0  0  0  0  0  0  0
    9.9284  -20.0582   28.3206 O   0  0  0  0  0  0  0  0  0  0  0  0
  2  3  2  0
  2  1  1  0
  4  3  1  0
  5  4  2  0
  6  5  1  0
  7  6  1  0
  7  9  1  0
  7  8  1  1
  9 19  1  0
  9 10  2  0
 11  5  1  0
 11 12  2  0
 12  2  1  0
 14 15  2  0
 14 13  1  0
 16 14  1  0
 17 16  1  0
 18 17  1  1
 19 18  1  0
 20 18  1  0
 20 21  2  0
 22 20  1  0
 23 22  1  0
 24 23  1  0
 25 24  2  0
 26 24  1  0
M  END
$$$$
