YQG.pdb
     RDKit          3D

 26 26  0  0  1  0  0  0  0  0999 V2000
    5.3292  -10.4681   26.2961 O   0  0  0  0  0  0  0  0  0  0  0  0
    6.0375  -11.6679   26.2325 C   0  0  0  0  0  0  0  0  0  0  0  0
    7.0628  -11.7536   25.3108 C   0  0  0  0  0  0  0  0  0  0  0  0
    7.8158  -12.9143   25.1855 C   0  0  0  0  0  0  0  0  0  0  0  0
    7.5427  -14.0003   25.9883 C   0  0  0  0  0  0  0  0  0  0  0  0
    8.3028  -15.2789   25.9157 C   0  0  0  0  0  0  0  0  0  0  0  0
    7.7758  -16.0331   24.7299 C   0  0  2  0  0  0  0  0  0  0  0  0
    6.4689  -16.5446   25.0856 N   0  0  0  0  0  0  0  0  0  0  0  0
    8.6196  -17.1150   24.2608 C   0  0  0  0  0  0  0  0  0  0  0  0
    8.1714  -18.2873   24.2947 O   0  0  0  0  0  0  0  0  0  0  0  0
    6.5156  -13.8946   26.9015 C   0  0  0  0  0  0  0  0  0  0  0  0
    5.7551  -12.7479   27.0409 C   0  0  0  0  0  0  0  0  0  0  0  0
    9.5689  -16.8000   19.0493 N   0  0  0  0  0  0  0  0  0  0  0  0
   10.5471  -17.8122   19.1586 C   0  0  0  0  0  0  0  0  0  0  0  0
   10.8032  -18.5637   18.1857 O   0  0  0  0  0  0  0  0  0  0  0  0
   11.2842  -18.0000   20.4237 C   0  0  0  0  0  0  0  0  0  0  0  0
   10.8096  -17.0139   21.4721 C   0  0  0  0  0  0  0  0  0  0  0  0
   10.4568  -17.8093   22.7075 C   0  0  2  0  0  0  0  0  0  0  0  0
    9.9415  -16.9551   23.7545 N   0  0  0  0  0  0  0  0  0  0  0  0
   11.5981  -18.6272   23.1947 C   0  0  0  0  0  0  0  0  0  0  0  0
   12.0297  -19.6012   22.5069 O   0  0  0  0  0  0  0  0  0  0  0  0
   12.2276  -18.3391   24.4333 N   0  0  0  0  0  0  0  0  0  0  0  0
   13.2952  -17.3647   24.4920 C   0  0  0  0  0  0  0  0  0  0  0  0
   14.5968  -18.0349   24.7043 C   0  0  0  0  0  0  0  0  0  0  0  0
   14.9933  -18.9302   23.9155 O   0  0  0  0  0  0  0  0  0  0  0  0
   15.3829  -17.6557   25.8006 O   0  0  0  0  0  0  0  0  0  0  0  0
  2  3  2  0
  2  1  1  0
  4  3  1  0
  5  4  2  0
  6  5  1  0
  7  6  1  0
  7  9  1  0
  7  8  1  1
  9 19  1  0
  9 10  2  0
 11  5  1  0
 11 12  2  0
 12  2  1  0
 14 15  2  0
 14 13  1  0
 16 14  1  0
 17 16  1  0
 18 17  1  6
 19 18  1  0
 20 18  1  0
 20 21  2  0
 22 20  1  0
 23 22  1  0
 24 23  1  0
 25 24  2  0
 26 24  1  0
M  END
$$$$
