YQG.pdb
     RDKit          3D

 26 26  0  0  1  0  0  0  0  0999 V2000
    6.1061  -10.6786   27.5405 O   0  0  0  0  0  0  0  0  0  0  0  0
    6.5683  -11.9425   27.1741 C   0  0  0  0  0  0  0  0  0  0  0  0
    7.8048  -12.3312   27.6516 C   0  0  0  0  0  0  0  0  0  0  0  0
    8.3355  -13.5746   27.3321 C   0  0  0  0  0  0  0  0  0  0  0  0
    7.6248  -14.4388   26.5280 C   0  0  0  0  0  0  0  0  0  0  0  0
    8.1237  -15.7873   26.1403 C   0  0  0  0  0  0  0  0  0  0  0  0
    7.2182  -16.2923   25.0551 C   0  0  2  0  0  0  0  0  0  0  0  0
    6.5138  -17.4442   25.5775 N   0  0  0  0  0  0  0  0  0  0  0  0
    7.8776  -16.6382   23.8109 C   0  0  0  0  0  0  0  0  0  0  0  0
    8.1117  -17.8475   23.5684 O   0  0  0  0  0  0  0  0  0  0  0  0
    6.3931  -14.0321   26.0618 C   0  0  0  0  0  0  0  0  0  0  0  0
    5.8482  -12.7985   26.3688 C   0  0  0  0  0  0  0  0  0  0  0  0
    5.1892  -17.4294   21.1177 N   0  0  0  0  0  0  0  0  0  0  0  0
    6.0187  -16.6935   20.2439 C   0  0  0  0  0  0  0  0  0  0  0  0
    6.3571  -17.1667   19.1311 O   0  0  0  0  0  0  0  0  0  0  0  0
    6.5005  -15.3525   20.6298 C   0  0  0  0  0  0  0  0  0  0  0  0
    8.0001  -15.2461   20.4384 C   0  0  0  0  0  0  0  0  0  0  0  0
    8.6480  -16.1229   21.4847 C   0  0  2  0  0  0  0  0  0  0  0  0
    8.2903  -15.7007   22.8208 N   0  0  0  0  0  0  0  0  0  0  0  0
   10.1235  -16.1964   21.3217 C   0  0  0  0  0  0  0  0  0  0  0  0
   10.6345  -16.3734   20.1747 O   0  0  0  0  0  0  0  0  0  0  0  0
   10.9894  -16.0709   22.4387 N   0  0  0  0  0  0  0  0  0  0  0  0
   12.4166  -16.2342   22.2686 C   0  0  0  0  0  0  0  0  0  0  0  0
   13.1082  -16.1341   23.5725 C   0  0  0  0  0  0  0  0  0  0  0  0
   12.4963  -16.3780   24.6434 O   0  0  0  0  0  0  0  0  0  0  0  0
   14.4591  -15.7623   23.5956 O   0  0  0  0  0  0  0  0  0  0  0  0
  2  3  2  0
  2  1  1  0
  4  3  1  0
  5  4  2  0
  6  5  1  0
  7  6  1  0
  7  9  1  0
  7  8  1  1
  9 19  1  0
  9 10  2  0
 11  5  1  0
 11 12  2  0
 12  2  1  0
 14 15  2  0
 14 13  1  0
 16 14  1  0
 17 16  1  0
 18 17  1  6
 19 18  1  0
 20 18  1  0
 20 21  2  0
 22 20  1  0
 23 22  1  0
 24 23  1  0
 25 24  2  0
 26 24  1  0
M  END
$$$$
