VQR.pdb
     RDKit          3D

 28 27  0  0  1  0  0  0  0  0999 V2000
    6.9150  -13.2233   19.5974 C   0  0  0  0  0  0  0  0  0  0  0  0
    8.2361  -13.7741   20.0529 C   0  0  2  0  0  0  0  0  0  0  0  0
    9.2054  -12.7140   20.4810 C   0  0  0  0  0  0  0  0  0  0  0  0
    8.8537  -14.5313   18.8941 C   0  0  2  0  0  0  0  0  0  0  0  0
    7.9685  -15.5001   18.3419 N   0  0  0  0  0  0  0  0  0  0  0  0
   10.1487  -15.1095   19.3624 C   0  0  0  0  0  0  0  0  0  0  0  0
   10.1292  -16.2350   19.8770 O   0  0  0  0  0  0  0  0  0  0  0  0
   15.6562  -13.1443   16.9790 N   0  0  0  0  0  0  0  0  0  0  0  0
   16.0808  -14.0659   17.9974 C   0  0  0  0  0  0  0  0  0  0  0  0
   17.2756  -14.3304   18.1236 O   0  0  0  0  0  0  0  0  0  0  0  0
   15.0596  -14.6996   18.9076 C   0  0  0  0  0  0  0  0  0  0  0  0
   13.7018  -14.2557   18.5054 C   0  0  0  0  0  0  0  0  0  0  0  0
   12.6464  -14.8358   19.4186 C   0  0  2  0  0  0  0  0  0  0  0  0
   11.3169  -14.3662   19.2029 N   0  0  0  0  0  0  0  0  0  0  0  0
   13.0431  -14.9370   20.8295 C   0  0  0  0  0  0  0  0  0  0  0  0
   13.2354  -13.8594   21.4488 O   0  0  0  0  0  0  0  0  0  0  0  0
   12.4765  -21.6401   26.1723 N   0  0  0  0  0  0  0  0  0  0  0  0
   11.2922  -21.1131   25.5846 C   0  0  0  0  0  0  0  0  0  0  0  0
   10.2196  -21.7949   25.4625 N   0  0  0  0  0  0  0  0  0  0  0  0
   11.3123  -19.7753   25.1188 N   0  0  0  0  0  0  0  0  0  0  0  0
   12.2003  -19.3976   24.0066 C   0  0  0  0  0  0  0  0  0  0  0  0
   12.9275  -18.1479   24.3045 C   0  0  0  0  0  0  0  0  0  0  0  0
   13.7930  -17.5834   23.2869 C   0  0  0  0  0  0  0  0  0  0  0  0
   13.7227  -16.1626   22.9100 C   0  0  2  0  0  0  0  0  0  0  0  0
   13.2139  -16.1480   21.5045 N   0  0  0  0  0  0  0  0  0  0  0  0
   14.9056  -15.3270   22.8658 C   0  0  0  0  0  0  0  0  0  0  0  0
   15.7839  -15.4578   21.9969 O   0  0  0  0  0  0  0  0  0  0  0  0
   15.1092  -14.3207   23.8169 O   0  0  0  0  0  0  0  0  0  0  0  0
  2  1  1  6
  3  2  1  0
  4  2  1  0
  4  5  1  1
  6  4  1  0
  7  6  2  0
  9  8  1  0
  9 11  1  0
 10  9  2  0
 12 11  1  0
 13 12  1  6
 13 14  1  0
 14  6  1  0
 15 25  1  0
 15 13  1  0
 16 15  2  0
 17 18  1  0
 18 19  2  0
 20 18  1  0
 21 20  1  0
 22 21  1  0
 23 22  1  0
 24 23  1  6
 24 25  1  0
 26 28  1  0
 26 24  1  0
 27 26  2  0
M  END
$$$$
