VQR.pdb
     RDKit          3D

 28 27  0  0  1  0  0  0  0  0999 V2000
    2.9370  -19.7030   21.7186 C   0  0  0  0  0  0  0  0  0  0  0  0
    3.4490  -20.8512   20.8965 C   0  0  2  0  0  0  0  0  0  0  0  0
    2.3966  -21.8703   20.5798 C   0  0  0  0  0  0  0  0  0  0  0  0
    4.5450  -21.5408   21.6844 C   0  0  2  0  0  0  0  0  0  0  0  0
    4.0709  -22.0973   22.9061 N   0  0  0  0  0  0  0  0  0  0  0  0
    5.6597  -20.5645   21.8703 C   0  0  0  0  0  0  0  0  0  0  0  0
    6.2028  -20.1043   20.8577 O   0  0  0  0  0  0  0  0  0  0  0  0
    6.6727  -17.0184   27.0359 N   0  0  0  0  0  0  0  0  0  0  0  0
    7.2454  -18.3296   27.1753 C   0  0  0  0  0  0  0  0  0  0  0  0
    7.6128  -18.7224   28.2817 O   0  0  0  0  0  0  0  0  0  0  0  0
    7.3885  -19.2174   25.9652 C   0  0  0  0  0  0  0  0  0  0  0  0
    6.8706  -18.5052   24.7706 C   0  0  0  0  0  0  0  0  0  0  0  0
    7.0929  -19.3157   23.5144 C   0  0  2  0  0  0  0  0  0  0  0  0
    6.0410  -20.2131   23.1640 N   0  0  0  0  0  0  0  0  0  0  0  0
    8.4470  -19.8671   23.3706 C   0  0  0  0  0  0  0  0  0  0  0  0
    8.5833  -21.1044   23.5503 O   0  0  0  0  0  0  0  0  0  0  0  0
   13.6412  -17.8030   17.0435 N   0  0  0  0  0  0  0  0  0  0  0  0
   12.8937  -19.0029   16.8785 C   0  0  0  0  0  0  0  0  0  0  0  0
   12.8407  -19.6366   15.7714 N   0  0  0  0  0  0  0  0  0  0  0  0
   12.1822  -19.5089   17.9942 N   0  0  0  0  0  0  0  0  0  0  0  0
   12.3748  -18.9060   19.3237 C   0  0  0  0  0  0  0  0  0  0  0  0
   11.5384  -19.5749   20.3397 C   0  0  0  0  0  0  0  0  0  0  0  0
   11.4895  -19.0215   21.6794 C   0  0  0  0  0  0  0  0  0  0  0  0
   10.8876  -19.7589   22.8017 C   0  0  2  0  0  0  0  0  0  0  0  0
    9.5693  -19.0996   23.0502 N   0  0  0  0  0  0  0  0  0  0  0  0
   11.5131  -19.8010   24.1080 C   0  0  0  0  0  0  0  0  0  0  0  0
   11.6350  -18.7924   24.8231 O   0  0  0  0  0  0  0  0  0  0  0  0
   12.0131  -21.0012   24.6259 O   0  0  0  0  0  0  0  0  0  0  0  0
  2  1  1  1
  3  2  1  0
  4  2  1  0
  4  5  1  1
  6  4  1  0
  7  6  2  0
  9  8  1  0
  9 11  1  0
 10  9  2  0
 12 11  1  0
 13 12  1  1
 13 14  1  0
 14  6  1  0
 15 25  1  0
 15 13  1  0
 16 15  2  0
 17 18  1  0
 18 19  2  0
 20 18  1  0
 21 20  1  0
 22 21  1  0
 23 22  1  0
 24 23  1  6
 24 25  1  0
 26 28  1  0
 26 24  1  0
 27 26  2  0
M  END
$$$$
