VQR.pdb
     RDKit          3D

 28 27  0  0  1  0  0  0  0  0999 V2000
    7.8151  -19.5052   27.6130 C   0  0  0  0  0  0  0  0  0  0  0  0
    6.5104  -19.9063   26.9859 C   0  0  2  0  0  0  0  0  0  0  0  0
    6.3255  -21.3911   26.8985 C   0  0  0  0  0  0  0  0  0  0  0  0
    6.4751  -19.3474   25.5773 C   0  0  2  0  0  0  0  0  0  0  0  0
    7.5011  -19.8867   24.7506 N   0  0  0  0  0  0  0  0  0  0  0  0
    6.5127  -17.8576   25.6741 C   0  0  0  0  0  0  0  0  0  0  0  0
    5.7222  -17.3065   26.4510 O   0  0  0  0  0  0  0  0  0  0  0  0
   10.0758  -16.0521   29.0367 N   0  0  0  0  0  0  0  0  0  0  0  0
    9.9589  -14.7752   28.3867 C   0  0  0  0  0  0  0  0  0  0  0  0
   10.3813  -13.7635   28.9447 O   0  0  0  0  0  0  0  0  0  0  0  0
    9.3231  -14.6841   27.0227 C   0  0  0  0  0  0  0  0  0  0  0  0
    8.6664  -15.9754   26.7007 C   0  0  0  0  0  0  0  0  0  0  0  0
    8.1358  -15.9785   25.2854 C   0  0  2  0  0  0  0  0  0  0  0  0
    7.4276  -17.1531   24.8937 N   0  0  0  0  0  0  0  0  0  0  0  0
    9.0695  -15.4570   24.2782 C   0  0  0  0  0  0  0  0  0  0  0  0
    9.6776  -14.3923   24.5582 O   0  0  0  0  0  0  0  0  0  0  0  0
    9.2983  -14.1275   17.2658 N   0  0  0  0  0  0  0  0  0  0  0  0
    7.9261  -13.9651   17.6072 C   0  0  0  0  0  0  0  0  0  0  0  0
    6.9843  -14.5600   16.9833 N   0  0  0  0  0  0  0  0  0  0  0  0
    7.6002  -13.1062   18.6857 N   0  0  0  0  0  0  0  0  0  0  0  0
    7.7706  -13.5708   20.0725 C   0  0  0  0  0  0  0  0  0  0  0  0
    9.1994  -13.6879   20.4247 C   0  0  0  0  0  0  0  0  0  0  0  0
    9.5565  -14.1064   21.7667 C   0  0  0  0  0  0  0  0  0  0  0  0
   10.1834  -15.4113   22.0310 C   0  0  2  0  0  0  0  0  0  0  0  0
    9.3109  -16.0736   23.0482 N   0  0  0  0  0  0  0  0  0  0  0  0
   11.5169  -15.5166   22.5877 C   0  0  0  0  0  0  0  0  0  0  0  0
   11.7266  -15.5942   23.8099 O   0  0  0  0  0  0  0  0  0  0  0  0
   12.6423  -15.5361   21.7559 O   0  0  0  0  0  0  0  0  0  0  0  0
  2  1  1  6
  3  2  1  0
  4  2  1  0
  4  5  1  6
  6  4  1  0
  7  6  2  0
  9  8  1  0
  9 11  1  0
 10  9  2  0
 12 11  1  0
 13 12  1  1
 13 14  1  0
 14  6  1  0
 15 25  1  0
 15 13  1  0
 16 15  2  0
 17 18  1  0
 18 19  2  0
 20 18  1  0
 21 20  1  0
 22 21  1  0
 23 22  1  0
 24 23  1  1
 24 25  1  0
 26 28  1  0
 26 24  1  0
 27 26  2  0
M  END
$$$$
