VQR.pdb
     RDKit          3D

 28 27  0  0  1  0  0  0  0  0999 V2000
    7.2467  -19.8630   19.2397 C   0  0  0  0  0  0  0  0  0  0  0  0
    6.0662  -19.0893   18.7258 C   0  0  2  0  0  0  0  0  0  0  0  0
    5.0017  -19.9584   18.1275 C   0  0  0  0  0  0  0  0  0  0  0  0
    6.5579  -18.1437   17.6478 C   0  0  2  0  0  0  0  0  0  0  0  0
    7.0417  -18.8310   16.4987 N   0  0  0  0  0  0  0  0  0  0  0  0
    7.5682  -17.2323   18.2634 C   0  0  0  0  0  0  0  0  0  0  0  0
    8.7631  -17.5396   18.1647 O   0  0  0  0  0  0  0  0  0  0  0  0
    9.1812  -12.5245   18.1725 N   0  0  0  0  0  0  0  0  0  0  0  0
    9.4162  -12.5165   19.5907 C   0  0  0  0  0  0  0  0  0  0  0  0
   10.5245  -12.2064   20.0256 O   0  0  0  0  0  0  0  0  0  0  0  0
    8.3017  -12.8840   20.5371 C   0  0  0  0  0  0  0  0  0  0  0  0
    7.3468  -13.7842   19.8440 C   0  0  0  0  0  0  0  0  0  0  0  0
    7.9524  -15.1504   19.6179 C   0  0  2  0  0  0  0  0  0  0  0  0
    7.1301  -16.0827   18.9183 N   0  0  0  0  0  0  0  0  0  0  0  0
    8.6657  -15.7055   20.7761 C   0  0  0  0  0  0  0  0  0  0  0  0
    7.9651  -16.1254   21.7324 O   0  0  0  0  0  0  0  0  0  0  0  0
   12.2953  -20.0510   17.5417 N   0  0  0  0  0  0  0  0  0  0  0  0
   11.8157  -21.0387   18.4473 C   0  0  0  0  0  0  0  0  0  0  0  0
   11.2854  -22.1330   18.0581 N   0  0  0  0  0  0  0  0  0  0  0  0
   11.9359  -20.7900   19.8368 N   0  0  0  0  0  0  0  0  0  0  0  0
   12.4570  -19.4965   20.3095 C   0  0  0  0  0  0  0  0  0  0  0  0
   11.3940  -18.6920   20.9436 C   0  0  0  0  0  0  0  0  0  0  0  0
   11.7189  -17.3662   21.4336 C   0  0  0  0  0  0  0  0  0  0  0  0
   10.6980  -16.4853   22.0228 C   0  0  2  0  0  0  0  0  0  0  0  0
   10.0573  -15.7885   20.8659 N   0  0  0  0  0  0  0  0  0  0  0  0
   11.0501  -15.4121   22.9303 C   0  0  0  0  0  0  0  0  0  0  0  0
   11.0690  -15.5592   24.1638 O   0  0  0  0  0  0  0  0  0  0  0  0
   11.3896  -14.1441   22.4446 O   0  0  0  0  0  0  0  0  0  0  0  0
  2  1  1  6
  3  2  1  0
  4  2  1  0
  4  5  1  6
  6  4  1  0
  7  6  2  0
  9  8  1  0
  9 11  1  0
 10  9  2  0
 12 11  1  0
 13 12  1  1
 13 14  1  0
 14  6  1  0
 15 25  1  0
 15 13  1  0
 16 15  2  0
 17 18  1  0
 18 19  2  0
 20 18  1  0
 21 20  1  0
 22 21  1  0
 23 22  1  0
 24 23  1  6
 24 25  1  0
 26 28  1  0
 26 24  1  0
 27 26  2  0
M  END
$$$$
