VQR.pdb
     RDKit          3D

 28 27  0  0  1  0  0  0  0  0999 V2000
    6.1000  -19.6384   20.9372 C   0  0  0  0  0  0  0  0  0  0  0  0
    5.6811  -20.9548   21.5269 C   0  0  2  0  0  0  0  0  0  0  0  0
    5.0980  -21.8983   20.5187 C   0  0  0  0  0  0  0  0  0  0  0  0
    4.6238  -20.6830   22.5786 C   0  0  2  0  0  0  0  0  0  0  0  0
    3.3784  -20.2907   22.0112 N   0  0  0  0  0  0  0  0  0  0  0  0
    5.1793  -19.6837   23.5394 C   0  0  0  0  0  0  0  0  0  0  0  0
    4.9694  -18.4846   23.3154 O   0  0  0  0  0  0  0  0  0  0  0  0
    8.0834  -21.2329   29.0387 N   0  0  0  0  0  0  0  0  0  0  0  0
    8.3398  -19.8242   28.9106 C   0  0  0  0  0  0  0  0  0  0  0  0
    8.9473  -19.2295   29.7997 O   0  0  0  0  0  0  0  0  0  0  0  0
    7.8661  -19.0847   27.6851 C   0  0  0  0  0  0  0  0  0  0  0  0
    7.0901  -20.0106   26.8231 C   0  0  0  0  0  0  0  0  0  0  0  0
    6.6321  -19.3219   25.5581 C   0  0  2  0  0  0  0  0  0  0  0  0
    5.9049  -20.1362   24.6399 N   0  0  0  0  0  0  0  0  0  0  0  0
    7.6328  -18.4406   24.9416 C   0  0  0  0  0  0  0  0  0  0  0  0
    8.3220  -18.9229   24.0066 O   0  0  0  0  0  0  0  0  0  0  0  0
    7.4916  -14.2306   18.5055 N   0  0  0  0  0  0  0  0  0  0  0  0
    8.0680  -13.1373   19.2112 C   0  0  0  0  0  0  0  0  0  0  0  0
    8.3436  -12.0229   18.6523 N   0  0  0  0  0  0  0  0  0  0  0  0
    8.3438  -13.3001   20.5912 N   0  0  0  0  0  0  0  0  0  0  0  0
    7.7817  -14.4478   21.3227 C   0  0  0  0  0  0  0  0  0  0  0  0
    8.2003  -14.4358   22.7383 C   0  0  0  0  0  0  0  0  0  0  0  0
    7.7662  -15.5149   23.6046 C   0  0  0  0  0  0  0  0  0  0  0  0
    8.7013  -16.2144   24.5001 C   0  0  2  0  0  0  0  0  0  0  0  0
    7.8524  -17.1183   25.3349 N   0  0  0  0  0  0  0  0  0  0  0  0
    9.5104  -15.4987   25.4657 C   0  0  0  0  0  0  0  0  0  0  0  0
   10.6109  -15.0000   25.1765 O   0  0  0  0  0  0  0  0  0  0  0  0
    9.0762  -15.3371   26.7864 O   0  0  0  0  0  0  0  0  0  0  0  0
  2  1  1  6
  3  2  1  0
  4  2  1  0
  4  5  1  6
  6  4  1  0
  7  6  2  0
  9  8  1  0
  9 11  1  0
 10  9  2  0
 12 11  1  0
 13 12  1  1
 13 14  1  0
 14  6  1  0
 15 25  1  0
 15 13  1  0
 16 15  2  0
 17 18  1  0
 18 19  2  0
 20 18  1  0
 21 20  1  0
 22 21  1  0
 23 22  1  0
 24 23  1  1
 24 25  1  0
 26 28  1  0
 26 24  1  0
 27 26  2  0
M  END
$$$$
