VQR.pdb
     RDKit          3D

 28 27  0  0  1  0  0  0  0  0999 V2000
    7.1856  -12.3976   19.0157 C   0  0  0  0  0  0  0  0  0  0  0  0
    7.9817  -13.4008   19.8005 C   0  0  2  0  0  0  0  0  0  0  0  0
    9.3439  -12.9078   20.1852 C   0  0  0  0  0  0  0  0  0  0  0  0
    8.1579  -14.6366   18.9406 C   0  0  2  0  0  0  0  0  0  0  0  0
    6.9170  -15.1669   18.4869 N   0  0  0  0  0  0  0  0  0  0  0  0
    8.9766  -15.6190   19.7120 C   0  0  0  0  0  0  0  0  0  0  0  0
    8.4009  -16.3185   20.5554 O   0  0  0  0  0  0  0  0  0  0  0  0
   14.4111  -18.0873   17.6888 N   0  0  0  0  0  0  0  0  0  0  0  0
   14.2877  -18.6262   19.0159 C   0  0  0  0  0  0  0  0  0  0  0  0
   15.0728  -19.4918   19.4002 O   0  0  0  0  0  0  0  0  0  0  0  0
   13.1992  -18.1243   19.9303 C   0  0  0  0  0  0  0  0  0  0  0  0
   12.3686  -17.1311   19.2048 C   0  0  0  0  0  0  0  0  0  0  0  0
   11.2593  -16.6024   20.0847 C   0  0  2  0  0  0  0  0  0  0  0  0
   10.3433  -15.7089   19.4543 N   0  0  0  0  0  0  0  0  0  0  0  0
   11.6830  -16.2008   21.4329 C   0  0  0  0  0  0  0  0  0  0  0  0
   12.2869  -15.1028   21.5398 O   0  0  0  0  0  0  0  0  0  0  0  0
   10.7424  -16.0580   29.8940 N   0  0  0  0  0  0  0  0  0  0  0  0
   10.0268  -14.9405   29.3795 C   0  0  0  0  0  0  0  0  0  0  0  0
    9.7526  -13.9121   30.0846 N   0  0  0  0  0  0  0  0  0  0  0  0
    9.6052  -14.9785   28.0275 N   0  0  0  0  0  0  0  0  0  0  0  0
   10.0245  -16.0903   27.1578 C   0  0  0  0  0  0  0  0  0  0  0  0
   10.3204  -15.6170   25.7912 C   0  0  0  0  0  0  0  0  0  0  0  0
   10.6586  -16.5918   24.7719 C   0  0  0  0  0  0  0  0  0  0  0  0
   11.8521  -16.4446   23.9237 C   0  0  2  0  0  0  0  0  0  0  0  0
   11.4525  -16.9637   22.5801 N   0  0  0  0  0  0  0  0  0  0  0  0
   13.0869  -17.1429   24.2189 C   0  0  0  0  0  0  0  0  0  0  0  0
   14.0020  -16.6298   24.8844 O   0  0  0  0  0  0  0  0  0  0  0  0
   13.3016  -18.4469   23.7583 O   0  0  0  0  0  0  0  0  0  0  0  0
  2  1  1  6
  3  2  1  0
  4  2  1  0
  4  5  1  1
  6  4  1  0
  7  6  2  0
  9  8  1  0
  9 11  1  0
 10  9  2  0
 12 11  1  0
 13 12  1  6
 13 14  1  0
 14  6  1  0
 15 25  1  0
 15 13  1  0
 16 15  2  0
 17 18  1  0
 18 19  2  0
 20 18  1  0
 21 20  1  0
 22 21  1  0
 23 22  1  0
 24 23  1  1
 24 25  1  0
 26 28  1  0
 26 24  1  0
 27 26  2  0
M  END
$$$$
