VQR.pdb
     RDKit          3D

 28 27  0  0  1  0  0  0  0  0999 V2000
    7.6215  -12.5169   19.9854 C   0  0  0  0  0  0  0  0  0  0  0  0
    8.5225  -13.4132   19.1848 C   0  0  2  0  0  0  0  0  0  0  0  0
    7.9756  -13.7477   17.8300 C   0  0  0  0  0  0  0  0  0  0  0  0
    8.6969  -14.7093   19.9513 C   0  0  2  0  0  0  0  0  0  0  0  0
    7.4843  -15.4479   20.0568 N   0  0  0  0  0  0  0  0  0  0  0  0
    9.3089  -14.3813   21.2735 C   0  0  0  0  0  0  0  0  0  0  0  0
   10.4967  -14.0339   21.2928 O   0  0  0  0  0  0  0  0  0  0  0  0
    5.9815  -12.3536   26.1672 N   0  0  0  0  0  0  0  0  0  0  0  0
    5.9217  -13.7823   26.0186 C   0  0  0  0  0  0  0  0  0  0  0  0
    5.0380  -14.4203   26.5889 O   0  0  0  0  0  0  0  0  0  0  0  0
    6.9402  -14.4898   25.1613 C   0  0  0  0  0  0  0  0  0  0  0  0
    7.9012  -13.4963   24.6208 C   0  0  0  0  0  0  0  0  0  0  0  0
    8.9415  -14.1628   23.7501 C   0  0  2  0  0  0  0  0  0  0  0  0
    8.5260  -14.4781   22.4225 N   0  0  0  0  0  0  0  0  0  0  0  0
    9.7198  -15.2143   24.4186 C   0  0  0  0  0  0  0  0  0  0  0  0
   10.1671  -14.9543   25.5649 O   0  0  0  0  0  0  0  0  0  0  0  0
    8.8533  -21.1890   27.8067 N   0  0  0  0  0  0  0  0  0  0  0  0
    7.4754  -20.9086   27.5861 C   0  0  0  0  0  0  0  0  0  0  0  0
    6.5391  -21.6506   28.0366 N   0  0  0  0  0  0  0  0  0  0  0  0
    7.1372  -19.7560   26.8350 N   0  0  0  0  0  0  0  0  0  0  0  0
    8.1339  -18.6909   26.6343 C   0  0  0  0  0  0  0  0  0  0  0  0
    9.3535  -19.2154   25.9887 C   0  0  0  0  0  0  0  0  0  0  0  0
    9.7701  -18.6512   24.7192 C   0  0  0  0  0  0  0  0  0  0  0  0
   10.6993  -17.5126   24.6442 C   0  0  2  0  0  0  0  0  0  0  0  0
    9.9826  -16.4649   23.8546 N   0  0  0  0  0  0  0  0  0  0  0  0
   11.9892  -17.6239   23.9938 C   0  0  0  0  0  0  0  0  0  0  0  0
   12.2085  -17.1629   22.8612 O   0  0  0  0  0  0  0  0  0  0  0  0
   13.0592  -18.2663   24.6274 O   0  0  0  0  0  0  0  0  0  0  0  0
  2  1  1  1
  3  2  1  0
  4  2  1  0
  4  5  1  1
  6  4  1  0
  7  6  2  0
  9  8  1  0
  9 11  1  0
 10  9  2  0
 12 11  1  0
 13 12  1  1
 13 14  1  0
 14  6  1  0
 15 25  1  0
 15 13  1  0
 16 15  2  0
 17 18  1  0
 18 19  2  0
 20 18  1  0
 21 20  1  0
 22 21  1  0
 23 22  1  0
 24 23  1  6
 24 25  1  0
 26 28  1  0
 26 24  1  0
 27 26  2  0
M  END
$$$$
