VQR.pdb
     RDKit          3D

 28 27  0  0  1  0  0  0  0  0999 V2000
    6.9695  -17.5524   17.1516 C   0  0  0  0  0  0  0  0  0  0  0  0
    7.7267  -18.7519   17.6456 C   0  0  2  0  0  0  0  0  0  0  0  0
    6.9720  -20.0371   17.4867 C   0  0  0  0  0  0  0  0  0  0  0  0
    8.0075  -18.5546   19.1220 C   0  0  2  0  0  0  0  0  0  0  0  0
    6.8182  -18.5243   19.9041 N   0  0  0  0  0  0  0  0  0  0  0  0
    8.8459  -17.3275   19.2692 C   0  0  0  0  0  0  0  0  0  0  0  0
    9.9722  -17.3294   18.7560 O   0  0  0  0  0  0  0  0  0  0  0  0
    9.2253  -12.4869   18.2241 N   0  0  0  0  0  0  0  0  0  0  0  0
    7.9408  -13.1084   18.0490 C   0  0  0  0  0  0  0  0  0  0  0  0
    7.4366  -13.1658   16.9283 O   0  0  0  0  0  0  0  0  0  0  0  0
    7.2211  -13.6900   19.2392 C   0  0  0  0  0  0  0  0  0  0  0  0
    8.1639  -13.7913   20.3808 C   0  0  0  0  0  0  0  0  0  0  0  0
    9.0255  -15.0280   20.2675 C   0  0  2  0  0  0  0  0  0  0  0  0
    8.3321  -16.2390   19.9718 N   0  0  0  0  0  0  0  0  0  0  0  0
   10.0652  -15.1490   21.2983 C   0  0  0  0  0  0  0  0  0  0  0  0
    9.6850  -15.1537   22.4971 O   0  0  0  0  0  0  0  0  0  0  0  0
   11.7734  -20.8541   26.1106 N   0  0  0  0  0  0  0  0  0  0  0  0
   13.1176  -20.3998   25.9988 C   0  0  0  0  0  0  0  0  0  0  0  0
   14.1085  -21.0524   26.4703 N   0  0  0  0  0  0  0  0  0  0  0  0
   13.3577  -19.1716   25.3347 N   0  0  0  0  0  0  0  0  0  0  0  0
   12.4492  -18.7242   24.2657 C   0  0  0  0  0  0  0  0  0  0  0  0
   12.8975  -17.4431   23.6852 C   0  0  0  0  0  0  0  0  0  0  0  0
   12.0580  -16.7909   22.6987 C   0  0  0  0  0  0  0  0  0  0  0  0
   12.4105  -15.4834   22.1229 C   0  0  2  0  0  0  0  0  0  0  0  0
   11.4294  -15.2570   21.0181 N   0  0  0  0  0  0  0  0  0  0  0  0
   13.6992  -15.2460   21.5048 C   0  0  0  0  0  0  0  0  0  0  0  0
   14.7722  -15.4546   22.0954 O   0  0  0  0  0  0  0  0  0  0  0  0
   13.7884  -14.7642   20.1938 O   0  0  0  0  0  0  0  0  0  0  0  0
  2  1  1  1
  3  2  1  0
  4  2  1  0
  4  5  1  1
  6  4  1  0
  7  6  2  0
  9  8  1  0
  9 11  1  0
 10  9  2  0
 12 11  1  0
 13 12  1  1
 13 14  1  0
 14  6  1  0
 15 25  1  0
 15 13  1  0
 16 15  2  0
 17 18  1  0
 18 19  2  0
 20 18  1  0
 21 20  1  0
 22 21  1  0
 23 22  1  0
 24 23  1  6
 24 25  1  0
 26 28  1  0
 26 24  1  0
 27 26  2  0
M  END
$$$$
