VQR.pdb
     RDKit          3D

 28 27  0  0  1  0  0  0  0  0999 V2000
    7.4500  -12.1945   19.3003 C   0  0  0  0  0  0  0  0  0  0  0  0
    7.8898  -13.5630   19.7361 C   0  0  2  0  0  0  0  0  0  0  0  0
    8.6784  -13.5553   21.0107 C   0  0  0  0  0  0  0  0  0  0  0  0
    8.7692  -14.1429   18.6461 C   0  0  2  0  0  0  0  0  0  0  0  0
    8.1068  -14.2074   17.3875 N   0  0  0  0  0  0  0  0  0  0  0  0
    9.2738  -15.4663   19.1197 C   0  0  0  0  0  0  0  0  0  0  0  0
    8.9104  -16.4787   18.5073 O   0  0  0  0  0  0  0  0  0  0  0  0
   12.9614  -19.3531   18.4249 N   0  0  0  0  0  0  0  0  0  0  0  0
   13.0087  -17.9736   18.0229 C   0  0  0  0  0  0  0  0  0  0  0  0
   13.7823  -17.6216   17.1335 O   0  0  0  0  0  0  0  0  0  0  0  0
   12.1067  -16.9671   18.6909 C   0  0  0  0  0  0  0  0  0  0  0  0
   11.2815  -17.6528   19.7163 C   0  0  0  0  0  0  0  0  0  0  0  0
   10.7647  -16.6725   20.7442 C   0  0  2  0  0  0  0  0  0  0  0  0
   10.1259  -15.5090   20.2218 N   0  0  0  0  0  0  0  0  0  0  0  0
   11.6773  -16.4226   21.8680 C   0  0  0  0  0  0  0  0  0  0  0  0
   12.2512  -15.3040   21.9016 O   0  0  0  0  0  0  0  0  0  0  0  0
   10.5977  -15.4084   28.3012 N   0  0  0  0  0  0  0  0  0  0  0  0
    9.9260  -14.1772   28.0592 C   0  0  0  0  0  0  0  0  0  0  0  0
   10.1115  -13.1369   28.7759 N   0  0  0  0  0  0  0  0  0  0  0  0
    9.0157  -14.1112   26.9757 N   0  0  0  0  0  0  0  0  0  0  0  0
    9.4447  -14.5246   25.6291 C   0  0  0  0  0  0  0  0  0  0  0  0
    9.7170  -15.9746   25.5771 C   0  0  0  0  0  0  0  0  0  0  0  0
   10.2907  -16.5351   24.3686 C   0  0  0  0  0  0  0  0  0  0  0  0
   11.6898  -16.9876   24.3119 C   0  0  2  0  0  0  0  0  0  0  0  0
   11.9341  -17.3484   22.8820 N   0  0  0  0  0  0  0  0  0  0  0  0
   12.1456  -18.1473   25.0514 C   0  0  0  0  0  0  0  0  0  0  0  0
   11.9786  -19.3085   24.6424 O   0  0  0  0  0  0  0  0  0  0  0  0
   12.8046  -18.0030   26.2776 O   0  0  0  0  0  0  0  0  0  0  0  0
  2  1  1  6
  3  2  1  0
  4  2  1  0
  4  5  1  6
  6  4  1  0
  7  6  2  0
  9  8  1  0
  9 11  1  0
 10  9  2  0
 12 11  1  0
 13 12  1  6
 13 14  1  0
 14  6  1  0
 15 25  1  0
 15 13  1  0
 16 15  2  0
 17 18  1  0
 18 19  2  0
 20 18  1  0
 21 20  1  0
 22 21  1  0
 23 22  1  0
 24 23  1  6
 24 25  1  0
 26 28  1  0
 26 24  1  0
 27 26  2  0
M  END
$$$$
