VQR.pdb
     RDKit          3D

 28 27  0  0  1  0  0  0  0  0999 V2000
    7.5955  -13.0579   17.9522 C   0  0  0  0  0  0  0  0  0  0  0  0
    7.5074  -13.4796   19.3912 C   0  0  2  0  0  0  0  0  0  0  0  0
    7.6211  -12.3357   20.3530 C   0  0  0  0  0  0  0  0  0  0  0  0
    8.6472  -14.4392   19.6698 C   0  0  2  0  0  0  0  0  0  0  0  0
    8.6144  -15.5849   18.8252 N   0  0  0  0  0  0  0  0  0  0  0  0
    8.6196  -14.7738   21.1250 C   0  0  0  0  0  0  0  0  0  0  0  0
    8.7307  -13.8454   21.9360 O   0  0  0  0  0  0  0  0  0  0  0  0
    5.7144  -19.8858   23.2979 N   0  0  0  0  0  0  0  0  0  0  0  0
    6.9861  -20.1332   22.6748 C   0  0  0  0  0  0  0  0  0  0  0  0
    7.2841  -21.2742   22.3243 O   0  0  0  0  0  0  0  0  0  0  0  0
    7.9455  -18.9921   22.4506 C   0  0  0  0  0  0  0  0  0  0  0  0
    7.3678  -17.7476   23.0164 C   0  0  0  0  0  0  0  0  0  0  0  0
    8.3134  -16.5810   22.8444 C   0  0  2  0  0  0  0  0  0  0  0  0
    8.4711  -16.1053   21.5090 N   0  0  0  0  0  0  0  0  0  0  0  0
    9.5607  -16.6826   23.6139 C   0  0  0  0  0  0  0  0  0  0  0  0
   10.6190  -16.8838   22.9648 O   0  0  0  0  0  0  0  0  0  0  0  0
   12.2562  -19.1289   29.5440 N   0  0  0  0  0  0  0  0  0  0  0  0
   12.0971  -18.2719   30.6692 C   0  0  0  0  0  0  0  0  0  0  0  0
   11.8472  -18.7111   31.8418 N   0  0  0  0  0  0  0  0  0  0  0  0
   12.2233  -16.8748   30.4717 N   0  0  0  0  0  0  0  0  0  0  0  0
   11.3154  -16.1785   29.5449 C   0  0  0  0  0  0  0  0  0  0  0  0
   11.6861  -16.4366   28.1394 C   0  0  0  0  0  0  0  0  0  0  0  0
   10.6531  -16.3819   27.1228 C   0  0  0  0  0  0  0  0  0  0  0  0
   10.9481  -16.6338   25.7032 C   0  0  2  0  0  0  0  0  0  0  0  0
    9.6282  -16.5688   25.0045 N   0  0  0  0  0  0  0  0  0  0  0  0
   11.5232  -17.8860   25.2555 C   0  0  0  0  0  0  0  0  0  0  0  0
   10.8315  -18.8873   25.0052 O   0  0  0  0  0  0  0  0  0  0  0  0
   12.9057  -18.0198   25.0833 O   0  0  0  0  0  0  0  0  0  0  0  0
  2  1  1  6
  3  2  1  0
  4  2  1  0
  4  5  1  6
  6  4  1  0
  7  6  2  0
  9  8  1  0
  9 11  1  0
 10  9  2  0
 12 11  1  0
 13 12  1  6
 13 14  1  0
 14  6  1  0
 15 25  1  0
 15 13  1  0
 16 15  2  0
 17 18  1  0
 18 19  2  0
 20 18  1  0
 21 20  1  0
 22 21  1  0
 23 22  1  0
 24 23  1  1
 24 25  1  0
 26 28  1  0
 26 24  1  0
 27 26  2  0
M  END
$$$$
