EMY.pdb
     RDKit          3D

 30 30  0  0  1  0  0  0  0  0999 V2000
    8.1060  -16.8368   18.9645 N   0  0  0  0  0  0  0  0  0  0  0  0
    7.7250  -17.0555   20.3273 C   0  0  1  0  0  0  0  0  0  0  0  0
    8.1215  -18.3784   20.9195 C   0  0  0  0  0  0  0  0  0  0  0  0
    9.5019  -18.8360   20.7036 C   0  0  0  0  0  0  0  0  0  0  0  0
    9.8772  -20.1526   21.1876 C   0  0  0  0  0  0  0  0  0  0  0  0
    9.0344  -21.0281   21.4588 O   0  0  0  0  0  0  0  0  0  0  0  0
    8.3228  -16.0064   21.2185 C   0  0  0  0  0  0  0  0  0  0  0  0
    9.3573  -15.4355   20.7958 O   0  0  0  0  0  0  0  0  0  0  0  0
   11.2171  -20.5303   21.3836 O   0  0  0  0  0  0  0  0  0  0  0  0
    6.5628  -11.3281   27.3255 C   0  0  0  0  0  0  0  0  0  0  0  0
    6.1136  -12.7045   26.2233 S   0  0  0  0  0  0  0  0  0  0  0  0
    7.4673  -12.9837   25.0872 C   0  0  0  0  0  0  0  0  0  0  0  0
    7.1463  -14.1189   24.1716 C   0  0  0  0  0  0  0  0  0  0  0  0
    8.2486  -14.5024   23.2398 C   0  0  2  0  0  0  0  0  0  0  0  0
    7.7796  -15.6643   22.4570 N   0  0  0  0  0  0  0  0  0  0  0  0
    9.3957  -14.9954   24.0563 C   0  0  0  0  0  0  0  0  0  0  0  0
    9.7926  -14.3162   25.0343 O   0  0  0  0  0  0  0  0  0  0  0  0
   10.6853  -14.1681   30.5711 O   0  0  0  0  0  0  0  0  0  0  0  0
   10.4297  -14.8892   29.4046 C   0  0  0  0  0  0  0  0  0  0  0  0
    9.4633  -14.5295   28.5025 C   0  0  0  0  0  0  0  0  0  0  0  0
    9.2823  -15.2992   27.3812 C   0  0  0  0  0  0  0  0  0  0  0  0
   10.0247  -16.4249   27.1093 C   0  0  0  0  0  0  0  0  0  0  0  0
    9.8654  -17.2866   25.9263 C   0  0  0  0  0  0  0  0  0  0  0  0
   10.7966  -16.8837   24.8139 C   0  0  2  0  0  0  0  0  0  0  0  0
   10.0478  -16.2123   23.7533 N   0  0  0  0  0  0  0  0  0  0  0  0
   11.5953  -17.9892   24.2560 C   0  0  0  0  0  0  0  0  0  0  0  0
   11.4505  -18.3247   22.9304 O   0  0  0  0  0  0  0  0  0  0  0  0
   10.9987  -16.7848   28.0222 C   0  0  0  0  0  0  0  0  0  0  0  0
   11.1958  -16.0264   29.1514 C   0  0  0  0  0  0  0  0  0  0  0  0
   12.3923  -18.6137   24.9715 O   0  0  0  0  0  0  0  0  0  0  0  0
  2  1  1  6
  2  3  1  0
  3  4  1  0
  4  5  1  0
  5  6  2  0
  7  2  1  0
  7  8  2  0
  9  5  1  0
 10 11  1  0
 11 12  1  0
 13 12  1  0
 14 13  1  1
 14 15  1  0
 15  7  1  0
 16 14  1  0
 17 16  2  0
 18 19  1  0
 19 20  2  0
 19 29  1  0
 20 21  1  0
 21 22  2  0
 22 23  1  0
 24 23  1  1
 24 25  1  0
 24 26  1  0
 25 16  1  0
 26 27  1  0
 28 22  1  0
 29 28  2  0
 30 26  2  0
M  END
$$$$
