EMY.pdb
     RDKit          3D

 30 30  0  0  1  0  0  0  0  0999 V2000
    9.2745  -16.1944   18.1227 N   0  0  0  0  0  0  0  0  0  0  0  0
    8.2750  -16.3050   19.1421 C   0  0  1  0  0  0  0  0  0  0  0  0
    7.7217  -17.6820   19.3777 C   0  0  0  0  0  0  0  0  0  0  0  0
    8.3725  -18.8056   18.6882 C   0  0  0  0  0  0  0  0  0  0  0  0
    7.8381  -20.1412   18.8868 C   0  0  0  0  0  0  0  0  0  0  0  0
    7.3274  -20.7990   17.9612 O   0  0  0  0  0  0  0  0  0  0  0  0
    8.8146  -15.8431   20.4640 C   0  0  0  0  0  0  0  0  0  0  0  0
   10.0637  -15.7884   20.5710 O   0  0  0  0  0  0  0  0  0  0  0  0
    7.8602  -20.7840   20.1370 O   0  0  0  0  0  0  0  0  0  0  0  0
    6.8642  -12.0445   27.0920 C   0  0  0  0  0  0  0  0  0  0  0  0
    6.3658  -12.7798   25.5039 S   0  0  0  0  0  0  0  0  0  0  0  0
    7.7803  -13.6208   24.8017 C   0  0  0  0  0  0  0  0  0  0  0  0
    7.4296  -14.1946   23.4683 C   0  0  0  0  0  0  0  0  0  0  0  0
    8.5290  -14.9592   22.8073 C   0  0  2  0  0  0  0  0  0  0  0  0
    7.9947  -15.4885   21.5355 N   0  0  0  0  0  0  0  0  0  0  0  0
    8.8362  -16.1516   23.6495 C   0  0  0  0  0  0  0  0  0  0  0  0
    7.8938  -16.8035   24.1614 O   0  0  0  0  0  0  0  0  0  0  0  0
   11.1948  -15.4740   31.4434 O   0  0  0  0  0  0  0  0  0  0  0  0
   11.0658  -15.3403   30.0608 C   0  0  0  0  0  0  0  0  0  0  0  0
   10.5604  -14.2151   29.4646 C   0  0  0  0  0  0  0  0  0  0  0  0
   10.4707  -14.1721   28.0961 C   0  0  0  0  0  0  0  0  0  0  0  0
   10.8636  -15.2075   27.2801 C   0  0  0  0  0  0  0  0  0  0  0  0
   10.7819  -15.2133   25.8102 C   0  0  0  0  0  0  0  0  0  0  0  0
   10.6478  -16.6105   25.2650 C   0  0  2  0  0  0  0  0  0  0  0  0
   10.1672  -16.5650   23.8854 N   0  0  0  0  0  0  0  0  0  0  0  0
    9.7987  -17.5024   26.0741 C   0  0  0  0  0  0  0  0  0  0  0  0
    8.4490  -17.2542   26.1608 O   0  0  0  0  0  0  0  0  0  0  0  0
   11.3727  -16.3414   27.8856 C   0  0  0  0  0  0  0  0  0  0  0  0
   11.4712  -16.4036   29.2550 C   0  0  0  0  0  0  0  0  0  0  0  0
   10.2923  -18.4696   26.6726 O   0  0  0  0  0  0  0  0  0  0  0  0
  2  1  1  6
  2  3  1  0
  3  4  1  0
  4  5  1  0
  5  6  2  0
  7  2  1  0
  7  8  2  0
  9  5  1  0
 10 11  1  0
 11 12  1  0
 13 12  1  0
 14 13  1  1
 14 15  1  0
 15  7  1  0
 16 14  1  0
 17 16  2  0
 18 19  1  0
 19 20  2  0
 19 29  1  0
 20 21  1  0
 21 22  2  0
 22 23  1  0
 24 23  1  1
 24 25  1  0
 24 26  1  0
 25 16  1  0
 26 27  1  0
 28 22  1  0
 29 28  2  0
 30 26  2  0
M  END
$$$$
