EMY.pdb
     RDKit          3D

 30 30  0  0  1  0  0  0  0  0999 V2000
    9.9521  -19.6086   20.2850 N   0  0  0  0  0  0  0  0  0  0  0  0
   11.0928  -18.7514   20.1657 C   0  0  1  0  0  0  0  0  0  0  0  0
   11.7343  -18.6911   18.8083 C   0  0  0  0  0  0  0  0  0  0  0  0
   11.1058  -19.4574   17.7223 C   0  0  0  0  0  0  0  0  0  0  0  0
   11.7140  -19.4143   16.4043 C   0  0  0  0  0  0  0  0  0  0  0  0
   11.2232  -20.0053   15.4244 O   0  0  0  0  0  0  0  0  0  0  0  0
   10.7310  -17.3379   20.5166 C   0  0  0  0  0  0  0  0  0  0  0  0
   11.6013  -16.4634   20.2872 O   0  0  0  0  0  0  0  0  0  0  0  0
   12.8983  -18.7031   16.1432 O   0  0  0  0  0  0  0  0  0  0  0  0
    6.8847  -11.3623   20.9686 C   0  0  0  0  0  0  0  0  0  0  0  0
    7.5650  -12.9828   20.4972 S   0  0  0  0  0  0  0  0  0  0  0  0
    7.0662  -14.1843   21.7256 C   0  0  0  0  0  0  0  0  0  0  0  0
    7.6305  -15.5264   21.3933 C   0  0  0  0  0  0  0  0  0  0  0  0
    9.1221  -15.5842   21.3469 C   0  0  2  0  0  0  0  0  0  0  0  0
    9.5004  -16.9855   21.0709 N   0  0  0  0  0  0  0  0  0  0  0  0
    9.6407  -15.2819   22.7126 C   0  0  0  0  0  0  0  0  0  0  0  0
    9.4665  -14.1378   23.1984 O   0  0  0  0  0  0  0  0  0  0  0  0
   10.6555  -14.7180   31.0962 O   0  0  0  0  0  0  0  0  0  0  0  0
   10.3850  -14.8226   29.7316 C   0  0  0  0  0  0  0  0  0  0  0  0
   10.4501  -13.7555   28.8748 C   0  0  0  0  0  0  0  0  0  0  0  0
   10.1675  -13.9522   27.5467 C   0  0  0  0  0  0  0  0  0  0  0  0
    9.8180  -15.1746   27.0214 C   0  0  0  0  0  0  0  0  0  0  0  0
    9.4995  -15.4362   25.6081 C   0  0  0  0  0  0  0  0  0  0  0  0
   10.7024  -15.9278   24.8475 C   0  0  2  0  0  0  0  0  0  0  0  0
   10.3257  -16.2561   23.4739 N   0  0  0  0  0  0  0  0  0  0  0  0
   11.3973  -17.0661   25.4741 C   0  0  0  0  0  0  0  0  0  0  0  0
   11.2084  -18.3320   24.9714 O   0  0  0  0  0  0  0  0  0  0  0  0
    9.7531  -16.2489   27.8893 C   0  0  0  0  0  0  0  0  0  0  0  0
   10.0331  -16.0723   29.2233 C   0  0  0  0  0  0  0  0  0  0  0  0
   12.1470  -16.8888   26.4455 O   0  0  0  0  0  0  0  0  0  0  0  0
  2  1  1  6
  2  3  1  0
  3  4  1  0
  4  5  1  0
  5  6  2  0
  7  2  1  0
  7  8  2  0
  9  5  1  0
 10 11  1  0
 11 12  1  0
 13 12  1  0
 14 13  1  1
 14 15  1  0
 15  7  1  0
 16 14  1  0
 17 16  2  0
 18 19  1  0
 19 20  2  0
 19 29  1  0
 20 21  1  0
 21 22  2  0
 22 23  1  0
 24 23  1  1
 24 25  1  0
 24 26  1  0
 25 16  1  0
 26 27  1  0
 28 22  1  0
 29 28  2  0
 30 26  2  0
M  END
$$$$
