EMY.pdb
     RDKit          3D

 30 30  0  0  1  0  0  0  0  0999 V2000
    8.1077  -17.9048   19.6411 N   0  0  0  0  0  0  0  0  0  0  0  0
    9.2526  -17.1001   19.3378 C   0  0  1  0  0  0  0  0  0  0  0  0
    9.1189  -16.1800   18.1574 C   0  0  0  0  0  0  0  0  0  0  0  0
    9.8395  -16.5396   16.9274 C   0  0  0  0  0  0  0  0  0  0  0  0
    9.3469  -17.6552   16.1389 C   0  0  0  0  0  0  0  0  0  0  0  0
    8.2098  -17.6619   15.6316 O   0  0  0  0  0  0  0  0  0  0  0  0
    9.6099  -16.2275   20.5054 C   0  0  0  0  0  0  0  0  0  0  0  0
   10.7643  -15.7355   20.5045 O   0  0  0  0  0  0  0  0  0  0  0  0
   10.1188  -18.8043   15.8937 O   0  0  0  0  0  0  0  0  0  0  0  0
    6.8264  -12.3710   26.7935 C   0  0  0  0  0  0  0  0  0  0  0  0
    6.5053  -13.3615   25.3013 S   0  0  0  0  0  0  0  0  0  0  0  0
    8.0660  -13.9929   24.6954 C   0  0  0  0  0  0  0  0  0  0  0  0
    7.8633  -14.7176   23.4056 C   0  0  0  0  0  0  0  0  0  0  0  0
    9.1185  -15.1924   22.7505 C   0  0  2  0  0  0  0  0  0  0  0  0
    8.7262  -15.9613   21.5514 N   0  0  0  0  0  0  0  0  0  0  0  0
    9.7782  -16.1693   23.6650 C   0  0  0  0  0  0  0  0  0  0  0  0
    9.5484  -17.3953   23.5259 O   0  0  0  0  0  0  0  0  0  0  0  0
    9.8172  -14.4211   31.1245 O   0  0  0  0  0  0  0  0  0  0  0  0
   10.4320  -14.7683   29.9214 C   0  0  0  0  0  0  0  0  0  0  0  0
   10.4699  -13.9336   28.8355 C   0  0  0  0  0  0  0  0  0  0  0  0
   11.0977  -14.3596   27.6923 C   0  0  0  0  0  0  0  0  0  0  0  0
   11.6973  -15.5919   27.5737 C   0  0  0  0  0  0  0  0  0  0  0  0
   12.3765  -16.0977   26.3695 C   0  0  0  0  0  0  0  0  0  0  0  0
   11.4115  -16.7593   25.4217 C   0  0  2  0  0  0  0  0  0  0  0  0
   10.6577  -15.7452   24.6870 N   0  0  0  0  0  0  0  0  0  0  0  0
   10.4928  -17.7196   26.0580 C   0  0  0  0  0  0  0  0  0  0  0  0
   10.9773  -18.9306   26.4934 O   0  0  0  0  0  0  0  0  0  0  0  0
   11.6565  -16.4315   28.6715 C   0  0  0  0  0  0  0  0  0  0  0  0
   11.0329  -16.0229   29.8261 C   0  0  0  0  0  0  0  0  0  0  0  0
    9.2929  -17.4424   26.2020 O   0  0  0  0  0  0  0  0  0  0  0  0
  2  1  1  1
  2  3  1  0
  3  4  1  0
  4  5  1  0
  5  6  2  0
  7  2  1  0
  7  8  2  0
  9  5  1  0
 10 11  1  0
 11 12  1  0
 13 12  1  0
 14 13  1  1
 14 15  1  0
 15  7  1  0
 16 14  1  0
 17 16  2  0
 18 19  1  0
 19 20  2  0
 19 29  1  0
 20 21  1  0
 21 22  2  0
 22 23  1  0
 24 23  1  1
 24 25  1  0
 24 26  1  0
 25 16  1  0
 26 27  1  0
 28 22  1  0
 29 28  2  0
 30 26  2  0
M  END
$$$$
