EMY.pdb
     RDKit          3D

 30 30  0  0  1  0  0  0  0  0999 V2000
   10.0179  -21.2175   19.9890 N   0  0  0  0  0  0  0  0  0  0  0  0
   10.7995  -20.3777   20.8457 C   0  0  1  0  0  0  0  0  0  0  0  0
   11.3074  -19.1021   20.2353 C   0  0  0  0  0  0  0  0  0  0  0  0
   11.0313  -18.8708   18.8099 C   0  0  0  0  0  0  0  0  0  0  0  0
   11.6674  -17.7402   18.1573 C   0  0  0  0  0  0  0  0  0  0  0  0
   11.4201  -17.4258   16.9782 O   0  0  0  0  0  0  0  0  0  0  0  0
   10.0079  -19.9726   22.0546 C   0  0  0  0  0  0  0  0  0  0  0  0
    8.7712  -19.8334   21.8935 O   0  0  0  0  0  0  0  0  0  0  0  0
   12.6059  -16.9225   18.8108 O   0  0  0  0  0  0  0  0  0  0  0  0
   11.6063  -21.8728   27.8994 C   0  0  0  0  0  0  0  0  0  0  0  0
   11.0464  -20.1977   28.3373 S   0  0  0  0  0  0  0  0  0  0  0  0
    9.9989  -19.5896   27.0203 C   0  0  0  0  0  0  0  0  0  0  0  0
   10.6050  -19.9042   25.6923 C   0  0  0  0  0  0  0  0  0  0  0  0
    9.7932  -19.4720   24.5156 C   0  0  2  0  0  0  0  0  0  0  0  0
   10.5896  -19.7539   23.3035 N   0  0  0  0  0  0  0  0  0  0  0  0
    9.6466  -17.9885   24.5729 C   0  0  0  0  0  0  0  0  0  0  0  0
   10.6107  -17.2607   24.2322 O   0  0  0  0  0  0  0  0  0  0  0  0
    6.4334  -10.0343   26.4708 O   0  0  0  0  0  0  0  0  0  0  0  0
    6.5446  -11.3862   26.1450 C   0  0  0  0  0  0  0  0  0  0  0  0
    6.1873  -12.3919   27.0040 C   0  0  0  0  0  0  0  0  0  0  0  0
    6.3311  -13.6945   26.5977 C   0  0  0  0  0  0  0  0  0  0  0  0
    6.8199  -14.0512   25.3623 C   0  0  0  0  0  0  0  0  0  0  0  0
    6.9993  -15.4312   24.8819 C   0  0  0  0  0  0  0  0  0  0  0  0
    8.4018  -15.9256   25.1179 C   0  0  2  0  0  0  0  0  0  0  0  0
    8.4445  -17.3821   25.0033 N   0  0  0  0  0  0  0  0  0  0  0  0
    8.9937  -15.4948   26.3966 C   0  0  0  0  0  0  0  0  0  0  0  0
    9.7071  -14.3204   26.4487 O   0  0  0  0  0  0  0  0  0  0  0  0
    7.1797  -13.0334   24.4985 C   0  0  0  0  0  0  0  0  0  0  0  0
    7.0428  -11.7222   24.8868 C   0  0  0  0  0  0  0  0  0  0  0  0
    8.8519  -16.1816   27.4191 O   0  0  0  0  0  0  0  0  0  0  0  0
  2  1  1  6
  2  3  1  0
  3  4  1  0
  4  5  1  0
  5  6  2  0
  7  2  1  0
  7  8  2  0
  9  5  1  0
 10 11  1  0
 11 12  1  0
 13 12  1  0
 14 13  1  1
 14 15  1  0
 15  7  1  0
 16 14  1  0
 17 16  2  0
 18 19  1  0
 19 20  2  0
 19 29  1  0
 20 21  1  0
 21 22  2  0
 22 23  1  0
 24 23  1  1
 24 25  1  0
 24 26  1  0
 25 16  1  0
 26 27  1  0
 28 22  1  0
 29 28  2  0
 30 26  2  0
M  END
$$$$
