EMY.pdb
     RDKit          3D

 30 30  0  0  1  0  0  0  0  0999 V2000
    8.3700  -19.9992   19.0630 N   0  0  0  0  0  0  0  0  0  0  0  0
    7.7035  -19.3607   20.1578 C   0  0  1  0  0  0  0  0  0  0  0  0
    7.4449  -20.2184   21.3641 C   0  0  0  0  0  0  0  0  0  0  0  0
    8.0729  -21.5471   21.4036 C   0  0  0  0  0  0  0  0  0  0  0  0
    8.6713  -21.9920   22.6497 C   0  0  0  0  0  0  0  0  0  0  0  0
    7.9878  -22.3157   23.6388 O   0  0  0  0  0  0  0  0  0  0  0  0
    8.4977  -18.1852   20.6472 C   0  0  0  0  0  0  0  0  0  0  0  0
    9.7051  -18.1442   20.3076 O   0  0  0  0  0  0  0  0  0  0  0  0
   10.0627  -22.0880   22.8260 O   0  0  0  0  0  0  0  0  0  0  0  0
    8.0468  -11.7775   18.8365 C   0  0  0  0  0  0  0  0  0  0  0  0
    7.3284  -12.2464   20.4412 S   0  0  0  0  0  0  0  0  0  0  0  0
    8.4076  -13.4456   21.2150 C   0  0  0  0  0  0  0  0  0  0  0  0
    7.7943  -14.8058   21.1548 C   0  0  0  0  0  0  0  0  0  0  0  0
    8.6471  -15.9017   21.7041 C   0  0  2  0  0  0  0  0  0  0  0  0
    7.9495  -17.1772   21.4405 N   0  0  0  0  0  0  0  0  0  0  0  0
    8.6888  -15.7574   23.1884 C   0  0  0  0  0  0  0  0  0  0  0  0
    8.1407  -14.7647   23.7263 O   0  0  0  0  0  0  0  0  0  0  0  0
    6.7673  -10.8874   26.6754 O   0  0  0  0  0  0  0  0  0  0  0  0
    6.9619  -12.2548   26.4794 C   0  0  0  0  0  0  0  0  0  0  0  0
    5.9285  -13.1379   26.3082 C   0  0  0  0  0  0  0  0  0  0  0  0
    6.2148  -14.4667   26.1211 C   0  0  0  0  0  0  0  0  0  0  0  0
    7.4957  -14.9676   26.0962 C   0  0  0  0  0  0  0  0  0  0  0  0
    7.8547  -16.3826   25.9058 C   0  0  0  0  0  0  0  0  0  0  0  0
    9.2828  -16.5394   25.4551 C   0  0  2  0  0  0  0  0  0  0  0  0
    9.3330  -16.7147   24.0049 N   0  0  0  0  0  0  0  0  0  0  0  0
   10.0195  -17.6237   26.1279 C   0  0  0  0  0  0  0  0  0  0  0  0
   10.6422  -17.3733   27.3281 O   0  0  0  0  0  0  0  0  0  0  0  0
    8.5358  -14.0733   26.2698 C   0  0  0  0  0  0  0  0  0  0  0  0
    8.2696  -12.7381   26.4581 C   0  0  0  0  0  0  0  0  0  0  0  0
   10.0797  -18.7533   25.6205 O   0  0  0  0  0  0  0  0  0  0  0  0
  2  1  1  6
  2  3  1  0
  3  4  1  0
  4  5  1  0
  5  6  2  0
  7  2  1  0
  7  8  2  0
  9  5  1  0
 10 11  1  0
 11 12  1  0
 13 12  1  0
 14 13  1  6
 14 15  1  0
 15  7  1  0
 16 14  1  0
 17 16  2  0
 18 19  1  0
 19 20  2  0
 19 29  1  0
 20 21  1  0
 21 22  2  0
 22 23  1  0
 24 23  1  1
 24 25  1  0
 24 26  1  0
 25 16  1  0
 26 27  1  0
 28 22  1  0
 29 28  2  0
 30 26  2  0
M  END
$$$$
