EMY.pdb
     RDKit          3D

 30 30  0  0  1  0  0  0  0  0999 V2000
    7.7454  -18.0126   21.2401 N   0  0  0  0  0  0  0  0  0  0  0  0
    9.0698  -17.5526   21.5310 C   0  0  1  0  0  0  0  0  0  0  0  0
    9.8228  -16.9402   20.3839 C   0  0  0  0  0  0  0  0  0  0  0  0
    9.7124  -17.5913   19.0704 C   0  0  0  0  0  0  0  0  0  0  0  0
   10.4695  -17.0408   17.9603 C   0  0  0  0  0  0  0  0  0  0  0  0
   11.7144  -17.0411   17.9375 O   0  0  0  0  0  0  0  0  0  0  0  0
    9.0427  -16.5120   22.6120 C   0  0  0  0  0  0  0  0  0  0  0  0
   10.0689  -15.7994   22.7295 O   0  0  0  0  0  0  0  0  0  0  0  0
    9.8502  -16.4695   16.8348 O   0  0  0  0  0  0  0  0  0  0  0  0
    6.8617  -11.0192   26.8265 C   0  0  0  0  0  0  0  0  0  0  0  0
    7.2828  -12.0523   25.3889 S   0  0  0  0  0  0  0  0  0  0  0  0
    6.3945  -13.5994   25.5250 C   0  0  0  0  0  0  0  0  0  0  0  0
    6.7189  -14.4841   24.3665 C   0  0  0  0  0  0  0  0  0  0  0  0
    7.9419  -15.3227   24.5426 C   0  0  2  0  0  0  0  0  0  0  0  0
    7.9488  -16.3252   23.4572 N   0  0  0  0  0  0  0  0  0  0  0  0
    7.7965  -16.0943   25.8111 C   0  0  0  0  0  0  0  0  0  0  0  0
    6.7034  -16.6545   26.0695 O   0  0  0  0  0  0  0  0  0  0  0  0
    5.7386  -22.8107   26.6331 O   0  0  0  0  0  0  0  0  0  0  0  0
    6.6011  -21.7315   26.4391 C   0  0  0  0  0  0  0  0  0  0  0  0
    6.5576  -20.9332   25.3265 C   0  0  0  0  0  0  0  0  0  0  0  0
    7.4458  -19.8928   25.2207 C   0  0  0  0  0  0  0  0  0  0  0  0
    8.3886  -19.6036   26.1797 C   0  0  0  0  0  0  0  0  0  0  0  0
    9.3665  -18.5052   26.1106 C   0  0  0  0  0  0  0  0  0  0  0  0
    9.1960  -17.5349   27.2493 C   0  0  2  0  0  0  0  0  0  0  0  0
    8.8634  -16.2093   26.7311 N   0  0  0  0  0  0  0  0  0  0  0  0
   10.3515  -17.4537   28.1601 C   0  0  0  0  0  0  0  0  0  0  0  0
   11.4343  -16.6818   27.8099 O   0  0  0  0  0  0  0  0  0  0  0  0
    8.4296  -20.4117   27.3008 C   0  0  0  0  0  0  0  0  0  0  0  0
    7.5479  -21.4587   27.4256 C   0  0  0  0  0  0  0  0  0  0  0  0
   10.3516  -18.0736   29.2338 O   0  0  0  0  0  0  0  0  0  0  0  0
  2  1  1  6
  2  3  1  0
  3  4  1  0
  4  5  1  0
  5  6  2  0
  7  2  1  0
  7  8  2  0
  9  5  1  0
 10 11  1  0
 11 12  1  0
 13 12  1  0
 14 13  1  6
 14 15  1  0
 15  7  1  0
 16 14  1  0
 17 16  2  0
 18 19  1  0
 19 20  2  0
 19 29  1  0
 20 21  1  0
 21 22  2  0
 22 23  1  0
 24 23  1  6
 24 25  1  0
 24 26  1  0
 25 16  1  0
 26 27  1  0
 28 22  1  0
 29 28  2  0
 30 26  2  0
M  END
$$$$
