EMY.pdb
     RDKit          3D

 30 30  0  0  1  0  0  0  0  0999 V2000
   11.6215  -16.4430   13.0692 N   0  0  0  0  0  0  0  0  0  0  0  0
   11.0391  -17.0478   14.2291 C   0  0  1  0  0  0  0  0  0  0  0  0
   11.6083  -18.3773   14.6367 C   0  0  0  0  0  0  0  0  0  0  0  0
   12.6951  -18.9339   13.8178 C   0  0  0  0  0  0  0  0  0  0  0  0
   13.9978  -19.1194   14.4321 C   0  0  0  0  0  0  0  0  0  0  0  0
   15.0350  -18.6190   13.9588 O   0  0  0  0  0  0  0  0  0  0  0  0
   11.1853  -16.1505   15.4231 C   0  0  0  0  0  0  0  0  0  0  0  0
   12.3290  -15.6785   15.6326 O   0  0  0  0  0  0  0  0  0  0  0  0
   14.1785  -19.8765   15.6029 O   0  0  0  0  0  0  0  0  0  0  0  0
    7.2726  -11.9893   20.8103 C   0  0  0  0  0  0  0  0  0  0  0  0
    7.2432  -13.3416   19.5930 S   0  0  0  0  0  0  0  0  0  0  0  0
    8.9289  -13.7199   19.1277 C   0  0  0  0  0  0  0  0  0  0  0  0
    8.9471  -14.7584   18.0547 C   0  0  0  0  0  0  0  0  0  0  0  0
   10.3061  -15.1038   17.5409 C   0  0  2  0  0  0  0  0  0  0  0  0
   10.1237  -15.8412   16.2737 N   0  0  0  0  0  0  0  0  0  0  0  0
   10.9292  -16.0708   18.4908 C   0  0  0  0  0  0  0  0  0  0  0  0
   11.6550  -16.9921   18.0441 O   0  0  0  0  0  0  0  0  0  0  0  0
   17.2435  -15.9008   17.4349 O   0  0  0  0  0  0  0  0  0  0  0  0
   16.0859  -15.4846   18.0928 C   0  0  0  0  0  0  0  0  0  0  0  0
   15.4078  -14.3422   17.7578 C   0  0  0  0  0  0  0  0  0  0  0  0
   14.2768  -14.0111   18.4605 C   0  0  0  0  0  0  0  0  0  0  0  0
   13.7804  -14.7703   19.4947 C   0  0  0  0  0  0  0  0  0  0  0  0
   12.5773  -14.4557   20.2827 C   0  0  0  0  0  0  0  0  0  0  0  0
   11.8716  -15.7031   20.7444 C   0  0  2  0  0  0  0  0  0  0  0  0
   10.7204  -15.9735   19.8854 N   0  0  0  0  0  0  0  0  0  0  0  0
   11.4615  -15.6839   22.1596 C   0  0  0  0  0  0  0  0  0  0  0  0
   10.1346  -15.8498   22.4802 O   0  0  0  0  0  0  0  0  0  0  0  0
   14.4676  -15.9222   19.8300 C   0  0  0  0  0  0  0  0  0  0  0  0
   15.6025  -16.2712   19.1376 C   0  0  0  0  0  0  0  0  0  0  0  0
   12.3017  -15.5206   23.0565 O   0  0  0  0  0  0  0  0  0  0  0  0
  2  1  1  6
  2  3  1  0
  3  4  1  0
  4  5  1  0
  5  6  2  0
  7  2  1  0
  7  8  2  0
  9  5  1  0
 10 11  1  0
 11 12  1  0
 13 12  1  0
 14 13  1  1
 14 15  1  0
 15  7  1  0
 16 14  1  0
 17 16  2  0
 18 19  1  0
 19 20  2  0
 19 29  1  0
 20 21  1  0
 21 22  2  0
 22 23  1  0
 24 23  1  6
 24 25  1  0
 24 26  1  0
 25 16  1  0
 26 27  1  0
 28 22  1  0
 29 28  2  0
 30 26  2  0
M  END
$$$$
