PFS.pdb
     RDKit          3D

 25 26  0  0  1  0  0  0  0  0999 V2000
   27.6367  -20.5115  -17.0266 N   0  0  0  0  0  0  0  0  0  0  0  0
   28.7069  -20.5998  -18.0027 C   0  0  0  0  0  0  0  0  0  0  0  0
   29.5501  -21.7792  -17.6448 C   0  0  0  0  0  0  0  0  0  0  0  0
   28.9697  -22.2385  -16.3228 C   0  0  0  0  0  0  0  0  0  0  0  0
   27.5110  -21.8420  -16.5222 C   0  0  1  0  0  0  0  0  0  0  0  0
   26.7249  -21.9569  -15.2979 C   0  0  0  0  0  0  0  0  0  0  0  0
   26.4591  -23.1083  -14.8687 O   0  0  0  0  0  0  0  0  0  0  0  0
   26.2387  -20.8489  -14.5567 N   0  0  0  0  0  0  0  0  0  0  0  0
   25.5821  -21.0350  -13.2816 C   0  0  1  0  0  0  0  0  0  0  0  0
   26.1498  -20.1422  -12.2114 C   0  0  0  0  0  0  0  0  0  0  0  0
   25.5397  -20.3720  -10.8822 C   0  0  0  0  0  0  0  0  0  0  0  0
   24.2970  -19.7935  -10.6553 C   0  0  0  0  0  0  0  0  0  0  0  0
   23.6550  -19.9581   -9.4396 C   0  0  0  0  0  0  0  0  0  0  0  0
   24.2387  -20.6990   -8.4341 C   0  0  0  0  0  0  0  0  0  0  0  0
   25.4797  -21.2700   -8.6768 C   0  0  0  0  0  0  0  0  0  0  0  0
   26.1032  -21.0994   -9.8828 C   0  0  0  0  0  0  0  0  0  0  0  0
   24.1562  -20.6362  -13.4717 C   0  0  0  0  0  0  0  0  0  0  0  0
   23.9202  -19.4387  -13.7777 O   0  0  0  0  0  0  0  0  0  0  0  0
   20.8887  -23.2890  -13.5695 O   0  0  0  0  0  0  0  0  0  0  0  0
   21.0027  -22.2191  -14.4328 C   0  0  0  0  0  0  0  0  0  0  0  0
   21.7477  -21.0941  -13.7422 C   0  0  2  0  0  0  0  0  0  0  0  0
   23.0742  -21.5408  -13.3229 N   0  0  0  0  0  0  0  0  0  0  0  0
   21.0353  -20.6134  -12.5453 C   0  0  0  0  0  0  0  0  0  0  0  0
   21.5364  -20.7023  -11.3975 O   0  0  0  0  0  0  0  0  0  0  0  0
   19.7622  -20.0395  -12.6845 O   0  0  0  0  0  0  0  0  0  0  0  0
  1  2  1  0
  3  2  1  0
  4  5  1  0
  4  3  1  0
  5  6  1  1
  5  1  1  0
  6  7  2  0
  8  6  1  0
  8  9  1  0
  9 17  1  0
 10 11  1  0
  9 10  1  1
 11 16  1  0
 12 11  2  0
 12 13  1  0
 13 14  2  0
 14 15  1  0
 16 15  2  0
 17 18  2  0
 19 20  1  0
 21 20  1  1
 21 23  1  0
 22 21  1  0
 22 17  1  0
 23 24  2  0
 23 25  1  0
M  END
$$$$
