PFS.pdb
     RDKit          3D

 25 26  0  0  1  0  0  0  0  0999 V2000
   27.0744  -18.6511  -18.0734 N   0  0  0  0  0  0  0  0  0  0  0  0
   27.9126  -18.0992  -19.1215 C   0  0  0  0  0  0  0  0  0  0  0  0
   29.2977  -18.6171  -18.9135 C   0  0  0  0  0  0  0  0  0  0  0  0
   29.2016  -19.3598  -17.5963 C   0  0  0  0  0  0  0  0  0  0  0  0
   27.7559  -19.8391  -17.6678 C   0  0  1  0  0  0  0  0  0  0  0  0
   27.2895  -20.4081  -16.4073 C   0  0  0  0  0  0  0  0  0  0  0  0
   27.6858  -21.5588  -16.0925 O   0  0  0  0  0  0  0  0  0  0  0  0
   26.4137  -19.7442  -15.5096 N   0  0  0  0  0  0  0  0  0  0  0  0
   26.0137  -20.3617  -14.2646 C   0  0  1  0  0  0  0  0  0  0  0  0
   26.3256  -19.4978  -13.0726 C   0  0  0  0  0  0  0  0  0  0  0  0
   25.9642  -20.1344  -11.7857 C   0  0  0  0  0  0  0  0  0  0  0  0
   24.7022  -19.8499  -11.2792 C   0  0  0  0  0  0  0  0  0  0  0  0
   24.2831  -20.4032  -10.0811 C   0  0  0  0  0  0  0  0  0  0  0  0
   25.1117  -21.2458   -9.3710 C   0  0  0  0  0  0  0  0  0  0  0  0
   26.3688  -21.5197   -9.8906 C   0  0  0  0  0  0  0  0  0  0  0  0
   26.7703  -20.9661  -11.0759 C   0  0  0  0  0  0  0  0  0  0  0  0
   24.5294  -20.5119  -14.3183 C   0  0  0  0  0  0  0  0  0  0  0  0
   23.8479  -19.4887  -14.5865 O   0  0  0  0  0  0  0  0  0  0  0  0
   22.5762  -24.1792  -14.1310 O   0  0  0  0  0  0  0  0  0  0  0  0
   22.1394  -23.2070  -15.0068 C   0  0  0  0  0  0  0  0  0  0  0  0
   22.4534  -21.8387  -14.4350 C   0  0  2  0  0  0  0  0  0  0  0  0
   23.8681  -21.7441  -14.0823 N   0  0  0  0  0  0  0  0  0  0  0  0
   21.6669  -21.5536  -13.2220 C   0  0  0  0  0  0  0  0  0  0  0  0
   20.4145  -21.4692  -13.2509 O   0  0  0  0  0  0  0  0  0  0  0  0
   22.3288  -21.3703  -11.9981 O   0  0  0  0  0  0  0  0  0  0  0  0
  1  2  1  0
  3  2  1  0
  4  5  1  0
  4  3  1  0
  5  6  1  1
  5  1  1  0
  6  7  2  0
  8  6  1  0
  8  9  1  0
  9 17  1  0
 10 11  1  0
  9 10  1  1
 11 16  1  0
 12 11  2  0
 12 13  1  0
 13 14  2  0
 14 15  1  0
 16 15  2  0
 17 18  2  0
 19 20  1  0
 21 20  1  1
 21 23  1  0
 22 21  1  0
 22 17  1  0
 23 24  2  0
 23 25  1  0
M  END
$$$$
