PFS.pdb
     RDKit          3D

 25 26  0  0  1  0  0  0  0  0999 V2000
   19.1871   -9.4556  -17.3604 N   0  0  0  0  0  0  0  0  0  0  0  0
   19.1381  -10.1305  -18.6441 C   0  0  0  0  0  0  0  0  0  0  0  0
   19.1395  -11.6008  -18.3831 C   0  0  0  0  0  0  0  0  0  0  0  0
   19.3518  -11.6922  -16.8856 C   0  0  0  0  0  0  0  0  0  0  0  0
   18.6552  -10.4107  -16.4411 C   0  0  1  0  0  0  0  0  0  0  0  0
   18.8936  -10.1002  -15.0351 C   0  0  0  0  0  0  0  0  0  0  0  0
   18.3639  -10.8381  -14.1659 O   0  0  0  0  0  0  0  0  0  0  0  0
   19.6879   -9.0149  -14.5827 N   0  0  0  0  0  0  0  0  0  0  0  0
   19.9714   -8.8337  -13.1762 C   0  0  1  0  0  0  0  0  0  0  0  0
   21.3510   -8.2817  -12.9382 C   0  0  0  0  0  0  0  0  0  0  0  0
   21.7101   -8.2199  -11.5033 C   0  0  0  0  0  0  0  0  0  0  0  0
   21.6288   -6.9755  -10.8907 C   0  0  0  0  0  0  0  0  0  0  0  0
   21.9468   -6.8280   -9.5512 C   0  0  0  0  0  0  0  0  0  0  0  0
   22.3495   -7.9139   -8.8032 C   0  0  0  0  0  0  0  0  0  0  0  0
   22.4254   -9.1494   -9.4301 C   0  0  0  0  0  0  0  0  0  0  0  0
   22.1083   -9.2812  -10.7547 C   0  0  0  0  0  0  0  0  0  0  0  0
   19.0015   -7.8174  -12.6711 C   0  0  0  0  0  0  0  0  0  0  0  0
   18.7673   -6.8198  -13.4013 O   0  0  0  0  0  0  0  0  0  0  0  0
   15.6989   -6.3055   -9.5080 O   0  0  0  0  0  0  0  0  0  0  0  0
   16.5357   -7.3356   -9.8843 C   0  0  0  0  0  0  0  0  0  0  0  0
   17.3941   -6.8848  -11.0493 C   0  0  2  0  0  0  0  0  0  0  0  0
   18.3443   -7.9312  -11.4196 N   0  0  0  0  0  0  0  0  0  0  0  0
   18.1643   -5.6698  -10.7299 C   0  0  0  0  0  0  0  0  0  0  0  0
   19.2501   -5.7215  -10.1017 O   0  0  0  0  0  0  0  0  0  0  0  0
   17.6770   -4.4179  -11.1358 O   0  0  0  0  0  0  0  0  0  0  0  0
  1  2  1  0
  3  2  1  0
  4  5  1  0
  4  3  1  0
  5  6  1  1
  5  1  1  0
  6  7  2  0
  8  6  1  0
  8  9  1  0
  9 17  1  0
 10 11  1  0
  9 10  1  6
 11 16  1  0
 12 11  2  0
 12 13  1  0
 13 14  2  0
 14 15  1  0
 16 15  2  0
 17 18  2  0
 19 20  1  0
 21 20  1  1
 21 23  1  0
 22 21  1  0
 22 17  1  0
 23 24  2  0
 23 25  1  0
M  END
$$$$
