PFS.pdb
     RDKit          3D

 25 26  0  0  1  0  0  0  0  0999 V2000
   27.4230  -19.7524  -16.8170 N   0  0  0  0  0  0  0  0  0  0  0  0
   28.5089  -19.5906  -17.7658 C   0  0  0  0  0  0  0  0  0  0  0  0
   29.4740  -20.7085  -17.5446 C   0  0  0  0  0  0  0  0  0  0  0  0
   28.9315  -21.4030  -16.3120 C   0  0  0  0  0  0  0  0  0  0  0  0
   27.4403  -21.1446  -16.4977 C   0  0  1  0  0  0  0  0  0  0  0  0
   26.6561  -21.5091  -15.3220 C   0  0  0  0  0  0  0  0  0  0  0  0
   26.6379  -22.7162  -14.9711 O   0  0  0  0  0  0  0  0  0  0  0  0
   25.9094  -20.5859  -14.5451 N   0  0  0  0  0  0  0  0  0  0  0  0
   25.2723  -20.9925  -13.3122 C   0  0  1  0  0  0  0  0  0  0  0  0
   25.7727  -20.2124  -12.1266 C   0  0  0  0  0  0  0  0  0  0  0  0
   27.1781  -20.5237  -11.7802 C   0  0  0  0  0  0  0  0  0  0  0  0
   27.3862  -21.3014  -10.6479 C   0  0  0  0  0  0  0  0  0  0  0  0
   28.6691  -21.6397  -10.2519 C   0  0  0  0  0  0  0  0  0  0  0  0
   29.7614  -21.2100  -10.9752 C   0  0  0  0  0  0  0  0  0  0  0  0
   29.5364  -20.4342  -12.1033 C   0  0  0  0  0  0  0  0  0  0  0  0
   28.2631  -20.1072  -12.4834 C   0  0  0  0  0  0  0  0  0  0  0  0
   23.8195  -20.6814  -13.4576 C   0  0  0  0  0  0  0  0  0  0  0  0
   23.5073  -19.5769  -13.9734 O   0  0  0  0  0  0  0  0  0  0  0  0
   21.0905  -23.1306  -14.7147 O   0  0  0  0  0  0  0  0  0  0  0  0
   20.5906  -22.4648  -13.6147 C   0  0  0  0  0  0  0  0  0  0  0  0
   21.4133  -21.2160  -13.3674 C   0  0  2  0  0  0  0  0  0  0  0  0
   22.7937  -21.5687  -13.0434 N   0  0  0  0  0  0  0  0  0  0  0  0
   20.8795  -20.4153  -12.2515 C   0  0  0  0  0  0  0  0  0  0  0  0
   21.4910  -20.3124  -11.1598 O   0  0  0  0  0  0  0  0  0  0  0  0
   19.6551  -19.7471  -12.4061 O   0  0  0  0  0  0  0  0  0  0  0  0
  1  2  1  0
  3  2  1  0
  4  5  1  0
  4  3  1  0
  5  6  1  1
  5  1  1  0
  6  7  2  0
  8  6  1  0
  8  9  1  0
  9 17  1  0
 10 11  1  0
  9 10  1  1
 11 16  1  0
 12 11  2  0
 12 13  1  0
 13 14  2  0
 14 15  1  0
 16 15  2  0
 17 18  2  0
 19 20  1  0
 21 20  1  1
 21 23  1  0
 22 21  1  0
 22 17  1  0
 23 24  2  0
 23 25  1  0
M  END
$$$$
