PFS.pdb
     RDKit          3D

 25 26  0  0  1  0  0  0  0  0999 V2000
   27.4811  -20.6015  -17.2077 N   0  0  0  0  0  0  0  0  0  0  0  0
   28.3345  -20.6982  -18.3774 C   0  0  0  0  0  0  0  0  0  0  0  0
   29.2318  -21.8767  -18.1871 C   0  0  0  0  0  0  0  0  0  0  0  0
   28.9272  -22.3261  -16.7725 C   0  0  0  0  0  0  0  0  0  0  0  0
   27.4582  -21.9283  -16.6791 C   0  0  1  0  0  0  0  0  0  0  0  0
   26.9327  -22.0335  -15.3216 C   0  0  0  0  0  0  0  0  0  0  0  0
   26.8195  -23.1788  -14.8157 O   0  0  0  0  0  0  0  0  0  0  0  0
   26.5392  -20.9224  -14.5315 N   0  0  0  0  0  0  0  0  0  0  0  0
   26.2668  -21.0710  -13.1190 C   0  0  1  0  0  0  0  0  0  0  0  0
   26.9595  -20.0228  -12.2906 C   0  0  0  0  0  0  0  0  0  0  0  0
   26.6763  -20.1487  -10.8430 C   0  0  0  0  0  0  0  0  0  0  0  0
   27.5470  -20.9374  -10.1011 C   0  0  0  0  0  0  0  0  0  0  0  0
   27.3559  -21.1092   -8.7406 C   0  0  0  0  0  0  0  0  0  0  0  0
   26.2980  -20.5002   -8.0996 C   0  0  0  0  0  0  0  0  0  0  0  0
   25.4378  -19.7161   -8.8548 C   0  0  0  0  0  0  0  0  0  0  0  0
   25.6383  -19.5547  -10.1987 C   0  0  0  0  0  0  0  0  0  0  0  0
   24.7986  -20.8673  -12.9420 C   0  0  0  0  0  0  0  0  0  0  0  0
   24.2339  -20.0167  -13.6775 O   0  0  0  0  0  0  0  0  0  0  0  0
   20.5603  -22.0226  -10.9502 O   0  0  0  0  0  0  0  0  0  0  0  0
   21.9271  -22.2028  -10.9020 C   0  0  0  0  0  0  0  0  0  0  0  0
   22.5760  -21.4235  -12.0286 C   0  0  2  0  0  0  0  0  0  0  0  0
   24.0278  -21.5843  -11.9918 N   0  0  0  0  0  0  0  0  0  0  0  0
   22.2804  -19.9824  -11.9446 C   0  0  0  0  0  0  0  0  0  0  0  0
   21.3584  -19.4565  -12.6153 O   0  0  0  0  0  0  0  0  0  0  0  0
   23.0459  -19.1697  -11.0942 O   0  0  0  0  0  0  0  0  0  0  0  0
  1  2  1  0
  3  2  1  0
  4  5  1  0
  4  3  1  0
  5  6  1  1
  5  1  1  0
  6  7  2  0
  8  6  1  0
  8  9  1  0
  9 17  1  0
 10 11  1  0
  9 10  1  1
 11 16  1  0
 12 11  2  0
 12 13  1  0
 13 14  2  0
 14 15  1  0
 16 15  2  0
 17 18  2  0
 19 20  1  0
 21 20  1  1
 21 23  1  0
 22 21  1  0
 22 17  1  0
 23 24  2  0
 23 25  1  0
M  END
$$$$
