PFS.pdb
     RDKit          3D

 25 26  0  0  1  0  0  0  0  0999 V2000
   27.8561  -20.7986  -17.1866 N   0  0  0  0  0  0  0  0  0  0  0  0
   28.8324  -21.0146  -18.2382 C   0  0  0  0  0  0  0  0  0  0  0  0
   29.5649  -22.2773  -17.9237 C   0  0  0  0  0  0  0  0  0  0  0  0
   29.0398  -22.6570  -16.5541 C   0  0  0  0  0  0  0  0  0  0  0  0
   27.6229  -22.1021  -16.6509 C   0  0  1  0  0  0  0  0  0  0  0  0
   26.9246  -22.1174  -15.3694 C   0  0  0  0  0  0  0  0  0  0  0  0
   26.3267  -23.1703  -15.0314 O   0  0  0  0  0  0  0  0  0  0  0  0
   26.8762  -21.0163  -14.4756 N   0  0  0  0  0  0  0  0  0  0  0  0
   26.2630  -21.1407  -13.1717 C   0  0  1  0  0  0  0  0  0  0  0  0
   26.9855  -20.3398  -12.1223 C   0  0  0  0  0  0  0  0  0  0  0  0
   26.3715  -20.4570  -10.7802 C   0  0  0  0  0  0  0  0  0  0  0  0
   25.5059  -19.4401  -10.3969 C   0  0  0  0  0  0  0  0  0  0  0  0
   24.8882  -19.4707   -9.1581 C   0  0  0  0  0  0  0  0  0  0  0  0
   25.1223  -20.5112   -8.2844 C   0  0  0  0  0  0  0  0  0  0  0  0
   25.9893  -21.5187   -8.6824 C   0  0  0  0  0  0  0  0  0  0  0  0
   26.5931  -21.4760   -9.9097 C   0  0  0  0  0  0  0  0  0  0  0  0
   24.8890  -20.5688  -13.2880 C   0  0  0  0  0  0  0  0  0  0  0  0
   24.7741  -19.4227  -13.7945 O   0  0  0  0  0  0  0  0  0  0  0  0
   21.5782  -22.7077  -13.8220 O   0  0  0  0  0  0  0  0  0  0  0  0
   21.6666  -21.3759  -14.1703 C   0  0  0  0  0  0  0  0  0  0  0  0
   22.4306  -20.6261  -13.0971 C   0  0  2  0  0  0  0  0  0  0  0  0
   23.7264  -21.2568  -12.8564 N   0  0  0  0  0  0  0  0  0  0  0  0
   21.6997  -20.5965  -11.8179 C   0  0  0  0  0  0  0  0  0  0  0  0
   22.1607  -21.1330  -10.7806 O   0  0  0  0  0  0  0  0  0  0  0  0
   20.4543  -19.9532  -11.7499 O   0  0  0  0  0  0  0  0  0  0  0  0
  1  2  1  0
  3  2  1  0
  4  5  1  0
  4  3  1  0
  5  6  1  1
  5  1  1  0
  6  7  2  0
  8  6  1  0
  8  9  1  0
  9 17  1  0
 10 11  1  0
  9 10  1  1
 11 16  1  0
 12 11  2  0
 12 13  1  0
 13 14  2  0
 14 15  1  0
 16 15  2  0
 17 18  2  0
 19 20  1  0
 21 20  1  6
 21 23  1  0
 22 21  1  0
 22 17  1  0
 23 24  2  0
 23 25  1  0
M  END
$$$$
