PFS.pdb
     RDKit          3D

 25 26  0  0  1  0  0  0  0  0999 V2000
   28.1118  -20.7150  -17.3349 N   0  0  0  0  0  0  0  0  0  0  0  0
   29.0838  -20.8970  -18.3969 C   0  0  0  0  0  0  0  0  0  0  0  0
   29.7683  -22.2038  -18.1654 C   0  0  0  0  0  0  0  0  0  0  0  0
   29.2241  -22.6535  -16.8247 C   0  0  0  0  0  0  0  0  0  0  0  0
   27.8289  -22.0416  -16.8869 C   0  0  1  0  0  0  0  0  0  0  0  0
   27.1253  -22.1157  -15.6103 C   0  0  0  0  0  0  0  0  0  0  0  0
   26.6779  -23.2316  -15.2428 O   0  0  0  0  0  0  0  0  0  0  0  0
   26.9121  -21.0054  -14.7528 N   0  0  0  0  0  0  0  0  0  0  0  0
   26.2696  -21.1685  -13.4675 C   0  0  1  0  0  0  0  0  0  0  0  0
   26.9848  -20.4234  -12.3730 C   0  0  0  0  0  0  0  0  0  0  0  0
   26.2994  -20.5190  -11.0642 C   0  0  0  0  0  0  0  0  0  0  0  0
   25.7301  -19.3524  -10.5690 C   0  0  0  0  0  0  0  0  0  0  0  0
   25.0699  -19.3525   -9.3519 C   0  0  0  0  0  0  0  0  0  0  0  0
   24.9666  -20.5108   -8.6114 C   0  0  0  0  0  0  0  0  0  0  0  0
   25.5405  -21.6671   -9.1200 C   0  0  0  0  0  0  0  0  0  0  0  0
   26.1902  -21.6530  -10.3243 C   0  0  0  0  0  0  0  0  0  0  0  0
   24.9092  -20.5658  -13.5889 C   0  0  0  0  0  0  0  0  0  0  0  0
   24.8291  -19.3863  -14.0198 O   0  0  0  0  0  0  0  0  0  0  0  0
   21.6582  -22.6237  -14.2581 O   0  0  0  0  0  0  0  0  0  0  0  0
   21.5976  -21.2597  -14.4547 C   0  0  0  0  0  0  0  0  0  0  0  0
   22.4491  -20.5639  -13.4115 C   0  0  2  0  0  0  0  0  0  0  0  0
   23.7223  -21.2606  -13.2429 N   0  0  0  0  0  0  0  0  0  0  0  0
   21.7839  -20.5174  -12.0975 C   0  0  0  0  0  0  0  0  0  0  0  0
   22.2494  -21.1199  -11.0992 O   0  0  0  0  0  0  0  0  0  0  0  0
   20.5977  -19.7818  -11.9507 O   0  0  0  0  0  0  0  0  0  0  0  0
  1  2  1  0
  3  2  1  0
  4  5  1  0
  4  3  1  0
  5  6  1  1
  5  1  1  0
  6  7  2  0
  8  6  1  0
  8  9  1  0
  9 17  1  0
 10 11  1  0
  9 10  1  1
 11 16  1  0
 12 11  2  0
 12 13  1  0
 13 14  2  0
 14 15  1  0
 16 15  2  0
 17 18  2  0
 19 20  1  0
 21 20  1  6
 21 23  1  0
 22 21  1  0
 22 17  1  0
 23 24  2  0
 23 25  1  0
M  END
$$$$
