LFD.pdb
     RDKit          3D

 28 28  0  0  1  0  0  0  0  0999 V2000
    6.3925  -14.0010   19.2649 C   0  0  0  0  0  0  0  0  0  0  0  0
    7.7648  -13.5196   19.6195 C   0  0  2  0  0  0  0  0  0  0  0  0
    8.1388  -12.2494   18.8620 C   0  0  0  0  0  0  0  0  0  0  0  0
    8.8452  -14.5356   19.3899 C   0  0  0  0  0  0  0  0  0  0  0  0
    8.6354  -15.7499   20.2455 C   0  0  2  0  0  0  0  0  0  0  0  0
    7.2932  -16.2696   20.1581 N   0  0  0  0  0  0  0  0  0  0  0  0
    8.9818  -15.3872   21.6453 C   0  0  0  0  0  0  0  0  0  0  0  0
   10.1390  -14.9712   21.8977 O   0  0  0  0  0  0  0  0  0  0  0  0
    8.0336  -15.5060   22.6731 N   0  0  0  0  0  0  0  0  0  0  0  0
    8.4178  -15.1642   24.0449 C   0  0  1  0  0  0  0  0  0  0  0  0
    7.1700  -14.6425   24.7249 C   0  0  0  0  0  0  0  0  0  0  0  0
    7.4704  -13.9516   25.9946 C   0  0  0  0  0  0  0  0  0  0  0  0
    7.0293  -12.6719   26.2111 C   0  0  0  0  0  0  0  0  0  0  0  0
    7.2784  -11.9919   27.3773 C   0  0  0  0  0  0  0  0  0  0  0  0
    8.0001  -12.6078   28.3804 C   0  0  0  0  0  0  0  0  0  0  0  0
    8.4409  -13.8887   28.1620 C   0  0  0  0  0  0  0  0  0  0  0  0
    8.1851  -14.5586   26.9904 C   0  0  0  0  0  0  0  0  0  0  0  0
    8.9757  -16.3728   24.6669 C   0  0  0  0  0  0  0  0  0  0  0  0
    8.3170  -17.4362   24.6499 O   0  0  0  0  0  0  0  0  0  0  0  0
   10.2443  -16.3404   25.2800 N   0  0  0  0  0  0  0  0  0  0  0  0
   10.7483  -17.6040   25.8747 C   0  0  1  0  0  0  0  0  0  0  0  0
   11.8059  -18.1749   24.9524 C   0  0  0  0  0  0  0  0  0  0  0  0
   12.8244  -17.1577   24.6616 C   0  0  0  0  0  0  0  0  0  0  0  0
   13.3292  -16.4575   25.5987 O   0  0  0  0  0  0  0  0  0  0  0  0
   11.2875  -17.3003   27.2245 C   0  0  0  0  0  0  0  0  0  0  0  0
   11.3065  -16.0928   27.6032 O   0  0  0  0  0  0  0  0  0  0  0  0
   13.2881  -16.8990   23.3772 O   0  0  0  0  0  0  0  0  0  0  0  0
   11.7668  -18.2562   28.0854 O   0  0  0  0  0  0  0  0  0  0  0  0
  2  3  1  6
  2  1  1  0
  4  2  1  0
  5  7  1  0
  5  4  1  0
  5  6  1  1
  7  8  2  0
  9 10  1  0
  9  7  1  0
 10 11  1  1
 11 12  1  0
 12 17  2  0
 13 12  1  0
 13 14  2  0
 14 15  1  0
 15 16  2  0
 17 16  1  0
 18 10  1  0
 19 18  2  0
 20 18  1  0
 21 22  1  6
 21 20  1  0
 22 23  1  0
 23 24  2  0
 23 27  1  0
 25 28  1  0
 25 21  1  0
 26 25  2  0
M  END
$$$$
