LFD.pdb
     RDKit          3D

 28 28  0  0  1  0  0  0  0  0999 V2000
    6.8501  -14.1189   19.1269 C   0  0  0  0  0  0  0  0  0  0  0  0
    8.1133  -13.5422   19.6858 C   0  0  2  0  0  0  0  0  0  0  0  0
    8.4786  -12.2170   19.0245 C   0  0  0  0  0  0  0  0  0  0  0  0
    9.2983  -14.4574   19.5838 C   0  0  0  0  0  0  0  0  0  0  0  0
    9.0756  -15.7185   20.3652 C   0  0  2  0  0  0  0  0  0  0  0  0
    7.7805  -16.3044   20.1230 N   0  0  0  0  0  0  0  0  0  0  0  0
    9.2615  -15.4015   21.8060 C   0  0  0  0  0  0  0  0  0  0  0  0
   10.3513  -14.9063   22.1846 O   0  0  0  0  0  0  0  0  0  0  0  0
    8.2379  -15.6496   22.7335 N   0  0  0  0  0  0  0  0  0  0  0  0
    8.4451  -15.2966   24.1402 C   0  0  1  0  0  0  0  0  0  0  0  0
    7.0738  -15.0340   24.7253 C   0  0  0  0  0  0  0  0  0  0  0  0
    7.1077  -14.0261   25.8035 C   0  0  0  0  0  0  0  0  0  0  0  0
    7.6777  -14.3223   27.0144 C   0  0  0  0  0  0  0  0  0  0  0  0
    7.7383  -13.4163   28.0439 C   0  0  0  0  0  0  0  0  0  0  0  0
    7.2086  -12.1534   27.8678 C   0  0  0  0  0  0  0  0  0  0  0  0
    6.6384  -11.8587   26.6551 C   0  0  0  0  0  0  0  0  0  0  0  0
    6.5840  -12.7742   25.6325 C   0  0  0  0  0  0  0  0  0  0  0  0
    9.1637  -16.4078   24.7785 C   0  0  0  0  0  0  0  0  0  0  0  0
    9.3248  -17.4793   24.1531 O   0  0  0  0  0  0  0  0  0  0  0  0
    9.6708  -16.2733   26.0866 N   0  0  0  0  0  0  0  0  0  0  0  0
   10.7641  -17.1916   26.4934 C   0  0  1  0  0  0  0  0  0  0  0  0
   12.0227  -16.7904   25.7516 C   0  0  0  0  0  0  0  0  0  0  0  0
   12.5115  -17.9141   24.9423 C   0  0  0  0  0  0  0  0  0  0  0  0
   12.9193  -17.7269   23.7499 O   0  0  0  0  0  0  0  0  0  0  0  0
   10.9280  -17.0962   27.9661 C   0  0  0  0  0  0  0  0  0  0  0  0
   11.2526  -18.1420   28.6007 O   0  0  0  0  0  0  0  0  0  0  0  0
   12.5557  -19.2210   25.4134 O   0  0  0  0  0  0  0  0  0  0  0  0
   10.7471  -15.9369   28.6786 O   0  0  0  0  0  0  0  0  0  0  0  0
  2  3  1  6
  2  1  1  0
  4  2  1  0
  5  7  1  0
  5  4  1  0
  5  6  1  1
  7  8  2  0
  9 10  1  0
  9  7  1  0
 10 11  1  1
 11 12  1  0
 12 17  2  0
 13 12  1  0
 13 14  2  0
 14 15  1  0
 15 16  2  0
 17 16  1  0
 18 10  1  0
 19 18  2  0
 20 18  1  0
 21 22  1  6
 21 20  1  0
 22 23  1  0
 23 24  2  0
 23 27  1  0
 25 28  1  0
 25 21  1  0
 26 25  2  0
M  END
$$$$
