LFD.pdb
     RDKit          3D

 28 28  0  0  1  0  0  0  0  0999 V2000
    7.5580  -13.7825   17.9859 C   0  0  0  0  0  0  0  0  0  0  0  0
    8.2220  -13.5663   19.3099 C   0  0  2  0  0  0  0  0  0  0  0  0
    8.4906  -12.0892   19.5805 C   0  0  0  0  0  0  0  0  0  0  0  0
    9.5133  -14.3133   19.4732 C   0  0  0  0  0  0  0  0  0  0  0  0
    9.3061  -15.5905   20.2323 C   0  0  2  0  0  0  0  0  0  0  0  0
    8.0133  -16.1813   19.9894 N   0  0  0  0  0  0  0  0  0  0  0  0
    9.5014  -15.2993   21.6773 C   0  0  0  0  0  0  0  0  0  0  0  0
   10.5394  -14.6945   22.0415 O   0  0  0  0  0  0  0  0  0  0  0  0
    8.5432  -15.6922   22.6246 N   0  0  0  0  0  0  0  0  0  0  0  0
    8.7199  -15.3025   24.0258 C   0  0  1  0  0  0  0  0  0  0  0  0
    7.4484  -14.5926   24.4395 C   0  0  0  0  0  0  0  0  0  0  0  0
    7.5369  -14.0325   25.8025 C   0  0  0  0  0  0  0  0  0  0  0  0
    8.5815  -13.2167   26.1525 C   0  0  0  0  0  0  0  0  0  0  0  0
    8.7028  -12.6678   27.4049 C   0  0  0  0  0  0  0  0  0  0  0  0
    7.7431  -12.9388   28.3599 C   0  0  0  0  0  0  0  0  0  0  0  0
    6.6983  -13.7555   28.0078 C   0  0  0  0  0  0  0  0  0  0  0  0
    6.5881  -14.2988   26.7510 C   0  0  0  0  0  0  0  0  0  0  0  0
    9.0007  -16.5215   24.7965 C   0  0  0  0  0  0  0  0  0  0  0  0
    8.2211  -17.4966   24.7155 O   0  0  0  0  0  0  0  0  0  0  0  0
   10.1397  -16.5979   25.6230 N   0  0  0  0  0  0  0  0  0  0  0  0
   10.3747  -17.8728   26.3466 C   0  0  1  0  0  0  0  0  0  0  0  0
   11.8041  -18.3065   26.0940 C   0  0  0  0  0  0  0  0  0  0  0  0
   12.0719  -18.3462   24.6506 C   0  0  0  0  0  0  0  0  0  0  0  0
   11.4340  -19.1482   23.8935 O   0  0  0  0  0  0  0  0  0  0  0  0
   10.1053  -17.6454   27.7891 C   0  0  0  0  0  0  0  0  0  0  0  0
   10.0020  -16.4520   28.1974 O   0  0  0  0  0  0  0  0  0  0  0  0
   13.0171  -17.5339   24.0354 O   0  0  0  0  0  0  0  0  0  0  0  0
    9.9619  -18.6576   28.7053 O   0  0  0  0  0  0  0  0  0  0  0  0
  2  3  1  6
  2  1  1  0
  4  2  1  0
  5  7  1  0
  5  4  1  0
  5  6  1  1
  7  8  2  0
  9 10  1  0
  9  7  1  0
 10 11  1  1
 11 12  1  0
 12 17  2  0
 13 12  1  0
 13 14  2  0
 14 15  1  0
 15 16  2  0
 17 16  1  0
 18 10  1  0
 19 18  2  0
 20 18  1  0
 21 22  1  1
 21 20  1  0
 22 23  1  0
 23 24  2  0
 23 27  1  0
 25 28  1  0
 25 21  1  0
 26 25  2  0
M  END
$$$$
