LFD.pdb
     RDKit          3D

 28 28  0  0  1  0  0  0  0  0999 V2000
    7.4658  -19.3796   18.3456 C   0  0  0  0  0  0  0  0  0  0  0  0
    8.8304  -19.1229   18.9049 C   0  0  2  0  0  0  0  0  0  0  0  0
    9.5861  -20.4179   19.1859 C   0  0  0  0  0  0  0  0  0  0  0  0
    8.8297  -18.3008   20.1603 C   0  0  0  0  0  0  0  0  0  0  0  0
    8.2482  -16.9399   19.9144 C   0  0  2  0  0  0  0  0  0  0  0  0
    8.6999  -16.3549   18.6762 N   0  0  0  0  0  0  0  0  0  0  0  0
    8.5964  -16.0782   21.0750 C   0  0  0  0  0  0  0  0  0  0  0  0
    9.6559  -15.4057   21.0376 O   0  0  0  0  0  0  0  0  0  0  0  0
    7.7575  -16.0133   22.1982 N   0  0  0  0  0  0  0  0  0  0  0  0
    8.1080  -15.1174   23.3031 C   0  0  1  0  0  0  0  0  0  0  0  0
    6.8023  -14.6292   23.8932 C   0  0  0  0  0  0  0  0  0  0  0  0
    7.0084  -13.7563   25.0658 C   0  0  0  0  0  0  0  0  0  0  0  0
    7.2782  -12.4224   24.9008 C   0  0  0  0  0  0  0  0  0  0  0  0
    7.4708  -11.5710   25.9602 C   0  0  0  0  0  0  0  0  0  0  0  0
    7.3929  -12.0626   27.2481 C   0  0  0  0  0  0  0  0  0  0  0  0
    7.1228  -13.3979   27.4114 C   0  0  0  0  0  0  0  0  0  0  0  0
    6.9320  -14.2399   26.3430 C   0  0  0  0  0  0  0  0  0  0  0  0
    8.9425  -15.8754   24.2453 C   0  0  0  0  0  0  0  0  0  0  0  0
    8.6640  -17.0694   24.4943 O   0  0  0  0  0  0  0  0  0  0  0  0
   10.0510  -15.2668   24.8675 N   0  0  0  0  0  0  0  0  0  0  0  0
   10.9706  -16.1440   25.6351 C   0  0  1  0  0  0  0  0  0  0  0  0
   12.3776  -15.6016   25.4891 C   0  0  0  0  0  0  0  0  0  0  0  0
   13.0672  -16.2785   24.3833 C   0  0  0  0  0  0  0  0  0  0  0  0
   12.4304  -17.0537   23.5980 O   0  0  0  0  0  0  0  0  0  0  0  0
   10.5220  -16.1630   27.0505 C   0  0  0  0  0  0  0  0  0  0  0  0
    9.7306  -15.2551   27.4393 O   0  0  0  0  0  0  0  0  0  0  0  0
   14.4253  -16.1226   24.1320 O   0  0  0  0  0  0  0  0  0  0  0  0
   10.9176  -17.1105   27.9617 O   0  0  0  0  0  0  0  0  0  0  0  0
  2  3  1  1
  2  1  1  0
  4  2  1  0
  5  7  1  0
  5  4  1  0
  5  6  1  6
  7  8  2  0
  9 10  1  0
  9  7  1  0
 10 11  1  1
 11 12  1  0
 12 17  2  0
 13 12  1  0
 13 14  2  0
 14 15  1  0
 15 16  2  0
 17 16  1  0
 18 10  1  0
 19 18  2  0
 20 18  1  0
 21 22  1  1
 21 20  1  0
 22 23  1  0
 23 24  2  0
 23 27  1  0
 25 28  1  0
 25 21  1  0
 26 25  2  0
M  END
$$$$
