LFD.pdb
     RDKit          3D

 28 28  0  0  1  0  0  0  0  0999 V2000
    7.2866  -14.2721   18.3641 C   0  0  0  0  0  0  0  0  0  0  0  0
    7.5813  -13.4409   19.5736 C   0  0  2  0  0  0  0  0  0  0  0  0
    7.6351  -11.9521   19.2450 C   0  0  0  0  0  0  0  0  0  0  0  0
    8.8569  -13.8115   20.2718 C   0  0  0  0  0  0  0  0  0  0  0  0
    8.7627  -15.1805   20.8781 C   0  0  2  0  0  0  0  0  0  0  0  0
    7.4015  -15.6307   21.0320 N   0  0  0  0  0  0  0  0  0  0  0  0
    9.4703  -15.1503   22.1855 C   0  0  0  0  0  0  0  0  0  0  0  0
   10.6673  -14.7736   22.2211 O   0  0  0  0  0  0  0  0  0  0  0  0
    8.8152  -15.5358   23.3653 N   0  0  0  0  0  0  0  0  0  0  0  0
    9.5513  -15.5173   24.6318 C   0  0  1  0  0  0  0  0  0  0  0  0
    8.5892  -15.0049   25.6822 C   0  0  0  0  0  0  0  0  0  0  0  0
    9.2006  -14.9524   27.0249 C   0  0  0  0  0  0  0  0  0  0  0  0
    9.6479  -13.7630   27.5392 C   0  0  0  0  0  0  0  0  0  0  0  0
   10.2171  -13.6639   28.7845 C   0  0  0  0  0  0  0  0  0  0  0  0
   10.3510  -14.7978   29.5609 C   0  0  0  0  0  0  0  0  0  0  0  0
    9.9028  -15.9874   29.0446 C   0  0  0  0  0  0  0  0  0  0  0  0
    9.3349  -16.0735   27.7969 C   0  0  0  0  0  0  0  0  0  0  0  0
   10.0404  -16.8796   24.8842 C   0  0  0  0  0  0  0  0  0  0  0  0
    9.2491  -17.8450   24.8017 O   0  0  0  0  0  0  0  0  0  0  0  0
   11.3915  -17.1036   25.2172 N   0  0  0  0  0  0  0  0  0  0  0  0
   11.8109  -18.5061   25.4643 C   0  0  1  0  0  0  0  0  0  0  0  0
   12.8515  -18.8807   24.4289 C   0  0  0  0  0  0  0  0  0  0  0  0
   13.9527  -17.9091   24.4456 C   0  0  0  0  0  0  0  0  0  0  0  0
   13.7949  -16.7402   23.9639 O   0  0  0  0  0  0  0  0  0  0  0  0
   12.3408  -18.5962   26.8485 C   0  0  0  0  0  0  0  0  0  0  0  0
   12.4330  -17.5301   27.5242 O   0  0  0  0  0  0  0  0  0  0  0  0
   15.2063  -18.1976   24.9719 O   0  0  0  0  0  0  0  0  0  0  0  0
   12.7364  -19.7717   27.4370 O   0  0  0  0  0  0  0  0  0  0  0  0
  2  3  1  6
  2  1  1  0
  4  2  1  0
  5  7  1  0
  5  4  1  0
  5  6  1  1
  7  8  2  0
  9 10  1  0
  9  7  1  0
 10 11  1  1
 11 12  1  0
 12 17  2  0
 13 12  1  0
 13 14  2  0
 14 15  1  0
 15 16  2  0
 17 16  1  0
 18 10  1  0
 19 18  2  0
 20 18  1  0
 21 22  1  6
 21 20  1  0
 22 23  1  0
 23 24  2  0
 23 27  1  0
 25 28  1  0
 25 21  1  0
 26 25  2  0
M  END
$$$$
