LFD.pdb
     RDKit          3D

 28 28  0  0  1  0  0  0  0  0999 V2000
    8.1813  -15.2494   17.3085 C   0  0  0  0  0  0  0  0  0  0  0  0
    7.9148  -14.1887   18.3305 C   0  0  2  0  0  0  0  0  0  0  0  0
    7.7200  -12.8165   17.6932 C   0  0  0  0  0  0  0  0  0  0  0  0
    8.9829  -14.0697   19.3781 C   0  0  0  0  0  0  0  0  0  0  0  0
    9.0249  -15.2914   20.2476 C   0  0  2  0  0  0  0  0  0  0  0  0
    7.8441  -16.1092   20.1194 N   0  0  0  0  0  0  0  0  0  0  0  0
    9.2202  -14.8452   21.6525 C   0  0  0  0  0  0  0  0  0  0  0  0
   10.2112  -14.1265   21.9307 O   0  0  0  0  0  0  0  0  0  0  0  0
    8.3136  -15.2185   22.6568 N   0  0  0  0  0  0  0  0  0  0  0  0
    8.3954  -14.5751   23.9705 C   0  0  1  0  0  0  0  0  0  0  0  0
    7.0191  -14.0170   24.2637 C   0  0  0  0  0  0  0  0  0  0  0  0
    6.9813  -13.2522   25.5259 C   0  0  0  0  0  0  0  0  0  0  0  0
    6.3130  -13.7440   26.6171 C   0  0  0  0  0  0  0  0  0  0  0  0
    6.2557  -13.0722   27.8129 C   0  0  0  0  0  0  0  0  0  0  0  0
    6.8910  -11.8526   27.9366 C   0  0  0  0  0  0  0  0  0  0  0  0
    7.5594  -11.3619   26.8434 C   0  0  0  0  0  0  0  0  0  0  0  0
    7.6095  -12.0437   25.6520 C   0  0  0  0  0  0  0  0  0  0  0  0
    8.8477  -15.5863   24.9357 C   0  0  0  0  0  0  0  0  0  0  0  0
    8.9836  -15.2737   26.1394 O   0  0  0  0  0  0  0  0  0  0  0  0
    9.1278  -16.9017   24.5142 N   0  0  0  0  0  0  0  0  0  0  0  0
    9.5665  -17.8719   25.5488 C   0  0  1  0  0  0  0  0  0  0  0  0
    8.8432  -19.1814   25.3099 C   0  0  0  0  0  0  0  0  0  0  0  0
    7.5208  -19.1514   25.9478 C   0  0  0  0  0  0  0  0  0  0  0  0
    7.1398  -18.1287   26.6053 O   0  0  0  0  0  0  0  0  0  0  0  0
   11.0407  -18.0208   25.4516 C   0  0  0  0  0  0  0  0  0  0  0  0
   11.6089  -17.6596   24.3800 O   0  0  0  0  0  0  0  0  0  0  0  0
    6.6250  -20.2118   25.8791 O   0  0  0  0  0  0  0  0  0  0  0  0
   11.8226  -18.5284   26.4594 O   0  0  0  0  0  0  0  0  0  0  0  0
  2  3  1  6
  2  1  1  0
  4  2  1  0
  5  7  1  0
  5  4  1  0
  5  6  1  1
  7  8  2  0
  9 10  1  0
  9  7  1  0
 10 11  1  1
 11 12  1  0
 12 17  2  0
 13 12  1  0
 13 14  2  0
 14 15  1  0
 15 16  2  0
 17 16  1  0
 18 10  1  0
 19 18  2  0
 20 18  1  0
 21 22  1  6
 21 20  1  0
 22 23  1  0
 23 24  2  0
 23 27  1  0
 25 28  1  0
 25 21  1  0
 26 25  2  0
M  END
$$$$
