LFD.pdb
     RDKit          3D

 28 28  0  0  1  0  0  0  0  0999 V2000
    6.4868  -13.9065   19.8659 C   0  0  0  0  0  0  0  0  0  0  0  0
    7.9227  -13.4961   19.7625 C   0  0  2  0  0  0  0  0  0  0  0  0
    8.1042  -12.2690   18.8746 C   0  0  0  0  0  0  0  0  0  0  0  0
    8.8307  -14.5780   19.2554 C   0  0  0  0  0  0  0  0  0  0  0  0
    8.7369  -15.8069   20.1108 C   0  0  2  0  0  0  0  0  0  0  0  0
    7.4436  -16.4405   20.0383 N   0  0  0  0  0  0  0  0  0  0  0  0
    9.0674  -15.4172   21.5072 C   0  0  0  0  0  0  0  0  0  0  0  0
   10.1648  -14.8528   21.7380 O   0  0  0  0  0  0  0  0  0  0  0  0
    8.1703  -15.6737   22.5555 N   0  0  0  0  0  0  0  0  0  0  0  0
    8.4958  -15.2095   23.9064 C   0  0  1  0  0  0  0  0  0  0  0  0
    7.1888  -14.7904   24.5450 C   0  0  0  0  0  0  0  0  0  0  0  0
    7.3909  -14.0933   25.8305 C   0  0  0  0  0  0  0  0  0  0  0  0
    7.4084  -12.7236   25.8835 C   0  0  0  0  0  0  0  0  0  0  0  0
    7.5866  -12.0318   27.0557 C   0  0  0  0  0  0  0  0  0  0  0  0
    7.7561  -12.7289   28.2354 C   0  0  0  0  0  0  0  0  0  0  0  0
    7.7384  -14.0997   28.1805 C   0  0  0  0  0  0  0  0  0  0  0  0
    7.5592  -14.7806   27.0011 C   0  0  0  0  0  0  0  0  0  0  0  0
    9.1759  -16.3088   24.6047 C   0  0  0  0  0  0  0  0  0  0  0  0
    8.6711  -17.4535   24.5936 O   0  0  0  0  0  0  0  0  0  0  0  0
   10.3896  -16.0815   25.2842 N   0  0  0  0  0  0  0  0  0  0  0  0
   11.0594  -17.2557   25.8979 C   0  0  1  0  0  0  0  0  0  0  0  0
   12.5576  -17.0516   25.8036 C   0  0  0  0  0  0  0  0  0  0  0  0
   13.2615  -18.2206   26.3465 C   0  0  0  0  0  0  0  0  0  0  0  0
   12.6759  -19.3487   26.4336 O   0  0  0  0  0  0  0  0  0  0  0  0
   10.5979  -17.3720   27.3044 C   0  0  0  0  0  0  0  0  0  0  0  0
   10.2846  -16.3119   27.9207 O   0  0  0  0  0  0  0  0  0  0  0  0
   14.5771  -18.1702   26.7918 O   0  0  0  0  0  0  0  0  0  0  0  0
   10.4915  -18.5655   27.9744 O   0  0  0  0  0  0  0  0  0  0  0  0
  2  3  1  6
  2  1  1  0
  4  2  1  0
  5  7  1  0
  5  4  1  0
  5  6  1  1
  7  8  2  0
  9 10  1  0
  9  7  1  0
 10 11  1  1
 11 12  1  0
 12 17  2  0
 13 12  1  0
 13 14  2  0
 14 15  1  0
 15 16  2  0
 17 16  1  0
 18 10  1  0
 19 18  2  0
 20 18  1  0
 21 22  1  1
 21 20  1  0
 22 23  1  0
 23 24  2  0
 23 27  1  0
 25 28  1  0
 25 21  1  0
 26 25  2  0
M  END
$$$$
