GAC.pdb
     RDKit          3D

 16 15  0  0  1  0  0  0  0  0999 V2000
    5.8775  -18.7189   19.5443 N   0  0  0  0  0  0  0  0  0  0  0  0
    5.6451  -17.4239   20.1067 C   0  0  0  0  0  0  0  0  0  0  0  0
    6.8485  -16.5352   19.9695 C   0  0  0  0  0  0  0  0  0  0  0  0
    8.0013  -17.0093   19.8236 O   0  0  0  0  0  0  0  0  0  0  0  0
    7.5553  -12.8335   19.5836 C   0  0  0  0  0  0  0  0  0  0  0  0
    7.8907  -14.2769   19.8713 C   0  0  2  0  0  0  0  0  0  0  0  0
    6.7449  -15.1136   19.9978 N   0  0  0  0  0  0  0  0  0  0  0  0
    8.7725  -14.3097   21.0735 C   0  0  0  0  0  0  0  0  0  0  0  0
    9.9043  -13.7716   21.1101 O   0  0  0  0  0  0  0  0  0  0  0  0
    8.3138  -14.9827   22.2403 N   0  0  0  0  0  0  0  0  0  0  0  0
    9.0700  -15.0031   23.4783 C   0  0  1  0  0  0  0  0  0  0  0  0
    8.1401  -14.9811   24.6838 C   0  0  0  0  0  0  0  0  0  0  0  0
    7.2037  -13.4119   24.7249 S   0  0  0  0  0  0  0  0  0  0  0  0
    9.9227  -16.2206   23.4751 C   0  0  0  0  0  0  0  0  0  0  0  0
    9.9011  -17.1456   22.4396 O   0  0  0  0  0  0  0  0  0  0  0  0
   10.7187  -16.4744   24.4285 O   0  0  0  0  0  0  0  0  0  0  0  0
  2  1  1  0
  3  2  1  0
  4  3  2  0
  6  5  1  1
  6  8  1  0
  6  7  1  0
  7  3  1  0
  8  9  2  0
 10 11  1  0
 10  8  1  0
 11 12  1  1
 12 13  1  0
 14 15  1  0
 14 11  1  0
 16 14  2  0
M  END
$$$$
