GAC.pdb
     RDKit          3D

 16 15  0  0  1  0  0  0  0  0999 V2000
   -0.6955  -26.8696   31.6383 N   0  0  0  0  0  0  0  0  0  0  0  0
   -2.0058  -26.7425   32.1989 C   0  0  0  0  0  0  0  0  0  0  0  0
   -3.0069  -26.2922   31.1733 C   0  0  0  0  0  0  0  0  0  0  0  0
   -2.6601  -25.6348   30.1620 O   0  0  0  0  0  0  0  0  0  0  0  0
   -6.5964  -26.9311   30.2600 C   0  0  0  0  0  0  0  0  0  0  0  0
   -5.3517  -26.0834   30.3647 C   0  0  2  0  0  0  0  0  0  0  0  0
   -4.3967  -26.5862   31.2942 N   0  0  0  0  0  0  0  0  0  0  0  0
   -5.7757  -24.6851   30.6630 C   0  0  0  0  0  0  0  0  0  0  0  0
   -5.8538  -24.2244   31.8264 O   0  0  0  0  0  0  0  0  0  0  0  0
   -6.1096  -23.8255   29.5794 N   0  0  0  0  0  0  0  0  0  0  0  0
   -6.4633  -22.4312   29.7688 C   0  0  1  0  0  0  0  0  0  0  0  0
   -6.3092  -21.6500   28.4710 C   0  0  0  0  0  0  0  0  0  0  0  0
   -4.5392  -21.4811   28.0473 S   0  0  0  0  0  0  0  0  0  0  0  0
   -7.8616  -22.3766   30.2702 C   0  0  0  0  0  0  0  0  0  0  0  0
   -8.3351  -21.3313   31.0520 O   0  0  0  0  0  0  0  0  0  0  0  0
   -8.6968  -23.2924   30.0045 O   0  0  0  0  0  0  0  0  0  0  0  0
  2  1  1  0
  3  2  1  0
  4  3  2  0
  6  5  1  1
  6  8  1  0
  6  7  1  0
  7  3  1  0
  8  9  2  0
 10 11  1  0
 10  8  1  0
 11 12  1  6
 12 13  1  0
 14 15  1  0
 14 11  1  0
 16 14  2  0
M  END
$$$$
