GAC.pdb
     RDKit          3D

 16 15  0  0  1  0  0  0  0  0999 V2000
    8.0124  -12.7494   18.8325 N   0  0  0  0  0  0  0  0  0  0  0  0
    8.5183  -13.9157   19.4893 C   0  0  0  0  0  0  0  0  0  0  0  0
    7.9288  -14.0796   20.8613 C   0  0  0  0  0  0  0  0  0  0  0  0
    7.4364  -13.1078   21.4844 O   0  0  0  0  0  0  0  0  0  0  0  0
    7.1677  -16.9303   23.2475 C   0  0  0  0  0  0  0  0  0  0  0  0
    7.3299  -15.4910   22.8221 C   0  0  2  0  0  0  0  0  0  0  0  0
    7.8979  -15.3412   21.5245 N   0  0  0  0  0  0  0  0  0  0  0  0
    8.1053  -14.7862   23.8831 C   0  0  0  0  0  0  0  0  0  0  0  0
    9.3446  -14.6063   23.8234 O   0  0  0  0  0  0  0  0  0  0  0  0
    7.4116  -14.2905   25.0224 N   0  0  0  0  0  0  0  0  0  0  0  0
    8.0659  -13.5135   26.0583 C   0  0  1  0  0  0  0  0  0  0  0  0
    7.1712  -12.3760   26.5316 C   0  0  0  0  0  0  0  0  0  0  0  0
    5.5328  -13.0264   27.0147 S   0  0  0  0  0  0  0  0  0  0  0  0
    8.4079  -14.4332   27.1748 C   0  0  0  0  0  0  0  0  0  0  0  0
    9.2298  -14.0564   28.2287 O   0  0  0  0  0  0  0  0  0  0  0  0
    7.9600  -15.6183   27.2175 O   0  0  0  0  0  0  0  0  0  0  0  0
  2  1  1  0
  3  2  1  0
  4  3  2  0
  6  5  1  1
  6  8  1  0
  6  7  1  0
  7  3  1  0
  8  9  2  0
 10 11  1  0
 10  8  1  0
 11 12  1  1
 12 13  1  0
 14 15  1  0
 14 11  1  0
 16 14  2  0
M  END
$$$$
