GAC.pdb
     RDKit          3D

 16 15  0  0  1  0  0  0  0  0999 V2000
    7.1333  -17.9890   17.4412 N   0  0  0  0  0  0  0  0  0  0  0  0
    6.5337  -16.8949   18.1417 C   0  0  0  0  0  0  0  0  0  0  0  0
    7.5383  -16.1532   18.9768 C   0  0  0  0  0  0  0  0  0  0  0  0
    8.6511  -16.6566   19.2658 O   0  0  0  0  0  0  0  0  0  0  0  0
    7.8705  -12.7262   20.5739 C   0  0  0  0  0  0  0  0  0  0  0  0
    8.2054  -14.1793   20.3385 C   0  0  2  0  0  0  0  0  0  0  0  0
    7.2819  -14.8451   19.4825 N   0  0  0  0  0  0  0  0  0  0  0  0
    8.3453  -14.8368   21.6697 C   0  0  0  0  0  0  0  0  0  0  0  0
    7.3655  -15.1863   22.3695 O   0  0  0  0  0  0  0  0  0  0  0  0
    9.6515  -15.0831   22.1773 N   0  0  0  0  0  0  0  0  0  0  0  0
    9.9039  -16.0010   23.2721 C   0  0  1  0  0  0  0  0  0  0  0  0
    9.5649  -17.4305   22.8721 C   0  0  0  0  0  0  0  0  0  0  0  0
    9.4115  -18.4788   24.3615 S   0  0  0  0  0  0  0  0  0  0  0  0
   11.3333  -15.8721   23.6587 C   0  0  0  0  0  0  0  0  0  0  0  0
   11.7961  -16.1918   24.9283 O   0  0  0  0  0  0  0  0  0  0  0  0
   12.2069  -15.4594   22.8381 O   0  0  0  0  0  0  0  0  0  0  0  0
  2  1  1  0
  3  2  1  0
  4  3  2  0
  6  5  1  1
  6  8  1  0
  6  7  1  0
  7  3  1  0
  8  9  2  0
 10 11  1  0
 10  8  1  0
 11 12  1  6
 12 13  1  0
 14 15  1  0
 14 11  1  0
 16 14  2  0
M  END
$$$$
