NDH.pdb
     RDKit          3D

 27 27  0  0  1  0  0  0  0  0999 V2000
    9.0885  -15.8649   13.0754 N   0  0  0  0  0  0  0  0  0  0  0  0
    8.1446  -16.6161   13.8256 C   0  0  0  0  0  0  0  0  0  0  0  0
    7.0641  -16.9322   13.2692 O   0  0  0  0  0  0  0  0  0  0  0  0
    8.3476  -17.0523   15.2194 C   0  0  0  0  0  0  0  0  0  0  0  0
    9.5843  -16.4331   15.8372 C   0  0  2  0  0  0  0  0  0  0  0  0
   10.7700  -16.7204   15.0583 N   0  0  0  0  0  0  0  0  0  0  0  0
    9.8088  -16.9149   17.2175 C   0  0  0  0  0  0  0  0  0  0  0  0
    8.8689  -16.9084   18.0471 O   0  0  0  0  0  0  0  0  0  0  0  0
   11.0846  -17.4003   17.6580 N   0  0  0  0  0  0  0  0  0  0  0  0
   11.2848  -17.9220   18.9923 C   0  0  1  0  0  0  0  0  0  0  0  0
   12.6419  -18.5560   19.1242 C   0  0  0  0  0  0  0  0  0  0  0  0
   12.7595  -19.8326   18.3844 C   0  0  0  0  0  0  0  0  0  0  0  0
   11.9272  -20.7664   18.4473 O   0  0  0  0  0  0  0  0  0  0  0  0
   11.2276  -16.8127   19.9995 C   0  0  0  0  0  0  0  0  0  0  0  0
   12.0466  -15.8671   19.9444 O   0  0  0  0  0  0  0  0  0  0  0  0
   13.8606  -20.0044   17.5709 O   0  0  0  0  0  0  0  0  0  0  0  0
   10.2631  -16.7897   21.0349 N   0  0  0  0  0  0  0  0  0  0  0  0
   10.2674  -15.7764   22.1043 C   0  0  1  0  0  0  0  0  0  0  0  0
    8.9112  -15.1852   22.2656 C   0  0  0  0  0  0  0  0  0  0  0  0
    8.6196  -14.2149   21.1946 C   0  0  0  0  0  0  0  0  0  0  0  0
    9.5667  -13.7869   20.2376 C   0  0  0  0  0  0  0  0  0  0  0  0
    9.0188  -12.9085   19.3962 N   0  0  0  0  0  0  0  0  0  0  0  0
    7.7453  -12.7563   19.7817 C   0  0  0  0  0  0  0  0  0  0  0  0
    7.5183  -13.5350   20.8487 N   0  0  0  0  0  0  0  0  0  0  0  0
   10.5898  -16.5480   23.3634 C   0  0  0  0  0  0  0  0  0  0  0  0
   10.7966  -15.9435   24.4632 O   0  0  0  0  0  0  0  0  0  0  0  0
   10.6589  -17.9168   23.3193 O   0  0  0  0  0  0  0  0  0  0  0  0
  2  3  2  0
  2  1  1  0
  4  2  1  0
  5  4  1  0
  5  6  1  6
  7  8  2  0
  7  5  1  0
  9  7  1  0
 10  9  1  0
 10 11  1  6
 12 11  1  0
 13 12  2  0
 14 10  1  0
 14 17  1  0
 15 14  2  0
 16 12  1  0
 18 17  1  0
 18 25  1  0
 18 19  1  1
 20 19  1  0
 21 20  2  0
 22 21  1  0
 23 22  1  0
 23 24  2  0
 24 20  1  0
 25 27  1  0
 26 25  2  0
M  END
$$$$
