NDH.pdb
     RDKit          3D

 27 27  0  0  1  0  0  0  0  0999 V2000
   10.5125  -19.2350   16.9792 N   0  0  0  0  0  0  0  0  0  0  0  0
    9.4846  -19.9392   17.6616 C   0  0  0  0  0  0  0  0  0  0  0  0
    8.3973  -20.1261   17.0617 O   0  0  0  0  0  0  0  0  0  0  0  0
    9.6073  -20.4682   19.0324 C   0  0  0  0  0  0  0  0  0  0  0  0
   10.8733  -19.9945   19.7160 C   0  0  2  0  0  0  0  0  0  0  0  0
   12.0572  -20.4285   19.0050 N   0  0  0  0  0  0  0  0  0  0  0  0
   10.9628  -20.4862   21.1082 C   0  0  0  0  0  0  0  0  0  0  0  0
   10.1106  -20.1321   21.9567 O   0  0  0  0  0  0  0  0  0  0  0  0
   12.0064  -21.3709   21.5391 N   0  0  0  0  0  0  0  0  0  0  0  0
   12.0821  -21.8584   22.8990 C   0  0  1  0  0  0  0  0  0  0  0  0
   13.1677  -22.8890   23.0415 C   0  0  0  0  0  0  0  0  0  0  0  0
   12.8069  -24.1965   22.4488 C   0  0  0  0  0  0  0  0  0  0  0  0
   13.6271  -25.1072   22.1905 O   0  0  0  0  0  0  0  0  0  0  0  0
   12.4251  -20.7389   23.8356 C   0  0  0  0  0  0  0  0  0  0  0  0
   13.5051  -20.1180   23.7086 O   0  0  0  0  0  0  0  0  0  0  0  0
   11.4770  -24.4265   22.1619 O   0  0  0  0  0  0  0  0  0  0  0  0
   11.5579  -20.3455   24.8825 N   0  0  0  0  0  0  0  0  0  0  0  0
   11.8263  -19.1800   25.7428 C   0  0  1  0  0  0  0  0  0  0  0  0
   10.7102  -18.1996   25.6528 C   0  0  0  0  0  0  0  0  0  0  0  0
   10.6648  -17.5610   24.3247 C   0  0  0  0  0  0  0  0  0  0  0  0
   11.7865  -17.4209   23.4772 C   0  0  0  0  0  0  0  0  0  0  0  0
   11.4440  -16.8053   22.3443 N   0  0  0  0  0  0  0  0  0  0  0  0
   10.1337  -16.5435   22.4350 C   0  0  0  0  0  0  0  0  0  0  0  0
    9.6809  -16.9954   23.6129 N   0  0  0  0  0  0  0  0  0  0  0  0
   11.8432  -19.7358   27.1483 C   0  0  0  0  0  0  0  0  0  0  0  0
   12.1132  -18.9883   28.1413 O   0  0  0  0  0  0  0  0  0  0  0  0
   11.5629  -21.0620   27.3551 O   0  0  0  0  0  0  0  0  0  0  0  0
  2  3  2  0
  2  1  1  0
  4  2  1  0
  5  4  1  0
  5  6  1  6
  7  8  2  0
  7  5  1  0
  9  7  1  0
 10  9  1  0
 10 11  1  6
 12 11  1  0
 13 12  2  0
 14 10  1  0
 14 17  1  0
 15 14  2  0
 16 12  1  0
 18 17  1  0
 18 25  1  0
 18 19  1  1
 20 19  1  0
 21 20  2  0
 22 21  1  0
 23 22  1  0
 23 24  2  0
 24 20  1  0
 25 27  1  0
 26 25  2  0
M  END
$$$$
