NDH.pdb
     RDKit          3D

 27 27  0  0  1  0  0  0  0  0999 V2000
    5.8092  -23.7076   20.0682 N   0  0  0  0  0  0  0  0  0  0  0  0
    6.1823  -22.3440   20.2081 C   0  0  0  0  0  0  0  0  0  0  0  0
    5.3146  -21.4667   19.9749 O   0  0  0  0  0  0  0  0  0  0  0  0
    7.5249  -21.8860   20.6104 C   0  0  0  0  0  0  0  0  0  0  0  0
    7.5816  -20.3848   20.8046 C   0  0  2  0  0  0  0  0  0  0  0  0
    6.9654  -19.6808   19.7000 N   0  0  0  0  0  0  0  0  0  0  0  0
    8.9725  -19.9011   20.9440 C   0  0  0  0  0  0  0  0  0  0  0  0
    9.6677  -20.2580   21.9243 O   0  0  0  0  0  0  0  0  0  0  0  0
    9.5739  -19.0212   19.9841 N   0  0  0  0  0  0  0  0  0  0  0  0
   10.8979  -18.4709   20.1760 C   0  0  1  0  0  0  0  0  0  0  0  0
   11.4505  -17.9354   18.8841 C   0  0  0  0  0  0  0  0  0  0  0  0
   11.6150  -18.9790   17.8474 C   0  0  0  0  0  0  0  0  0  0  0  0
   11.7565  -20.1999   18.0882 O   0  0  0  0  0  0  0  0  0  0  0  0
   10.8495  -17.3188   21.1343 C   0  0  0  0  0  0  0  0  0  0  0  0
   11.8862  -16.6632   21.3864 O   0  0  0  0  0  0  0  0  0  0  0  0
   11.6121  -18.5787   16.5269 O   0  0  0  0  0  0  0  0  0  0  0  0
    9.6517  -16.9324   21.7815 N   0  0  0  0  0  0  0  0  0  0  0  0
    9.5610  -15.7399   22.6421 C   0  0  1  0  0  0  0  0  0  0  0  0
    8.2128  -15.1198   22.5302 C   0  0  0  0  0  0  0  0  0  0  0  0
    8.0400  -14.4456   21.2305 C   0  0  0  0  0  0  0  0  0  0  0  0
    9.0813  -14.2566   20.2945 C   0  0  0  0  0  0  0  0  0  0  0  0
    8.6298  -13.6176   19.2139 N   0  0  0  0  0  0  0  0  0  0  0  0
    7.3273  -13.3883   19.4243 C   0  0  0  0  0  0  0  0  0  0  0  0
    6.9871  -13.8830   20.6227 N   0  0  0  0  0  0  0  0  0  0  0  0
    9.7127  -16.2695   24.0496 C   0  0  0  0  0  0  0  0  0  0  0  0
    9.7338  -15.4779   25.0449 O   0  0  0  0  0  0  0  0  0  0  0  0
    9.8277  -17.6203   24.2558 O   0  0  0  0  0  0  0  0  0  0  0  0
  2  3  2  0
  2  1  1  0
  4  2  1  0
  5  4  1  0
  5  6  1  6
  7  8  2  0
  7  5  1  0
  9  7  1  0
 10  9  1  0
 10 11  1  6
 12 11  1  0
 13 12  2  0
 14 10  1  0
 14 17  1  0
 15 14  2  0
 16 12  1  0
 18 17  1  0
 18 25  1  0
 18 19  1  1
 20 19  1  0
 21 20  2  0
 22 21  1  0
 23 22  1  0
 23 24  2  0
 24 20  1  0
 25 27  1  0
 26 25  2  0
M  END
$$$$
