NDH.pdb
     RDKit          3D

 27 27  0  0  1  0  0  0  0  0999 V2000
   14.9981  -20.8971   21.4973 N   0  0  0  0  0  0  0  0  0  0  0  0
   14.2315  -21.8036   22.2775 C   0  0  0  0  0  0  0  0  0  0  0  0
   14.0752  -22.9716   21.8435 O   0  0  0  0  0  0  0  0  0  0  0  0
   13.6036  -21.4655   23.5681 C   0  0  0  0  0  0  0  0  0  0  0  0
   14.3185  -22.1109   24.7372 C   0  0  2  0  0  0  0  0  0  0  0  0
   14.3270  -23.5541   24.6259 N   0  0  0  0  0  0  0  0  0  0  0  0
   13.6956  -21.7496   26.0293 C   0  0  0  0  0  0  0  0  0  0  0  0
   13.7825  -20.5769   26.4638 O   0  0  0  0  0  0  0  0  0  0  0  0
   12.9799  -22.7049   26.8246 N   0  0  0  0  0  0  0  0  0  0  0  0
   12.4233  -22.3613   28.1148 C   0  0  1  0  0  0  0  0  0  0  0  0
   10.9867  -22.7946   28.2137 C   0  0  0  0  0  0  0  0  0  0  0  0
   10.1121  -22.1326   27.2199 C   0  0  0  0  0  0  0  0  0  0  0  0
    9.7209  -20.9455   27.3006 O   0  0  0  0  0  0  0  0  0  0  0  0
   13.1639  -23.0719   29.2078 C   0  0  0  0  0  0  0  0  0  0  0  0
   13.8993  -24.0495   28.9402 O   0  0  0  0  0  0  0  0  0  0  0  0
    9.7007  -22.8742   26.1314 O   0  0  0  0  0  0  0  0  0  0  0  0
   13.0638  -22.6740   30.5623 N   0  0  0  0  0  0  0  0  0  0  0  0
   14.2338  -22.5795   31.4527 C   0  0  1  0  0  0  0  0  0  0  0  0
   15.1473  -21.4965   30.9971 C   0  0  0  0  0  0  0  0  0  0  0  0
   16.3092  -21.3636   31.8948 C   0  0  0  0  0  0  0  0  0  0  0  0
   16.2251  -21.3940   33.3048 C   0  0  0  0  0  0  0  0  0  0  0  0
   17.4344  -21.2501   33.8497 N   0  0  0  0  0  0  0  0  0  0  0  0
   18.2973  -21.1275   32.8329 C   0  0  0  0  0  0  0  0  0  0  0  0
   17.6205  -21.1961   31.6780 N   0  0  0  0  0  0  0  0  0  0  0  0
   13.6649  -22.1733   32.7928 C   0  0  0  0  0  0  0  0  0  0  0  0
   12.5701  -21.5303   32.8681 O   0  0  0  0  0  0  0  0  0  0  0  0
   14.3372  -22.5033   33.9415 O   0  0  0  0  0  0  0  0  0  0  0  0
  2  3  2  0
  2  1  1  0
  4  2  1  0
  5  4  1  0
  5  6  1  6
  7  8  2  0
  7  5  1  0
  9  7  1  0
 10  9  1  0
 10 11  1  6
 12 11  1  0
 13 12  2  0
 14 10  1  0
 14 17  1  0
 15 14  2  0
 16 12  1  0
 18 17  1  0
 18 25  1  0
 18 19  1  6
 20 19  1  0
 21 20  2  0
 22 21  1  0
 23 22  1  0
 23 24  2  0
 24 20  1  0
 25 27  1  0
 26 25  2  0
M  END
$$$$
