NDH.pdb
     RDKit          3D

 27 27  0  0  1  0  0  0  0  0999 V2000
    7.5814  -13.3624   14.9098 N   0  0  0  0  0  0  0  0  0  0  0  0
    7.6983  -14.7503   14.6299 C   0  0  0  0  0  0  0  0  0  0  0  0
    7.5618  -15.1270   13.4397 O   0  0  0  0  0  0  0  0  0  0  0  0
    7.9702  -15.7838   15.6458 C   0  0  0  0  0  0  0  0  0  0  0  0
    9.4115  -16.2488   15.6156 C   0  0  2  0  0  0  0  0  0  0  0  0
    9.6842  -17.0641   14.4511 N   0  0  0  0  0  0  0  0  0  0  0  0
    9.7617  -17.0311   16.8211 C   0  0  0  0  0  0  0  0  0  0  0  0
    8.9953  -17.9354   17.2291 O   0  0  0  0  0  0  0  0  0  0  0  0
   10.9679  -16.7944   17.5604 N   0  0  0  0  0  0  0  0  0  0  0  0
   11.2407  -17.4646   18.8130 C   0  0  1  0  0  0  0  0  0  0  0  0
   12.6689  -17.9309   18.8738 C   0  0  0  0  0  0  0  0  0  0  0  0
   12.9722  -18.7113   20.0945 C   0  0  0  0  0  0  0  0  0  0  0  0
   12.4954  -19.8413   20.3489 O   0  0  0  0  0  0  0  0  0  0  0  0
   11.0461  -16.5212   19.9620 C   0  0  0  0  0  0  0  0  0  0  0  0
   11.7037  -15.4573   20.0237 O   0  0  0  0  0  0  0  0  0  0  0  0
   13.8385  -18.1555   21.0134 O   0  0  0  0  0  0  0  0  0  0  0  0
   10.1278  -16.7897   21.0048 N   0  0  0  0  0  0  0  0  0  0  0  0
    9.9013  -15.8599   22.1249 C   0  0  1  0  0  0  0  0  0  0  0  0
    8.4854  -15.4019   22.1420 C   0  0  0  0  0  0  0  0  0  0  0  0
    8.2033  -14.4931   21.0159 C   0  0  0  0  0  0  0  0  0  0  0  0
    7.1097  -14.6444   20.1341 C   0  0  0  0  0  0  0  0  0  0  0  0
    7.1103  -13.6760   19.2164 N   0  0  0  0  0  0  0  0  0  0  0  0
    8.1723  -12.9037   19.4794 C   0  0  0  0  0  0  0  0  0  0  0  0
    8.8139  -13.3963   20.5481 N   0  0  0  0  0  0  0  0  0  0  0  0
   10.1354  -16.6897   23.3664 C   0  0  0  0  0  0  0  0  0  0  0  0
   10.3714  -17.9367   23.2817 O   0  0  0  0  0  0  0  0  0  0  0  0
   10.0939  -16.0902   24.5990 O   0  0  0  0  0  0  0  0  0  0  0  0
  2  3  2  0
  2  1  1  0
  4  2  1  0
  5  4  1  0
  5  6  1  6
  7  8  2  0
  7  5  1  0
  9  7  1  0
 10  9  1  0
 10 11  1  6
 12 11  1  0
 13 12  2  0
 14 10  1  0
 14 17  1  0
 15 14  2  0
 16 12  1  0
 18 17  1  0
 18 25  1  0
 18 19  1  1
 20 19  1  0
 21 20  2  0
 22 21  1  0
 23 22  1  0
 23 24  2  0
 24 20  1  0
 25 27  1  0
 26 25  2  0
M  END
$$$$
