NDH.pdb
     RDKit          3D

 27 27  0  0  1  0  0  0  0  0999 V2000
    7.1682  -13.0136   17.7721 N   0  0  0  0  0  0  0  0  0  0  0  0
    8.3609  -13.7229   18.0760 C   0  0  0  0  0  0  0  0  0  0  0  0
    9.3317  -13.6127   17.2870 O   0  0  0  0  0  0  0  0  0  0  0  0
    8.5381  -14.5838   19.2599 C   0  0  0  0  0  0  0  0  0  0  0  0
    9.0075  -15.9754   18.8888 C   0  0  2  0  0  0  0  0  0  0  0  0
    8.0739  -16.6334   17.9996 N   0  0  0  0  0  0  0  0  0  0  0  0
    9.1911  -16.8297   20.0822 C   0  0  0  0  0  0  0  0  0  0  0  0
    8.2311  -17.5000   20.5302 O   0  0  0  0  0  0  0  0  0  0  0  0
   10.4489  -16.9266   20.7648 N   0  0  0  0  0  0  0  0  0  0  0  0
   10.6326  -17.7912   21.9100 C   0  0  1  0  0  0  0  0  0  0  0  0
   12.0070  -18.4011   21.9088 C   0  0  0  0  0  0  0  0  0  0  0  0
   12.2246  -19.3413   23.0311 C   0  0  0  0  0  0  0  0  0  0  0  0
   11.3409  -20.0887   23.5099 O   0  0  0  0  0  0  0  0  0  0  0  0
   10.5109  -17.0053   23.1811 C   0  0  0  0  0  0  0  0  0  0  0  0
   11.2030  -15.9766   23.3561 O   0  0  0  0  0  0  0  0  0  0  0  0
   13.4865  -19.3974   23.5865 O   0  0  0  0  0  0  0  0  0  0  0  0
    9.6248  -17.3874   24.2163 N   0  0  0  0  0  0  0  0  0  0  0  0
    9.5219  -16.6509   25.4882 C   0  0  1  0  0  0  0  0  0  0  0  0
    8.1217  -16.2016   25.7167 C   0  0  0  0  0  0  0  0  0  0  0  0
    7.8108  -14.9962   24.9268 C   0  0  0  0  0  0  0  0  0  0  0  0
    8.7436  -14.3327   24.0986 C   0  0  0  0  0  0  0  0  0  0  0  0
    8.1797  -13.2763   23.5104 N   0  0  0  0  0  0  0  0  0  0  0  0
    6.9100  -13.2378   23.9343 C   0  0  0  0  0  0  0  0  0  0  0  0
    6.7010  -14.2617   24.7737 N   0  0  0  0  0  0  0  0  0  0  0  0
    9.8612  -17.6706   26.5511 C   0  0  0  0  0  0  0  0  0  0  0  0
   10.1594  -18.8661   26.2356 O   0  0  0  0  0  0  0  0  0  0  0  0
    9.8483  -17.3015   27.8717 O   0  0  0  0  0  0  0  0  0  0  0  0
  2  3  2  0
  2  1  1  0
  4  2  1  0
  5  4  1  0
  5  6  1  6
  7  8  2  0
  7  5  1  0
  9  7  1  0
 10  9  1  0
 10 11  1  6
 12 11  1  0
 13 12  2  0
 14 10  1  0
 14 17  1  0
 15 14  2  0
 16 12  1  0
 18 17  1  0
 18 25  1  0
 18 19  1  1
 20 19  1  0
 21 20  2  0
 22 21  1  0
 23 22  1  0
 23 24  2  0
 24 20  1  0
 25 27  1  0
 26 25  2  0
M  END
$$$$
