NDH.pdb
     RDKit          3D

 27 27  0  0  1  0  0  0  0  0999 V2000
    8.7426  -17.0025   12.9850 N   0  0  0  0  0  0  0  0  0  0  0  0
    7.5107  -16.9199   13.6876 C   0  0  0  0  0  0  0  0  0  0  0  0
    6.4583  -17.2237   13.0736 O   0  0  0  0  0  0  0  0  0  0  0  0
    7.3824  -16.4999   15.0952 C   0  0  0  0  0  0  0  0  0  0  0  0
    8.6932  -15.9953   15.6623 C   0  0  2  0  0  0  0  0  0  0  0  0
    9.8156  -16.3787   14.8325 N   0  0  0  0  0  0  0  0  0  0  0  0
    8.9327  -16.5053   17.0299 C   0  0  0  0  0  0  0  0  0  0  0  0
    8.0440  -16.3955   17.9072 O   0  0  0  0  0  0  0  0  0  0  0  0
   10.1661  -17.1347   17.4042 N   0  0  0  0  0  0  0  0  0  0  0  0
   10.4036  -17.6113   18.7492 C   0  0  1  0  0  0  0  0  0  0  0  0
   11.5602  -18.5716   18.7835 C   0  0  0  0  0  0  0  0  0  0  0  0
   11.2619  -19.8617   18.1220 C   0  0  0  0  0  0  0  0  0  0  0  0
   11.5867  -20.1461   16.9462 O   0  0  0  0  0  0  0  0  0  0  0  0
   10.7651  -16.4690   19.6506 C   0  0  0  0  0  0  0  0  0  0  0  0
   11.0168  -15.3405   19.1698 O   0  0  0  0  0  0  0  0  0  0  0  0
   10.5801  -20.8146   18.8507 O   0  0  0  0  0  0  0  0  0  0  0  0
   10.8354  -16.6170   21.0564 N   0  0  0  0  0  0  0  0  0  0  0  0
   10.3796  -15.5728   21.9904 C   0  0  1  0  0  0  0  0  0  0  0  0
    8.9091  -15.3761   21.8726 C   0  0  0  0  0  0  0  0  0  0  0  0
    8.5828  -14.3966   20.8202 C   0  0  0  0  0  0  0  0  0  0  0  0
    9.5506  -13.7021   20.0605 C   0  0  0  0  0  0  0  0  0  0  0  0
    8.9617  -12.8847   19.1859 N   0  0  0  0  0  0  0  0  0  0  0  0
    7.6417  -13.0308   19.3583 C   0  0  0  0  0  0  0  0  0  0  0  0
    7.4272  -13.9294   20.3295 N   0  0  0  0  0  0  0  0  0  0  0  0
   10.6638  -16.1355   23.3642 C   0  0  0  0  0  0  0  0  0  0  0  0
   10.8982  -17.3752   23.5247 O   0  0  0  0  0  0  0  0  0  0  0  0
   10.6700  -15.2985   24.4504 O   0  0  0  0  0  0  0  0  0  0  0  0
  2  3  2  0
  2  1  1  0
  4  2  1  0
  5  4  1  0
  5  6  1  6
  7  8  2  0
  7  5  1  0
  9  7  1  0
 10  9  1  0
 10 11  1  6
 12 11  1  0
 13 12  2  0
 14 10  1  0
 14 17  1  0
 15 14  2  0
 16 12  1  0
 18 17  1  0
 18 25  1  0
 18 19  1  1
 20 19  1  0
 21 20  2  0
 22 21  1  0
 23 22  1  0
 23 24  2  0
 24 20  1  0
 25 27  1  0
 26 25  2  0
M  END
$$$$
