NDH.pdb
     RDKit          3D

 27 27  0  0  1  0  0  0  0  0999 V2000
    5.9703  -21.7629   20.8169 N   0  0  0  0  0  0  0  0  0  0  0  0
    6.9374  -21.5192   19.8052 C   0  0  0  0  0  0  0  0  0  0  0  0
    6.8101  -22.1185   18.7090 O   0  0  0  0  0  0  0  0  0  0  0  0
    8.0859  -20.6066   19.9546 C   0  0  0  0  0  0  0  0  0  0  0  0
    8.1796  -20.0310   21.3526 C   0  0  2  0  0  0  0  0  0  0  0  0
    6.8865  -19.5988   21.8389 N   0  0  0  0  0  0  0  0  0  0  0  0
    9.1053  -18.8788   21.4113 C   0  0  0  0  0  0  0  0  0  0  0  0
   10.3437  -19.0625   21.3471 O   0  0  0  0  0  0  0  0  0  0  0  0
    8.6364  -17.5295   21.5416 N   0  0  0  0  0  0  0  0  0  0  0  0
    9.5471  -16.4088   21.6269 C   0  0  1  0  0  0  0  0  0  0  0  0
    8.9699  -15.1940   20.9543 C   0  0  0  0  0  0  0  0  0  0  0  0
    8.8806  -15.3336   19.4834 C   0  0  0  0  0  0  0  0  0  0  0  0
    9.4631  -16.2221   18.8200 O   0  0  0  0  0  0  0  0  0  0  0  0
    9.7826  -16.0366   23.0601 C   0  0  0  0  0  0  0  0  0  0  0  0
   10.4712  -15.0307   23.3463 O   0  0  0  0  0  0  0  0  0  0  0  0
    8.1030  -14.4230   18.7979 O   0  0  0  0  0  0  0  0  0  0  0  0
    9.2459  -16.7935   24.1288 N   0  0  0  0  0  0  0  0  0  0  0  0
    9.5028  -16.4680   25.5425 C   0  0  1  0  0  0  0  0  0  0  0  0
    8.2205  -16.3223   26.2836 C   0  0  0  0  0  0  0  0  0  0  0  0
    7.5854  -15.0216   26.0034 C   0  0  0  0  0  0  0  0  0  0  0  0
    8.2138  -13.9720   25.2967 C   0  0  0  0  0  0  0  0  0  0  0  0
    7.3991  -12.9203   25.1972 N   0  0  0  0  0  0  0  0  0  0  0  0
    6.2626  -13.2597   25.8191 C   0  0  0  0  0  0  0  0  0  0  0  0
    6.3829  -14.5074   26.2937 N   0  0  0  0  0  0  0  0  0  0  0  0
   10.2207  -17.6796   26.0914 C   0  0  0  0  0  0  0  0  0  0  0  0
   10.4324  -18.6984   25.3599 O   0  0  0  0  0  0  0  0  0  0  0  0
   10.6499  -17.6797   27.3938 O   0  0  0  0  0  0  0  0  0  0  0  0
  2  3  2  0
  2  1  1  0
  4  2  1  0
  5  4  1  0
  5  6  1  6
  7  8  2  0
  7  5  1  0
  9  7  1  0
 10  9  1  0
 10 11  1  6
 12 11  1  0
 13 12  2  0
 14 10  1  0
 14 17  1  0
 15 14  2  0
 16 12  1  0
 18 17  1  0
 18 25  1  0
 18 19  1  1
 20 19  1  0
 21 20  2  0
 22 21  1  0
 23 22  1  0
 23 24  2  0
 24 20  1  0
 25 27  1  0
 26 25  2  0
M  END
$$$$
