LEP.pdb
     RDKit          3D

 25 25  0  0  1  0  0  0  0  0999 V2000
    9.4062  -12.9410   18.7667 C   0  0  0  0  0  0  0  0  0  0  0  0
    8.1093  -13.7363   18.6569 C   0  0  2  0  0  0  0  0  0  0  0  0
    7.1629  -12.9675   17.8009 C   0  0  0  0  0  0  0  0  0  0  0  0
    7.6184  -13.9597   20.0643 C   0  0  0  0  0  0  0  0  0  0  0  0
    8.5723  -14.7963   20.8832 C   0  0  2  0  0  0  0  0  0  0  0  0
    8.7297  -16.1238   20.3910 N   0  0  0  0  0  0  0  0  0  0  0  0
    8.0326  -14.8515   22.2640 C   0  0  0  0  0  0  0  0  0  0  0  0
    7.6145  -13.7731   22.7831 O   0  0  0  0  0  0  0  0  0  0  0  0
    7.9564  -16.0210   23.0293 N   0  0  0  0  0  0  0  0  0  0  0  0
    7.4853  -15.9448   24.4491 C   0  0  1  0  0  0  0  0  0  0  0  0
    7.2166  -17.4202   24.7436 C   0  0  0  0  0  0  0  0  0  0  0  0
    6.1485  -18.0053   23.8862 C   0  0  0  0  0  0  0  0  0  0  0  0
    6.0550  -19.4885   24.1273 C   0  0  0  0  0  0  0  0  0  0  0  0
    5.6601  -20.2597   23.2317 O   0  0  0  0  0  0  0  0  0  0  0  0
    8.5526  -15.4059   25.2835 C   0  0  0  0  0  0  0  0  0  0  0  0
    9.7481  -15.6345   24.9124 O   0  0  0  0  0  0  0  0  0  0  0  0
    6.4169  -19.9658   25.3604 O   0  0  0  0  0  0  0  0  0  0  0  0
    8.3384  -14.6631   26.4447 N   0  0  0  0  0  0  0  0  0  0  0  0
    7.0053  -14.4416   27.0352 C   0  0  0  0  0  0  0  0  0  0  0  0
    7.0801  -12.9677   27.3726 C   0  0  0  0  0  0  0  0  0  0  0  0
    8.5390  -12.7226   27.6894 C   0  0  0  0  0  0  0  0  0  0  0  0
    9.2438  -14.0140   27.3532 C   0  0  1  0  0  0  0  0  0  0  0  0
    9.3503  -14.7982   28.6313 C   0  0  0  0  0  0  0  0  0  0  0  0
   10.2628  -14.5418   29.6253 O   0  0  0  0  0  0  0  0  0  0  0  0
    8.5424  -15.7479   28.7857 O   0  0  0  0  0  0  0  0  0  0  0  0
  2  1  1  1
  2  3  1  0
  4  2  1  0
  5  4  1  0
  5  7  1  0
  5  6  1  6
  7  8  2  0
  9  7  1  0
  9 10  1  0
 10 11  1  1
 11 12  1  0
 12 13  1  0
 13 17  1  0
 14 13  2  0
 15 10  1  0
 15 16  2  0
 18 15  1  0
 19 18  1  0
 20 19  1  0
 21 22  1  0
 21 20  1  0
 22 18  1  0
 22 23  1  1
 24 23  1  0
 25 23  2  0
M  END
$$$$
