LEP.pdb
     RDKit          3D

 25 25  0  0  1  0  0  0  0  0999 V2000
    9.7331  -13.3672   19.2985 C   0  0  0  0  0  0  0  0  0  0  0  0
    8.2271  -13.4862   19.0882 C   0  0  2  0  0  0  0  0  0  0  0  0
    7.6882  -12.1271   18.8023 C   0  0  0  0  0  0  0  0  0  0  0  0
    7.6647  -14.1177   20.3358 C   0  0  0  0  0  0  0  0  0  0  0  0
    8.2439  -15.4866   20.6023 C   0  0  2  0  0  0  0  0  0  0  0  0
    7.5576  -16.5354   19.9251 N   0  0  0  0  0  0  0  0  0  0  0  0
    8.1636  -15.7195   22.0652 C   0  0  0  0  0  0  0  0  0  0  0  0
    7.0489  -15.5284   22.6380 O   0  0  0  0  0  0  0  0  0  0  0  0
    9.2428  -16.1373   22.8526 N   0  0  0  0  0  0  0  0  0  0  0  0
    9.0300  -16.4162   24.3088 C   0  0  1  0  0  0  0  0  0  0  0  0
    9.5158  -17.8624   24.3997 C   0  0  0  0  0  0  0  0  0  0  0  0
    9.4708  -18.4113   25.7835 C   0  0  0  0  0  0  0  0  0  0  0  0
   10.0027  -19.8197   25.7921 C   0  0  0  0  0  0  0  0  0  0  0  0
   11.2156  -20.0478   25.6194 O   0  0  0  0  0  0  0  0  0  0  0  0
    9.8556  -15.5110   25.0993 C   0  0  0  0  0  0  0  0  0  0  0  0
   11.0093  -15.2316   24.6409 O   0  0  0  0  0  0  0  0  0  0  0  0
    9.1142  -20.8436   25.9955 O   0  0  0  0  0  0  0  0  0  0  0  0
    9.4553  -14.9416   26.3082 N   0  0  0  0  0  0  0  0  0  0  0  0
    8.1620  -15.2305   26.9556 C   0  0  0  0  0  0  0  0  0  0  0  0
    7.7323  -13.8408   27.3752 C   0  0  0  0  0  0  0  0  0  0  0  0
    9.0268  -13.1099   27.6559 C   0  0  0  0  0  0  0  0  0  0  0  0
   10.1214  -14.0536   27.2216 C   0  0  1  0  0  0  0  0  0  0  0  0
   10.5630  -14.8030   28.4476 C   0  0  0  0  0  0  0  0  0  0  0  0
   10.2454  -16.1127   28.7129 O   0  0  0  0  0  0  0  0  0  0  0  0
   11.2705  -14.1754   29.2747 O   0  0  0  0  0  0  0  0  0  0  0  0
  2  1  1  1
  2  3  1  0
  4  2  1  0
  5  4  1  0
  5  7  1  0
  5  6  1  6
  7  8  2  0
  9  7  1  0
  9 10  1  0
 10 11  1  6
 11 12  1  0
 12 13  1  0
 13 17  1  0
 14 13  2  0
 15 10  1  0
 15 16  2  0
 18 15  1  0
 19 18  1  0
 20 19  1  0
 21 22  1  0
 21 20  1  0
 22 18  1  0
 22 23  1  1
 24 23  1  0
 25 23  2  0
M  END
$$$$
