LEP.pdb
     RDKit          3D

 25 25  0  0  1  0  0  0  0  0999 V2000
    9.2891  -12.9978   18.9976 C   0  0  0  0  0  0  0  0  0  0  0  0
    7.8944  -13.5924   19.1652 C   0  0  2  0  0  0  0  0  0  0  0  0
    6.9142  -12.6652   18.5336 C   0  0  0  0  0  0  0  0  0  0  0  0
    7.6839  -13.7910   20.6443 C   0  0  0  0  0  0  0  0  0  0  0  0
    8.6904  -14.7405   21.2491 C   0  0  2  0  0  0  0  0  0  0  0  0
    8.6851  -16.0321   20.6482 N   0  0  0  0  0  0  0  0  0  0  0  0
    8.3576  -14.8736   22.6887 C   0  0  0  0  0  0  0  0  0  0  0  0
    8.0463  -13.8236   23.3272 O   0  0  0  0  0  0  0  0  0  0  0  0
    8.3660  -16.0874   23.3858 N   0  0  0  0  0  0  0  0  0  0  0  0
    8.1287  -16.0910   24.8647 C   0  0  1  0  0  0  0  0  0  0  0  0
    7.5114  -17.4761   25.0547 C   0  0  0  0  0  0  0  0  0  0  0  0
    6.3065  -17.7032   24.2092 C   0  0  0  0  0  0  0  0  0  0  0  0
    6.1365  -19.1760   23.9469 C   0  0  0  0  0  0  0  0  0  0  0  0
    5.7684  -19.9498   24.8516 O   0  0  0  0  0  0  0  0  0  0  0  0
    9.4044  -15.9608   25.5586 C   0  0  0  0  0  0  0  0  0  0  0  0
   10.4318  -16.4303   24.9728 O   0  0  0  0  0  0  0  0  0  0  0  0
    6.3985  -19.6408   22.6842 O   0  0  0  0  0  0  0  0  0  0  0  0
    9.5580  -15.3567   26.8066 N   0  0  0  0  0  0  0  0  0  0  0  0
    8.4406  -14.7725   27.5715 C   0  0  0  0  0  0  0  0  0  0  0  0
    9.0620  -13.4761   28.0459 C   0  0  0  0  0  0  0  0  0  0  0  0
   10.5318  -13.7951   28.2096 C   0  0  0  0  0  0  0  0  0  0  0  0
   10.7015  -15.1911   27.6619 C   0  0  1  0  0  0  0  0  0  0  0  0
   10.6175  -16.1316   28.8316 C   0  0  0  0  0  0  0  0  0  0  0  0
   11.6459  -16.3716   29.7098 O   0  0  0  0  0  0  0  0  0  0  0  0
    9.5261  -16.7296   29.0042 O   0  0  0  0  0  0  0  0  0  0  0  0
  2  1  1  1
  2  3  1  0
  4  2  1  0
  5  4  1  0
  5  7  1  0
  5  6  1  6
  7  8  2  0
  9  7  1  0
  9 10  1  0
 10 11  1  1
 11 12  1  0
 12 13  1  0
 13 17  1  0
 14 13  2  0
 15 10  1  0
 15 16  2  0
 18 15  1  0
 19 18  1  0
 20 19  1  0
 21 22  1  0
 21 20  1  0
 22 18  1  0
 22 23  1  1
 24 23  1  0
 25 23  2  0
M  END
$$$$
