LEP.pdb
     RDKit          3D

 25 25  0  0  1  0  0  0  0  0999 V2000
    9.6177  -13.6426   19.8996 C   0  0  0  0  0  0  0  0  0  0  0  0
    8.3308  -13.6001   19.0819 C   0  0  2  0  0  0  0  0  0  0  0  0
    8.1052  -12.1949   18.6417 C   0  0  0  0  0  0  0  0  0  0  0  0
    7.2390  -14.1477   19.9649 C   0  0  0  0  0  0  0  0  0  0  0  0
    7.5356  -15.5463   20.4510 C   0  0  2  0  0  0  0  0  0  0  0  0
    6.8150  -16.5559   19.7503 N   0  0  0  0  0  0  0  0  0  0  0  0
    7.1700  -15.5979   21.8878 C   0  0  0  0  0  0  0  0  0  0  0  0
    5.9972  -15.2466   22.2165 O   0  0  0  0  0  0  0  0  0  0  0  0
    8.0403  -16.0107   22.9035 N   0  0  0  0  0  0  0  0  0  0  0  0
    7.5854  -15.9638   24.3298 C   0  0  1  0  0  0  0  0  0  0  0  0
    7.6187  -17.4481   24.6924 C   0  0  0  0  0  0  0  0  0  0  0  0
    7.3712  -17.7053   26.1384 C   0  0  0  0  0  0  0  0  0  0  0  0
    7.4692  -19.1813   26.4189 C   0  0  0  0  0  0  0  0  0  0  0  0
    8.3763  -19.8707   25.9142 O   0  0  0  0  0  0  0  0  0  0  0  0
    8.5377  -15.1874   25.1149 C   0  0  0  0  0  0  0  0  0  0  0  0
    9.7653  -15.2825   24.7937 O   0  0  0  0  0  0  0  0  0  0  0  0
    6.5317  -19.7444   27.2454 O   0  0  0  0  0  0  0  0  0  0  0  0
    8.1822  -14.3576   26.1784 N   0  0  0  0  0  0  0  0  0  0  0  0
    6.7895  -14.1430   26.6133 C   0  0  0  0  0  0  0  0  0  0  0  0
    6.7802  -12.6437   26.8232 C   0  0  0  0  0  0  0  0  0  0  0  0
    8.1905  -12.3109   27.2582 C   0  0  0  0  0  0  0  0  0  0  0  0
    8.9687  -13.5954   27.1095 C   0  0  1  0  0  0  0  0  0  0  0  0
    8.9714  -14.2620   28.4568 C   0  0  0  0  0  0  0  0  0  0  0  0
    9.8146  -13.9253   29.4875 O   0  0  0  0  0  0  0  0  0  0  0  0
    8.1398  -15.1864   28.6365 O   0  0  0  0  0  0  0  0  0  0  0  0
  2  1  1  1
  2  3  1  0
  4  2  1  0
  5  4  1  0
  5  7  1  0
  5  6  1  6
  7  8  2  0
  9  7  1  0
  9 10  1  0
 10 11  1  1
 11 12  1  0
 12 13  1  0
 13 17  1  0
 14 13  2  0
 15 10  1  0
 15 16  2  0
 18 15  1  0
 19 18  1  0
 20 19  1  0
 21 22  1  0
 21 20  1  0
 22 18  1  0
 22 23  1  1
 24 23  1  0
 25 23  2  0
M  END
$$$$
