LEP.pdb
     RDKit          3D

 25 25  0  0  1  0  0  0  0  0999 V2000
    9.5313  -13.5142   19.6728 C   0  0  0  0  0  0  0  0  0  0  0  0
    8.1275  -13.5295   19.0762 C   0  0  2  0  0  0  0  0  0  0  0  0
    7.8116  -12.1557   18.5945 C   0  0  0  0  0  0  0  0  0  0  0  0
    7.2033  -14.0266   20.1580 C   0  0  0  0  0  0  0  0  0  0  0  0
    7.5535  -15.4202   20.6223 C   0  0  2  0  0  0  0  0  0  0  0  0
    6.8816  -16.4460   19.8972 N   0  0  0  0  0  0  0  0  0  0  0  0
    7.1779  -15.5126   22.0544 C   0  0  0  0  0  0  0  0  0  0  0  0
    5.9957  -15.1924   22.3816 O   0  0  0  0  0  0  0  0  0  0  0  0
    8.0484  -15.9316   23.0674 N   0  0  0  0  0  0  0  0  0  0  0  0
    7.6070  -15.8595   24.4968 C   0  0  1  0  0  0  0  0  0  0  0  0
    7.4494  -17.3437   24.8256 C   0  0  0  0  0  0  0  0  0  0  0  0
    6.3931  -18.0151   24.0184 C   0  0  0  0  0  0  0  0  0  0  0  0
    6.3137  -19.4717   24.3911 C   0  0  0  0  0  0  0  0  0  0  0  0
    7.0379  -19.9439   25.2886 O   0  0  0  0  0  0  0  0  0  0  0  0
    8.6535  -15.2307   25.2940 C   0  0  0  0  0  0  0  0  0  0  0  0
    9.8463  -15.3267   24.8614 O   0  0  0  0  0  0  0  0  0  0  0  0
    5.4219  -20.2631   23.7147 O   0  0  0  0  0  0  0  0  0  0  0  0
    8.4219  -14.5384   26.4828 N   0  0  0  0  0  0  0  0  0  0  0  0
    7.0909  -14.4116   27.1051 C   0  0  0  0  0  0  0  0  0  0  0  0
    7.0901  -12.9473   27.4893 C   0  0  0  0  0  0  0  0  0  0  0  0
    8.5392  -12.6303   27.7866 C   0  0  0  0  0  0  0  0  0  0  0  0
    9.3081  -13.8684   27.3951 C   0  0  1  0  0  0  0  0  0  0  0  0
    9.4844  -14.6855   28.6444 C   0  0  0  0  0  0  0  0  0  0  0  0
   10.3994  -14.4079   29.6305 O   0  0  0  0  0  0  0  0  0  0  0  0
    8.7362  -15.6855   28.7813 O   0  0  0  0  0  0  0  0  0  0  0  0
  2  1  1  1
  2  3  1  0
  4  2  1  0
  5  4  1  0
  5  7  1  0
  5  6  1  6
  7  8  2  0
  9  7  1  0
  9 10  1  0
 10 11  1  1
 11 12  1  0
 12 13  1  0
 13 17  1  0
 14 13  2  0
 15 10  1  0
 15 16  2  0
 18 15  1  0
 19 18  1  0
 20 19  1  0
 21 22  1  0
 21 20  1  0
 22 18  1  0
 22 23  1  1
 24 23  1  0
 25 23  2  0
M  END
$$$$
