LEP.pdb
     RDKit          3D

 25 25  0  0  1  0  0  0  0  0999 V2000
    9.6300  -13.8013   19.5916 C   0  0  0  0  0  0  0  0  0  0  0  0
    8.2333  -13.7335   18.9823 C   0  0  2  0  0  0  0  0  0  0  0  0
    8.0075  -12.3460   18.4890 C   0  0  0  0  0  0  0  0  0  0  0  0
    7.2705  -14.1647   20.0587 C   0  0  0  0  0  0  0  0  0  0  0  0
    7.5804  -15.5427   20.5932 C   0  0  2  0  0  0  0  0  0  0  0  0
    6.8717  -16.5831   19.9264 N   0  0  0  0  0  0  0  0  0  0  0  0
    7.2121  -15.5485   22.0303 C   0  0  0  0  0  0  0  0  0  0  0  0
    6.0364  -15.1939   22.3449 O   0  0  0  0  0  0  0  0  0  0  0  0
    8.0829  -15.9215   23.0608 N   0  0  0  0  0  0  0  0  0  0  0  0
    7.6052  -15.8865   24.4800 C   0  0  1  0  0  0  0  0  0  0  0  0
    7.6461  -17.3724   24.8351 C   0  0  0  0  0  0  0  0  0  0  0  0
    6.6047  -18.1730   24.1331 C   0  0  0  0  0  0  0  0  0  0  0  0
    6.7605  -19.6299   24.4794 C   0  0  0  0  0  0  0  0  0  0  0  0
    7.3811  -20.4049   23.7263 O   0  0  0  0  0  0  0  0  0  0  0  0
    8.5380  -15.1059   25.2841 C   0  0  0  0  0  0  0  0  0  0  0  0
    9.7373  -15.0282   24.8659 O   0  0  0  0  0  0  0  0  0  0  0  0
    6.2000  -20.0789   25.6470 O   0  0  0  0  0  0  0  0  0  0  0  0
    8.1925  -14.4481   26.4647 N   0  0  0  0  0  0  0  0  0  0  0  0
    6.8565  -14.5334   27.0834 C   0  0  0  0  0  0  0  0  0  0  0  0
    6.6155  -13.0848   27.4513 C   0  0  0  0  0  0  0  0  0  0  0  0
    7.9925  -12.5326   27.7475 C   0  0  0  0  0  0  0  0  0  0  0  0
    8.9544  -13.6328   27.3710 C   0  0  1  0  0  0  0  0  0  0  0  0
    9.2573  -14.3969   28.6297 C   0  0  0  0  0  0  0  0  0  0  0  0
   10.1281  -13.9735   29.6038 O   0  0  0  0  0  0  0  0  0  0  0  0
    8.6651  -15.4937   28.7865 O   0  0  0  0  0  0  0  0  0  0  0  0
  2  1  1  1
  2  3  1  0
  4  2  1  0
  5  4  1  0
  5  7  1  0
  5  6  1  6
  7  8  2  0
  9  7  1  0
  9 10  1  0
 10 11  1  1
 11 12  1  0
 12 13  1  0
 13 17  1  0
 14 13  2  0
 15 10  1  0
 15 16  2  0
 18 15  1  0
 19 18  1  0
 20 19  1  0
 21 22  1  0
 21 20  1  0
 22 18  1  0
 22 23  1  1
 24 23  1  0
 25 23  2  0
M  END
$$$$
