LEP.pdb
     RDKit          3D

 25 25  0  0  1  0  0  0  0  0999 V2000
    9.5551  -13.6391   20.1652 C   0  0  0  0  0  0  0  0  0  0  0  0
    8.3911  -13.6211   19.1795 C   0  0  2  0  0  0  0  0  0  0  0  0
    8.1857  -12.2165   18.7275 C   0  0  0  0  0  0  0  0  0  0  0  0
    7.2059  -14.2120   19.8991 C   0  0  0  0  0  0  0  0  0  0  0  0
    7.4857  -15.5962   20.4340 C   0  0  2  0  0  0  0  0  0  0  0  0
    6.7625  -16.6222   19.7604 N   0  0  0  0  0  0  0  0  0  0  0  0
    7.1067  -15.5968   21.8683 C   0  0  0  0  0  0  0  0  0  0  0  0
    5.9579  -15.1611   22.1805 O   0  0  0  0  0  0  0  0  0  0  0  0
    7.9393  -16.0490   22.8986 N   0  0  0  0  0  0  0  0  0  0  0  0
    7.4777  -15.9463   24.3198 C   0  0  1  0  0  0  0  0  0  0  0  0
    7.5148  -17.4146   24.7422 C   0  0  0  0  0  0  0  0  0  0  0  0
    7.1970  -17.6195   26.1828 C   0  0  0  0  0  0  0  0  0  0  0  0
    7.2991  -19.0820   26.5255 C   0  0  0  0  0  0  0  0  0  0  0  0
    6.6738  -19.9388   25.8713 O   0  0  0  0  0  0  0  0  0  0  0  0
    8.4235  -15.1351   25.0770 C   0  0  0  0  0  0  0  0  0  0  0  0
    9.6442  -15.1874   24.7218 O   0  0  0  0  0  0  0  0  0  0  0  0
    8.0997  -19.4436   27.5778 O   0  0  0  0  0  0  0  0  0  0  0  0
    8.0686  -14.3160   26.1490 N   0  0  0  0  0  0  0  0  0  0  0  0
    6.6834  -14.1595   26.6305 C   0  0  0  0  0  0  0  0  0  0  0  0
    6.6164  -12.6610   26.8353 C   0  0  0  0  0  0  0  0  0  0  0  0
    8.0249  -12.2655   27.2207 C   0  0  0  0  0  0  0  0  0  0  0  0
    8.8525  -13.5159   27.0501 C   0  0  1  0  0  0  0  0  0  0  0  0
    8.9297  -14.1751   28.3989 C   0  0  0  0  0  0  0  0  0  0  0  0
    8.2491  -15.3169   28.7448 O   0  0  0  0  0  0  0  0  0  0  0  0
    9.6720  -13.6335   29.2558 O   0  0  0  0  0  0  0  0  0  0  0  0
  2  1  1  1
  2  3  1  0
  4  2  1  0
  5  4  1  0
  5  7  1  0
  5  6  1  6
  7  8  2  0
  9  7  1  0
  9 10  1  0
 10 11  1  1
 11 12  1  0
 12 13  1  0
 13 17  1  0
 14 13  2  0
 15 10  1  0
 15 16  2  0
 18 15  1  0
 19 18  1  0
 20 19  1  0
 21 22  1  0
 21 20  1  0
 22 18  1  0
 22 23  1  1
 24 23  1  0
 25 23  2  0
M  END
$$$$
