LEP.pdb
     RDKit          3D

 25 25  0  0  1  0  0  0  0  0999 V2000
    9.7755  -13.7587   19.4491 C   0  0  0  0  0  0  0  0  0  0  0  0
    8.3871  -13.7109   18.8193 C   0  0  2  0  0  0  0  0  0  0  0  0
    8.1529  -12.3296   18.3131 C   0  0  0  0  0  0  0  0  0  0  0  0
    7.4137  -14.1456   19.8848 C   0  0  0  0  0  0  0  0  0  0  0  0
    7.7162  -15.5267   20.4155 C   0  0  2  0  0  0  0  0  0  0  0  0
    7.0676  -16.5679   19.6912 N   0  0  0  0  0  0  0  0  0  0  0  0
    7.2631  -15.5627   21.8276 C   0  0  0  0  0  0  0  0  0  0  0  0
    6.0933  -15.1494   22.0881 O   0  0  0  0  0  0  0  0  0  0  0  0
    8.0475  -16.0251   22.8907 N   0  0  0  0  0  0  0  0  0  0  0  0
    7.5189  -15.9408   24.2896 C   0  0  1  0  0  0  0  0  0  0  0  0
    7.5548  -17.4123   24.7009 C   0  0  0  0  0  0  0  0  0  0  0  0
    7.1588  -17.6356   26.1192 C   0  0  0  0  0  0  0  0  0  0  0  0
    7.2802  -19.0972   26.4596 C   0  0  0  0  0  0  0  0  0  0  0  0
    6.3516  -19.8914   26.2149 O   0  0  0  0  0  0  0  0  0  0  0  0
    8.4180  -15.1249   25.0970 C   0  0  0  0  0  0  0  0  0  0  0  0
    9.6411  -15.0936   24.7476 O   0  0  0  0  0  0  0  0  0  0  0  0
    8.4415  -19.5287   27.0462 O   0  0  0  0  0  0  0  0  0  0  0  0
    8.0166  -14.3867   26.2105 N   0  0  0  0  0  0  0  0  0  0  0  0
    6.6399  -14.3939   26.7392 C   0  0  0  0  0  0  0  0  0  0  0  0
    6.4246  -12.9191   27.0045 C   0  0  0  0  0  0  0  0  0  0  0  0
    7.7967  -12.3918   27.3625 C   0  0  0  0  0  0  0  0  0  0  0  0
    8.7433  -13.5414   27.1183 C   0  0  1  0  0  0  0  0  0  0  0  0
    8.9345  -14.2367   28.4373 C   0  0  0  0  0  0  0  0  0  0  0  0
    9.7630  -13.7894   29.4373 O   0  0  0  0  0  0  0  0  0  0  0  0
    8.2848  -15.2960   28.6221 O   0  0  0  0  0  0  0  0  0  0  0  0
  2  1  1  1
  2  3  1  0
  4  2  1  0
  5  4  1  0
  5  7  1  0
  5  6  1  6
  7  8  2  0
  9  7  1  0
  9 10  1  0
 10 11  1  1
 11 12  1  0
 12 13  1  0
 13 17  1  0
 14 13  2  0
 15 10  1  0
 15 16  2  0
 18 15  1  0
 19 18  1  0
 20 19  1  0
 21 22  1  0
 21 20  1  0
 22 18  1  0
 22 23  1  1
 24 23  1  0
 25 23  2  0
M  END
$$$$
