LEP.pdb
     RDKit          3D

 25 25  0  0  1  0  0  0  0  0999 V2000
    9.7107  -13.6291   19.7054 C   0  0  0  0  0  0  0  0  0  0  0  0
    8.3900  -13.6507   18.9427 C   0  0  2  0  0  0  0  0  0  0  0  0
    8.1183  -12.2738   18.4433 C   0  0  0  0  0  0  0  0  0  0  0  0
    7.3474  -14.1722   19.8980 C   0  0  0  0  0  0  0  0  0  0  0  0
    7.6983  -15.5332   20.4502 C   0  0  2  0  0  0  0  0  0  0  0  0
    7.1050  -16.6089   19.7289 N   0  0  0  0  0  0  0  0  0  0  0  0
    7.2247  -15.5717   21.8555 C   0  0  0  0  0  0  0  0  0  0  0  0
    6.0837  -15.0826   22.1127 O   0  0  0  0  0  0  0  0  0  0  0  0
    7.9599  -16.1148   22.9156 N   0  0  0  0  0  0  0  0  0  0  0  0
    7.4290  -16.0103   24.3123 C   0  0  1  0  0  0  0  0  0  0  0  0
    7.5629  -17.4587   24.7812 C   0  0  0  0  0  0  0  0  0  0  0  0
    7.1854  -17.6511   26.2090 C   0  0  0  0  0  0  0  0  0  0  0  0
    7.3408  -19.1000   26.5878 C   0  0  0  0  0  0  0  0  0  0  0  0
    8.2165  -19.4602   27.3980 O   0  0  0  0  0  0  0  0  0  0  0  0
    8.2733  -15.1054   25.0832 C   0  0  0  0  0  0  0  0  0  0  0  0
    9.4667  -14.9387   24.6741 O   0  0  0  0  0  0  0  0  0  0  0  0
    6.4913  -20.0111   26.0157 O   0  0  0  0  0  0  0  0  0  0  0  0
    7.8504  -14.4214   26.2230 N   0  0  0  0  0  0  0  0  0  0  0  0
    6.5333  -14.6265   26.8539 C   0  0  0  0  0  0  0  0  0  0  0  0
    6.1211  -13.1968   27.1332 C   0  0  0  0  0  0  0  0  0  0  0  0
    7.4221  -12.4674   27.3865 C   0  0  0  0  0  0  0  0  0  0  0  0
    8.5086  -13.4667   27.0727 C   0  0  1  0  0  0  0  0  0  0  0  0
    8.8987  -14.1099   28.3742 C   0  0  0  0  0  0  0  0  0  0  0  0
    8.5619  -15.3907   28.7384 O   0  0  0  0  0  0  0  0  0  0  0  0
    9.5794  -13.4164   29.1706 O   0  0  0  0  0  0  0  0  0  0  0  0
  2  1  1  1
  2  3  1  0
  4  2  1  0
  5  4  1  0
  5  7  1  0
  5  6  1  6
  7  8  2  0
  9  7  1  0
  9 10  1  0
 10 11  1  1
 11 12  1  0
 12 13  1  0
 13 17  1  0
 14 13  2  0
 15 10  1  0
 15 16  2  0
 18 15  1  0
 19 18  1  0
 20 19  1  0
 21 22  1  0
 21 20  1  0
 22 18  1  0
 22 23  1  1
 24 23  1  0
 25 23  2  0
M  END
$$$$
