LEP.pdb
     RDKit          3D

 25 25  0  0  1  0  0  0  0  0999 V2000
    7.4283  -12.1719   25.0459 C   0  0  0  0  0  0  0  0  0  0  0  0
    6.2799  -12.7403   25.8735 C   0  0  2  0  0  0  0  0  0  0  0  0
    6.1198  -11.8950   27.0897 C   0  0  0  0  0  0  0  0  0  0  0  0
    6.6286  -14.1767   26.1679 C   0  0  0  0  0  0  0  0  0  0  0  0
    6.7827  -15.0030   24.9133 C   0  0  2  0  0  0  0  0  0  0  0  0
    5.5713  -15.6193   24.4868 N   0  0  0  0  0  0  0  0  0  0  0  0
    7.7872  -16.0557   25.2023 C   0  0  0  0  0  0  0  0  0  0  0  0
    7.4389  -17.0233   25.9436 O   0  0  0  0  0  0  0  0  0  0  0  0
    9.0963  -16.0467   24.7068 N   0  0  0  0  0  0  0  0  0  0  0  0
   10.0464  -17.1316   25.1116 C   0  0  1  0  0  0  0  0  0  0  0  0
   11.1368  -16.9704   24.0529 C   0  0  0  0  0  0  0  0  0  0  0  0
   10.6425  -17.1811   22.6638 C   0  0  0  0  0  0  0  0  0  0  0  0
   11.7701  -16.9866   21.6853 C   0  0  0  0  0  0  0  0  0  0  0  0
   12.9249  -16.7347   22.0800 O   0  0  0  0  0  0  0  0  0  0  0  0
   10.5440  -16.8609   26.4551 C   0  0  0  0  0  0  0  0  0  0  0  0
   10.6968  -15.6402   26.7801 O   0  0  0  0  0  0  0  0  0  0  0  0
   11.4894  -17.0946   20.3479 O   0  0  0  0  0  0  0  0  0  0  0  0
   10.8531  -17.8501   27.3889 N   0  0  0  0  0  0  0  0  0  0  0  0
   10.6828  -19.2926   27.1336 C   0  0  0  0  0  0  0  0  0  0  0  0
   10.0580  -19.7448   28.4363 C   0  0  0  0  0  0  0  0  0  0  0  0
   10.6398  -18.8173   29.4804 C   0  0  0  0  0  0  0  0  0  0  0  0
   11.4238  -17.7856   28.7068 C   0  0  1  0  0  0  0  0  0  0  0  0
   12.8521  -18.2537   28.6792 C   0  0  0  0  0  0  0  0  0  0  0  0
   13.4378  -18.8958   27.6156 O   0  0  0  0  0  0  0  0  0  0  0  0
   13.5432  -18.0341   29.7051 O   0  0  0  0  0  0  0  0  0  0  0  0
  2  1  1  6
  2  3  1  0
  4  2  1  0
  5  4  1  0
  5  7  1  0
  5  6  1  1
  7  8  2  0
  9  7  1  0
  9 10  1  0
 10 11  1  6
 11 12  1  0
 12 13  1  0
 13 17  1  0
 14 13  2  0
 15 10  1  0
 15 16  2  0
 18 15  1  0
 19 18  1  0
 20 19  1  0
 21 22  1  0
 21 20  1  0
 22 18  1  0
 22 23  1  6
 24 23  1  0
 25 23  2  0
M  END
$$$$
