LEP.pdb
     RDKit          3D

 25 25  0  0  1  0  0  0  0  0999 V2000
    7.4562  -12.0916   19.2071 C   0  0  0  0  0  0  0  0  0  0  0  0
    8.1992  -13.2034   19.9410 C   0  0  2  0  0  0  0  0  0  0  0  0
    9.6613  -12.9442   19.8208 C   0  0  0  0  0  0  0  0  0  0  0  0
    7.7549  -14.5032   19.3207 C   0  0  0  0  0  0  0  0  0  0  0  0
    8.3400  -15.7071   20.0199 C   0  0  2  0  0  0  0  0  0  0  0  0
    7.9253  -16.9481   19.4564 N   0  0  0  0  0  0  0  0  0  0  0  0
    7.9029  -15.6470   21.4362 C   0  0  0  0  0  0  0  0  0  0  0  0
    6.6669  -15.4921   21.6716 O   0  0  0  0  0  0  0  0  0  0  0  0
    8.7711  -15.7509   22.5293 N   0  0  0  0  0  0  0  0  0  0  0  0
    8.2076  -15.8312   23.9147 C   0  0  1  0  0  0  0  0  0  0  0  0
    8.6222  -17.2471   24.3134 C   0  0  0  0  0  0  0  0  0  0  0  0
    8.0316  -18.2997   23.4409 C   0  0  0  0  0  0  0  0  0  0  0  0
    8.7718  -19.5968   23.6324 C   0  0  0  0  0  0  0  0  0  0  0  0
    9.6318  -19.7179   24.5261 O   0  0  0  0  0  0  0  0  0  0  0  0
    8.8403  -14.8194   24.7526 C   0  0  0  0  0  0  0  0  0  0  0  0
   10.0010  -14.4273   24.4086 O   0  0  0  0  0  0  0  0  0  0  0  0
    8.4723  -20.6402   22.7953 O   0  0  0  0  0  0  0  0  0  0  0  0
    8.2514  -14.2649   25.8890 N   0  0  0  0  0  0  0  0  0  0  0  0
    6.8999  -14.6193   26.3610 C   0  0  0  0  0  0  0  0  0  0  0  0
    6.3448  -13.2523   26.7004 C   0  0  0  0  0  0  0  0  0  0  0  0
    7.5493  -12.4506   27.1422 C   0  0  0  0  0  0  0  0  0  0  0  0
    8.7407  -13.3364   26.8714 C   0  0  1  0  0  0  0  0  0  0  0  0
    9.0522  -14.0530   28.1556 C   0  0  0  0  0  0  0  0  0  0  0  0
    9.7564  -13.5041   29.1994 O   0  0  0  0  0  0  0  0  0  0  0  0
    8.6322  -15.2318   28.2663 O   0  0  0  0  0  0  0  0  0  0  0  0
  2  1  1  6
  2  3  1  0
  4  2  1  0
  5  4  1  0
  5  7  1  0
  5  6  1  6
  7  8  2  0
  9  7  1  0
  9 10  1  0
 10 11  1  1
 11 12  1  0
 12 13  1  0
 13 17  1  0
 14 13  2  0
 15 10  1  0
 15 16  2  0
 18 15  1  0
 19 18  1  0
 20 19  1  0
 21 22  1  0
 21 20  1  0
 22 18  1  0
 22 23  1  1
 24 23  1  0
 25 23  2  0
M  END
$$$$
