LEP.pdb
     RDKit          3D

 25 25  0  0  1  0  0  0  0  0999 V2000
    9.0468  -12.4360   19.7277 C   0  0  0  0  0  0  0  0  0  0  0  0
    8.5274  -13.7754   19.2148 C   0  0  2  0  0  0  0  0  0  0  0  0
    8.1631  -13.6144   17.7793 C   0  0  0  0  0  0  0  0  0  0  0  0
    7.3698  -14.1583   20.1008 C   0  0  0  0  0  0  0  0  0  0  0  0
    7.4380  -15.5982   20.5510 C   0  0  2  0  0  0  0  0  0  0  0  0
    6.5409  -16.4552   19.8510 N   0  0  0  0  0  0  0  0  0  0  0  0
    7.1038  -15.6220   21.9961 C   0  0  0  0  0  0  0  0  0  0  0  0
    6.0179  -15.0814   22.3649 O   0  0  0  0  0  0  0  0  0  0  0  0
    7.9134  -16.2046   22.9782 N   0  0  0  0  0  0  0  0  0  0  0  0
    7.5233  -16.0905   24.4198 C   0  0  1  0  0  0  0  0  0  0  0  0
    7.5117  -17.5618   24.8331 C   0  0  0  0  0  0  0  0  0  0  0  0
    7.2026  -17.7643   26.2759 C   0  0  0  0  0  0  0  0  0  0  0  0
    7.2892  -19.2283   26.6164 C   0  0  0  0  0  0  0  0  0  0  0  0
    7.5158  -20.0791   25.7346 O   0  0  0  0  0  0  0  0  0  0  0  0
    8.5397  -15.3290   25.1361 C   0  0  0  0  0  0  0  0  0  0  0  0
    9.7322  -15.4016   24.6980 O   0  0  0  0  0  0  0  0  0  0  0  0
    7.1114  -19.5980   27.9244 O   0  0  0  0  0  0  0  0  0  0  0  0
    8.2801  -14.5362   26.2541 N   0  0  0  0  0  0  0  0  0  0  0  0
    6.9397  -14.3825   26.8498 C   0  0  0  0  0  0  0  0  0  0  0  0
    6.9034  -12.8895   27.0979 C   0  0  0  0  0  0  0  0  0  0  0  0
    8.3419  -12.5145   27.3783 C   0  0  0  0  0  0  0  0  0  0  0  0
    9.1414  -13.7658   27.1092 C   0  0  1  0  0  0  0  0  0  0  0  0
    9.3210  -14.4610   28.4299 C   0  0  0  0  0  0  0  0  0  0  0  0
    8.7143  -15.6446   28.7726 O   0  0  0  0  0  0  0  0  0  0  0  0
   10.0813  -13.9101   29.2647 O   0  0  0  0  0  0  0  0  0  0  0  0
  2  1  1  1
  2  3  1  0
  4  2  1  0
  5  4  1  0
  5  7  1  0
  5  6  1  6
  7  8  2  0
  9  7  1  0
  9 10  1  0
 10 11  1  1
 11 12  1  0
 12 13  1  0
 13 17  1  0
 14 13  2  0
 15 10  1  0
 15 16  2  0
 18 15  1  0
 19 18  1  0
 20 19  1  0
 21 22  1  0
 21 20  1  0
 22 18  1  0
 22 23  1  1
 24 23  1  0
 25 23  2  0
M  END
$$$$
