WSS.pdb
     RDKit          3D

 27 28  0  0  1  0  0  0  0  0999 V2000
   22.5835  -21.0061  -13.6989 N   0  0  0  0  0  0  0  0  0  0  0  0
   21.5719  -20.6027  -12.7762 C   0  0  1  0  0  0  0  0  0  0  0  0
   20.2408  -20.3538  -13.4381 C   0  0  0  0  0  0  0  0  0  0  0  0
   20.3116  -19.1169  -14.2501 C   0  0  0  0  0  0  0  0  0  0  0  0
   20.6331  -18.9991  -15.5844 C   0  0  0  0  0  0  0  0  0  0  0  0
   20.5884  -17.7139  -15.9622 N   0  0  0  0  0  0  0  0  0  0  0  0
   20.2398  -16.9936  -14.8828 C   0  0  0  0  0  0  0  0  0  0  0  0
   20.0558  -15.6350  -14.7370 C   0  0  0  0  0  0  0  0  0  0  0  0
   19.6934  -15.1326  -13.5083 C   0  0  0  0  0  0  0  0  0  0  0  0
   19.5140  -15.9681  -12.4310 C   0  0  0  0  0  0  0  0  0  0  0  0
   19.6989  -17.3172  -12.5845 C   0  0  0  0  0  0  0  0  0  0  0  0
   20.0622  -17.8345  -13.8098 C   0  0  0  0  0  0  0  0  0  0  0  0
   21.4918  -21.5665  -11.6716 C   0  0  0  0  0  0  0  0  0  0  0  0
   21.4277  -22.8193  -11.8400 O   0  0  0  0  0  0  0  0  0  0  0  0
   21.4887  -20.2589   -7.6444 O   0  0  0  0  0  0  0  0  0  0  0  0
   22.1620  -21.3821   -8.0747 C   0  0  0  0  0  0  0  0  0  0  0  0
   21.4381  -22.0488   -9.2289 C   0  0  2  0  0  0  0  0  0  0  0  0
   21.4837  -21.0997  -10.3350 N   0  0  0  0  0  0  0  0  0  0  0  0
   20.0280  -22.3233   -8.9193 C   0  0  0  0  0  0  0  0  0  0  0  0
   19.1381  -21.4855   -9.1521 O   0  0  0  0  0  0  0  0  0  0  0  0
   18.9561  -26.0311   -8.6499 O   0  0  0  0  0  0  0  0  0  0  0  0
   17.9091  -25.1433   -8.6437 C   0  0  0  0  0  0  0  0  0  0  0  0
   18.3209  -23.8756   -7.9113 C   0  0  2  0  0  0  0  0  0  0  0  0
   19.6637  -23.5610   -8.3459 N   0  0  0  0  0  0  0  0  0  0  0  0
   18.2093  -24.1295   -6.4807 C   0  0  0  0  0  0  0  0  0  0  0  0
   19.2070  -24.1049   -5.7245 O   0  0  0  0  0  0  0  0  0  0  0  0
   16.9753  -24.4072   -5.9243 O   0  0  0  0  0  0  0  0  0  0  0  0
  2  1  1  6
  3  2  1  0
  4  3  1  0
  5  4  2  0
  6  5  1  0
  7  6  1  0
  7 12  2  0
  8  7  1  0
  9  8  2  0
  9 10  1  0
 10 11  2  0
 11 12  1  0
 12  4  1  0
 13 14  2  0
 13  2  1  0
 16 15  1  0
 17 18  1  0
 17 16  1  1
 18 13  1  0
 19 17  1  0
 20 19  2  0
 22 21  1  0
 23 22  1  6
 23 24  1  0
 24 19  1  0
 25 23  1  0
 26 25  2  0
 27 25  1  0
M  END
$$$$
