WSS.pdb
     RDKit          3D

 27 28  0  0  1  0  0  0  0  0999 V2000
   26.0953  -22.6226  -13.1696 N   0  0  0  0  0  0  0  0  0  0  0  0
   25.3629  -21.6771  -12.3906 C   0  0  1  0  0  0  0  0  0  0  0  0
   26.0915  -20.3687  -12.2201 C   0  0  0  0  0  0  0  0  0  0  0  0
   27.2740  -20.5665  -11.3501 C   0  0  0  0  0  0  0  0  0  0  0  0
   28.5835  -20.7544  -11.7338 C   0  0  0  0  0  0  0  0  0  0  0  0
   29.3684  -20.8956  -10.6566 N   0  0  0  0  0  0  0  0  0  0  0  0
   28.5788  -20.8010   -9.5735 C   0  0  0  0  0  0  0  0  0  0  0  0
   28.8894  -20.8767   -8.2324 C   0  0  0  0  0  0  0  0  0  0  0  0
   27.8856  -20.7466   -7.3004 C   0  0  0  0  0  0  0  0  0  0  0  0
   26.5832  -20.5427   -7.6919 C   0  0  0  0  0  0  0  0  0  0  0  0
   26.2832  -20.4686   -9.0269 C   0  0  0  0  0  0  0  0  0  0  0  0
   27.2789  -20.5974   -9.9718 C   0  0  0  0  0  0  0  0  0  0  0  0
   24.0131  -21.5139  -12.9445 C   0  0  0  0  0  0  0  0  0  0  0  0
   23.7061  -21.8084  -14.1365 O   0  0  0  0  0  0  0  0  0  0  0  0
   20.8092  -19.4462  -10.9800 O   0  0  0  0  0  0  0  0  0  0  0  0
   20.7375  -20.7670  -11.3680 C   0  0  0  0  0  0  0  0  0  0  0  0
   21.5962  -21.0283  -12.5907 C   0  0  2  0  0  0  0  0  0  0  0  0
   22.9779  -21.0018  -12.1255 N   0  0  0  0  0  0  0  0  0  0  0  0
   21.4385  -19.9877  -13.6162 C   0  0  0  0  0  0  0  0  0  0  0  0
   22.0533  -18.9084  -13.5446 O   0  0  0  0  0  0  0  0  0  0  0  0
   19.0031  -20.8769  -16.7977 O   0  0  0  0  0  0  0  0  0  0  0  0
   20.0349  -19.9993  -17.0211 C   0  0  0  0  0  0  0  0  0  0  0  0
   20.3308  -19.2261  -15.7453 C   0  0  2  0  0  0  0  0  0  0  0  0
   20.5740  -20.2067  -14.7108 N   0  0  0  0  0  0  0  0  0  0  0  0
   19.1935  -18.3557  -15.4761 C   0  0  0  0  0  0  0  0  0  0  0  0
   18.4762  -18.4996  -14.4598 O   0  0  0  0  0  0  0  0  0  0  0  0
   18.8820  -17.3368  -16.3560 O   0  0  0  0  0  0  0  0  0  0  0  0
  2  1  1  6
  3  2  1  0
  4  3  1  0
  5  4  2  0
  6  5  1  0
  7  6  1  0
  7 12  2  0
  8  7  1  0
  9  8  2  0
  9 10  1  0
 10 11  2  0
 11 12  1  0
 12  4  1  0
 13 14  2  0
 13  2  1  0
 16 15  1  0
 17 18  1  0
 17 16  1  1
 18 13  1  0
 19 17  1  0
 20 19  2  0
 22 21  1  0
 23 22  1  6
 23 24  1  0
 24 19  1  0
 25 23  1  0
 26 25  2  0
 27 25  1  0
M  END
$$$$
