WSS.pdb
     RDKit          3D

 27 28  0  0  1  0  0  0  0  0999 V2000
   21.0300  -34.4671   -7.2670 N   0  0  0  0  0  0  0  0  0  0  0  0
   22.4547  -34.5303   -7.3244 C   0  0  1  0  0  0  0  0  0  0  0  0
   23.0928  -33.1815   -7.5380 C   0  0  0  0  0  0  0  0  0  0  0  0
   22.8958  -32.7538   -8.9425 C   0  0  0  0  0  0  0  0  0  0  0  0
   21.8150  -32.0903   -9.4803 C   0  0  0  0  0  0  0  0  0  0  0  0
   22.0050  -31.8757  -10.7895 N   0  0  0  0  0  0  0  0  0  0  0  0
   23.2025  -32.3951  -11.1084 C   0  0  0  0  0  0  0  0  0  0  0  0
   23.8641  -32.4381  -12.3172 C   0  0  0  0  0  0  0  0  0  0  0  0
   25.1015  -33.0360  -12.3866 C   0  0  0  0  0  0  0  0  0  0  0  0
   25.6809  -33.5875  -11.2681 C   0  0  0  0  0  0  0  0  0  0  0  0
   25.0165  -33.5404  -10.0706 C   0  0  0  0  0  0  0  0  0  0  0  0
   23.7760  -32.9446   -9.9863 C   0  0  0  0  0  0  0  0  0  0  0  0
   22.9709  -35.2277   -6.1401 C   0  0  0  0  0  0  0  0  0  0  0  0
   22.5290  -35.0385   -4.9693 O   0  0  0  0  0  0  0  0  0  0  0  0
   23.2104  -38.9793   -5.6687 O   0  0  0  0  0  0  0  0  0  0  0  0
   24.4687  -38.4164   -5.6571 C   0  0  0  0  0  0  0  0  0  0  0  0
   24.4273  -36.9880   -5.1487 C   0  0  2  0  0  0  0  0  0  0  0  0
   24.0194  -36.1683   -6.2836 N   0  0  0  0  0  0  0  0  0  0  0  0
   25.7438  -36.5187   -4.6950 C   0  0  0  0  0  0  0  0  0  0  0  0
   26.4905  -35.8610   -5.4419 O   0  0  0  0  0  0  0  0  0  0  0  0
   26.8656  -35.4011   -0.7493 O   0  0  0  0  0  0  0  0  0  0  0  0
   27.3567  -36.5428   -1.3323 C   0  0  0  0  0  0  0  0  0  0  0  0
   27.4371  -36.3511   -2.8389 C   0  0  2  0  0  0  0  0  0  0  0  0
   26.1809  -36.8142   -3.3854 N   0  0  0  0  0  0  0  0  0  0  0  0
   28.5972  -37.0886   -3.3223 C   0  0  0  0  0  0  0  0  0  0  0  0
   28.4904  -38.0196   -4.1529 O   0  0  0  0  0  0  0  0  0  0  0  0
   29.8596  -36.7660   -2.8621 O   0  0  0  0  0  0  0  0  0  0  0  0
  2  1  1  1
  3  2  1  0
  4  3  1  0
  5  4  2  0
  6  5  1  0
  7  6  1  0
  7 12  2  0
  8  7  1  0
  9  8  2  0
  9 10  1  0
 10 11  2  0
 11 12  1  0
 12  4  1  0
 13 14  2  0
 13  2  1  0
 16 15  1  0
 17 18  1  0
 17 16  1  6
 18 13  1  0
 19 17  1  0
 20 19  2  0
 22 21  1  0
 23 22  1  1
 23 24  1  0
 24 19  1  0
 25 23  1  0
 26 25  2  0
 27 25  1  0
M  END
$$$$
