WSS.pdb
     RDKit          3D

 27 28  0  0  1  0  0  0  0  0999 V2000
   26.1782  -22.8119  -12.3204 N   0  0  0  0  0  0  0  0  0  0  0  0
   25.5064  -21.7038  -11.7222 C   0  0  1  0  0  0  0  0  0  0  0  0
   26.3386  -20.4471  -11.7177 C   0  0  0  0  0  0  0  0  0  0  0  0
   27.4704  -20.6022  -10.7746 C   0  0  0  0  0  0  0  0  0  0  0  0
   28.7587  -20.9985  -11.0584 C   0  0  0  0  0  0  0  0  0  0  0  0
   29.4971  -21.0167   -9.9401 N   0  0  0  0  0  0  0  0  0  0  0  0
   28.6983  -20.6348   -8.9294 C   0  0  0  0  0  0  0  0  0  0  0  0
   28.9669  -20.4883   -7.5851 C   0  0  0  0  0  0  0  0  0  0  0  0
   27.9628  -20.0774   -6.7386 C   0  0  0  0  0  0  0  0  0  0  0  0
   26.7015  -19.8130   -7.2185 C   0  0  0  0  0  0  0  0  0  0  0  0
   26.4431  -19.9611   -8.5560 C   0  0  0  0  0  0  0  0  0  0  0  0
   27.4396  -20.3722   -9.4157 C   0  0  0  0  0  0  0  0  0  0  0  0
   24.1924  -21.5192  -12.3504 C   0  0  0  0  0  0  0  0  0  0  0  0
   23.9526  -21.7915  -13.5629 O   0  0  0  0  0  0  0  0  0  0  0  0
   21.1192  -19.5193  -10.3509 O   0  0  0  0  0  0  0  0  0  0  0  0
   20.8332  -20.7020  -10.9986 C   0  0  0  0  0  0  0  0  0  0  0  0
   21.7788  -20.9349  -12.1614 C   0  0  2  0  0  0  0  0  0  0  0  0
   23.1158  -21.0108  -11.5842 N   0  0  0  0  0  0  0  0  0  0  0  0
   21.7595  -19.8272  -13.1269 C   0  0  0  0  0  0  0  0  0  0  0  0
   22.3913  -18.7756  -12.9199 O   0  0  0  0  0  0  0  0  0  0  0  0
   19.5813  -20.4617  -16.4845 O   0  0  0  0  0  0  0  0  0  0  0  0
   20.6095  -19.5643  -16.6340 C   0  0  0  0  0  0  0  0  0  0  0  0
   20.8971  -18.8926  -15.3001 C   0  0  2  0  0  0  0  0  0  0  0  0
   21.0117  -19.9482  -14.3184 N   0  0  0  0  0  0  0  0  0  0  0  0
   19.8166  -17.9527  -15.0307 C   0  0  0  0  0  0  0  0  0  0  0  0
   19.0575  -18.0825  -14.0433 O   0  0  0  0  0  0  0  0  0  0  0  0
   19.6079  -16.8813  -15.8781 O   0  0  0  0  0  0  0  0  0  0  0  0
  2  1  1  6
  3  2  1  0
  4  3  1  0
  5  4  2  0
  6  5  1  0
  7  6  1  0
  7 12  2  0
  8  7  1  0
  9  8  2  0
  9 10  1  0
 10 11  2  0
 11 12  1  0
 12  4  1  0
 13 14  2  0
 13  2  1  0
 16 15  1  0
 17 18  1  0
 17 16  1  1
 18 13  1  0
 19 17  1  0
 20 19  2  0
 22 21  1  0
 23 22  1  6
 23 24  1  0
 24 19  1  0
 25 23  1  0
 26 25  2  0
 27 25  1  0
M  END
$$$$
