WSS.pdb
     RDKit          3D

 27 28  0  0  1  0  0  0  0  0999 V2000
   21.6773  -13.0044  -16.9326 N   0  0  0  0  0  0  0  0  0  0  0  0
   22.1626  -11.6803  -16.7123 C   0  0  1  0  0  0  0  0  0  0  0  0
   23.2149  -11.2685  -17.7098 C   0  0  0  0  0  0  0  0  0  0  0  0
   24.4455  -12.0641  -17.4931 C   0  0  0  0  0  0  0  0  0  0  0  0
   24.7159  -13.3402  -17.9359 C   0  0  0  0  0  0  0  0  0  0  0  0
   25.9384  -13.7210  -17.5399 N   0  0  0  0  0  0  0  0  0  0  0  0
   26.4663  -12.7013  -16.8420 C   0  0  0  0  0  0  0  0  0  0  0  0
   27.6924  -12.5832  -16.2226 C   0  0  0  0  0  0  0  0  0  0  0  0
   28.0027  -11.4176  -15.5604 C   0  0  0  0  0  0  0  0  0  0  0  0
   27.1066  -10.3756  -15.5113 C   0  0  0  0  0  0  0  0  0  0  0  0
   25.8903  -10.5013  -16.1296 C   0  0  0  0  0  0  0  0  0  0  0  0
   25.5659  -11.6636  -16.7967 C   0  0  0  0  0  0  0  0  0  0  0  0
   21.0362  -10.7411  -16.6465 C   0  0  0  0  0  0  0  0  0  0  0  0
   20.0374  -10.7915  -17.4223 O   0  0  0  0  0  0  0  0  0  0  0  0
   20.5226   -8.5321  -13.2843 O   0  0  0  0  0  0  0  0  0  0  0  0
   19.4714   -8.8101  -14.1314 C   0  0  0  0  0  0  0  0  0  0  0  0
   19.9138   -8.7892  -15.5820 C   0  0  2  0  0  0  0  0  0  0  0  0
   21.0386   -9.7127  -15.6733 N   0  0  0  0  0  0  0  0  0  0  0  0
   20.3771   -7.4604  -16.0051 C   0  0  0  0  0  0  0  0  0  0  0  0
   21.5668   -7.1185  -15.8802 O   0  0  0  0  0  0  0  0  0  0  0  0
   18.9012   -3.3876  -18.1921 O   0  0  0  0  0  0  0  0  0  0  0  0
   18.6063   -4.6398  -17.7127 C   0  0  0  0  0  0  0  0  0  0  0  0
   19.8342   -5.2276  -17.0348 C   0  0  2  0  0  0  0  0  0  0  0  0
   19.4615   -6.5443  -16.5670 N   0  0  0  0  0  0  0  0  0  0  0  0
   20.2367   -4.3169  -15.9708 C   0  0  0  0  0  0  0  0  0  0  0  0
   19.9943   -4.5582  -14.7663 O   0  0  0  0  0  0  0  0  0  0  0  0
   20.9058   -3.1482  -16.2805 O   0  0  0  0  0  0  0  0  0  0  0  0
  2  1  1  6
  3  2  1  0
  4  3  1  0
  5  4  2  0
  6  5  1  0
  7  6  1  0
  7 12  2  0
  8  7  1  0
  9  8  2  0
  9 10  1  0
 10 11  2  0
 11 12  1  0
 12  4  1  0
 13 14  2  0
 13  2  1  0
 16 15  1  0
 17 18  1  0
 17 16  1  1
 18 13  1  0
 19 17  1  0
 20 19  2  0
 22 21  1  0
 23 22  1  1
 23 24  1  0
 24 19  1  0
 25 23  1  0
 26 25  2  0
 27 25  1  0
M  END
$$$$
