WSS.pdb
     RDKit          3D

 27 28  0  0  1  0  0  0  0  0999 V2000
   27.0877  -20.3047  -10.1082 N   0  0  0  0  0  0  0  0  0  0  0  0
   25.9694  -20.9329   -9.4819 C   0  0  1  0  0  0  0  0  0  0  0  0
   25.4676  -20.1733   -8.2807 C   0  0  0  0  0  0  0  0  0  0  0  0
   26.6104  -19.5563   -7.5681 C   0  0  0  0  0  0  0  0  0  0  0  0
   27.2804  -18.3965   -7.8897 C   0  0  0  0  0  0  0  0  0  0  0  0
   28.2587  -18.1632   -7.0039 N   0  0  0  0  0  0  0  0  0  0  0  0
   28.2306  -19.1635   -6.1071 C   0  0  0  0  0  0  0  0  0  0  0  0
   29.0213  -19.3943   -5.0015 C   0  0  0  0  0  0  0  0  0  0  0  0
   28.7892  -20.5088   -4.2285 C   0  0  0  0  0  0  0  0  0  0  0  0
   27.7817  -21.3890   -4.5466 C   0  0  0  0  0  0  0  0  0  0  0  0
   27.0004  -21.1521   -5.6471 C   0  0  0  0  0  0  0  0  0  0  0  0
   27.2217  -20.0395   -6.4308 C   0  0  0  0  0  0  0  0  0  0  0  0
   24.9208  -21.1905  -10.4766 C   0  0  0  0  0  0  0  0  0  0  0  0
   23.7670  -21.6189  -10.1813 O   0  0  0  0  0  0  0  0  0  0  0  0
   25.7316  -20.7294  -14.5675 O   0  0  0  0  0  0  0  0  0  0  0  0
   24.5232  -20.3253  -14.0416 C   0  0  0  0  0  0  0  0  0  0  0  0
   24.1371  -21.1672  -12.8404 C   0  0  2  0  0  0  0  0  0  0  0  0
   25.1844  -20.9567  -11.8479 N   0  0  0  0  0  0  0  0  0  0  0  0
   24.0879  -22.6014  -13.1567 C   0  0  0  0  0  0  0  0  0  0  0  0
   25.1274  -23.2708  -13.2950 O   0  0  0  0  0  0  0  0  0  0  0  0
   21.7970  -26.6482  -12.8465 O   0  0  0  0  0  0  0  0  0  0  0  0
   21.8374  -25.2936  -12.6271 C   0  0  0  0  0  0  0  0  0  0  0  0
   22.6968  -24.6307  -13.6924 C   0  0  2  0  0  0  0  0  0  0  0  0
   22.8399  -23.2438  -13.3086 N   0  0  0  0  0  0  0  0  0  0  0  0
   22.0397  -24.8208  -14.9791 C   0  0  0  0  0  0  0  0  0  0  0  0
   21.8015  -25.9610  -15.4384 O   0  0  0  0  0  0  0  0  0  0  0  0
   21.6614  -23.7231  -15.7285 O   0  0  0  0  0  0  0  0  0  0  0  0
  2  1  1  6
  3  2  1  0
  4  3  1  0
  5  4  2  0
  6  5  1  0
  7  6  1  0
  7 12  2  0
  8  7  1  0
  9  8  2  0
  9 10  1  0
 10 11  2  0
 11 12  1  0
 12  4  1  0
 13 14  2  0
 13  2  1  0
 16 15  1  0
 17 18  1  0
 17 16  1  6
 18 13  1  0
 19 17  1  0
 20 19  2  0
 22 21  1  0
 23 22  1  1
 23 24  1  0
 24 19  1  0
 25 23  1  0
 26 25  2  0
 27 25  1  0
M  END
$$$$
