WSS.pdb
     RDKit          3D

 27 28  0  0  1  0  0  0  0  0999 V2000
   24.2634  -20.9540  -11.2478 N   0  0  0  0  0  0  0  0  0  0  0  0
   25.6010  -20.7428  -11.6988 C   0  0  1  0  0  0  0  0  0  0  0  0
   26.6294  -21.3865  -10.8045 C   0  0  0  0  0  0  0  0  0  0  0  0
   26.5970  -20.7484   -9.4680 C   0  0  0  0  0  0  0  0  0  0  0  0
   25.5033  -20.2470   -8.7972 C   0  0  0  0  0  0  0  0  0  0  0  0
   25.8740  -19.7488   -7.6095 N   0  0  0  0  0  0  0  0  0  0  0  0
   27.2021  -19.9224   -7.5020 C   0  0  0  0  0  0  0  0  0  0  0  0
   28.0669  -19.5870   -6.4820 C   0  0  0  0  0  0  0  0  0  0  0  0
   29.4061  -19.8750   -6.6128 C   0  0  0  0  0  0  0  0  0  0  0  0
   29.8868  -20.4906   -7.7445 C   0  0  0  0  0  0  0  0  0  0  0  0
   29.0204  -20.8205   -8.7535 C   0  0  0  0  0  0  0  0  0  0  0  0
   27.6760  -20.5379   -8.6362 C   0  0  0  0  0  0  0  0  0  0  0  0
   25.7244  -21.1537  -13.1028 C   0  0  0  0  0  0  0  0  0  0  0  0
   25.7394  -22.3621  -13.4790 O   0  0  0  0  0  0  0  0  0  0  0  0
   25.1596  -18.3119  -15.9395 O   0  0  0  0  0  0  0  0  0  0  0  0
   24.8885  -19.6326  -16.2269 C   0  0  0  0  0  0  0  0  0  0  0  0
   25.8572  -20.5596  -15.5178 C   0  0  2  0  0  0  0  0  0  0  0  0
   25.8343  -20.1681  -14.1133 N   0  0  0  0  0  0  0  0  0  0  0  0
   27.2334  -20.4124  -16.0116 C   0  0  0  0  0  0  0  0  0  0  0  0
   27.9636  -19.4809  -15.6281 O   0  0  0  0  0  0  0  0  0  0  0  0
   29.8791  -23.2037  -16.6656 O   0  0  0  0  0  0  0  0  0  0  0  0
   29.5515  -22.6011  -17.8549 C   0  0  0  0  0  0  0  0  0  0  0  0
   29.0334  -21.1963  -17.5881 C   0  0  2  0  0  0  0  0  0  0  0  0
   27.7485  -21.3422  -16.9408 N   0  0  0  0  0  0  0  0  0  0  0  0
   28.9740  -20.4921  -18.8625 C   0  0  0  0  0  0  0  0  0  0  0  0
   27.8897  -20.1043  -19.3543 O   0  0  0  0  0  0  0  0  0  0  0  0
   30.1372  -20.2360  -19.5631 O   0  0  0  0  0  0  0  0  0  0  0  0
  2  1  1  1
  3  2  1  0
  4  3  1  0
  5  4  2  0
  6  5  1  0
  7  6  1  0
  7 12  2  0
  8  7  1  0
  9  8  2  0
  9 10  1  0
 10 11  2  0
 11 12  1  0
 12  4  1  0
 13 14  2  0
 13  2  1  0
 16 15  1  0
 17 18  1  0
 17 16  1  6
 18 13  1  0
 19 17  1  0
 20 19  2  0
 22 21  1  0
 23 22  1  6
 23 24  1  0
 24 19  1  0
 25 23  1  0
 26 25  2  0
 27 25  1  0
M  END
$$$$
