WSS.pdb
     RDKit          3D

 27 28  0  0  1  0  0  0  0  0999 V2000
   22.9066  -11.6963  -17.7645 N   0  0  0  0  0  0  0  0  0  0  0  0
   22.8077  -11.0782  -16.4817 C   0  0  1  0  0  0  0  0  0  0  0  0
   24.1214  -11.0476  -15.7434 C   0  0  0  0  0  0  0  0  0  0  0  0
   24.6797  -12.4173  -15.6627 C   0  0  0  0  0  0  0  0  0  0  0  0
   23.9963  -13.5991  -15.4787 C   0  0  0  0  0  0  0  0  0  0  0  0
   24.8496  -14.6325  -15.4617 N   0  0  0  0  0  0  0  0  0  0  0  0
   26.0847  -14.1317  -15.6335 C   0  0  0  0  0  0  0  0  0  0  0  0
   27.3062  -14.7681  -15.6923 C   0  0  0  0  0  0  0  0  0  0  0  0
   28.4465  -14.0209  -15.8789 C   0  0  0  0  0  0  0  0  0  0  0  0
   28.3792  -12.6534  -16.0068 C   0  0  0  0  0  0  0  0  0  0  0  0
   27.1610  -12.0287  -15.9472 C   0  0  0  0  0  0  0  0  0  0  0  0
   26.0102  -12.7649  -15.7605 C   0  0  0  0  0  0  0  0  0  0  0  0
   22.1931   -9.7515  -16.6137 C   0  0  0  0  0  0  0  0  0  0  0  0
   22.5071   -8.9220  -17.5166 O   0  0  0  0  0  0  0  0  0  0  0  0
   18.3300   -7.1429  -15.6616 O   0  0  0  0  0  0  0  0  0  0  0  0
   19.0759   -8.2888  -15.4865 C   0  0  0  0  0  0  0  0  0  0  0  0
   20.5293   -8.0606  -15.8552 C   0  0  2  0  0  0  0  0  0  0  0  0
   21.1923   -9.3496  -15.6964 N   0  0  0  0  0  0  0  0  0  0  0  0
   21.1864   -7.0951  -14.9634 C   0  0  0  0  0  0  0  0  0  0  0  0
   21.5735   -7.4216  -13.8269 O   0  0  0  0  0  0  0  0  0  0  0  0
   21.8019   -3.3052  -16.4422 O   0  0  0  0  0  0  0  0  0  0  0  0
   22.7038   -3.7853  -15.5253 C   0  0  0  0  0  0  0  0  0  0  0  0
   22.0031   -4.7449  -14.5761 C   0  0  2  0  0  0  0  0  0  0  0  0
   21.3883   -5.7661  -15.3950 N   0  0  0  0  0  0  0  0  0  0  0  0
   21.0533   -3.9754  -13.7828 C   0  0  0  0  0  0  0  0  0  0  0  0
   19.8169   -4.1477  -13.8805 O   0  0  0  0  0  0  0  0  0  0  0  0
   21.5113   -3.0236  -12.8919 O   0  0  0  0  0  0  0  0  0  0  0  0
  2  1  1  6
  3  2  1  0
  4  3  1  0
  5  4  2  0
  6  5  1  0
  7  6  1  0
  7 12  2  0
  8  7  1  0
  9  8  2  0
  9 10  1  0
 10 11  2  0
 11 12  1  0
 12  4  1  0
 13 14  2  0
 13  2  1  0
 16 15  1  0
 17 18  1  0
 17 16  1  1
 18 13  1  0
 19 17  1  0
 20 19  2  0
 22 21  1  0
 23 22  1  6
 23 24  1  0
 24 19  1  0
 25 23  1  0
 26 25  2  0
 27 25  1  0
M  END
$$$$
