KWR.pdb
     RDKit          3D

 35 36  0  0  1  0  0  0  0  0999 V2000
   19.0255  -22.8206  -13.9236 N   0  0  0  0  0  0  0  0  0  0  0  0
   20.3112  -23.1970  -14.4704 C   0  0  1  0  0  0  0  0  0  0  0  0
   20.2353  -24.4637  -15.2822 C   0  0  0  0  0  0  0  0  0  0  0  0
   20.5303  -25.6953  -14.4626 C   0  0  0  0  0  0  0  0  0  0  0  0
   19.3970  -26.0434  -13.5279 C   0  0  0  0  0  0  0  0  0  0  0  0
   19.6570  -27.3537  -12.8182 C   0  0  0  0  0  0  0  0  0  0  0  0
   18.6037  -27.6622  -11.8739 N   0  0  0  0  0  0  0  0  0  0  0  0
   20.7638  -22.1087  -15.3674 C   0  0  0  0  0  0  0  0  0  0  0  0
   20.0121  -21.6504  -16.2631 O   0  0  0  0  0  0  0  0  0  0  0  0
   22.0612  -21.5441  -15.2494 N   0  0  0  0  0  0  0  0  0  0  0  0
   22.4472  -20.4053  -16.0385 C   0  0  1  0  0  0  0  0  0  0  0  0
   22.7203  -19.1648  -15.2395 C   0  0  0  0  0  0  0  0  0  0  0  0
   21.5289  -18.6292  -14.5663 C   0  0  0  0  0  0  0  0  0  0  0  0
   21.1200  -18.9491  -13.2706 C   0  0  0  0  0  0  0  0  0  0  0  0
   20.0093  -18.2484  -12.9883 N   0  0  0  0  0  0  0  0  0  0  0  0
   19.6726  -17.4775  -14.0556 C   0  0  0  0  0  0  0  0  0  0  0  0
   18.6169  -16.6115  -14.2168 C   0  0  0  0  0  0  0  0  0  0  0  0
   18.5125  -15.9575  -15.4256 C   0  0  0  0  0  0  0  0  0  0  0  0
   19.4140  -16.1463  -16.4443 C   0  0  0  0  0  0  0  0  0  0  0  0
   20.4566  -17.0246  -16.2365 C   0  0  0  0  0  0  0  0  0  0  0  0
   20.6247  -17.7190  -15.0398 C   0  0  0  0  0  0  0  0  0  0  0  0
   23.7073  -20.7334  -16.7565 C   0  0  0  0  0  0  0  0  0  0  0  0
   24.5245  -21.5120  -16.2030 O   0  0  0  0  0  0  0  0  0  0  0  0
   28.5657  -24.7942  -18.2057 N   0  0  0  0  0  0  0  0  0  0  0  0
   27.2878  -25.2658  -17.8297 C   0  0  0  0  0  0  0  0  0  0  0  0
   27.1746  -26.2004  -16.9351 N   0  0  0  0  0  0  0  0  0  0  0  0
   26.0882  -24.7611  -18.3905 N   0  0  0  0  0  0  0  0  0  0  0  0
   26.1005  -24.1985  -19.7233 C   0  0  0  0  0  0  0  0  0  0  0  0
   26.3403  -22.6886  -19.5444 C   0  0  0  0  0  0  0  0  0  0  0  0
   25.1840  -22.1559  -18.7674 C   0  0  0  0  0  0  0  0  0  0  0  0
   25.2049  -20.6428  -18.7073 C   0  0  2  0  0  0  0  0  0  0  0  0
   24.0040  -20.1988  -18.0282 N   0  0  0  0  0  0  0  0  0  0  0  0
   25.2367  -19.9872  -20.0187 C   0  0  0  0  0  0  0  0  0  0  0  0
   24.1696  -19.5847  -20.5996 O   0  0  0  0  0  0  0  0  0  0  0  0
   26.4067  -19.7517  -20.7271 O   0  0  0  0  0  0  0  0  0  0  0  0
  2  1  1  6
  3  4  1  0
  3  2  1  0
  4  5  1  0
  5  6  1  0
  6  7  1  0
  8 10  1  0
  8  2  1  0
  9  8  2  0
 11 22  1  0
 11 10  1  0
 12 13  1  0
 11 12  1  1
 13 14  2  0
 13 21  1  0
 14 15  1  0
 15 16  1  0
 16 17  2  0
 17 18  1  0
 19 18  2  0
 20 19  1  0
 21 20  2  0
 21 16  1  0
 22 23  2  0
 24 25  1  0
 25 26  2  0
 25 27  1  0
 27 28  1  0
 29 28  1  0
 30 29  1  0
 31 30  1  6
 31 33  1  0
 32 31  1  0
 32 22  1  0
 33 34  2  0
 33 35  1  0
M  END
$$$$
