KWR.pdb
     RDKit          3D

 35 36  0  0  1  0  0  0  0  0999 V2000
   28.3378  -21.9912  -15.1616 N   0  0  0  0  0  0  0  0  0  0  0  0
   28.1090  -20.7492  -14.4551 C   0  0  1  0  0  0  0  0  0  0  0  0
   27.2035  -19.8189  -15.2191 C   0  0  0  0  0  0  0  0  0  0  0  0
   27.9669  -18.8613  -16.0999 C   0  0  0  0  0  0  0  0  0  0  0  0
   28.0977  -19.3694  -17.5155 C   0  0  0  0  0  0  0  0  0  0  0  0
   29.1927  -18.6375  -18.2597 C   0  0  0  0  0  0  0  0  0  0  0  0
   28.7834  -17.2958  -18.6181 N   0  0  0  0  0  0  0  0  0  0  0  0
   27.4504  -21.0691  -13.1677 C   0  0  0  0  0  0  0  0  0  0  0  0
   26.3866  -21.7358  -13.1302 O   0  0  0  0  0  0  0  0  0  0  0  0
   27.9949  -20.6352  -11.9302 N   0  0  0  0  0  0  0  0  0  0  0  0
   27.3495  -20.9545  -10.6852 C   0  0  1  0  0  0  0  0  0  0  0  0
   28.1295  -20.5580   -9.4662 C   0  0  0  0  0  0  0  0  0  0  0  0
   27.3090  -20.4708   -8.2501 C   0  0  0  0  0  0  0  0  0  0  0  0
   25.9920  -20.9171   -8.1297 C   0  0  0  0  0  0  0  0  0  0  0  0
   25.5804  -20.6976   -6.8700 N   0  0  0  0  0  0  0  0  0  0  0  0
   26.5828  -20.1207   -6.1565 C   0  0  0  0  0  0  0  0  0  0  0  0
   26.6079  -19.7184   -4.8420 C   0  0  0  0  0  0  0  0  0  0  0  0
   27.7722  -19.1466   -4.3762 C   0  0  0  0  0  0  0  0  0  0  0  0
   28.8772  -18.9743   -5.1735 C   0  0  0  0  0  0  0  0  0  0  0  0
   28.8052  -19.3934   -6.4852 C   0  0  0  0  0  0  0  0  0  0  0  0
   27.6612  -19.9803   -7.0230 C   0  0  0  0  0  0  0  0  0  0  0  0
   26.0584  -20.2196  -10.6202 C   0  0  0  0  0  0  0  0  0  0  0  0
   26.0818  -18.9645  -10.6884 O   0  0  0  0  0  0  0  0  0  0  0  0
   24.5931  -24.3125  -14.8233 N   0  0  0  0  0  0  0  0  0  0  0  0
   23.2011  -24.4459  -14.6200 C   0  0  0  0  0  0  0  0  0  0  0  0
   22.6580  -25.6249  -14.5780 N   0  0  0  0  0  0  0  0  0  0  0  0
   22.3397  -23.3329  -14.4544 N   0  0  0  0  0  0  0  0  0  0  0  0
   22.9009  -22.0207  -14.2169 C   0  0  0  0  0  0  0  0  0  0  0  0
   22.8669  -21.8143  -12.6919 C   0  0  0  0  0  0  0  0  0  0  0  0
   23.4650  -20.4747  -12.4230 C   0  0  0  0  0  0  0  0  0  0  0  0
   23.6180  -20.2226  -10.9376 C   0  0  2  0  0  0  0  0  0  0  0  0
   24.8234  -20.8886  -10.4859 N   0  0  0  0  0  0  0  0  0  0  0  0
   22.5065  -20.7242  -10.1229 C   0  0  0  0  0  0  0  0  0  0  0  0
   21.4086  -20.0771  -10.0051 O   0  0  0  0  0  0  0  0  0  0  0  0
   22.5512  -21.9225   -9.4243 O   0  0  0  0  0  0  0  0  0  0  0  0
  2  1  1  6
  3  4  1  0
  3  2  1  0
  4  5  1  0
  5  6  1  0
  6  7  1  0
  8 10  1  0
  8  2  1  0
  9  8  2  0
 11 22  1  0
 11 10  1  0
 12 13  1  0
 11 12  1  1
 13 14  2  0
 13 21  1  0
 14 15  1  0
 15 16  1  0
 16 17  2  0
 17 18  1  0
 19 18  2  0
 20 19  1  0
 21 20  2  0
 21 16  1  0
 22 23  2  0
 24 25  1  0
 25 26  2  0
 25 27  1  0
 27 28  1  0
 29 28  1  0
 30 29  1  0
 31 30  1  6
 31 33  1  0
 32 31  1  0
 32 22  1  0
 33 34  2  0
 33 35  1  0
M  END
$$$$
