KWR.pdb
     RDKit          3D

 35 36  0  0  1  0  0  0  0  0999 V2000
   28.8365  -21.6067  -14.8657 N   0  0  0  0  0  0  0  0  0  0  0  0
   28.1341  -20.4148  -14.4415 C   0  0  1  0  0  0  0  0  0  0  0  0
   27.1376  -19.9459  -15.4693 C   0  0  0  0  0  0  0  0  0  0  0  0
   27.7987  -19.3530  -16.6887 C   0  0  0  0  0  0  0  0  0  0  0  0
   28.0263  -20.3809  -17.7707 C   0  0  0  0  0  0  0  0  0  0  0  0
   28.9808  -19.8634  -18.8240 C   0  0  0  0  0  0  0  0  0  0  0  0
   28.4519  -18.6900  -19.4869 N   0  0  0  0  0  0  0  0  0  0  0  0
   27.3908  -20.7378  -13.2019 C   0  0  0  0  0  0  0  0  0  0  0  0
   26.2997  -21.3586  -13.2418 O   0  0  0  0  0  0  0  0  0  0  0  0
   27.8819  -20.3587  -11.9248 N   0  0  0  0  0  0  0  0  0  0  0  0
   27.3361  -20.9295  -10.7228 C   0  0  1  0  0  0  0  0  0  0  0  0
   28.1922  -20.7391   -9.5051 C   0  0  0  0  0  0  0  0  0  0  0  0
   27.4385  -20.8031   -8.2451 C   0  0  0  0  0  0  0  0  0  0  0  0
   26.1911  -21.4069   -8.0789 C   0  0  0  0  0  0  0  0  0  0  0  0
   25.8303  -21.2932   -6.7900 N   0  0  0  0  0  0  0  0  0  0  0  0
   26.7987  -20.6339   -6.1014 C   0  0  0  0  0  0  0  0  0  0  0  0
   26.8529  -20.2898   -4.7714 C   0  0  0  0  0  0  0  0  0  0  0  0
   27.9683  -19.6054   -4.3387 C   0  0  0  0  0  0  0  0  0  0  0  0
   28.9981  -19.2687   -5.1827 C   0  0  0  0  0  0  0  0  0  0  0  0
   28.8995  -19.6352   -6.5085 C   0  0  0  0  0  0  0  0  0  0  0  0
   27.8019  -20.3290   -7.0148 C   0  0  0  0  0  0  0  0  0  0  0  0
   26.0355  -20.2691  -10.4344 C   0  0  0  0  0  0  0  0  0  0  0  0
   26.0034  -19.0137  -10.3758 O   0  0  0  0  0  0  0  0  0  0  0  0
   19.8481  -23.2642  -15.3020 N   0  0  0  0  0  0  0  0  0  0  0  0
   19.2058  -22.5344  -14.2766 C   0  0  0  0  0  0  0  0  0  0  0  0
   17.9090  -22.4873  -14.2234 N   0  0  0  0  0  0  0  0  0  0  0  0
   19.9183  -21.8306  -13.2739 N   0  0  0  0  0  0  0  0  0  0  0  0
   21.3116  -21.5008  -13.4817 C   0  0  0  0  0  0  0  0  0  0  0  0
   21.7357  -20.6625  -12.2624 C   0  0  0  0  0  0  0  0  0  0  0  0
   23.0420  -21.2094  -11.7944 C   0  0  0  0  0  0  0  0  0  0  0  0
   23.5863  -20.4208  -10.6216 C   0  0  2  0  0  0  0  0  0  0  0  0
   24.8513  -21.0081  -10.2277 N   0  0  0  0  0  0  0  0  0  0  0  0
   22.7162  -20.4173   -9.4411 C   0  0  0  0  0  0  0  0  0  0  0  0
   22.7623  -21.3486   -8.5643 O   0  0  0  0  0  0  0  0  0  0  0  0
   21.7868  -19.4205   -9.1799 O   0  0  0  0  0  0  0  0  0  0  0  0
  2  1  1  6
  3  4  1  0
  3  2  1  0
  4  5  1  0
  5  6  1  0
  6  7  1  0
  8 10  1  0
  8  2  1  0
  9  8  2  0
 11 22  1  0
 11 10  1  0
 12 13  1  0
 11 12  1  1
 13 14  2  0
 13 21  1  0
 14 15  1  0
 15 16  1  0
 16 17  2  0
 17 18  1  0
 19 18  2  0
 20 19  1  0
 21 20  2  0
 21 16  1  0
 22 23  2  0
 24 25  1  0
 25 26  2  0
 25 27  1  0
 27 28  1  0
 29 28  1  0
 30 29  1  0
 31 30  1  6
 31 33  1  0
 32 31  1  0
 32 22  1  0
 33 34  2  0
 33 35  1  0
M  END
$$$$
