KWR.pdb
     RDKit          3D

 35 36  0  0  1  0  0  0  0  0999 V2000
   28.4754  -21.5608  -14.3837 N   0  0  0  0  0  0  0  0  0  0  0  0
   28.0345  -20.3770  -13.6780 C   0  0  1  0  0  0  0  0  0  0  0  0
   27.2045  -19.4713  -14.5496 C   0  0  0  0  0  0  0  0  0  0  0  0
   28.0416  -18.6714  -15.5166 C   0  0  0  0  0  0  0  0  0  0  0  0
   28.6174  -19.5291  -16.6174 C   0  0  0  0  0  0  0  0  0  0  0  0
   29.2728  -18.6809  -17.6848 C   0  0  0  0  0  0  0  0  0  0  0  0
   29.4105  -17.3047  -17.2568 N   0  0  0  0  0  0  0  0  0  0  0  0
   27.1919  -20.8097  -12.5394 C   0  0  0  0  0  0  0  0  0  0  0  0
   26.4067  -21.7842  -12.6459 O   0  0  0  0  0  0  0  0  0  0  0  0
   27.2390  -20.1408  -11.2879 N   0  0  0  0  0  0  0  0  0  0  0  0
   26.3549  -20.5129  -10.2162 C   0  0  1  0  0  0  0  0  0  0  0  0
   26.6218  -19.8030   -8.9213 C   0  0  0  0  0  0  0  0  0  0  0  0
   27.8694  -20.2255   -8.2696 C   0  0  0  0  0  0  0  0  0  0  0  0
   28.8764  -20.9855   -8.8668 C   0  0  0  0  0  0  0  0  0  0  0  0
   29.8706  -21.1500   -7.9786 N   0  0  0  0  0  0  0  0  0  0  0  0
   29.5516  -20.5238   -6.8155 C   0  0  0  0  0  0  0  0  0  0  0  0
   30.2613  -20.4347   -5.6413 C   0  0  0  0  0  0  0  0  0  0  0  0
   29.6849  -19.7338   -4.6040 C   0  0  0  0  0  0  0  0  0  0  0  0
   28.4518  -19.1391   -4.7136 C   0  0  0  0  0  0  0  0  0  0  0  0
   27.7773  -19.2551   -5.9108 C   0  0  0  0  0  0  0  0  0  0  0  0
   28.2998  -19.9477   -7.0016 C   0  0  0  0  0  0  0  0  0  0  0  0
   24.9634  -20.1675  -10.6103 C   0  0  0  0  0  0  0  0  0  0  0  0
   24.7254  -18.9944  -10.9947 O   0  0  0  0  0  0  0  0  0  0  0  0
   22.0750  -19.9514  -16.1467 N   0  0  0  0  0  0  0  0  0  0  0  0
   20.7947  -19.4486  -15.8231 C   0  0  0  0  0  0  0  0  0  0  0  0
   19.9822  -19.0774  -16.7658 N   0  0  0  0  0  0  0  0  0  0  0  0
   20.3345  -19.3231  -14.4886 N   0  0  0  0  0  0  0  0  0  0  0  0
   21.2465  -19.5577  -13.3903 C   0  0  0  0  0  0  0  0  0  0  0  0
   21.1403  -21.0582  -13.0637 C   0  0  0  0  0  0  0  0  0  0  0  0
   22.4244  -21.4519  -12.4152 C   0  0  0  0  0  0  0  0  0  0  0  0
   22.6192  -20.7414  -11.0920 C   0  0  2  0  0  0  0  0  0  0  0  0
   23.9168  -21.1128  -10.5641 N   0  0  0  0  0  0  0  0  0  0  0  0
   21.6179  -21.0764  -10.0742 C   0  0  0  0  0  0  0  0  0  0  0  0
   20.4402  -20.5754  -10.0936 O   0  0  0  0  0  0  0  0  0  0  0  0
   21.8590  -21.9504   -9.0236 O   0  0  0  0  0  0  0  0  0  0  0  0
  2  1  1  6
  3  4  1  0
  3  2  1  0
  4  5  1  0
  5  6  1  0
  6  7  1  0
  8 10  1  0
  8  2  1  0
  9  8  2  0
 11 22  1  0
 11 10  1  0
 12 13  1  0
 11 12  1  1
 13 14  2  0
 13 21  1  0
 14 15  1  0
 15 16  1  0
 16 17  2  0
 17 18  1  0
 19 18  2  0
 20 19  1  0
 21 20  2  0
 21 16  1  0
 22 23  2  0
 24 25  1  0
 25 26  2  0
 25 27  1  0
 27 28  1  0
 29 28  1  0
 30 29  1  0
 31 30  1  6
 31 33  1  0
 32 31  1  0
 32 22  1  0
 33 34  2  0
 33 35  1  0
M  END
$$$$
