KWR.pdb
     RDKit          3D

 35 36  0  0  1  0  0  0  0  0999 V2000
   27.8846  -20.8875  -14.8940 N   0  0  0  0  0  0  0  0  0  0  0  0
   26.7689  -21.7447  -15.2319 C   0  0  1  0  0  0  0  0  0  0  0  0
   27.2151  -23.1243  -15.6405 C   0  0  0  0  0  0  0  0  0  0  0  0
   27.1885  -23.3225  -17.1357 C   0  0  0  0  0  0  0  0  0  0  0  0
   27.6194  -22.0835  -17.8830 C   0  0  0  0  0  0  0  0  0  0  0  0
   27.5510  -22.2964  -19.3791 C   0  0  0  0  0  0  0  0  0  0  0  0
   26.5278  -21.4705  -19.9850 N   0  0  0  0  0  0  0  0  0  0  0  0
   25.9150  -21.8806  -14.0295 C   0  0  0  0  0  0  0  0  0  0  0  0
   25.1156  -22.8414  -13.9057 O   0  0  0  0  0  0  0  0  0  0  0  0
   25.9670  -20.9322  -12.9741 N   0  0  0  0  0  0  0  0  0  0  0  0
   25.1652  -21.0964  -11.7915 C   0  0  1  0  0  0  0  0  0  0  0  0
   25.5884  -20.2390  -10.6349 C   0  0  0  0  0  0  0  0  0  0  0  0
   26.8494  -20.6723  -10.0169 C   0  0  0  0  0  0  0  0  0  0  0  0
   27.8579  -21.3936  -10.6578 C   0  0  0  0  0  0  0  0  0  0  0  0
   28.8653  -21.5824   -9.7895 N   0  0  0  0  0  0  0  0  0  0  0  0
   28.5535  -21.0095   -8.5973 C   0  0  0  0  0  0  0  0  0  0  0  0
   29.2771  -20.9605   -7.4292 C   0  0  0  0  0  0  0  0  0  0  0  0
   28.7054  -20.3110   -6.3564 C   0  0  0  0  0  0  0  0  0  0  0  0
   27.4638  -19.7282   -6.4258 C   0  0  0  0  0  0  0  0  0  0  0  0
   26.7755  -19.8027   -7.6184 C   0  0  0  0  0  0  0  0  0  0  0  0
   27.2925  -20.4423   -8.7437 C   0  0  0  0  0  0  0  0  0  0  0  0
   23.7649  -20.7135  -12.1132 C   0  0  0  0  0  0  0  0  0  0  0  0
   23.5686  -19.9036  -13.0545 O   0  0  0  0  0  0  0  0  0  0  0  0
   18.3946  -26.1099   -9.1116 N   0  0  0  0  0  0  0  0  0  0  0  0
   17.6655  -25.0320   -9.6622 C   0  0  0  0  0  0  0  0  0  0  0  0
   16.3955  -24.9113   -9.4184 N   0  0  0  0  0  0  0  0  0  0  0  0
   18.2598  -24.0468  -10.4896 N   0  0  0  0  0  0  0  0  0  0  0  0
   19.6855  -24.0795  -10.7329 C   0  0  0  0  0  0  0  0  0  0  0  0
   19.9596  -22.9996  -11.7951 C   0  0  0  0  0  0  0  0  0  0  0  0
   20.3460  -21.7596  -11.0619 C   0  0  0  0  0  0  0  0  0  0  0  0
   21.3261  -20.9251  -11.8597 C   0  0  2  0  0  0  0  0  0  0  0  0
   22.6649  -21.2310  -11.3968 N   0  0  0  0  0  0  0  0  0  0  0  0
   21.1344  -19.4773  -11.7260 C   0  0  0  0  0  0  0  0  0  0  0  0
   21.6746  -18.8083  -10.7780 O   0  0  0  0  0  0  0  0  0  0  0  0
   20.3652  -18.7243  -12.6019 O   0  0  0  0  0  0  0  0  0  0  0  0
  2  1  1  1
  3  4  1  0
  3  2  1  0
  4  5  1  0
  5  6  1  0
  6  7  1  0
  8 10  1  0
  8  2  1  0
  9  8  2  0
 11 22  1  0
 11 10  1  0
 12 13  1  0
 11 12  1  1
 13 14  2  0
 13 21  1  0
 14 15  1  0
 15 16  1  0
 16 17  2  0
 17 18  1  0
 19 18  2  0
 20 19  1  0
 21 20  2  0
 21 16  1  0
 22 23  2  0
 24 25  1  0
 25 26  2  0
 25 27  1  0
 27 28  1  0
 29 28  1  0
 30 29  1  0
 31 30  1  1
 31 33  1  0
 32 31  1  0
 32 22  1  0
 33 34  2  0
 33 35  1  0
M  END
$$$$
