KWR.pdb
     RDKit          3D

 35 36  0  0  1  0  0  0  0  0999 V2000
   26.3547  -19.2626  -18.3026 N   0  0  0  0  0  0  0  0  0  0  0  0
   26.4546  -18.0490  -17.5209 C   0  0  1  0  0  0  0  0  0  0  0  0
   26.7703  -16.8478  -18.3734 C   0  0  0  0  0  0  0  0  0  0  0  0
   28.1518  -16.9121  -18.9758 C   0  0  0  0  0  0  0  0  0  0  0  0
   28.1383  -17.4807  -20.3743 C   0  0  0  0  0  0  0  0  0  0  0  0
   29.5437  -17.6666  -20.9022 C   0  0  0  0  0  0  0  0  0  0  0  0
   29.5462  -18.3856  -22.1589 N   0  0  0  0  0  0  0  0  0  0  0  0
   25.1448  -17.8136  -16.8709 C   0  0  0  0  0  0  0  0  0  0  0  0
   24.9535  -16.8107  -16.1394 O   0  0  0  0  0  0  0  0  0  0  0  0
   24.0586  -18.7105  -17.0492 N   0  0  0  0  0  0  0  0  0  0  0  0
   22.7647  -18.4262  -16.4893 C   0  0  1  0  0  0  0  0  0  0  0  0
   21.6657  -18.3072  -17.5042 C   0  0  0  0  0  0  0  0  0  0  0  0
   21.6643  -17.0214  -18.2159 C   0  0  0  0  0  0  0  0  0  0  0  0
   22.3686  -16.7458  -19.3889 C   0  0  0  0  0  0  0  0  0  0  0  0
   22.1031  -15.4821  -19.7593 N   0  0  0  0  0  0  0  0  0  0  0  0
   21.2473  -14.9158  -18.8685 C   0  0  0  0  0  0  0  0  0  0  0  0
   20.7136  -13.6489  -18.8450 C   0  0  0  0  0  0  0  0  0  0  0  0
   19.8674  -13.3369  -17.8028 C   0  0  0  0  0  0  0  0  0  0  0  0
   19.5542  -14.2378  -16.8146 C   0  0  0  0  0  0  0  0  0  0  0  0
   20.1133  -15.4966  -16.8802 C   0  0  0  0  0  0  0  0  0  0  0  0
   20.9759  -15.8812  -17.9052 C   0  0  0  0  0  0  0  0  0  0  0  0
   22.3862  -19.5429  -15.5833 C   0  0  0  0  0  0  0  0  0  0  0  0
   22.6597  -20.7178  -15.9373 O   0  0  0  0  0  0  0  0  0  0  0  0
   26.9767  -20.6867  -11.6159 N   0  0  0  0  0  0  0  0  0  0  0  0
   26.1825  -20.5497  -10.4552 C   0  0  0  0  0  0  0  0  0  0  0  0
   26.7322  -20.2307   -9.3225 N   0  0  0  0  0  0  0  0  0  0  0  0
   24.7791  -20.7467  -10.4581 N   0  0  0  0  0  0  0  0  0  0  0  0
   24.1323  -21.2820  -11.6363 C   0  0  0  0  0  0  0  0  0  0  0  0
   22.6205  -21.2270  -11.3525 C   0  0  0  0  0  0  0  0  0  0  0  0
   22.0845  -20.0461  -12.0891 C   0  0  0  0  0  0  0  0  0  0  0  0
   21.5468  -20.4372  -13.4498 C   0  0  2  0  0  0  0  0  0  0  0  0
   21.7359  -19.3184  -14.3514 N   0  0  0  0  0  0  0  0  0  0  0  0
   20.1196  -20.7744  -13.4603 C   0  0  0  0  0  0  0  0  0  0  0  0
   19.2140  -19.8788  -13.5860 O   0  0  0  0  0  0  0  0  0  0  0  0
   19.6399  -22.0709  -13.3379 O   0  0  0  0  0  0  0  0  0  0  0  0
  2  1  1  6
  3  4  1  0
  3  2  1  0
  4  5  1  0
  5  6  1  0
  6  7  1  0
  8 10  1  0
  8  2  1  0
  9  8  2  0
 11 22  1  0
 11 10  1  0
 12 13  1  0
 11 12  1  6
 13 14  2  0
 13 21  1  0
 14 15  1  0
 15 16  1  0
 16 17  2  0
 17 18  1  0
 19 18  2  0
 20 19  1  0
 21 20  2  0
 21 16  1  0
 22 23  2  0
 24 25  1  0
 25 26  2  0
 25 27  1  0
 27 28  1  0
 29 28  1  0
 30 29  1  0
 31 30  1  1
 31 33  1  0
 32 31  1  0
 32 22  1  0
 33 34  2  0
 33 35  1  0
M  END
$$$$
