KWR.pdb
     RDKit          3D

 35 36  0  0  1  0  0  0  0  0999 V2000
   29.3467  -20.9369  -13.3050 N   0  0  0  0  0  0  0  0  0  0  0  0
   28.4184  -19.9326  -12.8322 C   0  0  1  0  0  0  0  0  0  0  0  0
   27.7202  -19.2256  -13.9644 C   0  0  0  0  0  0  0  0  0  0  0  0
   28.6829  -18.5279  -14.8929 C   0  0  0  0  0  0  0  0  0  0  0  0
   27.9734  -17.8094  -16.0152 C   0  0  0  0  0  0  0  0  0  0  0  0
   28.9543  -17.0647  -16.8936 C   0  0  0  0  0  0  0  0  0  0  0  0
   28.2910  -16.4484  -18.0234 N   0  0  0  0  0  0  0  0  0  0  0  0
   27.3864  -20.6112  -12.0148 C   0  0  0  0  0  0  0  0  0  0  0  0
   27.2204  -21.8545  -12.0797 O   0  0  0  0  0  0  0  0  0  0  0  0
   26.5477  -19.8841  -11.1295 N   0  0  0  0  0  0  0  0  0  0  0  0
   25.6312  -20.5630  -10.2533 C   0  0  1  0  0  0  0  0  0  0  0  0
   25.3459  -19.8335   -8.9734 C   0  0  0  0  0  0  0  0  0  0  0  0
   26.5458  -19.5861   -8.1618 C   0  0  0  0  0  0  0  0  0  0  0  0
   27.4799  -18.5738   -8.3873 C   0  0  0  0  0  0  0  0  0  0  0  0
   28.4202  -18.6397   -7.4303 N   0  0  0  0  0  0  0  0  0  0  0  0
   28.1367  -19.6626   -6.5818 C   0  0  0  0  0  0  0  0  0  0  0  0
   28.8205  -20.0999   -5.4720 C   0  0  0  0  0  0  0  0  0  0  0  0
   28.3020  -21.1819   -4.7937 C   0  0  0  0  0  0  0  0  0  0  0  0
   27.1499  -21.8155   -5.1904 C   0  0  0  0  0  0  0  0  0  0  0  0
   26.4984  -21.3413   -6.3094 C   0  0  0  0  0  0  0  0  0  0  0  0
   26.9646  -20.2518   -7.0429 C   0  0  0  0  0  0  0  0  0  0  0  0
   24.3292  -20.7126  -10.9556 C   0  0  0  0  0  0  0  0  0  0  0  0
   23.9509  -19.7855  -11.7158 O   0  0  0  0  0  0  0  0  0  0  0  0
   18.6841  -25.5894  -10.8068 N   0  0  0  0  0  0  0  0  0  0  0  0
   18.2045  -25.4243  -12.1257 C   0  0  0  0  0  0  0  0  0  0  0  0
   16.9462  -25.6074  -12.3900 N   0  0  0  0  0  0  0  0  0  0  0  0
   19.0441  -25.0593  -13.2075 N   0  0  0  0  0  0  0  0  0  0  0  0
   20.4264  -24.7132  -12.9574 C   0  0  0  0  0  0  0  0  0  0  0  0
   20.3953  -23.4854  -12.0296 C   0  0  0  0  0  0  0  0  0  0  0  0
   21.7575  -23.3569  -11.4360 C   0  0  0  0  0  0  0  0  0  0  0  0
   22.2695  -21.9342  -11.5229 C   0  0  2  0  0  0  0  0  0  0  0  0
   23.5183  -21.8557  -10.7917 N   0  0  0  0  0  0  0  0  0  0  0  0
   21.3631  -20.9311  -10.9545 C   0  0  0  0  0  0  0  0  0  0  0  0
   21.4635  -20.5398   -9.7400 O   0  0  0  0  0  0  0  0  0  0  0  0
   20.3387  -20.3319  -11.6740 O   0  0  0  0  0  0  0  0  0  0  0  0
  2  1  1  6
  3  4  1  0
  3  2  1  0
  4  5  1  0
  5  6  1  0
  6  7  1  0
  8 10  1  0
  8  2  1  0
  9  8  2  0
 11 22  1  0
 11 10  1  0
 12 13  1  0
 11 12  1  1
 13 14  2  0
 13 21  1  0
 14 15  1  0
 15 16  1  0
 16 17  2  0
 17 18  1  0
 19 18  2  0
 20 19  1  0
 21 20  2  0
 21 16  1  0
 22 23  2  0
 24 25  1  0
 25 26  2  0
 25 27  1  0
 27 28  1  0
 29 28  1  0
 30 29  1  0
 31 30  1  1
 31 33  1  0
 32 31  1  0
 32 22  1  0
 33 34  2  0
 33 35  1  0
M  END
$$$$
