KWR.pdb
     RDKit          3D

 35 36  0  0  1  0  0  0  0  0999 V2000
   21.3679  -18.8118  -13.5764 N   0  0  0  0  0  0  0  0  0  0  0  0
   21.7005  -20.0890  -12.9832 C   0  0  1  0  0  0  0  0  0  0  0  0
   21.4944  -21.2324  -13.9420 C   0  0  0  0  0  0  0  0  0  0  0  0
   20.1266  -21.8558  -13.8145 C   0  0  0  0  0  0  0  0  0  0  0  0
   19.6425  -21.8812  -12.3847 C   0  0  0  0  0  0  0  0  0  0  0  0
   18.2463  -22.4556  -12.2908 C   0  0  0  0  0  0  0  0  0  0  0  0
   17.7527  -22.4270  -10.9300 N   0  0  0  0  0  0  0  0  0  0  0  0
   23.1336  -20.0614  -12.6100 C   0  0  0  0  0  0  0  0  0  0  0  0
   23.9952  -19.5656  -13.3776 O   0  0  0  0  0  0  0  0  0  0  0  0
   23.5866  -20.5933  -11.3740 N   0  0  0  0  0  0  0  0  0  0  0  0
   24.9867  -20.6131  -11.0456 C   0  0  1  0  0  0  0  0  0  0  0  0
   25.2916  -21.1402   -9.6741 C   0  0  0  0  0  0  0  0  0  0  0  0
   26.7212  -21.0973   -9.3361 C   0  0  0  0  0  0  0  0  0  0  0  0
   27.7642  -21.4729  -10.1842 C   0  0  0  0  0  0  0  0  0  0  0  0
   28.9281  -21.2717   -9.5445 N   0  0  0  0  0  0  0  0  0  0  0  0
   28.6863  -20.7762   -8.3024 C   0  0  0  0  0  0  0  0  0  0  0  0
   29.5687  -20.4305   -7.3063 C   0  0  0  0  0  0  0  0  0  0  0  0
   29.0381  -19.9555   -6.1263 C   0  0  0  0  0  0  0  0  0  0  0  0
   27.6855  -19.8235   -5.9284 C   0  0  0  0  0  0  0  0  0  0  0  0
   26.8392  -20.1827   -6.9562 C   0  0  0  0  0  0  0  0  0  0  0  0
   27.3056  -20.6693   -8.1761 C   0  0  0  0  0  0  0  0  0  0  0  0
   25.6852  -21.5058  -12.0080 C   0  0  0  0  0  0  0  0  0  0  0  0
   25.3296  -22.7099  -12.0715 O   0  0  0  0  0  0  0  0  0  0  0  0
   22.6556  -23.6384  -18.6752 N   0  0  0  0  0  0  0  0  0  0  0  0
   22.8176  -23.9395  -17.3042 C   0  0  0  0  0  0  0  0  0  0  0  0
   22.2716  -25.0052  -16.8013 N   0  0  0  0  0  0  0  0  0  0  0  0
   23.5645  -23.1198  -16.4217 N   0  0  0  0  0  0  0  0  0  0  0  0
   24.4102  -22.0748  -16.9562 C   0  0  0  0  0  0  0  0  0  0  0  0
   25.7710  -22.2291  -16.2534 C   0  0  0  0  0  0  0  0  0  0  0  0
   25.6283  -21.6260  -14.8968 C   0  0  0  0  0  0  0  0  0  0  0  0
   26.9294  -21.6827  -14.1239 C   0  0  2  0  0  0  0  0  0  0  0  0
   26.7240  -21.0397  -12.8414 N   0  0  0  0  0  0  0  0  0  0  0  0
   28.0515  -21.0049  -14.7813 C   0  0  0  0  0  0  0  0  0  0  0  0
   28.8580  -21.6278  -15.5557 O   0  0  0  0  0  0  0  0  0  0  0  0
   28.3275  -19.6541  -14.6222 O   0  0  0  0  0  0  0  0  0  0  0  0
  2  1  1  6
  3  4  1  0
  3  2  1  0
  4  5  1  0
  5  6  1  0
  6  7  1  0
  8 10  1  0
  8  2  1  0
  9  8  2  0
 11 22  1  0
 11 10  1  0
 12 13  1  0
 11 12  1  1
 13 14  2  0
 13 21  1  0
 14 15  1  0
 15 16  1  0
 16 17  2  0
 17 18  1  0
 19 18  2  0
 20 19  1  0
 21 20  2  0
 21 16  1  0
 22 23  2  0
 24 25  1  0
 25 26  2  0
 25 27  1  0
 27 28  1  0
 29 28  1  0
 30 29  1  0
 31 30  1  6
 31 33  1  0
 32 31  1  0
 32 22  1  0
 33 34  2  0
 33 35  1  0
M  END
$$$$
