WIQ.pdb
     RDKit          3D

 32 33  0  0  1  0  0  0  0  0999 V2000
   24.5337  -20.1132  -14.0388 N   0  0  0  0  0  0  0  0  0  0  0  0
   23.5199  -19.9571  -13.0279 C   0  0  1  0  0  0  0  0  0  0  0  0
   22.1713  -20.1918  -13.6559 C   0  0  0  0  0  0  0  0  0  0  0  0
   21.8068  -19.0627  -14.5141 C   0  0  0  0  0  0  0  0  0  0  0  0
   22.3281  -18.8657  -15.7974 C   0  0  0  0  0  0  0  0  0  0  0  0
   21.7701  -17.7640  -16.3280 N   0  0  0  0  0  0  0  0  0  0  0  0
   20.9056  -17.2107  -15.4754 C   0  0  0  0  0  0  0  0  0  0  0  0
   20.1180  -16.0871  -15.5770 C   0  0  0  0  0  0  0  0  0  0  0  0
   19.3041  -15.7302  -14.5100 C   0  0  0  0  0  0  0  0  0  0  0  0
   19.3315  -16.5294  -13.3977 C   0  0  0  0  0  0  0  0  0  0  0  0
   20.1299  -17.6690  -13.2942 C   0  0  0  0  0  0  0  0  0  0  0  0
   20.9304  -18.0196  -14.3476 C   0  0  0  0  0  0  0  0  0  0  0  0
   23.7540  -20.8634  -11.8703 C   0  0  0  0  0  0  0  0  0  0  0  0
   23.8021  -22.1014  -12.0480 O   0  0  0  0  0  0  0  0  0  0  0  0
   26.3658  -19.2259   -7.1699 C   0  0  0  0  0  0  0  0  0  0  0  0
   25.1806  -19.5341   -8.0234 C   0  0  0  0  0  0  0  0  0  0  0  0
   25.2783  -20.9278   -8.5773 C   0  0  2  0  0  0  0  0  0  0  0  0
   26.5478  -21.1392   -9.3354 C   0  0  0  0  0  0  0  0  0  0  0  0
   24.0506  -21.2712   -9.4231 C   0  0  2  0  0  0  0  0  0  0  0  0
   23.9285  -20.3780  -10.5464 N   0  0  0  0  0  0  0  0  0  0  0  0
   22.8256  -21.2840   -8.5819 C   0  0  0  0  0  0  0  0  0  0  0  0
   22.1300  -20.2388   -8.4950 O   0  0  0  0  0  0  0  0  0  0  0  0
   18.9226  -26.1383   -7.4045 N   0  0  0  0  0  0  0  0  0  0  0  0
   18.4747  -25.0970   -6.5639 C   0  0  0  0  0  0  0  0  0  0  0  0
   17.4117  -25.3171   -5.8818 O   0  0  0  0  0  0  0  0  0  0  0  0
   19.1767  -23.8238   -6.4539 C   0  0  0  0  0  0  0  0  0  0  0  0
   20.3909  -23.6373   -7.2905 C   0  0  0  0  0  0  0  0  0  0  0  0
   21.1622  -22.4053   -7.0144 C   0  0  2  0  0  0  0  0  0  0  0  0
   22.3924  -22.4228   -7.8643 N   0  0  0  0  0  0  0  0  0  0  0  0
   21.5339  -22.0769   -5.6440 C   0  0  0  0  0  0  0  0  0  0  0  0
   20.5263  -21.6268   -4.7715 O   0  0  0  0  0  0  0  0  0  0  0  0
   22.6744  -22.1525   -5.1479 O   0  0  0  0  0  0  0  0  0  0  0  0
  2 13  1  0
  2  1  1  6
  3  2  1  0
  4  5  2  0
  4  3  1  0
  6  5  1  0
  7 12  2  0
  7  6  1  0
  8  7  1  0
  9 10  1  0
  9  8  2  0
 10 11  2  0
 11 12  1  0
 12  4  1  0
 13 14  2  0
 15 16  1  0
 17 19  1  0
 17 16  1  0
 17 18  1  6
 19 20  1  6
 20 13  1  0
 21 22  2  0
 21 19  1  0
 23 24  1  0
 24 25  2  0
 24 26  1  0
 26 27  1  0
 28 27  1  1
 28 30  1  0
 28 29  1  0
 29 21  1  0
 30 31  1  0
 32 30  2  0
M  END
$$$$
