WIQ.pdb
     RDKit          3D

 32 33  0  0  1  0  0  0  0  0999 V2000
   24.7920  -19.3382   -9.4960 N   0  0  0  0  0  0  0  0  0  0  0  0
   25.9145  -20.1012   -9.9776 C   0  0  1  0  0  0  0  0  0  0  0  0
   26.1295  -21.2759   -9.0600 C   0  0  0  0  0  0  0  0  0  0  0  0
   26.4358  -20.8129   -7.7050 C   0  0  0  0  0  0  0  0  0  0  0  0
   25.4692  -20.6435   -6.7078 C   0  0  0  0  0  0  0  0  0  0  0  0
   26.0771  -20.2419   -5.5781 N   0  0  0  0  0  0  0  0  0  0  0  0
   27.3943  -20.1318   -5.7598 C   0  0  0  0  0  0  0  0  0  0  0  0
   28.4035  -19.7517   -4.9053 C   0  0  0  0  0  0  0  0  0  0  0  0
   29.7106  -19.7148   -5.3728 C   0  0  0  0  0  0  0  0  0  0  0  0
   29.9257  -20.0642   -6.6797 C   0  0  0  0  0  0  0  0  0  0  0  0
   28.9027  -20.4499   -7.5467 C   0  0  0  0  0  0  0  0  0  0  0  0
   27.6153  -20.4867   -7.0835 C   0  0  0  0  0  0  0  0  0  0  0  0
   25.7205  -20.5327  -11.3891 C   0  0  0  0  0  0  0  0  0  0  0  0
   24.5701  -20.7906  -11.8094 O   0  0  0  0  0  0  0  0  0  0  0  0
   28.8257  -17.7982  -14.7402 C   0  0  0  0  0  0  0  0  0  0  0  0
   27.6988  -18.5136  -14.0720 C   0  0  0  0  0  0  0  0  0  0  0  0
   27.6815  -19.9616  -14.4742 C   0  0  2  0  0  0  0  0  0  0  0  0
   27.5546  -20.1285  -15.9530 C   0  0  0  0  0  0  0  0  0  0  0  0
   26.5917  -20.7285  -13.7228 C   0  0  2  0  0  0  0  0  0  0  0  0
   26.8031  -20.6685  -12.2993 N   0  0  0  0  0  0  0  0  0  0  0  0
   26.5035  -22.1270  -14.2175 C   0  0  0  0  0  0  0  0  0  0  0  0
   27.5366  -22.8456  -14.2136 O   0  0  0  0  0  0  0  0  0  0  0  0
   22.4248  -26.5577  -12.9238 N   0  0  0  0  0  0  0  0  0  0  0  0
   21.9846  -25.6725  -13.9310 C   0  0  0  0  0  0  0  0  0  0  0  0
   20.7215  -25.6158  -14.1437 O   0  0  0  0  0  0  0  0  0  0  0  0
   22.9047  -24.8446  -14.7016 C   0  0  0  0  0  0  0  0  0  0  0  0
   24.3404  -24.8790  -14.3189 C   0  0  0  0  0  0  0  0  0  0  0  0
   25.2455  -24.1098  -15.2011 C   0  0  2  0  0  0  0  0  0  0  0  0
   25.3048  -22.7027  -14.6986 N   0  0  0  0  0  0  0  0  0  0  0  0
   25.0111  -24.0930  -16.6395 C   0  0  0  0  0  0  0  0  0  0  0  0
   25.3954  -25.2200  -17.3888 O   0  0  0  0  0  0  0  0  0  0  0  0
   24.4954  -23.1673  -17.2948 O   0  0  0  0  0  0  0  0  0  0  0  0
  2 13  1  0
  2  1  1  1
  3  2  1  0
  4  5  2  0
  4  3  1  0
  6  5  1  0
  7 12  2  0
  7  6  1  0
  8  7  1  0
  9 10  1  0
  9  8  2  0
 10 11  2  0
 11 12  1  0
 12  4  1  0
 13 14  2  0
 15 16  1  0
 17 19  1  0
 17 16  1  0
 17 18  1  6
 19 20  1  1
 20 13  1  0
 21 22  2  0
 21 19  1  0
 23 24  1  0
 24 25  2  0
 24 26  1  0
 26 27  1  0
 28 27  1  1
 28 30  1  0
 28 29  1  0
 29 21  1  0
 30 31  1  0
 32 30  2  0
M  END
$$$$
