WIQ.pdb
     RDKit          3D

 32 33  0  0  1  0  0  0  0  0999 V2000
   27.9677  -21.5788  -10.0199 N   0  0  0  0  0  0  0  0  0  0  0  0
   26.8908  -20.6679   -9.7289 C   0  0  1  0  0  0  0  0  0  0  0  0
   27.4456  -19.4900   -8.9720 C   0  0  0  0  0  0  0  0  0  0  0  0
   28.3502  -19.9457   -7.9145 C   0  0  0  0  0  0  0  0  0  0  0  0
   29.5746  -20.5761   -8.1615 C   0  0  0  0  0  0  0  0  0  0  0  0
   30.1732  -20.8366   -6.9865 N   0  0  0  0  0  0  0  0  0  0  0  0
   29.4217  -20.4183   -5.9665 C   0  0  0  0  0  0  0  0  0  0  0  0
   29.6178  -20.4769   -4.6059 C   0  0  0  0  0  0  0  0  0  0  0  0
   28.6454  -19.9642   -3.7574 C   0  0  0  0  0  0  0  0  0  0  0  0
   27.5270  -19.4201   -4.3316 C   0  0  0  0  0  0  0  0  0  0  0  0
   27.3277  -19.3602   -5.7113 C   0  0  0  0  0  0  0  0  0  0  0  0
   28.2880  -19.8651   -6.5457 C   0  0  0  0  0  0  0  0  0  0  0  0
   26.1809  -20.2430  -10.9665 C   0  0  0  0  0  0  0  0  0  0  0  0
   26.5763  -19.2368  -11.5972 O   0  0  0  0  0  0  0  0  0  0  0  0
   27.6595  -20.2422  -14.7661 C   0  0  0  0  0  0  0  0  0  0  0  0
   26.6818  -19.9842  -13.6680 C   0  0  0  0  0  0  0  0  0  0  0  0
   25.4201  -20.7698  -13.8906 C   0  0  2  0  0  0  0  0  0  0  0  0
   24.7861  -20.4471  -15.2038 C   0  0  0  0  0  0  0  0  0  0  0  0
   24.4425  -20.5816  -12.7290 C   0  0  2  0  0  0  0  0  0  0  0  0
   25.0523  -20.9408  -11.4746 N   0  0  0  0  0  0  0  0  0  0  0  0
   23.1866  -21.3361  -12.9775 C   0  0  0  0  0  0  0  0  0  0  0  0
   23.1552  -22.5713  -12.7385 O   0  0  0  0  0  0  0  0  0  0  0  0
   21.1652  -25.7734  -13.1668 N   0  0  0  0  0  0  0  0  0  0  0  0
   19.8981  -25.1622  -13.0553 C   0  0  0  0  0  0  0  0  0  0  0  0
   18.8973  -25.9341  -12.8403 O   0  0  0  0  0  0  0  0  0  0  0  0
   19.7125  -23.7204  -13.1679 C   0  0  0  0  0  0  0  0  0  0  0  0
   20.9299  -22.8850  -13.3376 C   0  0  0  0  0  0  0  0  0  0  0  0
   20.6850  -21.4295  -13.4411 C   0  0  2  0  0  0  0  0  0  0  0  0
   22.0079  -20.7333  -13.4744 N   0  0  0  0  0  0  0  0  0  0  0  0
   19.8236  -20.7703  -12.4676 C   0  0  0  0  0  0  0  0  0  0  0  0
   18.4460  -21.0538  -12.4993 O   0  0  0  0  0  0  0  0  0  0  0  0
   20.1819  -19.9630  -11.5889 O   0  0  0  0  0  0  0  0  0  0  0  0
  2 13  1  0
  2  1  1  6
  3  2  1  0
  4  5  2  0
  4  3  1  0
  6  5  1  0
  7 12  2  0
  7  6  1  0
  8  7  1  0
  9 10  1  0
  9  8  2  0
 10 11  2  0
 11 12  1  0
 12  4  1  0
 13 14  2  0
 15 16  1  0
 17 19  1  0
 17 16  1  0
 17 18  1  6
 19 20  1  1
 20 13  1  0
 21 22  2  0
 21 19  1  0
 23 24  1  0
 24 25  2  0
 24 26  1  0
 26 27  1  0
 28 27  1  1
 28 30  1  0
 28 29  1  0
 29 21  1  0
 30 31  1  0
 32 30  2  0
M  END
$$$$
