WIQ.pdb
     RDKit          3D

 32 33  0  0  1  0  0  0  0  0999 V2000
   28.4256  -20.4705  -16.3863 N   0  0  0  0  0  0  0  0  0  0  0  0
   27.4021  -19.8961  -15.5518 C   0  0  1  0  0  0  0  0  0  0  0  0
   26.2476  -19.4763  -16.4230 C   0  0  0  0  0  0  0  0  0  0  0  0
   26.5974  -18.2775  -17.1876 C   0  0  0  0  0  0  0  0  0  0  0  0
   26.5744  -18.2165  -18.5852 C   0  0  0  0  0  0  0  0  0  0  0  0
   26.9143  -16.9746  -18.9709 N   0  0  0  0  0  0  0  0  0  0  0  0
   27.1643  -16.1997  -17.9139 C   0  0  0  0  0  0  0  0  0  0  0  0
   27.5480  -14.8816  -17.8206 C   0  0  0  0  0  0  0  0  0  0  0  0
   27.7534  -14.3219  -16.5664 C   0  0  0  0  0  0  0  0  0  0  0  0
   27.5596  -15.1261  -15.4746 C   0  0  0  0  0  0  0  0  0  0  0  0
   27.1703  -16.4627  -15.5687 C   0  0  0  0  0  0  0  0  0  0  0  0
   26.9673  -17.0121  -16.8057 C   0  0  0  0  0  0  0  0  0  0  0  0
   26.9717  -20.8384  -14.4827 C   0  0  0  0  0  0  0  0  0  0  0  0
   26.7833  -22.0454  -14.7549 O   0  0  0  0  0  0  0  0  0  0  0  0
   25.7225  -21.2186   -8.4072 C   0  0  0  0  0  0  0  0  0  0  0  0
   25.4718  -21.6507   -9.8138 C   0  0  0  0  0  0  0  0  0  0  0  0
   26.2364  -20.7847  -10.7752 C   0  0  2  0  0  0  0  0  0  0  0  0
   25.9617  -19.3327  -10.5581 C   0  0  0  0  0  0  0  0  0  0  0  0
   25.9689  -21.2007  -12.2229 C   0  0  2  0  0  0  0  0  0  0  0  0
   26.7601  -20.4221  -13.1408 N   0  0  0  0  0  0  0  0  0  0  0  0
   24.5167  -21.1208  -12.5282 C   0  0  0  0  0  0  0  0  0  0  0  0
   24.0136  -20.0077  -12.8310 O   0  0  0  0  0  0  0  0  0  0  0  0
   23.7535  -24.9294  -15.2918 N   0  0  0  0  0  0  0  0  0  0  0  0
   22.5928  -24.3271  -15.8225 C   0  0  0  0  0  0  0  0  0  0  0  0
   22.4133  -24.4262  -17.0881 O   0  0  0  0  0  0  0  0  0  0  0  0
   21.6239  -23.6263  -14.9882 C   0  0  0  0  0  0  0  0  0  0  0  0
   21.9096  -23.5411  -13.5322 C   0  0  0  0  0  0  0  0  0  0  0  0
   22.2644  -22.1923  -13.0383 C   0  0  2  0  0  0  0  0  0  0  0  0
   23.6573  -22.2433  -12.4970 N   0  0  0  0  0  0  0  0  0  0  0  0
   21.4011  -21.5262  -12.0714 C   0  0  0  0  0  0  0  0  0  0  0  0
   20.1377  -21.0825  -12.5030 O   0  0  0  0  0  0  0  0  0  0  0  0
   21.6654  -21.3005  -10.8750 O   0  0  0  0  0  0  0  0  0  0  0  0
  2 13  1  0
  2  1  1  6
  3  2  1  0
  4  5  2  0
  4  3  1  0
  6  5  1  0
  7 12  2  0
  7  6  1  0
  8  7  1  0
  9 10  1  0
  9  8  2  0
 10 11  2  0
 11 12  1  0
 12  4  1  0
 13 14  2  0
 15 16  1  0
 17 19  1  0
 17 16  1  0
 17 18  1  6
 19 20  1  6
 20 13  1  0
 21 22  2  0
 21 19  1  0
 23 24  1  0
 24 25  2  0
 24 26  1  0
 26 27  1  0
 28 27  1  1
 28 30  1  0
 28 29  1  0
 29 21  1  0
 30 31  1  0
 32 30  2  0
M  END
$$$$
