WIQ.pdb
     RDKit          3D

 32 33  0  0  1  0  0  0  0  0999 V2000
   25.5182  -21.0623  -10.4373 N   0  0  0  0  0  0  0  0  0  0  0  0
   24.8802  -20.5452  -11.6204 C   0  0  1  0  0  0  0  0  0  0  0  0
   25.6670  -20.9874  -12.8260 C   0  0  0  0  0  0  0  0  0  0  0  0
   27.0248  -20.4415  -12.7752 C   0  0  0  0  0  0  0  0  0  0  0  0
   27.4620  -19.3782  -13.5724 C   0  0  0  0  0  0  0  0  0  0  0  0
   28.7399  -19.0999  -13.2619 N   0  0  0  0  0  0  0  0  0  0  0  0
   29.1849  -19.9145  -12.3034 C   0  0  0  0  0  0  0  0  0  0  0  0
   30.4090  -20.0074  -11.6821 C   0  0  0  0  0  0  0  0  0  0  0  0
   30.6030  -20.9763  -10.7064 C   0  0  0  0  0  0  0  0  0  0  0  0
   29.5479  -21.7990  -10.4124 C   0  0  0  0  0  0  0  0  0  0  0  0
   28.3062  -21.7051  -11.0421 C   0  0  0  0  0  0  0  0  0  0  0  0
   28.1169  -20.7487  -12.0026 C   0  0  0  0  0  0  0  0  0  0  0  0
   23.4557  -20.9688  -11.7062 C   0  0  0  0  0  0  0  0  0  0  0  0
   23.1078  -22.0811  -11.2497 O   0  0  0  0  0  0  0  0  0  0  0  0
   20.5764  -16.8456  -12.2357 C   0  0  0  0  0  0  0  0  0  0  0  0
   20.5070  -18.1495  -11.5124 C   0  0  0  0  0  0  0  0  0  0  0  0
   20.1761  -19.2637  -12.4653 C   0  0  2  0  0  0  0  0  0  0  0  0
   18.7235  -19.6100  -12.4362 C   0  0  0  0  0  0  0  0  0  0  0  0
   21.0550  -20.4887  -12.2060 C   0  0  2  0  0  0  0  0  0  0  0  0
   22.4527  -20.1523  -12.2946 N   0  0  0  0  0  0  0  0  0  0  0  0
   20.6866  -21.5979  -13.1238 C   0  0  0  0  0  0  0  0  0  0  0  0
   20.9563  -21.4959  -14.3489 O   0  0  0  0  0  0  0  0  0  0  0  0
   19.5757  -25.6618  -10.2217 N   0  0  0  0  0  0  0  0  0  0  0  0
   18.7036  -26.2130  -11.1847 C   0  0  0  0  0  0  0  0  0  0  0  0
   17.7094  -26.8938  -10.7465 O   0  0  0  0  0  0  0  0  0  0  0  0
   18.8995  -26.0235  -12.6170 C   0  0  0  0  0  0  0  0  0  0  0  0
   20.0333  -25.1629  -13.0446 C   0  0  0  0  0  0  0  0  0  0  0  0
   19.6480  -23.8643  -13.6398 C   0  0  2  0  0  0  0  0  0  0  0  0
   20.0411  -22.7787  -12.6896 N   0  0  0  0  0  0  0  0  0  0  0  0
   18.2730  -23.6460  -14.0709 C   0  0  0  0  0  0  0  0  0  0  0  0
   17.8269  -24.3067  -15.2300 O   0  0  0  0  0  0  0  0  0  0  0  0
   17.4283  -22.9204  -13.5120 O   0  0  0  0  0  0  0  0  0  0  0  0
  2 13  1  0
  2  1  1  1
  3  2  1  0
  4  5  2  0
  4  3  1  0
  6  5  1  0
  7 12  2  0
  7  6  1  0
  8  7  1  0
  9 10  1  0
  9  8  2  0
 10 11  2  0
 11 12  1  0
 12  4  1  0
 13 14  2  0
 15 16  1  0
 17 19  1  0
 17 16  1  0
 17 18  1  1
 19 20  1  6
 20 13  1  0
 21 22  2  0
 21 19  1  0
 23 24  1  0
 24 25  2  0
 24 26  1  0
 26 27  1  0
 28 27  1  1
 28 30  1  0
 28 29  1  0
 29 21  1  0
 30 31  1  0
 32 30  2  0
M  END
$$$$
