WIQ.pdb
     RDKit          3D

 32 33  0  0  1  0  0  0  0  0999 V2000
   22.7414  -12.7411  -18.6919 N   0  0  0  0  0  0  0  0  0  0  0  0
   21.7818  -11.7235  -19.0351 C   0  0  1  0  0  0  0  0  0  0  0  0
   20.5395  -11.9331  -18.2098 C   0  0  0  0  0  0  0  0  0  0  0  0
   19.8006  -13.1020  -18.6913 C   0  0  0  0  0  0  0  0  0  0  0  0
   19.8633  -14.3612  -18.0848 C   0  0  0  0  0  0  0  0  0  0  0  0
   19.0489  -15.2020  -18.7456 N   0  0  0  0  0  0  0  0  0  0  0  0
   18.4444  -14.5803  -19.7597 C   0  0  0  0  0  0  0  0  0  0  0  0
   17.5474  -15.0313  -20.7005 C   0  0  0  0  0  0  0  0  0  0  0  0
   17.0801  -14.1523  -21.6687 C   0  0  0  0  0  0  0  0  0  0  0  0
   17.5459  -12.8646  -21.6327 C   0  0  0  0  0  0  0  0  0  0  0  0
   18.4555  -12.4067  -20.6787 C   0  0  0  0  0  0  0  0  0  0  0  0
   18.9138  -13.2745  -19.7247 C   0  0  0  0  0  0  0  0  0  0  0  0
   22.3414  -10.3563  -18.8514 C   0  0  0  0  0  0  0  0  0  0  0  0
   23.0835  -10.1129  -17.8734 O   0  0  0  0  0  0  0  0  0  0  0  0
   24.4118   -5.5113  -21.8291 C   0  0  0  0  0  0  0  0  0  0  0  0
   23.7757   -6.0331  -20.5835 C   0  0  0  0  0  0  0  0  0  0  0  0
   23.2648   -7.4301  -20.7982 C   0  0  2  0  0  0  0  0  0  0  0  0
   22.3713   -7.5203  -21.9916 C   0  0  0  0  0  0  0  0  0  0  0  0
   22.5819   -7.9660  -19.5385 C   0  0  2  0  0  0  0  0  0  0  0  0
   22.0658   -9.2934  -19.7532 N   0  0  0  0  0  0  0  0  0  0  0  0
   21.5299   -7.0241  -19.0754 C   0  0  0  0  0  0  0  0  0  0  0  0
   20.3225   -7.2878  -19.3130 O   0  0  0  0  0  0  0  0  0  0  0  0
   17.8138   -7.4274  -15.6155 N   0  0  0  0  0  0  0  0  0  0  0  0
   17.7296   -6.0187  -15.6313 C   0  0  0  0  0  0  0  0  0  0  0  0
   16.7246   -5.4898  -15.0364 O   0  0  0  0  0  0  0  0  0  0  0  0
   18.7317   -5.1825  -16.2811 C   0  0  0  0  0  0  0  0  0  0  0  0
   19.8524   -5.8705  -16.9735 C   0  0  0  0  0  0  0  0  0  0  0  0
   20.7384   -4.9894  -17.7659 C   0  0  2  0  0  0  0  0  0  0  0  0
   21.8155   -5.8311  -18.3719 N   0  0  0  0  0  0  0  0  0  0  0  0
   21.3424   -3.8199  -17.1401 C   0  0  0  0  0  0  0  0  0  0  0  0
   20.5049   -2.7436  -16.7948 O   0  0  0  0  0  0  0  0  0  0  0  0
   22.5490   -3.6646  -16.8709 O   0  0  0  0  0  0  0  0  0  0  0  0
  2 13  1  0
  2  1  1  1
  3  2  1  0
  4  5  2  0
  4  3  1  0
  6  5  1  0
  7 12  2  0
  7  6  1  0
  8  7  1  0
  9 10  1  0
  9  8  2  0
 10 11  2  0
 11 12  1  0
 12  4  1  0
 13 14  2  0
 15 16  1  0
 17 19  1  0
 17 16  1  0
 17 18  1  6
 19 20  1  6
 20 13  1  0
 21 22  2  0
 21 19  1  0
 23 24  1  0
 24 25  2  0
 24 26  1  0
 26 27  1  0
 28 27  1  1
 28 30  1  0
 28 29  1  0
 29 21  1  0
 30 31  1  0
 32 30  2  0
M  END
$$$$
