WIQ.pdb
     RDKit          3D

 32 33  0  0  1  0  0  0  0  0999 V2000
   28.5674  -19.5628  -16.5965 N   0  0  0  0  0  0  0  0  0  0  0  0
   27.7053  -19.0989  -15.5402 C   0  0  1  0  0  0  0  0  0  0  0  0
   26.5134  -18.4139  -16.1551 C   0  0  0  0  0  0  0  0  0  0  0  0
   26.9182  -17.1533  -16.7806 C   0  0  0  0  0  0  0  0  0  0  0  0
   26.9633  -16.9554  -18.1649 C   0  0  0  0  0  0  0  0  0  0  0  0
   27.3408  -15.6888  -18.4100 N   0  0  0  0  0  0  0  0  0  0  0  0
   27.5517  -15.0263  -17.2712 C   0  0  0  0  0  0  0  0  0  0  0  0
   27.9510  -13.7318  -17.0305 C   0  0  0  0  0  0  0  0  0  0  0  0
   28.1046  -13.3018  -15.7191 C   0  0  0  0  0  0  0  0  0  0  0  0
   27.8461  -14.2050  -14.7221 C   0  0  0  0  0  0  0  0  0  0  0  0
   27.4409  -15.5178  -14.9656 C   0  0  0  0  0  0  0  0  0  0  0  0
   27.2890  -15.9391  -16.2589 C   0  0  0  0  0  0  0  0  0  0  0  0
   27.2974  -20.2091  -14.6363 C   0  0  0  0  0  0  0  0  0  0  0  0
   28.0397  -21.2078  -14.5018 O   0  0  0  0  0  0  0  0  0  0  0  0
   29.2588  -21.0674  -11.0010 C   0  0  0  0  0  0  0  0  0  0  0  0
   28.2725  -21.2358  -12.1088 C   0  0  0  0  0  0  0  0  0  0  0  0
   26.9098  -20.7729  -11.6758 C   0  0  2  0  0  0  0  0  0  0  0  0
   26.5075  -21.3697  -10.3670 C   0  0  0  0  0  0  0  0  0  0  0  0
   25.8670  -21.0390  -12.7631 C   0  0  2  0  0  0  0  0  0  0  0  0
   26.0795  -20.1871  -13.9049 N   0  0  0  0  0  0  0  0  0  0  0  0
   24.4935  -20.9046  -12.2119 C   0  0  0  0  0  0  0  0  0  0  0  0
   24.0597  -19.7605  -11.9174 O   0  0  0  0  0  0  0  0  0  0  0  0
   22.0194  -26.2686  -14.3264 N   0  0  0  0  0  0  0  0  0  0  0  0
   21.0505  -25.2836  -14.6142 C   0  0  0  0  0  0  0  0  0  0  0  0
   20.0370  -25.6505  -15.3083 O   0  0  0  0  0  0  0  0  0  0  0  0
   21.1714  -23.9076  -14.1474 C   0  0  0  0  0  0  0  0  0  0  0  0
   22.3535  -23.5696  -13.3124 C   0  0  0  0  0  0  0  0  0  0  0  0
   22.3701  -22.1918  -12.7733 C   0  0  2  0  0  0  0  0  0  0  0  0
   23.6351  -22.0077  -11.9977 N   0  0  0  0  0  0  0  0  0  0  0  0
   21.2478  -21.7140  -11.9757 C   0  0  0  0  0  0  0  0  0  0  0  0
   20.0623  -21.3562  -12.6434 O   0  0  0  0  0  0  0  0  0  0  0  0
   21.2222  -21.5840  -10.7369 O   0  0  0  0  0  0  0  0  0  0  0  0
  2 13  1  0
  2  1  1  6
  3  2  1  0
  4  5  2  0
  4  3  1  0
  6  5  1  0
  7 12  2  0
  7  6  1  0
  8  7  1  0
  9 10  1  0
  9  8  2  0
 10 11  2  0
 11 12  1  0
 12  4  1  0
 13 14  2  0
 15 16  1  0
 17 19  1  0
 17 16  1  0
 17 18  1  1
 19 20  1  6
 20 13  1  0
 21 22  2  0
 21 19  1  0
 23 24  1  0
 24 25  2  0
 24 26  1  0
 26 27  1  0
 28 27  1  1
 28 30  1  0
 28 29  1  0
 29 21  1  0
 30 31  1  0
 32 30  2  0
M  END
$$$$
