WIQ.pdb
     RDKit          3D

 32 33  0  0  1  0  0  0  0  0999 V2000
   27.4489  -22.1365   -9.9868 N   0  0  0  0  0  0  0  0  0  0  0  0
   26.4431  -21.1081   -9.9179 C   0  0  1  0  0  0  0  0  0  0  0  0
   26.9967  -19.9424   -9.1416 C   0  0  0  0  0  0  0  0  0  0  0  0
   26.9196  -20.2068   -7.7035 C   0  0  0  0  0  0  0  0  0  0  0  0
   25.9424  -21.0181   -7.1167 C   0  0  0  0  0  0  0  0  0  0  0  0
   26.1687  -21.0819   -5.7933 N   0  0  0  0  0  0  0  0  0  0  0  0
   27.2401  -20.3606   -5.4585 C   0  0  0  0  0  0  0  0  0  0  0  0
   27.8371  -20.1266   -4.2411 C   0  0  0  0  0  0  0  0  0  0  0  0
   28.9581  -19.3092   -4.1809 C   0  0  0  0  0  0  0  0  0  0  0  0
   29.4142  -18.7726   -5.3559 C   0  0  0  0  0  0  0  0  0  0  0  0
   28.8094  -19.0097   -6.5907 C   0  0  0  0  0  0  0  0  0  0  0  0
   27.7053  -19.8166   -6.6478 C   0  0  0  0  0  0  0  0  0  0  0  0
   25.9819  -20.6988  -11.2729 C   0  0  0  0  0  0  0  0  0  0  0  0
   26.7116  -19.9750  -11.9872 O   0  0  0  0  0  0  0  0  0  0  0  0
   25.1673  -24.3079  -14.6324 C   0  0  0  0  0  0  0  0  0  0  0  0
   25.3951  -23.0271  -13.9003 C   0  0  0  0  0  0  0  0  0  0  0  0
   24.1562  -22.1768  -13.9283 C   0  0  2  0  0  0  0  0  0  0  0  0
   23.6697  -21.9451  -15.3213 C   0  0  0  0  0  0  0  0  0  0  0  0
   24.3749  -20.8608  -13.1794 C   0  0  2  0  0  0  0  0  0  0  0  0
   24.7261  -21.0997  -11.8031 N   0  0  0  0  0  0  0  0  0  0  0  0
   23.1826  -19.9833  -13.3089 C   0  0  0  0  0  0  0  0  0  0  0  0
   22.1667  -20.2205  -12.6051 O   0  0  0  0  0  0  0  0  0  0  0  0
   22.8158  -14.0383  -14.9899 N   0  0  0  0  0  0  0  0  0  0  0  0
   21.4904  -14.4734  -15.2035 C   0  0  0  0  0  0  0  0  0  0  0  0
   20.5835  -13.5689  -15.2588 O   0  0  0  0  0  0  0  0  0  0  0  0
   21.1456  -15.8809  -15.3648 C   0  0  0  0  0  0  0  0  0  0  0  0
   22.2355  -16.8765  -15.1924 C   0  0  0  0  0  0  0  0  0  0  0  0
   21.9092  -18.0209  -14.3132 C   0  0  2  0  0  0  0  0  0  0  0  0
   23.1268  -18.8802  -14.1920 N   0  0  0  0  0  0  0  0  0  0  0  0
   20.7597  -18.8630  -14.6192 C   0  0  0  0  0  0  0  0  0  0  0  0
   19.5732  -18.6583  -13.8917 O   0  0  0  0  0  0  0  0  0  0  0  0
   20.7112  -19.7669  -15.4754 O   0  0  0  0  0  0  0  0  0  0  0  0
  2 13  1  0
  2  1  1  6
  3  2  1  0
  4  5  2  0
  4  3  1  0
  6  5  1  0
  7 12  2  0
  7  6  1  0
  8  7  1  0
  9 10  1  0
  9  8  2  0
 10 11  2  0
 11 12  1  0
 12  4  1  0
 13 14  2  0
 15 16  1  0
 17 19  1  0
 17 16  1  0
 17 18  1  6
 19 20  1  1
 20 13  1  0
 21 22  2  0
 21 19  1  0
 23 24  1  0
 24 25  2  0
 24 26  1  0
 26 27  1  0
 28 27  1  6
 28 30  1  0
 28 29  1  0
 29 21  1  0
 30 31  1  0
 32 30  2  0
M  END
$$$$
