MIN.pdb
     RDKit          3D

 25 24  0  0  1  0  0  0  0  0999 V2000
   11.1842  -11.5433  -11.9802 C   0  0  0  0  0  0  0  0  0  0  0  0
   11.3034  -13.1572  -12.7239 S   0  0  0  0  0  0  0  0  0  0  0  0
   12.6946  -13.4085  -13.8075 C   0  0  0  0  0  0  0  0  0  0  0  0
   13.8616  -12.5807  -13.3971 C   0  0  0  0  0  0  0  0  0  0  0  0
   15.0432  -12.6103  -14.2987 C   0  0  2  0  0  0  0  0  0  0  0  0
   15.5813  -13.9523  -14.4594 N   0  0  0  0  0  0  0  0  0  0  0  0
   16.0929  -11.7388  -13.6479 C   0  0  0  0  0  0  0  0  0  0  0  0
   16.8238  -12.2252  -12.7572 O   0  0  0  0  0  0  0  0  0  0  0  0
   19.5733   -9.3970  -16.4518 C   0  0  0  0  0  0  0  0  0  0  0  0
   18.8335  -10.0033  -15.2562 C   0  0  0  0  0  0  0  0  0  0  0  0
   18.0550   -8.9629  -14.5242 C   0  0  2  0  0  0  0  0  0  0  0  0
   18.8801   -7.7499  -14.1673 C   0  0  0  0  0  0  0  0  0  0  0  0
   17.2749   -9.5075  -13.3805 C   0  0  2  0  0  0  0  0  0  0  0  0
   16.2669  -10.4026  -14.0169 N   0  0  0  0  0  0  0  0  0  0  0  0
   16.5148   -8.5578  -12.5783 C   0  0  0  0  0  0  0  0  0  0  0  0
   15.5170   -7.9205  -13.0794 O   0  0  0  0  0  0  0  0  0  0  0  0
   14.7465   -5.2625   -9.1157 N   0  0  0  0  0  0  0  0  0  0  0  0
   15.3085   -6.2852   -8.3148 C   0  0  0  0  0  0  0  0  0  0  0  0
   15.2134   -6.2016   -7.0694 O   0  0  0  0  0  0  0  0  0  0  0  0
   15.9904   -7.4247   -8.9850 C   0  0  0  0  0  0  0  0  0  0  0  0
   15.9957   -7.2233  -10.4862 C   0  0  2  0  0  0  0  0  0  0  0  0
   16.7447   -8.2191  -11.2106 N   0  0  0  0  0  0  0  0  0  0  0  0
   16.3248   -5.8498  -10.9010 C   0  0  0  0  0  0  0  0  0  0  0  0
   15.2681   -4.9753  -11.1153 O   0  0  0  0  0  0  0  0  0  0  0  0
   17.5108   -5.4458  -11.0669 O   0  0  0  0  0  0  0  0  0  0  0  0
  1  2  1  0
  3  2  1  0
  4  5  1  0
  4  3  1  0
  5  6  1  1
  7  5  1  0
  8  7  2  0
  9 10  1  0
 10 11  1  0
 11 13  1  0
 11 12  1  1
 13 14  1  6
 14  7  1  0
 15 22  1  0
 15 13  1  0
 16 15  2  0
 17 18  1  0
 18 19  2  0
 18 20  1  0
 21 20  1  1
 21 23  1  0
 21 22  1  0
 23 24  1  0
 25 23  2  0
M  END
$$$$
