MIN.pdb
     RDKit          3D

 25 24  0  0  1  0  0  0  0  0999 V2000
   31.5927  -22.6307   -9.9443 C   0  0  0  0  0  0  0  0  0  0  0  0
   30.1338  -21.7123   -9.4971 S   0  0  0  0  0  0  0  0  0  0  0  0
   28.5831  -22.4326   -9.9964 C   0  0  0  0  0  0  0  0  0  0  0  0
   27.7946  -21.4958  -10.8428 C   0  0  0  0  0  0  0  0  0  0  0  0
   28.4129  -21.0895  -12.1321 C   0  0  2  0  0  0  0  0  0  0  0  0
   29.6892  -20.4170  -11.9444 N   0  0  0  0  0  0  0  0  0  0  0  0
   27.4448  -20.1260  -12.7797 C   0  0  0  0  0  0  0  0  0  0  0  0
   27.1719  -19.0523  -12.1995 O   0  0  0  0  0  0  0  0  0  0  0  0
   28.7450  -17.9183  -16.8123 C   0  0  0  0  0  0  0  0  0  0  0  0
   27.9101  -18.2101  -15.5624 C   0  0  0  0  0  0  0  0  0  0  0  0
   26.7015  -19.0154  -15.9014 C   0  0  2  0  0  0  0  0  0  0  0  0
   25.8444  -18.3746  -16.9665 C   0  0  0  0  0  0  0  0  0  0  0  0
   25.9326  -19.4550  -14.7060 C   0  0  2  0  0  0  0  0  0  0  0  0
   26.8468  -20.4057  -14.0110 N   0  0  0  0  0  0  0  0  0  0  0  0
   24.6965  -20.1899  -14.9404 C   0  0  0  0  0  0  0  0  0  0  0  0
   24.7203  -21.4062  -15.3560 O   0  0  0  0  0  0  0  0  0  0  0  0
   20.0353  -21.3485  -12.1786 N   0  0  0  0  0  0  0  0  0  0  0  0
   21.2726  -20.8244  -12.6233 C   0  0  0  0  0  0  0  0  0  0  0  0
   21.7452  -19.8166  -12.0506 O   0  0  0  0  0  0  0  0  0  0  0  0
   21.9674  -21.4942  -13.7552 C   0  0  0  0  0  0  0  0  0  0  0  0
   22.1827  -20.5158  -14.8911 C   0  0  2  0  0  0  0  0  0  0  0  0
   23.3667  -19.7054  -14.7530 N   0  0  0  0  0  0  0  0  0  0  0  0
   20.9881  -19.7254  -15.2301 C   0  0  0  0  0  0  0  0  0  0  0  0
   19.9205  -20.3962  -15.8112 O   0  0  0  0  0  0  0  0  0  0  0  0
   20.9008  -18.4829  -15.0166 O   0  0  0  0  0  0  0  0  0  0  0  0
  1  2  1  0
  3  2  1  0
  4  5  1  0
  4  3  1  0
  5  6  1  1
  7  5  1  0
  8  7  2  0
  9 10  1  0
 10 11  1  0
 11 13  1  0
 11 12  1  6
 13 14  1  1
 14  7  1  0
 15 22  1  0
 15 13  1  0
 16 15  2  0
 17 18  1  0
 18 19  2  0
 18 20  1  0
 21 20  1  1
 21 23  1  0
 21 22  1  0
 23 24  1  0
 25 23  2  0
M  END
$$$$
