MIN.pdb
     RDKit          3D

 25 24  0  0  1  0  0  0  0  0999 V2000
   16.2476  -11.6113  -23.2237 C   0  0  0  0  0  0  0  0  0  0  0  0
   16.9870  -10.8198  -21.8099 S   0  0  0  0  0  0  0  0  0  0  0  0
   18.0224  -11.8562  -20.7968 C   0  0  0  0  0  0  0  0  0  0  0  0
   18.5623  -11.1102  -19.6273 C   0  0  0  0  0  0  0  0  0  0  0  0
   19.5134  -11.8473  -18.7545 C   0  0  2  0  0  0  0  0  0  0  0  0
   18.9927  -13.1407  -18.3395 N   0  0  0  0  0  0  0  0  0  0  0  0
   19.7150  -10.9867  -17.5282 C   0  0  0  0  0  0  0  0  0  0  0  0
   18.9894  -11.1716  -16.5265 O   0  0  0  0  0  0  0  0  0  0  0  0
   23.9133  -11.1711  -15.0163 C   0  0  0  0  0  0  0  0  0  0  0  0
   22.4599  -10.8680  -15.3905 C   0  0  0  0  0  0  0  0  0  0  0  0
   22.3107   -9.4618  -15.8643 C   0  0  2  0  0  0  0  0  0  0  0  0
   22.9073   -8.4518  -14.9138 C   0  0  0  0  0  0  0  0  0  0  0  0
   20.9253   -9.1283  -16.2916 C   0  0  2  0  0  0  0  0  0  0  0  0
   20.6924   -9.9894  -17.4861 N   0  0  0  0  0  0  0  0  0  0  0  0
   20.6723   -7.7619  -16.7296 C   0  0  0  0  0  0  0  0  0  0  0  0
   21.2997   -7.2644  -17.7354 O   0  0  0  0  0  0  0  0  0  0  0  0
   19.1902   -2.8742  -17.1923 N   0  0  0  0  0  0  0  0  0  0  0  0
   18.0555   -3.7017  -17.3689 C   0  0  0  0  0  0  0  0  0  0  0  0
   16.9917   -3.1911  -17.7869 O   0  0  0  0  0  0  0  0  0  0  0  0
   18.1712   -5.1506  -17.0529 C   0  0  0  0  0  0  0  0  0  0  0  0
   19.5791   -5.4781  -16.6008 C   0  0  2  0  0  0  0  0  0  0  0  0
   19.7516   -6.8367  -16.1513 N   0  0  0  0  0  0  0  0  0  0  0  0
   20.1484   -4.4928  -15.6670 C   0  0  0  0  0  0  0  0  0  0  0  0
   20.4362   -3.2297  -16.1662 O   0  0  0  0  0  0  0  0  0  0  0  0
   20.3811   -4.7499  -14.4517 O   0  0  0  0  0  0  0  0  0  0  0  0
  1  2  1  0
  3  2  1  0
  4  5  1  0
  4  3  1  0
  5  6  1  1
  7  5  1  0
  8  7  2  0
  9 10  1  0
 10 11  1  0
 11 13  1  0
 11 12  1  1
 13 14  1  6
 14  7  1  0
 15 22  1  0
 15 13  1  0
 16 15  2  0
 17 18  1  0
 18 19  2  0
 18 20  1  0
 21 20  1  1
 21 23  1  0
 21 22  1  0
 23 24  1  0
 25 23  2  0
M  END
$$$$
