MIN.pdb
     RDKit          3D

 25 24  0  0  1  0  0  0  0  0999 V2000
   25.3839  -21.3219  -20.0783 C   0  0  0  0  0  0  0  0  0  0  0  0
   25.5043  -22.8870  -20.9197 S   0  0  0  0  0  0  0  0  0  0  0  0
   25.8185  -24.3005  -19.8825 C   0  0  0  0  0  0  0  0  0  0  0  0
   25.5526  -23.9952  -18.4500 C   0  0  0  0  0  0  0  0  0  0  0  0
   26.7440  -23.7739  -17.5889 C   0  0  2  0  0  0  0  0  0  0  0  0
   27.5275  -24.9863  -17.4085 N   0  0  0  0  0  0  0  0  0  0  0  0
   26.2161  -23.3299  -16.2438 C   0  0  0  0  0  0  0  0  0  0  0  0
   26.0514  -24.1801  -15.3416 O   0  0  0  0  0  0  0  0  0  0  0  0
   28.4717  -19.0199  -14.8085 C   0  0  0  0  0  0  0  0  0  0  0  0
   27.7797  -20.3699  -14.6010 C   0  0  0  0  0  0  0  0  0  0  0  0
   26.3005  -20.2050  -14.5075 C   0  0  2  0  0  0  0  0  0  0  0  0
   25.8731  -19.3673  -13.3264 C   0  0  0  0  0  0  0  0  0  0  0  0
   25.5565  -21.4879  -14.6252 C   0  0  2  0  0  0  0  0  0  0  0  0
   25.9076  -21.9924  -15.9835 N   0  0  0  0  0  0  0  0  0  0  0  0
   24.1014  -21.4218  -14.5884 C   0  0  0  0  0  0  0  0  0  0  0  0
   23.4478  -20.7648  -15.4795 O   0  0  0  0  0  0  0  0  0  0  0  0
   19.1328  -21.5306  -13.5561 N   0  0  0  0  0  0  0  0  0  0  0  0
   19.6208  -22.5763  -12.7365 C   0  0  0  0  0  0  0  0  0  0  0  0
   18.8112  -23.2281  -12.0388 O   0  0  0  0  0  0  0  0  0  0  0  0
   21.0803  -22.8635  -12.7373 C   0  0  0  0  0  0  0  0  0  0  0  0
   21.8169  -21.8346  -13.5695 C   0  0  2  0  0  0  0  0  0  0  0  0
   23.2429  -22.0365  -13.6275 N   0  0  0  0  0  0  0  0  0  0  0  0
   21.4511  -20.4435  -13.2560 C   0  0  0  0  0  0  0  0  0  0  0  0
   21.9630  -19.8948  -12.0880 O   0  0  0  0  0  0  0  0  0  0  0  0
   20.7023  -19.7447  -13.9962 O   0  0  0  0  0  0  0  0  0  0  0  0
  1  2  1  0
  3  2  1  0
  4  5  1  0
  4  3  1  0
  5  6  1  1
  7  5  1  0
  8  7  2  0
  9 10  1  0
 10 11  1  0
 11 13  1  0
 11 12  1  1
 13 14  1  6
 14  7  1  0
 15 22  1  0
 15 13  1  0
 16 15  2  0
 17 18  1  0
 18 19  2  0
 18 20  1  0
 21 20  1  1
 21 23  1  0
 21 22  1  0
 23 24  1  0
 25 23  2  0
M  END
$$$$
