MIN.pdb
     RDKit          3D

 25 24  0  0  1  0  0  0  0  0999 V2000
   27.3868  -18.2082   -6.7044 C   0  0  0  0  0  0  0  0  0  0  0  0
   27.7501  -19.8985   -6.2769 S   0  0  0  0  0  0  0  0  0  0  0  0
   27.5614  -21.0862   -7.5908 C   0  0  0  0  0  0  0  0  0  0  0  0
   26.8651  -20.4935   -8.7654 C   0  0  0  0  0  0  0  0  0  0  0  0
   26.7360  -21.3618   -9.9651 C   0  0  2  0  0  0  0  0  0  0  0  0
   28.0254  -21.8315  -10.4478 N   0  0  0  0  0  0  0  0  0  0  0  0
   26.0955  -20.5093  -11.0365 C   0  0  0  0  0  0  0  0  0  0  0  0
   26.6707  -19.4634  -11.4096 O   0  0  0  0  0  0  0  0  0  0  0  0
   27.2426  -21.9866  -15.0604 C   0  0  0  0  0  0  0  0  0  0  0  0
   26.6044  -21.0646  -14.0178 C   0  0  0  0  0  0  0  0  0  0  0  0
   25.1368  -21.3083  -13.9138 C   0  0  2  0  0  0  0  0  0  0  0  0
   24.4574  -21.4055  -15.2585 C   0  0  0  0  0  0  0  0  0  0  0  0
   24.4524  -20.3857  -12.9685 C   0  0  2  0  0  0  0  0  0  0  0  0
   24.8759  -20.8610  -11.6204 N   0  0  0  0  0  0  0  0  0  0  0  0
   22.9954  -20.4014  -12.9571 C   0  0  0  0  0  0  0  0  0  0  0  0
   22.3495  -21.4565  -12.6074 O   0  0  0  0  0  0  0  0  0  0  0  0
   17.7691  -17.3805  -12.6325 N   0  0  0  0  0  0  0  0  0  0  0  0
   18.5162  -18.2548  -13.4575 C   0  0  0  0  0  0  0  0  0  0  0  0
   17.9143  -19.1445  -14.1002 O   0  0  0  0  0  0  0  0  0  0  0  0
   19.9917  -18.0813  -13.5318 C   0  0  0  0  0  0  0  0  0  0  0  0
   20.6883  -19.4038  -13.2874 C   0  0  2  0  0  0  0  0  0  0  0  0
   22.1273  -19.3226  -13.3042 N   0  0  0  0  0  0  0  0  0  0  0  0
   20.1708  -20.5096  -14.1098 C   0  0  0  0  0  0  0  0  0  0  0  0
   19.3044  -21.4081  -13.5020 O   0  0  0  0  0  0  0  0  0  0  0  0
   20.4811  -20.6685  -15.3245 O   0  0  0  0  0  0  0  0  0  0  0  0
  1  2  1  0
  3  2  1  0
  4  5  1  0
  4  3  1  0
  5  6  1  6
  7  5  1  0
  8  7  2  0
  9 10  1  0
 10 11  1  0
 11 13  1  0
 11 12  1  6
 13 14  1  1
 14  7  1  0
 15 22  1  0
 15 13  1  0
 16 15  2  0
 17 18  1  0
 18 19  2  0
 18 20  1  0
 21 20  1  6
 21 23  1  0
 21 22  1  0
 23 24  1  0
 25 23  2  0
M  END
$$$$
