MIN.pdb
     RDKit          3D

 25 24  0  0  1  0  0  0  0  0999 V2000
   24.9507  -13.4106  -20.5750 C   0  0  0  0  0  0  0  0  0  0  0  0
   24.2150  -14.9433  -21.1056 S   0  0  0  0  0  0  0  0  0  0  0  0
   23.2912  -15.8278  -19.8659 C   0  0  0  0  0  0  0  0  0  0  0  0
   22.2169  -14.9807  -19.2791 C   0  0  0  0  0  0  0  0  0  0  0  0
   21.4182  -15.5904  -18.1836 C   0  0  2  0  0  0  0  0  0  0  0  0
   20.9827  -16.9410  -18.5039 N   0  0  0  0  0  0  0  0  0  0  0  0
   20.1993  -14.7132  -18.0110 C   0  0  0  0  0  0  0  0  0  0  0  0
   19.3088  -14.7257  -18.8890 O   0  0  0  0  0  0  0  0  0  0  0  0
   16.8374  -15.5628  -14.6209 C   0  0  0  0  0  0  0  0  0  0  0  0
   17.5092  -14.9530  -15.8542 C   0  0  0  0  0  0  0  0  0  0  0  0
   18.1470  -13.6456  -15.5254 C   0  0  2  0  0  0  0  0  0  0  0  0
   17.2169  -12.6992  -14.8053 C   0  0  0  0  0  0  0  0  0  0  0  0
   18.8467  -13.0244  -16.6821 C   0  0  2  0  0  0  0  0  0  0  0  0
   20.0430  -13.8883  -16.8943 N   0  0  0  0  0  0  0  0  0  0  0  0
   19.3581  -11.6716  -16.5051 C   0  0  0  0  0  0  0  0  0  0  0  0
   20.2081  -11.4033  -15.5787 O   0  0  0  0  0  0  0  0  0  0  0  0
   19.8724   -9.0987  -20.6046 N   0  0  0  0  0  0  0  0  0  0  0  0
   20.4047   -9.0560  -19.2939 C   0  0  0  0  0  0  0  0  0  0  0  0
   21.4913   -9.6325  -19.0615 O   0  0  0  0  0  0  0  0  0  0  0  0
   19.6523   -8.3238  -18.2402 C   0  0  0  0  0  0  0  0  0  0  0  0
   19.4978   -9.1907  -17.0077 C   0  0  2  0  0  0  0  0  0  0  0  0
   19.0194  -10.5225  -17.2815 N   0  0  0  0  0  0  0  0  0  0  0  0
   18.7674   -8.5379  -15.9090 C   0  0  0  0  0  0  0  0  0  0  0  0
   17.6346   -9.1778  -15.4245 O   0  0  0  0  0  0  0  0  0  0  0  0
   19.1260   -7.4375  -15.4014 O   0  0  0  0  0  0  0  0  0  0  0  0
  1  2  1  0
  3  2  1  0
  4  5  1  0
  4  3  1  0
  5  6  1  6
  7  5  1  0
  8  7  2  0
  9 10  1  0
 10 11  1  0
 11 13  1  0
 11 12  1  6
 13 14  1  1
 14  7  1  0
 15 22  1  0
 15 13  1  0
 16 15  2  0
 17 18  1  0
 18 19  2  0
 18 20  1  0
 21 20  1  6
 21 23  1  0
 21 22  1  0
 23 24  1  0
 25 23  2  0
M  END
$$$$
