MIN.pdb
     RDKit          3D

 25 24  0  0  1  0  0  0  0  0999 V2000
   25.7251  -15.0398  -14.8215 C   0  0  0  0  0  0  0  0  0  0  0  0
   26.8333  -15.5249  -16.1286 S   0  0  0  0  0  0  0  0  0  0  0  0
   27.8506  -16.9478  -15.7919 C   0  0  0  0  0  0  0  0  0  0  0  0
   27.0495  -18.0698  -15.2306 C   0  0  0  0  0  0  0  0  0  0  0  0
   27.8158  -19.2113  -14.6651 C   0  0  2  0  0  0  0  0  0  0  0  0
   28.6999  -19.8223  -15.6455 N   0  0  0  0  0  0  0  0  0  0  0  0
   26.7909  -20.2332  -14.2290 C   0  0  0  0  0  0  0  0  0  0  0  0
   26.5217  -21.1901  -14.9878 O   0  0  0  0  0  0  0  0  0  0  0  0
   25.4925  -20.3608   -8.7544 C   0  0  0  0  0  0  0  0  0  0  0  0
   25.2333  -20.1100  -10.2424 C   0  0  0  0  0  0  0  0  0  0  0  0
   25.5533  -21.3200  -11.0534 C   0  0  2  0  0  0  0  0  0  0  0  0
   26.9573  -21.8277  -10.8281 C   0  0  0  0  0  0  0  0  0  0  0  0
   25.1980  -21.1762  -12.4909 C   0  0  2  0  0  0  0  0  0  0  0  0
   26.1366  -20.1351  -12.9985 N   0  0  0  0  0  0  0  0  0  0  0  0
   23.8594  -20.6922  -12.8026 C   0  0  0  0  0  0  0  0  0  0  0  0
   23.5707  -19.4430  -12.7085 O   0  0  0  0  0  0  0  0  0  0  0  0
   21.8423  -19.4170  -16.3328 N   0  0  0  0  0  0  0  0  0  0  0  0
   21.9034  -20.7873  -15.9834 C   0  0  0  0  0  0  0  0  0  0  0  0
   22.7441  -21.5210  -16.5507 O   0  0  0  0  0  0  0  0  0  0  0  0
   20.9656  -21.3043  -14.9510 C   0  0  0  0  0  0  0  0  0  0  0  0
   21.4539  -20.9332  -13.5660 C   0  0  2  0  0  0  0  0  0  0  0  0
   22.7468  -21.4764  -13.2330 N   0  0  0  0  0  0  0  0  0  0  0  0
   20.4557  -21.1485  -12.5058 C   0  0  0  0  0  0  0  0  0  0  0  0
   19.2310  -20.5085  -12.6402 O   0  0  0  0  0  0  0  0  0  0  0  0
   20.6688  -21.8794  -11.4971 O   0  0  0  0  0  0  0  0  0  0  0  0
  1  2  1  0
  3  2  1  0
  4  5  1  0
  4  3  1  0
  5  6  1  6
  7  5  1  0
  8  7  2  0
  9 10  1  0
 10 11  1  0
 11 13  1  0
 11 12  1  6
 13 14  1  1
 14  7  1  0
 15 22  1  0
 15 13  1  0
 16 15  2  0
 17 18  1  0
 18 19  2  0
 18 20  1  0
 21 20  1  6
 21 23  1  0
 21 22  1  0
 23 24  1  0
 25 23  2  0
M  END
$$$$
