MIN.pdb
     RDKit          3D

 25 24  0  0  1  0  0  0  0  0999 V2000
   19.3927  -20.3381  -14.5645 C   0  0  0  0  0  0  0  0  0  0  0  0
   20.0352  -21.9732  -14.2723 S   0  0  0  0  0  0  0  0  0  0  0  0
   20.9282  -22.1921  -12.7467 C   0  0  0  0  0  0  0  0  0  0  0  0
   22.2039  -21.4251  -12.7471 C   0  0  0  0  0  0  0  0  0  0  0  0
   23.0186  -21.4961  -11.5058 C   0  0  2  0  0  0  0  0  0  0  0  0
   22.2535  -21.1358  -10.3221 N   0  0  0  0  0  0  0  0  0  0  0  0
   24.1430  -20.5011  -11.6810 C   0  0  0  0  0  0  0  0  0  0  0  0
   24.0354  -19.3627  -11.1746 O   0  0  0  0  0  0  0  0  0  0  0  0
   28.9097  -21.5405  -10.3092 C   0  0  0  0  0  0  0  0  0  0  0  0
   27.6779  -20.7271  -10.7161 C   0  0  0  0  0  0  0  0  0  0  0  0
   27.6252  -20.5378  -12.1944 C   0  0  2  0  0  0  0  0  0  0  0  0
   28.8958  -19.9504  -12.7603 C   0  0  0  0  0  0  0  0  0  0  0  0
   26.3934  -19.8425  -12.6554 C   0  0  2  0  0  0  0  0  0  0  0  0
   25.3001  -20.8220  -12.3953 N   0  0  0  0  0  0  0  0  0  0  0  0
   26.3037  -19.5116  -14.0716 C   0  0  0  0  0  0  0  0  0  0  0  0
   26.0933  -20.4256  -14.9509 O   0  0  0  0  0  0  0  0  0  0  0  0
   24.2934  -16.4158  -18.4912 N   0  0  0  0  0  0  0  0  0  0  0  0
   25.5054  -16.3097  -17.7679 C   0  0  0  0  0  0  0  0  0  0  0  0
   26.5438  -15.9589  -18.3726 O   0  0  0  0  0  0  0  0  0  0  0  0
   25.4988  -16.6174  -16.3127 C   0  0  0  0  0  0  0  0  0  0  0  0
   26.2069  -17.9304  -16.0509 C   0  0  2  0  0  0  0  0  0  0  0  0
   26.4234  -18.2139  -14.6544 N   0  0  0  0  0  0  0  0  0  0  0  0
   27.4171  -18.1265  -16.8659 C   0  0  0  0  0  0  0  0  0  0  0  0
   27.2642  -18.7419  -18.1010 O   0  0  0  0  0  0  0  0  0  0  0  0
   28.5674  -17.7632  -16.4894 O   0  0  0  0  0  0  0  0  0  0  0  0
  1  2  1  0
  3  2  1  0
  4  5  1  0
  4  3  1  0
  5  6  1  1
  7  5  1  0
  8  7  2  0
  9 10  1  0
 10 11  1  0
 11 13  1  0
 11 12  1  1
 13 14  1  6
 14  7  1  0
 15 22  1  0
 15 13  1  0
 16 15  2  0
 17 18  1  0
 18 19  2  0
 18 20  1  0
 21 20  1  1
 21 23  1  0
 21 22  1  0
 23 24  1  0
 25 23  2  0
M  END
$$$$
