MIN.pdb
     RDKit          3D

 25 24  0  0  1  0  0  0  0  0999 V2000
   20.6007   -6.9466  -14.9735 C   0  0  0  0  0  0  0  0  0  0  0  0
   21.1564   -7.9412  -13.6046 S   0  0  0  0  0  0  0  0  0  0  0  0
   19.9819   -9.1276  -12.9835 C   0  0  0  0  0  0  0  0  0  0  0  0
   18.7468   -8.4624  -12.4858 C   0  0  0  0  0  0  0  0  0  0  0  0
   17.6541   -9.3578  -12.0229 C   0  0  2  0  0  0  0  0  0  0  0  0
   17.1621  -10.2224  -13.0842 N   0  0  0  0  0  0  0  0  0  0  0  0
   16.5305   -8.4536  -11.5702 C   0  0  0  0  0  0  0  0  0  0  0  0
   15.6492   -8.1170  -12.3912 O   0  0  0  0  0  0  0  0  0  0  0  0
   13.1340   -8.6547   -8.8158 C   0  0  0  0  0  0  0  0  0  0  0  0
   14.5253   -8.6519   -8.1766 C   0  0  0  0  0  0  0  0  0  0  0  0
   15.2025   -7.3378   -8.3730 C   0  0  2  0  0  0  0  0  0  0  0  0
   14.5636   -6.2203   -7.5839 C   0  0  0  0  0  0  0  0  0  0  0  0
   15.4281   -6.9998   -9.8042 C   0  0  2  0  0  0  0  0  0  0  0  0
   16.4521   -7.9844  -10.2566 N   0  0  0  0  0  0  0  0  0  0  0  0
   15.9812   -5.6848  -10.1005 C   0  0  0  0  0  0  0  0  0  0  0  0
   17.2358   -5.4473   -9.9505 O   0  0  0  0  0  0  0  0  0  0  0  0
   16.7563   -1.1047  -12.3087 N   0  0  0  0  0  0  0  0  0  0  0  0
   17.2661   -2.3098  -12.8483 C   0  0  0  0  0  0  0  0  0  0  0  0
   18.0879   -2.2524  -13.7909 O   0  0  0  0  0  0  0  0  0  0  0  0
   16.8070   -3.6019  -12.2719 C   0  0  0  0  0  0  0  0  0  0  0  0
   15.8894   -3.3536  -11.0928 C   0  0  2  0  0  0  0  0  0  0  0  0
   15.2646   -4.5439  -10.5727 N   0  0  0  0  0  0  0  0  0  0  0  0
   14.9331   -2.2546  -11.3042 C   0  0  0  0  0  0  0  0  0  0  0  0
   13.6528   -2.5917  -11.7221 O   0  0  0  0  0  0  0  0  0  0  0  0
   15.2294   -1.0394  -11.1236 O   0  0  0  0  0  0  0  0  0  0  0  0
  1  2  1  0
  3  2  1  0
  4  5  1  0
  4  3  1  0
  5  6  1  6
  7  5  1  0
  8  7  2  0
  9 10  1  0
 10 11  1  0
 11 13  1  0
 11 12  1  6
 13 14  1  1
 14  7  1  0
 15 22  1  0
 15 13  1  0
 16 15  2  0
 17 18  1  0
 18 19  2  0
 18 20  1  0
 21 20  1  6
 21 23  1  0
 21 22  1  0
 23 24  1  0
 25 23  2  0
M  END
$$$$
