MIN.pdb
     RDKit          3D

 25 24  0  0  1  0  0  0  0  0999 V2000
   23.7894  -19.0869  -19.0626 C   0  0  0  0  0  0  0  0  0  0  0  0
   25.0794  -19.2756  -20.2759 S   0  0  0  0  0  0  0  0  0  0  0  0
   26.6847  -19.7088  -19.6371 C   0  0  0  0  0  0  0  0  0  0  0  0
   26.5987  -20.1997  -18.2345 C   0  0  0  0  0  0  0  0  0  0  0  0
   27.8894  -20.4656  -17.5466 C   0  0  2  0  0  0  0  0  0  0  0  0
   28.7608  -21.3330  -18.3241 N   0  0  0  0  0  0  0  0  0  0  0  0
   27.5416  -21.1598  -16.2497 C   0  0  0  0  0  0  0  0  0  0  0  0
   27.5589  -22.4094  -16.2023 O   0  0  0  0  0  0  0  0  0  0  0  0
   30.5007  -20.1171  -12.4691 C   0  0  0  0  0  0  0  0  0  0  0  0
   29.4572  -20.8239  -13.3385 C   0  0  0  0  0  0  0  0  0  0  0  0
   28.0737  -20.4581  -12.9189 C   0  0  2  0  0  0  0  0  0  0  0  0
   27.8386  -20.6375  -11.4383 C   0  0  0  0  0  0  0  0  0  0  0  0
   27.0186  -21.0762  -13.7663 C   0  0  2  0  0  0  0  0  0  0  0  0
   27.2011  -20.4396  -15.1019 N   0  0  0  0  0  0  0  0  0  0  0  0
   25.6321  -20.8288  -13.3928 C   0  0  0  0  0  0  0  0  0  0  0  0
   25.0184  -19.7733  -13.7954 O   0  0  0  0  0  0  0  0  0  0  0  0
   23.9495  -20.2960   -8.7840 N   0  0  0  0  0  0  0  0  0  0  0  0
   24.2674  -21.2128   -9.8144 C   0  0  0  0  0  0  0  0  0  0  0  0
   25.4521  -21.5974   -9.9396 O   0  0  0  0  0  0  0  0  0  0  0  0
   23.1788  -21.6876  -10.7099 C   0  0  0  0  0  0  0  0  0  0  0  0
   23.4777  -21.3082  -12.1455 C   0  0  2  0  0  0  0  0  0  0  0  0
   24.8037  -21.6642  -12.5841 N   0  0  0  0  0  0  0  0  0  0  0  0
   23.1206  -19.9200  -12.4806 C   0  0  0  0  0  0  0  0  0  0  0  0
   21.7971  -19.6613  -12.8103 O   0  0  0  0  0  0  0  0  0  0  0  0
   23.9585  -18.9739  -12.4801 O   0  0  0  0  0  0  0  0  0  0  0  0
  1  2  1  0
  3  2  1  0
  4  5  1  0
  4  3  1  0
  5  6  1  6
  7  5  1  0
  8  7  2  0
  9 10  1  0
 10 11  1  0
 11 13  1  0
 11 12  1  1
 13 14  1  6
 14  7  1  0
 15 22  1  0
 15 13  1  0
 16 15  2  0
 17 18  1  0
 18 19  2  0
 18 20  1  0
 21 20  1  1
 21 23  1  0
 21 22  1  0
 23 24  1  0
 25 23  2  0
M  END
$$$$
