MIN.pdb
     RDKit          3D

 25 24  0  0  1  0  0  0  0  0999 V2000
   26.2682   -4.7461  -20.6075 C   0  0  0  0  0  0  0  0  0  0  0  0
   26.9924   -5.9088  -21.7458 S   0  0  0  0  0  0  0  0  0  0  0  0
   27.1503   -7.5796  -21.1490 C   0  0  0  0  0  0  0  0  0  0  0  0
   26.4719   -7.7555  -19.8357 C   0  0  0  0  0  0  0  0  0  0  0  0
   26.6483   -9.0737  -19.1716 C   0  0  2  0  0  0  0  0  0  0  0  0
   27.0517  -10.1129  -20.1062 N   0  0  0  0  0  0  0  0  0  0  0  0
   25.3012   -9.4372  -18.5901 C   0  0  0  0  0  0  0  0  0  0  0  0
   24.4434   -9.9735  -19.3253 O   0  0  0  0  0  0  0  0  0  0  0  0
   25.0666  -12.3172  -14.4733 C   0  0  0  0  0  0  0  0  0  0  0  0
   24.6052  -11.6127  -15.7520 C   0  0  0  0  0  0  0  0  0  0  0  0
   23.9770  -10.2962  -15.4416 C   0  0  2  0  0  0  0  0  0  0  0  0
   22.8240  -10.4057  -14.4729 C   0  0  0  0  0  0  0  0  0  0  0  0
   23.6591   -9.4950  -16.6541 C   0  0  2  0  0  0  0  0  0  0  0  0
   24.9905   -9.1887  -17.2508 N   0  0  0  0  0  0  0  0  0  0  0  0
   23.0072   -8.2077  -16.4519 C   0  0  0  0  0  0  0  0  0  0  0  0
   23.5494   -7.3012  -15.7191 O   0  0  0  0  0  0  0  0  0  0  0  0
   20.0064   -4.0927  -16.3597 N   0  0  0  0  0  0  0  0  0  0  0  0
   20.0558   -4.5016  -17.7138 C   0  0  0  0  0  0  0  0  0  0  0  0
   19.5748   -3.7505  -18.5921 O   0  0  0  0  0  0  0  0  0  0  0  0
   20.6811   -5.8105  -18.0429 C   0  0  0  0  0  0  0  0  0  0  0  0
   21.1728   -6.4890  -16.7812 C   0  0  2  0  0  0  0  0  0  0  0  0
   21.7584   -7.7875  -17.0015 N   0  0  0  0  0  0  0  0  0  0  0  0
   20.1924   -6.4854  -15.6831 C   0  0  0  0  0  0  0  0  0  0  0  0
   19.7620   -7.7159  -15.2054 O   0  0  0  0  0  0  0  0  0  0  0  0
   19.7365   -5.4243  -15.1702 O   0  0  0  0  0  0  0  0  0  0  0  0
  1  2  1  0
  3  2  1  0
  4  5  1  0
  4  3  1  0
  5  6  1  6
  7  5  1  0
  8  7  2  0
  9 10  1  0
 10 11  1  0
 11 13  1  0
 11 12  1  6
 13 14  1  1
 14  7  1  0
 15 22  1  0
 15 13  1  0
 16 15  2  0
 17 18  1  0
 18 19  2  0
 18 20  1  0
 21 20  1  6
 21 23  1  0
 21 22  1  0
 23 24  1  0
 25 23  2  0
M  END
$$$$
