DAR.pdb
     RDKit          3D

 25 24  0  0  1  0  0  0  0  0999 V2000
   27.4145  -21.7539  -15.3895 N   0  0  0  0  0  0  0  0  0  0  0  0
   27.2585  -20.7039  -14.3795 C   0  0  1  0  0  0  0  0  0  0  0  0
   26.9263  -19.4014  -15.0379 C   0  0  0  0  0  0  0  0  0  0  0  0
   27.9959  -18.8371  -15.8566 C   0  0  0  0  0  0  0  0  0  0  0  0
   29.0588  -19.5118  -15.9856 O   0  0  0  0  0  0  0  0  0  0  0  0
   26.1018  -21.1121  -13.5191 C   0  0  0  0  0  0  0  0  0  0  0  0
   25.1083  -21.7301  -13.9430 O   0  0  0  0  0  0  0  0  0  0  0  0
   27.9022  -17.6118  -16.4893 O   0  0  0  0  0  0  0  0  0  0  0  0
   25.2226  -20.5291   -9.9073 C   0  0  0  0  0  0  0  0  0  0  0  0
   24.9179  -20.9242  -11.3511 C   0  0  2  0  0  0  0  0  0  0  0  0
   26.1147  -20.7863  -12.1273 N   0  0  0  0  0  0  0  0  0  0  0  0
   23.8135  -20.0228  -11.8382 C   0  0  0  0  0  0  0  0  0  0  0  0
   24.1047  -18.9562  -12.4253 O   0  0  0  0  0  0  0  0  0  0  0  0
   22.3940  -21.1586  -18.8845 N   0  0  0  0  0  0  0  0  0  0  0  0
   23.0762  -20.2677  -17.9947 C   0  0  0  0  0  0  0  0  0  0  0  0
   24.1746  -19.6611  -18.3431 N   0  0  0  0  0  0  0  0  0  0  0  0
   22.4896  -20.0831  -16.7180 N   0  0  0  0  0  0  0  0  0  0  0  0
   21.3064  -20.8376  -16.3807 C   0  0  0  0  0  0  0  0  0  0  0  0
   20.7572  -20.4279  -15.0098 C   0  0  0  0  0  0  0  0  0  0  0  0
   21.7872  -20.6222  -13.9527 C   0  0  0  0  0  0  0  0  0  0  0  0
   21.3966  -20.1740  -12.5989 C   0  0  2  0  0  0  0  0  0  0  0  0
   22.4582  -20.3661  -11.6419 N   0  0  0  0  0  0  0  0  0  0  0  0
   20.1234  -20.6918  -12.0702 C   0  0  0  0  0  0  0  0  0  0  0  0
   20.0989  -21.8469  -11.5943 O   0  0  0  0  0  0  0  0  0  0  0  0
   18.9246  -19.9950  -12.0535 O   0  0  0  0  0  0  0  0  0  0  0  0
  2  1  1  6
  2  3  1  0
  3  4  1  0
  4  5  2  0
  4  8  1  0
  6  7  2  0
  6  2  1  0
 10  9  1  1
 10 12  1  0
 10 11  1  0
 11  6  1  0
 12 22  1  0
 13 12  2  0
 15 16  2  0
 15 14  1  0
 17 15  1  0
 18 17  1  0
 19 18  1  0
 21 20  1  6
 20 19  1  0
 22 21  1  0
 23 25  1  0
 23 21  1  0
 24 23  2  0
M  END
$$$$
