DAR.pdb
     RDKit          3D

 25 24  0  0  1  0  0  0  0  0999 V2000
   13.5593   -8.9257  -10.4655 N   0  0  0  0  0  0  0  0  0  0  0  0
   14.9548   -9.0549  -10.0376 C   0  0  1  0  0  0  0  0  0  0  0  0
   15.6197  -10.1715  -10.7802 C   0  0  0  0  0  0  0  0  0  0  0  0
   15.1466  -11.5082  -10.4311 C   0  0  0  0  0  0  0  0  0  0  0  0
   14.3718  -11.6189   -9.4365 O   0  0  0  0  0  0  0  0  0  0  0  0
   15.6309   -7.7691  -10.4041 C   0  0  0  0  0  0  0  0  0  0  0  0
   15.6597   -7.3072  -11.5593 O   0  0  0  0  0  0  0  0  0  0  0  0
   15.5036  -12.6467  -11.1289 O   0  0  0  0  0  0  0  0  0  0  0  0
   16.9207   -4.8757   -8.4704 C   0  0  0  0  0  0  0  0  0  0  0  0
   16.9031   -5.7571   -9.7180 C   0  0  2  0  0  0  0  0  0  0  0  0
   16.2880   -7.0086   -9.3876 N   0  0  0  0  0  0  0  0  0  0  0  0
   18.3310   -5.9233  -10.1686 C   0  0  0  0  0  0  0  0  0  0  0  0
   19.0089   -6.8769   -9.7235 O   0  0  0  0  0  0  0  0  0  0  0  0
   20.7949  -10.7720  -15.1294 N   0  0  0  0  0  0  0  0  0  0  0  0
   22.0278  -10.3029  -14.5724 C   0  0  0  0  0  0  0  0  0  0  0  0
   23.0944  -11.0496  -14.5454 N   0  0  0  0  0  0  0  0  0  0  0  0
   22.0221   -8.9837  -14.0547 N   0  0  0  0  0  0  0  0  0  0  0  0
   20.8772   -8.1424  -14.3076 C   0  0  0  0  0  0  0  0  0  0  0  0
   21.0421   -6.7666  -13.6529 C   0  0  0  0  0  0  0  0  0  0  0  0
   19.9848   -6.5427  -12.6291 C   0  0  0  0  0  0  0  0  0  0  0  0
   20.0873   -5.2713  -11.8814 C   0  0  2  0  0  0  0  0  0  0  0  0
   18.9116   -5.0197  -11.0850 N   0  0  0  0  0  0  0  0  0  0  0  0
   20.4536   -4.0736  -12.6560 C   0  0  0  0  0  0  0  0  0  0  0  0
   19.5401   -3.3433  -13.0959 O   0  0  0  0  0  0  0  0  0  0  0  0
   21.7504   -3.6770  -12.9455 O   0  0  0  0  0  0  0  0  0  0  0  0
  2  1  1  6
  2  3  1  0
  3  4  1  0
  4  5  2  0
  4  8  1  0
  6  7  2  0
  6  2  1  0
 10  9  1  1
 10 12  1  0
 10 11  1  0
 11  6  1  0
 12 22  1  0
 13 12  2  0
 15 16  2  0
 15 14  1  0
 17 15  1  0
 18 17  1  0
 19 18  1  0
 21 20  1  6
 20 19  1  0
 22 21  1  0
 23 25  1  0
 23 21  1  0
 24 23  2  0
M  END
$$$$
