DAR.pdb
     RDKit          3D

 25 24  0  0  1  0  0  0  0  0999 V2000
   25.1213  -19.0124  -15.8015 N   0  0  0  0  0  0  0  0  0  0  0  0
   24.6815  -20.3526  -15.4048 C   0  0  1  0  0  0  0  0  0  0  0  0
   25.8262  -21.1175  -14.8177 C   0  0  0  0  0  0  0  0  0  0  0  0
   26.8024  -21.6034  -15.7891 C   0  0  0  0  0  0  0  0  0  0  0  0
   26.6174  -21.3134  -17.0070 O   0  0  0  0  0  0  0  0  0  0  0  0
   23.6418  -20.1602  -14.3431 C   0  0  0  0  0  0  0  0  0  0  0  0
   23.8530  -19.5738  -13.2660 O   0  0  0  0  0  0  0  0  0  0  0  0
   27.9069  -22.3590  -15.4433 O   0  0  0  0  0  0  0  0  0  0  0  0
   20.2294  -19.5369  -14.1981 C   0  0  0  0  0  0  0  0  0  0  0  0
   21.3013  -20.4308  -13.5773 C   0  0  2  0  0  0  0  0  0  0  0  0
   22.3227  -20.6691  -14.5540 N   0  0  0  0  0  0  0  0  0  0  0  0
   20.6238  -21.7023  -13.1369 C   0  0  0  0  0  0  0  0  0  0  0  0
   20.4914  -22.6425  -13.9527 O   0  0  0  0  0  0  0  0  0  0  0  0
   16.5377  -25.8763   -7.8201 N   0  0  0  0  0  0  0  0  0  0  0  0
   17.7923  -26.5194   -7.5695 C   0  0  0  0  0  0  0  0  0  0  0  0
   17.8733  -27.8015   -7.3560 N   0  0  0  0  0  0  0  0  0  0  0  0
   18.9375  -25.6847   -7.5680 N   0  0  0  0  0  0  0  0  0  0  0  0
   18.7681  -24.2714   -7.8060 C   0  0  0  0  0  0  0  0  0  0  0  0
   18.3841  -23.9947   -9.2636 C   0  0  0  0  0  0  0  0  0  0  0  0
   19.2670  -22.9490   -9.8493 C   0  0  0  0  0  0  0  0  0  0  0  0
   19.3701  -22.9615  -11.3242 C   0  0  2  0  0  0  0  0  0  0  0  0
   20.1387  -21.8458  -11.8189 N   0  0  0  0  0  0  0  0  0  0  0  0
   18.1112  -23.0964  -12.0762 C   0  0  0  0  0  0  0  0  0  0  0  0
   17.4816  -22.0606  -12.3795 O   0  0  0  0  0  0  0  0  0  0  0  0
   17.5519  -24.2973  -12.4860 O   0  0  0  0  0  0  0  0  0  0  0  0
  2  1  1  1
  2  3  1  0
  3  4  1  0
  4  5  2  0
  4  8  1  0
  6  7  2  0
  6  2  1  0
 10  9  1  6
 10 12  1  0
 10 11  1  0
 11  6  1  0
 12 22  1  0
 13 12  2  0
 15 16  2  0
 15 14  1  0
 17 15  1  0
 18 17  1  0
 19 18  1  0
 21 20  1  1
 20 19  1  0
 22 21  1  0
 23 25  1  0
 23 21  1  0
 24 23  2  0
M  END
$$$$
