DAR.pdb
     RDKit          3D

 25 24  0  0  1  0  0  0  0  0999 V2000
    9.9322  -10.6287  -14.8310 N   0  0  0  0  0  0  0  0  0  0  0  0
   10.9314  -10.4507  -13.7742 C   0  0  1  0  0  0  0  0  0  0  0  0
   11.7329  -11.7036  -13.6072 C   0  0  0  0  0  0  0  0  0  0  0  0
   11.0664  -12.7631  -12.8550 C   0  0  0  0  0  0  0  0  0  0  0  0
    9.9036  -12.5308  -12.4126 O   0  0  0  0  0  0  0  0  0  0  0  0
   11.8459   -9.3573  -14.2358 C   0  0  0  0  0  0  0  0  0  0  0  0
   12.3545   -9.3136  -15.3707 O   0  0  0  0  0  0  0  0  0  0  0  0
   11.6418  -13.9948  -12.6052 O   0  0  0  0  0  0  0  0  0  0  0  0
   12.9492   -6.0852  -12.7753 C   0  0  0  0  0  0  0  0  0  0  0  0
   13.0459   -7.2406  -13.7699 C   0  0  2  0  0  0  0  0  0  0  0  0
   12.1690   -8.2900  -13.3413 N   0  0  0  0  0  0  0  0  0  0  0  0
   14.4867   -7.6792  -13.8076 C   0  0  0  0  0  0  0  0  0  0  0  0
   14.7943   -8.8161  -13.3833 O   0  0  0  0  0  0  0  0  0  0  0  0
   19.0313  -12.7254  -17.1169 N   0  0  0  0  0  0  0  0  0  0  0  0
   20.1409  -11.8224  -17.0561 C   0  0  0  0  0  0  0  0  0  0  0  0
   21.3038  -12.1330  -17.5532 N   0  0  0  0  0  0  0  0  0  0  0  0
   19.9026  -10.5749  -16.4274 N   0  0  0  0  0  0  0  0  0  0  0  0
   18.5403  -10.1263  -16.2667 C   0  0  0  0  0  0  0  0  0  0  0  0
   18.4777   -8.8019  -15.4982 C   0  0  0  0  0  0  0  0  0  0  0  0
   17.0670   -8.4420  -15.1873 C   0  0  0  0  0  0  0  0  0  0  0  0
   16.8846   -7.1659  -14.4631 C   0  0  2  0  0  0  0  0  0  0  0  0
   15.4907   -6.8263  -14.3151 N   0  0  0  0  0  0  0  0  0  0  0  0
   17.6496   -6.0081  -14.9559 C   0  0  0  0  0  0  0  0  0  0  0  0
   18.8974   -6.0738  -14.9608 O   0  0  0  0  0  0  0  0  0  0  0  0
   17.0948   -4.8270  -15.4250 O   0  0  0  0  0  0  0  0  0  0  0  0
  2  1  1  6
  2  3  1  0
  3  4  1  0
  4  5  2  0
  4  8  1  0
  6  7  2  0
  6  2  1  0
 10  9  1  1
 10 12  1  0
 10 11  1  0
 11  6  1  0
 12 22  1  0
 13 12  2  0
 15 16  2  0
 15 14  1  0
 17 15  1  0
 18 17  1  0
 19 18  1  0
 21 20  1  6
 20 19  1  0
 22 21  1  0
 23 25  1  0
 23 21  1  0
 24 23  2  0
M  END
$$$$
