DAR.pdb
     RDKit          3D

 25 24  0  0  1  0  0  0  0  0999 V2000
   18.5613  -14.3830  -15.3000 N   0  0  0  0  0  0  0  0  0  0  0  0
   17.7966  -13.2929  -15.9115 C   0  0  1  0  0  0  0  0  0  0  0  0
   16.3325  -13.4956  -15.6756 C   0  0  0  0  0  0  0  0  0  0  0  0
   15.7438  -14.6187  -16.4000 C   0  0  0  0  0  0  0  0  0  0  0  0
   14.8084  -15.2588  -15.8368 O   0  0  0  0  0  0  0  0  0  0  0  0
   18.2220  -12.0353  -15.2168 C   0  0  0  0  0  0  0  0  0  0  0  0
   18.0949  -11.8435  -13.9938 O   0  0  0  0  0  0  0  0  0  0  0  0
   16.1579  -15.0117  -17.6588 O   0  0  0  0  0  0  0  0  0  0  0  0
   20.1136   -8.9825  -16.3074 C   0  0  0  0  0  0  0  0  0  0  0  0
   19.2899   -9.8021  -15.3158 C   0  0  2  0  0  0  0  0  0  0  0  0
   18.8115  -10.9792  -15.9787 N   0  0  0  0  0  0  0  0  0  0  0  0
   18.1669   -8.9222  -14.8319 C   0  0  0  0  0  0  0  0  0  0  0  0
   17.1043   -8.8635  -15.4912 O   0  0  0  0  0  0  0  0  0  0  0  0
   15.0030   -7.1737   -6.7252 N   0  0  0  0  0  0  0  0  0  0  0  0
   14.1035   -6.8657   -7.7960 C   0  0  0  0  0  0  0  0  0  0  0  0
   12.8143   -6.9953   -7.6651 N   0  0  0  0  0  0  0  0  0  0  0  0
   14.6934   -6.4123   -9.0020 N   0  0  0  0  0  0  0  0  0  0  0  0
   15.6343   -7.2702   -9.6813 C   0  0  0  0  0  0  0  0  0  0  0  0
   16.2048   -6.5909  -10.9311 C   0  0  0  0  0  0  0  0  0  0  0  0
   17.1876   -7.4802  -11.6090 C   0  0  0  0  0  0  0  0  0  0  0  0
   17.2809   -7.3179  -13.0757 C   0  0  2  0  0  0  0  0  0  0  0  0
   18.2978   -8.1662  -13.6468 N   0  0  0  0  0  0  0  0  0  0  0  0
   17.4095   -5.9419  -13.5842 C   0  0  0  0  0  0  0  0  0  0  0  0
   18.5494   -5.5092  -13.8575 O   0  0  0  0  0  0  0  0  0  0  0  0
   16.3542   -5.0663  -13.7909 O   0  0  0  0  0  0  0  0  0  0  0  0
  2  1  1  1
  2  3  1  0
  3  4  1  0
  4  5  2  0
  4  8  1  0
  6  7  2  0
  6  2  1  0
 10  9  1  6
 10 12  1  0
 10 11  1  0
 11  6  1  0
 12 22  1  0
 13 12  2  0
 15 16  2  0
 15 14  1  0
 17 15  1  0
 18 17  1  0
 19 18  1  0
 21 20  1  1
 20 19  1  0
 22 21  1  0
 23 25  1  0
 23 21  1  0
 24 23  2  0
M  END
$$$$
