PKM.pdb
     RDKit          3D

 25 25  0  0  1  0  0  0  0  0999 V2000
   28.0221  -20.7626  -15.2968 N   0  0  0  0  0  0  0  0  0  0  0  0
   27.5231  -19.8275  -16.2546 C   0  0  0  0  0  0  0  0  0  0  0  0
   27.7640  -18.4339  -15.6603 C   0  0  0  0  0  0  0  0  0  0  0  0
   29.0045  -18.7444  -14.8102 C   0  0  0  0  0  0  0  0  0  0  0  0
   28.5424  -20.0335  -14.1631 C   0  0  1  0  0  0  0  0  0  0  0  0
   27.3908  -19.7119  -13.2476 C   0  0  0  0  0  0  0  0  0  0  0  0
   27.2830  -18.5916  -12.6833 O   0  0  0  0  0  0  0  0  0  0  0  0
   26.3690  -20.6621  -12.9777 N   0  0  0  0  0  0  0  0  0  0  0  0
   25.2963  -20.4394  -12.0326 C   0  0  1  0  0  0  0  0  0  0  0  0
   23.9858  -20.9509  -12.5351 C   0  0  0  0  0  0  0  0  0  0  0  0
   23.5695  -20.2166  -13.8122 C   0  0  0  0  0  0  0  0  0  0  0  0
   22.2761  -19.5037  -13.4700 C   0  0  0  0  0  0  0  0  0  0  0  0
   21.7119  -18.7440  -14.6425 C   0  0  0  0  0  0  0  0  0  0  0  0
   21.7923  -19.6549  -15.7928 N   0  0  0  0  0  0  0  0  0  0  0  0
   25.7124  -20.9098  -10.7266 C   0  0  0  0  0  0  0  0  0  0  0  0
   26.1105  -22.0987  -10.6165 O   0  0  0  0  0  0  0  0  0  0  0  0
   29.5005  -19.2027   -5.4256 C   0  0  0  0  0  0  0  0  0  0  0  0
   27.8079  -19.4065   -4.8520 S   0  0  0  0  0  0  0  0  0  0  0  0
   26.9032  -20.4678   -5.9827 C   0  0  0  0  0  0  0  0  0  0  0  0
   26.7380  -19.8236   -7.3393 C   0  0  0  0  0  0  0  0  0  0  0  0
   25.9812  -20.7430   -8.2784 C   0  0  2  0  0  0  0  0  0  0  0  0
   25.7097  -20.1320   -9.5402 N   0  0  0  0  0  0  0  0  0  0  0  0
   24.6850  -21.1444   -7.6597 C   0  0  0  0  0  0  0  0  0  0  0  0
   24.6579  -22.0322   -6.6132 O   0  0  0  0  0  0  0  0  0  0  0  0
   23.6181  -20.6396   -8.1320 O   0  0  0  0  0  0  0  0  0  0  0  0
  1  5  1  0
  1  2  1  0
  2  3  1  0
  4  3  1  0
  5  4  1  0
  5  6  1  1
  7  6  2  0
  8  6  1  0
  9  8  1  0
  9 10  1  6
 10 11  1  0
 11 12  1  0
 12 13  1  0
 13 14  1  0
 15 22  1  0
 15  9  1  0
 16 15  2  0
 18 17  1  0
 19 18  1  0
 21 20  1  1
 20 19  1  0
 21 23  1  0
 21 22  1  0
 23 24  1  0
 25 23  2  0
M  END
$$$$
