PKM.pdb
     RDKit          3D

 25 25  0  0  1  0  0  0  0  0999 V2000
   16.4990  -25.7030   -5.3257 N   0  0  0  0  0  0  0  0  0  0  0  0
   17.7387  -26.0220   -4.6918 C   0  0  0  0  0  0  0  0  0  0  0  0
   17.3981  -26.3865   -3.2410 C   0  0  0  0  0  0  0  0  0  0  0  0
   15.9777  -26.9290   -3.4548 C   0  0  0  0  0  0  0  0  0  0  0  0
   15.4337  -25.8431   -4.3598 C   0  0  1  0  0  0  0  0  0  0  0  0
   15.3546  -24.5665   -3.5650 C   0  0  0  0  0  0  0  0  0  0  0  0
   16.3530  -23.8146   -3.4139 O   0  0  0  0  0  0  0  0  0  0  0  0
   14.1445  -24.1505   -2.9466 N   0  0  0  0  0  0  0  0  0  0  0  0
   13.9306  -22.8214   -2.4164 C   0  0  1  0  0  0  0  0  0  0  0  0
   12.5427  -22.3296   -2.6682 C   0  0  0  0  0  0  0  0  0  0  0  0
   12.4542  -21.6229   -4.0233 C   0  0  0  0  0  0  0  0  0  0  0  0
   11.0230  -21.1361   -4.1371 C   0  0  0  0  0  0  0  0  0  0  0  0
   10.7569  -20.4367   -5.4449 C   0  0  0  0  0  0  0  0  0  0  0  0
    9.3580  -19.9904   -5.3891 N   0  0  0  0  0  0  0  0  0  0  0  0
   14.3874  -22.7823   -1.0417 C   0  0  0  0  0  0  0  0  0  0  0  0
   14.5627  -23.8722   -0.4371 O   0  0  0  0  0  0  0  0  0  0  0  0
   17.7787  -18.1413    2.0037 C   0  0  0  0  0  0  0  0  0  0  0  0
   17.2310  -19.0872    3.4323 S   0  0  0  0  0  0  0  0  0  0  0  0
   16.3631  -20.5629    2.8918 C   0  0  0  0  0  0  0  0  0  0  0  0
   15.9218  -20.4531    1.4510 C   0  0  0  0  0  0  0  0  0  0  0  0
   15.1370  -21.6832    1.0377 C   0  0  2  0  0  0  0  0  0  0  0  0
   14.6589  -21.6006   -0.3053 N   0  0  0  0  0  0  0  0  0  0  0  0
   13.9675  -21.8670    1.9446 C   0  0  0  0  0  0  0  0  0  0  0  0
   14.1154  -22.5031    3.1519 O   0  0  0  0  0  0  0  0  0  0  0  0
   12.8412  -21.4178    1.5626 O   0  0  0  0  0  0  0  0  0  0  0  0
  1  5  1  0
  1  2  1  0
  2  3  1  0
  4  3  1  0
  5  4  1  0
  5  6  1  1
  7  6  2  0
  8  6  1  0
  9  8  1  0
  9 10  1  1
 10 11  1  0
 11 12  1  0
 12 13  1  0
 13 14  1  0
 15 22  1  0
 15  9  1  0
 16 15  2  0
 18 17  1  0
 19 18  1  0
 21 20  1  1
 20 19  1  0
 21 23  1  0
 21 22  1  0
 23 24  1  0
 25 23  2  0
M  END
$$$$
