PKM.pdb
     RDKit          3D

 25 25  0  0  1  0  0  0  0  0999 V2000
   28.2115  -18.6597  -17.5343 N   0  0  0  0  0  0  0  0  0  0  0  0
   27.3690  -18.5872  -18.6856 C   0  0  0  0  0  0  0  0  0  0  0  0
   26.1581  -17.7376  -18.2790 C   0  0  0  0  0  0  0  0  0  0  0  0
   26.8279  -16.8543  -17.2166 C   0  0  0  0  0  0  0  0  0  0  0  0
   27.5932  -17.9192  -16.4588 C   0  0  1  0  0  0  0  0  0  0  0  0
   26.5953  -18.8230  -15.7842 C   0  0  0  0  0  0  0  0  0  0  0  0
   26.0400  -19.7734  -16.3952 O   0  0  0  0  0  0  0  0  0  0  0  0
   26.2335  -18.6438  -14.4216 N   0  0  0  0  0  0  0  0  0  0  0  0
   25.4075  -19.5737  -13.6822 C   0  0  1  0  0  0  0  0  0  0  0  0
   25.6507  -19.4979  -12.2103 C   0  0  0  0  0  0  0  0  0  0  0  0
   24.7570  -20.4889  -11.4601 C   0  0  0  0  0  0  0  0  0  0  0  0
   25.0359  -20.2568   -9.9882 C   0  0  0  0  0  0  0  0  0  0  0  0
   24.2355  -21.1744   -9.1007 C   0  0  0  0  0  0  0  0  0  0  0  0
   24.6735  -20.8938   -7.7265 N   0  0  0  0  0  0  0  0  0  0  0  0
   24.0320  -19.4310  -14.1152 C   0  0  0  0  0  0  0  0  0  0  0  0
   23.5710  -18.2707  -14.2745 O   0  0  0  0  0  0  0  0  0  0  0  0
   20.4928  -22.7928  -18.3187 C   0  0  0  0  0  0  0  0  0  0  0  0
   19.3422  -22.7679  -16.9364 S   0  0  0  0  0  0  0  0  0  0  0  0
   19.9207  -21.6229  -15.6804 C   0  0  0  0  0  0  0  0  0  0  0  0
   21.3683  -21.2469  -15.8940 C   0  0  0  0  0  0  0  0  0  0  0  0
   21.8202  -20.2463  -14.8478 C   0  0  2  0  0  0  0  0  0  0  0  0
   23.1442  -20.5053  -14.3798 N   0  0  0  0  0  0  0  0  0  0  0  0
   20.8923  -20.2790  -13.6808 C   0  0  0  0  0  0  0  0  0  0  0  0
   21.1922  -21.0319  -12.5730 O   0  0  0  0  0  0  0  0  0  0  0  0
   19.8251  -19.5914  -13.7491 O   0  0  0  0  0  0  0  0  0  0  0  0
  1  5  1  0
  1  2  1  0
  2  3  1  0
  4  3  1  0
  5  4  1  0
  5  6  1  6
  7  6  2  0
  8  6  1  0
  9  8  1  0
  9 10  1  1
 10 11  1  0
 11 12  1  0
 12 13  1  0
 13 14  1  0
 15 22  1  0
 15  9  1  0
 16 15  2  0
 18 17  1  0
 19 18  1  0
 21 20  1  6
 20 19  1  0
 21 23  1  0
 21 22  1  0
 23 24  1  0
 25 23  2  0
M  END
$$$$
