PKM.pdb
     RDKit          3D

 25 25  0  0  1  0  0  0  0  0999 V2000
   26.8638  -18.2840  -17.1714 N   0  0  0  0  0  0  0  0  0  0  0  0
   26.5373  -17.4297  -16.0741 C   0  0  0  0  0  0  0  0  0  0  0  0
   27.5767  -17.7161  -14.9827 C   0  0  0  0  0  0  0  0  0  0  0  0
   28.7533  -18.1390  -15.8739 C   0  0  0  0  0  0  0  0  0  0  0  0
   28.0232  -19.0707  -16.8188 C   0  0  1  0  0  0  0  0  0  0  0  0
   27.5538  -20.2647  -16.0303 C   0  0  0  0  0  0  0  0  0  0  0  0
   28.3271  -20.9057  -15.2712 O   0  0  0  0  0  0  0  0  0  0  0  0
   26.2112  -20.7243  -16.1073 N   0  0  0  0  0  0  0  0  0  0  0  0
   25.6980  -21.8342  -15.3338 C   0  0  1  0  0  0  0  0  0  0  0  0
   25.9849  -23.1514  -15.9772 C   0  0  0  0  0  0  0  0  0  0  0  0
   25.3596  -24.2957  -15.1752 C   0  0  0  0  0  0  0  0  0  0  0  0
   23.8629  -24.0603  -15.2273 C   0  0  0  0  0  0  0  0  0  0  0  0
   23.0909  -25.1027  -14.4606 C   0  0  0  0  0  0  0  0  0  0  0  0
   21.6704  -24.8163  -14.7038 N   0  0  0  0  0  0  0  0  0  0  0  0
   26.1215  -21.6854  -13.9560 C   0  0  0  0  0  0  0  0  0  0  0  0
   27.1714  -22.2722  -13.5848 O   0  0  0  0  0  0  0  0  0  0  0  0
   29.5977  -20.9067   -9.3797 C   0  0  0  0  0  0  0  0  0  0  0  0
   28.1092  -20.3114   -8.5640 S   0  0  0  0  0  0  0  0  0  0  0  0
   26.6558  -20.9429   -9.4079 C   0  0  0  0  0  0  0  0  0  0  0  0
   26.7172  -20.6807  -10.8945 C   0  0  0  0  0  0  0  0  0  0  0  0
   25.5190  -21.2922  -11.5946 C   0  0  2  0  0  0  0  0  0  0  0  0
   25.4429  -20.9219  -12.9716 N   0  0  0  0  0  0  0  0  0  0  0  0
   24.2618  -20.8595  -10.9192 C   0  0  0  0  0  0  0  0  0  0  0  0
   23.3766  -20.0293  -11.5605 O   0  0  0  0  0  0  0  0  0  0  0  0
   24.0426  -21.2832   -9.7408 O   0  0  0  0  0  0  0  0  0  0  0  0
  1  5  1  0
  1  2  1  0
  2  3  1  0
  4  3  1  0
  5  4  1  0
  5  6  1  1
  7  6  2  0
  8  6  1  0
  9  8  1  0
  9 10  1  6
 10 11  1  0
 11 12  1  0
 12 13  1  0
 13 14  1  0
 15 22  1  0
 15  9  1  0
 16 15  2  0
 18 17  1  0
 19 18  1  0
 21 20  1  1
 20 19  1  0
 21 23  1  0
 21 22  1  0
 23 24  1  0
 25 23  2  0
M  END
$$$$
