PKM.pdb
     RDKit          3D

 25 25  0  0  1  0  0  0  0  0999 V2000
   27.7414  -19.7416  -15.8388 N   0  0  0  0  0  0  0  0  0  0  0  0
   26.8333  -18.9686  -16.6252 C   0  0  0  0  0  0  0  0  0  0  0  0
   26.7517  -17.5903  -15.9566 C   0  0  0  0  0  0  0  0  0  0  0  0
   28.1549  -17.5392  -15.3353 C   0  0  0  0  0  0  0  0  0  0  0  0
   28.2102  -18.9304  -14.7390 C   0  0  1  0  0  0  0  0  0  0  0  0
   27.1893  -19.0079  -13.6346 C   0  0  0  0  0  0  0  0  0  0  0  0
   27.0852  -18.1071  -12.7612 O   0  0  0  0  0  0  0  0  0  0  0  0
   26.2934  -20.1059  -13.5272 N   0  0  0  0  0  0  0  0  0  0  0  0
   25.3116  -20.2396  -12.4729 C   0  0  1  0  0  0  0  0  0  0  0  0
   24.1072  -21.0039  -12.9165 C   0  0  0  0  0  0  0  0  0  0  0  0
   22.9509  -20.0549  -13.2421 C   0  0  0  0  0  0  0  0  0  0  0  0
   23.1198  -19.6924  -14.7044 C   0  0  0  0  0  0  0  0  0  0  0  0
   22.1229  -18.6576  -15.1579 C   0  0  0  0  0  0  0  0  0  0  0  0
   22.3982  -18.4258  -16.5826 N   0  0  0  0  0  0  0  0  0  0  0  0
   25.9694  -20.7155  -11.2726 C   0  0  0  0  0  0  0  0  0  0  0  0
   26.6026  -21.8020  -11.3267 O   0  0  0  0  0  0  0  0  0  0  0  0
   28.3816  -17.9995   -5.9647 C   0  0  0  0  0  0  0  0  0  0  0  0
   28.2274  -19.6888   -5.3663 S   0  0  0  0  0  0  0  0  0  0  0  0
   27.3572  -20.6888   -6.5771 C   0  0  0  0  0  0  0  0  0  0  0  0
   27.0226  -19.8948   -7.8181 C   0  0  0  0  0  0  0  0  0  0  0  0
   26.2919  -20.7613   -8.8257 C   0  0  2  0  0  0  0  0  0  0  0  0
   25.9613  -20.0508  -10.0194 N   0  0  0  0  0  0  0  0  0  0  0  0
   25.0321  -21.2857   -8.2242 C   0  0  0  0  0  0  0  0  0  0  0  0
   25.0713  -22.2952   -7.2949 O   0  0  0  0  0  0  0  0  0  0  0  0
   23.9328  -20.7691   -8.5997 O   0  0  0  0  0  0  0  0  0  0  0  0
  1  5  1  0
  1  2  1  0
  2  3  1  0
  4  3  1  0
  5  4  1  0
  5  6  1  1
  7  6  2  0
  8  6  1  0
  9  8  1  0
  9 10  1  6
 10 11  1  0
 11 12  1  0
 12 13  1  0
 13 14  1  0
 15 22  1  0
 15  9  1  0
 16 15  2  0
 18 17  1  0
 19 18  1  0
 21 20  1  1
 20 19  1  0
 21 23  1  0
 21 22  1  0
 23 24  1  0
 25 23  2  0
M  END
$$$$
