PKM.pdb
     RDKit          3D

 25 25  0  0  1  0  0  0  0  0999 V2000
   27.6655  -19.9914  -16.2330 N   0  0  0  0  0  0  0  0  0  0  0  0
   27.5494  -18.6462  -16.6994 C   0  0  0  0  0  0  0  0  0  0  0  0
   28.1077  -17.7546  -15.5828 C   0  0  0  0  0  0  0  0  0  0  0  0
   29.1172  -18.7364  -14.9709 C   0  0  0  0  0  0  0  0  0  0  0  0
   28.2490  -19.9760  -14.9113 C   0  0  1  0  0  0  0  0  0  0  0  0
   27.1451  -19.7278  -13.9175 C   0  0  0  0  0  0  0  0  0  0  0  0
   27.0521  -18.6436  -13.2843 O   0  0  0  0  0  0  0  0  0  0  0  0
   26.1540  -20.7100  -13.6479 N   0  0  0  0  0  0  0  0  0  0  0  0
   25.0718  -20.5198  -12.7064 C   0  0  1  0  0  0  0  0  0  0  0  0
   23.7850  -21.0947  -13.2016 C   0  0  0  0  0  0  0  0  0  0  0  0
   22.6553  -20.8408  -12.2002 C   0  0  0  0  0  0  0  0  0  0  0  0
   21.4144  -21.4511  -12.8214 C   0  0  0  0  0  0  0  0  0  0  0  0
   20.1897  -21.2578  -11.9653 C   0  0  0  0  0  0  0  0  0  0  0  0
   19.0659  -21.8107  -12.7338 N   0  0  0  0  0  0  0  0  0  0  0  0
   25.5066  -20.9523  -11.3935 C   0  0  0  0  0  0  0  0  0  0  0  0
   25.9933  -22.1068  -11.2735 O   0  0  0  0  0  0  0  0  0  0  0  0
   29.2885  -18.9330   -6.5352 C   0  0  0  0  0  0  0  0  0  0  0  0
   27.7964  -19.4247   -5.6593 S   0  0  0  0  0  0  0  0  0  0  0  0
   26.7884  -20.4742   -6.7109 C   0  0  0  0  0  0  0  0  0  0  0  0
   26.6218  -19.8835   -8.0914 C   0  0  0  0  0  0  0  0  0  0  0  0
   25.7223  -20.7595   -8.9420 C   0  0  2  0  0  0  0  0  0  0  0  0
   25.4296  -20.1730  -10.2107 N   0  0  0  0  0  0  0  0  0  0  0  0
   24.4364  -21.0091   -8.2293 C   0  0  0  0  0  0  0  0  0  0  0  0
   24.3963  -21.8334   -7.1325 O   0  0  0  0  0  0  0  0  0  0  0  0
   23.3904  -20.4366   -8.6701 O   0  0  0  0  0  0  0  0  0  0  0  0
  1  5  1  0
  1  2  1  0
  2  3  1  0
  4  3  1  0
  5  4  1  0
  5  6  1  1
  7  6  2  0
  8  6  1  0
  9  8  1  0
  9 10  1  6
 10 11  1  0
 11 12  1  0
 12 13  1  0
 13 14  1  0
 15 22  1  0
 15  9  1  0
 16 15  2  0
 18 17  1  0
 19 18  1  0
 21 20  1  1
 20 19  1  0
 21 23  1  0
 21 22  1  0
 23 24  1  0
 25 23  2  0
M  END
$$$$
