NSR.pdb
     RDKit          3D

 26 25  0  0  1  0  0  0  0  0999 V2000
    7.1712  -13.8564   14.8114 N   0  0  0  0  0  0  0  0  0  0  0  0
    8.3226  -14.2196   15.5385 C   0  0  0  0  0  0  0  0  0  0  0  0
    9.2536  -14.8484   14.9552 O   0  0  0  0  0  0  0  0  0  0  0  0
    8.5403  -13.9140   16.9830 C   0  0  0  0  0  0  0  0  0  0  0  0
    8.6767  -15.1790   17.7833 C   0  0  2  0  0  0  0  0  0  0  0  0
    7.5219  -16.0188   17.5947 N   0  0  0  0  0  0  0  0  0  0  0  0
    8.9036  -14.8472   19.2089 C   0  0  0  0  0  0  0  0  0  0  0  0
    9.9795  -14.2765   19.5172 O   0  0  0  0  0  0  0  0  0  0  0  0
    6.3543  -16.1573   22.3556 O   0  0  0  0  0  0  0  0  0  0  0  0
    7.0444  -14.9332   22.4569 C   0  0  0  0  0  0  0  0  0  0  0  0
    8.3035  -14.9647   21.6555 C   0  0  2  0  0  0  0  0  0  0  0  0
    7.9833  -15.1323   20.2524 N   0  0  0  0  0  0  0  0  0  0  0  0
    9.2615  -15.9972   22.1261 C   0  0  0  0  0  0  0  0  0  0  0  0
    9.4206  -17.0319   21.4292 O   0  0  0  0  0  0  0  0  0  0  0  0
   17.2677  -14.7836   22.5970 N   0  0  0  0  0  0  0  0  0  0  0  0
   17.2808  -16.1373   23.0334 C   0  0  0  0  0  0  0  0  0  0  0  0
   18.3739  -16.8100   23.1443 N   0  0  0  0  0  0  0  0  0  0  0  0
   16.0176  -16.7290   23.3479 N   0  0  0  0  0  0  0  0  0  0  0  0
   14.8026  -16.0033   23.1543 C   0  0  0  0  0  0  0  0  0  0  0  0
   13.5979  -16.8270   23.6376 C   0  0  0  0  0  0  0  0  0  0  0  0
   12.3565  -16.0602   23.3062 C   0  0  0  0  0  0  0  0  0  0  0  0
   11.0794  -16.7567   23.7214 C   0  0  2  0  0  0  0  0  0  0  0  0
    9.9981  -15.8670   23.3169 N   0  0  0  0  0  0  0  0  0  0  0  0
   11.0165  -17.0144   25.1816 C   0  0  0  0  0  0  0  0  0  0  0  0
   10.2848  -16.2923   25.9335 O   0  0  0  0  0  0  0  0  0  0  0  0
   11.7196  -18.0210   25.8190 O   0  0  0  0  0  0  0  0  0  0  0  0
  1  2  1  0
  2  3  2  0
  4  5  1  0
  4  2  1  0
  5  6  1  1
  7  5  1  0
  8  7  2  0
  9 10  1  0
 11 10  1  1
 11 13  1  0
 11 12  1  0
 12  7  1  0
 13 14  2  0
 16 15  1  0
 16 17  2  0
 18 16  1  0
 19 18  1  0
 20 19  1  0
 21 20  1  0
 22 21  1  1
 23 22  1  0
 23 13  1  0
 24 22  1  0
 24 26  1  0
 25 24  2  0
M  END
$$$$
