NSR.pdb
     RDKit          3D

 26 25  0  0  1  0  0  0  0  0999 V2000
   11.4583  -16.5919   13.3485 N   0  0  0  0  0  0  0  0  0  0  0  0
   10.5600  -15.5430   13.6298 C   0  0  0  0  0  0  0  0  0  0  0  0
    9.7766  -15.1353   12.7230 O   0  0  0  0  0  0  0  0  0  0  0  0
   10.4538  -14.8534   14.9491 C   0  0  0  0  0  0  0  0  0  0  0  0
    9.4851  -15.5671   15.8499 C   0  0  2  0  0  0  0  0  0  0  0  0
    8.1475  -15.4708   15.3247 N   0  0  0  0  0  0  0  0  0  0  0  0
    9.5893  -15.0265   17.2251 C   0  0  0  0  0  0  0  0  0  0  0  0
   10.6717  -15.1886   17.8416 O   0  0  0  0  0  0  0  0  0  0  0  0
    6.2322  -13.8866   19.6548 O   0  0  0  0  0  0  0  0  0  0  0  0
    7.4265  -13.1392   19.6547 C   0  0  0  0  0  0  0  0  0  0  0  0
    8.5933  -14.0014   19.3027 C   0  0  2  0  0  0  0  0  0  0  0  0
    8.5439  -14.3358   17.8938 N   0  0  0  0  0  0  0  0  0  0  0  0
    8.6898  -15.2164   20.1512 C   0  0  0  0  0  0  0  0  0  0  0  0
    8.4173  -16.3315   19.6376 O   0  0  0  0  0  0  0  0  0  0  0  0
   14.1783  -19.2936   19.3258 N   0  0  0  0  0  0  0  0  0  0  0  0
   14.6295  -19.4124   20.6696 C   0  0  0  0  0  0  0  0  0  0  0  0
   15.3567  -20.4006   21.0624 N   0  0  0  0  0  0  0  0  0  0  0  0
   14.2392  -18.3793   21.5779 N   0  0  0  0  0  0  0  0  0  0  0  0
   13.3536  -17.3382   21.1633 C   0  0  0  0  0  0  0  0  0  0  0  0
   12.0710  -17.3498   22.0106 C   0  0  0  0  0  0  0  0  0  0  0  0
   11.1510  -16.3044   21.4630 C   0  0  0  0  0  0  0  0  0  0  0  0
    9.8237  -16.2209   22.1839 C   0  0  2  0  0  0  0  0  0  0  0  0
    9.0732  -15.1730   21.5035 N   0  0  0  0  0  0  0  0  0  0  0  0
    9.9738  -15.8957   23.6241 C   0  0  0  0  0  0  0  0  0  0  0  0
    9.5196  -16.6847   24.5147 O   0  0  0  0  0  0  0  0  0  0  0  0
   10.5958  -14.7540   24.0972 O   0  0  0  0  0  0  0  0  0  0  0  0
  1  2  1  0
  2  3  2  0
  4  5  1  0
  4  2  1  0
  5  6  1  6
  7  5  1  0
  8  7  2  0
  9 10  1  0
 11 10  1  1
 11 13  1  0
 11 12  1  0
 12  7  1  0
 13 14  2  0
 16 15  1  0
 16 17  2  0
 18 16  1  0
 19 18  1  0
 20 19  1  0
 21 20  1  0
 22 21  1  6
 23 22  1  0
 23 13  1  0
 24 22  1  0
 24 26  1  0
 25 24  2  0
M  END
$$$$
