NSR.pdb
     RDKit          3D

 26 25  0  0  1  0  0  0  0  0999 V2000
    8.5061  -17.2856   14.3669 N   0  0  0  0  0  0  0  0  0  0  0  0
    8.6380  -15.8997   14.5866 C   0  0  0  0  0  0  0  0  0  0  0  0
    8.7278  -15.1187   13.5945 O   0  0  0  0  0  0  0  0  0  0  0  0
    8.6817  -15.2589   15.9337 C   0  0  0  0  0  0  0  0  0  0  0  0
    8.7036  -16.2973   17.0202 C   0  0  2  0  0  0  0  0  0  0  0  0
    7.4953  -17.0807   16.9897 N   0  0  0  0  0  0  0  0  0  0  0  0
    8.9169  -15.6441   18.3324 C   0  0  0  0  0  0  0  0  0  0  0  0
   10.0301  -15.1030   18.5473 O   0  0  0  0  0  0  0  0  0  0  0  0
    6.3156  -16.2021   21.6403 O   0  0  0  0  0  0  0  0  0  0  0  0
    6.9754  -14.9680   21.4768 C   0  0  0  0  0  0  0  0  0  0  0  0
    8.2447  -15.1411   20.7104 C   0  0  2  0  0  0  0  0  0  0  0  0
    7.9441  -15.5893   19.3657 N   0  0  0  0  0  0  0  0  0  0  0  0
    9.2086  -16.0460   21.3869 C   0  0  0  0  0  0  0  0  0  0  0  0
    9.2087  -17.2646   21.0765 O   0  0  0  0  0  0  0  0  0  0  0  0
   16.5903  -13.7141   20.9794 N   0  0  0  0  0  0  0  0  0  0  0  0
   15.7591  -14.0155   19.8651 C   0  0  0  0  0  0  0  0  0  0  0  0
   16.0976  -13.7172   18.6584 N   0  0  0  0  0  0  0  0  0  0  0  0
   14.5182  -14.6703   20.1408 N   0  0  0  0  0  0  0  0  0  0  0  0
   14.1478  -14.9996   21.4803 C   0  0  0  0  0  0  0  0  0  0  0  0
   12.7778  -15.6964   21.5069 C   0  0  0  0  0  0  0  0  0  0  0  0
   12.3950  -15.8995   22.9391 C   0  0  0  0  0  0  0  0  0  0  0  0
   11.0051  -16.4671   23.1251 C   0  0  2  0  0  0  0  0  0  0  0  0
   10.1208  -15.5980   22.3589 N   0  0  0  0  0  0  0  0  0  0  0  0
   10.5870  -16.5025   24.5487 C   0  0  0  0  0  0  0  0  0  0  0  0
   11.1606  -17.2884   25.3705 O   0  0  0  0  0  0  0  0  0  0  0  0
    9.5801  -15.7147   25.0776 O   0  0  0  0  0  0  0  0  0  0  0  0
  1  2  1  0
  2  3  2  0
  4  5  1  0
  4  2  1  0
  5  6  1  1
  7  5  1  0
  8  7  2  0
  9 10  1  0
 11 10  1  1
 11 13  1  0
 11 12  1  0
 12  7  1  0
 13 14  2  0
 16 15  1  0
 16 17  2  0
 18 16  1  0
 19 18  1  0
 20 19  1  0
 21 20  1  0
 22 21  1  1
 23 22  1  0
 23 13  1  0
 24 22  1  0
 24 26  1  0
 25 24  2  0
M  END
$$$$
