NSR.pdb
     RDKit          3D

 26 25  0  0  1  0  0  0  0  0999 V2000
    8.4867  -18.4701   12.2662 N   0  0  0  0  0  0  0  0  0  0  0  0
    8.1321  -17.9624   13.5322 C   0  0  0  0  0  0  0  0  0  0  0  0
    7.0384  -18.3185   14.0607 O   0  0  0  0  0  0  0  0  0  0  0  0
    8.9659  -17.0112   14.3242 C   0  0  0  0  0  0  0  0  0  0  0  0
    8.1967  -15.7587   14.6387 C   0  0  2  0  0  0  0  0  0  0  0  0
    8.0024  -14.9764   13.4451 N   0  0  0  0  0  0  0  0  0  0  0  0
    8.8925  -14.9980   15.7023 C   0  0  0  0  0  0  0  0  0  0  0  0
   10.0005  -14.4753   15.4242 O   0  0  0  0  0  0  0  0  0  0  0  0
    7.6125  -14.9255   19.7473 O   0  0  0  0  0  0  0  0  0  0  0  0
    8.2265  -13.7893   19.1842 C   0  0  0  0  0  0  0  0  0  0  0  0
    9.1452  -14.1771   18.0733 C   0  0  2  0  0  0  0  0  0  0  0  0
    8.3888  -14.8206   17.0183 N   0  0  0  0  0  0  0  0  0  0  0  0
   10.2778  -15.0225   18.5295 C   0  0  0  0  0  0  0  0  0  0  0  0
   10.2038  -16.2669   18.3640 O   0  0  0  0  0  0  0  0  0  0  0  0
   17.8352  -12.4898   17.1083 N   0  0  0  0  0  0  0  0  0  0  0  0
   17.7579  -13.7088   17.8372 C   0  0  0  0  0  0  0  0  0  0  0  0
   18.8074  -14.3025   18.2909 N   0  0  0  0  0  0  0  0  0  0  0  0
   16.4538  -14.2556   18.0490 N   0  0  0  0  0  0  0  0  0  0  0  0
   15.2954  -13.6073   17.5218 C   0  0  0  0  0  0  0  0  0  0  0  0
   14.0410  -14.4635   17.7597 C   0  0  0  0  0  0  0  0  0  0  0  0
   13.7930  -14.5126   19.2345 C   0  0  0  0  0  0  0  0  0  0  0  0
   12.5513  -15.2860   19.6195 C   0  0  2  0  0  0  0  0  0  0  0  0
   11.4289  -14.4908   19.1377 N   0  0  0  0  0  0  0  0  0  0  0  0
   12.4410  -15.4998   21.0840 C   0  0  0  0  0  0  0  0  0  0  0  0
   11.6332  -14.8025   21.7790 O   0  0  0  0  0  0  0  0  0  0  0  0
   13.1778  -16.4378   21.7850 O   0  0  0  0  0  0  0  0  0  0  0  0
  1  2  1  0
  2  3  2  0
  4  5  1  0
  4  2  1  0
  5  6  1  6
  7  5  1  0
  8  7  2  0
  9 10  1  0
 11 10  1  1
 11 13  1  0
 11 12  1  0
 12  7  1  0
 13 14  2  0
 16 15  1  0
 16 17  2  0
 18 16  1  0
 19 18  1  0
 20 19  1  0
 21 20  1  0
 22 21  1  1
 23 22  1  0
 23 13  1  0
 24 22  1  0
 24 26  1  0
 25 24  2  0
M  END
$$$$
