NSR.pdb
     RDKit          3D

 26 25  0  0  1  0  0  0  0  0999 V2000
    7.8495  -12.5399   15.5413 N   0  0  0  0  0  0  0  0  0  0  0  0
    7.8652  -13.9486   15.5806 C   0  0  0  0  0  0  0  0  0  0  0  0
    7.9716  -14.5995   14.5002 O   0  0  0  0  0  0  0  0  0  0  0  0
    7.7638  -14.7596   16.8293 C   0  0  0  0  0  0  0  0  0  0  0  0
    9.1274  -15.0526   17.3897 C   0  0  2  0  0  0  0  0  0  0  0  0
    9.9307  -15.7476   16.4170 N   0  0  0  0  0  0  0  0  0  0  0  0
    8.9959  -15.8110   18.6553 C   0  0  0  0  0  0  0  0  0  0  0  0
    8.3221  -15.2974   19.5828 O   0  0  0  0  0  0  0  0  0  0  0  0
   11.4866  -19.0120   19.7669 O   0  0  0  0  0  0  0  0  0  0  0  0
   10.1092  -19.1278   20.0396 C   0  0  0  0  0  0  0  0  0  0  0  0
    9.4749  -17.7813   20.1546 C   0  0  2  0  0  0  0  0  0  0  0  0
    9.5826  -17.0829   18.8896 N   0  0  0  0  0  0  0  0  0  0  0  0
   10.0277  -16.9765   21.2736 C   0  0  0  0  0  0  0  0  0  0  0  0
   11.0957  -16.3396   21.0858 O   0  0  0  0  0  0  0  0  0  0  0  0
    5.1110  -13.1953   26.6335 N   0  0  0  0  0  0  0  0  0  0  0  0
    6.2446  -12.3383   26.5712 C   0  0  0  0  0  0  0  0  0  0  0  0
    6.2502  -11.1705   27.1152 N   0  0  0  0  0  0  0  0  0  0  0  0
    7.3911  -12.8301   25.8725 N   0  0  0  0  0  0  0  0  0  0  0  0
    7.2479  -13.5331   24.6374 C   0  0  0  0  0  0  0  0  0  0  0  0
    8.6178  -13.9990   24.1183 C   0  0  0  0  0  0  0  0  0  0  0  0
    8.6924  -15.4834   24.2915 C   0  0  0  0  0  0  0  0  0  0  0  0
    9.9116  -16.1121   23.6539 C   0  0  2  0  0  0  0  0  0  0  0  0
    9.4078  -16.8963   22.5334 N   0  0  0  0  0  0  0  0  0  0  0  0
   10.6657  -16.9795   24.5928 C   0  0  0  0  0  0  0  0  0  0  0  0
   11.4136  -16.4660   25.4866 O   0  0  0  0  0  0  0  0  0  0  0  0
   10.6184  -18.3621   24.5741 O   0  0  0  0  0  0  0  0  0  0  0  0
  1  2  1  0
  2  3  2  0
  4  5  1  0
  4  2  1  0
  5  6  1  6
  7  5  1  0
  8  7  2  0
  9 10  1  0
 11 10  1  6
 11 13  1  0
 11 12  1  0
 12  7  1  0
 13 14  2  0
 16 15  1  0
 16 17  2  0
 18 16  1  0
 19 18  1  0
 20 19  1  0
 21 20  1  0
 22 21  1  1
 23 22  1  0
 23 13  1  0
 24 22  1  0
 24 26  1  0
 25 24  2  0
M  END
$$$$
