NSR.pdb
     RDKit          3D

 26 25  0  0  1  0  0  0  0  0999 V2000
    8.1255  -15.9316   15.1059 N   0  0  0  0  0  0  0  0  0  0  0  0
    8.4505  -14.5954   15.4146 C   0  0  0  0  0  0  0  0  0  0  0  0
    8.5070  -13.7386   14.4846 O   0  0  0  0  0  0  0  0  0  0  0  0
    8.7420  -14.0934   16.7895 C   0  0  0  0  0  0  0  0  0  0  0  0
    8.7213  -15.2185   17.7859 C   0  0  2  0  0  0  0  0  0  0  0  0
    7.4205  -15.8360   17.8181 N   0  0  0  0  0  0  0  0  0  0  0  0
    9.1385  -14.7168   19.1157 C   0  0  0  0  0  0  0  0  0  0  0  0
   10.3310  -14.3489   19.2593 O   0  0  0  0  0  0  0  0  0  0  0  0
    6.6735  -15.0313   22.5832 O   0  0  0  0  0  0  0  0  0  0  0  0
    7.6329  -14.0053   22.4735 C   0  0  0  0  0  0  0  0  0  0  0  0
    8.7622  -14.4254   21.5922 C   0  0  2  0  0  0  0  0  0  0  0  0
    8.2774  -14.6244   20.2414 N   0  0  0  0  0  0  0  0  0  0  0  0
    9.4759  -15.6245   22.1006 C   0  0  0  0  0  0  0  0  0  0  0  0
    9.0414  -16.7615   21.7846 O   0  0  0  0  0  0  0  0  0  0  0  0
   14.4659  -15.9458   18.4756 N   0  0  0  0  0  0  0  0  0  0  0  0
   14.5968  -14.7380   19.2156 C   0  0  0  0  0  0  0  0  0  0  0  0
   15.3422  -13.7670   18.8142 N   0  0  0  0  0  0  0  0  0  0  0  0
   13.8595  -14.6434   20.4371 N   0  0  0  0  0  0  0  0  0  0  0  0
   14.2443  -15.4036   21.5834 C   0  0  0  0  0  0  0  0  0  0  0  0
   13.2307  -16.5277   21.8521 C   0  0  0  0  0  0  0  0  0  0  0  0
   12.7871  -16.4135   23.2766 C   0  0  0  0  0  0  0  0  0  0  0  0
   11.3143  -16.6916   23.4817 C   0  0  2  0  0  0  0  0  0  0  0  0
   10.6162  -15.5424   22.9194 N   0  0  0  0  0  0  0  0  0  0  0  0
   10.9578  -16.8626   24.9121 C   0  0  0  0  0  0  0  0  0  0  0  0
   10.3763  -15.9253   25.5488 O   0  0  0  0  0  0  0  0  0  0  0  0
   11.2174  -18.0095   25.6409 O   0  0  0  0  0  0  0  0  0  0  0  0
  1  2  1  0
  2  3  2  0
  4  5  1  0
  4  2  1  0
  5  6  1  1
  7  5  1  0
  8  7  2  0
  9 10  1  0
 11 10  1  1
 11 13  1  0
 11 12  1  0
 12  7  1  0
 13 14  2  0
 16 15  1  0
 16 17  2  0
 18 16  1  0
 19 18  1  0
 20 19  1  0
 21 20  1  0
 22 21  1  1
 23 22  1  0
 23 13  1  0
 24 22  1  0
 24 26  1  0
 25 24  2  0
M  END
$$$$
