NSR.pdb
     RDKit          3D

 26 25  0  0  1  0  0  0  0  0999 V2000
    9.4625  -13.5843   16.3677 N   0  0  0  0  0  0  0  0  0  0  0  0
    8.2231  -13.1980   16.9164 C   0  0  0  0  0  0  0  0  0  0  0  0
    7.3197  -12.7453   16.1540 O   0  0  0  0  0  0  0  0  0  0  0  0
    7.8786  -13.2820   18.3661 C   0  0  0  0  0  0  0  0  0  0  0  0
    9.0208  -13.8581   19.1553 C   0  0  2  0  0  0  0  0  0  0  0  0
    9.4512  -15.1051   18.5773 N   0  0  0  0  0  0  0  0  0  0  0  0
    8.6246  -14.0037   20.5752 C   0  0  0  0  0  0  0  0  0  0  0  0
    8.2758  -12.9704   21.1986 O   0  0  0  0  0  0  0  0  0  0  0  0
    7.3376  -17.4681   22.3129 O   0  0  0  0  0  0  0  0  0  0  0  0
    7.1538  -16.2115   22.9231 C   0  0  0  0  0  0  0  0  0  0  0  0
    8.3399  -15.3331   22.6991 C   0  0  2  0  0  0  0  0  0  0  0  0
    8.6133  -15.2369   21.2795 N   0  0  0  0  0  0  0  0  0  0  0  0
    9.5370  -15.7748   23.4590 C   0  0  0  0  0  0  0  0  0  0  0  0
   10.5070  -16.2609   22.8232 O   0  0  0  0  0  0  0  0  0  0  0  0
   10.6100  -18.3262   31.5239 N   0  0  0  0  0  0  0  0  0  0  0  0
   11.7534  -17.7814   30.8765 C   0  0  0  0  0  0  0  0  0  0  0  0
   12.8081  -18.4839   30.6448 N   0  0  0  0  0  0  0  0  0  0  0  0
   11.6849  -16.4068   30.4886 N   0  0  0  0  0  0  0  0  0  0  0  0
   10.7601  -15.9750   29.4894 C   0  0  0  0  0  0  0  0  0  0  0  0
   11.3679  -16.1315   28.0861 C   0  0  0  0  0  0  0  0  0  0  0  0
   10.2446  -16.1296   27.0976 C   0  0  0  0  0  0  0  0  0  0  0  0
   10.6959  -16.2634   25.6600 C   0  0  2  0  0  0  0  0  0  0  0  0
    9.6318  -15.6723   24.8583 N   0  0  0  0  0  0  0  0  0  0  0  0
   10.9204  -17.6747   25.2593 C   0  0  0  0  0  0  0  0  0  0  0  0
   12.0921  -18.1731   25.2809 O   0  0  0  0  0  0  0  0  0  0  0  0
    9.9139  -18.5296   24.8468 O   0  0  0  0  0  0  0  0  0  0  0  0
  1  2  1  0
  2  3  2  0
  4  5  1  0
  4  2  1  0
  5  6  1  6
  7  5  1  0
  8  7  2  0
  9 10  1  0
 11 10  1  6
 11 13  1  0
 11 12  1  0
 12  7  1  0
 13 14  2  0
 16 15  1  0
 16 17  2  0
 18 16  1  0
 19 18  1  0
 20 19  1  0
 21 20  1  0
 22 21  1  1
 23 22  1  0
 23 13  1  0
 24 22  1  0
 24 26  1  0
 25 24  2  0
M  END
$$$$
