NSR.pdb
     RDKit          3D

 26 25  0  0  1  0  0  0  0  0999 V2000
    8.4647  -14.2797   14.0477 N   0  0  0  0  0  0  0  0  0  0  0  0
    7.6009  -13.4481   14.7884 C   0  0  0  0  0  0  0  0  0  0  0  0
    6.7232  -12.7664   14.1824 O   0  0  0  0  0  0  0  0  0  0  0  0
    7.6376  -13.3016   16.2732 C   0  0  0  0  0  0  0  0  0  0  0  0
    8.6877  -14.1939   16.8735 C   0  0  2  0  0  0  0  0  0  0  0  0
    9.0222  -15.2580   15.9623 N   0  0  0  0  0  0  0  0  0  0  0  0
    8.2225  -14.7021   18.1847 C   0  0  0  0  0  0  0  0  0  0  0  0
    8.0770  -13.8753   19.1193 O   0  0  0  0  0  0  0  0  0  0  0  0
    7.9303  -18.8508   19.2273 O   0  0  0  0  0  0  0  0  0  0  0  0
    6.9764  -17.9112   19.6657 C   0  0  0  0  0  0  0  0  0  0  0  0
    7.5815  -16.5509   19.7755 C   0  0  2  0  0  0  0  0  0  0  0  0
    7.9297  -16.0651   18.4556 N   0  0  0  0  0  0  0  0  0  0  0  0
    8.7437  -16.5089   20.6991 C   0  0  0  0  0  0  0  0  0  0  0  0
    9.8989  -16.4293   20.2085 O   0  0  0  0  0  0  0  0  0  0  0  0
    8.8335  -13.5152   28.8235 N   0  0  0  0  0  0  0  0  0  0  0  0
   10.0414  -14.2648   28.8710 C   0  0  0  0  0  0  0  0  0  0  0  0
   10.7861  -14.2967   29.9217 N   0  0  0  0  0  0  0  0  0  0  0  0
   10.4007  -14.9900   27.6922 N   0  0  0  0  0  0  0  0  0  0  0  0
    9.5527  -14.9822   26.5429 C   0  0  0  0  0  0  0  0  0  0  0  0
   10.1856  -15.7901   25.3983 C   0  0  0  0  0  0  0  0  0  0  0  0
    9.2186  -15.8013   24.2565 C   0  0  0  0  0  0  0  0  0  0  0  0
    9.7213  -16.5431   23.0377 C   0  0  2  0  0  0  0  0  0  0  0  0
    8.6073  -16.5539   22.0980 N   0  0  0  0  0  0  0  0  0  0  0  0
   10.1481  -17.9304   23.3476 C   0  0  0  0  0  0  0  0  0  0  0  0
    9.2976  -18.8781   23.3674 O   0  0  0  0  0  0  0  0  0  0  0  0
   11.4537  -18.2921   23.6283 O   0  0  0  0  0  0  0  0  0  0  0  0
  1  2  1  0
  2  3  2  0
  4  5  1  0
  4  2  1  0
  5  6  1  6
  7  5  1  0
  8  7  2  0
  9 10  1  0
 11 10  1  6
 11 13  1  0
 11 12  1  0
 12  7  1  0
 13 14  2  0
 16 15  1  0
 16 17  2  0
 18 16  1  0
 19 18  1  0
 20 19  1  0
 21 20  1  0
 22 21  1  1
 23 22  1  0
 23 13  1  0
 24 22  1  0
 24 26  1  0
 25 24  2  0
M  END
$$$$
