NSR.pdb
     RDKit          3D

 26 25  0  0  1  0  0  0  0  0999 V2000
    1.4170  -19.4170   22.0228 N   0  0  0  0  0  0  0  0  0  0  0  0
    2.0409  -18.5679   21.0869 C   0  0  0  0  0  0  0  0  0  0  0  0
    1.4636  -18.3239   19.9871 O   0  0  0  0  0  0  0  0  0  0  0  0
    3.3663  -17.9134   21.2929 C   0  0  0  0  0  0  0  0  0  0  0  0
    4.2950  -18.2132   20.1498 C   0  0  2  0  0  0  0  0  0  0  0  0
    4.2245  -19.6084   19.7990 N   0  0  0  0  0  0  0  0  0  0  0  0
    5.6710  -17.7904   20.4990 C   0  0  0  0  0  0  0  0  0  0  0  0
    6.4254  -18.6327   21.0464 O   0  0  0  0  0  0  0  0  0  0  0  0
    6.9822  -13.7860   20.4323 O   0  0  0  0  0  0  0  0  0  0  0  0
    7.8711  -14.7888   19.9972 C   0  0  0  0  0  0  0  0  0  0  0  0
    7.5399  -16.1019   20.6253 C   0  0  2  0  0  0  0  0  0  0  0  0
    6.1946  -16.4928   20.2555 N   0  0  0  0  0  0  0  0  0  0  0  0
    7.7244  -16.0997   22.0989 C   0  0  0  0  0  0  0  0  0  0  0  0
    6.7904  -15.6664   22.8210 O   0  0  0  0  0  0  0  0  0  0  0  0
   11.3992  -18.4032   28.5867 N   0  0  0  0  0  0  0  0  0  0  0  0
   10.6231  -19.5876   28.7217 C   0  0  0  0  0  0  0  0  0  0  0  0
   10.8634  -20.4625   29.6363 N   0  0  0  0  0  0  0  0  0  0  0  0
    9.5531  -19.7708   27.7911 N   0  0  0  0  0  0  0  0  0  0  0  0
    9.7509  -19.5389   26.3957 C   0  0  0  0  0  0  0  0  0  0  0  0
    9.6314  -18.0404   26.0741 C   0  0  0  0  0  0  0  0  0  0  0  0
    9.2529  -17.9103   24.6323 C   0  0  0  0  0  0  0  0  0  0  0  0
    9.1631  -16.4788   24.1514 C   0  0  2  0  0  0  0  0  0  0  0  0
    8.8981  -16.5617   22.7206 N   0  0  0  0  0  0  0  0  0  0  0  0
   10.4085  -15.7115   24.4017 C   0  0  0  0  0  0  0  0  0  0  0  0
   11.2840  -15.5852   23.4854 O   0  0  0  0  0  0  0  0  0  0  0  0
   10.7071  -15.0948   25.6036 O   0  0  0  0  0  0  0  0  0  0  0  0
  1  2  1  0
  2  3  2  0
  4  5  1  0
  4  2  1  0
  5  6  1  1
  7  5  1  0
  8  7  2  0
  9 10  1  0
 11 10  1  1
 11 13  1  0
 11 12  1  0
 12  7  1  0
 13 14  2  0
 16 15  1  0
 16 17  2  0
 18 16  1  0
 19 18  1  0
 20 19  1  0
 21 20  1  0
 22 21  1  6
 23 22  1  0
 23 13  1  0
 24 22  1  0
 24 26  1  0
 25 24  2  0
M  END
$$$$
