RQT.pdb
     RDKit          3D

 28 27  0  0  1  0  0  0  0  0999 V2000
    7.8763  -12.7568   17.4084 N   0  0  0  0  0  0  0  0  0  0  0  0
    7.8783  -12.4769   18.8233 C   0  0  0  0  0  0  0  0  0  0  0  0
    8.0172  -11.2800   19.2268 N   0  0  0  0  0  0  0  0  0  0  0  0
    7.7271  -13.5179   19.7708 N   0  0  0  0  0  0  0  0  0  0  0  0
    6.6191  -14.4693   19.5846 C   0  0  0  0  0  0  0  0  0  0  0  0
    7.2086  -15.7008   18.9608 C   0  0  0  0  0  0  0  0  0  0  0  0
    8.4250  -16.2499   19.6060 C   0  0  0  0  0  0  0  0  0  0  0  0
    9.4924  -16.7763   18.6944 C   0  0  2  0  0  0  0  0  0  0  0  0
    9.1131  -18.0434   18.1580 N   0  0  0  0  0  0  0  0  0  0  0  0
   10.7432  -16.8752   19.5075 C   0  0  0  0  0  0  0  0  0  0  0  0
   10.9477  -17.9720   20.1167 O   0  0  0  0  0  0  0  0  0  0  0  0
    8.0699  -10.9208   20.1800 N   0  0  0  0  0  0  0  0  0  0  0  0
   16.1755  -13.6555   18.9126 C   0  0  0  0  0  0  0  0  0  0  0  0
   15.3209  -14.3446   17.9998 O   0  0  0  0  0  0  0  0  0  0  0  0
   15.5945  -14.2292   16.7992 C   0  0  0  0  0  0  0  0  0  0  0  0
   14.2259  -15.1062   18.5392 C   0  0  0  0  0  0  0  0  0  0  0  0
   14.0194  -15.2076   19.9926 C   0  0  2  0  0  0  0  0  0  0  0  0
   12.8635  -15.9853   20.5007 N   0  0  0  0  0  0  0  0  0  0  0  0
   11.6884  -15.8579   19.6407 C   0  0  0  0  0  0  0  0  0  0  0  0
   12.5633  -15.8847   21.9295 O   0  0  0  0  0  0  0  0  0  0  0  0
   12.8643  -14.8365   22.5447 C   0  0  0  0  0  0  0  0  0  0  0  0
    9.5388  -15.5631   23.8467 C   0  0  2  0  0  0  0  0  0  0  0  0
   10.1273  -16.8685   24.2763 O   0  0  0  0  0  0  0  0  0  0  0  0
    9.5509  -17.8840   23.5302 C   0  0  2  0  0  0  0  0  0  0  0  0
   11.6320  -16.9191   24.0393 N   0  0  0  0  0  0  0  0  0  0  0  0
   11.9429  -16.9424   22.6280 C   0  0  0  0  0  0  0  0  0  0  0  0
   12.2564  -18.0326   24.7714 O   0  0  0  0  0  0  0  0  0  0  0  0
   12.8187  -18.9584   24.1593 O   0  0  0  0  0  0  0  0  0  0  0  0
  2  1  1  0
  3  2  2  0
  4  2  1  0
  5  6  1  0
  5  4  1  0
  6  7  1  0
  8  7  1  0
  8  9  1  1
 10  8  1  0
 10 11  2  0
 12 13  1  0
 13 14  2  0
 13 15  1  0
 15 16  1  0
 17 16  1  6
 17 18  1  0
 18 10  1  0
 19 17  1  0
 20 19  2  0
 22 21  1  1
 22 24  1  0
 23 22  1  0
 24 26  1  0
 24 25  1  1
 25 19  1  0
 26 28  1  0
 27 26  2  0
M  END
$$$$
