RQT.pdb
     RDKit          3D

 28 27  0  0  1  0  0  0  0  0999 V2000
    8.3788  -12.4560   18.2480 N   0  0  0  0  0  0  0  0  0  0  0  0
    8.2389  -13.4638   17.2257 C   0  0  0  0  0  0  0  0  0  0  0  0
    8.0701  -13.1126   16.0162 N   0  0  0  0  0  0  0  0  0  0  0  0
    8.2873  -14.8410   17.5506 N   0  0  0  0  0  0  0  0  0  0  0  0
    8.5599  -15.2143   18.9484 C   0  0  0  0  0  0  0  0  0  0  0  0
    7.3679  -14.7801   19.7507 C   0  0  0  0  0  0  0  0  0  0  0  0
    6.7099  -15.8236   20.5728 C   0  0  0  0  0  0  0  0  0  0  0  0
    7.5395  -17.0182   20.9360 C   0  0  2  0  0  0  0  0  0  0  0  0
    6.9452  -18.2134   20.4307 N   0  0  0  0  0  0  0  0  0  0  0  0
    7.6346  -17.0393   22.4280 C   0  0  0  0  0  0  0  0  0  0  0  0
    6.7691  -17.7325   23.0494 O   0  0  0  0  0  0  0  0  0  0  0  0
    8.0230  -13.6890   15.1759 N   0  0  0  0  0  0  0  0  0  0  0  0
   11.3179  -20.2150   24.9586 C   0  0  0  0  0  0  0  0  0  0  0  0
   11.5836  -18.8479   25.2736 O   0  0  0  0  0  0  0  0  0  0  0  0
   12.5162  -18.6377   26.0583 C   0  0  0  0  0  0  0  0  0  0  0  0
   10.7589  -17.8388   24.6641 C   0  0  0  0  0  0  0  0  0  0  0  0
    9.3786  -17.6130   25.1217 C   0  0  1  0  0  0  0  0  0  0  0  0
    8.6470  -16.4191   24.6336 N   0  0  0  0  0  0  0  0  0  0  0  0
    8.5966  -16.3580   23.1739 C   0  0  0  0  0  0  0  0  0  0  0  0
    8.9563  -15.1371   25.2680 O   0  0  0  0  0  0  0  0  0  0  0  0
   10.0996  -14.6463   25.1281 C   0  0  0  0  0  0  0  0  0  0  0  0
    6.6511  -11.8579   25.3207 C   0  0  2  0  0  0  0  0  0  0  0  0
    7.0050  -12.3008   26.7040 O   0  0  0  0  0  0  0  0  0  0  0  0
    5.9504  -13.0372   27.2194 C   0  0  2  0  0  0  0  0  0  0  0  0
    8.2403  -13.1933   26.7164 N   0  0  0  0  0  0  0  0  0  0  0  0
    7.9947  -14.4431   26.0331 C   0  0  0  0  0  0  0  0  0  0  0  0
    8.7502  -13.3900   28.0828 O   0  0  0  0  0  0  0  0  0  0  0  0
    8.8289  -14.5309   28.5727 O   0  0  0  0  0  0  0  0  0  0  0  0
  2  1  1  0
  3  2  2  0
  4  2  1  0
  5  6  1  0
  5  4  1  0
  6  7  1  0
  8  7  1  0
  8  9  1  1
 10  8  1  0
 10 11  2  0
 12 13  1  0
 13 14  2  0
 13 15  1  0
 15 16  1  0
 17 16  1  1
 17 18  1  0
 18 10  1  0
 19 17  1  0
 20 19  2  0
 22 21  1  1
 22 24  1  0
 23 22  1  0
 24 26  1  0
 24 25  1  1
 25 19  1  0
 26 28  1  0
 27 26  2  0
M  END
$$$$
