RQT.pdb
     RDKit          3D

 28 27  0  0  1  0  0  0  0  0999 V2000
   15.7815  -17.8921   14.1041 N   0  0  0  0  0  0  0  0  0  0  0  0
   14.7519  -18.5711   13.3563 C   0  0  0  0  0  0  0  0  0  0  0  0
   14.9478  -18.8563   12.1337 N   0  0  0  0  0  0  0  0  0  0  0  0
   13.5241  -18.9254   13.9659 N   0  0  0  0  0  0  0  0  0  0  0  0
   13.2439  -18.4047   15.3142 C   0  0  0  0  0  0  0  0  0  0  0  0
   13.3379  -16.9091   15.2268 C   0  0  0  0  0  0  0  0  0  0  0  0
   13.1893  -16.1628   16.4990 C   0  0  0  0  0  0  0  0  0  0  0  0
   11.9012  -16.3487   17.2430 C   0  0  2  0  0  0  0  0  0  0  0  0
   10.8702  -15.5465   16.6680 N   0  0  0  0  0  0  0  0  0  0  0  0
   12.1659  -15.9685   18.6646 C   0  0  0  0  0  0  0  0  0  0  0  0
   12.6739  -14.8211   18.8677 O   0  0  0  0  0  0  0  0  0  0  0  0
   14.3213  -19.3060   11.4660 N   0  0  0  0  0  0  0  0  0  0  0  0
   10.3607  -19.4009   23.1291 C   0  0  0  0  0  0  0  0  0  0  0  0
    9.5749  -18.7463   22.1328 O   0  0  0  0  0  0  0  0  0  0  0  0
    8.5662  -19.3490   21.7470 C   0  0  0  0  0  0  0  0  0  0  0  0
   10.0113  -17.4584   21.6630 C   0  0  0  0  0  0  0  0  0  0  0  0
   11.2767  -16.8718   22.1320 C   0  0  2  0  0  0  0  0  0  0  0  0
   12.2613  -16.3949   21.1310 N   0  0  0  0  0  0  0  0  0  0  0  0
   11.8965  -16.7779   19.7683 C   0  0  0  0  0  0  0  0  0  0  0  0
   13.6788  -16.5882   21.4393 O   0  0  0  0  0  0  0  0  0  0  0  0
   14.2194  -17.6841   21.1665 C   0  0  0  0  0  0  0  0  0  0  0  0
   18.0643  -14.5471   22.4071 C   0  0  2  0  0  0  0  0  0  0  0  0
   16.6526  -14.4968   21.9177 O   0  0  0  0  0  0  0  0  0  0  0  0
   16.6604  -14.5189   20.5322 C   0  0  1  0  0  0  0  0  0  0  0  0
   15.8430  -15.6971   22.3936 N   0  0  0  0  0  0  0  0  0  0  0  0
   14.4484  -15.5673   22.0369 C   0  0  0  0  0  0  0  0  0  0  0  0
   16.0353  -15.9417   23.8320 O   0  0  0  0  0  0  0  0  0  0  0  0
   15.1689  -15.5971   24.6557 O   0  0  0  0  0  0  0  0  0  0  0  0
  2  1  1  0
  3  2  2  0
  4  2  1  0
  5  6  1  0
  5  4  1  0
  6  7  1  0
  8  7  1  0
  8  9  1  6
 10  8  1  0
 10 11  2  0
 12 13  1  0
 13 14  2  0
 13 15  1  0
 15 16  1  0
 17 16  1  6
 17 18  1  0
 18 10  1  0
 19 17  1  0
 20 19  2  0
 22 21  1  6
 22 24  1  0
 23 22  1  0
 24 26  1  0
 24 25  1  1
 25 19  1  0
 26 28  1  0
 27 26  2  0
M  END
$$$$
