RQT.pdb
     RDKit          3D

 28 27  0  0  1  0  0  0  0  0999 V2000
    7.4401  -13.2064   17.8432 N   0  0  0  0  0  0  0  0  0  0  0  0
    8.5955  -13.0817   18.6975 C   0  0  0  0  0  0  0  0  0  0  0  0
    8.7467  -12.0342   19.4009 N   0  0  0  0  0  0  0  0  0  0  0  0
    9.5651  -14.1112   18.7644 N   0  0  0  0  0  0  0  0  0  0  0  0
    9.2911  -15.3689   18.0498 C   0  0  0  0  0  0  0  0  0  0  0  0
    9.8409  -16.4766   18.9006 C   0  0  0  0  0  0  0  0  0  0  0  0
    9.2663  -16.6118   20.2604 C   0  0  0  0  0  0  0  0  0  0  0  0
    9.7880  -17.7360   21.1039 C   0  0  2  0  0  0  0  0  0  0  0  0
    9.3967  -18.9954   20.5581 N   0  0  0  0  0  0  0  0  0  0  0  0
    9.2345  -17.5362   22.4784 C   0  0  0  0  0  0  0  0  0  0  0  0
    8.1199  -18.0906   22.7355 O   0  0  0  0  0  0  0  0  0  0  0  0
    9.5277  -11.7637   19.9986 N   0  0  0  0  0  0  0  0  0  0  0  0
   10.5965  -19.2750   27.8666 C   0  0  0  0  0  0  0  0  0  0  0  0
   11.5538  -18.6781   26.9914 O   0  0  0  0  0  0  0  0  0  0  0  0
   12.7427  -18.9153   27.2360 C   0  0  0  0  0  0  0  0  0  0  0  0
   11.0684  -17.8604   25.9117 C   0  0  0  0  0  0  0  0  0  0  0  0
    9.6437  -17.5054   25.8140 C   0  0  1  0  0  0  0  0  0  0  0  0
    9.2148  -16.5376   24.7755 N   0  0  0  0  0  0  0  0  0  0  0  0
    9.8510  -16.7917   23.4842 C   0  0  0  0  0  0  0  0  0  0  0  0
    9.1817  -15.1231   25.1494 O   0  0  0  0  0  0  0  0  0  0  0  0
   10.1546  -14.3911   24.8575 C   0  0  0  0  0  0  0  0  0  0  0  0
    6.4083  -12.3842   24.5561 C   0  0  2  0  0  0  0  0  0  0  0  0
    6.6411  -12.5877   26.0188 O   0  0  0  0  0  0  0  0  0  0  0  0
    5.6827  -13.4625   26.5049 C   0  0  2  0  0  0  0  0  0  0  0  0
    8.0085  -13.2006   26.2967 N   0  0  0  0  0  0  0  0  0  0  0  0
    8.0781  -14.5672   25.8311 C   0  0  0  0  0  0  0  0  0  0  0  0
    8.3804  -13.0698   27.7146 O   0  0  0  0  0  0  0  0  0  0  0  0
    8.6817  -14.0723   28.3868 O   0  0  0  0  0  0  0  0  0  0  0  0
  2  1  1  0
  3  2  2  0
  4  2  1  0
  5  6  1  0
  5  4  1  0
  6  7  1  0
  8  7  1  0
  8  9  1  6
 10  8  1  0
 10 11  2  0
 12 13  1  0
 13 14  2  0
 13 15  1  0
 15 16  1  0
 17 16  1  6
 17 18  1  0
 18 10  1  0
 19 17  1  0
 20 19  2  0
 22 21  1  1
 22 24  1  0
 23 22  1  0
 24 26  1  0
 24 25  1  1
 25 19  1  0
 26 28  1  0
 27 26  2  0
M  END
$$$$
