RQT.pdb
     RDKit          3D

 28 27  0  0  1  0  0  0  0  0999 V2000
   10.1250  -14.4173   18.1145 N   0  0  0  0  0  0  0  0  0  0  0  0
    9.2087  -13.3380   18.3896 C   0  0  0  0  0  0  0  0  0  0  0  0
    9.6192  -12.1366   18.3374 N   0  0  0  0  0  0  0  0  0  0  0  0
    7.8560  -13.5980   18.7170 N   0  0  0  0  0  0  0  0  0  0  0  0
    7.4689  -14.9875   19.0119 C   0  0  0  0  0  0  0  0  0  0  0  0
    7.2554  -15.0698   20.4955 C   0  0  0  0  0  0  0  0  0  0  0  0
    6.9289  -16.4085   21.0421 C   0  0  0  0  0  0  0  0  0  0  0  0
    6.6875  -16.4928   22.5193 C   0  0  2  0  0  0  0  0  0  0  0  0
    5.6653  -15.5779   22.9130 N   0  0  0  0  0  0  0  0  0  0  0  0
    7.9892  -16.1840   23.1870 C   0  0  0  0  0  0  0  0  0  0  0  0
    8.1454  -15.0000   23.6222 O   0  0  0  0  0  0  0  0  0  0  0  0
    9.1123  -11.2712   18.5234 N   0  0  0  0  0  0  0  0  0  0  0  0
   11.0383  -18.7538   27.7207 C   0  0  0  0  0  0  0  0  0  0  0  0
   11.9771  -17.7779   27.2683 O   0  0  0  0  0  0  0  0  0  0  0  0
   13.0628  -17.7463   27.8599 C   0  0  0  0  0  0  0  0  0  0  0  0
   11.5928  -16.9213   26.1781 C   0  0  0  0  0  0  0  0  0  0  0  0
   10.3662  -17.1822   25.4081 C   0  0  1  0  0  0  0  0  0  0  0  0
   10.2953  -16.7320   23.9970 N   0  0  0  0  0  0  0  0  0  0  0  0
    9.0301  -17.0962   23.3617 C   0  0  0  0  0  0  0  0  0  0  0  0
   11.4689  -16.9722   23.1564 O   0  0  0  0  0  0  0  0  0  0  0  0
   11.8499  -18.1487   22.9610 C   0  0  0  0  0  0  0  0  0  0  0  0
   11.7722  -15.6608   19.6928 C   0  0  2  0  0  0  0  0  0  0  0  0
   13.0581  -15.2868   20.3572 O   0  0  0  0  0  0  0  0  0  0  0  0
   13.0130  -13.9424   20.6899 C   0  0  2  0  0  0  0  0  0  0  0  0
   13.2829  -16.0729   21.6434 N   0  0  0  0  0  0  0  0  0  0  0  0
   12.1794  -15.9075   22.5621 C   0  0  0  0  0  0  0  0  0  0  0  0
   14.5797  -15.7445   22.2568 O   0  0  0  0  0  0  0  0  0  0  0  0
   14.6345  -15.2323   23.3892 O   0  0  0  0  0  0  0  0  0  0  0  0
  2  1  1  0
  3  2  2  0
  4  2  1  0
  5  6  1  0
  5  4  1  0
  6  7  1  0
  8  7  1  0
  8  9  1  1
 10  8  1  0
 10 11  2  0
 12 13  1  0
 13 14  2  0
 13 15  1  0
 15 16  1  0
 17 16  1  1
 17 18  1  0
 18 10  1  0
 19 17  1  0
 20 19  2  0
 22 21  1  6
 22 24  1  0
 23 22  1  0
 24 26  1  0
 24 25  1  6
 25 19  1  0
 26 28  1  0
 27 26  2  0
M  END
$$$$
