RQT.pdb
     RDKit          3D

 28 27  0  0  1  0  0  0  0  0999 V2000
    8.6390  -12.2341   20.0846 N   0  0  0  0  0  0  0  0  0  0  0  0
    7.9725  -12.6534   18.8762 C   0  0  0  0  0  0  0  0  0  0  0  0
    8.2657  -12.0976   17.7718 N   0  0  0  0  0  0  0  0  0  0  0  0
    6.9951  -13.6773   18.9026 N   0  0  0  0  0  0  0  0  0  0  0  0
    6.7191  -14.3393   20.1883 C   0  0  0  0  0  0  0  0  0  0  0  0
    7.8703  -15.2658   20.4519 C   0  0  0  0  0  0  0  0  0  0  0  0
    7.8322  -16.5783   19.7638 C   0  0  0  0  0  0  0  0  0  0  0  0
    8.9967  -16.9100   18.8799 C   0  0  2  0  0  0  0  0  0  0  0  0
    8.8376  -18.2078   18.3074 N   0  0  0  0  0  0  0  0  0  0  0  0
   10.2217  -16.8317   19.7335 C   0  0  0  0  0  0  0  0  0  0  0  0
   10.3567  -17.7239   20.6287 O   0  0  0  0  0  0  0  0  0  0  0  0
    7.8701  -12.2529   16.8444 N   0  0  0  0  0  0  0  0  0  0  0  0
   15.5810  -13.2896   18.9084 C   0  0  0  0  0  0  0  0  0  0  0  0
   15.1572  -14.3970   18.1130 O   0  0  0  0  0  0  0  0  0  0  0  0
   15.7276  -14.5406   17.0251 C   0  0  0  0  0  0  0  0  0  0  0  0
   14.1164  -15.2449   18.6307 C   0  0  0  0  0  0  0  0  0  0  0  0
   13.4605  -14.9398   19.9121 C   0  0  2  0  0  0  0  0  0  0  0  0
   12.4275  -15.8698   20.4289 N   0  0  0  0  0  0  0  0  0  0  0  0
   11.2133  -15.8576   19.6150 C   0  0  0  0  0  0  0  0  0  0  0  0
   12.1727  -15.8556   21.8699 O   0  0  0  0  0  0  0  0  0  0  0  0
   11.7292  -14.8124   22.4017 C   0  0  0  0  0  0  0  0  0  0  0  0
   10.6142  -18.9953   23.8247 C   0  0  2  0  0  0  0  0  0  0  0  0
   10.7881  -17.6243   24.3949 O   0  0  0  0  0  0  0  0  0  0  0  0
   10.6535  -17.6943   25.7723 C   0  0  1  0  0  0  0  0  0  0  0  0
   12.1696  -17.0549   24.0948 N   0  0  0  0  0  0  0  0  0  0  0  0
   12.4158  -16.9910   22.6720 C   0  0  0  0  0  0  0  0  0  0  0  0
   13.2232  -17.7871   24.8157 O   0  0  0  0  0  0  0  0  0  0  0  0
   13.1886  -17.8924   26.0549 O   0  0  0  0  0  0  0  0  0  0  0  0
  2  1  1  0
  3  2  2  0
  4  2  1  0
  5  6  1  0
  5  4  1  0
  6  7  1  0
  8  7  1  0
  8  9  1  1
 10  8  1  0
 10 11  2  0
 12 13  1  0
 13 14  2  0
 13 15  1  0
 15 16  1  0
 17 16  1  6
 17 18  1  0
 18 10  1  0
 19 17  1  0
 20 19  2  0
 22 21  1  6
 22 24  1  0
 23 22  1  0
 24 26  1  0
 24 25  1  6
 25 19  1  0
 26 28  1  0
 27 26  2  0
M  END
$$$$
