RQT.pdb
     RDKit          3D

 28 27  0  0  1  0  0  0  0  0999 V2000
    9.9695  -14.3101   15.9607 N   0  0  0  0  0  0  0  0  0  0  0  0
    8.5627  -14.5774   15.7880 C   0  0  0  0  0  0  0  0  0  0  0  0
    8.1847  -15.4046   14.9006 N   0  0  0  0  0  0  0  0  0  0  0  0
    7.5953  -13.9309   16.5946 N   0  0  0  0  0  0  0  0  0  0  0  0
    8.0693  -13.0927   17.7082 C   0  0  0  0  0  0  0  0  0  0  0  0
    8.6993  -14.0192   18.7072 C   0  0  0  0  0  0  0  0  0  0  0  0
    7.8248  -14.5028   19.8020 C   0  0  0  0  0  0  0  0  0  0  0  0
    8.1469  -15.8491   20.3773 C   0  0  2  0  0  0  0  0  0  0  0  0
    7.6257  -16.8865   19.5471 N   0  0  0  0  0  0  0  0  0  0  0  0
    7.5479  -15.8871   21.7467 C   0  0  0  0  0  0  0  0  0  0  0  0
    6.3205  -15.5719   21.8462 O   0  0  0  0  0  0  0  0  0  0  0  0
    7.2393  -15.6747   14.6290 N   0  0  0  0  0  0  0  0  0  0  0  0
    7.0519  -20.0919   26.0787 C   0  0  0  0  0  0  0  0  0  0  0  0
    8.3628  -19.5264   26.0581 O   0  0  0  0  0  0  0  0  0  0  0  0
    9.2521  -20.1839   26.6116 C   0  0  0  0  0  0  0  0  0  0  0  0
    8.5434  -18.2565   25.4062 C   0  0  0  0  0  0  0  0  0  0  0  0
    7.4048  -17.5512   24.7967 C   0  0  1  0  0  0  0  0  0  0  0  0
    7.6188  -16.1971   24.2313 N   0  0  0  0  0  0  0  0  0  0  0  0
    8.2367  -16.2404   22.9072 C   0  0  0  0  0  0  0  0  0  0  0  0
    8.1916  -15.1829   25.1174 O   0  0  0  0  0  0  0  0  0  0  0  0
    9.4002  -14.8786   24.9969 C   0  0  0  0  0  0  0  0  0  0  0  0
    6.8373  -11.5847   25.8520 C   0  0  2  0  0  0  0  0  0  0  0  0
    6.9328  -12.3629   27.1248 O   0  0  0  0  0  0  0  0  0  0  0  0
    5.6852  -12.8888   27.4201 C   0  0  2  0  0  0  0  0  0  0  0  0
    7.9082  -13.5280   27.0067 N   0  0  0  0  0  0  0  0  0  0  0  0
    7.4120  -14.5415   26.1035 C   0  0  0  0  0  0  0  0  0  0  0  0
    8.2586  -14.0744   28.3275 O   0  0  0  0  0  0  0  0  0  0  0  0
    8.0951  -15.2819   28.5784 O   0  0  0  0  0  0  0  0  0  0  0  0
  2  1  1  0
  3  2  2  0
  4  2  1  0
  5  6  1  0
  5  4  1  0
  6  7  1  0
  8  7  1  0
  8  9  1  6
 10  8  1  0
 10 11  2  0
 12 13  1  0
 13 14  2  0
 13 15  1  0
 15 16  1  0
 17 16  1  6
 17 18  1  0
 18 10  1  0
 19 17  1  0
 20 19  2  0
 22 21  1  1
 22 24  1  0
 23 22  1  0
 24 26  1  0
 24 25  1  1
 25 19  1  0
 26 28  1  0
 27 26  2  0
M  END
$$$$
