RQT.pdb
     RDKit          3D

 28 27  0  0  1  0  0  0  0  0999 V2000
    7.3222  -12.9150   16.3034 N   0  0  0  0  0  0  0  0  0  0  0  0
    7.7025  -14.0179   15.4553 C   0  0  0  0  0  0  0  0  0  0  0  0
    7.2976  -14.0535   14.2514 N   0  0  0  0  0  0  0  0  0  0  0  0
    8.5222  -15.0631   15.9453 N   0  0  0  0  0  0  0  0  0  0  0  0
    8.8955  -15.0417   17.3694 C   0  0  0  0  0  0  0  0  0  0  0  0
    7.7646  -14.3798   18.1015 C   0  0  0  0  0  0  0  0  0  0  0  0
    7.7795  -14.4921   19.5795 C   0  0  0  0  0  0  0  0  0  0  0  0
    9.1171  -14.3949   20.2494 C   0  0  2  0  0  0  0  0  0  0  0  0
   10.0653  -15.2416   19.6003 N   0  0  0  0  0  0  0  0  0  0  0  0
    8.9138  -14.7898   21.6771 C   0  0  0  0  0  0  0  0  0  0  0  0
    7.9941  -14.1872   22.3148 O   0  0  0  0  0  0  0  0  0  0  0  0
    7.4343  -14.7755   13.5441 N   0  0  0  0  0  0  0  0  0  0  0  0
   11.5873  -19.6545   25.0396 C   0  0  0  0  0  0  0  0  0  0  0  0
   10.7698  -18.9657   25.9861 O   0  0  0  0  0  0  0  0  0  0  0  0
   10.7669  -19.4160   27.1380 C   0  0  0  0  0  0  0  0  0  0  0  0
   10.0253  -17.8210   25.5330 C   0  0  0  0  0  0  0  0  0  0  0  0
   10.1204  -17.3612   24.1384 C   0  0  1  0  0  0  0  0  0  0  0  0
    9.3905  -16.1349   23.7356 N   0  0  0  0  0  0  0  0  0  0  0  0
    9.6562  -15.7622   22.3474 C   0  0  0  0  0  0  0  0  0  0  0  0
    9.4133  -15.0048   24.6652 O   0  0  0  0  0  0  0  0  0  0  0  0
   10.4458  -14.3013   24.7464 C   0  0  0  0  0  0  0  0  0  0  0  0
    6.9365  -12.0265   25.0826 C   0  0  2  0  0  0  0  0  0  0  0  0
    6.9943  -12.8102   26.3544 O   0  0  0  0  0  0  0  0  0  0  0  0
    5.9243  -13.6902   26.3844 C   0  0  2  0  0  0  0  0  0  0  0  0
    8.2722  -13.6344   26.4565 N   0  0  0  0  0  0  0  0  0  0  0  0
    8.2979  -14.6916   25.4711 C   0  0  0  0  0  0  0  0  0  0  0  0
    8.4837  -14.1350   27.8241 O   0  0  0  0  0  0  0  0  0  0  0  0
    8.5539  -15.3565   28.0491 O   0  0  0  0  0  0  0  0  0  0  0  0
  2  1  1  0
  3  2  2  0
  4  2  1  0
  5  6  1  0
  5  4  1  0
  6  7  1  0
  8  7  1  0
  8  9  1  6
 10  8  1  0
 10 11  2  0
 12 13  1  0
 13 14  2  0
 13 15  1  0
 15 16  1  0
 17 16  1  6
 17 18  1  0
 18 10  1  0
 19 17  1  0
 20 19  2  0
 22 21  1  1
 22 24  1  0
 23 22  1  0
 24 26  1  0
 24 25  1  1
 25 19  1  0
 26 28  1  0
 27 26  2  0
M  END
$$$$
