QTK.pdb
     RDKit          3D

 26 25  0  0  1  0  0  0  0  0999 V2000
   12.5718  -12.8278  -13.9296 N   0  0  0  0  0  0  0  0  0  0  0  0
   13.0391  -13.3970  -15.1697 C   0  0  0  0  0  0  0  0  0  0  0  0
   12.2880  -14.1573  -15.8206 O   0  0  0  0  0  0  0  0  0  0  0  0
   14.3965  -13.0322  -15.5872 C   0  0  0  0  0  0  0  0  0  0  0  0
   15.0629  -12.0127  -14.7254 C   0  0  0  0  0  0  0  0  0  0  0  0
   16.4237  -11.5722  -15.2300 C   0  0  2  0  0  0  0  0  0  0  0  0
   17.3043  -12.6806  -15.4588 N   0  0  0  0  0  0  0  0  0  0  0  0
   16.9595  -10.6322  -14.1957 C   0  0  0  0  0  0  0  0  0  0  0  0
   17.4149  -11.1493  -13.1451 O   0  0  0  0  0  0  0  0  0  0  0  0
   19.8708   -8.6360  -14.4214 C   0  0  0  0  0  0  0  0  0  0  0  0
   18.7555   -7.6621  -14.1138 C   0  0  1  0  0  0  0  0  0  0  0  0
   18.3478   -6.9362  -15.2143 O   0  0  0  0  0  0  0  0  0  0  0  0
   17.6257   -8.3409  -13.3861 C   0  0  2  0  0  0  0  0  0  0  0  0
   16.9841   -9.2382  -14.3245 N   0  0  0  0  0  0  0  0  0  0  0  0
   16.6710   -7.3698  -12.7967 C   0  0  0  0  0  0  0  0  0  0  0  0
   15.6193   -7.1402  -13.4765 O   0  0  0  0  0  0  0  0  0  0  0  0
   16.8836   -6.7227  -11.5619 N   0  0  0  0  0  0  0  0  0  0  0  0
   15.9128   -5.6998  -11.1434 C   0  0  1  0  0  0  0  0  0  0  0  0
   15.6099   -5.8608   -9.6814 C   0  0  0  0  0  0  0  0  0  0  0  0
   14.7136   -4.7565   -9.2179 C   0  0  0  0  0  0  0  0  0  0  0  0
   14.3848   -4.8930   -7.7303 C   0  0  0  0  0  0  0  0  0  0  0  0
   13.3839   -3.8011   -7.4156 C   0  0  0  0  0  0  0  0  0  0  0  0
   13.0091   -3.9226   -6.0174 N   0  0  0  0  0  0  0  0  0  0  0  0
   16.3493   -4.3745  -11.5635 C   0  0  0  0  0  0  0  0  0  0  0  0
   15.3602   -3.4046  -11.8385 O   0  0  0  0  0  0  0  0  0  0  0  0
   17.5402   -4.0703  -11.6870 O   0  0  0  0  0  0  0  0  0  0  0  0
  1  2  1  0
  2  3  2  0
  4  5  1  0
  4  2  1  0
  5  6  1  0
  6  8  1  0
  6  7  1  1
  8 14  1  0
  9  8  2  0
 11 12  1  0
 11 10  1  6
 13 11  1  0
 13 14  1  6
 15 13  1  0
 15 16  2  0
 17 15  1  0
 18 17  1  0
 18 19  1  1
 19 20  1  0
 20 21  1  0
 22 21  1  0
 22 23  1  0
 24 18  1  0
 25 24  1  0
 26 24  2  0
M  END
$$$$
