QTK.pdb
     RDKit          3D

 26 25  0  0  1  0  0  0  0  0999 V2000
   23.8229  -21.3803   -8.9755 N   0  0  0  0  0  0  0  0  0  0  0  0
   23.4202  -20.2922   -9.8323 C   0  0  0  0  0  0  0  0  0  0  0  0
   22.2112  -19.9774   -9.9019 O   0  0  0  0  0  0  0  0  0  0  0  0
   24.4868  -19.6170  -10.5784 C   0  0  0  0  0  0  0  0  0  0  0  0
   25.8309  -20.2544  -10.4625 C   0  0  0  0  0  0  0  0  0  0  0  0
   26.0910  -21.3382  -11.4911 C   0  0  2  0  0  0  0  0  0  0  0  0
   27.3030  -22.0581  -11.2285 N   0  0  0  0  0  0  0  0  0  0  0  0
   26.1248  -20.6447  -12.8172 C   0  0  0  0  0  0  0  0  0  0  0  0
   27.2594  -20.3716  -13.2824 O   0  0  0  0  0  0  0  0  0  0  0  0
   26.7339  -21.7648  -15.2914 C   0  0  0  0  0  0  0  0  0  0  0  0
   25.3534  -21.2898  -15.6860 C   0  0  1  0  0  0  0  0  0  0  0  0
   24.3887  -22.2705  -15.5776 O   0  0  0  0  0  0  0  0  0  0  0  0
   24.9954  -20.0100  -14.9785 C   0  0  2  0  0  0  0  0  0  0  0  0
   24.9908  -20.2883  -13.5572 N   0  0  0  0  0  0  0  0  0  0  0  0
   23.7022  -19.4512  -15.4445 C   0  0  0  0  0  0  0  0  0  0  0  0
   22.6556  -19.9914  -14.9611 O   0  0  0  0  0  0  0  0  0  0  0  0
   23.6018  -18.3877  -16.3653 N   0  0  0  0  0  0  0  0  0  0  0  0
   22.2694  -17.8177  -16.6175 C   0  0  1  0  0  0  0  0  0  0  0  0
   22.4110  -16.4943  -17.3130 C   0  0  0  0  0  0  0  0  0  0  0  0
   21.0614  -15.9046  -17.5748 C   0  0  0  0  0  0  0  0  0  0  0  0
   21.1692  -14.5831  -18.3376 C   0  0  0  0  0  0  0  0  0  0  0  0
   19.7508  -14.0903  -18.5339 C   0  0  0  0  0  0  0  0  0  0  0  0
   19.8056  -12.8449  -19.2797 N   0  0  0  0  0  0  0  0  0  0  0  0
   21.4079  -18.7942  -17.2713 C   0  0  0  0  0  0  0  0  0  0  0  0
   20.0337  -18.7926  -16.9455 O   0  0  0  0  0  0  0  0  0  0  0  0
   21.8301  -19.6157  -18.0917 O   0  0  0  0  0  0  0  0  0  0  0  0
  1  2  1  0
  2  3  2  0
  4  5  1  0
  4  2  1  0
  5  6  1  0
  6  8  1  0
  6  7  1  1
  8 14  1  0
  9  8  2  0
 11 12  1  0
 11 10  1  1
 13 11  1  0
 13 14  1  1
 15 13  1  0
 15 16  2  0
 17 15  1  0
 18 17  1  0
 18 19  1  6
 19 20  1  0
 20 21  1  0
 22 21  1  0
 22 23  1  0
 24 18  1  0
 25 24  1  0
 26 24  2  0
M  END
$$$$
