QTK.pdb
     RDKit          3D

 26 25  0  0  1  0  0  0  0  0999 V2000
   24.4853  -24.7512  -13.8572 N   0  0  0  0  0  0  0  0  0  0  0  0
   23.6007  -24.4158  -14.9458 C   0  0  0  0  0  0  0  0  0  0  0  0
   23.3830  -25.2582  -15.8452 O   0  0  0  0  0  0  0  0  0  0  0  0
   23.0056  -23.0760  -14.9169 C   0  0  0  0  0  0  0  0  0  0  0  0
   23.3319  -22.2731  -13.7024 C   0  0  0  0  0  0  0  0  0  0  0  0
   24.7332  -21.6929  -13.7040 C   0  0  2  0  0  0  0  0  0  0  0  0
   25.4761  -22.0615  -12.5342 N   0  0  0  0  0  0  0  0  0  0  0  0
   24.5627  -20.2102  -13.8180 C   0  0  0  0  0  0  0  0  0  0  0  0
   24.0933  -19.6174  -12.8147 O   0  0  0  0  0  0  0  0  0  0  0  0
   27.1099  -17.7089  -14.0821 C   0  0  0  0  0  0  0  0  0  0  0  0
   26.2194  -17.5128  -15.2885 C   0  0  1  0  0  0  0  0  0  0  0  0
   26.7687  -18.0026  -16.4558 O   0  0  0  0  0  0  0  0  0  0  0  0
   24.8243  -18.0121  -15.0219 C   0  0  2  0  0  0  0  0  0  0  0  0
   24.8880  -19.4574  -14.9529 N   0  0  0  0  0  0  0  0  0  0  0  0
   23.8532  -17.5419  -16.0407 C   0  0  0  0  0  0  0  0  0  0  0  0
   23.4358  -18.4222  -16.8602 O   0  0  0  0  0  0  0  0  0  0  0  0
   23.3990  -16.2094  -16.1247 N   0  0  0  0  0  0  0  0  0  0  0  0
   22.3893  -15.8882  -17.1450 C   0  0  1  0  0  0  0  0  0  0  0  0
   21.1201  -15.4450  -16.4759 C   0  0  0  0  0  0  0  0  0  0  0  0
   20.0781  -15.1365  -17.5039 C   0  0  0  0  0  0  0  0  0  0  0  0
   18.7681  -14.6895  -16.8528 C   0  0  0  0  0  0  0  0  0  0  0  0
   17.7684  -14.5291  -17.9787 C   0  0  0  0  0  0  0  0  0  0  0  0
   16.5059  -14.0997  -17.4027 N   0  0  0  0  0  0  0  0  0  0  0  0
   22.9376  -14.9782  -18.1422 C   0  0  0  0  0  0  0  0  0  0  0  0
   22.2637  -14.8610  -19.3779 O   0  0  0  0  0  0  0  0  0  0  0  0
   23.9598  -14.3117  -17.9495 O   0  0  0  0  0  0  0  0  0  0  0  0
  1  2  1  0
  2  3  2  0
  4  5  1  0
  4  2  1  0
  5  6  1  0
  6  8  1  0
  6  7  1  1
  8 14  1  0
  9  8  2  0
 11 12  1  0
 11 10  1  1
 13 11  1  0
 13 14  1  6
 15 13  1  0
 15 16  2  0
 17 15  1  0
 18 17  1  0
 18 19  1  1
 19 20  1  0
 20 21  1  0
 22 21  1  0
 22 23  1  0
 24 18  1  0
 25 24  1  0
 26 24  2  0
M  END
$$$$
