QTK.pdb
     RDKit          3D

 26 25  0  0  1  0  0  0  0  0999 V2000
   25.8303  -18.3531  -16.5370 N   0  0  0  0  0  0  0  0  0  0  0  0
   24.6307  -19.1282  -16.3362 C   0  0  0  0  0  0  0  0  0  0  0  0
   24.5727  -20.2989  -16.7741 O   0  0  0  0  0  0  0  0  0  0  0  0
   23.5383  -18.4688  -15.6137 C   0  0  0  0  0  0  0  0  0  0  0  0
   23.8357  -17.0770  -15.1656 C   0  0  0  0  0  0  0  0  0  0  0  0
   23.3381  -16.0034  -16.1143 C   0  0  2  0  0  0  0  0  0  0  0  0
   23.9962  -16.0546  -17.3873 N   0  0  0  0  0  0  0  0  0  0  0  0
   23.5673  -14.7002  -15.4146 C   0  0  0  0  0  0  0  0  0  0  0  0
   23.1437  -14.6107  -14.2352 O   0  0  0  0  0  0  0  0  0  0  0  0
   26.7779  -12.8072  -14.9044 C   0  0  0  0  0  0  0  0  0  0  0  0
   25.7920  -11.8655  -15.5588 C   0  0  1  0  0  0  0  0  0  0  0  0
   26.0810  -11.6094  -16.8836 O   0  0  0  0  0  0  0  0  0  0  0  0
   24.3740  -12.3146  -15.3262 C   0  0  2  0  0  0  0  0  0  0  0  0
   24.2127  -13.5953  -15.9830 N   0  0  0  0  0  0  0  0  0  0  0  0
   23.3822  -11.3153  -15.7951 C   0  0  0  0  0  0  0  0  0  0  0  0
   23.0646  -11.3813  -17.0262 O   0  0  0  0  0  0  0  0  0  0  0  0
   22.8067  -10.3388  -14.9561 N   0  0  0  0  0  0  0  0  0  0  0  0
   21.8868   -9.3643  -15.5626 C   0  0  1  0  0  0  0  0  0  0  0  0
   20.4681   -9.7985  -15.3305 C   0  0  0  0  0  0  0  0  0  0  0  0
   19.5223   -8.7908  -15.9031 C   0  0  0  0  0  0  0  0  0  0  0  0
   18.0664   -9.2039  -15.6809 C   0  0  0  0  0  0  0  0  0  0  0  0
   17.2209   -8.1980  -16.4334 C   0  0  0  0  0  0  0  0  0  0  0  0
   15.8279   -8.5846  -16.2920 N   0  0  0  0  0  0  0  0  0  0  0  0
   22.2185   -8.0106  -15.1373 C   0  0  0  0  0  0  0  0  0  0  0  0
   21.6863   -6.9317  -15.8772 O   0  0  0  0  0  0  0  0  0  0  0  0
   22.9408   -7.7734  -14.1636 O   0  0  0  0  0  0  0  0  0  0  0  0
  1  2  1  0
  2  3  2  0
  4  5  1  0
  4  2  1  0
  5  6  1  0
  6  8  1  0
  6  7  1  6
  8 14  1  0
  9  8  2  0
 11 12  1  0
 11 10  1  6
 13 11  1  0
 13 14  1  6
 15 13  1  0
 15 16  2  0
 17 15  1  0
 18 17  1  0
 18 19  1  1
 19 20  1  0
 20 21  1  0
 22 21  1  0
 22 23  1  0
 24 18  1  0
 25 24  1  0
 26 24  2  0
M  END
$$$$
