QTK.pdb
     RDKit          3D

 26 25  0  0  1  0  0  0  0  0999 V2000
   25.4756  -23.6786  -15.1244 N   0  0  0  0  0  0  0  0  0  0  0  0
   24.3559  -24.5373  -14.8258 C   0  0  0  0  0  0  0  0  0  0  0  0
   24.5634  -25.7138  -14.4534 O   0  0  0  0  0  0  0  0  0  0  0  0
   23.0210  -23.9518  -14.9848 C   0  0  0  0  0  0  0  0  0  0  0  0
   23.0120  -22.4985  -15.3229 C   0  0  0  0  0  0  0  0  0  0  0  0
   23.1673  -21.5845  -14.1225 C   0  0  2  0  0  0  0  0  0  0  0  0
   22.1906  -21.8496  -13.1067 N   0  0  0  0  0  0  0  0  0  0  0  0
   23.0618  -20.1891  -14.6539 C   0  0  0  0  0  0  0  0  0  0  0  0
   23.0865  -19.2600  -13.8085 O   0  0  0  0  0  0  0  0  0  0  0  0
   25.2625  -18.6443  -14.8751 C   0  0  0  0  0  0  0  0  0  0  0  0
   24.9638  -18.6585  -16.3575 C   0  0  1  0  0  0  0  0  0  0  0  0
   25.6452  -19.6449  -17.0407 O   0  0  0  0  0  0  0  0  0  0  0  0
   23.4802  -18.6615  -16.6137 C   0  0  2  0  0  0  0  0  0  0  0  0
   22.9395  -19.8617  -16.0097 N   0  0  0  0  0  0  0  0  0  0  0  0
   23.1576  -18.5670  -18.0590 C   0  0  0  0  0  0  0  0  0  0  0  0
   23.4394  -19.5913  -18.7606 O   0  0  0  0  0  0  0  0  0  0  0  0
   22.5746  -17.4282  -18.6523 N   0  0  0  0  0  0  0  0  0  0  0  0
   22.2544  -17.4858  -20.0868 C   0  0  1  0  0  0  0  0  0  0  0  0
   21.2987  -16.3809  -20.4345 C   0  0  0  0  0  0  0  0  0  0  0  0
   19.8881  -16.8567  -20.2880 C   0  0  0  0  0  0  0  0  0  0  0  0
   18.8901  -15.7204  -20.5172 C   0  0  0  0  0  0  0  0  0  0  0  0
   17.5128  -16.3225  -20.3330 C   0  0  0  0  0  0  0  0  0  0  0  0
   16.5429  -15.2412  -20.3461 N   0  0  0  0  0  0  0  0  0  0  0  0
   23.4729  -17.5511  -20.8832 C   0  0  0  0  0  0  0  0  0  0  0  0
   23.3540  -17.8549  -22.2574 O   0  0  0  0  0  0  0  0  0  0  0  0
   24.5952  -17.3527  -20.4064 O   0  0  0  0  0  0  0  0  0  0  0  0
  1  2  1  0
  2  3  2  0
  4  5  1  0
  4  2  1  0
  5  6  1  0
  6  8  1  0
  6  7  1  1
  8 14  1  0
  9  8  2  0
 11 12  1  0
 11 10  1  1
 13 11  1  0
 13 14  1  6
 15 13  1  0
 15 16  2  0
 17 15  1  0
 18 17  1  0
 18 19  1  6
 19 20  1  0
 20 21  1  0
 22 21  1  0
 22 23  1  0
 24 18  1  0
 25 24  1  0
 26 24  2  0
M  END
$$$$
