QTK.pdb
     RDKit          3D

 26 25  0  0  1  0  0  0  0  0999 V2000
   25.1912  -20.8736   -8.4233 N   0  0  0  0  0  0  0  0  0  0  0  0
   23.7700  -21.0002   -8.6336 C   0  0  0  0  0  0  0  0  0  0  0  0
   23.0591  -21.5193   -7.7442 O   0  0  0  0  0  0  0  0  0  0  0  0
   23.2494  -20.4973   -9.9087 C   0  0  0  0  0  0  0  0  0  0  0  0
   24.2878  -19.9834  -10.8489 C   0  0  0  0  0  0  0  0  0  0  0  0
   24.1731  -20.5354  -12.2570 C   0  0  2  0  0  0  0  0  0  0  0  0
   24.3198  -21.9613  -12.2961 N   0  0  0  0  0  0  0  0  0  0  0  0
   25.2292  -19.8391  -13.0572 C   0  0  0  0  0  0  0  0  0  0  0  0
   25.3805  -18.6103  -12.8438 O   0  0  0  0  0  0  0  0  0  0  0  0
   28.8276  -20.7190  -13.2316 C   0  0  0  0  0  0  0  0  0  0  0  0
   28.3276  -20.6442  -14.6568 C   0  0  1  0  0  0  0  0  0  0  0  0
   28.1959  -21.8816  -15.2532 O   0  0  0  0  0  0  0  0  0  0  0  0
   27.0903  -19.7919  -14.7553 C   0  0  2  0  0  0  0  0  0  0  0  0
   26.0437  -20.4614  -14.0110 N   0  0  0  0  0  0  0  0  0  0  0  0
   26.6976  -19.5290  -16.1619 C   0  0  0  0  0  0  0  0  0  0  0  0
   25.6559  -20.1352  -16.5718 O   0  0  0  0  0  0  0  0  0  0  0  0
   27.4112  -18.6667  -17.0198 N   0  0  0  0  0  0  0  0  0  0  0  0
   26.9188  -18.5007  -18.3959 C   0  0  1  0  0  0  0  0  0  0  0  0
   25.8164  -17.4812  -18.4171 C   0  0  0  0  0  0  0  0  0  0  0  0
   25.2980  -17.3142  -19.8103 C   0  0  0  0  0  0  0  0  0  0  0  0
   24.1704  -16.2820  -19.8652 C   0  0  0  0  0  0  0  0  0  0  0  0
   23.7212  -16.2217  -21.3101 C   0  0  0  0  0  0  0  0  0  0  0  0
   22.5502  -15.3651  -21.3825 N   0  0  0  0  0  0  0  0  0  0  0  0
   28.0261  -18.2638  -19.3130 C   0  0  0  0  0  0  0  0  0  0  0  0
   27.8964  -18.7181  -20.6440 O   0  0  0  0  0  0  0  0  0  0  0  0
   29.0641  -17.6862  -18.9735 O   0  0  0  0  0  0  0  0  0  0  0  0
  1  2  1  0
  2  3  2  0
  4  5  1  0
  4  2  1  0
  5  6  1  0
  6  8  1  0
  6  7  1  1
  8 14  1  0
  9  8  2  0
 11 12  1  0
 11 10  1  1
 13 11  1  0
 13 14  1  1
 15 13  1  0
 15 16  2  0
 17 15  1  0
 18 17  1  0
 18 19  1  1
 19 20  1  0
 20 21  1  0
 22 21  1  0
 22 23  1  0
 24 18  1  0
 25 24  1  0
 26 24  2  0
M  END
$$$$
