MYA.pdb
     RDKit          3D

 26 26  0  0  1  0  0  0  0  0999 V2000
   18.8862  -16.3685  -17.4220 C   0  0  0  0  0  0  0  0  0  0  0  0
   19.4152  -14.8861  -16.5577 S   0  0  0  0  0  0  0  0  0  0  0  0
   20.9146  -14.1718  -17.2688 C   0  0  0  0  0  0  0  0  0  0  0  0
   21.4549  -13.0304  -16.4349 C   0  0  0  0  0  0  0  0  0  0  0  0
   20.7343  -11.7767  -16.8768 C   0  0  2  0  0  0  0  0  0  0  0  0
   21.0851  -11.5485  -18.2605 N   0  0  0  0  0  0  0  0  0  0  0  0
   21.1281  -10.5944  -16.0875 C   0  0  0  0  0  0  0  0  0  0  0  0
   21.1433  -10.5392  -14.8389 O   0  0  0  0  0  0  0  0  0  0  0  0
   27.3819  -11.3549  -15.7379 O   0  0  0  0  0  0  0  0  0  0  0  0
   26.3542  -10.4495  -15.9671 C   0  0  0  0  0  0  0  0  0  0  0  0
   25.7622  -10.3951  -17.2069 C   0  0  0  0  0  0  0  0  0  0  0  0
   24.7285   -9.4822  -17.4317 C   0  0  0  0  0  0  0  0  0  0  0  0
   24.3048   -8.6466  -16.4297 C   0  0  0  0  0  0  0  0  0  0  0  0
   23.2215   -7.6956  -16.6792 C   0  0  0  0  0  0  0  0  0  0  0  0
   21.8629   -8.2006  -16.1855 C   0  0  2  0  0  0  0  0  0  0  0  0
   21.5200   -9.4290  -16.8369 N   0  0  0  0  0  0  0  0  0  0  0  0
   20.8822   -7.1625  -16.5669 C   0  0  0  0  0  0  0  0  0  0  0  0
   20.5642   -6.9941  -17.7614 O   0  0  0  0  0  0  0  0  0  0  0  0
   24.9050   -8.7097  -15.1918 C   0  0  0  0  0  0  0  0  0  0  0  0
   25.9412   -9.6149  -14.9427 C   0  0  0  0  0  0  0  0  0  0  0  0
   18.1971   -5.2697  -15.0286 C   0  0  0  0  0  0  0  0  0  0  0  0
   19.3755   -5.3053  -15.9837 C   0  0  2  0  0  0  0  0  0  0  0  0
   20.2916   -6.3455  -15.5773 N   0  0  0  0  0  0  0  0  0  0  0  0
   20.0637   -3.9924  -16.0263 C   0  0  0  0  0  0  0  0  0  0  0  0
   21.2427   -3.8611  -15.6179 O   0  0  0  0  0  0  0  0  0  0  0  0
   19.4172   -2.8706  -16.5216 O   0  0  0  0  0  0  0  0  0  0  0  0
  2  1  1  0
  3  2  1  0
  4  5  1  0
  4  3  1  0
  5  6  1  6
  5  7  1  0
  7  8  2  0
  9 10  1  0
 10 20  2  0
 10 11  1  0
 11 12  2  0
 12 13  1  0
 13 14  1  0
 15 14  1  6
 15 17  1  0
 16  7  1  0
 16 15  1  0
 17 18  2  0
 19 13  2  0
 20 19  1  0
 22 21  1  1
 22 24  1  0
 23 22  1  0
 23 17  1  0
 24 26  1  0
 25 24  2  0
M  END
$$$$
