MYA.pdb
     RDKit          3D

 26 26  0  0  1  0  0  0  0  0999 V2000
   15.1584  -22.3458  -13.5404 C   0  0  0  0  0  0  0  0  0  0  0  0
   16.4191  -23.1372  -14.5448 S   0  0  0  0  0  0  0  0  0  0  0  0
   17.8403  -23.6765  -13.5683 C   0  0  0  0  0  0  0  0  0  0  0  0
   17.4403  -24.6027  -12.4404 C   0  0  0  0  0  0  0  0  0  0  0  0
   18.7017  -24.9519  -11.6831 C   0  0  2  0  0  0  0  0  0  0  0  0
   19.4767  -25.8320  -12.5283 N   0  0  0  0  0  0  0  0  0  0  0  0
   18.4201  -25.6439  -10.4112 C   0  0  0  0  0  0  0  0  0  0  0  0
   18.2474  -26.8758  -10.2888 O   0  0  0  0  0  0  0  0  0  0  0  0
   16.7977  -26.1898   -1.7548 O   0  0  0  0  0  0  0  0  0  0  0  0
   17.1697  -25.7363   -3.0135 C   0  0  0  0  0  0  0  0  0  0  0  0
   16.3913  -24.8020   -3.6552 C   0  0  0  0  0  0  0  0  0  0  0  0
   16.7706  -24.3492   -4.9215 C   0  0  0  0  0  0  0  0  0  0  0  0
   17.9067  -24.8283   -5.5229 C   0  0  0  0  0  0  0  0  0  0  0  0
   18.2917  -24.3453   -6.8491 C   0  0  0  0  0  0  0  0  0  0  0  0
   17.9898  -25.3556   -7.9593 C   0  0  2  0  0  0  0  0  0  0  0  0
   18.3435  -24.8140   -9.2370 N   0  0  0  0  0  0  0  0  0  0  0  0
   16.5291  -25.5785   -7.9177 C   0  0  0  0  0  0  0  0  0  0  0  0
   15.7424  -24.7410   -8.4035 O   0  0  0  0  0  0  0  0  0  0  0  0
   18.6788  -25.7639   -4.8710 C   0  0  0  0  0  0  0  0  0  0  0  0
   18.3198  -26.2322   -3.6034 C   0  0  0  0  0  0  0  0  0  0  0  0
   14.3018  -28.4525   -7.1282 C   0  0  0  0  0  0  0  0  0  0  0  0
   14.5812  -26.9814   -7.3732 C   0  0  2  0  0  0  0  0  0  0  0  0
   16.0058  -26.7486   -7.3238 N   0  0  0  0  0  0  0  0  0  0  0  0
   13.8802  -26.1352   -6.3772 C   0  0  0  0  0  0  0  0  0  0  0  0
   14.4516  -25.7565   -5.3265 O   0  0  0  0  0  0  0  0  0  0  0  0
   12.5679  -25.7394   -6.5840 O   0  0  0  0  0  0  0  0  0  0  0  0
  2  1  1  0
  3  2  1  0
  4  5  1  0
  4  3  1  0
  5  6  1  6
  5  7  1  0
  7  8  2  0
  9 10  1  0
 10 20  2  0
 10 11  1  0
 11 12  2  0
 12 13  1  0
 13 14  1  0
 15 14  1  1
 15 17  1  0
 16  7  1  0
 16 15  1  0
 17 18  2  0
 19 13  2  0
 20 19  1  0
 22 21  1  1
 22 24  1  0
 23 22  1  0
 23 17  1  0
 24 26  1  0
 25 24  2  0
M  END
$$$$
