MYA.pdb
     RDKit          3D

 26 26  0  0  1  0  0  0  0  0999 V2000
   11.4500  -13.9158  -11.8361 C   0  0  0  0  0  0  0  0  0  0  0  0
   11.9340  -12.4983  -12.8265 S   0  0  0  0  0  0  0  0  0  0  0  0
   13.7274  -12.3483  -12.9851 C   0  0  0  0  0  0  0  0  0  0  0  0
   14.1331  -11.0855  -13.7136 C   0  0  0  0  0  0  0  0  0  0  0  0
   15.6397  -11.1097  -13.8403 C   0  0  2  0  0  0  0  0  0  0  0  0
   16.0459  -12.4970  -13.8355 N   0  0  0  0  0  0  0  0  0  0  0  0
   16.3087  -10.4168  -12.7230 C   0  0  0  0  0  0  0  0  0  0  0  0
   16.6846  -10.9631  -11.6634 O   0  0  0  0  0  0  0  0  0  0  0  0
   22.5739   -9.7637  -15.0495 O   0  0  0  0  0  0  0  0  0  0  0  0
   21.4889   -9.1419  -14.4459 C   0  0  0  0  0  0  0  0  0  0  0  0
   21.5475   -8.8219  -13.1099 C   0  0  0  0  0  0  0  0  0  0  0  0
   20.4528   -8.1961  -12.5079 C   0  0  0  0  0  0  0  0  0  0  0  0
   19.3289   -7.9017  -13.2372 C   0  0  0  0  0  0  0  0  0  0  0  0
   18.1901   -7.2464  -12.5938 C   0  0  0  0  0  0  0  0  0  0  0  0
   17.2427   -8.2374  -11.9120 C   0  0  2  0  0  0  0  0  0  0  0  0
   16.5333   -9.0045  -12.8914 N   0  0  0  0  0  0  0  0  0  0  0  0
   16.2774   -7.4164  -11.1509 C   0  0  0  0  0  0  0  0  0  0  0  0
   15.3599   -6.8056  -11.7353 O   0  0  0  0  0  0  0  0  0  0  0  0
   19.2811   -8.2267  -14.5745 C   0  0  0  0  0  0  0  0  0  0  0  0
   20.3639   -8.8532  -15.1993 C   0  0  0  0  0  0  0  0  0  0  0  0
   15.5080   -6.8050   -7.5511 C   0  0  0  0  0  0  0  0  0  0  0  0
   15.4470   -6.4791   -9.0317 C   0  0  2  0  0  0  0  0  0  0  0  0
   16.3844   -7.3141   -9.7460 N   0  0  0  0  0  0  0  0  0  0  0  0
   15.7388   -5.0450   -9.2717 C   0  0  0  0  0  0  0  0  0  0  0  0
   16.7942   -4.6818   -9.8446 O   0  0  0  0  0  0  0  0  0  0  0  0
   14.8469   -4.0643   -8.8664 O   0  0  0  0  0  0  0  0  0  0  0  0
  2  1  1  0
  3  2  1  0
  4  5  1  0
  4  3  1  0
  5  6  1  1
  5  7  1  0
  7  8  2  0
  9 10  1  0
 10 20  2  0
 10 11  1  0
 11 12  2  0
 12 13  1  0
 13 14  1  0
 15 14  1  6
 15 17  1  0
 16  7  1  0
 16 15  1  0
 17 18  2  0
 19 13  2  0
 20 19  1  0
 22 21  1  1
 22 24  1  0
 23 22  1  0
 23 17  1  0
 24 26  1  0
 25 24  2  0
M  END
$$$$
