MYA.pdb
     RDKit          3D

 26 26  0  0  1  0  0  0  0  0999 V2000
   31.9590  -22.3033  -21.4596 C   0  0  0  0  0  0  0  0  0  0  0  0
   31.3930  -22.7544  -19.8162 S   0  0  0  0  0  0  0  0  0  0  0  0
   29.9724  -21.7736  -19.2832 C   0  0  0  0  0  0  0  0  0  0  0  0
   29.4317  -22.2310  -17.9458 C   0  0  0  0  0  0  0  0  0  0  0  0
   28.1824  -21.4243  -17.6718 C   0  0  2  0  0  0  0  0  0  0  0  0
   28.5803  -20.0370  -17.5886 N   0  0  0  0  0  0  0  0  0  0  0  0
   27.5331  -21.8073  -16.4040 C   0  0  0  0  0  0  0  0  0  0  0  0
   27.1494  -22.9614  -16.1156 O   0  0  0  0  0  0  0  0  0  0  0  0
   24.5205  -20.9172   -8.2153 O   0  0  0  0  0  0  0  0  0  0  0  0
   25.1430  -20.6875   -9.4352 C   0  0  0  0  0  0  0  0  0  0  0  0
   24.5377  -19.8727  -10.3627 C   0  0  0  0  0  0  0  0  0  0  0  0
   25.1688  -19.6450  -11.5884 C   0  0  0  0  0  0  0  0  0  0  0  0
   26.3795  -20.2258  -11.8688 C   0  0  0  0  0  0  0  0  0  0  0  0
   27.0287  -19.9788  -13.1563 C   0  0  0  0  0  0  0  0  0  0  0  0
   26.5866  -20.9632  -14.2425 C   0  0  2  0  0  0  0  0  0  0  0  0
   27.3382  -20.7526  -15.4432 N   0  0  0  0  0  0  0  0  0  0  0  0
   25.1634  -20.6632  -14.5057 C   0  0  0  0  0  0  0  0  0  0  0  0
   24.8267  -19.5860  -15.0374 O   0  0  0  0  0  0  0  0  0  0  0  0
   26.9766  -21.0402  -10.9325 C   0  0  0  0  0  0  0  0  0  0  0  0
   26.3646  -21.2831   -9.6989 C   0  0  0  0  0  0  0  0  0  0  0  0
   22.2311  -22.3189  -15.4169 C   0  0  0  0  0  0  0  0  0  0  0  0
   22.7835  -21.2897  -14.4486 C   0  0  2  0  0  0  0  0  0  0  0  0
   24.1639  -21.5983  -14.1560 N   0  0  0  0  0  0  0  0  0  0  0  0
   21.9825  -21.2513  -13.2011 C   0  0  0  0  0  0  0  0  0  0  0  0
   20.8139  -20.7949  -13.1909 O   0  0  0  0  0  0  0  0  0  0  0  0
   22.5085  -21.7219  -12.0080 O   0  0  0  0  0  0  0  0  0  0  0  0
  2  1  1  0
  3  2  1  0
  4  5  1  0
  4  3  1  0
  5  6  1  1
  5  7  1  0
  7  8  2  0
  9 10  1  0
 10 20  2  0
 10 11  1  0
 11 12  2  0
 12 13  1  0
 13 14  1  0
 15 14  1  1
 15 17  1  0
 16  7  1  0
 16 15  1  0
 17 18  2  0
 19 13  2  0
 20 19  1  0
 22 21  1  6
 22 24  1  0
 23 22  1  0
 23 17  1  0
 24 26  1  0
 25 24  2  0
M  END
$$$$
