MYA.pdb
     RDKit          3D

 26 26  0  0  1  0  0  0  0  0999 V2000
   14.2014  -10.1303  -19.5964 C   0  0  0  0  0  0  0  0  0  0  0  0
   14.5523   -9.1977  -18.1025 S   0  0  0  0  0  0  0  0  0  0  0  0
   16.3051   -9.2304  -17.6654 C   0  0  0  0  0  0  0  0  0  0  0  0
   16.6228   -8.3084  -16.5083 C   0  0  0  0  0  0  0  0  0  0  0  0
   18.1197   -8.3558  -16.2999 C   0  0  2  0  0  0  0  0  0  0  0  0
   18.4357   -9.6646  -15.7737 N   0  0  0  0  0  0  0  0  0  0  0  0
   18.5863   -7.3354  -15.3424 C   0  0  0  0  0  0  0  0  0  0  0  0
   18.3075   -7.3154  -14.1241 O   0  0  0  0  0  0  0  0  0  0  0  0
   23.1991  -10.1304  -12.4626 O   0  0  0  0  0  0  0  0  0  0  0  0
   22.7791   -8.9601  -13.0810 C   0  0  0  0  0  0  0  0  0  0  0  0
   22.8476   -8.8542  -14.4502 C   0  0  0  0  0  0  0  0  0  0  0  0
   22.4233   -7.6743  -15.0669 C   0  0  0  0  0  0  0  0  0  0  0  0
   21.9428   -6.6294  -14.3192 C   0  0  0  0  0  0  0  0  0  0  0  0
   21.5023   -5.3999  -14.9783 C   0  0  0  0  0  0  0  0  0  0  0  0
   19.9776   -5.2731  -15.0400 C   0  0  2  0  0  0  0  0  0  0  0  0
   19.4251   -6.2946  -15.8779 N   0  0  0  0  0  0  0  0  0  0  0  0
   19.7054   -3.9527  -15.6461 C   0  0  0  0  0  0  0  0  0  0  0  0
   19.9057   -3.7558  -16.8616 O   0  0  0  0  0  0  0  0  0  0  0  0
   21.8788   -6.7464  -12.9485 C   0  0  0  0  0  0  0  0  0  0  0  0
   22.2974   -7.9171  -12.3085 C   0  0  0  0  0  0  0  0  0  0  0  0
   17.8593   -0.9004  -14.6552 C   0  0  0  0  0  0  0  0  0  0  0  0
   18.9011   -1.6321  -15.4807 C   0  0  2  0  0  0  0  0  0  0  0  0
   19.2130   -2.8940  -14.8509 N   0  0  0  0  0  0  0  0  0  0  0  0
   20.1262   -0.8112  -15.6373 C   0  0  0  0  0  0  0  0  0  0  0  0
   21.1803   -1.0887  -15.0162 O   0  0  0  0  0  0  0  0  0  0  0  0
   20.1368    0.2900  -16.4793 O   0  0  0  0  0  0  0  0  0  0  0  0
  2  1  1  0
  3  2  1  0
  4  5  1  0
  4  3  1  0
  5  6  1  1
  5  7  1  0
  7  8  2  0
  9 10  1  0
 10 20  2  0
 10 11  1  0
 11 12  2  0
 12 13  1  0
 13 14  1  0
 15 14  1  6
 15 17  1  0
 16  7  1  0
 16 15  1  0
 17 18  2  0
 19 13  2  0
 20 19  1  0
 22 21  1  1
 22 24  1  0
 23 22  1  0
 23 17  1  0
 24 26  1  0
 25 24  2  0
M  END
$$$$
