MYA.pdb
     RDKit          3D

 26 26  0  0  1  0  0  0  0  0999 V2000
   23.7322   -9.7362  -22.2180 C   0  0  0  0  0  0  0  0  0  0  0  0
   23.2301  -11.4391  -21.9487 S   0  0  0  0  0  0  0  0  0  0  0  0
   22.6968  -11.7397  -20.2489 C   0  0  0  0  0  0  0  0  0  0  0  0
   21.6957  -10.7093  -19.7734 C   0  0  0  0  0  0  0  0  0  0  0  0
   21.4278  -10.9908  -18.3120 C   0  0  2  0  0  0  0  0  0  0  0  0
   20.7560  -12.2688  -18.2402 N   0  0  0  0  0  0  0  0  0  0  0  0
   20.5656   -9.9674  -17.6915 C   0  0  0  0  0  0  0  0  0  0  0  0
   19.5268   -9.4986  -18.2048 O   0  0  0  0  0  0  0  0  0  0  0  0
   15.2126  -12.4986  -15.5114 O   0  0  0  0  0  0  0  0  0  0  0  0
   16.2997  -11.6785  -15.2390 C   0  0  0  0  0  0  0  0  0  0  0  0
   16.1455  -10.3127  -15.2775 C   0  0  0  0  0  0  0  0  0  0  0  0
   17.2428   -9.4926  -15.0023 C   0  0  0  0  0  0  0  0  0  0  0  0
   18.4634  -10.0388  -14.6966 C   0  0  0  0  0  0  0  0  0  0  0  0
   19.6037   -9.1680  -14.4109 C   0  0  0  0  0  0  0  0  0  0  0  0
   20.1947   -8.5312  -15.6717 C   0  0  2  0  0  0  0  0  0  0  0  0
   20.9745   -9.4891  -16.3963 N   0  0  0  0  0  0  0  0  0  0  0  0
   21.0806   -7.4461  -15.1999 C   0  0  0  0  0  0  0  0  0  0  0  0
   22.2214   -7.6990  -14.7629 O   0  0  0  0  0  0  0  0  0  0  0  0
   18.6065  -11.4080  -14.6610 C   0  0  0  0  0  0  0  0  0  0  0  0
   17.5231  -12.2494  -14.9326 C   0  0  0  0  0  0  0  0  0  0  0  0
   20.9295   -3.7054  -15.1335 C   0  0  0  0  0  0  0  0  0  0  0  0
   21.5579   -5.0568  -14.8492 C   0  0  2  0  0  0  0  0  0  0  0  0
   20.6423   -6.1037  -15.2389 N   0  0  0  0  0  0  0  0  0  0  0  0
   21.9155   -5.1845  -13.4156 C   0  0  0  0  0  0  0  0  0  0  0  0
   21.2289   -5.8841  -12.6326 O   0  0  0  0  0  0  0  0  0  0  0  0
   23.0244   -4.5299  -12.9022 O   0  0  0  0  0  0  0  0  0  0  0  0
  2  1  1  0
  3  2  1  0
  4  5  1  0
  4  3  1  0
  5  6  1  6
  5  7  1  0
  7  8  2  0
  9 10  1  0
 10 20  2  0
 10 11  1  0
 11 12  2  0
 12 13  1  0
 13 14  1  0
 15 14  1  1
 15 17  1  0
 16  7  1  0
 16 15  1  0
 17 18  2  0
 19 13  2  0
 20 19  1  0
 22 21  1  1
 22 24  1  0
 23 22  1  0
 23 17  1  0
 24 26  1  0
 25 24  2  0
M  END
$$$$
