HVN.pdb
     RDKit          3D

 26 26  0  0  1  0  0  0  0  0999 V2000
    9.0807  -17.4864   16.1824 N   0  0  0  0  0  0  0  0  0  0  0  0
    8.2149  -17.3467   17.3161 C   0  0  1  0  0  0  0  0  0  0  0  0
    7.8167  -18.6777   17.9125 C   0  0  0  0  0  0  0  0  0  0  0  0
    6.9405  -19.3651   16.9276 C   0  0  0  0  0  0  0  0  0  0  0  0
    7.2935  -20.5126   16.2575 C   0  0  0  0  0  0  0  0  0  0  0  0
    6.2514  -20.8236   15.4661 N   0  0  0  0  0  0  0  0  0  0  0  0
    5.2935  -19.8914   15.6508 C   0  0  0  0  0  0  0  0  0  0  0  0
    5.7003  -18.9807   16.5509 N   0  0  0  0  0  0  0  0  0  0  0  0
    8.9208  -16.5872   18.4300 C   0  0  0  0  0  0  0  0  0  0  0  0
   10.1518  -16.7137   18.5754 O   0  0  0  0  0  0  0  0  0  0  0  0
    8.0374  -13.1336   22.0060 C   0  0  0  0  0  0  0  0  0  0  0  0
    7.5382  -13.9208   20.7983 C   0  0  1  0  0  0  0  0  0  0  0  0
    7.5324  -12.8623   19.6742 C   0  0  0  0  0  0  0  0  0  0  0  0
    8.5498  -14.9736   20.3958 C   0  0  2  0  0  0  0  0  0  0  0  0
    8.1444  -15.7672   19.2550 N   0  0  0  0  0  0  0  0  0  0  0  0
    8.8503  -15.9063   21.4700 C   0  0  0  0  0  0  0  0  0  0  0  0
    8.0330  -16.7744   21.9017 O   0  0  0  0  0  0  0  0  0  0  0  0
   13.6108  -17.9884   24.4755 N   0  0  0  0  0  0  0  0  0  0  0  0
   12.3298  -18.3416   23.9038 C   0  0  0  0  0  0  0  0  0  0  0  0
   11.8209  -19.4038   24.3038 O   0  0  0  0  0  0  0  0  0  0  0  0
   11.7907  -17.4016   22.9225 C   0  0  0  0  0  0  0  0  0  0  0  0
   10.4300  -16.8623   23.1807 C   0  0  2  0  0  0  0  0  0  0  0  0
   10.1112  -15.8958   22.1106 N   0  0  0  0  0  0  0  0  0  0  0  0
   10.3692  -16.1482   24.4593 C   0  0  0  0  0  0  0  0  0  0  0  0
   10.0773  -16.7407   25.6696 O   0  0  0  0  0  0  0  0  0  0  0  0
   10.5961  -14.9007   24.4770 O   0  0  0  0  0  0  0  0  0  0  0  0
  2  1  1  6
  2  9  1  0
  3  4  1  0
  3  2  1  0
  4  8  1  0
  5  4  2  0
  5  6  1  0
  6  7  1  0
  8  7  2  0
  9 10  2  0
 12 11  1  1
 12 13  1  0
 12 14  1  0
 14 16  1  0
 15  9  1  0
 14 15  1  6
 16 23  1  0
 16 17  2  0
 18 19  1  0
 19 20  2  0
 19 21  1  0
 22 21  1  6
 22 24  1  0
 23 22  1  0
 24 26  2  0
 24 25  1  0
M  END
$$$$
