HVN.pdb
     RDKit          3D

 26 26  0  0  1  0  0  0  0  0999 V2000
    9.7835  -13.9301   20.8061 N   0  0  0  0  0  0  0  0  0  0  0  0
    8.5367  -13.8729   21.5106 C   0  0  1  0  0  0  0  0  0  0  0  0
    7.5204  -14.8568   20.9770 C   0  0  0  0  0  0  0  0  0  0  0  0
    7.3191  -14.5547   19.5353 C   0  0  0  0  0  0  0  0  0  0  0  0
    7.1174  -13.2886   19.0385 C   0  0  0  0  0  0  0  0  0  0  0  0
    6.9791  -13.4229   17.7074 N   0  0  0  0  0  0  0  0  0  0  0  0
    7.0936  -14.7329   17.4053 C   0  0  0  0  0  0  0  0  0  0  0  0
    7.3042  -15.4495   18.5220 N   0  0  0  0  0  0  0  0  0  0  0  0
    8.7391  -14.2377   22.9741 C   0  0  0  0  0  0  0  0  0  0  0  0
    9.6878  -14.9781   23.2970 O   0  0  0  0  0  0  0  0  0  0  0  0
    6.9484  -12.9976   27.5395 C   0  0  0  0  0  0  0  0  0  0  0  0
    6.7327  -13.0598   26.0304 C   0  0  1  0  0  0  0  0  0  0  0  0
    6.7743  -11.5736   25.6140 C   0  0  0  0  0  0  0  0  0  0  0  0
    7.9091  -13.7318   25.3534 C   0  0  2  0  0  0  0  0  0  0  0  0
    7.8369  -13.7176   23.9076 N   0  0  0  0  0  0  0  0  0  0  0  0
    8.0704  -15.1208   25.7516 C   0  0  0  0  0  0  0  0  0  0  0  0
    7.1985  -16.0195   25.5512 O   0  0  0  0  0  0  0  0  0  0  0  0
   10.2256  -19.5208   27.4922 N   0  0  0  0  0  0  0  0  0  0  0  0
   10.9001  -18.9292   26.3575 C   0  0  0  0  0  0  0  0  0  0  0  0
   11.7694  -19.6277   25.8064 O   0  0  0  0  0  0  0  0  0  0  0  0
   10.4738  -17.5777   25.9983 C   0  0  0  0  0  0  0  0  0  0  0  0
    9.4044  -16.9640   26.8282 C   0  0  2  0  0  0  0  0  0  0  0  0
    9.2467  -15.5584   26.4035 N   0  0  0  0  0  0  0  0  0  0  0  0
    9.7619  -16.9631   28.2497 C   0  0  0  0  0  0  0  0  0  0  0  0
    9.8130  -18.0910   29.0411 O   0  0  0  0  0  0  0  0  0  0  0  0
   10.0462  -15.8618   28.8103 O   0  0  0  0  0  0  0  0  0  0  0  0
  2  1  1  6
  2  9  1  0
  3  4  1  0
  3  2  1  0
  4  8  1  0
  5  4  2  0
  5  6  1  0
  6  7  1  0
  8  7  2  0
  9 10  2  0
 12 11  1  1
 12 13  1  0
 12 14  1  0
 14 16  1  0
 15  9  1  0
 14 15  1  6
 16 23  1  0
 16 17  2  0
 18 19  1  0
 19 20  2  0
 19 21  1  0
 22 21  1  6
 22 24  1  0
 23 22  1  0
 24 26  2  0
 24 25  1  0
M  END
$$$$
