HVN.pdb
     RDKit          3D

 26 26  0  0  1  0  0  0  0  0999 V2000
    9.8382  -15.9195   14.8449 N   0  0  0  0  0  0  0  0  0  0  0  0
    8.7801  -15.9974   15.8085 C   0  0  1  0  0  0  0  0  0  0  0  0
    8.1665  -17.3768   15.8897 C   0  0  0  0  0  0  0  0  0  0  0  0
    7.3934  -17.5968   14.6390 C   0  0  0  0  0  0  0  0  0  0  0  0
    7.1593  -16.6195   13.7008 C   0  0  0  0  0  0  0  0  0  0  0  0
    6.4343  -17.1974   12.7263 N   0  0  0  0  0  0  0  0  0  0  0  0
    6.2344  -18.4884   13.0638 C   0  0  0  0  0  0  0  0  0  0  0  0
    6.8196  -18.7552   14.2433 N   0  0  0  0  0  0  0  0  0  0  0  0
    9.3115  -15.6968   17.2026 C   0  0  0  0  0  0  0  0  0  0  0  0
   10.4785  -16.0185   17.4976 O   0  0  0  0  0  0  0  0  0  0  0  0
    8.0089  -13.2179   21.4080 C   0  0  0  0  0  0  0  0  0  0  0  0
    7.5996  -13.7736   20.0474 C   0  0  1  0  0  0  0  0  0  0  0  0
    7.4646  -12.5023   19.1815 C   0  0  0  0  0  0  0  0  0  0  0  0
    8.7257  -14.5887   19.4464 C   0  0  2  0  0  0  0  0  0  0  0  0
    8.4529  -15.0623   18.1059 N   0  0  0  0  0  0  0  0  0  0  0  0
    9.0634  -15.7570   20.2433 C   0  0  0  0  0  0  0  0  0  0  0  0
    8.3846  -16.8280   20.2505 O   0  0  0  0  0  0  0  0  0  0  0  0
   13.3185  -18.2421   23.2092 N   0  0  0  0  0  0  0  0  0  0  0  0
   12.4599  -18.5883   22.0977 C   0  0  0  0  0  0  0  0  0  0  0  0
   12.3141  -19.8024   21.8702 O   0  0  0  0  0  0  0  0  0  0  0  0
   11.8679  -17.4625   21.3770 C   0  0  0  0  0  0  0  0  0  0  0  0
   10.5619  -16.9550   21.8727 C   0  0  2  0  0  0  0  0  0  0  0  0
   10.2044  -15.7621   21.0789 N   0  0  0  0  0  0  0  0  0  0  0  0
   10.6428  -16.5475   23.2784 C   0  0  0  0  0  0  0  0  0  0  0  0
   10.6402  -17.4219   24.3445 O   0  0  0  0  0  0  0  0  0  0  0  0
   10.7203  -15.3127   23.5560 O   0  0  0  0  0  0  0  0  0  0  0  0
  2  1  1  6
  2  9  1  0
  3  4  1  0
  3  2  1  0
  4  8  1  0
  5  4  2  0
  5  6  1  0
  6  7  1  0
  8  7  2  0
  9 10  2  0
 12 11  1  1
 12 13  1  0
 12 14  1  0
 14 16  1  0
 15  9  1  0
 14 15  1  6
 16 23  1  0
 16 17  2  0
 18 19  1  0
 19 20  2  0
 19 21  1  0
 22 21  1  6
 22 24  1  0
 23 22  1  0
 24 26  2  0
 24 25  1  0
M  END
$$$$
