HVN.pdb
     RDKit          3D

 26 26  0  0  1  0  0  0  0  0999 V2000
    9.0105  -16.5813   15.9116 N   0  0  0  0  0  0  0  0  0  0  0  0
    8.3630  -16.7469   17.1795 C   0  0  1  0  0  0  0  0  0  0  0  0
    8.2859  -18.1942   17.6097 C   0  0  0  0  0  0  0  0  0  0  0  0
    7.3392  -18.8834   16.6936 C   0  0  0  0  0  0  0  0  0  0  0  0
    6.5401  -18.2309   15.7848 C   0  0  0  0  0  0  0  0  0  0  0  0
    5.8345  -19.1839   15.1497 N   0  0  0  0  0  0  0  0  0  0  0  0
    6.1954  -20.3802   15.6588 C   0  0  0  0  0  0  0  0  0  0  0  0
    7.1249  -20.2159   16.6149 N   0  0  0  0  0  0  0  0  0  0  0  0
    9.1459  -16.0307   18.2705 C   0  0  0  0  0  0  0  0  0  0  0  0
   10.3914  -16.0600   18.2527 O   0  0  0  0  0  0  0  0  0  0  0  0
    7.2996  -12.7514   20.0073 C   0  0  0  0  0  0  0  0  0  0  0  0
    7.8685  -13.7201   21.0395 C   0  0  1  0  0  0  0  0  0  0  0  0
    6.6571  -14.6157   21.3774 C   0  0  0  0  0  0  0  0  0  0  0  0
    8.9087  -14.6204   20.4060 C   0  0  2  0  0  0  0  0  0  0  0  0
    8.4213  -15.3602   19.2611 N   0  0  0  0  0  0  0  0  0  0  0  0
    9.4507  -15.5972   21.3366 C   0  0  0  0  0  0  0  0  0  0  0  0
    9.0332  -16.7907   21.4315 O   0  0  0  0  0  0  0  0  0  0  0  0
   12.8935  -17.9691   24.4161 N   0  0  0  0  0  0  0  0  0  0  0  0
   13.5224  -16.7990   23.8434 C   0  0  0  0  0  0  0  0  0  0  0  0
   14.7383  -16.6610   24.0664 O   0  0  0  0  0  0  0  0  0  0  0  0
   12.6461  -15.9203   23.0705 C   0  0  0  0  0  0  0  0  0  0  0  0
   11.2095  -16.2941   22.9970 C   0  0  2  0  0  0  0  0  0  0  0  0
   10.5075  -15.2579   22.2132 N   0  0  0  0  0  0  0  0  0  0  0  0
   10.5973  -16.3378   24.3281 C   0  0  0  0  0  0  0  0  0  0  0  0
    9.6013  -15.4858   24.7560 O   0  0  0  0  0  0  0  0  0  0  0  0
   10.9957  -17.2093   25.1586 O   0  0  0  0  0  0  0  0  0  0  0  0
  2  1  1  6
  2  9  1  0
  3  4  1  0
  3  2  1  0
  4  8  1  0
  5  4  2  0
  5  6  1  0
  6  7  1  0
  8  7  2  0
  9 10  2  0
 12 11  1  6
 12 13  1  0
 12 14  1  0
 14 16  1  0
 15  9  1  0
 14 15  1  6
 16 23  1  0
 16 17  2  0
 18 19  1  0
 19 20  2  0
 19 21  1  0
 22 21  1  1
 22 24  1  0
 23 22  1  0
 24 26  2  0
 24 25  1  0
M  END
$$$$
