HVN.pdb
     RDKit          3D

 26 26  0  0  1  0  0  0  0  0999 V2000
    7.1376  -14.8263   20.7350 N   0  0  0  0  0  0  0  0  0  0  0  0
    8.5687  -14.8857   20.7866 C   0  0  1  0  0  0  0  0  0  0  0  0
    9.2265  -13.7660   20.0124 C   0  0  0  0  0  0  0  0  0  0  0  0
    8.7257  -13.8345   18.6142 C   0  0  0  0  0  0  0  0  0  0  0  0
    7.6489  -13.1167   18.1499 C   0  0  0  0  0  0  0  0  0  0  0  0
    7.5083  -13.4433   16.8527 N   0  0  0  0  0  0  0  0  0  0  0  0
    8.4724  -14.3337   16.5391 C   0  0  0  0  0  0  0  0  0  0  0  0
    9.2357  -14.5887   17.6149 N   0  0  0  0  0  0  0  0  0  0  0  0
    9.0525  -14.7380   22.2219 C   0  0  0  0  0  0  0  0  0  0  0  0
   10.2744  -14.7667   22.4642 O   0  0  0  0  0  0  0  0  0  0  0  0
    7.4362  -13.5549   26.8300 C   0  0  0  0  0  0  0  0  0  0  0  0
    7.0944  -13.8194   25.3669 C   0  0  1  0  0  0  0  0  0  0  0  0
    6.9412  -12.3973   24.7853 C   0  0  0  0  0  0  0  0  0  0  0  0
    8.2699  -14.4542   24.6535 C   0  0  2  0  0  0  0  0  0  0  0  0
    8.0891  -14.5739   23.2222 N   0  0  0  0  0  0  0  0  0  0  0  0
    8.5785  -15.7854   25.1500 C   0  0  0  0  0  0  0  0  0  0  0  0
    7.8022  -16.7812   25.0329 O   0  0  0  0  0  0  0  0  0  0  0  0
   11.6605  -20.3128   25.3488 N   0  0  0  0  0  0  0  0  0  0  0  0
   11.9161  -19.1324   26.1448 C   0  0  0  0  0  0  0  0  0  0  0  0
   12.6059  -19.2947   27.1671 O   0  0  0  0  0  0  0  0  0  0  0  0
   11.3289  -17.8899   25.6460 C   0  0  0  0  0  0  0  0  0  0  0  0
   10.1079  -17.3960   26.3345 C   0  0  2  0  0  0  0  0  0  0  0  0
    9.8009  -16.0499   25.8104 N   0  0  0  0  0  0  0  0  0  0  0  0
   10.3186  -17.2745   27.7800 C   0  0  0  0  0  0  0  0  0  0  0  0
   10.0753  -18.2811   28.6903 O   0  0  0  0  0  0  0  0  0  0  0  0
   10.7526  -16.1783   28.2470 O   0  0  0  0  0  0  0  0  0  0  0  0
  2  1  1  1
  2  9  1  0
  3  4  1  0
  3  2  1  0
  4  8  1  0
  5  4  2  0
  5  6  1  0
  6  7  1  0
  8  7  2  0
  9 10  2  0
 12 11  1  1
 12 13  1  0
 12 14  1  0
 14 16  1  0
 15  9  1  0
 14 15  1  6
 16 23  1  0
 16 17  2  0
 18 19  1  0
 19 20  2  0
 19 21  1  0
 22 21  1  6
 22 24  1  0
 23 22  1  0
 24 26  2  0
 24 25  1  0
M  END
$$$$
