HVN.pdb
     RDKit          3D

 26 26  0  0  1  0  0  0  0  0999 V2000
    8.7853  -15.1256   20.4580 N   0  0  0  0  0  0  0  0  0  0  0  0
    7.9292  -15.4952   21.5464 C   0  0  1  0  0  0  0  0  0  0  0  0
    7.7399  -16.9911   21.6567 C   0  0  0  0  0  0  0  0  0  0  0  0
    7.1993  -17.4707   20.3574 C   0  0  0  0  0  0  0  0  0  0  0  0
    6.1460  -16.8795   19.7006 C   0  0  0  0  0  0  0  0  0  0  0  0
    5.9554  -17.5911   18.5752 N   0  0  0  0  0  0  0  0  0  0  0  0
    6.8670  -18.5855   18.5501 C   0  0  0  0  0  0  0  0  0  0  0  0
    7.6458  -18.5284   19.6434 N   0  0  0  0  0  0  0  0  0  0  0  0
    8.5371  -15.0550   22.8703 C   0  0  0  0  0  0  0  0  0  0  0  0
    9.7756  -15.0514   23.0064 O   0  0  0  0  0  0  0  0  0  0  0  0
    7.2684  -12.8915   27.2369 C   0  0  0  0  0  0  0  0  0  0  0  0
    6.8218  -13.4811   25.9025 C   0  0  1  0  0  0  0  0  0  0  0  0
    6.5214  -12.2267   25.0538 C   0  0  0  0  0  0  0  0  0  0  0  0
    7.9732  -14.1954   25.2259 C   0  0  2  0  0  0  0  0  0  0  0  0
    7.6650  -14.6676   23.8926 N   0  0  0  0  0  0  0  0  0  0  0  0
    8.4436  -15.3462   25.9799 C   0  0  0  0  0  0  0  0  0  0  0  0
    7.7256  -16.3558   26.2502 O   0  0  0  0  0  0  0  0  0  0  0  0
   10.5999  -18.1121   24.9946 N   0  0  0  0  0  0  0  0  0  0  0  0
   11.8144  -17.6290   25.6144 C   0  0  0  0  0  0  0  0  0  0  0  0
   12.8795  -17.9172   25.0401 O   0  0  0  0  0  0  0  0  0  0  0  0
   11.6376  -16.8588   26.8443 C   0  0  0  0  0  0  0  0  0  0  0  0
   10.2422  -16.5579   27.2579 C   0  0  2  0  0  0  0  0  0  0  0  0
    9.7702  -15.4035   26.4668 N   0  0  0  0  0  0  0  0  0  0  0  0
   10.1700  -16.1874   28.6743 C   0  0  0  0  0  0  0  0  0  0  0  0
   10.1078  -17.0910   29.7138 O   0  0  0  0  0  0  0  0  0  0  0  0
   10.1620  -14.9587   28.9876 O   0  0  0  0  0  0  0  0  0  0  0  0
  2  1  1  6
  2  9  1  0
  3  4  1  0
  3  2  1  0
  4  8  1  0
  5  4  2  0
  5  6  1  0
  6  7  1  0
  8  7  2  0
  9 10  2  0
 12 11  1  1
 12 13  1  0
 12 14  1  0
 14 16  1  0
 15  9  1  0
 14 15  1  6
 16 23  1  0
 16 17  2  0
 18 19  1  0
 19 20  2  0
 19 21  1  0
 22 21  1  6
 22 24  1  0
 23 22  1  0
 24 26  2  0
 24 25  1  0
M  END
$$$$
