HVN.pdb
     RDKit          3D

 26 26  0  0  1  0  0  0  0  0999 V2000
    9.2432  -15.6067   13.8959 N   0  0  0  0  0  0  0  0  0  0  0  0
    8.8001  -15.9746   15.2083 C   0  0  1  0  0  0  0  0  0  0  0  0
    9.1249  -17.4107   15.5516 C   0  0  0  0  0  0  0  0  0  0  0  0
    8.3586  -18.2781   14.6184 C   0  0  0  0  0  0  0  0  0  0  0  0
    7.0427  -18.0662   14.2810 C   0  0  0  0  0  0  0  0  0  0  0  0
    6.7095  -19.0486   13.4248 N   0  0  0  0  0  0  0  0  0  0  0  0
    7.7923  -19.8339   13.2479 C   0  0  0  0  0  0  0  0  0  0  0  0
    8.8226  -19.3743   13.9775 N   0  0  0  0  0  0  0  0  0  0  0  0
    9.5017  -15.1275   16.2600 C   0  0  0  0  0  0  0  0  0  0  0  0
   10.7211  -14.8967   16.1494 O   0  0  0  0  0  0  0  0  0  0  0  0
    7.2659  -14.2989   20.0369 C   0  0  0  0  0  0  0  0  0  0  0  0
    8.0022  -13.2325   19.2318 C   0  0  1  0  0  0  0  0  0  0  0  0
    8.6310  -12.3450   20.3277 C   0  0  0  0  0  0  0  0  0  0  0  0
    9.1516  -13.8482   18.4615 C   0  0  2  0  0  0  0  0  0  0  0  0
    8.7347  -14.6372   17.3216 N   0  0  0  0  0  0  0  0  0  0  0  0
    9.9850  -14.7090   19.2851 C   0  0  0  0  0  0  0  0  0  0  0  0
    9.8164  -15.9610   19.3952 O   0  0  0  0  0  0  0  0  0  0  0  0
   14.1489  -16.3570   21.9363 N   0  0  0  0  0  0  0  0  0  0  0  0
   14.4379  -15.0242   21.4539 C   0  0  0  0  0  0  0  0  0  0  0  0
   15.5939  -14.6067   21.6448 O   0  0  0  0  0  0  0  0  0  0  0  0
   13.3297  -14.3309   20.7992 C   0  0  0  0  0  0  0  0  0  0  0  0
   12.0433  -15.0671   20.6891 C   0  0  2  0  0  0  0  0  0  0  0  0
   11.0639  -14.1794   20.0306 N   0  0  0  0  0  0  0  0  0  0  0  0
   11.5107  -15.4177   22.0089 C   0  0  0  0  0  0  0  0  0  0  0  0
   11.8124  -16.5795   22.6875 O   0  0  0  0  0  0  0  0  0  0  0  0
   10.7165  -14.6135   22.5837 O   0  0  0  0  0  0  0  0  0  0  0  0
  2  1  1  6
  2  9  1  0
  3  4  1  0
  3  2  1  0
  4  8  1  0
  5  4  2  0
  5  6  1  0
  6  7  1  0
  8  7  2  0
  9 10  2  0
 12 11  1  1
 12 13  1  0
 12 14  1  0
 14 16  1  0
 15  9  1  0
 14 15  1  6
 16 23  1  0
 16 17  2  0
 18 19  1  0
 19 20  2  0
 19 21  1  0
 22 21  1  1
 22 24  1  0
 23 22  1  0
 24 26  2  0
 24 25  1  0
M  END
$$$$
