HVN.pdb
     RDKit          3D

 26 26  0  0  1  0  0  0  0  0999 V2000
    9.2415  -13.0374   20.6466 N   0  0  0  0  0  0  0  0  0  0  0  0
    8.1949  -13.6923   21.3746 C   0  0  1  0  0  0  0  0  0  0  0  0
    7.8564  -15.0536   20.8106 C   0  0  0  0  0  0  0  0  0  0  0  0
    7.4370  -14.8607   19.3974 C   0  0  0  0  0  0  0  0  0  0  0  0
    7.5492  -13.6692   18.7205 C   0  0  0  0  0  0  0  0  0  0  0  0
    7.0709  -13.8913   17.4831 N   0  0  0  0  0  0  0  0  0  0  0  0
    6.6797  -15.1807   17.4115 C   0  0  0  0  0  0  0  0  0  0  0  0
    6.8978  -15.7973   18.5851 N   0  0  0  0  0  0  0  0  0  0  0  0
    8.6240  -13.9345   22.8145 C   0  0  0  0  0  0  0  0  0  0  0  0
    9.7742  -14.3511   23.0508 O   0  0  0  0  0  0  0  0  0  0  0  0
    7.0579  -13.0810   27.5258 C   0  0  0  0  0  0  0  0  0  0  0  0
    6.7004  -13.1832   26.0462 C   0  0  1  0  0  0  0  0  0  0  0  0
    6.5848  -11.7049   25.6158 C   0  0  0  0  0  0  0  0  0  0  0  0
    7.8532  -13.7734   25.2611 C   0  0  2  0  0  0  0  0  0  0  0  0
    7.6935  -13.6747   23.8257 N   0  0  0  0  0  0  0  0  0  0  0  0
    8.0798  -15.1776   25.5622 C   0  0  0  0  0  0  0  0  0  0  0  0
    7.2187  -16.0890   25.3733 O   0  0  0  0  0  0  0  0  0  0  0  0
   11.9000  -16.7608   23.8503 N   0  0  0  0  0  0  0  0  0  0  0  0
   10.8582  -17.5590   24.4587 C   0  0  0  0  0  0  0  0  0  0  0  0
   10.1364  -18.2092   23.6819 O   0  0  0  0  0  0  0  0  0  0  0  0
   10.7834  -17.5015   25.9176 C   0  0  0  0  0  0  0  0  0  0  0  0
    9.5076  -17.0215   26.5099 C   0  0  2  0  0  0  0  0  0  0  0  0
    9.3129  -15.6167   26.0981 N   0  0  0  0  0  0  0  0  0  0  0  0
    9.5495  -17.0552   27.9747 C   0  0  0  0  0  0  0  0  0  0  0  0
    9.4203  -18.2003   28.7317 O   0  0  0  0  0  0  0  0  0  0  0  0
    9.7138  -15.9696   28.6091 O   0  0  0  0  0  0  0  0  0  0  0  0
  2  1  1  6
  2  9  1  0
  3  4  1  0
  3  2  1  0
  4  8  1  0
  5  4  2  0
  5  6  1  0
  6  7  1  0
  8  7  2  0
  9 10  2  0
 12 11  1  1
 12 13  1  0
 12 14  1  0
 14 16  1  0
 15  9  1  0
 14 15  1  6
 16 23  1  0
 16 17  2  0
 18 19  1  0
 19 20  2  0
 19 21  1  0
 22 21  1  6
 22 24  1  0
 23 22  1  0
 24 26  2  0
 24 25  1  0
M  END
$$$$
