HVN.pdb
     RDKit          3D

 26 26  0  0  1  0  0  0  0  0999 V2000
    9.7010  -13.9850   20.9933 N   0  0  0  0  0  0  0  0  0  0  0  0
    8.4626  -13.8954   21.7092 C   0  0  1  0  0  0  0  0  0  0  0  0
    7.3491  -14.6747   21.0469 C   0  0  0  0  0  0  0  0  0  0  0  0
    7.3229  -14.2858   19.6122 C   0  0  0  0  0  0  0  0  0  0  0  0
    7.4927  -12.9971   19.1642 C   0  0  0  0  0  0  0  0  0  0  0  0
    7.4052  -13.0488   17.8230 N   0  0  0  0  0  0  0  0  0  0  0  0
    7.1886  -14.3323   17.4675 C   0  0  0  0  0  0  0  0  0  0  0  0
    7.1344  -15.1130   18.5596 N   0  0  0  0  0  0  0  0  0  0  0  0
    8.6132  -14.4892   23.1024 C   0  0  0  0  0  0  0  0  0  0  0  0
    9.3665  -15.4665   23.2754 O   0  0  0  0  0  0  0  0  0  0  0  0
    7.4667  -11.7588   26.1283 C   0  0  0  0  0  0  0  0  0  0  0  0
    7.1137  -13.2178   26.4004 C   0  0  1  0  0  0  0  0  0  0  0  0
    5.6809  -13.3374   25.8375 C   0  0  0  0  0  0  0  0  0  0  0  0
    7.9831  -14.1382   25.5692 C   0  0  2  0  0  0  0  0  0  0  0  0
    7.8878  -13.9024   24.1441 N   0  0  0  0  0  0  0  0  0  0  0  0
    7.6805  -15.5443   25.7828 C   0  0  0  0  0  0  0  0  0  0  0  0
    6.5717  -16.0820   25.4842 O   0  0  0  0  0  0  0  0  0  0  0  0
   10.7134  -17.9427   24.1297 N   0  0  0  0  0  0  0  0  0  0  0  0
   10.2993  -18.6039   25.3478 C   0  0  0  0  0  0  0  0  0  0  0  0
   11.2087  -19.0436   26.0737 O   0  0  0  0  0  0  0  0  0  0  0  0
    8.8568  -18.6731   25.5748 C   0  0  0  0  0  0  0  0  0  0  0  0
    8.3021  -17.8208   26.6587 C   0  0  2  0  0  0  0  0  0  0  0  0
    8.6380  -16.4158   26.3521 N   0  0  0  0  0  0  0  0  0  0  0  0
    8.8975  -18.1486   27.9574 C   0  0  0  0  0  0  0  0  0  0  0  0
    8.7371  -19.3547   28.6060 O   0  0  0  0  0  0  0  0  0  0  0  0
    9.6114  -17.2790   28.5423 O   0  0  0  0  0  0  0  0  0  0  0  0
  2  1  1  6
  2  9  1  0
  3  4  1  0
  3  2  1  0
  4  8  1  0
  5  4  2  0
  5  6  1  0
  6  7  1  0
  8  7  2  0
  9 10  2  0
 12 11  1  6
 12 13  1  0
 12 14  1  0
 14 16  1  0
 15  9  1  0
 14 15  1  6
 16 23  1  0
 16 17  2  0
 18 19  1  0
 19 20  2  0
 19 21  1  0
 22 21  1  6
 22 24  1  0
 23 22  1  0
 24 26  2  0
 24 25  1  0
M  END
$$$$
