HVN.pdb
     RDKit          3D

 26 26  0  0  1  0  0  0  0  0999 V2000
    8.5960  -14.7581   20.4466 N   0  0  0  0  0  0  0  0  0  0  0  0
    7.8371  -15.2160   21.5729 C   0  0  1  0  0  0  0  0  0  0  0  0
    7.7067  -16.7216   21.6143 C   0  0  0  0  0  0  0  0  0  0  0  0
    7.0652  -17.1503   20.3435 C   0  0  0  0  0  0  0  0  0  0  0  0
    6.0074  -16.4941   19.7596 C   0  0  0  0  0  0  0  0  0  0  0  0
    5.7129  -17.1756   18.6380 N   0  0  0  0  0  0  0  0  0  0  0  0
    6.5676  -18.2154   18.5441 C   0  0  0  0  0  0  0  0  0  0  0  0
    7.4119  -18.2174   19.5892 N   0  0  0  0  0  0  0  0  0  0  0  0
    8.5280  -14.8233   22.8708 C   0  0  0  0  0  0  0  0  0  0  0  0
    9.7725  -14.7831   22.9163 O   0  0  0  0  0  0  0  0  0  0  0  0
    7.5676  -12.9249   27.4292 C   0  0  0  0  0  0  0  0  0  0  0  0
    7.0543  -13.3488   26.0565 C   0  0  1  0  0  0  0  0  0  0  0  0
    6.8974  -12.0032   25.3157 C   0  0  0  0  0  0  0  0  0  0  0  0
    8.1154  -14.1315   25.3114 C   0  0  2  0  0  0  0  0  0  0  0  0
    7.7229  -14.5198   23.9732 N   0  0  0  0  0  0  0  0  0  0  0  0
    8.5078  -15.3487   26.0032 C   0  0  0  0  0  0  0  0  0  0  0  0
    7.6903  -16.2397   26.3849 O   0  0  0  0  0  0  0  0  0  0  0  0
   10.4168  -18.2561   24.5817 N   0  0  0  0  0  0  0  0  0  0  0  0
   11.6162  -17.6512   25.1186 C   0  0  0  0  0  0  0  0  0  0  0  0
   12.5627  -17.5038   24.3251 O   0  0  0  0  0  0  0  0  0  0  0  0
   11.5658  -17.2869   26.5335 C   0  0  0  0  0  0  0  0  0  0  0  0
   10.2606  -16.8121   27.0625 C   0  0  2  0  0  0  0  0  0  0  0  0
    9.8660  -15.6132   26.2958 N   0  0  0  0  0  0  0  0  0  0  0  0
   10.3612  -16.4263   28.4731 C   0  0  0  0  0  0  0  0  0  0  0  0
   10.3791  -17.3173   29.5252 O   0  0  0  0  0  0  0  0  0  0  0  0
   10.4373  -15.1956   28.7688 O   0  0  0  0  0  0  0  0  0  0  0  0
  2  1  1  6
  2  9  1  0
  3  4  1  0
  3  2  1  0
  4  8  1  0
  5  4  2  0
  5  6  1  0
  6  7  1  0
  8  7  2  0
  9 10  2  0
 12 11  1  1
 12 13  1  0
 12 14  1  0
 14 16  1  0
 15  9  1  0
 14 15  1  6
 16 23  1  0
 16 17  2  0
 18 19  1  0
 19 20  2  0
 19 21  1  0
 22 21  1  6
 22 24  1  0
 23 22  1  0
 24 26  2  0
 24 25  1  0
M  END
$$$$
