HVN.pdb
     RDKit          3D

 26 26  0  0  1  0  0  0  0  0999 V2000
    7.1861  -15.2328   21.2859 N   0  0  0  0  0  0  0  0  0  0  0  0
    8.6122  -15.2887   21.4174 C   0  0  1  0  0  0  0  0  0  0  0  0
    9.3207  -14.3250   20.4926 C   0  0  0  0  0  0  0  0  0  0  0  0
    8.5485  -14.2735   19.2232 C   0  0  0  0  0  0  0  0  0  0  0  0
    8.6099  -15.2416   18.2489 C   0  0  0  0  0  0  0  0  0  0  0  0
    7.7801  -14.8436   17.2680 N   0  0  0  0  0  0  0  0  0  0  0  0
    7.2310  -13.6675   17.6367 C   0  0  0  0  0  0  0  0  0  0  0  0
    7.6933  -13.2979   18.8429 N   0  0  0  0  0  0  0  0  0  0  0  0
    9.0291  -14.8939   22.8268 C   0  0  0  0  0  0  0  0  0  0  0  0
   10.2253  -14.6391   23.0647 O   0  0  0  0  0  0  0  0  0  0  0  0
    7.2469  -13.2486   27.1743 C   0  0  0  0  0  0  0  0  0  0  0  0
    6.9487  -13.7801   25.7757 C   0  0  1  0  0  0  0  0  0  0  0  0
    6.7754  -12.4899   24.9454 C   0  0  0  0  0  0  0  0  0  0  0  0
    8.1571  -14.4982   25.2119 C   0  0  2  0  0  0  0  0  0  0  0  0
    8.0353  -14.8334   23.8089 N   0  0  0  0  0  0  0  0  0  0  0  0
    8.4559  -15.7356   25.9143 C   0  0  0  0  0  0  0  0  0  0  0  0
    7.6034  -16.6490   26.1311 O   0  0  0  0  0  0  0  0  0  0  0  0
   10.6889  -18.0087   24.6013 N   0  0  0  0  0  0  0  0  0  0  0  0
   11.7898  -18.0036   25.5398 C   0  0  0  0  0  0  0  0  0  0  0  0
   12.9009  -18.3341   25.0889 O   0  0  0  0  0  0  0  0  0  0  0  0
   11.4573  -17.6088   26.9076 C   0  0  0  0  0  0  0  0  0  0  0  0
   10.0470  -17.2236   27.1753 C   0  0  2  0  0  0  0  0  0  0  0  0
    9.7554  -15.9959   26.4082 N   0  0  0  0  0  0  0  0  0  0  0  0
    9.8322  -16.9246   28.5941 C   0  0  0  0  0  0  0  0  0  0  0  0
    9.6421  -17.8785   29.5714 O   0  0  0  0  0  0  0  0  0  0  0  0
    9.8154  -15.7138   28.9705 O   0  0  0  0  0  0  0  0  0  0  0  0
  2  1  1  1
  2  9  1  0
  3  4  1  0
  3  2  1  0
  4  8  1  0
  5  4  2  0
  5  6  1  0
  6  7  1  0
  8  7  2  0
  9 10  2  0
 12 11  1  1
 12 13  1  0
 12 14  1  0
 14 16  1  0
 15  9  1  0
 14 15  1  6
 16 23  1  0
 16 17  2  0
 18 19  1  0
 19 20  2  0
 19 21  1  0
 22 21  1  1
 22 24  1  0
 23 22  1  0
 24 26  2  0
 24 25  1  0
M  END
$$$$
