MHQ.pdb
     RDKit          3D

 28 28  0  0  1  0  0  0  0  0999 V2000
   28.1028  -18.2509   -5.2585 C   0  0  0  0  0  0  0  0  0  0  0  0
   27.5607  -19.9242   -5.6008 S   0  0  0  0  0  0  0  0  0  0  0  0
   27.8566  -20.4582   -7.2689 C   0  0  0  0  0  0  0  0  0  0  0  0
   26.9537  -19.8383   -8.2740 C   0  0  0  0  0  0  0  0  0  0  0  0
   26.3049  -20.7906   -9.2394 C   0  0  2  0  0  0  0  0  0  0  0  0
   27.2445  -21.8329   -9.6257 N   0  0  0  0  0  0  0  0  0  0  0  0
   25.9081  -20.0838  -10.5013 C   0  0  0  0  0  0  0  0  0  0  0  0
   25.0448  -19.2013  -10.4731 O   0  0  0  0  0  0  0  0  0  0  0  0
   26.4869  -20.3846  -11.7495 N   0  0  0  0  0  0  0  0  0  0  0  0
   26.2513  -19.8682  -13.0260 C   0  0  1  0  0  0  0  0  0  0  0  0
   27.3584  -19.7873  -14.0296 C   0  0  0  0  0  0  0  0  0  0  0  0
   27.0459  -19.0253  -15.2559 C   0  0  0  0  0  0  0  0  0  0  0  0
   26.8664  -17.6220  -15.3165 C   0  0  0  0  0  0  0  0  0  0  0  0
   26.5973  -17.2591  -16.5732 N   0  0  0  0  0  0  0  0  0  0  0  0
   26.5993  -18.3757  -17.3103 C   0  0  0  0  0  0  0  0  0  0  0  0
   26.8692  -19.4235  -16.5076 N   0  0  0  0  0  0  0  0  0  0  0  0
   25.0268  -20.3817  -13.6403 C   0  0  0  0  0  0  0  0  0  0  0  0
   24.7880  -21.6285  -13.4726 O   0  0  0  0  0  0  0  0  0  0  0  0
   20.6842  -21.4108  -11.3323 N   0  0  0  0  0  0  0  0  0  0  0  0
   19.9872  -21.5546  -12.5831 C   0  0  0  0  0  0  0  0  0  0  0  0
   18.8335  -22.0350  -12.6602 O   0  0  0  0  0  0  0  0  0  0  0  0
   20.6962  -21.1051  -13.8011 C   0  0  0  0  0  0  0  0  0  0  0  0
   22.0614  -20.5932  -13.4050 C   0  0  0  0  0  0  0  0  0  0  0  0
   22.7935  -20.1883  -14.6727 C   0  0  2  0  0  0  0  0  0  0  0  0
   24.0881  -19.6236  -14.3988 N   0  0  0  0  0  0  0  0  0  0  0  0
   21.9705  -19.2172  -15.4605 C   0  0  0  0  0  0  0  0  0  0  0  0
   20.8684  -19.5395  -15.9640 O   0  0  0  0  0  0  0  0  0  0  0  0
   22.4280  -17.9265  -15.6447 O   0  0  0  0  0  0  0  0  0  0  0  0
  2  1  1  0
  3  2  1  0
  4  3  1  0
  5  4  1  0
  5  6  1  6
  7  5  1  0
  8  7  2  0
  9  7  1  0
 10  9  1  0
 10 11  1  6
 11 12  1  0
 12 13  2  0
 12 16  1  0
 13 14  1  0
 14 15  1  0
 16 15  2  0
 17 18  2  0
 17 10  1  0
 20 21  2  0
 20 19  1  0
 22 20  1  0
 24 23  1  1
 23 22  1  0
 24 25  1  0
 25 17  1  0
 26 28  1  0
 26 24  1  0
 27 26  2  0
M  END
$$$$
