MHQ.pdb
     RDKit          3D

 28 28  0  0  1  0  0  0  0  0999 V2000
   20.8002   -9.3334  -21.6462 C   0  0  0  0  0  0  0  0  0  0  0  0
   21.7662   -9.6967  -20.1813 S   0  0  0  0  0  0  0  0  0  0  0  0
   20.7943  -10.0135  -18.7286 C   0  0  0  0  0  0  0  0  0  0  0  0
   21.5917  -10.4170  -17.5407 C   0  0  0  0  0  0  0  0  0  0  0  0
   20.7965  -10.7919  -16.3213 C   0  0  2  0  0  0  0  0  0  0  0  0
   19.7087  -11.6875  -16.6861 N   0  0  0  0  0  0  0  0  0  0  0  0
   20.1638   -9.5805  -15.7034 C   0  0  0  0  0  0  0  0  0  0  0  0
   19.1998   -9.0365  -16.2508 O   0  0  0  0  0  0  0  0  0  0  0  0
   20.6268   -9.0185  -14.4979 N   0  0  0  0  0  0  0  0  0  0  0  0
   20.2217   -7.8829  -13.7921 C   0  0  1  0  0  0  0  0  0  0  0  0
   20.0126   -7.9425  -12.3115 C   0  0  0  0  0  0  0  0  0  0  0  0
   18.7427   -8.5590  -11.8764 C   0  0  0  0  0  0  0  0  0  0  0  0
   17.7525   -9.0785  -12.7452 C   0  0  0  0  0  0  0  0  0  0  0  0
   16.7355   -9.5612  -12.0268 N   0  0  0  0  0  0  0  0  0  0  0  0
   17.0418   -9.3683  -10.7387 C   0  0  0  0  0  0  0  0  0  0  0  0
   18.2456   -8.7678  -10.6656 N   0  0  0  0  0  0  0  0  0  0  0  0
   20.9590   -6.6761  -14.1667 C   0  0  0  0  0  0  0  0  0  0  0  0
   22.2045   -6.6576  -13.8704 O   0  0  0  0  0  0  0  0  0  0  0  0
   21.6037   -3.8509  -19.2897 N   0  0  0  0  0  0  0  0  0  0  0  0
   22.3946   -2.9657  -18.4762 C   0  0  0  0  0  0  0  0  0  0  0  0
   23.1402   -2.0869  -18.9656 O   0  0  0  0  0  0  0  0  0  0  0  0
   22.2938   -3.1333  -17.0100 C   0  0  0  0  0  0  0  0  0  0  0  0
   21.4122   -4.3252  -16.7188 C   0  0  0  0  0  0  0  0  0  0  0  0
   21.3016   -4.4660  -15.2105 C   0  0  2  0  0  0  0  0  0  0  0  0
   20.4177   -5.5339  -14.8253 N   0  0  0  0  0  0  0  0  0  0  0  0
   20.8414   -3.1788  -14.6007 C   0  0  0  0  0  0  0  0  0  0  0  0
   19.6808   -3.0389  -14.1474 O   0  0  0  0  0  0  0  0  0  0  0  0
   21.7111   -2.1075  -14.5298 O   0  0  0  0  0  0  0  0  0  0  0  0
  2  1  1  0
  3  2  1  0
  4  3  1  0
  5  4  1  0
  5  6  1  6
  7  5  1  0
  8  7  2  0
  9  7  1  0
 10  9  1  0
 10 11  1  1
 11 12  1  0
 12 13  2  0
 12 16  1  0
 13 14  1  0
 14 15  1  0
 16 15  2  0
 17 18  2  0
 17 10  1  0
 20 21  2  0
 20 19  1  0
 22 20  1  0
 24 23  1  6
 23 22  1  0
 24 25  1  0
 25 17  1  0
 26 28  1  0
 26 24  1  0
 27 26  2  0
M  END
$$$$
