MHQ.pdb
     RDKit          3D

 28 28  0  0  1  0  0  0  0  0999 V2000
   19.5612  -17.4957  -11.7849 C   0  0  0  0  0  0  0  0  0  0  0  0
   19.7856  -18.6182  -13.1635 S   0  0  0  0  0  0  0  0  0  0  0  0
   19.5617  -17.8669  -14.7576 C   0  0  0  0  0  0  0  0  0  0  0  0
   20.3052  -16.5924  -14.9379 C   0  0  0  0  0  0  0  0  0  0  0  0
   20.0261  -15.8529  -16.2166 C   0  0  2  0  0  0  0  0  0  0  0  0
   20.3173  -16.7019  -17.3624 N   0  0  0  0  0  0  0  0  0  0  0  0
   20.9116  -14.6487  -16.3410 C   0  0  0  0  0  0  0  0  0  0  0  0
   22.0987  -14.7142  -16.0071 O   0  0  0  0  0  0  0  0  0  0  0  0
   20.4438  -13.4148  -16.8330 N   0  0  0  0  0  0  0  0  0  0  0  0
   21.1182  -12.2389  -17.1707 C   0  0  1  0  0  0  0  0  0  0  0  0
   21.4302  -11.9252  -18.6002 C   0  0  0  0  0  0  0  0  0  0  0  0
   22.1466  -12.9852  -19.3387 C   0  0  0  0  0  0  0  0  0  0  0  0
   21.5931  -13.7620  -20.3852 C   0  0  0  0  0  0  0  0  0  0  0  0
   22.5077  -14.6259  -20.8332 N   0  0  0  0  0  0  0  0  0  0  0  0
   23.6175  -14.4273  -20.1127 C   0  0  0  0  0  0  0  0  0  0  0  0
   23.3852  -13.4426  -19.2230 N   0  0  0  0  0  0  0  0  0  0  0  0
   20.6031  -11.0578  -16.4778 C   0  0  0  0  0  0  0  0  0  0  0  0
   19.3802  -11.1094  -16.1018 O   0  0  0  0  0  0  0  0  0  0  0  0
   23.0767   -5.5756  -14.5413 N   0  0  0  0  0  0  0  0  0  0  0  0
   21.6749   -5.3915  -14.2731 C   0  0  0  0  0  0  0  0  0  0  0  0
   21.2149   -4.3320  -13.7897 O   0  0  0  0  0  0  0  0  0  0  0  0
   20.7766   -6.5217  -14.5953 C   0  0  0  0  0  0  0  0  0  0  0  0
   21.5962   -7.6295  -15.2148 C   0  0  0  0  0  0  0  0  0  0  0  0
   20.6477   -8.7512  -15.6012 C   0  0  2  0  0  0  0  0  0  0  0  0
   21.3357   -9.8702  -16.1880 N   0  0  0  0  0  0  0  0  0  0  0  0
   19.6011   -8.2451  -16.5443 C   0  0  0  0  0  0  0  0  0  0  0  0
   19.8042   -8.1690  -17.7792 O   0  0  0  0  0  0  0  0  0  0  0  0
   18.3729   -7.8477  -16.0517 O   0  0  0  0  0  0  0  0  0  0  0  0
  2  1  1  0
  3  2  1  0
  4  3  1  0
  5  4  1  0
  5  6  1  6
  7  5  1  0
  8  7  2  0
  9  7  1  0
 10  9  1  0
 10 11  1  6
 11 12  1  0
 12 13  2  0
 12 16  1  0
 13 14  1  0
 14 15  1  0
 16 15  2  0
 17 18  2  0
 17 10  1  0
 20 21  2  0
 20 19  1  0
 22 20  1  0
 24 23  1  6
 23 22  1  0
 24 25  1  0
 25 17  1  0
 26 28  1  0
 26 24  1  0
 27 26  2  0
M  END
$$$$
