MHQ.pdb
     RDKit          3D

 28 28  0  0  1  0  0  0  0  0999 V2000
   35.2321  -26.8511  -12.3400 C   0  0  0  0  0  0  0  0  0  0  0  0
   34.9024  -25.1779  -12.8902 S   0  0  0  0  0  0  0  0  0  0  0  0
   34.8397  -24.9913  -14.6557 C   0  0  0  0  0  0  0  0  0  0  0  0
   34.5948  -26.2593  -15.3918 C   0  0  0  0  0  0  0  0  0  0  0  0
   34.6828  -26.1682  -16.8897 C   0  0  2  0  0  0  0  0  0  0  0  0
   33.7143  -25.2052  -17.3927 N   0  0  0  0  0  0  0  0  0  0  0  0
   34.3464  -27.4845  -17.5253 C   0  0  0  0  0  0  0  0  0  0  0  0
   33.1761  -27.7535  -17.8131 O   0  0  0  0  0  0  0  0  0  0  0  0
   35.3251  -28.4540  -17.8179 N   0  0  0  0  0  0  0  0  0  0  0  0
   35.2186  -29.7492  -18.3304 C   0  0  1  0  0  0  0  0  0  0  0  0
   36.4349  -30.4825  -18.8021 C   0  0  0  0  0  0  0  0  0  0  0  0
   37.0422  -29.9660  -20.0457 C   0  0  0  0  0  0  0  0  0  0  0  0
   36.7423  -28.7148  -20.6372 C   0  0  0  0  0  0  0  0  0  0  0  0
   37.4662  -28.5603  -21.7487 N   0  0  0  0  0  0  0  0  0  0  0  0
   38.2120  -29.6629  -21.8847 C   0  0  0  0  0  0  0  0  0  0  0  0
   37.9467  -30.4938  -20.8580 N   0  0  0  0  0  0  0  0  0  0  0  0
   34.3636  -30.6211  -17.5247 C   0  0  0  0  0  0  0  0  0  0  0  0
   34.6472  -30.6991  -16.2784 O   0  0  0  0  0  0  0  0  0  0  0  0
   28.5814  -30.8971  -16.5400 N   0  0  0  0  0  0  0  0  0  0  0  0
   29.0188  -31.9318  -15.6405 C   0  0  0  0  0  0  0  0  0  0  0  0
   28.2858  -32.3920  -14.7357 O   0  0  0  0  0  0  0  0  0  0  0  0
   30.3940  -32.4441  -15.8259 C   0  0  0  0  0  0  0  0  0  0  0  0
   31.0714  -31.6319  -16.9048 C   0  0  0  0  0  0  0  0  0  0  0  0
   32.4876  -32.1573  -17.0642 C   0  0  2  0  0  0  0  0  0  0  0  0
   33.2558  -31.3809  -18.0008 N   0  0  0  0  0  0  0  0  0  0  0  0
   32.4647  -33.5923  -17.4900 C   0  0  0  0  0  0  0  0  0  0  0  0
   32.4002  -33.9233  -18.6976 O   0  0  0  0  0  0  0  0  0  0  0  0
   32.5156  -34.5888  -16.5343 O   0  0  0  0  0  0  0  0  0  0  0  0
  2  1  1  0
  3  2  1  0
  4  3  1  0
  5  4  1  0
  5  6  1  6
  7  5  1  0
  8  7  2  0
  9  7  1  0
 10  9  1  0
 10 11  1  1
 11 12  1  0
 12 13  2  0
 12 16  1  0
 13 14  1  0
 14 15  1  0
 16 15  2  0
 17 18  2  0
 17 10  1  0
 20 21  2  0
 20 19  1  0
 22 20  1  0
 24 23  1  6
 23 22  1  0
 24 25  1  0
 25 17  1  0
 26 28  1  0
 26 24  1  0
 27 26  2  0
M  END
$$$$
