MHQ.pdb
     RDKit          3D

 28 28  0  0  1  0  0  0  0  0999 V2000
   26.7724  -15.7562  -15.0064 C   0  0  0  0  0  0  0  0  0  0  0  0
   27.9218  -16.7423  -15.9643 S   0  0  0  0  0  0  0  0  0  0  0  0
   27.1849  -18.1469  -16.7640 C   0  0  0  0  0  0  0  0  0  0  0  0
   26.3803  -19.0083  -15.8582 C   0  0  0  0  0  0  0  0  0  0  0  0
   27.1683  -19.9089  -14.9485 C   0  0  2  0  0  0  0  0  0  0  0  0
   27.8485  -20.9361  -15.7237 N   0  0  0  0  0  0  0  0  0  0  0  0
   26.2629  -20.6253  -13.9912 C   0  0  0  0  0  0  0  0  0  0  0  0
   25.6568  -21.6393  -14.3511 O   0  0  0  0  0  0  0  0  0  0  0  0
   26.0649  -20.1874  -12.6675 N   0  0  0  0  0  0  0  0  0  0  0  0
   25.2622  -20.6871  -11.6390 C   0  0  1  0  0  0  0  0  0  0  0  0
   25.7656  -20.7216  -10.2302 C   0  0  0  0  0  0  0  0  0  0  0  0
   27.2229  -20.9143  -10.0838 C   0  0  0  0  0  0  0  0  0  0  0  0
   28.1302  -21.0934  -11.1561 C   0  0  0  0  0  0  0  0  0  0  0  0
   29.3678  -21.2381  -10.6757 N   0  0  0  0  0  0  0  0  0  0  0  0
   29.2805  -21.1579   -9.3430 C   0  0  0  0  0  0  0  0  0  0  0  0
   27.9909  -20.9641   -9.0048 N   0  0  0  0  0  0  0  0  0  0  0  0
   23.8854  -20.1947  -11.6891 C   0  0  0  0  0  0  0  0  0  0  0  0
   23.7386  -18.9441  -11.9218 O   0  0  0  0  0  0  0  0  0  0  0  0
   21.5705  -20.5236  -16.2689 N   0  0  0  0  0  0  0  0  0  0  0  0
   21.0616  -21.7320  -15.6760 C   0  0  0  0  0  0  0  0  0  0  0  0
   20.6946  -22.7150  -16.3591 O   0  0  0  0  0  0  0  0  0  0  0  0
   20.9856  -21.7737  -14.1993 C   0  0  0  0  0  0  0  0  0  0  0  0
   21.6014  -20.5093  -13.6473 C   0  0  0  0  0  0  0  0  0  0  0  0
   21.4848  -20.5560  -12.1336 C   0  0  2  0  0  0  0  0  0  0  0  0
   22.7084  -20.9768  -11.5045 N   0  0  0  0  0  0  0  0  0  0  0  0
   20.3649  -21.4619  -11.7264 C   0  0  0  0  0  0  0  0  0  0  0  0
   19.1647  -21.1662  -11.9364 O   0  0  0  0  0  0  0  0  0  0  0  0
   20.6495  -22.6604  -11.1006 O   0  0  0  0  0  0  0  0  0  0  0  0
  2  1  1  0
  3  2  1  0
  4  3  1  0
  5  4  1  0
  5  6  1  6
  7  5  1  0
  8  7  2  0
  9  7  1  0
 10  9  1  0
 10 11  1  1
 11 12  1  0
 12 13  2  0
 12 16  1  0
 13 14  1  0
 14 15  1  0
 16 15  2  0
 17 18  2  0
 17 10  1  0
 20 21  2  0
 20 19  1  0
 22 20  1  0
 24 23  1  6
 23 22  1  0
 24 25  1  0
 25 17  1  0
 26 28  1  0
 26 24  1  0
 27 26  2  0
M  END
$$$$
