MHQ.pdb
     RDKit          3D

 28 28  0  0  1  0  0  0  0  0999 V2000
   27.4412  -16.4668  -17.4169 C   0  0  0  0  0  0  0  0  0  0  0  0
   28.6321  -17.5862  -18.1516 S   0  0  0  0  0  0  0  0  0  0  0  0
   28.9321  -19.0563  -17.2006 C   0  0  0  0  0  0  0  0  0  0  0  0
   27.7245  -19.5991  -16.5247 C   0  0  0  0  0  0  0  0  0  0  0  0
   27.9512  -20.8104  -15.6638 C   0  0  2  0  0  0  0  0  0  0  0  0
   28.2806  -21.9613  -16.4917 N   0  0  0  0  0  0  0  0  0  0  0  0
   26.7059  -21.1695  -14.9089 C   0  0  0  0  0  0  0  0  0  0  0  0
   25.8546  -21.8987  -15.4272 O   0  0  0  0  0  0  0  0  0  0  0  0
   26.4530  -20.7040  -13.6041 N   0  0  0  0  0  0  0  0  0  0  0  0
   25.3531  -20.8731  -12.7594 C   0  0  1  0  0  0  0  0  0  0  0  0
   25.4415  -20.5017  -11.3125 C   0  0  0  0  0  0  0  0  0  0  0  0
   24.2411  -20.8056  -10.5070 C   0  0  0  0  0  0  0  0  0  0  0  0
   23.0490  -21.3802  -11.0109 C   0  0  0  0  0  0  0  0  0  0  0  0
   22.1661  -21.5211  -10.0190 N   0  0  0  0  0  0  0  0  0  0  0  0
   22.7510  -21.0590   -8.9078 C   0  0  0  0  0  0  0  0  0  0  0  0
   23.9918  -20.6347   -9.2166 N   0  0  0  0  0  0  0  0  0  0  0  0
   24.0978  -20.4007  -13.3436 C   0  0  0  0  0  0  0  0  0  0  0  0
   24.1191  -19.2306  -13.8633 O   0  0  0  0  0  0  0  0  0  0  0  0
   20.9616  -22.7193  -17.5336 N   0  0  0  0  0  0  0  0  0  0  0  0
   20.2334  -21.4833  -17.4217 C   0  0  0  0  0  0  0  0  0  0  0  0
   19.2764  -21.1945  -18.1758 O   0  0  0  0  0  0  0  0  0  0  0  0
   20.6636  -20.5452  -16.3620 C   0  0  0  0  0  0  0  0  0  0  0  0
   21.8107  -21.1680  -15.6012 C   0  0  0  0  0  0  0  0  0  0  0  0
   21.7882  -20.6137  -14.1873 C   0  0  2  0  0  0  0  0  0  0  0  0
   22.8689  -21.1214  -13.3845 N   0  0  0  0  0  0  0  0  0  0  0  0
   20.4784  -20.9191  -13.5301 C   0  0  0  0  0  0  0  0  0  0  0  0
   20.2250  -22.0509  -13.0536 O   0  0  0  0  0  0  0  0  0  0  0  0
   19.5136  -19.9341  -13.4401 O   0  0  0  0  0  0  0  0  0  0  0  0
  2  1  1  0
  3  2  1  0
  4  3  1  0
  5  4  1  0
  5  6  1  6
  7  5  1  0
  8  7  2  0
  9  7  1  0
 10  9  1  0
 10 11  1  1
 11 12  1  0
 12 13  2  0
 12 16  1  0
 13 14  1  0
 14 15  1  0
 16 15  2  0
 17 18  2  0
 17 10  1  0
 20 21  2  0
 20 19  1  0
 22 20  1  0
 24 23  1  6
 23 22  1  0
 24 25  1  0
 25 17  1  0
 26 28  1  0
 26 24  1  0
 27 26  2  0
M  END
$$$$
