MHQ.pdb
     RDKit          3D

 28 28  0  0  1  0  0  0  0  0999 V2000
   15.0971  -23.8692    4.6173 C   0  0  0  0  0  0  0  0  0  0  0  0
   16.3829  -22.6223    4.6721 S   0  0  0  0  0  0  0  0  0  0  0  0
   15.9674  -21.1112    3.8358 C   0  0  0  0  0  0  0  0  0  0  0  0
   16.8926  -19.9838    4.1236 C   0  0  0  0  0  0  0  0  0  0  0  0
   16.5527  -18.6788    3.4595 C   0  0  2  0  0  0  0  0  0  0  0  0
   16.6705  -18.8043    2.0142 N   0  0  0  0  0  0  0  0  0  0  0  0
   17.5117  -17.6028    3.8746 C   0  0  0  0  0  0  0  0  0  0  0  0
   18.5439  -17.4074    3.2255 O   0  0  0  0  0  0  0  0  0  0  0  0
   17.2870  -16.7828    4.9973 N   0  0  0  0  0  0  0  0  0  0  0  0
   17.9980  -15.6910    5.5015 C   0  0  1  0  0  0  0  0  0  0  0  0
   17.3689  -14.3344    5.5574 C   0  0  0  0  0  0  0  0  0  0  0  0
   18.2834  -13.2268    5.9025 C   0  0  0  0  0  0  0  0  0  0  0  0
   19.1247  -12.5522    4.9847 C   0  0  0  0  0  0  0  0  0  0  0  0
   19.8175  -11.6065    5.6242 N   0  0  0  0  0  0  0  0  0  0  0  0
   19.4489  -11.6553    6.9096 C   0  0  0  0  0  0  0  0  0  0  0  0
   18.5308  -12.6297    7.0596 N   0  0  0  0  0  0  0  0  0  0  0  0
   18.7081  -15.9884    6.7455 C   0  0  0  0  0  0  0  0  0  0  0  0
   18.0654  -16.6740    7.6153 O   0  0  0  0  0  0  0  0  0  0  0  0
   22.8829  -18.2515    8.3376 N   0  0  0  0  0  0  0  0  0  0  0  0
   22.9512  -17.6590    9.6472 C   0  0  0  0  0  0  0  0  0  0  0  0
   23.3178  -18.2999   10.6584 O   0  0  0  0  0  0  0  0  0  0  0  0
   22.5650  -16.2355    9.7600 C   0  0  0  0  0  0  0  0  0  0  0  0
   22.0888  -15.7550    8.4091 C   0  0  0  0  0  0  0  0  0  0  0  0
   20.5835  -15.9483    8.3495 C   0  0  2  0  0  0  0  0  0  0  0  0
   20.0369  -15.5870    7.0686 N   0  0  0  0  0  0  0  0  0  0  0  0
   19.9147  -15.1572    9.4301 C   0  0  0  0  0  0  0  0  0  0  0  0
   19.5761  -13.9617    9.2621 O   0  0  0  0  0  0  0  0  0  0  0  0
   19.6583  -15.7504   10.6514 O   0  0  0  0  0  0  0  0  0  0  0  0
  2  1  1  0
  3  2  1  0
  4  3  1  0
  5  4  1  0
  5  6  1  6
  7  5  1  0
  8  7  2  0
  9  7  1  0
 10  9  1  0
 10 11  1  1
 11 12  1  0
 12 13  2  0
 12 16  1  0
 13 14  1  0
 14 15  1  0
 16 15  2  0
 17 18  2  0
 17 10  1  0
 20 21  2  0
 20 19  1  0
 22 20  1  0
 24 23  1  6
 23 22  1  0
 24 25  1  0
 25 17  1  0
 26 28  1  0
 26 24  1  0
 27 26  2  0
M  END
$$$$
