MHQ.pdb
     RDKit          3D

 28 28  0  0  1  0  0  0  0  0999 V2000
   26.8593  -28.2897  -15.3507 C   0  0  0  0  0  0  0  0  0  0  0  0
   27.9514  -28.3962  -16.7674 S   0  0  0  0  0  0  0  0  0  0  0  0
   28.8160  -26.8886  -17.1349 C   0  0  0  0  0  0  0  0  0  0  0  0
   28.2418  -25.6842  -16.4795 C   0  0  0  0  0  0  0  0  0  0  0  0
   27.3563  -24.8330  -17.3460 C   0  0  2  0  0  0  0  0  0  0  0  0
   28.0826  -24.3930  -18.5283 N   0  0  0  0  0  0  0  0  0  0  0  0
   26.9316  -23.5918  -16.6189 C   0  0  0  0  0  0  0  0  0  0  0  0
   26.2707  -23.6772  -15.5793 O   0  0  0  0  0  0  0  0  0  0  0  0
   27.2581  -22.3001  -17.0752 N   0  0  0  0  0  0  0  0  0  0  0  0
   26.9096  -21.0351  -16.5957 C   0  0  1  0  0  0  0  0  0  0  0  0
   27.6106  -19.8121  -17.0978 C   0  0  0  0  0  0  0  0  0  0  0  0
   27.3137  -18.5659  -16.3623 C   0  0  0  0  0  0  0  0  0  0  0  0
   26.4597  -18.4710  -15.2368 C   0  0  0  0  0  0  0  0  0  0  0  0
   26.4129  -17.2045  -14.8160 N   0  0  0  0  0  0  0  0  0  0  0  0
   27.2025  -16.4940  -15.6296 C   0  0  0  0  0  0  0  0  0  0  0  0
   27.7339  -17.3229  -16.5491 N   0  0  0  0  0  0  0  0  0  0  0  0
   25.4640  -20.8189  -16.5327 C   0  0  0  0  0  0  0  0  0  0  0  0
   24.7939  -21.1598  -17.5692 O   0  0  0  0  0  0  0  0  0  0  0  0
   21.2279  -22.1418  -12.5556 N   0  0  0  0  0  0  0  0  0  0  0  0
   20.4132  -21.5002  -13.5534 C   0  0  0  0  0  0  0  0  0  0  0  0
   19.1633  -21.5735  -13.5516 O   0  0  0  0  0  0  0  0  0  0  0  0
   21.1188  -20.7343  -14.6040 C   0  0  0  0  0  0  0  0  0  0  0  0
   22.6071  -20.8569  -14.3748 C   0  0  0  0  0  0  0  0  0  0  0  0
   23.3148  -20.1521  -15.5191 C   0  0  2  0  0  0  0  0  0  0  0  0
   24.7460  -20.2694  -15.4309 N   0  0  0  0  0  0  0  0  0  0  0  0
   22.9237  -18.7077  -15.5611 C   0  0  0  0  0  0  0  0  0  0  0  0
   21.9864  -18.2967  -16.2854 O   0  0  0  0  0  0  0  0  0  0  0  0
   23.6077  -17.7923  -14.7844 O   0  0  0  0  0  0  0  0  0  0  0  0
  2  1  1  0
  3  2  1  0
  4  3  1  0
  5  4  1  0
  5  6  1  6
  7  5  1  0
  8  7  2  0
  9  7  1  0
 10  9  1  0
 10 11  1  6
 11 12  1  0
 12 13  2  0
 12 16  1  0
 13 14  1  0
 14 15  1  0
 16 15  2  0
 17 18  2  0
 17 10  1  0
 20 21  2  0
 20 19  1  0
 22 20  1  0
 24 23  1  1
 23 22  1  0
 24 25  1  0
 25 17  1  0
 26 28  1  0
 26 24  1  0
 27 26  2  0
M  END
$$$$
