MHQ.pdb
     RDKit          3D

 28 28  0  0  1  0  0  0  0  0999 V2000
   29.0939  -19.8589   -4.2200 C   0  0  0  0  0  0  0  0  0  0  0  0
   28.3663  -19.2073   -5.7223 S   0  0  0  0  0  0  0  0  0  0  0  0
   27.6149  -20.4376   -6.7602 C   0  0  0  0  0  0  0  0  0  0  0  0
   26.9995  -19.8933   -7.9990 C   0  0  0  0  0  0  0  0  0  0  0  0
   26.4968  -20.9169   -8.9785 C   0  0  2  0  0  0  0  0  0  0  0  0
   27.5612  -21.8477   -9.3239 N   0  0  0  0  0  0  0  0  0  0  0  0
   26.0673  -20.2646  -10.2590 C   0  0  0  0  0  0  0  0  0  0  0  0
   25.1097  -19.4849  -10.2675 O   0  0  0  0  0  0  0  0  0  0  0  0
   26.7194  -20.5036  -11.4841 N   0  0  0  0  0  0  0  0  0  0  0  0
   26.4699  -20.0250  -12.7727 C   0  0  1  0  0  0  0  0  0  0  0  0
   27.5761  -19.9307  -13.7761 C   0  0  0  0  0  0  0  0  0  0  0  0
   27.2089  -19.3115  -15.0660 C   0  0  0  0  0  0  0  0  0  0  0  0
   27.2572  -17.9238  -15.3436 C   0  0  0  0  0  0  0  0  0  0  0  0
   26.8615  -17.7047  -16.6001 N   0  0  0  0  0  0  0  0  0  0  0  0
   26.5647  -18.8974  -17.1289 C   0  0  0  0  0  0  0  0  0  0  0  0
   26.7778  -19.8482  -16.1985 N   0  0  0  0  0  0  0  0  0  0  0  0
   25.2645  -20.5928  -13.3769 C   0  0  0  0  0  0  0  0  0  0  0  0
   25.1556  -21.8679  -13.3341 O   0  0  0  0  0  0  0  0  0  0  0  0
   19.9482  -21.5637  -12.1401 N   0  0  0  0  0  0  0  0  0  0  0  0
   20.0756  -20.1603  -12.4318 C   0  0  0  0  0  0  0  0  0  0  0  0
   19.2595  -19.3082  -12.0128 O   0  0  0  0  0  0  0  0  0  0  0  0
   21.2294  -19.7501  -13.2618 C   0  0  0  0  0  0  0  0  0  0  0  0
   22.0676  -20.9708  -13.5618 C   0  0  0  0  0  0  0  0  0  0  0  0
   23.1147  -20.5764  -14.5890 C   0  0  2  0  0  0  0  0  0  0  0  0
   24.2140  -19.8587  -14.0003 N   0  0  0  0  0  0  0  0  0  0  0  0
   22.4935  -19.7550  -15.6754 C   0  0  0  0  0  0  0  0  0  0  0  0
   21.6447  -20.2340  -16.4641 O   0  0  0  0  0  0  0  0  0  0  0  0
   22.8581  -18.4305  -15.8230 O   0  0  0  0  0  0  0  0  0  0  0  0
  2  1  1  0
  3  2  1  0
  4  3  1  0
  5  4  1  0
  5  6  1  6
  7  5  1  0
  8  7  2  0
  9  7  1  0
 10  9  1  0
 10 11  1  6
 11 12  1  0
 12 13  2  0
 12 16  1  0
 13 14  1  0
 14 15  1  0
 16 15  2  0
 17 18  2  0
 17 10  1  0
 20 21  2  0
 20 19  1  0
 22 20  1  0
 24 23  1  1
 23 22  1  0
 24 25  1  0
 25 17  1  0
 26 28  1  0
 26 24  1  0
 27 26  2  0
M  END
$$$$
