MHQ.pdb
     RDKit          3D

 28 28  0  0  1  0  0  0  0  0999 V2000
   28.7804  -14.3481  -15.1432 C   0  0  0  0  0  0  0  0  0  0  0  0
   27.6609  -12.9903  -15.4816 S   0  0  0  0  0  0  0  0  0  0  0  0
   26.0522  -13.4955  -16.0405 C   0  0  0  0  0  0  0  0  0  0  0  0
   25.1004  -12.3722  -16.2457 C   0  0  0  0  0  0  0  0  0  0  0  0
   23.7458  -12.7565  -16.7722 C   0  0  2  0  0  0  0  0  0  0  0  0
   23.8828  -13.5136  -18.0078 N   0  0  0  0  0  0  0  0  0  0  0  0
   22.9371  -11.5380  -17.1050 C   0  0  0  0  0  0  0  0  0  0  0  0
   22.9859  -11.0515  -18.2389 O   0  0  0  0  0  0  0  0  0  0  0  0
   22.1026  -10.9051  -16.1635 N   0  0  0  0  0  0  0  0  0  0  0  0
   21.2261   -9.8239  -16.2847 C   0  0  1  0  0  0  0  0  0  0  0  0
   19.7620  -10.0000  -16.0302 C   0  0  0  0  0  0  0  0  0  0  0  0
   19.0602  -10.8980  -16.9699 C   0  0  0  0  0  0  0  0  0  0  0  0
   19.6481  -11.5039  -18.1068 C   0  0  0  0  0  0  0  0  0  0  0  0
   18.7387  -12.2529  -18.7354 N   0  0  0  0  0  0  0  0  0  0  0  0
   17.5990  -12.1455  -18.0427 C   0  0  0  0  0  0  0  0  0  0  0  0
   17.8079  -11.3316  -16.9896 N   0  0  0  0  0  0  0  0  0  0  0  0
   21.7229   -8.6031  -15.6498 C   0  0  0  0  0  0  0  0  0  0  0  0
   22.3293   -8.7518  -14.5318 O   0  0  0  0  0  0  0  0  0  0  0  0
   22.4837   -2.6039  -17.4033 N   0  0  0  0  0  0  0  0  0  0  0  0
   22.9519   -2.5912  -16.0426 C   0  0  0  0  0  0  0  0  0  0  0  0
   23.4355   -1.5685  -15.5060 O   0  0  0  0  0  0  0  0  0  0  0  0
   22.8394   -3.8556  -15.2830 C   0  0  0  0  0  0  0  0  0  0  0  0
   22.2493   -4.9122  -16.1874 C   0  0  0  0  0  0  0  0  0  0  0  0
   22.0540   -6.1740  -15.3648 C   0  0  2  0  0  0  0  0  0  0  0  0
   21.5927   -7.2795  -16.1619 N   0  0  0  0  0  0  0  0  0  0  0  0
   21.0958   -5.9200  -14.2431 C   0  0  0  0  0  0  0  0  0  0  0  0
   19.8550   -6.0098  -14.3995 O   0  0  0  0  0  0  0  0  0  0  0  0
   21.5806   -5.5763  -12.9958 O   0  0  0  0  0  0  0  0  0  0  0  0
  2  1  1  0
  3  2  1  0
  4  3  1  0
  5  4  1  0
  5  6  1  6
  7  5  1  0
  8  7  2  0
  9  7  1  0
 10  9  1  0
 10 11  1  1
 11 12  1  0
 12 13  2  0
 12 16  1  0
 13 14  1  0
 14 15  1  0
 16 15  2  0
 17 18  2  0
 17 10  1  0
 20 21  2  0
 20 19  1  0
 22 20  1  0
 24 23  1  6
 23 22  1  0
 24 25  1  0
 25 17  1  0
 26 28  1  0
 26 24  1  0
 27 26  2  0
M  END
$$$$
