KHR.pdb
     RDKit          3D

 31 31  0  0  1  0  0  0  0  0999 V2000
   28.6902  -31.3641  -16.5357 N   0  0  0  0  0  0  0  0  0  0  0  0
   27.7626  -30.7959  -17.4573 C   0  0  1  0  0  0  0  0  0  0  0  0
   26.7313  -31.6522  -18.0337 C   0  0  0  0  0  0  0  0  0  0  0  0
   25.9111  -32.4887  -17.1680 C   0  0  0  0  0  0  0  0  0  0  0  0
   24.9317  -32.0892  -16.1865 C   0  0  0  0  0  0  0  0  0  0  0  0
   24.3014  -32.9664  -15.2005 C   0  0  0  0  0  0  0  0  0  0  0  0
   23.2047  -33.6730  -15.9619 N   0  0  0  0  0  0  0  0  0  0  0  0
   27.1723  -29.5839  -16.7609 C   0  0  0  0  0  0  0  0  0  0  0  0
   27.1240  -29.5730  -15.5218 O   0  0  0  0  0  0  0  0  0  0  0  0
   26.6784  -28.4743  -17.4596 N   0  0  0  0  0  0  0  0  0  0  0  0
   26.1760  -27.2721  -16.7748 C   0  0  1  0  0  0  0  0  0  0  0  0
   26.6364  -26.1080  -17.5838 C   0  0  0  0  0  0  0  0  0  0  0  0
   26.0991  -24.8639  -16.9506 C   0  0  0  0  0  0  0  0  0  0  0  0
   26.4705  -24.2755  -15.7703 C   0  0  0  0  0  0  0  0  0  0  0  0
   25.7264  -23.1761  -15.5904 N   0  0  0  0  0  0  0  0  0  0  0  0
   24.8881  -23.0532  -16.6340 C   0  0  0  0  0  0  0  0  0  0  0  0
   25.1164  -24.0875  -17.4674 N   0  0  0  0  0  0  0  0  0  0  0  0
   24.7360  -27.4081  -16.6279 C   0  0  0  0  0  0  0  0  0  0  0  0
   24.0620  -27.8912  -17.5731 O   0  0  0  0  0  0  0  0  0  0  0  0
   19.2267  -25.9921   -9.6716 N   0  0  0  0  0  0  0  0  0  0  0  0
   18.5493  -26.8157  -10.6296 C   0  0  0  0  0  0  0  0  0  0  0  0
   17.4570  -27.4228  -10.3296 N   0  0  0  0  0  0  0  0  0  0  0  0
   19.0806  -26.9754  -11.9427 N   0  0  0  0  0  0  0  0  0  0  0  0
   20.4987  -26.8500  -12.1761 C   0  0  0  0  0  0  0  0  0  0  0  0
   20.6956  -27.0383  -13.6794 C   0  0  0  0  0  0  0  0  0  0  0  0
   22.1779  -26.8790  -13.9264 C   0  0  0  0  0  0  0  0  0  0  0  0
   22.5662  -27.1154  -15.3587 C   0  0  2  0  0  0  0  0  0  0  0  0
   23.9973  -27.0306  -15.4713 N   0  0  0  0  0  0  0  0  0  0  0  0
   21.8538  -26.1771  -16.2271 C   0  0  0  0  0  0  0  0  0  0  0  0
   20.7959  -26.5536  -17.0330 O   0  0  0  0  0  0  0  0  0  0  0  0
   22.2090  -24.9739  -16.2511 O   0  0  0  0  0  0  0  0  0  0  0  0
  2  1  1  1
  3  2  1  0
  3  4  1  0
  4  5  1  0
  5  6  1  0
  6  7  1  0
  8 10  1  0
  8  2  1  0
  9  8  2  0
 11 10  1  0
 11 12  1  6
 12 13  1  0
 13 17  1  0
 14 13  2  0
 14 15  1  0
 15 16  1  0
 17 16  2  0
 18 11  1  0
 19 18  2  0
 21 20  1  0
 21 22  2  0
 23 21  1  0
 24 23  1  0
 25 26  1  0
 25 24  1  0
 27 28  1  0
 27 26  1  1
 28 18  1  0
 29 30  1  0
 29 27  1  0
 31 29  2  0
M  END
$$$$
