KHR.pdb
     RDKit          3D

 31 31  0  0  1  0  0  0  0  0999 V2000
   11.1542  -17.7561    0.0127 N   0  0  0  0  0  0  0  0  0  0  0  0
   11.0243  -18.9172    0.8296 C   0  0  1  0  0  0  0  0  0  0  0  0
    9.9061  -19.8234    0.5896 C   0  0  0  0  0  0  0  0  0  0  0  0
    9.4533  -20.0774   -0.7715 C   0  0  0  0  0  0  0  0  0  0  0  0
    8.2977  -20.8172   -1.2181 C   0  0  0  0  0  0  0  0  0  0  0  0
    7.9986  -21.1833   -2.6020 C   0  0  0  0  0  0  0  0  0  0  0  0
    6.6802  -21.9168   -2.5279 N   0  0  0  0  0  0  0  0  0  0  0  0
   12.3613  -19.6311    0.7553 C   0  0  0  0  0  0  0  0  0  0  0  0
   12.9007  -19.7726   -0.3523 O   0  0  0  0  0  0  0  0  0  0  0  0
   13.0135  -20.1380    1.8870 N   0  0  0  0  0  0  0  0  0  0  0  0
   14.3401  -20.7717    1.8137 C   0  0  1  0  0  0  0  0  0  0  0  0
   15.0068  -20.4959    3.1180 C   0  0  0  0  0  0  0  0  0  0  0  0
   15.6169  -19.1321    3.0456 C   0  0  0  0  0  0  0  0  0  0  0  0
   15.2281  -17.9857    3.6875 C   0  0  0  0  0  0  0  0  0  0  0  0
   16.0591  -16.9967    3.3324 N   0  0  0  0  0  0  0  0  0  0  0  0
   16.9699  -17.4916    2.4766 C   0  0  0  0  0  0  0  0  0  0  0  0
   16.6989  -18.8001    2.3008 N   0  0  0  0  0  0  0  0  0  0  0  0
   14.1495  -22.1755    1.4871 C   0  0  0  0  0  0  0  0  0  0  0  0
   13.1678  -22.7941    1.9713 O   0  0  0  0  0  0  0  0  0  0  0  0
   16.6335  -24.7455   -6.0553 N   0  0  0  0  0  0  0  0  0  0  0  0
   15.3660  -24.1056   -5.8579 C   0  0  0  0  0  0  0  0  0  0  0  0
   14.6879  -23.6537   -6.8517 N   0  0  0  0  0  0  0  0  0  0  0  0
   14.8320  -23.9595   -4.5444 N   0  0  0  0  0  0  0  0  0  0  0  0
   15.5417  -24.4888   -3.4053 C   0  0  0  0  0  0  0  0  0  0  0  0
   14.7273  -24.0844   -2.1775 C   0  0  0  0  0  0  0  0  0  0  0  0
   15.4800  -24.6260   -0.9842 C   0  0  0  0  0  0  0  0  0  0  0  0
   14.8056  -24.3255    0.3246 C   0  0  2  0  0  0  0  0  0  0  0  0
   15.0035  -22.9366    0.6401 N   0  0  0  0  0  0  0  0  0  0  0  0
   15.2996  -25.2369    1.3578 C   0  0  0  0  0  0  0  0  0  0  0  0
   14.9260  -26.5656    1.4292 O   0  0  0  0  0  0  0  0  0  0  0  0
   16.0985  -24.8059    2.2240 O   0  0  0  0  0  0  0  0  0  0  0  0
  2  1  1  6
  3  2  1  0
  3  4  1  0
  4  5  1  0
  5  6  1  0
  6  7  1  0
  8 10  1  0
  8  2  1  0
  9  8  2  0
 11 10  1  0
 11 12  1  1
 12 13  1  0
 13 17  1  0
 14 13  2  0
 14 15  1  0
 15 16  1  0
 17 16  2  0
 18 11  1  0
 19 18  2  0
 21 20  1  0
 21 22  2  0
 23 21  1  0
 24 23  1  0
 25 26  1  0
 25 24  1  0
 27 28  1  0
 27 26  1  6
 28 18  1  0
 29 30  1  0
 29 27  1  0
 31 29  2  0
M  END
$$$$
