KHR.pdb
     RDKit          3D

 31 31  0  0  1  0  0  0  0  0999 V2000
   14.9368  -12.1917  -18.3730 N   0  0  0  0  0  0  0  0  0  0  0  0
   15.0745  -11.6032  -17.0818 C   0  0  1  0  0  0  0  0  0  0  0  0
   15.2689  -12.4763  -15.9291 C   0  0  0  0  0  0  0  0  0  0  0  0
   16.0004  -13.7272  -16.0778 C   0  0  0  0  0  0  0  0  0  0  0  0
   16.3454  -14.6998  -15.0691 C   0  0  0  0  0  0  0  0  0  0  0  0
   17.0741  -15.9471  -15.2971 C   0  0  0  0  0  0  0  0  0  0  0  0
   17.1913  -16.5777  -13.9295 N   0  0  0  0  0  0  0  0  0  0  0  0
   16.1817  -10.5734  -17.2089 C   0  0  0  0  0  0  0  0  0  0  0  0
   17.1848  -10.8564  -17.8809 O   0  0  0  0  0  0  0  0  0  0  0  0
   16.1189   -9.3139  -16.5982 N   0  0  0  0  0  0  0  0  0  0  0  0
   17.1361   -8.2752  -16.8286 C   0  0  1  0  0  0  0  0  0  0  0  0
   16.4221   -6.9689  -16.7572 C   0  0  0  0  0  0  0  0  0  0  0  0
   15.7877   -6.7159  -18.0879 C   0  0  0  0  0  0  0  0  0  0  0  0
   16.3871   -6.6112  -19.3156 C   0  0  0  0  0  0  0  0  0  0  0  0
   15.4389   -6.3814  -20.2337 N   0  0  0  0  0  0  0  0  0  0  0  0
   14.2469   -6.3379  -19.6139 C   0  0  0  0  0  0  0  0  0  0  0  0
   14.4606   -6.5427  -18.2991 N   0  0  0  0  0  0  0  0  0  0  0  0
   18.2006   -8.4662  -15.8569 C   0  0  0  0  0  0  0  0  0  0  0  0
   17.9075   -8.6430  -14.6470 O   0  0  0  0  0  0  0  0  0  0  0  0
   25.5742  -12.4619  -16.7606 N   0  0  0  0  0  0  0  0  0  0  0  0
   24.3821  -12.8235  -16.0515 C   0  0  0  0  0  0  0  0  0  0  0  0
   24.0218  -14.0522  -15.9406 N   0  0  0  0  0  0  0  0  0  0  0  0
   23.5699  -11.8173  -15.4517 N   0  0  0  0  0  0  0  0  0  0  0  0
   23.9438  -10.4270  -15.5441 C   0  0  0  0  0  0  0  0  0  0  0  0
   22.8754   -9.6522  -14.7744 C   0  0  0  0  0  0  0  0  0  0  0  0
   21.7473   -9.4189  -15.7525 C   0  0  0  0  0  0  0  0  0  0  0  0
   20.6376   -8.5801  -15.1841 C   0  0  2  0  0  0  0  0  0  0  0  0
   19.5905   -8.4709  -16.1637 N   0  0  0  0  0  0  0  0  0  0  0  0
   21.1669   -7.2879  -14.7462 C   0  0  0  0  0  0  0  0  0  0  0  0
   21.7590   -7.0973  -13.5119 O   0  0  0  0  0  0  0  0  0  0  0  0
   21.0861   -6.3000  -15.5156 O   0  0  0  0  0  0  0  0  0  0  0  0
  2  1  1  6
  3  2  1  0
  3  4  1  0
  4  5  1  0
  5  6  1  0
  6  7  1  0
  8 10  1  0
  8  2  1  0
  9  8  2  0
 11 10  1  0
 11 12  1  1
 12 13  1  0
 13 17  1  0
 14 13  2  0
 14 15  1  0
 15 16  1  0
 17 16  2  0
 18 11  1  0
 19 18  2  0
 21 20  1  0
 21 22  2  0
 23 21  1  0
 24 23  1  0
 25 26  1  0
 25 24  1  0
 27 28  1  0
 27 26  1  6
 28 18  1  0
 29 30  1  0
 29 27  1  0
 31 29  2  0
M  END
$$$$
