KHR.pdb
     RDKit          3D

 31 31  0  0  1  0  0  0  0  0999 V2000
   28.8775  -21.7386  -17.1056 N   0  0  0  0  0  0  0  0  0  0  0  0
   28.4358  -20.5321  -16.4877 C   0  0  1  0  0  0  0  0  0  0  0  0
   27.3833  -19.7560  -17.1349 C   0  0  0  0  0  0  0  0  0  0  0  0
   27.6289  -19.1314  -18.4278 C   0  0  0  0  0  0  0  0  0  0  0  0
   28.6831  -18.2226  -18.8086 C   0  0  0  0  0  0  0  0  0  0  0  0
   28.8344  -17.5883  -20.1176 C   0  0  0  0  0  0  0  0  0  0  0  0
   30.0585  -16.7139  -19.9804 N   0  0  0  0  0  0  0  0  0  0  0  0
   28.0745  -20.9023  -15.0611 C   0  0  0  0  0  0  0  0  0  0  0  0
   27.3139  -21.8627  -14.8689 O   0  0  0  0  0  0  0  0  0  0  0  0
   28.5647  -20.2040  -13.9497 N   0  0  0  0  0  0  0  0  0  0  0  0
   28.1598  -20.5307  -12.5728 C   0  0  1  0  0  0  0  0  0  0  0  0
   29.2922  -20.1183  -11.6958 C   0  0  0  0  0  0  0  0  0  0  0  0
   30.2971  -21.2262  -11.6873 C   0  0  0  0  0  0  0  0  0  0  0  0
   30.2898  -22.3936  -12.4046 C   0  0  0  0  0  0  0  0  0  0  0  0
   31.3858  -23.0953  -12.0864 N   0  0  0  0  0  0  0  0  0  0  0  0
   32.0911  -22.3967  -11.1801 C   0  0  0  0  0  0  0  0  0  0  0  0
   31.4240  -21.2514  -10.9354 N   0  0  0  0  0  0  0  0  0  0  0  0
   26.8885  -19.8756  -12.3114 C   0  0  0  0  0  0  0  0  0  0  0  0
   26.4803  -18.9840  -13.0984 O   0  0  0  0  0  0  0  0  0  0  0  0
   20.7926  -18.5568  -15.4398 N   0  0  0  0  0  0  0  0  0  0  0  0
   20.0824  -19.3901  -14.5145 C   0  0  0  0  0  0  0  0  0  0  0  0
   18.7977  -19.4074  -14.4866 N   0  0  0  0  0  0  0  0  0  0  0  0
   20.7960  -20.2214  -13.6026 N   0  0  0  0  0  0  0  0  0  0  0  0
   22.2369  -20.1745  -13.5471 C   0  0  0  0  0  0  0  0  0  0  0  0
   22.6493  -21.1810  -12.4743 C   0  0  0  0  0  0  0  0  0  0  0  0
   24.1528  -21.0759  -12.3634 C   0  0  0  0  0  0  0  0  0  0  0  0
   24.6003  -20.1519  -11.2661 C   0  0  2  0  0  0  0  0  0  0  0  0
   26.0371  -20.1633  -11.2076 N   0  0  0  0  0  0  0  0  0  0  0  0
   23.9599  -20.5314  -10.0060 C   0  0  0  0  0  0  0  0  0  0  0  0
   22.8600  -19.8703   -9.4929 O   0  0  0  0  0  0  0  0  0  0  0  0
   24.4198  -21.4983   -9.3518 O   0  0  0  0  0  0  0  0  0  0  0  0
  2  1  1  6
  3  2  1  0
  3  4  1  0
  4  5  1  0
  5  6  1  0
  6  7  1  0
  8 10  1  0
  8  2  1  0
  9  8  2  0
 11 10  1  0
 11 12  1  1
 12 13  1  0
 13 17  1  0
 14 13  2  0
 14 15  1  0
 15 16  1  0
 17 16  2  0
 18 11  1  0
 19 18  2  0
 21 20  1  0
 21 22  2  0
 23 21  1  0
 24 23  1  0
 25 26  1  0
 25 24  1  0
 27 28  1  0
 27 26  1  6
 28 18  1  0
 29 30  1  0
 29 27  1  0
 31 29  2  0
M  END
$$$$
