KHR.pdb
     RDKit          3D

 31 31  0  0  1  0  0  0  0  0999 V2000
   26.1162  -15.5774  -15.1705 N   0  0  0  0  0  0  0  0  0  0  0  0
   25.9938  -15.9186  -16.5492 C   0  0  1  0  0  0  0  0  0  0  0  0
   27.0735  -16.6651  -17.1865 C   0  0  0  0  0  0  0  0  0  0  0  0
   27.7547  -17.7264  -16.4574 C   0  0  0  0  0  0  0  0  0  0  0  0
   27.2220  -18.9751  -15.9682 C   0  0  0  0  0  0  0  0  0  0  0  0
   27.9808  -20.0164  -15.2763 C   0  0  0  0  0  0  0  0  0  0  0  0
   27.7699  -21.2602  -16.1072 N   0  0  0  0  0  0  0  0  0  0  0  0
   24.6565  -16.6222  -16.6876 C   0  0  0  0  0  0  0  0  0  0  0  0
   23.6728  -16.1547  -16.0947 O   0  0  0  0  0  0  0  0  0  0  0  0
   24.4855  -17.7798  -17.4583 N   0  0  0  0  0  0  0  0  0  0  0  0
   23.1768  -18.4350  -17.6157 C   0  0  1  0  0  0  0  0  0  0  0  0
   23.1515  -18.9896  -18.9989 C   0  0  0  0  0  0  0  0  0  0  0  0
   23.1506  -17.8410  -19.9572 C   0  0  0  0  0  0  0  0  0  0  0  0
   23.8391  -17.7082  -21.1343 C   0  0  0  0  0  0  0  0  0  0  0  0
   23.5413  -16.5165  -21.6692 N   0  0  0  0  0  0  0  0  0  0  0  0
   22.6759  -15.8880  -20.8550 C   0  0  0  0  0  0  0  0  0  0  0  0
   22.4365  -16.6995  -19.8059 N   0  0  0  0  0  0  0  0  0  0  0  0
   23.0293  -19.4062  -16.5439 C   0  0  0  0  0  0  0  0  0  0  0  0
   22.2879  -20.4071  -16.7157 O   0  0  0  0  0  0  0  0  0  0  0  0
   26.4739  -19.7306   -8.4835 N   0  0  0  0  0  0  0  0  0  0  0  0
   25.8713  -21.0216   -8.6418 C   0  0  0  0  0  0  0  0  0  0  0  0
   25.8747  -21.8784   -7.6840 N   0  0  0  0  0  0  0  0  0  0  0  0
   25.2520  -21.3789   -9.8750 N   0  0  0  0  0  0  0  0  0  0  0  0
   25.1492  -20.4171  -10.9453 C   0  0  0  0  0  0  0  0  0  0  0  0
   24.6056  -21.1845  -12.1494 C   0  0  0  0  0  0  0  0  0  0  0  0
   24.7034  -20.2375  -13.3230 C   0  0  0  0  0  0  0  0  0  0  0  0
   23.4918  -20.2714  -14.2111 C   0  0  2  0  0  0  0  0  0  0  0  0
   23.6707  -19.3218  -15.2761 N   0  0  0  0  0  0  0  0  0  0  0  0
   22.2862  -20.0380  -13.4148 C   0  0  0  0  0  0  0  0  0  0  0  0
   21.5566  -21.0604  -12.8381 O   0  0  0  0  0  0  0  0  0  0  0  0
   21.8857  -18.8619  -13.2397 O   0  0  0  0  0  0  0  0  0  0  0  0
  2  1  1  1
  3  2  1  0
  3  4  1  0
  4  5  1  0
  5  6  1  0
  6  7  1  0
  8 10  1  0
  8  2  1  0
  9  8  2  0
 11 10  1  0
 11 12  1  6
 12 13  1  0
 13 17  1  0
 14 13  2  0
 14 15  1  0
 15 16  1  0
 17 16  2  0
 18 11  1  0
 19 18  2  0
 21 20  1  0
 21 22  2  0
 23 21  1  0
 24 23  1  0
 25 26  1  0
 25 24  1  0
 27 28  1  0
 27 26  1  1
 28 18  1  0
 29 30  1  0
 29 27  1  0
 31 29  2  0
M  END
$$$$
