KHR.pdb
     RDKit          3D

 31 31  0  0  1  0  0  0  0  0999 V2000
   19.9421  -10.3601  -18.9391 N   0  0  0  0  0  0  0  0  0  0  0  0
   18.8016  -10.0967  -18.1252 C   0  0  1  0  0  0  0  0  0  0  0  0
   18.2064  -11.1964  -17.3732 C   0  0  0  0  0  0  0  0  0  0  0  0
   18.8009  -12.5250  -17.4318 C   0  0  0  0  0  0  0  0  0  0  0  0
   18.3618  -13.6814  -18.1749 C   0  0  0  0  0  0  0  0  0  0  0  0
   18.9769  -15.0076  -18.1358 C   0  0  0  0  0  0  0  0  0  0  0  0
   18.1192  -15.8547  -19.0461 N   0  0  0  0  0  0  0  0  0  0  0  0
   19.1894   -8.9370  -17.2267 C   0  0  0  0  0  0  0  0  0  0  0  0
   18.4052   -8.5883  -16.3317 O   0  0  0  0  0  0  0  0  0  0  0  0
   20.3981   -8.2420  -17.3657 N   0  0  0  0  0  0  0  0  0  0  0  0
   20.7231   -7.0572  -16.5549 C   0  0  1  0  0  0  0  0  0  0  0  0
   22.0511   -7.3276  -15.9347 C   0  0  0  0  0  0  0  0  0  0  0  0
   21.8214   -8.0689  -14.6560 C   0  0  0  0  0  0  0  0  0  0  0  0
   20.6328   -8.4283  -14.0769 C   0  0  0  0  0  0  0  0  0  0  0  0
   20.8953   -9.0798  -12.9361 N   0  0  0  0  0  0  0  0  0  0  0  0
   22.2287   -9.1422  -12.7777 C   0  0  0  0  0  0  0  0  0  0  0  0
   22.7962   -8.5227  -13.8315 N   0  0  0  0  0  0  0  0  0  0  0  0
   20.6564   -5.8900  -17.4191 C   0  0  0  0  0  0  0  0  0  0  0  0
   21.2005   -5.9289  -18.5520 O   0  0  0  0  0  0  0  0  0  0  0  0
   13.9149   -0.9644  -16.8939 N   0  0  0  0  0  0  0  0  0  0  0  0
   13.9003   -2.3015  -17.4105 C   0  0  0  0  0  0  0  0  0  0  0  0
   12.7937   -2.9193  -17.6239 N   0  0  0  0  0  0  0  0  0  0  0  0
   15.1238   -2.9734  -17.6995 N   0  0  0  0  0  0  0  0  0  0  0  0
   16.3882   -2.3519  -17.3890 C   0  0  0  0  0  0  0  0  0  0  0  0
   17.4639   -3.3211  -17.8765 C   0  0  0  0  0  0  0  0  0  0  0  0
   18.7877   -2.6657  -17.5575 C   0  0  0  0  0  0  0  0  0  0  0  0
   19.9710   -3.5098  -17.9384 C   0  0  2  0  0  0  0  0  0  0  0  0
   20.0086   -4.6672  -17.0858 N   0  0  0  0  0  0  0  0  0  0  0  0
   21.1921   -2.7046  -17.8867 C   0  0  0  0  0  0  0  0  0  0  0  0
   21.4237   -1.6354  -18.7313 O   0  0  0  0  0  0  0  0  0  0  0  0
   22.0767   -2.9864  -17.0427 O   0  0  0  0  0  0  0  0  0  0  0  0
  2  1  1  1
  3  2  1  0
  3  4  1  0
  4  5  1  0
  5  6  1  0
  6  7  1  0
  8 10  1  0
  8  2  1  0
  9  8  2  0
 11 10  1  0
 11 12  1  6
 12 13  1  0
 13 17  1  0
 14 13  2  0
 14 15  1  0
 15 16  1  0
 17 16  2  0
 18 11  1  0
 19 18  2  0
 21 20  1  0
 21 22  2  0
 23 21  1  0
 24 23  1  0
 25 26  1  0
 25 24  1  0
 27 28  1  0
 27 26  1  1
 28 18  1  0
 29 30  1  0
 29 27  1  0
 31 29  2  0
M  END
$$$$
