EEA.pdb
     RDKit          3D

 24 23  0  0  1  0  0  0  0  0999 V2000
   -2.5270  -27.4795   29.4393 N   0  0  0  0  0  0  0  0  0  0  0  0
   -3.2786  -26.3058   29.8419 C   0  0  1  0  0  0  0  0  0  0  0  0
   -3.4115  -25.4067   28.6530 C   0  0  0  0  0  0  0  0  0  0  0  0
   -3.6720  -26.0963   27.3563 C   0  0  0  0  0  0  0  0  0  0  0  0
   -3.8597  -25.2028   26.2055 C   0  0  0  0  0  0  0  0  0  0  0  0
   -3.7685  -23.9659   26.3168 O   0  0  0  0  0  0  0  0  0  0  0  0
   -4.6486  -26.6591   30.2890 C   0  0  0  0  0  0  0  0  0  0  0  0
   -5.1877  -27.6754   29.7996 O   0  0  0  0  0  0  0  0  0  0  0  0
   -4.1438  -25.7494   24.9731 O   0  0  0  0  0  0  0  0  0  0  0  0
   -5.3588  -25.9013   31.2343 N   0  0  0  0  0  0  0  0  0  0  0  0
   -6.6124  -26.4328   31.7821 C   0  0  1  0  0  0  0  0  0  0  0  0
   -6.4899  -26.6072   33.2563 C   0  0  0  0  0  0  0  0  0  0  0  0
   -7.7048  -27.1191   33.9637 C   0  0  0  0  0  0  0  0  0  0  0  0
   -7.4793  -27.2867   35.4171 C   0  0  0  0  0  0  0  0  0  0  0  0
   -7.0235  -28.2989   35.9837 O   0  0  0  0  0  0  0  0  0  0  0  0
   -7.7638  -25.6223   31.3318 C   0  0  0  0  0  0  0  0  0  0  0  0
   -7.7480  -24.3743   31.4095 O   0  0  0  0  0  0  0  0  0  0  0  0
   -7.8088  -26.2021   36.2498 O   0  0  0  0  0  0  0  0  0  0  0  0
  -11.1301  -26.3981   29.7935 C   0  0  0  0  0  0  0  0  0  0  0  0
  -10.0532  -25.4175   30.2759 C   0  0  2  0  0  0  0  0  0  0  0  0
   -8.9540  -26.2028   30.7858 N   0  0  0  0  0  0  0  0  0  0  0  0
  -10.6188  -24.5024   31.2837 C   0  0  0  0  0  0  0  0  0  0  0  0
  -11.2269  -23.2974   30.9621 O   0  0  0  0  0  0  0  0  0  0  0  0
  -10.5638  -24.7988   32.5032 O   0  0  0  0  0  0  0  0  0  0  0  0
  2  1  1  6
  2  3  1  0
  3  4  1  0
  4  5  1  0
  5  9  1  0
  6  5  2  0
  7  2  1  0
  7  8  2  0
 10  7  1  0
 11 10  1  0
 11 16  1  0
 11 12  1  1
 13 12  1  0
 13 14  1  0
 14 15  2  0
 16 17  2  0
 16 21  1  0
 18 14  1  0
 20 19  1  1
 20 22  1  0
 21 20  1  0
 22 24  2  0
 22 23  1  0
M  END
$$$$
