EEA.pdb
     RDKit          3D

 24 23  0  0  1  0  0  0  0  0999 V2000
   -2.3733  -27.3947   32.3382 N   0  0  0  0  0  0  0  0  0  0  0  0
   -2.1771  -26.0627   31.7980 C   0  0  1  0  0  0  0  0  0  0  0  0
   -0.9553  -26.0851   30.9343 C   0  0  0  0  0  0  0  0  0  0  0  0
   -0.6400  -27.4013   30.3072 C   0  0  0  0  0  0  0  0  0  0  0  0
    0.4770  -27.3821   29.3535 C   0  0  0  0  0  0  0  0  0  0  0  0
    0.8714  -28.4190   28.7879 O   0  0  0  0  0  0  0  0  0  0  0  0
   -3.3174  -25.6432   30.9464 C   0  0  0  0  0  0  0  0  0  0  0  0
   -3.2402  -24.5465   30.3513 O   0  0  0  0  0  0  0  0  0  0  0  0
    1.1026  -26.1854   29.0794 O   0  0  0  0  0  0  0  0  0  0  0  0
   -4.4728  -26.4249   30.7838 N   0  0  0  0  0  0  0  0  0  0  0  0
   -5.6089  -25.8760   30.0341 C   0  0  1  0  0  0  0  0  0  0  0  0
   -6.6596  -26.9185   29.8670 C   0  0  0  0  0  0  0  0  0  0  0  0
   -7.9110  -26.4886   29.1688 C   0  0  0  0  0  0  0  0  0  0  0  0
   -8.9208  -27.5694   29.1102 C   0  0  0  0  0  0  0  0  0  0  0  0
   -8.8021  -28.7196   29.5753 O   0  0  0  0  0  0  0  0  0  0  0  0
   -6.0653  -24.6047   30.6348 C   0  0  0  0  0  0  0  0  0  0  0  0
   -6.3123  -24.5173   31.8575 O   0  0  0  0  0  0  0  0  0  0  0  0
  -10.1383  -27.2798   28.4683 O   0  0  0  0  0  0  0  0  0  0  0  0
   -6.2120  -21.0411   29.4797 C   0  0  0  0  0  0  0  0  0  0  0  0
   -6.6332  -22.1462   30.4571 C   0  0  2  0  0  0  0  0  0  0  0  0
   -6.2517  -23.4086   29.8690 N   0  0  0  0  0  0  0  0  0  0  0  0
   -8.0792  -22.0552   30.7291 C   0  0  0  0  0  0  0  0  0  0  0  0
   -9.0000  -22.9873   30.2723 O   0  0  0  0  0  0  0  0  0  0  0  0
   -8.5327  -21.0986   31.4050 O   0  0  0  0  0  0  0  0  0  0  0  0
  2  1  1  6
  2  3  1  0
  3  4  1  0
  4  5  1  0
  5  9  1  0
  6  5  2  0
  7  2  1  0
  7  8  2  0
 10  7  1  0
 11 10  1  0
 11 16  1  0
 11 12  1  1
 13 12  1  0
 13 14  1  0
 14 15  2  0
 16 17  2  0
 16 21  1  0
 18 14  1  0
 20 19  1  6
 20 22  1  0
 21 20  1  0
 22 24  2  0
 22 23  1  0
M  END
$$$$
