EEA.pdb
     RDKit          3D

 24 23  0  0  1  0  0  0  0  0999 V2000
   18.4952  -16.0160   19.7704 N   0  0  0  0  0  0  0  0  0  0  0  0
   18.0462  -17.3936   19.8419 C   0  0  1  0  0  0  0  0  0  0  0  0
   19.1124  -18.1970   20.5180 C   0  0  0  0  0  0  0  0  0  0  0  0
   20.3252  -18.4713   19.6941 C   0  0  0  0  0  0  0  0  0  0  0  0
   20.6224  -19.8943   19.4828 C   0  0  0  0  0  0  0  0  0  0  0  0
   20.2817  -20.4855   18.4413 O   0  0  0  0  0  0  0  0  0  0  0  0
   16.8087  -17.5255   20.6499 C   0  0  0  0  0  0  0  0  0  0  0  0
   16.5910  -16.6778   21.5425 O   0  0  0  0  0  0  0  0  0  0  0  0
   21.2954  -20.5902   20.4633 O   0  0  0  0  0  0  0  0  0  0  0  0
   15.8784  -18.5589   20.4523 N   0  0  0  0  0  0  0  0  0  0  0  0
   14.6493  -18.5787   21.2543 C   0  0  1  0  0  0  0  0  0  0  0  0
   13.4604  -18.6663   20.3612 C   0  0  0  0  0  0  0  0  0  0  0  0
   12.1355  -18.8186   21.0391 C   0  0  0  0  0  0  0  0  0  0  0  0
   11.0250  -18.9742   20.0727 C   0  0  0  0  0  0  0  0  0  0  0  0
   11.1162  -18.9505   18.8299 O   0  0  0  0  0  0  0  0  0  0  0  0
   14.7302  -19.6127   22.3077 C   0  0  0  0  0  0  0  0  0  0  0  0
   15.2251  -20.7373   22.0755 O   0  0  0  0  0  0  0  0  0  0  0  0
    9.7351  -19.1685   20.5988 O   0  0  0  0  0  0  0  0  0  0  0  0
   14.2274  -19.7267   26.0188 C   0  0  0  0  0  0  0  0  0  0  0  0
   14.2548  -20.4280   24.6545 C   0  0  2  0  0  0  0  0  0  0  0  0
   14.2550  -19.3986   23.6419 N   0  0  0  0  0  0  0  0  0  0  0  0
   13.1081  -21.3469   24.5362 C   0  0  0  0  0  0  0  0  0  0  0  0
   13.0886  -22.6161   25.0965 O   0  0  0  0  0  0  0  0  0  0  0  0
   12.0823  -20.9938   23.9032 O   0  0  0  0  0  0  0  0  0  0  0  0
  2  1  1  1
  2  3  1  0
  3  4  1  0
  4  5  1  0
  5  9  1  0
  6  5  2  0
  7  2  1  0
  7  8  2  0
 10  7  1  0
 11 10  1  0
 11 16  1  0
 11 12  1  6
 13 12  1  0
 13 14  1  0
 14 15  2  0
 16 17  2  0
 16 21  1  0
 18 14  1  0
 20 19  1  1
 20 22  1  0
 21 20  1  0
 22 24  2  0
 22 23  1  0
M  END
$$$$
