EEA.pdb
     RDKit          3D

 24 23  0  0  1  0  0  0  0  0999 V2000
   12.1778  -15.7965   16.0343 N   0  0  0  0  0  0  0  0  0  0  0  0
   12.7809  -16.7276   16.9690 C   0  0  1  0  0  0  0  0  0  0  0  0
   14.0941  -16.1612   17.4095 C   0  0  0  0  0  0  0  0  0  0  0  0
   14.0802  -14.7107   17.7568 C   0  0  0  0  0  0  0  0  0  0  0  0
   15.3862  -14.1490   18.1266 C   0  0  0  0  0  0  0  0  0  0  0  0
   16.1476  -13.6504   17.2768 O   0  0  0  0  0  0  0  0  0  0  0  0
   11.9438  -16.9070   18.1810 C   0  0  0  0  0  0  0  0  0  0  0  0
   11.0667  -16.0508   18.4271 O   0  0  0  0  0  0  0  0  0  0  0  0
   15.7764  -14.1759   19.4478 O   0  0  0  0  0  0  0  0  0  0  0  0
   12.0973  -17.9941   19.0568 N   0  0  0  0  0  0  0  0  0  0  0  0
   11.1157  -18.1934   20.1295 C   0  0  1  0  0  0  0  0  0  0  0  0
   10.9659  -19.6469   20.4186 C   0  0  0  0  0  0  0  0  0  0  0  0
    9.9770  -20.0102   21.4808 C   0  0  0  0  0  0  0  0  0  0  0  0
    9.9097  -21.4712   21.7091 C   0  0  0  0  0  0  0  0  0  0  0  0
   10.5571  -22.3461   21.1020 O   0  0  0  0  0  0  0  0  0  0  0  0
   11.4373  -17.3436   21.2957 C   0  0  0  0  0  0  0  0  0  0  0  0
   12.6190  -17.1733   21.6674 O   0  0  0  0  0  0  0  0  0  0  0  0
    9.0311  -21.9276   22.7082 O   0  0  0  0  0  0  0  0  0  0  0  0
    9.4176  -15.2932   23.7465 C   0  0  0  0  0  0  0  0  0  0  0  0
   10.7199  -15.9643   23.2909 C   0  0  2  0  0  0  0  0  0  0  0  0
   10.4336  -16.6701   22.0642 N   0  0  0  0  0  0  0  0  0  0  0  0
   11.2308  -16.8485   24.3541 C   0  0  0  0  0  0  0  0  0  0  0  0
   12.0339  -16.4032   25.3942 O   0  0  0  0  0  0  0  0  0  0  0  0
   10.9431  -18.0712   24.3471 O   0  0  0  0  0  0  0  0  0  0  0  0
  2  1  1  6
  2  3  1  0
  3  4  1  0
  4  5  1  0
  5  9  1  0
  6  5  2  0
  7  2  1  0
  7  8  2  0
 10  7  1  0
 11 10  1  0
 11 16  1  0
 11 12  1  1
 13 12  1  0
 13 14  1  0
 14 15  2  0
 16 17  2  0
 16 21  1  0
 18 14  1  0
 20 19  1  1
 20 22  1  0
 21 20  1  0
 22 24  2  0
 22 23  1  0
M  END
$$$$
