EEA.pdb
     RDKit          3D

 24 23  0  0  1  0  0  0  0  0999 V2000
    8.3900  -12.5517   17.9128 N   0  0  0  0  0  0  0  0  0  0  0  0
    7.9951  -13.9346   18.1024 C   0  0  1  0  0  0  0  0  0  0  0  0
    7.6447  -14.5071   16.7649 C   0  0  0  0  0  0  0  0  0  0  0  0
    8.6649  -14.3040   15.6958 C   0  0  0  0  0  0  0  0  0  0  0  0
    8.3167  -14.8782   14.3893 C   0  0  0  0  0  0  0  0  0  0  0  0
    7.2732  -15.5366   14.2219 O   0  0  0  0  0  0  0  0  0  0  0  0
    9.1028  -14.7495   18.6597 C   0  0  0  0  0  0  0  0  0  0  0  0
    8.9184  -15.9769   18.8087 O   0  0  0  0  0  0  0  0  0  0  0  0
    9.1679  -14.6819   13.3237 O   0  0  0  0  0  0  0  0  0  0  0  0
   10.3425  -14.1992   19.0242 N   0  0  0  0  0  0  0  0  0  0  0  0
   11.3760  -15.0746   19.5896 C   0  0  1  0  0  0  0  0  0  0  0  0
   12.7245  -14.6196   19.1501 C   0  0  0  0  0  0  0  0  0  0  0  0
   13.8894  -15.3820   19.6979 C   0  0  0  0  0  0  0  0  0  0  0  0
   15.1813  -14.8898   19.1689 C   0  0  0  0  0  0  0  0  0  0  0  0
   15.8062  -13.8844   19.5586 O   0  0  0  0  0  0  0  0  0  0  0  0
   11.1980  -15.2161   21.0503 C   0  0  0  0  0  0  0  0  0  0  0  0
   11.3379  -14.2390   21.8180 O   0  0  0  0  0  0  0  0  0  0  0  0
   15.7704  -15.6223   18.1226 O   0  0  0  0  0  0  0  0  0  0  0  0
    9.8144  -17.8011   23.3670 C   0  0  0  0  0  0  0  0  0  0  0  0
   10.7687  -16.6289   23.1041 C   0  0  2  0  0  0  0  0  0  0  0  0
   10.8593  -16.4609   21.6728 N   0  0  0  0  0  0  0  0  0  0  0  0
   12.0757  -16.8911   23.7335 C   0  0  0  0  0  0  0  0  0  0  0  0
   12.3145  -16.7251   25.0902 O   0  0  0  0  0  0  0  0  0  0  0  0
   13.0421  -17.2855   23.0346 O   0  0  0  0  0  0  0  0  0  0  0  0
  2  1  1  6
  2  3  1  0
  3  4  1  0
  4  5  1  0
  5  9  1  0
  6  5  2  0
  7  2  1  0
  7  8  2  0
 10  7  1  0
 11 10  1  0
 11 16  1  0
 11 12  1  1
 13 12  1  0
 13 14  1  0
 14 15  2  0
 16 17  2  0
 16 21  1  0
 18 14  1  0
 20 19  1  6
 20 22  1  0
 21 20  1  0
 22 24  2  0
 22 23  1  0
M  END
$$$$
