EEA.pdb
     RDKit          3D

 24 23  0  0  1  0  0  0  0  0999 V2000
    9.9241  -13.3418   19.2308 N   0  0  0  0  0  0  0  0  0  0  0  0
    8.4870  -13.4197   19.4122 C   0  0  1  0  0  0  0  0  0  0  0  0
    7.9108  -14.1719   18.2539 C   0  0  0  0  0  0  0  0  0  0  0  0
    8.6725  -14.0594   16.9764 C   0  0  0  0  0  0  0  0  0  0  0  0
    8.0374  -14.7004   15.8173 C   0  0  0  0  0  0  0  0  0  0  0  0
    8.4873  -14.5600   14.6648 O   0  0  0  0  0  0  0  0  0  0  0  0
    8.1299  -14.1608   20.6471 C   0  0  0  0  0  0  0  0  0  0  0  0
    6.9196  -14.2824   20.9359 O   0  0  0  0  0  0  0  0  0  0  0  0
    6.9155  -15.4761   16.0128 O   0  0  0  0  0  0  0  0  0  0  0  0
    9.0921  -14.7274   21.4987 N   0  0  0  0  0  0  0  0  0  0  0  0
    8.6530  -15.4088   22.7222 C   0  0  1  0  0  0  0  0  0  0  0  0
    9.3768  -16.7020   22.8723 C   0  0  0  0  0  0  0  0  0  0  0  0
   10.8622  -16.6130   23.0263 C   0  0  0  0  0  0  0  0  0  0  0  0
   11.4945  -17.9456   23.1518 C   0  0  0  0  0  0  0  0  0  0  0  0
   12.0421  -18.5942   22.2393 O   0  0  0  0  0  0  0  0  0  0  0  0
    8.7322  -14.4980   23.8839 C   0  0  0  0  0  0  0  0  0  0  0  0
    9.7953  -13.9062   24.1723 O   0  0  0  0  0  0  0  0  0  0  0  0
   11.4812  -18.5482   24.4227 O   0  0  0  0  0  0  0  0  0  0  0  0
    6.3787  -12.7025   26.1108 C   0  0  0  0  0  0  0  0  0  0  0  0
    7.7118  -13.4436   25.9443 C   0  0  2  0  0  0  0  0  0  0  0  0
    7.6152  -14.2372   24.7418 N   0  0  0  0  0  0  0  0  0  0  0  0
    7.9921  -14.2537   27.1436 C   0  0  0  0  0  0  0  0  0  0  0  0
    8.3536  -13.7049   28.3657 O   0  0  0  0  0  0  0  0  0  0  0  0
    7.9086  -15.5059   27.0901 O   0  0  0  0  0  0  0  0  0  0  0  0
  2  1  1  6
  2  3  1  0
  3  4  1  0
  4  5  1  0
  5  9  1  0
  6  5  2  0
  7  2  1  0
  7  8  2  0
 10  7  1  0
 11 10  1  0
 11 16  1  0
 11 12  1  1
 13 12  1  0
 13 14  1  0
 14 15  2  0
 16 17  2  0
 16 21  1  0
 18 14  1  0
 20 19  1  1
 20 22  1  0
 21 20  1  0
 22 24  2  0
 22 23  1  0
M  END
$$$$
