EEA.pdb
     RDKit          3D

 24 23  0  0  1  0  0  0  0  0999 V2000
    6.6401  -17.1866   20.0553 N   0  0  0  0  0  0  0  0  0  0  0  0
    7.8702  -16.8894   20.7645 C   0  0  1  0  0  0  0  0  0  0  0  0
    8.4657  -15.6532   20.1673 C   0  0  0  0  0  0  0  0  0  0  0  0
    7.4994  -14.5550   19.8757 C   0  0  0  0  0  0  0  0  0  0  0  0
    8.0692  -13.3980   19.1724 C   0  0  0  0  0  0  0  0  0  0  0  0
    9.1446  -13.4764   18.5496 O   0  0  0  0  0  0  0  0  0  0  0  0
    7.6219  -16.6152   22.2014 C   0  0  0  0  0  0  0  0  0  0  0  0
    6.5493  -16.0583   22.5214 O   0  0  0  0  0  0  0  0  0  0  0  0
    7.3950  -12.1968   19.2043 O   0  0  0  0  0  0  0  0  0  0  0  0
    8.5389  -16.9544   23.2096 N   0  0  0  0  0  0  0  0  0  0  0  0
    8.2058  -16.6612   24.6086 C   0  0  1  0  0  0  0  0  0  0  0  0
    8.9546  -17.5778   25.5129 C   0  0  0  0  0  0  0  0  0  0  0  0
    9.5162  -18.8131   24.8830 C   0  0  0  0  0  0  0  0  0  0  0  0
   10.7187  -19.3073   25.5908 C   0  0  0  0  0  0  0  0  0  0  0  0
   10.7661  -19.7339   26.7609 O   0  0  0  0  0  0  0  0  0  0  0  0
    8.3654  -15.2190   24.8918 C   0  0  0  0  0  0  0  0  0  0  0  0
    9.4267  -14.6179   24.6160 O   0  0  0  0  0  0  0  0  0  0  0  0
   11.9332  -19.2988   24.8814 O   0  0  0  0  0  0  0  0  0  0  0  0
    6.1629  -12.4676   26.2309 C   0  0  0  0  0  0  0  0  0  0  0  0
    7.5440  -13.0796   25.9625 C   0  0  2  0  0  0  0  0  0  0  0  0
    7.3324  -14.4278   25.4906 N   0  0  0  0  0  0  0  0  0  0  0  0
    8.3671  -13.0234   27.1842 C   0  0  0  0  0  0  0  0  0  0  0  0
    8.9261  -11.8510   27.6723 O   0  0  0  0  0  0  0  0  0  0  0  0
    8.5927  -14.0713   27.8390 O   0  0  0  0  0  0  0  0  0  0  0  0
  2  1  1  6
  2  3  1  0
  3  4  1  0
  4  5  1  0
  5  9  1  0
  6  5  2  0
  7  2  1  0
  7  8  2  0
 10  7  1  0
 11 10  1  0
 11 16  1  0
 11 12  1  1
 13 12  1  0
 13 14  1  0
 14 15  2  0
 16 17  2  0
 16 21  1  0
 18 14  1  0
 20 19  1  1
 20 22  1  0
 21 20  1  0
 22 24  2  0
 22 23  1  0
M  END
$$$$
