EEA.pdb
     RDKit          3D

 24 23  0  0  1  0  0  0  0  0999 V2000
   15.0403  -17.7895   15.6102 N   0  0  0  0  0  0  0  0  0  0  0  0
   15.3469  -18.7246   16.6761 C   0  0  1  0  0  0  0  0  0  0  0  0
   16.8317  -18.7510   16.8604 C   0  0  0  0  0  0  0  0  0  0  0  0
   17.5322  -17.4621   16.5900 C   0  0  0  0  0  0  0  0  0  0  0  0
   18.9923  -17.5055   16.7450 C   0  0  0  0  0  0  0  0  0  0  0  0
   19.5743  -18.5199   17.1725 O   0  0  0  0  0  0  0  0  0  0  0  0
   14.7451  -18.3030   17.9651 C   0  0  0  0  0  0  0  0  0  0  0  0
   14.5807  -17.0808   18.1704 O   0  0  0  0  0  0  0  0  0  0  0  0
   19.7344  -16.3944   16.4084 O   0  0  0  0  0  0  0  0  0  0  0  0
   14.3554  -19.2173   18.9573 N   0  0  0  0  0  0  0  0  0  0  0  0
   13.6510  -18.7255   20.1473 C   0  0  1  0  0  0  0  0  0  0  0  0
   12.6465  -19.7299   20.5954 C   0  0  0  0  0  0  0  0  0  0  0  0
   11.8466  -19.3684   21.8069 C   0  0  0  0  0  0  0  0  0  0  0  0
   10.7997  -20.3706   22.1080 C   0  0  0  0  0  0  0  0  0  0  0  0
   10.5596  -21.4080   21.4603 O   0  0  0  0  0  0  0  0  0  0  0  0
   14.6139  -18.2860   21.1793 C   0  0  0  0  0  0  0  0  0  0  0  0
   15.6600  -18.9321   21.4069 O   0  0  0  0  0  0  0  0  0  0  0  0
    9.9903  -20.1386   23.2347 O   0  0  0  0  0  0  0  0  0  0  0  0
   15.2982  -15.1424   23.0252 C   0  0  0  0  0  0  0  0  0  0  0  0
   15.3494  -16.6753   22.9856 C   0  0  2  0  0  0  0  0  0  0  0  0
   14.4160  -17.1105   21.9736 N   0  0  0  0  0  0  0  0  0  0  0  0
   15.0454  -17.2251   24.3192 C   0  0  0  0  0  0  0  0  0  0  0  0
   15.9721  -17.2775   25.3505 O   0  0  0  0  0  0  0  0  0  0  0  0
   13.8997  -17.6767   24.5667 O   0  0  0  0  0  0  0  0  0  0  0  0
  2  1  1  6
  2  3  1  0
  3  4  1  0
  4  5  1  0
  5  9  1  0
  6  5  2  0
  7  2  1  0
  7  8  2  0
 10  7  1  0
 11 10  1  0
 11 16  1  0
 11 12  1  1
 13 12  1  0
 13 14  1  0
 14 15  2  0
 16 17  2  0
 16 21  1  0
 18 14  1  0
 20 19  1  1
 20 22  1  0
 21 20  1  0
 22 24  2  0
 22 23  1  0
M  END
$$$$
