IGV.pdb
     RDKit          3D

 20 19  0  0  1  0  0  0  0  0999 V2000
   11.6842  -18.3581   17.8719 C   0  0  0  0  0  0  0  0  0  0  0  0
   11.4812  -19.5895   18.7281 C   0  0  0  0  0  0  0  0  0  0  0  0
   10.6531  -19.2683   19.9536 C   0  0  2  0  0  0  0  0  0  0  0  0
    9.4650  -18.4473   19.4835 C   0  0  0  0  0  0  0  0  0  0  0  0
   11.4054  -18.4461   20.9533 C   0  0  2  0  0  0  0  0  0  0  0  0
   12.6746  -19.0406   21.2537 N   0  0  0  0  0  0  0  0  0  0  0  0
   10.6656  -18.1478   22.1770 C   0  0  0  0  0  0  0  0  0  0  0  0
   10.4705  -19.0629   23.0104 O   0  0  0  0  0  0  0  0  0  0  0  0
   10.1359  -16.8694   22.5060 N   0  0  0  0  0  0  0  0  0  0  0  0
    9.3939  -16.6586   23.7248 C   0  0  0  0  0  0  0  0  0  0  0  0
   10.2934  -16.2208   24.8377 C   0  0  0  0  0  0  0  0  0  0  0  0
   11.5301  -16.1691   24.6441 O   0  0  0  0  0  0  0  0  0  0  0  0
    8.5438  -14.0702   27.8993 C   0  0  0  0  0  0  0  0  0  0  0  0
   10.0370  -14.0181   27.6464 C   0  0  1  0  0  0  0  0  0  0  0  0
   10.7945  -13.5764   28.8697 C   0  0  0  0  0  0  0  0  0  0  0  0
   10.5570  -15.3686   27.1914 C   0  0  2  0  0  0  0  0  0  0  0  0
    9.7588  -15.8667   26.1006 N   0  0  0  0  0  0  0  0  0  0  0  0
   10.5991  -16.3449   28.3078 C   0  0  0  0  0  0  0  0  0  0  0  0
    9.7560  -17.4229   28.4056 O   0  0  0  0  0  0  0  0  0  0  0  0
   11.4515  -16.1784   29.2139 O   0  0  0  0  0  0  0  0  0  0  0  0
  2  1  1  0
  3  5  1  0
  3  2  1  0
  3  4  1  6
  5  6  1  1
  7  8  2  0
  7  5  1  0
  9  7  1  0
 10 11  1  0
 10  9  1  0
 11 17  1  0
 12 11  2  0
 14 15  1  1
 14 13  1  0
 16 14  1  0
 16 17  1  6
 18 19  1  0
 18 16  1  0
 20 18  2  0
M  END
$$$$
