IGV.pdb
     RDKit          3D

 20 19  0  0  1  0  0  0  0  0999 V2000
    7.0349  -11.9508   20.4957 C   0  0  0  0  0  0  0  0  0  0  0  0
    7.0740  -13.4637   20.4811 C   0  0  0  0  0  0  0  0  0  0  0  0
    8.2067  -13.9860   21.3383 C   0  0  2  0  0  0  0  0  0  0  0  0
    9.5019  -13.5435   20.6798 C   0  0  0  0  0  0  0  0  0  0  0  0
    8.2245  -15.4811   21.4145 C   0  0  2  0  0  0  0  0  0  0  0  0
    7.0088  -15.9789   21.9881 N   0  0  0  0  0  0  0  0  0  0  0  0
    9.3902  -16.0428   22.0923 C   0  0  0  0  0  0  0  0  0  0  0  0
   10.5364  -15.7372   21.6888 O   0  0  0  0  0  0  0  0  0  0  0  0
    9.3262  -16.9308   23.2015 N   0  0  0  0  0  0  0  0  0  0  0  0
   10.5204  -17.5120   23.7640 C   0  0  0  0  0  0  0  0  0  0  0  0
   10.9525  -16.7777   24.9942 C   0  0  0  0  0  0  0  0  0  0  0  0
   12.1019  -16.9712   25.4534 O   0  0  0  0  0  0  0  0  0  0  0  0
    8.0740  -14.2770   26.9598 C   0  0  0  0  0  0  0  0  0  0  0  0
    9.5501  -13.9374   27.0057 C   0  0  1  0  0  0  0  0  0  0  0  0
    9.9186  -13.2235   28.2784 C   0  0  0  0  0  0  0  0  0  0  0  0
   10.3983  -15.1872   26.8647 C   0  0  2  0  0  0  0  0  0  0  0  0
   10.0756  -15.8710   25.6386 N   0  0  0  0  0  0  0  0  0  0  0  0
   10.2446  -16.0894   28.0324 C   0  0  0  0  0  0  0  0  0  0  0  0
   10.9285  -15.9287   29.2109 O   0  0  0  0  0  0  0  0  0  0  0  0
    9.4459  -17.0533   27.9404 O   0  0  0  0  0  0  0  0  0  0  0  0
  2  1  1  0
  3  5  1  0
  3  2  1  0
  3  4  1  6
  5  6  1  1
  7  8  2  0
  7  5  1  0
  9  7  1  0
 10 11  1  0
 10  9  1  0
 11 17  1  0
 12 11  2  0
 14 15  1  1
 14 13  1  0
 16 14  1  0
 16 17  1  6
 18 19  1  0
 18 16  1  0
 20 18  2  0
M  END
$$$$
