IGV.pdb
     RDKit          3D

 20 19  0  0  1  0  0  0  0  0999 V2000
    6.0376  -11.9342   26.5454 C   0  0  0  0  0  0  0  0  0  0  0  0
    6.3769  -13.2957   25.9781 C   0  0  0  0  0  0  0  0  0  0  0  0
    7.1963  -14.1045   26.9605 C   0  0  2  0  0  0  0  0  0  0  0  0
    8.5785  -13.4769   27.0080 C   0  0  0  0  0  0  0  0  0  0  0  0
    7.3599  -15.5299   26.5324 C   0  0  2  0  0  0  0  0  0  0  0  0
    7.9990  -16.3020   27.5571 N   0  0  0  0  0  0  0  0  0  0  0  0
    8.0334  -15.7067   25.2483 C   0  0  0  0  0  0  0  0  0  0  0  0
    9.2236  -15.3342   25.1272 O   0  0  0  0  0  0  0  0  0  0  0  0
    7.4307  -16.2825   24.0958 N   0  0  0  0  0  0  0  0  0  0  0  0
    8.1930  -16.5254   22.8957 C   0  0  0  0  0  0  0  0  0  0  0  0
    7.5923  -15.8203   21.7204 C   0  0  0  0  0  0  0  0  0  0  0  0
    6.3936  -16.0317   21.4239 O   0  0  0  0  0  0  0  0  0  0  0  0
    7.1450  -12.4174   20.1517 C   0  0  0  0  0  0  0  0  0  0  0  0
    8.1640  -13.1493   19.3017 C   0  0  1  0  0  0  0  0  0  0  0  0
    9.5614  -12.6501   19.5534 C   0  0  0  0  0  0  0  0  0  0  0  0
    8.1087  -14.6438   19.5560 C   0  0  2  0  0  0  0  0  0  0  0  0
    8.3656  -14.9212   20.9460 N   0  0  0  0  0  0  0  0  0  0  0  0
    9.0527  -15.3842   18.6833 C   0  0  0  0  0  0  0  0  0  0  0  0
    8.8235  -15.6290   17.3529 O   0  0  0  0  0  0  0  0  0  0  0  0
   10.1203  -15.8113   19.1864 O   0  0  0  0  0  0  0  0  0  0  0  0
  2  1  1  0
  3  5  1  0
  3  2  1  0
  3  4  1  6
  5  6  1  1
  7  8  2  0
  7  5  1  0
  9  7  1  0
 10 11  1  0
 10  9  1  0
 11 17  1  0
 12 11  2  0
 14 15  1  1
 14 13  1  0
 16 14  1  0
 16 17  1  1
 18 19  1  0
 18 16  1  0
 20 18  2  0
M  END
$$$$
