IGV.pdb
     RDKit          3D

 20 19  0  0  1  0  0  0  0  0999 V2000
    7.1459  -12.2698   19.9226 C   0  0  0  0  0  0  0  0  0  0  0  0
    6.8764  -13.5314   20.7141 C   0  0  0  0  0  0  0  0  0  0  0  0
    8.1700  -14.1995   21.1279 C   0  0  2  0  0  0  0  0  0  0  0  0
    8.8794  -14.6207   19.8527 C   0  0  0  0  0  0  0  0  0  0  0  0
    7.9412  -15.4313   21.9476 C   0  0  2  0  0  0  0  0  0  0  0  0
    7.0650  -15.1581   23.0486 N   0  0  0  0  0  0  0  0  0  0  0  0
    9.1602  -16.0953   22.4025 C   0  0  0  0  0  0  0  0  0  0  0  0
    9.5611  -17.1163   21.7968 O   0  0  0  0  0  0  0  0  0  0  0  0
    9.9481  -15.6644   23.5055 N   0  0  0  0  0  0  0  0  0  0  0  0
   11.1893  -16.3190   23.8389 C   0  0  0  0  0  0  0  0  0  0  0  0
   11.4597  -16.2510   25.3091 C   0  0  0  0  0  0  0  0  0  0  0  0
   12.6064  -16.5199   25.7361 O   0  0  0  0  0  0  0  0  0  0  0  0
   10.4896  -13.2858   27.5522 C   0  0  0  0  0  0  0  0  0  0  0  0
    9.9228  -14.5472   28.1718 C   0  0  1  0  0  0  0  0  0  0  0  0
    8.4435  -14.6735   27.9246 C   0  0  0  0  0  0  0  0  0  0  0  0
   10.6304  -15.7783   27.6381 C   0  0  2  0  0  0  0  0  0  0  0  0
   10.4338  -15.8869   26.2153 N   0  0  0  0  0  0  0  0  0  0  0  0
   10.1840  -17.0116   28.3317 C   0  0  0  0  0  0  0  0  0  0  0  0
   10.5719  -17.3499   29.6034 O   0  0  0  0  0  0  0  0  0  0  0  0
    9.4090  -17.7902   27.7245 O   0  0  0  0  0  0  0  0  0  0  0  0
  2  1  1  0
  3  5  1  0
  3  2  1  0
  3  4  1  6
  5  6  1  1
  7  8  2  0
  7  5  1  0
  9  7  1  0
 10 11  1  0
 10  9  1  0
 11 17  1  0
 12 11  2  0
 14 15  1  6
 14 13  1  0
 16 14  1  0
 16 17  1  6
 18 19  1  0
 18 16  1  0
 20 18  2  0
M  END
$$$$
