IGV.pdb
     RDKit          3D

 20 19  0  0  1  0  0  0  0  0999 V2000
    7.3697  -13.7560   16.4024 C   0  0  0  0  0  0  0  0  0  0  0  0
    7.7479  -13.0673   17.6961 C   0  0  0  0  0  0  0  0  0  0  0  0
    8.2739  -14.0628   18.7075 C   0  0  2  0  0  0  0  0  0  0  0  0
    7.1137  -14.9676   19.0842 C   0  0  0  0  0  0  0  0  0  0  0  0
    8.7598  -13.4031   19.9606 C   0  0  2  0  0  0  0  0  0  0  0  0
    9.6969  -12.3608   19.6601 N   0  0  0  0  0  0  0  0  0  0  0  0
    9.3009  -14.3196   20.9611 C   0  0  0  0  0  0  0  0  0  0  0  0
   10.5429  -14.4011   21.1055 O   0  0  0  0  0  0  0  0  0  0  0  0
    8.5106  -15.1473   21.8056 N   0  0  0  0  0  0  0  0  0  0  0  0
    9.1189  -16.0138   22.7850 C   0  0  0  0  0  0  0  0  0  0  0  0
    9.1161  -15.3835   24.1423 C   0  0  0  0  0  0  0  0  0  0  0  0
    9.9936  -15.7116   24.9740 O   0  0  0  0  0  0  0  0  0  0  0  0
    6.8160  -12.1249   27.1622 C   0  0  0  0  0  0  0  0  0  0  0  0
    6.8456  -12.8838   25.8509 C   0  0  1  0  0  0  0  0  0  0  0  0
    6.8901  -11.9530   24.6690 C   0  0  0  0  0  0  0  0  0  0  0  0
    8.0338  -13.8254   25.7964 C   0  0  2  0  0  0  0  0  0  0  0  0
    8.1338  -14.4242   24.4902 N   0  0  0  0  0  0  0  0  0  0  0  0
    7.9594  -14.8644   26.8528 C   0  0  0  0  0  0  0  0  0  0  0  0
    8.6492  -14.7938   28.0367 O   0  0  0  0  0  0  0  0  0  0  0  0
    7.2263  -15.8639   26.6559 O   0  0  0  0  0  0  0  0  0  0  0  0
  2  1  1  0
  3  5  1  0
  3  2  1  0
  3  4  1  1
  5  6  1  6
  7  8  2  0
  7  5  1  0
  9  7  1  0
 10 11  1  0
 10  9  1  0
 11 17  1  0
 12 11  2  0
 14 15  1  6
 14 13  1  0
 16 14  1  0
 16 17  1  6
 18 19  1  0
 18 16  1  0
 20 18  2  0
M  END
$$$$
