IGV.pdb
     RDKit          3D

 20 19  0  0  1  0  0  0  0  0999 V2000
    7.1937  -12.2946   18.2118 C   0  0  0  0  0  0  0  0  0  0  0  0
    8.2268  -13.2749   18.7240 C   0  0  0  0  0  0  0  0  0  0  0  0
    7.8923  -13.7326   20.1273 C   0  0  2  0  0  0  0  0  0  0  0  0
    7.9128  -12.4989   21.0130 C   0  0  0  0  0  0  0  0  0  0  0  0
    8.9004  -14.6973   20.6703 C   0  0  2  0  0  0  0  0  0  0  0  0
    8.9804  -15.8698   19.8497 N   0  0  0  0  0  0  0  0  0  0  0  0
    8.7079  -15.0539   22.0737 C   0  0  0  0  0  0  0  0  0  0  0  0
    8.7034  -14.1473   22.9385 O   0  0  0  0  0  0  0  0  0  0  0  0
    8.5204  -16.3815   22.5484 N   0  0  0  0  0  0  0  0  0  0  0  0
    8.2133  -16.6441   23.9330 C   0  0  0  0  0  0  0  0  0  0  0  0
    9.3701  -16.3020   24.8187 C   0  0  0  0  0  0  0  0  0  0  0  0
   10.5366  -16.5229   24.4187 O   0  0  0  0  0  0  0  0  0  0  0  0
    8.5693  -14.0794   28.3769 C   0  0  0  0  0  0  0  0  0  0  0  0
    9.8816  -13.9934   27.6240 C   0  0  1  0  0  0  0  0  0  0  0  0
   11.0130  -13.5709   28.5223 C   0  0  0  0  0  0  0  0  0  0  0  0
   10.2219  -15.3214   26.9747 C   0  0  2  0  0  0  0  0  0  0  0  0
    9.1557  -15.7337   26.0983 N   0  0  0  0  0  0  0  0  0  0  0  0
   10.5133  -16.3677   27.9854 C   0  0  0  0  0  0  0  0  0  0  0  0
   11.7178  -16.4838   28.6320 O   0  0  0  0  0  0  0  0  0  0  0  0
    9.6108  -17.1933   28.2666 O   0  0  0  0  0  0  0  0  0  0  0  0
  2  1  1  0
  3  5  1  0
  3  2  1  0
  3  4  1  1
  5  6  1  6
  7  8  2  0
  7  5  1  0
  9  7  1  0
 10 11  1  0
 10  9  1  0
 11 17  1  0
 12 11  2  0
 14 15  1  1
 14 13  1  0
 16 14  1  0
 16 17  1  1
 18 19  1  0
 18 16  1  0
 20 18  2  0
M  END
$$$$
