IGV.pdb
     RDKit          3D

 20 19  0  0  1  0  0  0  0  0999 V2000
    5.7014  -11.0617   27.0387 C   0  0  0  0  0  0  0  0  0  0  0  0
    5.4426  -12.3263   26.2485 C   0  0  0  0  0  0  0  0  0  0  0  0
    6.7414  -12.9724   25.8168 C   0  0  2  0  0  0  0  0  0  0  0  0
    7.4414  -11.9887   24.8953 C   0  0  0  0  0  0  0  0  0  0  0  0
    6.5232  -14.2380   25.0474 C   0  0  2  0  0  0  0  0  0  0  0  0
    5.8030  -15.1968   25.8327 N   0  0  0  0  0  0  0  0  0  0  0  0
    7.7368  -14.8274   24.4874 C   0  0  0  0  0  0  0  0  0  0  0  0
    8.4939  -14.1154   23.7874 O   0  0  0  0  0  0  0  0  0  0  0  0
    8.1375  -16.1787   24.6782 N   0  0  0  0  0  0  0  0  0  0  0  0
    9.3934  -16.6660   24.1630 C   0  0  0  0  0  0  0  0  0  0  0  0
   10.4375  -16.7109   25.2341 C   0  0  0  0  0  0  0  0  0  0  0  0
   11.6034  -17.0638   24.9413 O   0  0  0  0  0  0  0  0  0  0  0  0
   10.9561  -13.8756   27.6803 C   0  0  0  0  0  0  0  0  0  0  0  0
   10.8988  -15.1396   28.5142 C   0  0  1  0  0  0  0  0  0  0  0  0
    9.6057  -15.2459   29.2772 C   0  0  0  0  0  0  0  0  0  0  0  0
   11.0745  -16.3705   27.6453 C   0  0  2  0  0  0  0  0  0  0  0  0
   10.1179  -16.3593   26.5684 N   0  0  0  0  0  0  0  0  0  0  0  0
   10.9684  -17.6208   28.4370 C   0  0  0  0  0  0  0  0  0  0  0  0
   11.9035  -18.0164   29.3596 O   0  0  0  0  0  0  0  0  0  0  0  0
    9.9698  -18.3591   28.2551 O   0  0  0  0  0  0  0  0  0  0  0  0
  2  1  1  0
  3  5  1  0
  3  2  1  0
  3  4  1  6
  5  6  1  1
  7  8  2  0
  7  5  1  0
  9  7  1  0
 10 11  1  0
 10  9  1  0
 11 17  1  0
 12 11  2  0
 14 15  1  6
 14 13  1  0
 16 14  1  0
 16 17  1  6
 18 19  1  0
 18 16  1  0
 20 18  2  0
M  END
$$$$
