NCT.pdb
     RDKit          3D

 22 21  0  0  1  0  0  0  0  0999 V2000
   14.7598  -12.2433  -15.7477 N   0  0  0  0  0  0  0  0  0  0  0  0
   13.9993  -11.1845  -15.1891 C   0  0  0  0  0  0  0  0  0  0  0  0
   12.7363  -11.3201  -15.2157 O   0  0  0  0  0  0  0  0  0  0  0  0
   14.6300   -9.9843  -14.6028 C   0  0  0  0  0  0  0  0  0  0  0  0
   16.1361   -9.9946  -14.6387 C   0  0  2  0  0  0  0  0  0  0  0  0
   16.5224  -11.1044  -13.7350 N   0  0  0  0  0  0  0  0  0  0  0  0
   16.6210   -8.7110  -14.0261 C   0  0  0  0  0  0  0  0  0  0  0  0
   16.3989   -7.5760  -14.4980 O   0  0  0  0  0  0  0  0  0  0  0  0
   17.3938   -8.7192  -12.8220 N   0  0  0  0  0  0  0  0  0  0  0  0
   17.8953   -7.4778  -12.2292 C   0  0  1  0  0  0  0  0  0  0  0  0
   17.7758   -7.6875  -10.7315 C   0  0  0  0  0  0  0  0  0  0  0  0
   18.8175   -6.6286   -9.7465 S   0  0  0  0  0  0  0  0  0  0  0  0
   19.2935   -7.2288  -12.6466 C   0  0  0  0  0  0  0  0  0  0  0  0
   20.1292   -8.1564  -12.4455 O   0  0  0  0  0  0  0  0  0  0  0  0
   21.0577   -7.2468  -15.6598 C   0  0  0  0  0  0  0  0  0  0  0  0
   21.3574   -5.8725  -15.1085 C   0  0  1  0  0  0  0  0  0  0  0  0
   20.5962   -4.9171  -15.7846 O   0  0  0  0  0  0  0  0  0  0  0  0
   21.1372   -5.8216  -13.6374 C   0  0  2  0  0  0  0  0  0  0  0  0
   19.7687   -6.0393  -13.2524 N   0  0  0  0  0  0  0  0  0  0  0  0
   21.7002   -4.5908  -13.0155 C   0  0  0  0  0  0  0  0  0  0  0  0
   23.0508   -4.3688  -12.9382 O   0  0  0  0  0  0  0  0  0  0  0  0
   20.8879   -3.7432  -12.5535 O   0  0  0  0  0  0  0  0  0  0  0  0
  2  1  1  0
  3  2  2  0
  4  2  1  0
  5  4  1  0
  5  6  1  1
  7  5  1  0
  7  9  1  0
  8  7  2  0
 10 11  1  1
 10  9  1  0
 10 13  1  0
 12 11  1  0
 13 19  1  0
 14 13  2  0
 16 15  1  6
 16 17  1  0
 18 16  1  0
 18 19  1  6
 20 18  1  0
 20 21  1  0
 22 20  2  0
M  END
$$$$
