NCT.pdb
     RDKit          3D

 22 21  0  0  1  0  0  0  0  0999 V2000
   21.6299  -15.1018  -17.2143 N   0  0  0  0  0  0  0  0  0  0  0  0
   21.0668  -14.4112  -18.3176 C   0  0  0  0  0  0  0  0  0  0  0  0
   20.9843  -15.0585  -19.4077 O   0  0  0  0  0  0  0  0  0  0  0  0
   20.5955  -13.0148  -18.2170 C   0  0  0  0  0  0  0  0  0  0  0  0
   19.8675  -12.6965  -16.9368 C   0  0  2  0  0  0  0  0  0  0  0  0
   18.6365  -13.5203  -16.9938 N   0  0  0  0  0  0  0  0  0  0  0  0
   19.4581  -11.2516  -16.9860 C   0  0  0  0  0  0  0  0  0  0  0  0
   18.4466  -10.8248  -17.5820 O   0  0  0  0  0  0  0  0  0  0  0  0
   20.2346  -10.2465  -16.3271 N   0  0  0  0  0  0  0  0  0  0  0  0
   19.7564   -8.8674  -16.2110 C   0  0  1  0  0  0  0  0  0  0  0  0
   18.5112   -8.9601  -15.3494 C   0  0  0  0  0  0  0  0  0  0  0  0
   17.9922   -7.4174  -14.6234 S   0  0  0  0  0  0  0  0  0  0  0  0
   20.7934   -8.0060  -15.5997 C   0  0  0  0  0  0  0  0  0  0  0  0
   21.4182   -8.4736  -14.6045 O   0  0  0  0  0  0  0  0  0  0  0  0
   23.7953   -4.0404  -15.7201 C   0  0  0  0  0  0  0  0  0  0  0  0
   22.6147   -4.7686  -16.3192 C   0  0  1  0  0  0  0  0  0  0  0  0
   22.9178   -5.1653  -17.6229 O   0  0  0  0  0  0  0  0  0  0  0  0
   22.2016   -5.9178  -15.4684 C   0  0  2  0  0  0  0  0  0  0  0  0
   21.1419   -6.7049  -16.0394 N   0  0  0  0  0  0  0  0  0  0  0  0
   21.9005   -5.5144  -14.0665 C   0  0  0  0  0  0  0  0  0  0  0  0
   22.8027   -5.6930  -13.0498 O   0  0  0  0  0  0  0  0  0  0  0  0
   20.7742   -4.9954  -13.8348 O   0  0  0  0  0  0  0  0  0  0  0  0
  2  1  1  0
  3  2  2  0
  4  2  1  0
  5  4  1  0
  5  6  1  6
  7  5  1  0
  7  9  1  0
  8  7  2  0
 10 11  1  1
 10  9  1  0
 10 13  1  0
 12 11  1  0
 13 19  1  0
 14 13  2  0
 16 15  1  1
 16 17  1  0
 18 16  1  0
 18 19  1  6
 20 18  1  0
 20 21  1  0
 22 20  2  0
M  END
$$$$
