NCT.pdb
     RDKit          3D

 22 21  0  0  1  0  0  0  0  0999 V2000
   23.9589  -11.9946  -19.4283 N   0  0  0  0  0  0  0  0  0  0  0  0
   23.0873  -10.9874  -19.9155 C   0  0  0  0  0  0  0  0  0  0  0  0
   23.2007  -10.6876  -21.1449 O   0  0  0  0  0  0  0  0  0  0  0  0
   22.0950  -10.3171  -19.0507 C   0  0  0  0  0  0  0  0  0  0  0  0
   22.1237  -10.7636  -17.6120 C   0  0  2  0  0  0  0  0  0  0  0  0
   21.4399  -12.0788  -17.6167 N   0  0  0  0  0  0  0  0  0  0  0  0
   21.2804   -9.8084  -16.8155 C   0  0  0  0  0  0  0  0  0  0  0  0
   20.0368   -9.8761  -16.7200 O   0  0  0  0  0  0  0  0  0  0  0  0
   21.8793   -8.7270  -16.0950 N   0  0  0  0  0  0  0  0  0  0  0  0
   21.0950   -7.8902  -15.1846 C   0  0  1  0  0  0  0  0  0  0  0  0
   21.0407   -8.6745  -13.8871 C   0  0  0  0  0  0  0  0  0  0  0  0
   20.5313   -7.7273  -12.4659 S   0  0  0  0  0  0  0  0  0  0  0  0
   21.7366   -6.5678  -15.0092 C   0  0  0  0  0  0  0  0  0  0  0  0
   22.9719   -6.5576  -14.7384 O   0  0  0  0  0  0  0  0  0  0  0  0
   22.3064   -3.9170  -17.4155 C   0  0  0  0  0  0  0  0  0  0  0  0
   21.6594   -3.2182  -16.2425 C   0  0  1  0  0  0  0  0  0  0  0  0
   20.3413   -2.8857  -16.5606 O   0  0  0  0  0  0  0  0  0  0  0  0
   21.7435   -4.0457  -15.0084 C   0  0  2  0  0  0  0  0  0  0  0  0
   21.0805   -5.3169  -15.1215 N   0  0  0  0  0  0  0  0  0  0  0  0
   21.3166   -3.3031  -13.7898 C   0  0  0  0  0  0  0  0  0  0  0  0
   22.0159   -2.2238  -13.3149 O   0  0  0  0  0  0  0  0  0  0  0  0
   20.2769   -3.6999  -13.1955 O   0  0  0  0  0  0  0  0  0  0  0  0
  2  1  1  0
  3  2  2  0
  4  2  1  0
  5  4  1  0
  5  6  1  6
  7  5  1  0
  7  9  1  0
  8  7  2  0
 10 11  1  1
 10  9  1  0
 10 13  1  0
 12 11  1  0
 13 19  1  0
 14 13  2  0
 16 15  1  6
 16 17  1  0
 18 16  1  0
 18 19  1  6
 20 18  1  0
 20 21  1  0
 22 20  2  0
M  END
$$$$
