NCT.pdb
     RDKit          3D

 22 21  0  0  1  0  0  0  0  0999 V2000
   20.1533  -12.6376  -20.5469 N   0  0  0  0  0  0  0  0  0  0  0  0
   19.7414  -13.0321  -19.2484 C   0  0  0  0  0  0  0  0  0  0  0  0
   19.0588  -14.1009  -19.1719 O   0  0  0  0  0  0  0  0  0  0  0  0
   20.0835  -12.2521  -18.0415 C   0  0  0  0  0  0  0  0  0  0  0  0
   20.8918  -11.0102  -18.3139 C   0  0  2  0  0  0  0  0  0  0  0  0
   22.2525  -11.5117  -18.6214 N   0  0  0  0  0  0  0  0  0  0  0  0
   20.9689  -10.2207  -17.0377 C   0  0  0  0  0  0  0  0  0  0  0  0
   19.9768   -9.8655  -16.3669 O   0  0  0  0  0  0  0  0  0  0  0  0
   22.2320   -9.8171  -16.5002 N   0  0  0  0  0  0  0  0  0  0  0  0
   22.3322   -9.1729  -15.1890 C   0  0  1  0  0  0  0  0  0  0  0  0
   23.6586   -9.6462  -14.6250 C   0  0  0  0  0  0  0  0  0  0  0  0
   23.6910  -11.3604  -14.1384 S   0  0  0  0  0  0  0  0  0  0  0  0
   22.2796   -7.7001  -15.3268 C   0  0  0  0  0  0  0  0  0  0  0  0
   22.8365   -7.1958  -16.3441 O   0  0  0  0  0  0  0  0  0  0  0  0
   20.1909   -3.3508  -14.7542 C   0  0  0  0  0  0  0  0  0  0  0  0
   20.1995   -4.8529  -14.5917 C   0  0  1  0  0  0  0  0  0  0  0  0
   19.4115   -5.4387  -15.5842 O   0  0  0  0  0  0  0  0  0  0  0  0
   21.5883   -5.3878  -14.5942 C   0  0  2  0  0  0  0  0  0  0  0  0
   21.6564   -6.8131  -14.4143 N   0  0  0  0  0  0  0  0  0  0  0  0
   22.4830   -4.6650  -13.6477 C   0  0  0  0  0  0  0  0  0  0  0  0
   22.7638   -5.1530  -12.3977 O   0  0  0  0  0  0  0  0  0  0  0  0
   22.9842   -3.5732  -14.0327 O   0  0  0  0  0  0  0  0  0  0  0  0
  2  1  1  0
  3  2  2  0
  4  2  1  0
  5  4  1  0
  5  6  1  1
  7  5  1  0
  7  9  1  0
  8  7  2  0
 10 11  1  6
 10  9  1  0
 10 13  1  0
 12 11  1  0
 13 19  1  0
 14 13  2  0
 16 15  1  6
 16 17  1  0
 18 16  1  0
 18 19  1  1
 20 18  1  0
 20 21  1  0
 22 20  2  0
M  END
$$$$
