NCT.pdb
     RDKit          3D

 22 21  0  0  1  0  0  0  0  0999 V2000
   16.5814  -13.4109  -18.1921 N   0  0  0  0  0  0  0  0  0  0  0  0
   15.8560  -12.1932  -18.1427 C   0  0  0  0  0  0  0  0  0  0  0  0
   15.0181  -11.9957  -19.0770 O   0  0  0  0  0  0  0  0  0  0  0  0
   16.0532  -11.2007  -17.0665 C   0  0  0  0  0  0  0  0  0  0  0  0
   17.1386  -11.5578  -16.0845 C   0  0  2  0  0  0  0  0  0  0  0  0
   16.4488  -12.3507  -15.0391 N   0  0  0  0  0  0  0  0  0  0  0  0
   17.6253  -10.2848  -15.4516 C   0  0  0  0  0  0  0  0  0  0  0  0
   16.9876   -9.6327  -14.5980 O   0  0  0  0  0  0  0  0  0  0  0  0
   18.8949   -9.7284  -15.8059 N   0  0  0  0  0  0  0  0  0  0  0  0
   19.4252   -8.5446  -15.1265 C   0  0  1  0  0  0  0  0  0  0  0  0
   20.9076   -8.8230  -14.9631 C   0  0  0  0  0  0  0  0  0  0  0  0
   21.8681   -7.4317  -14.3990 S   0  0  0  0  0  0  0  0  0  0  0  0
   19.1727   -7.3266  -15.9287 C   0  0  0  0  0  0  0  0  0  0  0  0
   19.3623   -7.4083  -17.1764 O   0  0  0  0  0  0  0  0  0  0  0  0
   17.0564   -2.9460  -16.6783 C   0  0  0  0  0  0  0  0  0  0  0  0
   17.2730   -4.1558  -15.7996 C   0  0  1  0  0  0  0  0  0  0  0  0
   16.1248   -4.9500  -15.7996 O   0  0  0  0  0  0  0  0  0  0  0  0
   18.4791   -4.9194  -16.2207 C   0  0  2  0  0  0  0  0  0  0  0  0
   18.7358   -6.0812  -15.4129 N   0  0  0  0  0  0  0  0  0  0  0  0
   19.6864   -4.0570  -16.3532 C   0  0  0  0  0  0  0  0  0  0  0  0
   20.0176   -3.4481  -17.5360 O   0  0  0  0  0  0  0  0  0  0  0  0
   20.4090   -3.8989  -15.3312 O   0  0  0  0  0  0  0  0  0  0  0  0
  2  1  1  0
  3  2  2  0
  4  2  1  0
  5  4  1  0
  5  6  1  1
  7  5  1  0
  7  9  1  0
  8  7  2  0
 10 11  1  6
 10  9  1  0
 10 13  1  0
 12 11  1  0
 13 19  1  0
 14 13  2  0
 16 15  1  6
 16 17  1  0
 18 16  1  0
 18 19  1  1
 20 18  1  0
 20 21  1  0
 22 20  2  0
M  END
$$$$
