NCT.pdb
     RDKit          3D

 22 21  0  0  1  0  0  0  0  0999 V2000
   19.8573  -12.9235  -20.4947 N   0  0  0  0  0  0  0  0  0  0  0  0
   19.3710  -13.4047  -19.2524 C   0  0  0  0  0  0  0  0  0  0  0  0
   18.7441  -14.5094  -19.2799 O   0  0  0  0  0  0  0  0  0  0  0  0
   19.5778  -12.6713  -17.9869 C   0  0  0  0  0  0  0  0  0  0  0  0
   20.4099  -11.4226  -18.1225 C   0  0  2  0  0  0  0  0  0  0  0  0
   21.7669  -11.9144  -18.4606 N   0  0  0  0  0  0  0  0  0  0  0  0
   20.4805  -10.7664  -16.7725 C   0  0  0  0  0  0  0  0  0  0  0  0
   19.5883  -10.8463  -15.9018 O   0  0  0  0  0  0  0  0  0  0  0  0
   21.6176   -9.9838  -16.3961 N   0  0  0  0  0  0  0  0  0  0  0  0
   21.6767   -9.2965  -15.1045 C   0  0  1  0  0  0  0  0  0  0  0  0
   22.7885   -9.9948  -14.3444 C   0  0  0  0  0  0  0  0  0  0  0  0
   23.2558   -9.2044  -12.8169 S   0  0  0  0  0  0  0  0  0  0  0  0
   21.9521   -7.8545  -15.2936 C   0  0  0  0  0  0  0  0  0  0  0  0
   22.8496   -7.5435  -16.1287 O   0  0  0  0  0  0  0  0  0  0  0  0
   20.1894   -5.0988  -16.7664 C   0  0  0  0  0  0  0  0  0  0  0  0
   20.5352   -4.5989  -15.3833 C   0  0  1  0  0  0  0  0  0  0  0  0
   19.3884   -4.5836  -14.5872 O   0  0  0  0  0  0  0  0  0  0  0  0
   21.6259   -5.4081  -14.7743 C   0  0  2  0  0  0  0  0  0  0  0  0
   21.2924   -6.7983  -14.6176 N   0  0  0  0  0  0  0  0  0  0  0  0
   22.1424   -4.8148  -13.5094 C   0  0  0  0  0  0  0  0  0  0  0  0
   22.0787   -5.4837  -12.3144 O   0  0  0  0  0  0  0  0  0  0  0  0
   22.6487   -3.6607  -13.5671 O   0  0  0  0  0  0  0  0  0  0  0  0
  2  1  1  0
  3  2  2  0
  4  2  1  0
  5  4  1  0
  5  6  1  1
  7  5  1  0
  7  9  1  0
  8  7  2  0
 10 11  1  1
 10  9  1  0
 10 13  1  0
 12 11  1  0
 13 19  1  0
 14 13  2  0
 16 15  1  6
 16 17  1  0
 18 16  1  0
 18 19  1  1
 20 18  1  0
 20 21  1  0
 22 20  2  0
M  END
$$$$
