NCT.pdb
     RDKit          3D

 22 21  0  0  1  0  0  0  0  0999 V2000
   16.9584  -12.9467  -17.1478 N   0  0  0  0  0  0  0  0  0  0  0  0
   17.6686  -13.2642  -15.9620 C   0  0  0  0  0  0  0  0  0  0  0  0
   17.3019  -14.3137  -15.3469 O   0  0  0  0  0  0  0  0  0  0  0  0
   18.7787  -12.4289  -15.4599 C   0  0  0  0  0  0  0  0  0  0  0  0
   19.0961  -11.2352  -16.3225 C   0  0  2  0  0  0  0  0  0  0  0  0
   19.9704  -11.7712  -17.3929 N   0  0  0  0  0  0  0  0  0  0  0  0
   19.9092  -10.2752  -15.5006 C   0  0  0  0  0  0  0  0  0  0  0  0
   19.5204   -9.7552  -14.4335 O   0  0  0  0  0  0  0  0  0  0  0  0
   21.2243   -9.8894  -15.9116 N   0  0  0  0  0  0  0  0  0  0  0  0
   22.0528   -9.0071  -15.0874 C   0  0  1  0  0  0  0  0  0  0  0  0
   23.4768   -9.4657  -15.3393 C   0  0  0  0  0  0  0  0  0  0  0  0
   23.9525  -10.9369  -14.4531 S   0  0  0  0  0  0  0  0  0  0  0  0
   21.8477   -7.5921  -15.4703 C   0  0  0  0  0  0  0  0  0  0  0  0
   21.9518   -7.3060  -16.6978 O   0  0  0  0  0  0  0  0  0  0  0  0
   19.1726   -5.5882  -16.0839 C   0  0  0  0  0  0  0  0  0  0  0  0
   19.9152   -4.7710  -15.0527 C   0  0  1  0  0  0  0  0  0  0  0  0
   19.2766   -4.8798  -13.8160 O   0  0  0  0  0  0  0  0  0  0  0  0
   21.3472   -5.1697  -14.9777 C   0  0  2  0  0  0  0  0  0  0  0  0
   21.5438   -6.5364  -14.5753 N   0  0  0  0  0  0  0  0  0  0  0  0
   22.1629   -4.2276  -14.1617 C   0  0  0  0  0  0  0  0  0  0  0  0
   22.3822   -2.9317  -14.5515 O   0  0  0  0  0  0  0  0  0  0  0  0
   22.6552   -4.6605  -13.0838 O   0  0  0  0  0  0  0  0  0  0  0  0
  2  1  1  0
  3  2  2  0
  4  2  1  0
  5  4  1  0
  5  6  1  6
  7  5  1  0
  7  9  1  0
  8  7  2  0
 10 11  1  6
 10  9  1  0
 10 13  1  0
 12 11  1  0
 13 19  1  0
 14 13  2  0
 16 15  1  6
 16 17  1  0
 18 16  1  0
 18 19  1  1
 20 18  1  0
 20 21  1  0
 22 20  2  0
M  END
$$$$
