NCT.pdb
     RDKit          3D

 22 21  0  0  1  0  0  0  0  0999 V2000
   29.1683  -19.2670  -16.5683 N   0  0  0  0  0  0  0  0  0  0  0  0
   27.8029  -18.8833  -16.5673 C   0  0  0  0  0  0  0  0  0  0  0  0
   27.4996  -17.8705  -17.2719 O   0  0  0  0  0  0  0  0  0  0  0  0
   26.7785  -19.6152  -15.7947 C   0  0  0  0  0  0  0  0  0  0  0  0
   27.3079  -20.7995  -15.0286 C   0  0  2  0  0  0  0  0  0  0  0  0
   27.5546  -21.8321  -16.0631 N   0  0  0  0  0  0  0  0  0  0  0  0
   26.2094  -21.2978  -14.1325 C   0  0  0  0  0  0  0  0  0  0  0  0
   25.3743  -22.1682  -14.4572 O   0  0  0  0  0  0  0  0  0  0  0  0
   26.0539  -20.7825  -12.8068 N   0  0  0  0  0  0  0  0  0  0  0  0
   24.9372  -21.1951  -11.9543 C   0  0  1  0  0  0  0  0  0  0  0  0
   25.3125  -20.7153  -10.5648 C   0  0  0  0  0  0  0  0  0  0  0  0
   26.7912  -21.4529   -9.8971 S   0  0  0  0  0  0  0  0  0  0  0  0
   23.6703  -20.5934  -12.4276 C   0  0  0  0  0  0  0  0  0  0  0  0
   23.6429  -19.3359  -12.5592 O   0  0  0  0  0  0  0  0  0  0  0  0
   21.4522  -22.1350  -15.3684 C   0  0  0  0  0  0  0  0  0  0  0  0
   21.3456  -20.7274  -14.8299 C   0  0  1  0  0  0  0  0  0  0  0  0
   20.2238  -20.0986  -15.3733 O   0  0  0  0  0  0  0  0  0  0  0  0
   21.3231  -20.7194  -13.3418 C   0  0  2  0  0  0  0  0  0  0  0  0
   22.4905  -21.3109  -12.7454 N   0  0  0  0  0  0  0  0  0  0  0  0
   20.0650  -21.2894  -12.7842 C   0  0  0  0  0  0  0  0  0  0  0  0
   18.8396  -20.7285  -13.0357 O   0  0  0  0  0  0  0  0  0  0  0  0
   20.1578  -22.3196  -12.0618 O   0  0  0  0  0  0  0  0  0  0  0  0
  2  1  1  0
  3  2  2  0
  4  2  1  0
  5  4  1  0
  5  6  1  6
  7  5  1  0
  7  9  1  0
  8  7  2  0
 10 11  1  1
 10  9  1  0
 10 13  1  0
 12 11  1  0
 13 19  1  0
 14 13  2  0
 16 15  1  6
 16 17  1  0
 18 16  1  0
 18 19  1  1
 20 18  1  0
 20 21  1  0
 22 20  2  0
M  END
$$$$
