CWL.pdb
     RDKit          3D

 29 30  0  0  1  0  0  0  0  0999 V2000
   11.7543  -16.2607   18.7272 N   0  0  0  0  0  0  0  0  0  0  0  0
   11.0704  -17.1380   19.6267 C   0  0  1  0  0  0  0  0  0  0  0  0
   11.9350  -18.2702   20.1394 C   0  0  0  0  0  0  0  0  0  0  0  0
   13.4705  -17.6726   20.8708 S   0  0  0  0  0  0  0  0  0  0  0  0
   10.6042  -16.3728   20.8048 C   0  0  0  0  0  0  0  0  0  0  0  0
   11.0740  -15.2220   21.0756 O   0  0  0  0  0  0  0  0  0  0  0  0
    9.6191  -16.9186   21.6531 N   0  0  0  0  0  0  0  0  0  0  0  0
    9.0761  -16.1168   22.7166 C   0  0  1  0  0  0  0  0  0  0  0  0
    7.6079  -16.3517   22.9559 C   0  0  0  0  0  0  0  0  0  0  0  0
    7.0255  -15.6516   24.0853 C   0  0  0  0  0  0  0  0  0  0  0  0
    6.3078  -16.2815   25.0905 C   0  0  0  0  0  0  0  0  0  0  0  0
    5.9536  -15.3328   25.9668 N   0  0  0  0  0  0  0  0  0  0  0  0
    6.4099  -14.1208   25.5717 C   0  0  0  0  0  0  0  0  0  0  0  0
    6.3217  -12.8498   26.0906 C   0  0  0  0  0  0  0  0  0  0  0  0
    6.9012  -11.7804   25.4344 C   0  0  0  0  0  0  0  0  0  0  0  0
    7.5768  -11.9325   24.2598 C   0  0  0  0  0  0  0  0  0  0  0  0
    7.6647  -13.2191   23.7372 C   0  0  0  0  0  0  0  0  0  0  0  0
    7.0917  -14.3148   24.3767 C   0  0  0  0  0  0  0  0  0  0  0  0
    9.7767  -16.4012   23.9931 C   0  0  0  0  0  0  0  0  0  0  0  0
   10.1776  -17.5738   24.1971 O   0  0  0  0  0  0  0  0  0  0  0  0
    9.5065  -13.7300   29.4902 C   0  0  0  0  0  0  0  0  0  0  0  0
   10.2057  -14.7660   28.6574 C   0  0  2  0  0  0  0  0  0  0  0  0
   11.7276  -14.6061   28.8840 C   0  0  0  0  0  0  0  0  0  0  0  0
    9.9988  -14.7352   27.2074 C   0  0  0  0  0  0  0  0  0  0  0  0
   10.5792  -15.7637   26.3193 C   0  0  2  0  0  0  0  0  0  0  0  0
   10.0094  -15.4284   24.9736 N   0  0  0  0  0  0  0  0  0  0  0  0
   10.2181  -17.1612   26.5343 C   0  0  0  0  0  0  0  0  0  0  0  0
   11.1716  -18.0896   26.9233 O   0  0  0  0  0  0  0  0  0  0  0  0
    9.0582  -17.6041   26.3866 O   0  0  0  0  0  0  0  0  0  0  0  0
  2  1  1  6
  2  3  1  0
  3  4  1  0
  5  6  2  0
  5  2  1  0
  7  5  1  0
  8  7  1  0
  9 10  1  0
  8  9  1  1
 10 11  2  0
 11 12  1  0
 13 12  1  0
 14 13  2  0
 15 14  1  0
 16 17  1  0
 16 15  2  0
 17 18  2  0
 18 10  1  0
 18 13  1  0
 19  8  1  0
 19 20  2  0
 22 21  1  1
 23 22  1  0
 24 22  1  0
 25 24  1  1
 25 26  1  0
 26 19  1  0
 27 25  1  0
 28 27  1  0
 29 27  2  0
M  END
$$$$
