CWL.pdb
     RDKit          3D

 29 30  0  0  1  0  0  0  0  0999 V2000
    5.8442  -15.3518   20.0515 N   0  0  0  0  0  0  0  0  0  0  0  0
    6.7661  -16.3365   20.5282 C   0  0  1  0  0  0  0  0  0  0  0  0
    7.5856  -16.9779   19.4285 C   0  0  0  0  0  0  0  0  0  0  0  0
    8.6176  -18.3201   20.0475 S   0  0  0  0  0  0  0  0  0  0  0  0
    7.7152  -15.7082   21.4743 C   0  0  0  0  0  0  0  0  0  0  0  0
    8.2074  -14.5564   21.2520 O   0  0  0  0  0  0  0  0  0  0  0  0
    8.0904  -16.3892   22.6505 N   0  0  0  0  0  0  0  0  0  0  0  0
    9.0894  -15.8172   23.5127 C   0  0  1  0  0  0  0  0  0  0  0  0
    8.7380  -15.8983   24.9748 C   0  0  0  0  0  0  0  0  0  0  0  0
    7.6303  -15.0694   25.4118 C   0  0  0  0  0  0  0  0  0  0  0  0
    6.3257  -15.5268   25.5179 C   0  0  0  0  0  0  0  0  0  0  0  0
    5.5918  -14.5029   25.9721 N   0  0  0  0  0  0  0  0  0  0  0  0
    6.3638  -13.4071   26.1629 C   0  0  0  0  0  0  0  0  0  0  0  0
    6.1154  -12.1260   26.5982 C   0  0  0  0  0  0  0  0  0  0  0  0
    7.1386  -11.2007   26.6818 C   0  0  0  0  0  0  0  0  0  0  0  0
    8.4225  -11.5095   26.3419 C   0  0  0  0  0  0  0  0  0  0  0  0
    8.6711  -12.8059   25.9021 C   0  0  0  0  0  0  0  0  0  0  0  0
    7.6605  -13.7587   25.8087 C   0  0  0  0  0  0  0  0  0  0  0  0
   10.3884  -16.5123   23.3374 C   0  0  0  0  0  0  0  0  0  0  0  0
   10.3761  -17.7616   23.2101 O   0  0  0  0  0  0  0  0  0  0  0  0
   15.7709  -14.6632   21.0947 C   0  0  0  0  0  0  0  0  0  0  0  0
   14.8686  -15.8129   21.4406 C   0  0  2  0  0  0  0  0  0  0  0  0
   14.5021  -16.5384   20.1244 C   0  0  0  0  0  0  0  0  0  0  0  0
   13.6022  -15.5134   22.1134 C   0  0  0  0  0  0  0  0  0  0  0  0
   12.8965  -16.5270   22.9247 C   0  0  2  0  0  0  0  0  0  0  0  0
   11.6185  -15.8430   23.3077 N   0  0  0  0  0  0  0  0  0  0  0  0
   13.4853  -16.9447   24.1929 C   0  0  0  0  0  0  0  0  0  0  0  0
   13.1112  -16.3402   25.3832 O   0  0  0  0  0  0  0  0  0  0  0  0
   14.3424  -17.8498   24.2900 O   0  0  0  0  0  0  0  0  0  0  0  0
  2  1  1  6
  2  3  1  0
  3  4  1  0
  5  6  2  0
  5  2  1  0
  7  5  1  0
  8  7  1  0
  9 10  1  0
  8  9  1  1
 10 11  2  0
 11 12  1  0
 13 12  1  0
 14 13  2  0
 15 14  1  0
 16 17  1  0
 16 15  2  0
 17 18  2  0
 18 10  1  0
 18 13  1  0
 19  8  1  0
 19 20  2  0
 22 21  1  6
 23 22  1  0
 24 22  1  0
 25 24  1  1
 25 26  1  0
 26 19  1  0
 27 25  1  0
 28 27  1  0
 29 27  2  0
M  END
$$$$
