CWL.pdb
     RDKit          3D

 29 30  0  0  1  0  0  0  0  0999 V2000
   10.8000  -15.3325   18.6041 N   0  0  0  0  0  0  0  0  0  0  0  0
   11.0909  -16.2227   19.6855 C   0  0  1  0  0  0  0  0  0  0  0  0
   12.5727  -16.4470   19.9002 C   0  0  0  0  0  0  0  0  0  0  0  0
   12.8939  -17.7900   21.0591 S   0  0  0  0  0  0  0  0  0  0  0  0
   10.5435  -15.6676   20.9437 C   0  0  0  0  0  0  0  0  0  0  0  0
   10.7007  -14.4433   21.2513 O   0  0  0  0  0  0  0  0  0  0  0  0
    9.8307  -16.5019   21.8290 N   0  0  0  0  0  0  0  0  0  0  0  0
    9.2651  -15.9442   23.0281 C   0  0  1  0  0  0  0  0  0  0  0  0
    7.7800  -16.1627   23.1491 C   0  0  0  0  0  0  0  0  0  0  0  0
    7.1211  -15.4752   24.2438 C   0  0  0  0  0  0  0  0  0  0  0  0
    6.4756  -16.1292   25.2821 C   0  0  0  0  0  0  0  0  0  0  0  0
    6.0165  -15.1825   26.1105 N   0  0  0  0  0  0  0  0  0  0  0  0
    6.3363  -13.9489   25.6530 C   0  0  0  0  0  0  0  0  0  0  0  0
    6.1064  -12.6710   26.1074 C   0  0  0  0  0  0  0  0  0  0  0  0
    6.5649  -11.5784   25.3958 C   0  0  0  0  0  0  0  0  0  0  0  0
    7.2557  -11.7139   24.2281 C   0  0  0  0  0  0  0  0  0  0  0  0
    7.4870  -13.0076   23.7708 C   0  0  0  0  0  0  0  0  0  0  0  0
    7.0379  -14.1263   24.4670 C   0  0  0  0  0  0  0  0  0  0  0  0
    9.8936  -16.5465   24.2294 C   0  0  0  0  0  0  0  0  0  0  0  0
   10.5338  -17.6173   24.0857 O   0  0  0  0  0  0  0  0  0  0  0  0
   10.3492  -13.3236   27.4120 C   0  0  0  0  0  0  0  0  0  0  0  0
    9.4319  -14.4662   27.7417 C   0  0  2  0  0  0  0  0  0  0  0  0
    8.7919  -14.1758   29.1199 C   0  0  0  0  0  0  0  0  0  0  0  0
   10.0119  -15.8085   27.8306 C   0  0  0  0  0  0  0  0  0  0  0  0
   10.6317  -16.4644   26.6604 C   0  0  2  0  0  0  0  0  0  0  0  0
    9.8059  -15.9791   25.5070 N   0  0  0  0  0  0  0  0  0  0  0  0
   10.5811  -17.9196   26.5632 C   0  0  0  0  0  0  0  0  0  0  0  0
    9.5782  -18.5491   25.8418 O   0  0  0  0  0  0  0  0  0  0  0  0
   11.4141  -18.6763   27.1081 O   0  0  0  0  0  0  0  0  0  0  0  0
  2  1  1  6
  2  3  1  0
  3  4  1  0
  5  6  2  0
  5  2  1  0
  7  5  1  0
  8  7  1  0
  9 10  1  0
  8  9  1  1
 10 11  2  0
 11 12  1  0
 13 12  1  0
 14 13  2  0
 15 14  1  0
 16 17  1  0
 16 15  2  0
 17 18  2  0
 18 10  1  0
 18 13  1  0
 19  8  1  0
 19 20  2  0
 22 21  1  1
 23 22  1  0
 24 22  1  0
 25 24  1  1
 25 26  1  0
 26 19  1  0
 27 25  1  0
 28 27  1  0
 29 27  2  0
M  END
$$$$
