CWL.pdb
     RDKit          3D

 29 30  0  0  1  0  0  0  0  0999 V2000
   11.3337  -16.2141   18.8265 N   0  0  0  0  0  0  0  0  0  0  0  0
   10.7643  -17.1578   19.7386 C   0  0  1  0  0  0  0  0  0  0  0  0
   11.7112  -18.2763   20.1187 C   0  0  0  0  0  0  0  0  0  0  0  0
   13.4147  -17.7038   20.2589 S   0  0  0  0  0  0  0  0  0  0  0  0
   10.3772  -16.4657   20.9884 C   0  0  0  0  0  0  0  0  0  0  0  0
   10.8947  -15.3507   21.3158 O   0  0  0  0  0  0  0  0  0  0  0  0
    9.4158  -17.0429   21.8431 N   0  0  0  0  0  0  0  0  0  0  0  0
    9.0187  -16.3455   23.0367 C   0  0  1  0  0  0  0  0  0  0  0  0
    7.6167  -16.6679   23.4819 C   0  0  0  0  0  0  0  0  0  0  0  0
    7.0613  -15.8103   24.5121 C   0  0  0  0  0  0  0  0  0  0  0  0
    6.3718  -16.2867   25.6167 C   0  0  0  0  0  0  0  0  0  0  0  0
    6.0372  -15.2203   26.3542 N   0  0  0  0  0  0  0  0  0  0  0  0
    6.4792  -14.0790   25.7750 C   0  0  0  0  0  0  0  0  0  0  0  0
    6.4003  -12.7460   26.1054 C   0  0  0  0  0  0  0  0  0  0  0  0
    6.9591  -11.7839   25.2855 C   0  0  0  0  0  0  0  0  0  0  0  0
    7.6047  -12.1059   24.1285 C   0  0  0  0  0  0  0  0  0  0  0  0
    7.6833  -13.4549   23.7968 C   0  0  0  0  0  0  0  0  0  0  0  0
    7.1306  -14.4454   24.6038 C   0  0  0  0  0  0  0  0  0  0  0  0
    9.9226  -16.6847   24.1632 C   0  0  0  0  0  0  0  0  0  0  0  0
   10.5578  -17.7665   24.1043 O   0  0  0  0  0  0  0  0  0  0  0  0
    9.6187  -12.9013   27.3547 C   0  0  0  0  0  0  0  0  0  0  0  0
    9.8325  -14.3435   27.7151 C   0  0  2  0  0  0  0  0  0  0  0  0
    9.8618  -14.4455   29.2584 C   0  0  0  0  0  0  0  0  0  0  0  0
   11.0523  -14.9975   27.2349 C   0  0  0  0  0  0  0  0  0  0  0  0
   11.0024  -16.2282   26.4186 C   0  0  2  0  0  0  0  0  0  0  0  0
   10.0983  -15.8591   25.2810 N   0  0  0  0  0  0  0  0  0  0  0  0
   10.4010  -17.4273   26.9931 C   0  0  0  0  0  0  0  0  0  0  0  0
   11.1382  -18.2698   27.8111 O   0  0  0  0  0  0  0  0  0  0  0  0
    9.2146  -17.7673   26.7927 O   0  0  0  0  0  0  0  0  0  0  0  0
  2  1  1  6
  2  3  1  0
  3  4  1  0
  5  6  2  0
  5  2  1  0
  7  5  1  0
  8  7  1  0
  9 10  1  0
  8  9  1  1
 10 11  2  0
 11 12  1  0
 13 12  1  0
 14 13  2  0
 15 14  1  0
 16 17  1  0
 16 15  2  0
 17 18  2  0
 18 10  1  0
 18 13  1  0
 19  8  1  0
 19 20  2  0
 22 21  1  1
 23 22  1  0
 24 22  1  0
 25 24  1  1
 25 26  1  0
 26 19  1  0
 27 25  1  0
 28 27  1  0
 29 27  2  0
M  END
$$$$
