CWL.pdb
     RDKit          3D

 29 30  0  0  1  0  0  0  0  0999 V2000
    9.1186  -17.3289   20.0976 N   0  0  0  0  0  0  0  0  0  0  0  0
    9.5254  -15.9765   20.3257 C   0  0  1  0  0  0  0  0  0  0  0  0
    8.5583  -14.9535   19.7684 C   0  0  0  0  0  0  0  0  0  0  0  0
    6.9049  -15.1351   20.4633 S   0  0  0  0  0  0  0  0  0  0  0  0
    9.6339  -15.7316   21.7814 C   0  0  0  0  0  0  0  0  0  0  0  0
   10.1674  -14.6703   22.2366 O   0  0  0  0  0  0  0  0  0  0  0  0
    9.1395  -16.6860   22.6939 N   0  0  0  0  0  0  0  0  0  0  0  0
    9.2640  -16.4469   24.1066 C   0  0  1  0  0  0  0  0  0  0  0  0
    8.0389  -16.8355   24.8915 C   0  0  0  0  0  0  0  0  0  0  0  0
    7.0703  -15.7811   25.1258 C   0  0  0  0  0  0  0  0  0  0  0  0
    5.7122  -16.0097   25.2873 C   0  0  0  0  0  0  0  0  0  0  0  0
    5.1425  -14.8184   25.5095 N   0  0  0  0  0  0  0  0  0  0  0  0
    6.0712  -13.8331   25.4980 C   0  0  0  0  0  0  0  0  0  0  0  0
    6.0199  -12.4683   25.6628 C   0  0  0  0  0  0  0  0  0  0  0  0
    7.1709  -11.7070   25.5867 C   0  0  0  0  0  0  0  0  0  0  0  0
    8.3922  -12.2643   25.3483 C   0  0  0  0  0  0  0  0  0  0  0  0
    8.4413  -13.6449   25.1821 C   0  0  0  0  0  0  0  0  0  0  0  0
    7.2987  -14.4367   25.2544 C   0  0  0  0  0  0  0  0  0  0  0  0
   10.4025  -17.2159   24.6667 C   0  0  0  0  0  0  0  0  0  0  0  0
   11.3978  -17.4178   23.9279 O   0  0  0  0  0  0  0  0  0  0  0  0
   10.1279  -14.1675   29.2681 C   0  0  0  0  0  0  0  0  0  0  0  0
   11.0477  -15.1885   28.6623 C   0  0  2  0  0  0  0  0  0  0  0  0
   12.2397  -14.4334   28.0282 C   0  0  0  0  0  0  0  0  0  0  0  0
   10.5098  -16.0628   27.6171 C   0  0  0  0  0  0  0  0  0  0  0  0
   11.3081  -17.1649   27.0413 C   0  0  2  0  0  0  0  0  0  0  0  0
   10.4173  -17.7230   25.9723 N   0  0  0  0  0  0  0  0  0  0  0  0
   11.6338  -18.3105   27.8846 C   0  0  0  0  0  0  0  0  0  0  0  0
   10.6383  -19.1560   28.3499 O   0  0  0  0  0  0  0  0  0  0  0  0
   12.7987  -18.5993   28.2353 O   0  0  0  0  0  0  0  0  0  0  0  0
  2  1  1  1
  2  3  1  0
  3  4  1  0
  5  6  2  0
  5  2  1  0
  7  5  1  0
  8  7  1  0
  9 10  1  0
  8  9  1  1
 10 11  2  0
 11 12  1  0
 13 12  1  0
 14 13  2  0
 15 14  1  0
 16 17  1  0
 16 15  2  0
 17 18  2  0
 18 10  1  0
 18 13  1  0
 19  8  1  0
 19 20  2  0
 22 21  1  6
 23 22  1  0
 24 22  1  0
 25 24  1  1
 25 26  1  0
 26 19  1  0
 27 25  1  0
 28 27  1  0
 29 27  2  0
M  END
$$$$
