CWL.pdb
     RDKit          3D

 29 30  0  0  1  0  0  0  0  0999 V2000
   11.6011  -16.6071   19.1862 N   0  0  0  0  0  0  0  0  0  0  0  0
   10.9425  -17.4161   20.1653 C   0  0  1  0  0  0  0  0  0  0  0  0
   11.8262  -18.4997   20.7458 C   0  0  0  0  0  0  0  0  0  0  0  0
   13.3734  -17.8384   21.3927 S   0  0  0  0  0  0  0  0  0  0  0  0
   10.4947  -16.5645   21.2900 C   0  0  0  0  0  0  0  0  0  0  0  0
   11.1102  -15.4943   21.5966 O   0  0  0  0  0  0  0  0  0  0  0  0
    9.3637  -16.9353   22.0459 N   0  0  0  0  0  0  0  0  0  0  0  0
    8.9769  -16.1394   23.1797 C   0  0  1  0  0  0  0  0  0  0  0  0
    7.6960  -16.5975   23.8257 C   0  0  0  0  0  0  0  0  0  0  0  0
    7.0604  -15.6515   24.7236 C   0  0  0  0  0  0  0  0  0  0  0  0
    6.1799  -16.0215   25.7288 C   0  0  0  0  0  0  0  0  0  0  0  0
    5.8214  -14.8978   26.3629 N   0  0  0  0  0  0  0  0  0  0  0  0
    6.4303  -13.8212   25.8119 C   0  0  0  0  0  0  0  0  0  0  0  0
    6.4048  -12.4706   26.0721 C   0  0  0  0  0  0  0  0  0  0  0  0
    7.1510  -11.5931   25.3084 C   0  0  0  0  0  0  0  0  0  0  0  0
    7.9352  -12.0183   24.2772 C   0  0  0  0  0  0  0  0  0  0  0  0
    7.9594  -13.3848   24.0163 C   0  0  0  0  0  0  0  0  0  0  0  0
    7.2190  -14.2918   24.7693 C   0  0  0  0  0  0  0  0  0  0  0  0
   10.0293  -16.1754   24.2248 C   0  0  0  0  0  0  0  0  0  0  0  0
   11.0235  -15.4207   24.0866 O   0  0  0  0  0  0  0  0  0  0  0  0
    9.7126  -13.3307   28.5076 C   0  0  0  0  0  0  0  0  0  0  0  0
   10.5391  -14.4943   28.0401 C   0  0  2  0  0  0  0  0  0  0  0  0
   11.8319  -13.9307   27.4045 C   0  0  0  0  0  0  0  0  0  0  0  0
    9.9520  -15.3989   27.0485 C   0  0  0  0  0  0  0  0  0  0  0  0
   10.6234  -16.6533   26.6496 C   0  0  2  0  0  0  0  0  0  0  0  0
    9.9646  -17.0069   25.3501 N   0  0  0  0  0  0  0  0  0  0  0  0
   10.4508  -17.8377   27.4845 C   0  0  0  0  0  0  0  0  0  0  0  0
    9.2398  -18.5121   27.5192 O   0  0  0  0  0  0  0  0  0  0  0  0
   11.3564  -18.3114   28.2048 O   0  0  0  0  0  0  0  0  0  0  0  0
  2  1  1  6
  2  3  1  0
  3  4  1  0
  5  6  2  0
  5  2  1  0
  7  5  1  0
  8  7  1  0
  9 10  1  0
  8  9  1  1
 10 11  2  0
 11 12  1  0
 13 12  1  0
 14 13  2  0
 15 14  1  0
 16 17  1  0
 16 15  2  0
 17 18  2  0
 18 10  1  0
 18 13  1  0
 19  8  1  0
 19 20  2  0
 22 21  1  6
 23 22  1  0
 24 22  1  0
 25 24  1  1
 25 26  1  0
 26 19  1  0
 27 25  1  0
 28 27  1  0
 29 27  2  0
M  END
$$$$
