CWL.pdb
     RDKit          3D

 29 30  0  0  1  0  0  0  0  0999 V2000
   11.6087  -16.2295   18.9239 N   0  0  0  0  0  0  0  0  0  0  0  0
   10.9398  -17.1292   19.8125 C   0  0  1  0  0  0  0  0  0  0  0  0
   11.8098  -18.2788   20.2748 C   0  0  0  0  0  0  0  0  0  0  0  0
   13.3076  -17.7064   21.0986 S   0  0  0  0  0  0  0  0  0  0  0  0
   10.5016  -16.3958   21.0212 C   0  0  0  0  0  0  0  0  0  0  0  0
   11.0653  -15.3133   21.3799 O   0  0  0  0  0  0  0  0  0  0  0  0
    9.4384  -16.8960   21.8005 N   0  0  0  0  0  0  0  0  0  0  0  0
    9.0632  -16.2130   23.0093 C   0  0  1  0  0  0  0  0  0  0  0  0
    7.6781  -16.5587   23.4890 C   0  0  0  0  0  0  0  0  0  0  0  0
    7.1133  -15.6794   24.4953 C   0  0  0  0  0  0  0  0  0  0  0  0
    6.4014  -16.1313   25.5959 C   0  0  0  0  0  0  0  0  0  0  0  0
    6.0640  -15.0498   26.3100 N   0  0  0  0  0  0  0  0  0  0  0  0
    6.5257  -13.9222   25.7195 C   0  0  0  0  0  0  0  0  0  0  0  0
    6.4531  -12.5832   26.0263 C   0  0  0  0  0  0  0  0  0  0  0  0
    7.0339  -11.6398   25.2001 C   0  0  0  0  0  0  0  0  0  0  0  0
    7.6958  -11.9866   24.0596 C   0  0  0  0  0  0  0  0  0  0  0  0
    7.7680  -13.3416   23.7516 C   0  0  0  0  0  0  0  0  0  0  0  0
    7.1932  -14.3138   24.5655 C   0  0  0  0  0  0  0  0  0  0  0  0
   10.0013  -16.5472   24.1090 C   0  0  0  0  0  0  0  0  0  0  0  0
   10.6916  -17.5904   23.9985 O   0  0  0  0  0  0  0  0  0  0  0  0
    9.5052  -12.9673   27.4187 C   0  0  0  0  0  0  0  0  0  0  0  0
    9.9552  -14.3416   27.8244 C   0  0  2  0  0  0  0  0  0  0  0  0
   10.2483  -14.3137   29.3431 C   0  0  0  0  0  0  0  0  0  0  0  0
   11.1531  -14.8889   27.1827 C   0  0  0  0  0  0  0  0  0  0  0  0
   11.1003  -16.1153   26.3600 C   0  0  2  0  0  0  0  0  0  0  0  0
   10.1507  -15.7576   25.2563 N   0  0  0  0  0  0  0  0  0  0  0  0
   10.5432  -17.3300   26.9462 C   0  0  0  0  0  0  0  0  0  0  0  0
    9.2618  -17.7509   26.6248 O   0  0  0  0  0  0  0  0  0  0  0  0
   11.1649  -18.0531   27.7549 O   0  0  0  0  0  0  0  0  0  0  0  0
  2  1  1  6
  2  3  1  0
  3  4  1  0
  5  6  2  0
  5  2  1  0
  7  5  1  0
  8  7  1  0
  9 10  1  0
  8  9  1  1
 10 11  2  0
 11 12  1  0
 13 12  1  0
 14 13  2  0
 15 14  1  0
 16 17  1  0
 16 15  2  0
 17 18  2  0
 18 10  1  0
 18 13  1  0
 19  8  1  0
 19 20  2  0
 22 21  1  6
 23 22  1  0
 24 22  1  0
 25 24  1  1
 25 26  1  0
 26 19  1  0
 27 25  1  0
 28 27  1  0
 29 27  2  0
M  END
$$$$
