CWL.pdb
     RDKit          3D

 29 30  0  0  1  0  0  0  0  0999 V2000
   10.1398  -19.8296   20.4684 N   0  0  0  0  0  0  0  0  0  0  0  0
   10.9192  -18.7446   19.9566 C   0  0  1  0  0  0  0  0  0  0  0  0
   10.5712  -18.3716   18.5311 C   0  0  0  0  0  0  0  0  0  0  0  0
   10.2053  -19.8197   17.5217 S   0  0  0  0  0  0  0  0  0  0  0  0
   10.7007  -17.5420   20.7914 C   0  0  0  0  0  0  0  0  0  0  0  0
   11.3394  -16.4627   20.5783 O   0  0  0  0  0  0  0  0  0  0  0  0
    9.7682  -17.5795   21.8483 N   0  0  0  0  0  0  0  0  0  0  0  0
    9.5681  -16.4084   22.6589 C   0  0  1  0  0  0  0  0  0  0  0  0
    8.1392  -15.9338   22.6856 C   0  0  0  0  0  0  0  0  0  0  0  0
    7.9262  -14.5765   23.1519 C   0  0  0  0  0  0  0  0  0  0  0  0
    8.3263  -13.4519   22.4464 C   0  0  0  0  0  0  0  0  0  0  0  0
    7.9423  -12.3879   23.1632 N   0  0  0  0  0  0  0  0  0  0  0  0
    7.3138  -12.7757   24.2980 C   0  0  0  0  0  0  0  0  0  0  0  0
    6.7453  -12.1026   25.3545 C   0  0  0  0  0  0  0  0  0  0  0  0
    6.1693  -12.7960   26.4022 C   0  0  0  0  0  0  0  0  0  0  0  0
    6.1381  -14.1587   26.4372 C   0  0  0  0  0  0  0  0  0  0  0  0
    6.7135  -14.8371   25.3673 C   0  0  0  0  0  0  0  0  0  0  0  0
    7.2999  -14.1651   24.2984 C   0  0  0  0  0  0  0  0  0  0  0  0
    9.9658  -16.6731   24.0635 C   0  0  0  0  0  0  0  0  0  0  0  0
    9.8544  -17.8466   24.4967 O   0  0  0  0  0  0  0  0  0  0  0  0
    9.8344  -13.1971   29.0427 C   0  0  0  0  0  0  0  0  0  0  0  0
   10.3562  -14.4854   28.4740 C   0  0  2  0  0  0  0  0  0  0  0  0
   11.8336  -14.6301   28.9093 C   0  0  0  0  0  0  0  0  0  0  0  0
   10.3365  -14.6511   27.0186 C   0  0  0  0  0  0  0  0  0  0  0  0
   10.7073  -15.9304   26.3787 C   0  0  2  0  0  0  0  0  0  0  0  0
   10.4561  -15.6807   24.9219 N   0  0  0  0  0  0  0  0  0  0  0  0
    9.9248  -17.1226   26.6884 C   0  0  0  0  0  0  0  0  0  0  0  0
    8.5931  -17.2155   26.3138 O   0  0  0  0  0  0  0  0  0  0  0  0
   10.3881  -18.1129   27.2952 O   0  0  0  0  0  0  0  0  0  0  0  0
  2  1  1  1
  2  3  1  0
  3  4  1  0
  5  6  2  0
  5  2  1  0
  7  5  1  0
  8  7  1  0
  9 10  1  0
  8  9  1  1
 10 11  2  0
 11 12  1  0
 13 12  1  0
 14 13  2  0
 15 14  1  0
 16 17  1  0
 16 15  2  0
 17 18  2  0
 18 10  1  0
 18 13  1  0
 19  8  1  0
 19 20  2  0
 22 21  1  6
 23 22  1  0
 24 22  1  0
 25 24  1  1
 25 26  1  0
 26 19  1  0
 27 25  1  0
 28 27  1  0
 29 27  2  0
M  END
$$$$
