CWL.pdb
     RDKit          3D

 29 30  0  0  1  0  0  0  0  0999 V2000
    6.9212  -15.3413   19.7226 N   0  0  0  0  0  0  0  0  0  0  0  0
    7.0218  -16.2330   20.8367 C   0  0  1  0  0  0  0  0  0  0  0  0
    7.4140  -17.6426   20.4477 C   0  0  0  0  0  0  0  0  0  0  0  0
    8.9786  -17.6884   19.5535 S   0  0  0  0  0  0  0  0  0  0  0  0
    8.0497  -15.7345   21.7777 C   0  0  0  0  0  0  0  0  0  0  0  0
    8.8401  -14.7909   21.4565 O   0  0  0  0  0  0  0  0  0  0  0  0
    8.1665  -16.3082   23.0604 N   0  0  0  0  0  0  0  0  0  0  0  0
    9.2012  -15.8525   23.9493 C   0  0  1  0  0  0  0  0  0  0  0  0
    8.7692  -15.7880   25.3905 C   0  0  0  0  0  0  0  0  0  0  0  0
    7.6316  -14.9345   25.6780 C   0  0  0  0  0  0  0  0  0  0  0  0
    6.3232  -15.3910   25.7247 C   0  0  0  0  0  0  0  0  0  0  0  0
    5.5570  -14.3393   26.0412 N   0  0  0  0  0  0  0  0  0  0  0  0
    6.3119  -13.2265   26.1999 C   0  0  0  0  0  0  0  0  0  0  0  0
    6.0309  -11.9166   26.5124 C   0  0  0  0  0  0  0  0  0  0  0  0
    7.0444  -10.9807   26.5964 C   0  0  0  0  0  0  0  0  0  0  0  0
    8.3500  -11.3067   26.3767 C   0  0  0  0  0  0  0  0  0  0  0  0
    8.6314  -12.6323   26.0610 C   0  0  0  0  0  0  0  0  0  0  0  0
    7.6313  -13.5964   25.9703 C   0  0  0  0  0  0  0  0  0  0  0  0
   10.3767  -16.7555   23.8866 C   0  0  0  0  0  0  0  0  0  0  0  0
   10.1747  -17.9697   23.6378 O   0  0  0  0  0  0  0  0  0  0  0  0
   13.6243  -16.6803   20.8539 C   0  0  0  0  0  0  0  0  0  0  0  0
   13.7357  -15.7678   22.0416 C   0  0  2  0  0  0  0  0  0  0  0  0
   14.9598  -14.8486   21.8180 C   0  0  0  0  0  0  0  0  0  0  0  0
   13.9131  -16.3778   23.3616 C   0  0  0  0  0  0  0  0  0  0  0  0
   12.8718  -17.2344   23.9662 C   0  0  2  0  0  0  0  0  0  0  0  0
   11.6916  -16.3182   24.0910 N   0  0  0  0  0  0  0  0  0  0  0  0
   13.0828  -17.7492   25.3153 C   0  0  0  0  0  0  0  0  0  0  0  0
   12.3839  -17.2264   26.3927 O   0  0  0  0  0  0  0  0  0  0  0  0
   13.8851  -18.6697   25.5843 O   0  0  0  0  0  0  0  0  0  0  0  0
  2  1  1  6
  2  3  1  0
  3  4  1  0
  5  6  2  0
  5  2  1  0
  7  5  1  0
  8  7  1  0
  9 10  1  0
  8  9  1  1
 10 11  2  0
 11 12  1  0
 13 12  1  0
 14 13  2  0
 15 14  1  0
 16 17  1  0
 16 15  2  0
 17 18  2  0
 18 10  1  0
 18 13  1  0
 19  8  1  0
 19 20  2  0
 22 21  1  6
 23 22  1  0
 24 22  1  0
 25 24  1  1
 25 26  1  0
 26 19  1  0
 27 25  1  0
 28 27  1  0
 29 27  2  0
M  END
$$$$
