CWL.pdb
     RDKit          3D

 29 30  0  0  1  0  0  0  0  0999 V2000
    9.4541  -14.3105   17.9515 N   0  0  0  0  0  0  0  0  0  0  0  0
    9.8921  -15.3355   18.8482 C   0  0  1  0  0  0  0  0  0  0  0  0
   11.3710  -15.6409   18.7392 C   0  0  0  0  0  0  0  0  0  0  0  0
   11.7377  -16.7291   17.3496 S   0  0  0  0  0  0  0  0  0  0  0  0
    9.6316  -14.9161   20.2436 C   0  0  0  0  0  0  0  0  0  0  0  0
    9.8167  -13.7151   20.6199 O   0  0  0  0  0  0  0  0  0  0  0  0
    9.1682  -15.8569   21.1859 N   0  0  0  0  0  0  0  0  0  0  0  0
    8.7146  -15.4057   22.4740 C   0  0  1  0  0  0  0  0  0  0  0  0
    7.2866  -15.7793   22.7723 C   0  0  0  0  0  0  0  0  0  0  0  0
    6.7485  -15.2918   24.0284 C   0  0  0  0  0  0  0  0  0  0  0  0
    6.3281  -16.1221   25.0561 C   0  0  0  0  0  0  0  0  0  0  0  0
    5.9238  -15.3277   26.0555 N   0  0  0  0  0  0  0  0  0  0  0  0
    6.0640  -14.0239   25.7182 C   0  0  0  0  0  0  0  0  0  0  0  0
    5.7999  -12.8361   26.3599 C   0  0  0  0  0  0  0  0  0  0  0  0
    6.0494  -11.6287   25.7355 C   0  0  0  0  0  0  0  0  0  0  0  0
    6.5611  -11.5592   24.4735 C   0  0  0  0  0  0  0  0  0  0  0  0
    6.8276  -12.7620   23.8268 C   0  0  0  0  0  0  0  0  0  0  0  0
    6.5871  -13.9926   24.4314 C   0  0  0  0  0  0  0  0  0  0  0  0
    9.5514  -15.9853   23.5533 C   0  0  0  0  0  0  0  0  0  0  0  0
   10.3540  -16.9021   23.2491 O   0  0  0  0  0  0  0  0  0  0  0  0
   10.2846  -14.5613   29.5621 C   0  0  0  0  0  0  0  0  0  0  0  0
   10.8442  -15.2770   28.3661 C   0  0  2  0  0  0  0  0  0  0  0  0
   12.2887  -14.7696   28.1449 C   0  0  0  0  0  0  0  0  0  0  0  0
   10.1506  -15.1195   27.0854 C   0  0  0  0  0  0  0  0  0  0  0  0
   10.5628  -15.8724   25.8826 C   0  0  2  0  0  0  0  0  0  0  0  0
    9.4871  -15.5596   24.8862 N   0  0  0  0  0  0  0  0  0  0  0  0
   10.5953  -17.3300   25.9442 C   0  0  0  0  0  0  0  0  0  0  0  0
    9.4285  -18.0718   25.8398 O   0  0  0  0  0  0  0  0  0  0  0  0
   11.6467  -17.9906   26.0912 O   0  0  0  0  0  0  0  0  0  0  0  0
  2  1  1  6
  2  3  1  0
  3  4  1  0
  5  6  2  0
  5  2  1  0
  7  5  1  0
  8  7  1  0
  9 10  1  0
  8  9  1  1
 10 11  2  0
 11 12  1  0
 13 12  1  0
 14 13  2  0
 15 14  1  0
 16 17  1  0
 16 15  2  0
 17 18  2  0
 18 10  1  0
 18 13  1  0
 19  8  1  0
 19 20  2  0
 22 21  1  1
 23 22  1  0
 24 22  1  0
 25 24  1  1
 25 26  1  0
 26 19  1  0
 27 25  1  0
 28 27  1  0
 29 27  2  0
M  END
$$$$
