ELG.pdb
     RDKit          3D

 22 21  0  0  1  0  0  0  0  0999 V2000
    9.1280  -14.8554   20.9442 N   0  0  0  0  0  0  0  0  0  0  0  0
    8.5859  -15.7244   21.9392 C   0  0  1  0  0  0  0  0  0  0  0  0
    8.8275  -17.1455   21.6583 C   0  0  0  0  0  0  0  0  0  0  0  0
    8.4802  -17.5702   20.2707 C   0  0  0  0  0  0  0  0  0  0  0  0
    8.6563  -18.9750   19.9249 C   0  0  0  0  0  0  0  0  0  0  0  0
    7.7266  -19.7858   19.8864 O   0  0  0  0  0  0  0  0  0  0  0  0
    8.9789  -15.3125   23.3220 C   0  0  0  0  0  0  0  0  0  0  0  0
   10.1888  -15.2274   23.6647 O   0  0  0  0  0  0  0  0  0  0  0  0
    9.9315  -19.4544   19.6171 O   0  0  0  0  0  0  0  0  0  0  0  0
    8.0904  -11.5431   25.6991 C   0  0  0  0  0  0  0  0  0  0  0  0
    6.9257  -12.5477   25.6638 C   0  0  2  0  0  0  0  0  0  0  0  0
    5.7599  -11.8420   26.2996 C   0  0  0  0  0  0  0  0  0  0  0  0
    7.3347  -13.7960   26.3514 C   0  0  0  0  0  0  0  0  0  0  0  0
    8.3181  -14.6691   25.6871 C   0  0  2  0  0  0  0  0  0  0  0  0
    8.0192  -14.9961   24.3200 N   0  0  0  0  0  0  0  0  0  0  0  0
    8.7145  -15.8240   26.5136 C   0  0  0  0  0  0  0  0  0  0  0  0
    9.0087  -15.5926   27.7170 O   0  0  0  0  0  0  0  0  0  0  0  0
    8.7928  -17.1417   26.0581 N   0  0  0  0  0  0  0  0  0  0  0  0
    9.2458  -18.2112   26.8724 C   0  0  0  0  0  0  0  0  0  0  0  0
   10.6861  -18.2811   27.1650 C   0  0  0  0  0  0  0  0  0  0  0  0
   11.5655  -17.5048   26.7843 O   0  0  0  0  0  0  0  0  0  0  0  0
   11.0817  -19.3625   27.9711 O   0  0  0  0  0  0  0  0  0  0  0  0
  2  7  1  0
  2  1  1  6
  3  2  1  0
  4  3  1  0
  5  4  1  0
  5  6  2  0
  7  8  2  0
  9  5  1  0
 11 10  1  1
 11 13  1  0
 12 11  1  0
 14 13  1  1
 15 14  1  0
 15  7  1  0
 16 17  2  0
 16 14  1  0
 18 16  1  0
 19 18  1  0
 19 20  1  0
 20 22  1  0
 21 20  2  0
M  END
$$$$
