ELG.pdb
     RDKit          3D

 22 21  0  0  1  0  0  0  0  0999 V2000
    8.2759  -14.3615   20.2749 N   0  0  0  0  0  0  0  0  0  0  0  0
    7.5077  -14.7724   21.4062 C   0  0  1  0  0  0  0  0  0  0  0  0
    7.0837  -16.1767   21.3370 C   0  0  0  0  0  0  0  0  0  0  0  0
    7.8011  -16.9903   20.3124 C   0  0  0  0  0  0  0  0  0  0  0  0
    7.3716  -18.3690   20.1154 C   0  0  0  0  0  0  0  0  0  0  0  0
    7.8871  -19.1290   19.2910 O   0  0  0  0  0  0  0  0  0  0  0  0
    8.1681  -14.4098   22.6979 C   0  0  0  0  0  0  0  0  0  0  0  0
    9.3823  -14.0749   22.7451 O   0  0  0  0  0  0  0  0  0  0  0  0
    6.3254  -18.8817   20.8859 O   0  0  0  0  0  0  0  0  0  0  0  0
    7.6556  -11.1833   26.1951 C   0  0  0  0  0  0  0  0  0  0  0  0
    6.5234  -12.2118   26.0298 C   0  0  2  0  0  0  0  0  0  0  0  0
    5.4747  -11.8283   27.0371 C   0  0  0  0  0  0  0  0  0  0  0  0
    7.0725  -13.5775   26.2076 C   0  0  0  0  0  0  0  0  0  0  0  0
    8.0355  -14.0780   25.2113 C   0  0  2  0  0  0  0  0  0  0  0  0
    7.4708  -14.4218   23.9352 N   0  0  0  0  0  0  0  0  0  0  0  0
    8.9571  -15.0905   25.7585 C   0  0  0  0  0  0  0  0  0  0  0  0
    9.4413  -14.8663   26.9002 O   0  0  0  0  0  0  0  0  0  0  0  0
    9.3326  -16.2650   25.1029 N   0  0  0  0  0  0  0  0  0  0  0  0
   10.1634  -17.2473   25.7005 C   0  0  0  0  0  0  0  0  0  0  0  0
   10.5581  -18.3990   24.8742 C   0  0  0  0  0  0  0  0  0  0  0  0
   10.9182  -19.5119   25.2651 O   0  0  0  0  0  0  0  0  0  0  0  0
   10.5120  -18.1839   23.4859 O   0  0  0  0  0  0  0  0  0  0  0  0
  2  7  1  0
  2  1  1  6
  3  2  1  0
  4  3  1  0
  5  4  1  0
  5  6  2  0
  7  8  2  0
  9  5  1  0
 11 10  1  1
 11 13  1  0
 12 11  1  0
 14 13  1  1
 15 14  1  0
 15  7  1  0
 16 17  2  0
 16 14  1  0
 18 16  1  0
 19 18  1  0
 19 20  1  0
 20 22  1  0
 21 20  2  0
M  END
$$$$
