ELG.pdb
     RDKit          3D

 22 21  0  0  1  0  0  0  0  0999 V2000
    7.6701  -16.9568   22.5592 N   0  0  0  0  0  0  0  0  0  0  0  0
    9.0704  -16.6826   22.6142 C   0  0  1  0  0  0  0  0  0  0  0  0
    9.6258  -16.2538   21.3241 C   0  0  0  0  0  0  0  0  0  0  0  0
    9.1020  -17.0030   20.1447 C   0  0  0  0  0  0  0  0  0  0  0  0
    9.5750  -16.6092   18.8236 C   0  0  0  0  0  0  0  0  0  0  0  0
   10.4553  -15.7634   18.6425 O   0  0  0  0  0  0  0  0  0  0  0  0
    9.4229  -15.7747   23.7489 C   0  0  0  0  0  0  0  0  0  0  0  0
   10.5909  -15.3231   23.8922 O   0  0  0  0  0  0  0  0  0  0  0  0
    9.0209  -17.2038   17.6877 O   0  0  0  0  0  0  0  0  0  0  0  0
    7.9516  -11.6453   25.2170 C   0  0  0  0  0  0  0  0  0  0  0  0
    6.9898  -12.8182   25.4748 C   0  0  2  0  0  0  0  0  0  0  0  0
    5.7257  -12.1992   26.0043 C   0  0  0  0  0  0  0  0  0  0  0  0
    7.6319  -13.7842   26.3983 C   0  0  0  0  0  0  0  0  0  0  0  0
    8.7564  -14.5911   25.8935 C   0  0  2  0  0  0  0  0  0  0  0  0
    8.4697  -15.3725   24.7219 N   0  0  0  0  0  0  0  0  0  0  0  0
    9.4587  -15.3308   26.9583 C   0  0  0  0  0  0  0  0  0  0  0  0
    9.8374  -14.6684   27.9612 O   0  0  0  0  0  0  0  0  0  0  0  0
    9.7368  -16.6989   26.9292 N   0  0  0  0  0  0  0  0  0  0  0  0
   10.3392  -17.3845   28.0152 C   0  0  0  0  0  0  0  0  0  0  0  0
   10.5887  -18.8257   27.8561 C   0  0  0  0  0  0  0  0  0  0  0  0
   10.4111  -19.5086   26.8446 O   0  0  0  0  0  0  0  0  0  0  0  0
   11.0855  -19.4773   28.9982 O   0  0  0  0  0  0  0  0  0  0  0  0
  2  7  1  0
  2  1  1  6
  3  2  1  0
  4  3  1  0
  5  4  1  0
  5  6  2  0
  7  8  2  0
  9  5  1  0
 11 10  1  1
 11 13  1  0
 12 11  1  0
 14 13  1  1
 15 14  1  0
 15  7  1  0
 16 17  2  0
 16 14  1  0
 18 16  1  0
 19 18  1  0
 19 20  1  0
 20 22  1  0
 21 20  2  0
M  END
$$$$
