ELG.pdb
     RDKit          3D

 22 21  0  0  1  0  0  0  0  0999 V2000
    9.1142  -18.3924   18.0491 N   0  0  0  0  0  0  0  0  0  0  0  0
   10.3747  -17.7309   17.9378 C   0  0  1  0  0  0  0  0  0  0  0  0
   10.7010  -17.3381   16.5608 C   0  0  0  0  0  0  0  0  0  0  0  0
    9.5445  -16.8170   15.7750 C   0  0  0  0  0  0  0  0  0  0  0  0
    9.7932  -16.3788   14.4074 C   0  0  0  0  0  0  0  0  0  0  0  0
   10.8866  -16.4932   13.8467 O   0  0  0  0  0  0  0  0  0  0  0  0
   10.5168  -16.6185   18.9269 C   0  0  0  0  0  0  0  0  0  0  0  0
   11.5945  -15.9755   19.0442 O   0  0  0  0  0  0  0  0  0  0  0  0
    8.7588  -15.7964   13.6715 O   0  0  0  0  0  0  0  0  0  0  0  0
    8.8096  -12.5137   19.3778 C   0  0  0  0  0  0  0  0  0  0  0  0
    7.8167  -13.6353   19.7288 C   0  0  2  0  0  0  0  0  0  0  0  0
    6.4890  -12.9570   19.9251 C   0  0  0  0  0  0  0  0  0  0  0  0
    8.3097  -14.3714   20.9177 C   0  0  0  0  0  0  0  0  0  0  0  0
    9.5266  -15.1899   20.7771 C   0  0  2  0  0  0  0  0  0  0  0  0
    9.4543  -16.2260   19.7839 N   0  0  0  0  0  0  0  0  0  0  0  0
   10.0784  -15.6293   22.0720 C   0  0  0  0  0  0  0  0  0  0  0  0
   10.2703  -14.7398   22.9438 O   0  0  0  0  0  0  0  0  0  0  0  0
   10.4065  -16.9481   22.3931 N   0  0  0  0  0  0  0  0  0  0  0  0
   10.8444  -17.3389   23.6845 C   0  0  0  0  0  0  0  0  0  0  0  0
   12.2556  -17.7266   23.8363 C   0  0  0  0  0  0  0  0  0  0  0  0
   13.1185  -17.7700   22.9562 O   0  0  0  0  0  0  0  0  0  0  0  0
   12.6417  -18.0838   25.1398 O   0  0  0  0  0  0  0  0  0  0  0  0
  2  7  1  0
  2  1  1  6
  3  2  1  0
  4  3  1  0
  5  4  1  0
  5  6  2  0
  7  8  2  0
  9  5  1  0
 11 10  1  1
 11 13  1  0
 12 11  1  0
 14 13  1  1
 15 14  1  0
 15  7  1  0
 16 17  2  0
 16 14  1  0
 18 16  1  0
 19 18  1  0
 19 20  1  0
 20 22  1  0
 21 20  2  0
M  END
$$$$
