ELG.pdb
     RDKit          3D

 22 21  0  0  1  0  0  0  0  0999 V2000
    8.3385  -14.4815   20.3671 N   0  0  0  0  0  0  0  0  0  0  0  0
    7.6472  -15.0747   21.4668 C   0  0  1  0  0  0  0  0  0  0  0  0
    7.4377  -16.5193   21.3054 C   0  0  0  0  0  0  0  0  0  0  0  0
    8.6917  -17.3275   21.2769 C   0  0  0  0  0  0  0  0  0  0  0  0
    8.5691  -18.7673   21.0874 C   0  0  0  0  0  0  0  0  0  0  0  0
    9.5357  -19.5345   21.0733 O   0  0  0  0  0  0  0  0  0  0  0  0
    8.2538  -14.7012   22.7816 C   0  0  0  0  0  0  0  0  0  0  0  0
    9.4984  -14.5518   22.9136 O   0  0  0  0  0  0  0  0  0  0  0  0
    7.3048  -19.3340   20.9105 O   0  0  0  0  0  0  0  0  0  0  0  0
    7.4235  -11.1589   25.6874 C   0  0  0  0  0  0  0  0  0  0  0  0
    6.3704  -12.2793   25.7390 C   0  0  2  0  0  0  0  0  0  0  0  0
    5.2971  -11.7867   26.6700 C   0  0  0  0  0  0  0  0  0  0  0  0
    7.0193  -13.5421   26.1663 C   0  0  0  0  0  0  0  0  0  0  0  0
    7.9834  -14.1764   25.2506 C   0  0  2  0  0  0  0  0  0  0  0  0
    7.4688  -14.4950   23.9471 N   0  0  0  0  0  0  0  0  0  0  0  0
    8.7476  -15.2671   25.8835 C   0  0  0  0  0  0  0  0  0  0  0  0
    9.2335  -15.0388   27.0236 O   0  0  0  0  0  0  0  0  0  0  0  0
    8.9741  -16.5199   25.3097 N   0  0  0  0  0  0  0  0  0  0  0  0
    9.6580  -17.5629   25.9855 C   0  0  0  0  0  0  0  0  0  0  0  0
   11.1188  -17.6349   25.8248 C   0  0  0  0  0  0  0  0  0  0  0  0
   11.8530  -16.8083   25.2783 O   0  0  0  0  0  0  0  0  0  0  0  0
   11.7246  -18.7838   26.3623 O   0  0  0  0  0  0  0  0  0  0  0  0
  2  7  1  0
  2  1  1  6
  3  2  1  0
  4  3  1  0
  5  4  1  0
  5  6  2  0
  7  8  2  0
  9  5  1  0
 11 10  1  1
 11 13  1  0
 12 11  1  0
 14 13  1  1
 15 14  1  0
 15  7  1  0
 16 17  2  0
 16 14  1  0
 18 16  1  0
 19 18  1  0
 19 20  1  0
 20 22  1  0
 21 20  2  0
M  END
$$$$
