GMK.pdb
     RDKit          3D

 22 21  0  0  1  0  0  0  0  0999 V2000
    4.8175  -20.0895   23.5990 N   0  0  0  0  0  0  0  0  0  0  0  0
    5.3471  -19.2757   24.6582 C   0  0  0  0  0  0  0  0  0  0  0  0
    6.0331  -18.0562   24.1246 C   0  0  0  0  0  0  0  0  0  0  0  0
    6.4844  -18.0124   22.9532 O   0  0  0  0  0  0  0  0  0  0  0  0
    6.8996  -12.0977   27.6914 C   0  0  0  0  0  0  0  0  0  0  0  0
    7.2350  -11.8615   25.9427 S   0  0  0  0  0  0  0  0  0  0  0  0
    7.5041  -13.3331   24.9989 C   0  0  0  0  0  0  0  0  0  0  0  0
    6.8121  -14.5722   25.4094 C   0  0  0  0  0  0  0  0  0  0  0  0
    7.0091  -15.8033   24.6031 C   0  0  2  0  0  0  0  0  0  0  0  0
    6.1754  -16.9223   24.9662 N   0  0  0  0  0  0  0  0  0  0  0  0
    8.4775  -16.2121   24.7841 C   0  0  0  0  0  0  0  0  0  0  0  0
    8.8545  -16.7553   25.8522 O   0  0  0  0  0  0  0  0  0  0  0  0
    9.4310  -15.9941   23.7745 N   0  0  0  0  0  0  0  0  0  0  0  0
   10.7744  -16.5988   23.8207 C   0  0  1  0  0  0  0  0  0  0  0  0
   11.0536  -16.9860   22.3799 C   0  0  0  0  0  0  0  0  0  0  0  0
   10.2931  -18.1452   21.8910 C   0  0  0  0  0  0  0  0  0  0  0  0
   10.5929  -18.5402   20.4967 C   0  0  0  0  0  0  0  0  0  0  0  0
    9.7793  -19.6668   19.9531 C   0  0  0  0  0  0  0  0  0  0  0  0
   10.0976  -20.0824   18.6261 N   0  0  0  0  0  0  0  0  0  0  0  0
   11.7843  -15.5926   24.2162 C   0  0  0  0  0  0  0  0  0  0  0  0
   13.0655  -16.0327   24.4897 O   0  0  0  0  0  0  0  0  0  0  0  0
   11.5232  -14.3979   24.3075 O   0  0  0  0  0  0  0  0  0  0  0  0
  2  3  1  0
  2  1  1  0
  3 10  1  0
  4  3  2  0
  6  5  1  0
  7  6  1  0
  7  8  1  0
  9  8  1  1
  9 11  1  0
 10  9  1  0
 11 12  2  0
 11 13  1  0
 13 14  1  0
 14 15  1  6
 15 16  1  0
 16 17  1  0
 17 18  1  0
 19 18  1  0
 20 14  1  0
 20 21  1  0
 22 20  2  0
M  END
$$$$
