GMK.pdb
     RDKit          3D

 22 21  0  0  1  0  0  0  0  0999 V2000
    7.8187  -15.6649   18.9211 N   0  0  0  0  0  0  0  0  0  0  0  0
    6.9187  -15.4987   20.0288 C   0  0  0  0  0  0  0  0  0  0  0  0
    7.6412  -15.0539   21.2628 C   0  0  0  0  0  0  0  0  0  0  0  0
    8.8957  -15.0258   21.3188 O   0  0  0  0  0  0  0  0  0  0  0  0
    7.1779  -11.1615   28.1860 C   0  0  0  0  0  0  0  0  0  0  0  0
    6.2664  -12.0912   26.9486 S   0  0  0  0  0  0  0  0  0  0  0  0
    7.2315  -13.1351   25.8962 C   0  0  0  0  0  0  0  0  0  0  0  0
    6.6519  -13.5704   24.6089 C   0  0  0  0  0  0  0  0  0  0  0  0
    7.5156  -14.2956   23.6431 C   0  0  2  0  0  0  0  0  0  0  0  0
    6.8865  -14.6541   22.3963 N   0  0  0  0  0  0  0  0  0  0  0  0
    7.9700  -15.5822   24.3461 C   0  0  0  0  0  0  0  0  0  0  0  0
    7.1553  -16.5194   24.5360 O   0  0  0  0  0  0  0  0  0  0  0  0
    9.2927  -15.7483   24.7921 N   0  0  0  0  0  0  0  0  0  0  0  0
    9.7525  -16.9910   25.4379 C   0  0  1  0  0  0  0  0  0  0  0  0
   11.0369  -17.3332   24.7053 C   0  0  0  0  0  0  0  0  0  0  0  0
   11.7526  -18.5077   25.2244 C   0  0  0  0  0  0  0  0  0  0  0  0
   12.9810  -18.8642   24.4802 C   0  0  0  0  0  0  0  0  0  0  0  0
   13.6752  -20.1054   24.9321 C   0  0  0  0  0  0  0  0  0  0  0  0
   14.9222  -20.3881   24.2994 N   0  0  0  0  0  0  0  0  0  0  0  0
   10.0991  -16.7433   26.8547 C   0  0  0  0  0  0  0  0  0  0  0  0
   10.1287  -17.8256   27.7136 O   0  0  0  0  0  0  0  0  0  0  0  0
   10.3569  -15.6239   27.2838 O   0  0  0  0  0  0  0  0  0  0  0  0
  2  3  1  0
  2  1  1  0
  3 10  1  0
  4  3  2  0
  6  5  1  0
  7  6  1  0
  7  8  1  0
  9  8  1  1
  9 11  1  0
 10  9  1  0
 11 12  2  0
 11 13  1  0
 13 14  1  0
 14 15  1  6
 15 16  1  0
 16 17  1  0
 17 18  1  0
 19 18  1  0
 20 14  1  0
 20 21  1  0
 22 20  2  0
M  END
$$$$
