GMK.pdb
     RDKit          3D

 22 21  0  0  1  0  0  0  0  0999 V2000
    6.3728  -19.3296   21.6400 N   0  0  0  0  0  0  0  0  0  0  0  0
    5.9431  -18.8661   22.9304 C   0  0  0  0  0  0  0  0  0  0  0  0
    6.7436  -17.6851   23.3854 C   0  0  0  0  0  0  0  0  0  0  0  0
    7.8736  -17.4277   22.9010 O   0  0  0  0  0  0  0  0  0  0  0  0
    7.9570  -11.0584   26.9297 C   0  0  0  0  0  0  0  0  0  0  0  0
    6.8499  -12.2698   26.1996 S   0  0  0  0  0  0  0  0  0  0  0  0
    7.0587  -13.9394   26.7452 C   0  0  0  0  0  0  0  0  0  0  0  0
    6.3077  -15.0076   26.0541 C   0  0  0  0  0  0  0  0  0  0  0  0
    7.0312  -15.8956   25.1093 C   0  0  2  0  0  0  0  0  0  0  0  0
    6.2092  -16.8365   24.3897 N   0  0  0  0  0  0  0  0  0  0  0  0
    8.0518  -16.6809   25.9446 C   0  0  0  0  0  0  0  0  0  0  0  0
    7.6721  -17.6254   26.6808 O   0  0  0  0  0  0  0  0  0  0  0  0
    9.4226  -16.3715   25.9114 N   0  0  0  0  0  0  0  0  0  0  0  0
   10.4313  -17.2038   26.5916 C   0  0  1  0  0  0  0  0  0  0  0  0
   11.7062  -16.9515   25.8077 C   0  0  0  0  0  0  0  0  0  0  0  0
   11.8889  -17.8099   24.6283 C   0  0  0  0  0  0  0  0  0  0  0  0
   12.9766  -17.3888   23.7175 C   0  0  0  0  0  0  0  0  0  0  0  0
   13.0898  -18.1584   22.4441 C   0  0  0  0  0  0  0  0  0  0  0  0
   14.0709  -17.6927   21.5190 N   0  0  0  0  0  0  0  0  0  0  0  0
   10.6547  -16.7246   27.9734 C   0  0  0  0  0  0  0  0  0  0  0  0
   11.4708  -17.4772   28.7966 O   0  0  0  0  0  0  0  0  0  0  0  0
   10.1456  -15.6956   28.4042 O   0  0  0  0  0  0  0  0  0  0  0  0
  2  3  1  0
  2  1  1  0
  3 10  1  0
  4  3  2  0
  6  5  1  0
  7  6  1  0
  7  8  1  0
  9  8  1  1
  9 11  1  0
 10  9  1  0
 11 12  2  0
 11 13  1  0
 13 14  1  0
 14 15  1  6
 15 16  1  0
 16 17  1  0
 17 18  1  0
 19 18  1  0
 20 14  1  0
 20 21  1  0
 22 20  2  0
M  END
$$$$
