GMK.pdb
     RDKit          3D

 22 21  0  0  1  0  0  0  0  0999 V2000
    7.6018  -19.0673   17.1456 N   0  0  0  0  0  0  0  0  0  0  0  0
    6.9267  -18.5529   18.3050 C   0  0  0  0  0  0  0  0  0  0  0  0
    7.7901  -17.5932   19.0639 C   0  0  0  0  0  0  0  0  0  0  0  0
    9.0047  -17.4356   18.7847 O   0  0  0  0  0  0  0  0  0  0  0  0
    8.2939  -11.4609   20.7431 C   0  0  0  0  0  0  0  0  0  0  0  0
    7.3862  -12.7314   19.8553 S   0  0  0  0  0  0  0  0  0  0  0  0
    6.4722  -13.8715   20.8520 C   0  0  0  0  0  0  0  0  0  0  0  0
    7.2161  -14.8812   21.6329 C   0  0  0  0  0  0  0  0  0  0  0  0
    7.9965  -15.9152   20.9074 C   0  0  2  0  0  0  0  0  0  0  0  0
    7.2189  -16.8437   20.1251 N   0  0  0  0  0  0  0  0  0  0  0  0
    8.7692  -16.7050   21.9729 C   0  0  0  0  0  0  0  0  0  0  0  0
    8.1547  -17.4533   22.7733 O   0  0  0  0  0  0  0  0  0  0  0  0
   10.1677  -16.6161   22.0837 N   0  0  0  0  0  0  0  0  0  0  0  0
   10.9287  -17.4092   23.0658 C   0  0  1  0  0  0  0  0  0  0  0  0
   12.0079  -18.0829   22.2381 C   0  0  0  0  0  0  0  0  0  0  0  0
   12.8551  -19.0302   22.9770 C   0  0  0  0  0  0  0  0  0  0  0  0
   13.8823  -19.7122   22.1586 C   0  0  0  0  0  0  0  0  0  0  0  0
   14.7439  -20.6909   22.8840 C   0  0  0  0  0  0  0  0  0  0  0  0
   15.7556  -21.3280   22.1056 N   0  0  0  0  0  0  0  0  0  0  0  0
   11.6018  -16.5227   24.0405 C   0  0  0  0  0  0  0  0  0  0  0  0
   11.9863  -17.0649   25.2522 O   0  0  0  0  0  0  0  0  0  0  0  0
   11.8256  -15.3394   23.8096 O   0  0  0  0  0  0  0  0  0  0  0  0
  2  3  1  0
  2  1  1  0
  3 10  1  0
  4  3  2  0
  6  5  1  0
  7  6  1  0
  7  8  1  0
  9  8  1  1
  9 11  1  0
 10  9  1  0
 11 12  2  0
 11 13  1  0
 13 14  1  0
 14 15  1  6
 15 16  1  0
 16 17  1  0
 17 18  1  0
 19 18  1  0
 20 14  1  0
 20 21  1  0
 22 20  2  0
M  END
$$$$
