GMK.pdb
     RDKit          3D

 22 21  0  0  1  0  0  0  0  0999 V2000
    7.9327  -15.7536   19.1646 N   0  0  0  0  0  0  0  0  0  0  0  0
    7.0613  -15.8976   20.2980 C   0  0  0  0  0  0  0  0  0  0  0  0
    7.7124  -15.4157   21.5575 C   0  0  0  0  0  0  0  0  0  0  0  0
    8.9606  -15.3180   21.6593 O   0  0  0  0  0  0  0  0  0  0  0  0
    8.5370  -11.5598   27.7726 C   0  0  0  0  0  0  0  0  0  0  0  0
    7.9672  -12.1643   26.1801 S   0  0  0  0  0  0  0  0  0  0  0  0
    6.9842  -13.6344   26.2152 C   0  0  0  0  0  0  0  0  0  0  0  0
    6.4805  -14.1782   24.9372 C   0  0  0  0  0  0  0  0  0  0  0  0
    7.4583  -14.6557   23.9270 C   0  0  2  0  0  0  0  0  0  0  0  0
    6.8959  -15.0608   22.6627 N   0  0  0  0  0  0  0  0  0  0  0  0
    8.1739  -15.8623   24.5498 C   0  0  0  0  0  0  0  0  0  0  0  0
    7.5343  -16.9129   24.8052 O   0  0  0  0  0  0  0  0  0  0  0  0
    9.5470  -15.8287   24.8489 N   0  0  0  0  0  0  0  0  0  0  0  0
   10.2764  -17.0196   25.3207 C   0  0  1  0  0  0  0  0  0  0  0  0
   11.6439  -16.8937   24.6746 C   0  0  0  0  0  0  0  0  0  0  0  0
   12.6017  -17.9472   25.0404 C   0  0  0  0  0  0  0  0  0  0  0  0
   13.9289  -17.8295   24.3964 C   0  0  0  0  0  0  0  0  0  0  0  0
   14.9346  -18.8584   24.7919 C   0  0  0  0  0  0  0  0  0  0  0  0
   16.2108  -18.7575   24.1623 N   0  0  0  0  0  0  0  0  0  0  0  0
   10.4685  -16.9647   26.7867 C   0  0  0  0  0  0  0  0  0  0  0  0
   10.7673  -18.1421   27.4458 O   0  0  0  0  0  0  0  0  0  0  0  0
   10.3722  -15.9222   27.4251 O   0  0  0  0  0  0  0  0  0  0  0  0
  2  3  1  0
  2  1  1  0
  3 10  1  0
  4  3  2  0
  6  5  1  0
  7  6  1  0
  7  8  1  0
  9  8  1  1
  9 11  1  0
 10  9  1  0
 11 12  2  0
 11 13  1  0
 13 14  1  0
 14 15  1  6
 15 16  1  0
 16 17  1  0
 17 18  1  0
 19 18  1  0
 20 14  1  0
 20 21  1  0
 22 20  2  0
M  END
$$$$
