GMK.pdb
     RDKit          3D

 22 21  0  0  1  0  0  0  0  0999 V2000
    7.8377  -13.1032   19.3999 N   0  0  0  0  0  0  0  0  0  0  0  0
    7.2019  -14.0398   20.2849 C   0  0  0  0  0  0  0  0  0  0  0  0
    7.8852  -14.0894   21.6166 C   0  0  0  0  0  0  0  0  0  0  0  0
    9.1253  -13.9241   21.7284 O   0  0  0  0  0  0  0  0  0  0  0  0
    6.5440  -10.0968   26.9689 C   0  0  0  0  0  0  0  0  0  0  0  0
    7.2547  -11.7044   26.5991 S   0  0  0  0  0  0  0  0  0  0  0  0
    6.3674  -12.6949   25.4327 C   0  0  0  0  0  0  0  0  0  0  0  0
    6.7949  -14.0936   25.2238 C   0  0  0  0  0  0  0  0  0  0  0  0
    7.7042  -14.4031   24.0916 C   0  0  2  0  0  0  0  0  0  0  0  0
    7.1091  -14.3292   22.7804 N   0  0  0  0  0  0  0  0  0  0  0  0
    8.2082  -15.8354   24.3168 C   0  0  0  0  0  0  0  0  0  0  0  0
    7.4270  -16.8090   24.1758 O   0  0  0  0  0  0  0  0  0  0  0  0
    9.5401  -16.0970   24.6822 N   0  0  0  0  0  0  0  0  0  0  0  0
   10.0415  -17.4673   24.8908 C   0  0  1  0  0  0  0  0  0  0  0  0
   11.3458  -17.5042   24.1155 C   0  0  0  0  0  0  0  0  0  0  0  0
   12.0574  -18.7898   24.1602 C   0  0  0  0  0  0  0  0  0  0  0  0
   13.3599  -18.8023   23.4578 C   0  0  0  0  0  0  0  0  0  0  0  0
   14.1043  -20.0949   23.4960 C   0  0  0  0  0  0  0  0  0  0  0  0
   15.2462  -20.1824   22.6454 N   0  0  0  0  0  0  0  0  0  0  0  0
   10.3636  -17.6917   26.3173 C   0  0  0  0  0  0  0  0  0  0  0  0
   10.5061  -18.9956   26.7524 O   0  0  0  0  0  0  0  0  0  0  0  0
   10.5058  -16.7698   27.1133 O   0  0  0  0  0  0  0  0  0  0  0  0
  2  3  1  0
  2  1  1  0
  3 10  1  0
  4  3  2  0
  6  5  1  0
  7  6  1  0
  7  8  1  0
  9  8  1  1
  9 11  1  0
 10  9  1  0
 11 12  2  0
 11 13  1  0
 13 14  1  0
 14 15  1  6
 15 16  1  0
 16 17  1  0
 17 18  1  0
 19 18  1  0
 20 14  1  0
 20 21  1  0
 22 20  2  0
M  END
$$$$
