GMK.pdb
     RDKit          3D

 22 21  0  0  1  0  0  0  0  0999 V2000
    7.7151  -15.4416   19.5099 N   0  0  0  0  0  0  0  0  0  0  0  0
    6.9771  -15.6616   20.7230 C   0  0  0  0  0  0  0  0  0  0  0  0
    7.8170  -15.3958   21.9339 C   0  0  0  0  0  0  0  0  0  0  0  0
    9.0643  -15.2686   21.8567 O   0  0  0  0  0  0  0  0  0  0  0  0
    6.6085  -10.2776   26.6563 C   0  0  0  0  0  0  0  0  0  0  0  0
    7.2113  -11.9649   26.7819 S   0  0  0  0  0  0  0  0  0  0  0  0
    6.7738  -13.0458   25.4518 C   0  0  0  0  0  0  0  0  0  0  0  0
    7.1726  -14.4659   25.5351 C   0  0  0  0  0  0  0  0  0  0  0  0
    7.9362  -15.0626   24.4101 C   0  0  2  0  0  0  0  0  0  0  0  0
    7.1849  -15.2852   23.1998 N   0  0  0  0  0  0  0  0  0  0  0  0
    8.4639  -16.4143   24.9105 C   0  0  0  0  0  0  0  0  0  0  0  0
    7.6732  -17.3743   25.0876 O   0  0  0  0  0  0  0  0  0  0  0  0
    9.8284  -16.6160   25.1815 N   0  0  0  0  0  0  0  0  0  0  0  0
   10.3570  -17.9213   25.6170 C   0  0  1  0  0  0  0  0  0  0  0  0
   11.6691  -18.0562   24.8662 C   0  0  0  0  0  0  0  0  0  0  0  0
   12.4065  -19.3012   25.1256 C   0  0  0  0  0  0  0  0  0  0  0  0
   13.6839  -19.4301   24.3896 C   0  0  0  0  0  0  0  0  0  0  0  0
   14.4771  -20.6605   24.6788 C   0  0  0  0  0  0  0  0  0  0  0  0
   15.6500  -20.8466   23.8883 N   0  0  0  0  0  0  0  0  0  0  0  0
   10.6702  -17.8993   27.0628 C   0  0  0  0  0  0  0  0  0  0  0  0
   10.8844  -19.1078   27.6982 O   0  0  0  0  0  0  0  0  0  0  0  0
   10.7443  -16.8573   27.7050 O   0  0  0  0  0  0  0  0  0  0  0  0
  2  3  1  0
  2  1  1  0
  3 10  1  0
  4  3  2  0
  6  5  1  0
  7  6  1  0
  7  8  1  0
  9  8  1  1
  9 11  1  0
 10  9  1  0
 11 12  2  0
 11 13  1  0
 13 14  1  0
 14 15  1  6
 15 16  1  0
 16 17  1  0
 17 18  1  0
 19 18  1  0
 20 14  1  0
 20 21  1  0
 22 20  2  0
M  END
$$$$
