GMK.pdb
     RDKit          3D

 22 21  0  0  1  0  0  0  0  0999 V2000
    4.8084  -19.5516   23.4638 N   0  0  0  0  0  0  0  0  0  0  0  0
    5.3418  -18.8565   24.6025 C   0  0  0  0  0  0  0  0  0  0  0  0
    6.2190  -17.7153   24.1892 C   0  0  0  0  0  0  0  0  0  0  0  0
    6.7019  -17.6398   23.0321 O   0  0  0  0  0  0  0  0  0  0  0  0
    7.7287  -11.0303   26.3909 C   0  0  0  0  0  0  0  0  0  0  0  0
    6.3641  -12.1503   26.7227 S   0  0  0  0  0  0  0  0  0  0  0  0
    6.3274  -13.6343   25.7608 C   0  0  0  0  0  0  0  0  0  0  0  0
    7.5042  -14.5268   25.7935 C   0  0  0  0  0  0  0  0  0  0  0  0
    7.5335  -15.7068   24.8927 C   0  0  2  0  0  0  0  0  0  0  0  0
    6.5103  -16.6943   25.1311 N   0  0  0  0  0  0  0  0  0  0  0  0
    8.9040  -16.3697   25.0878 C   0  0  0  0  0  0  0  0  0  0  0  0
    9.1426  -17.0321   26.1282 O   0  0  0  0  0  0  0  0  0  0  0  0
    9.9191  -16.2574   24.1219 N   0  0  0  0  0  0  0  0  0  0  0  0
   11.1981  -16.9804   24.2404 C   0  0  1  0  0  0  0  0  0  0  0  0
   11.8430  -16.8139   22.8766 C   0  0  0  0  0  0  0  0  0  0  0  0
   11.3791  -17.7603   21.8519 C   0  0  0  0  0  0  0  0  0  0  0  0
   11.1268  -17.1605   20.5227 C   0  0  0  0  0  0  0  0  0  0  0  0
   10.4516  -18.0464   19.5297 C   0  0  0  0  0  0  0  0  0  0  0  0
   10.3234  -17.5199   18.2100 N   0  0  0  0  0  0  0  0  0  0  0  0
   12.0768  -16.3233   25.2329 C   0  0  0  0  0  0  0  0  0  0  0  0
   13.2962  -16.9121   25.5097 O   0  0  0  0  0  0  0  0  0  0  0  0
   11.7611  -15.2878   25.8089 O   0  0  0  0  0  0  0  0  0  0  0  0
  2  3  1  0
  2  1  1  0
  3 10  1  0
  4  3  2  0
  6  5  1  0
  7  6  1  0
  7  8  1  0
  9  8  1  1
  9 11  1  0
 10  9  1  0
 11 12  2  0
 11 13  1  0
 13 14  1  0
 14 15  1  6
 15 16  1  0
 16 17  1  0
 17 18  1  0
 19 18  1  0
 20 14  1  0
 20 21  1  0
 22 20  2  0
M  END
$$$$
