GMK.pdb
     RDKit          3D

 22 21  0  0  1  0  0  0  0  0999 V2000
    7.3941  -14.0143   19.6106 N   0  0  0  0  0  0  0  0  0  0  0  0
    6.8525  -14.8013   20.6838 C   0  0  0  0  0  0  0  0  0  0  0  0
    7.6941  -14.7015   21.9184 C   0  0  0  0  0  0  0  0  0  0  0  0
    8.9386  -14.5429   21.8574 O   0  0  0  0  0  0  0  0  0  0  0  0
    6.6136  -10.1638   26.8932 C   0  0  0  0  0  0  0  0  0  0  0  0
    7.3070  -11.8197   26.8370 S   0  0  0  0  0  0  0  0  0  0  0  0
    6.5541  -12.9374   25.6913 C   0  0  0  0  0  0  0  0  0  0  0  0
    7.0611  -14.3232   25.6192 C   0  0  0  0  0  0  0  0  0  0  0  0
    7.8217  -14.7459   24.4161 C   0  0  2  0  0  0  0  0  0  0  0  0
    7.0667  -14.7884   23.1885 N   0  0  0  0  0  0  0  0  0  0  0  0
    8.3523  -16.1560   24.7096 C   0  0  0  0  0  0  0  0  0  0  0  0
    7.5530  -17.0909   24.9650 O   0  0  0  0  0  0  0  0  0  0  0  0
    9.7291  -16.4398   24.7015 N   0  0  0  0  0  0  0  0  0  0  0  0
   10.2542  -17.7860   24.9924 C   0  0  1  0  0  0  0  0  0  0  0  0
   10.9652  -18.1883   23.7133 C   0  0  0  0  0  0  0  0  0  0  0  0
   12.2649  -17.5369   23.4954 C   0  0  0  0  0  0  0  0  0  0  0  0
   12.5010  -17.0718   22.1104 C   0  0  0  0  0  0  0  0  0  0  0  0
   13.8957  -16.6415   21.8002 C   0  0  0  0  0  0  0  0  0  0  0  0
   14.5148  -17.2867   20.6887 N   0  0  0  0  0  0  0  0  0  0  0  0
   11.2688  -17.7272   26.0676 C   0  0  0  0  0  0  0  0  0  0  0  0
   11.8040  -18.9185   26.5198 O   0  0  0  0  0  0  0  0  0  0  0  0
   11.6437  -16.6698   26.5624 O   0  0  0  0  0  0  0  0  0  0  0  0
  2  3  1  0
  2  1  1  0
  3 10  1  0
  4  3  2  0
  6  5  1  0
  7  6  1  0
  7  8  1  0
  9  8  1  1
  9 11  1  0
 10  9  1  0
 11 12  2  0
 11 13  1  0
 13 14  1  0
 14 15  1  6
 15 16  1  0
 16 17  1  0
 17 18  1  0
 19 18  1  0
 20 14  1  0
 20 21  1  0
 22 20  2  0
M  END
$$$$
