RRP.pdb
     RDKit          3D

 30 30  0  0  1  0  0  0  0  0999 V2000
   29.1026  -23.4686  -16.7159 N   0  0  0  0  0  0  0  0  0  0  0  0
   28.6032  -22.1916  -17.0488 C   0  0  0  0  0  0  0  0  0  0  0  0
   29.0037  -21.5103  -18.0626 N   0  0  0  0  0  0  0  0  0  0  0  0
   27.6042  -21.6380  -16.2146 N   0  0  0  0  0  0  0  0  0  0  0  0
   26.4264  -22.4642  -15.9375 C   0  0  0  0  0  0  0  0  0  0  0  0
   25.2072  -21.8664  -16.5742 C   0  0  0  0  0  0  0  0  0  0  0  0
   23.9952  -22.0904  -15.7647 C   0  0  0  0  0  0  0  0  0  0  0  0
   24.1521  -22.6177  -14.3746 C   0  0  2  0  0  0  0  0  0  0  0  0
   24.6039  -23.9656  -14.2622 N   0  0  0  0  0  0  0  0  0  0  0  0
   22.8497  -22.3907  -13.6869 C   0  0  0  0  0  0  0  0  0  0  0  0
   21.9808  -23.3049  -13.7610 O   0  0  0  0  0  0  0  0  0  0  0  0
   28.5401  -20.6062  -18.3350 N   0  0  0  0  0  0  0  0  0  0  0  0
   18.0416  -23.8917   -9.1378 C   0  0  0  0  0  0  0  0  0  0  0  0
   18.8125  -23.3472   -8.0620 N   0  0  0  0  0  0  0  0  0  0  0  0
   18.5677  -23.7695   -6.8827 N   0  0  0  0  0  0  0  0  0  0  0  0
   19.7911  -22.3872   -8.3331 C   0  0  0  0  0  0  0  0  0  0  0  0
   20.0085  -21.9401   -9.7117 C   0  0  0  0  0  0  0  0  0  0  0  0
   21.1269  -20.9491   -9.7784 C   0  0  0  0  0  0  0  0  0  0  0  0
   21.2702  -20.3050  -11.0947 C   0  0  2  0  0  0  0  0  0  0  0  0
   21.1739  -21.0711  -12.3333 N   0  0  0  0  0  0  0  0  0  0  0  0
   22.4984  -21.2387  -12.9575 C   0  0  0  0  0  0  0  0  0  0  0  0
   20.2681  -20.6222  -13.3779 O   0  0  0  0  0  0  0  0  0  0  0  0
   20.7276  -19.7618  -14.2497 N   0  0  0  0  0  0  0  0  0  0  0  0
   19.0049  -23.4710   -6.0029 C   0  0  0  0  0  0  0  0  0  0  0  0
   18.9265  -21.0268  -13.5479 C   0  0  0  0  0  0  0  0  0  0  0  0
   18.0338  -21.8975  -12.8473 C   0  0  0  0  0  0  0  0  0  0  0  0
   17.5173  -22.7888  -13.9804 C   0  0  1  0  0  0  0  0  0  0  0  0
   17.3142  -21.7784  -15.0796 C   0  0  0  0  0  0  0  0  0  0  0  0
   18.1021  -20.5632  -14.6963 O   0  0  0  0  0  0  0  0  0  0  0  0
   17.2514  -19.4734  -14.1690 O   0  0  0  0  0  0  0  0  0  0  0  0
  2  1  1  0
  3  2  2  0
  4  2  1  0
  5  4  1  0
  6  5  1  0
  7  6  1  0
  8  9  1  6
  8  7  1  0
 10 11  2  0
 10  8  1  0
 12 13  1  0
 13 15  1  0
 13 14  2  0
 15 16  1  0
 17 16  1  0
 17 18  1  0
 19 18  1  1
 19 21  1  0
 19 20  1  0
 20 10  1  0
 21 23  1  0
 22 21  2  0
 23 27  1  0
 24 23  1  0
 25 24  1  0
 25 26  1  0
 26 27  1  0
 27 28  1  6
 28 30  2  0
 28 29  1  0
M  END
$$$$
