RRP.pdb
     RDKit          3D

 30 30  0  0  1  0  0  0  0  0999 V2000
   30.2271  -26.0889  -20.8040 N   0  0  0  0  0  0  0  0  0  0  0  0
   29.5862  -25.0336  -21.4871 C   0  0  0  0  0  0  0  0  0  0  0  0
   28.8808  -25.1949  -22.5495 N   0  0  0  0  0  0  0  0  0  0  0  0
   29.7328  -23.7272  -20.9653 N   0  0  0  0  0  0  0  0  0  0  0  0
   29.6949  -23.5774  -19.5083 C   0  0  0  0  0  0  0  0  0  0  0  0
   28.2966  -23.7660  -18.9998 C   0  0  0  0  0  0  0  0  0  0  0  0
   28.1873  -23.4657  -17.5602 C   0  0  0  0  0  0  0  0  0  0  0  0
   29.1504  -22.4936  -16.9582 C   0  0  2  0  0  0  0  0  0  0  0  0
   30.3890  -23.0364  -16.5054 N   0  0  0  0  0  0  0  0  0  0  0  0
   28.4106  -21.7778  -15.8807 C   0  0  0  0  0  0  0  0  0  0  0  0
   28.3258  -22.3422  -14.7535 O   0  0  0  0  0  0  0  0  0  0  0  0
   28.4585  -24.3768  -23.0583 N   0  0  0  0  0  0  0  0  0  0  0  0
   25.1442  -16.0225  -17.3771 C   0  0  0  0  0  0  0  0  0  0  0  0
   25.0537  -15.6793  -15.9906 N   0  0  0  0  0  0  0  0  0  0  0  0
   23.9206  -15.2944  -15.5469 N   0  0  0  0  0  0  0  0  0  0  0  0
   26.1893  -15.7749  -15.1820 C   0  0  0  0  0  0  0  0  0  0  0  0
   27.4815  -16.1196  -15.7814 C   0  0  0  0  0  0  0  0  0  0  0  0
   27.9389  -17.4666  -15.3190 C   0  0  0  0  0  0  0  0  0  0  0  0
   26.8500  -18.4489  -15.1867 C   0  0  2  0  0  0  0  0  0  0  0  0
   27.1200  -19.8502  -14.8806 N   0  0  0  0  0  0  0  0  0  0  0  0
   27.7918  -20.5195  -16.0086 C   0  0  0  0  0  0  0  0  0  0  0  0
   26.0235  -20.7118  -14.4701 O   0  0  0  0  0  0  0  0  0  0  0  0
   25.5086  -21.5082  -15.3714 N   0  0  0  0  0  0  0  0  0  0  0  0
   23.6557  -15.1078  -14.5726 C   0  0  0  0  0  0  0  0  0  0  0  0
   25.4520  -20.7763  -13.1810 C   0  0  0  0  0  0  0  0  0  0  0  0
   25.7539  -20.1975  -11.9084 C   0  0  0  0  0  0  0  0  0  0  0  0
   25.7601  -21.4308  -11.0006 C   0  0  1  0  0  0  0  0  0  0  0  0
   24.5691  -22.1890  -11.5271 C   0  0  0  0  0  0  0  0  0  0  0  0
   24.2695  -21.6288  -12.8839 O   0  0  0  0  0  0  0  0  0  0  0  0
   23.1044  -20.7166  -12.8810 O   0  0  0  0  0  0  0  0  0  0  0  0
  2  1  1  0
  3  2  2  0
  4  2  1  0
  5  4  1  0
  6  5  1  0
  7  6  1  0
  8  9  1  1
  8  7  1  0
 10 11  2  0
 10  8  1  0
 12 13  1  0
 13 15  1  0
 13 14  2  0
 15 16  1  0
 17 16  1  0
 17 18  1  0
 19 18  1  1
 19 21  1  0
 19 20  1  0
 20 10  1  0
 21 23  1  0
 22 21  2  0
 23 27  1  0
 24 23  1  0
 25 24  1  0
 25 26  1  0
 26 27  1  0
 27 28  1  1
 28 30  2  0
 28 29  1  0
M  END
$$$$
