RRP.pdb
     RDKit          3D

 30 30  0  0  1  0  0  0  0  0999 V2000
   26.7475  -16.3146  -18.9943 N   0  0  0  0  0  0  0  0  0  0  0  0
   25.6068  -16.4754  -18.1796 C   0  0  0  0  0  0  0  0  0  0  0  0
   24.6701  -15.6005  -18.0819 N   0  0  0  0  0  0  0  0  0  0  0  0
   25.4954  -17.6709  -17.4321 N   0  0  0  0  0  0  0  0  0  0  0  0
   25.2555  -18.9093  -18.1774 C   0  0  0  0  0  0  0  0  0  0  0  0
   24.2013  -19.7321  -17.4985 C   0  0  0  0  0  0  0  0  0  0  0  0
   24.7102  -20.3831  -16.2772 C   0  0  0  0  0  0  0  0  0  0  0  0
   25.7982  -21.3999  -16.4100 C   0  0  2  0  0  0  0  0  0  0  0  0
   25.4846  -22.5568  -17.1827 N   0  0  0  0  0  0  0  0  0  0  0  0
   26.2337  -21.7365  -15.0252 C   0  0  0  0  0  0  0  0  0  0  0  0
   25.5519  -22.5877  -14.3872 O   0  0  0  0  0  0  0  0  0  0  0  0
   23.8561  -15.7373  -17.4298 N   0  0  0  0  0  0  0  0  0  0  0  0
   33.5242  -22.2169  -10.9644 C   0  0  0  0  0  0  0  0  0  0  0  0
   32.6528  -22.6445  -12.0162 N   0  0  0  0  0  0  0  0  0  0  0  0
   33.1402  -23.4025  -12.9200 N   0  0  0  0  0  0  0  0  0  0  0  0
   31.3199  -22.2250  -12.0194 C   0  0  0  0  0  0  0  0  0  0  0  0
   30.8186  -21.3882  -10.9256 C   0  0  0  0  0  0  0  0  0  0  0  0
   29.3895  -21.0120  -11.1570 C   0  0  0  0  0  0  0  0  0  0  0  0
   28.9585  -21.1549  -12.5576 C   0  0  1  0  0  0  0  0  0  0  0  0
   27.5536  -21.3384  -12.9084 N   0  0  0  0  0  0  0  0  0  0  0  0
   27.3449  -21.1851  -14.3592 C   0  0  0  0  0  0  0  0  0  0  0  0
   26.5445  -20.5267  -12.2481 O   0  0  0  0  0  0  0  0  0  0  0  0
   26.2064  -19.3986  -12.8178 N   0  0  0  0  0  0  0  0  0  0  0  0
   32.6556  -23.8136  -13.7265 C   0  0  0  0  0  0  0  0  0  0  0  0
   25.8847  -20.8378  -11.0396 C   0  0  0  0  0  0  0  0  0  0  0  0
   26.0217  -21.8541  -10.0425 C   0  0  0  0  0  0  0  0  0  0  0  0
   24.5852  -22.3725   -9.9290 C   0  0  1  0  0  0  0  0  0  0  0  0
   23.8035  -21.0855   -9.9825 C   0  0  0  0  0  0  0  0  0  0  0  0
   24.7238  -20.0476  -10.5484 O   0  0  0  0  0  0  0  0  0  0  0  0
   25.2634  -19.1373   -9.5141 O   0  0  0  0  0  0  0  0  0  0  0  0
  2  1  1  0
  3  2  2  0
  4  2  1  0
  5  4  1  0
  6  5  1  0
  7  6  1  0
  8  9  1  1
  8  7  1  0
 10 11  2  0
 10  8  1  0
 12 13  1  0
 13 15  1  0
 13 14  2  0
 15 16  1  0
 17 16  1  0
 17 18  1  0
 19 18  1  6
 19 21  1  0
 19 20  1  0
 20 10  1  0
 21 23  1  0
 22 21  2  0
 23 27  1  0
 24 23  1  0
 25 24  1  0
 25 26  1  0
 26 27  1  0
 27 28  1  1
 28 30  2  0
 28 29  1  0
M  END
$$$$
