RRP.pdb
     RDKit          3D

 30 30  0  0  1  0  0  0  0  0999 V2000
   24.2168  -19.8948  -20.5347 N   0  0  0  0  0  0  0  0  0  0  0  0
   22.8315  -19.8012  -20.7860 C   0  0  0  0  0  0  0  0  0  0  0  0
   22.3337  -19.3952  -21.8994 N   0  0  0  0  0  0  0  0  0  0  0  0
   21.9477  -20.1790  -19.7484 N   0  0  0  0  0  0  0  0  0  0  0  0
   22.4896  -21.0179  -18.6764 C   0  0  0  0  0  0  0  0  0  0  0  0
   21.4242  -21.3306  -17.6682 C   0  0  0  0  0  0  0  0  0  0  0  0
   21.9104  -22.2412  -16.6152 C   0  0  0  0  0  0  0  0  0  0  0  0
   21.5898  -23.6972  -16.7261 C   0  0  2  0  0  0  0  0  0  0  0  0
   21.2633  -24.1701  -18.0314 N   0  0  0  0  0  0  0  0  0  0  0  0
   20.5135  -23.9700  -15.7321 C   0  0  0  0  0  0  0  0  0  0  0  0
   19.3600  -23.5168  -15.9782 O   0  0  0  0  0  0  0  0  0  0  0  0
   21.2940  -19.3238  -22.0430 N   0  0  0  0  0  0  0  0  0  0  0  0
   19.3463  -30.0365   -9.2516 C   0  0  0  0  0  0  0  0  0  0  0  0
   18.1159  -29.3744   -9.5615 N   0  0  0  0  0  0  0  0  0  0  0  0
   17.0295  -30.0086   -9.3460 N   0  0  0  0  0  0  0  0  0  0  0  0
   18.1437  -28.0775  -10.0811 C   0  0  0  0  0  0  0  0  0  0  0  0
   19.1819  -27.7030  -11.0454 C   0  0  0  0  0  0  0  0  0  0  0  0
   18.9951  -26.2920  -11.5055 C   0  0  0  0  0  0  0  0  0  0  0  0
   19.9389  -25.8824  -12.5587 C   0  0  1  0  0  0  0  0  0  0  0  0
   19.5441  -24.9630  -13.6213 N   0  0  0  0  0  0  0  0  0  0  0  0
   20.6693  -24.6921  -14.5335 C   0  0  0  0  0  0  0  0  0  0  0  0
   18.9662  -23.6763  -13.2693 O   0  0  0  0  0  0  0  0  0  0  0  0
   19.7459  -22.6272  -13.3220 N   0  0  0  0  0  0  0  0  0  0  0  0
   16.0701  -29.7000   -9.5422 C   0  0  0  0  0  0  0  0  0  0  0  0
   17.6320  -23.4428  -12.8719 C   0  0  0  0  0  0  0  0  0  0  0  0
   16.4606  -24.2512  -12.7296 C   0  0  0  0  0  0  0  0  0  0  0  0
   15.4300  -23.4463  -13.5266 C   0  0  1  0  0  0  0  0  0  0  0  0
   15.7644  -22.0396  -13.1028 C   0  0  0  0  0  0  0  0  0  0  0  0
   17.1414  -22.0846  -12.5144 O   0  0  0  0  0  0  0  0  0  0  0  0
   17.1329  -22.0345  -11.0355 O   0  0  0  0  0  0  0  0  0  0  0  0
  2  1  1  0
  3  2  2  0
  4  2  1  0
  5  4  1  0
  6  5  1  0
  7  6  1  0
  8  9  1  6
  8  7  1  0
 10 11  2  0
 10  8  1  0
 12 13  1  0
 13 15  1  0
 13 14  2  0
 15 16  1  0
 17 16  1  0
 17 18  1  0
 19 18  1  6
 19 21  1  0
 19 20  1  0
 20 10  1  0
 21 23  1  0
 22 21  2  0
 23 27  1  0
 24 23  1  0
 25 24  1  0
 25 26  1  0
 26 27  1  0
 27 28  1  1
 28 30  2  0
 28 29  1  0
M  END
$$$$
