RRP.pdb
     RDKit          3D

 30 30  0  0  1  0  0  0  0  0999 V2000
   26.3806  -27.8065  -18.1926 N   0  0  0  0  0  0  0  0  0  0  0  0
   26.2475  -26.8833  -17.1338 C   0  0  0  0  0  0  0  0  0  0  0  0
   27.2262  -26.2028  -16.6526 N   0  0  0  0  0  0  0  0  0  0  0  0
   24.9600  -26.7018  -16.5772 N   0  0  0  0  0  0  0  0  0  0  0  0
   23.9089  -27.6315  -16.9982 C   0  0  0  0  0  0  0  0  0  0  0  0
   22.9524  -26.9511  -17.9318 C   0  0  0  0  0  0  0  0  0  0  0  0
   22.1198  -25.9515  -17.2376 C   0  0  0  0  0  0  0  0  0  0  0  0
   21.7371  -26.2047  -15.8147 C   0  0  2  0  0  0  0  0  0  0  0  0
   20.4766  -26.8386  -15.6074 N   0  0  0  0  0  0  0  0  0  0  0  0
   21.8435  -24.8964  -15.1092 C   0  0  0  0  0  0  0  0  0  0  0  0
   20.7707  -24.2801  -14.8526 O   0  0  0  0  0  0  0  0  0  0  0  0
   27.0910  -25.5398  -15.8472 N   0  0  0  0  0  0  0  0  0  0  0  0
   28.7609  -19.9725  -13.9480 C   0  0  0  0  0  0  0  0  0  0  0  0
   27.6117  -19.4287  -14.6051 N   0  0  0  0  0  0  0  0  0  0  0  0
   27.7933  -18.4567  -15.4121 N   0  0  0  0  0  0  0  0  0  0  0  0
   26.3498  -19.9701  -14.3458 C   0  0  0  0  0  0  0  0  0  0  0  0
   26.1792  -20.9206  -13.2435 C   0  0  0  0  0  0  0  0  0  0  0  0
   24.7381  -21.2841  -13.0740 C   0  0  0  0  0  0  0  0  0  0  0  0
   24.4025  -22.6264  -13.5775 C   0  0  1  0  0  0  0  0  0  0  0  0
   23.0765  -22.9339  -14.1041 N   0  0  0  0  0  0  0  0  0  0  0  0
   23.0423  -24.2809  -14.7011 C   0  0  0  0  0  0  0  0  0  0  0  0
   22.4664  -22.0299  -15.0654 O   0  0  0  0  0  0  0  0  0  0  0  0
   22.7329  -22.2223  -16.3317 N   0  0  0  0  0  0  0  0  0  0  0  0
   27.0935  -17.9816  -15.9941 C   0  0  0  0  0  0  0  0  0  0  0  0
   21.6048  -20.9528  -14.7657 C   0  0  0  0  0  0  0  0  0  0  0  0
   21.0911  -20.3695  -13.5650 C   0  0  0  0  0  0  0  0  0  0  0  0
   19.5881  -20.3338  -13.8562 C   0  0  1  0  0  0  0  0  0  0  0  0
   19.5785  -19.8935  -15.2971 C   0  0  0  0  0  0  0  0  0  0  0  0
   20.9563  -20.1413  -15.8307 O   0  0  0  0  0  0  0  0  0  0  0  0
   21.7583  -18.9026  -15.9395 O   0  0  0  0  0  0  0  0  0  0  0  0
  2  1  1  0
  3  2  2  0
  4  2  1  0
  5  4  1  0
  6  5  1  0
  7  6  1  0
  8  9  1  6
  8  7  1  0
 10 11  2  0
 10  8  1  0
 12 13  1  0
 13 15  1  0
 13 14  2  0
 15 16  1  0
 17 16  1  0
 17 18  1  0
 19 18  1  1
 19 21  1  0
 19 20  1  0
 20 10  1  0
 21 23  1  0
 22 21  2  0
 23 27  1  0
 24 23  1  0
 25 24  1  0
 25 26  1  0
 26 27  1  0
 27 28  1  6
 28 30  2  0
 28 29  1  0
M  END
$$$$
