RRP.pdb
     RDKit          3D

 30 30  0  0  1  0  0  0  0  0999 V2000
   20.2392  -22.6068  -16.3682 N   0  0  0  0  0  0  0  0  0  0  0  0
   19.4482  -22.7899  -17.5222 C   0  0  0  0  0  0  0  0  0  0  0  0
   18.1761  -22.9723  -17.4944 N   0  0  0  0  0  0  0  0  0  0  0  0
   20.1005  -22.7687  -18.7770 N   0  0  0  0  0  0  0  0  0  0  0  0
   21.5653  -22.7975  -18.7734 C   0  0  0  0  0  0  0  0  0  0  0  0
   22.1140  -21.5590  -19.4171 C   0  0  0  0  0  0  0  0  0  0  0  0
   23.5865  -21.5814  -19.4919 C   0  0  0  0  0  0  0  0  0  0  0  0
   24.3639  -21.7338  -18.2241 C   0  0  2  0  0  0  0  0  0  0  0  0
   24.6089  -20.5356  -17.4906 N   0  0  0  0  0  0  0  0  0  0  0  0
   25.6189  -22.4534  -18.5816 C   0  0  0  0  0  0  0  0  0  0  0  0
   26.3746  -21.9211  -19.4429 O   0  0  0  0  0  0  0  0  0  0  0  0
   17.6188  -23.0937  -18.3783 N   0  0  0  0  0  0  0  0  0  0  0  0
   27.8238  -29.4569  -15.1982 C   0  0  0  0  0  0  0  0  0  0  0  0
   28.3298  -29.7353  -16.5077 N   0  0  0  0  0  0  0  0  0  0  0  0
   28.3727  -30.9550  -16.8810 N   0  0  0  0  0  0  0  0  0  0  0  0
   28.7534  -28.6806  -17.3208 C   0  0  0  0  0  0  0  0  0  0  0  0
   28.9841  -27.3577  -16.7338 C   0  0  0  0  0  0  0  0  0  0  0  0
   28.8119  -26.2839  -17.7608 C   0  0  0  0  0  0  0  0  0  0  0  0
   27.6361  -25.4278  -17.5315 C   0  0  1  0  0  0  0  0  0  0  0  0
   27.3084  -24.3254  -18.4301 N   0  0  0  0  0  0  0  0  0  0  0  0
   26.0399  -23.6838  -18.0417 C   0  0  0  0  0  0  0  0  0  0  0  0
   27.2364  -24.5723  -19.8609 O   0  0  0  0  0  0  0  0  0  0  0  0
   26.0537  -24.5556  -20.4198 N   0  0  0  0  0  0  0  0  0  0  0  0
   27.9962  -31.7768  -16.3939 C   0  0  0  0  0  0  0  0  0  0  0  0
   28.3280  -24.8309  -20.7178 C   0  0  0  0  0  0  0  0  0  0  0  0
   29.7489  -24.8811  -20.5623 C   0  0  0  0  0  0  0  0  0  0  0  0
   30.2173  -23.9649  -21.6964 C   0  0  1  0  0  0  0  0  0  0  0  0
   29.2912  -24.3793  -22.8103 C   0  0  0  0  0  0  0  0  0  0  0  0
   28.1448  -25.1002  -22.1694 O   0  0  0  0  0  0  0  0  0  0  0  0
   28.2363  -26.5692  -22.3224 O   0  0  0  0  0  0  0  0  0  0  0  0
  2  1  1  0
  3  2  2  0
  4  2  1  0
  5  4  1  0
  6  5  1  0
  7  6  1  0
  8  9  1  6
  8  7  1  0
 10 11  2  0
 10  8  1  0
 12 13  1  0
 13 15  1  0
 13 14  2  0
 15 16  1  0
 17 16  1  0
 17 18  1  0
 19 18  1  1
 19 21  1  0
 19 20  1  0
 20 10  1  0
 21 23  1  0
 22 21  2  0
 23 27  1  0
 24 23  1  0
 25 24  1  0
 25 26  1  0
 26 27  1  0
 27 28  1  6
 28 30  2  0
 28 29  1  0
M  END
$$$$
