RRP.pdb
     RDKit          3D

 30 30  0  0  1  0  0  0  0  0999 V2000
   32.8538  -24.5269  -15.3202 N   0  0  0  0  0  0  0  0  0  0  0  0
   32.9776  -24.4249  -16.7221 C   0  0  0  0  0  0  0  0  0  0  0  0
   33.9726  -24.8944  -17.3870 N   0  0  0  0  0  0  0  0  0  0  0  0
   31.9427  -23.7683  -17.4279 N   0  0  0  0  0  0  0  0  0  0  0  0
   30.6717  -23.5704  -16.7264 C   0  0  0  0  0  0  0  0  0  0  0  0
   29.7382  -22.7435  -17.5594 C   0  0  0  0  0  0  0  0  0  0  0  0
   28.4375  -22.5407  -16.8950 C   0  0  0  0  0  0  0  0  0  0  0  0
   27.7545  -23.7230  -16.2860 C   0  0  2  0  0  0  0  0  0  0  0  0
   27.2617  -24.7017  -17.1988 N   0  0  0  0  0  0  0  0  0  0  0  0
   26.6893  -23.1831  -15.3947 C   0  0  0  0  0  0  0  0  0  0  0  0
   25.4931  -23.2694  -15.7922 O   0  0  0  0  0  0  0  0  0  0  0  0
   34.0184  -24.8175  -18.4352 N   0  0  0  0  0  0  0  0  0  0  0  0
   21.5324  -20.6346  -11.1006 C   0  0  0  0  0  0  0  0  0  0  0  0
   22.1908  -20.6526   -9.8300 N   0  0  0  0  0  0  0  0  0  0  0  0
   21.5001  -20.9801   -8.8078 N   0  0  0  0  0  0  0  0  0  0  0  0
   23.5449  -20.3167   -9.7512 C   0  0  0  0  0  0  0  0  0  0  0  0
   24.3911  -20.4249  -10.9428 C   0  0  0  0  0  0  0  0  0  0  0  0
   25.2661  -21.6355  -10.8645 C   0  0  0  0  0  0  0  0  0  0  0  0
   26.2309  -21.7418  -11.9717 C   0  0  2  0  0  0  0  0  0  0  0  0
   25.7973  -22.0199  -13.3372 N   0  0  0  0  0  0  0  0  0  0  0  0
   26.8992  -22.5795  -14.1400 C   0  0  0  0  0  0  0  0  0  0  0  0
   25.2002  -20.9535  -14.1243 O   0  0  0  0  0  0  0  0  0  0  0  0
   25.9958  -20.0239  -14.5874 N   0  0  0  0  0  0  0  0  0  0  0  0
   21.8203  -21.0840   -7.8378 C   0  0  0  0  0  0  0  0  0  0  0  0
   23.8316  -20.8190  -14.4429 C   0  0  0  0  0  0  0  0  0  0  0  0
   22.6425  -21.5518  -14.1351 C   0  0  0  0  0  0  0  0  0  0  0  0
   22.0357  -21.7564  -15.5261 C   0  0  1  0  0  0  0  0  0  0  0  0
   22.2771  -20.4077  -16.1531 C   0  0  0  0  0  0  0  0  0  0  0  0
   23.3307  -19.7336  -15.3285 O   0  0  0  0  0  0  0  0  0  0  0  0
   22.7759  -18.7001  -14.4265 O   0  0  0  0  0  0  0  0  0  0  0  0
  2  1  1  0
  3  2  2  0
  4  2  1  0
  5  4  1  0
  6  5  1  0
  7  6  1  0
  8  9  1  6
  8  7  1  0
 10 11  2  0
 10  8  1  0
 12 13  1  0
 13 15  1  0
 13 14  2  0
 15 16  1  0
 17 16  1  0
 17 18  1  0
 19 18  1  1
 19 21  1  0
 19 20  1  0
 20 10  1  0
 21 23  1  0
 22 21  2  0
 23 27  1  0
 24 23  1  0
 25 24  1  0
 25 26  1  0
 26 27  1  0
 27 28  1  1
 28 30  2  0
 28 29  1  0
M  END
$$$$
