RRP.pdb
     RDKit          3D

 30 30  0  0  1  0  0  0  0  0999 V2000
   19.7075  -23.9095  -16.4395 N   0  0  0  0  0  0  0  0  0  0  0  0
   18.4480  -23.2847  -16.5592 C   0  0  0  0  0  0  0  0  0  0  0  0
   17.7711  -23.2462  -17.6513 N   0  0  0  0  0  0  0  0  0  0  0  0
   17.9066  -22.6694  -15.4065 N   0  0  0  0  0  0  0  0  0  0  0  0
   18.8419  -22.2949  -14.3428 C   0  0  0  0  0  0  0  0  0  0  0  0
   18.7312  -20.8299  -14.0413 C   0  0  0  0  0  0  0  0  0  0  0  0
   20.0463  -20.1630  -14.0513 C   0  0  0  0  0  0  0  0  0  0  0  0
   21.0635  -20.5744  -13.0360 C   0  0  2  0  0  0  0  0  0  0  0  0
   20.7842  -20.2115  -11.6854 N   0  0  0  0  0  0  0  0  0  0  0  0
   22.3733  -20.0465  -13.5119 C   0  0  0  0  0  0  0  0  0  0  0  0
   22.8760  -19.0727  -12.8830 O   0  0  0  0  0  0  0  0  0  0  0  0
   16.8336  -22.7715  -17.7003 N   0  0  0  0  0  0  0  0  0  0  0  0
   28.6318  -24.6839  -16.7647 C   0  0  0  0  0  0  0  0  0  0  0  0
   27.3832  -24.5806  -16.0726 N   0  0  0  0  0  0  0  0  0  0  0  0
   26.7430  -25.6596  -15.8384 N   0  0  0  0  0  0  0  0  0  0  0  0
   26.9138  -23.3234  -15.6830 C   0  0  0  0  0  0  0  0  0  0  0  0
   27.3684  -22.1254  -16.3942 C   0  0  0  0  0  0  0  0  0  0  0  0
   26.6853  -20.9036  -15.8667 C   0  0  0  0  0  0  0  0  0  0  0  0
   25.2977  -21.1404  -15.4349 C   0  0  1  0  0  0  0  0  0  0  0  0
   24.4572  -20.0547  -14.9399 N   0  0  0  0  0  0  0  0  0  0  0  0
   23.1053  -20.5393  -14.6090 C   0  0  0  0  0  0  0  0  0  0  0  0
   24.2911  -18.8588  -15.7496 O   0  0  0  0  0  0  0  0  0  0  0  0
   23.1607  -18.7143  -16.3920 N   0  0  0  0  0  0  0  0  0  0  0  0
   25.8547  -25.7688  -15.3352 C   0  0  0  0  0  0  0  0  0  0  0  0
   25.2387  -17.8255  -15.9137 C   0  0  0  0  0  0  0  0  0  0  0  0
   26.5895  -17.6130  -15.4944 C   0  0  0  0  0  0  0  0  0  0  0  0
   26.5009  -16.2242  -14.8553 C   0  0  1  0  0  0  0  0  0  0  0  0
   25.6044  -15.5082  -15.8320 C   0  0  0  0  0  0  0  0  0  0  0  0
   24.9159  -16.5668  -16.6381 O   0  0  0  0  0  0  0  0  0  0  0  0
   25.4935  -16.7203  -17.9917 O   0  0  0  0  0  0  0  0  0  0  0  0
  2  1  1  0
  3  2  2  0
  4  2  1  0
  5  4  1  0
  6  5  1  0
  7  6  1  0
  8  9  1  1
  8  7  1  0
 10 11  2  0
 10  8  1  0
 12 13  1  0
 13 15  1  0
 13 14  2  0
 15 16  1  0
 17 16  1  0
 17 18  1  0
 19 18  1  1
 19 21  1  0
 19 20  1  0
 20 10  1  0
 21 23  1  0
 22 21  2  0
 23 27  1  0
 24 23  1  0
 25 24  1  0
 25 26  1  0
 26 27  1  0
 27 28  1  6
 28 30  2  0
 28 29  1  0
M  END
$$$$
