SMP.pdb
     RDKit          3D

 22 22  0  0  1  0  0  0  0  0999 V2000
   26.5890  -19.1332  -16.8006 O   0  0  0  0  0  0  0  0  0  0  0  0
   27.7409  -18.9061  -16.0459 C   0  0  0  0  0  0  0  0  0  0  0  0
   28.2231  -20.2275  -15.5473 C   0  0  2  0  0  0  0  0  0  0  0  0
   28.6245  -21.0796  -16.6262 N   0  0  0  0  0  0  0  0  0  0  0  0
   27.2440  -20.8753  -14.6434 C   0  0  0  0  0  0  0  0  0  0  0  0
   26.3972  -21.7110  -15.0433 O   0  0  0  0  0  0  0  0  0  0  0  0
   24.5775  -21.1165   -7.2579 C   0  0  0  0  0  0  0  0  0  0  0  0
   25.8482  -20.4980   -8.3694 S   0  0  0  0  0  0  0  0  0  0  0  0
   25.2864  -20.7139  -10.0733 C   0  0  0  0  0  0  0  0  0  0  0  0
   26.3645  -20.3318  -11.0431 C   0  0  0  0  0  0  0  0  0  0  0  0
   26.1267  -20.9617  -12.3936 C   0  0  2  0  0  0  0  0  0  0  0  0
   27.2367  -20.5567  -13.2601 N   0  0  0  0  0  0  0  0  0  0  0  0
   24.8491  -20.3846  -12.8993 C   0  0  0  0  0  0  0  0  0  0  0  0
   24.8845  -19.2093  -13.3657 O   0  0  0  0  0  0  0  0  0  0  0  0
   23.6499  -21.1261  -12.8570 N   0  0  0  0  0  0  0  0  0  0  0  0
   23.4898  -22.4214  -12.2580 C   0  0  0  0  0  0  0  0  0  0  0  0
   22.6236  -23.1424  -13.3012 C   0  0  0  0  0  0  0  0  0  0  0  0
   21.8544  -22.0344  -13.9805 C   0  0  0  0  0  0  0  0  0  0  0  0
   22.3586  -20.7463  -13.3820 C   0  0  1  0  0  0  0  0  0  0  0  0
   21.4979  -20.2874  -12.2814 C   0  0  0  0  0  0  0  0  0  0  0  0
   20.3571  -19.5571  -12.5453 O   0  0  0  0  0  0  0  0  0  0  0  0
   21.7812  -20.5486  -11.0897 O   0  0  0  0  0  0  0  0  0  0  0  0
  1  2  1  0
  3  5  1  0
  3  2  1  0
  3  4  1  6
  5  6  2  0
  8  7  1  0
  8  9  1  0
  9 10  1  0
 11 10  1  1
 11 13  1  0
 12  5  1  0
 12 11  1  0
 13 15  1  0
 14 13  2  0
 15 16  1  0
 15 19  1  0
 17 16  1  0
 18 17  1  0
 18 19  1  0
 19 20  1  1
 20 21  1  0
 22 20  2  0
M  END
$$$$
