SMP.pdb
     RDKit          3D

 22 22  0  0  1  0  0  0  0  0999 V2000
   21.2926  -22.2005  -15.2174 O   0  0  0  0  0  0  0  0  0  0  0  0
   21.4993  -22.5525  -13.8828 C   0  0  0  0  0  0  0  0  0  0  0  0
   21.4806  -21.2973  -13.0755 C   0  0  2  0  0  0  0  0  0  0  0  0
   20.3626  -20.4706  -13.4188 N   0  0  0  0  0  0  0  0  0  0  0  0
   22.7695  -20.5697  -13.1433 C   0  0  0  0  0  0  0  0  0  0  0  0
   22.9643  -19.6000  -13.9159 O   0  0  0  0  0  0  0  0  0  0  0  0
   28.3081  -21.2808   -9.3892 C   0  0  0  0  0  0  0  0  0  0  0  0
   26.6995  -20.8361   -8.7199 S   0  0  0  0  0  0  0  0  0  0  0  0
   25.6393  -20.2807  -10.0738 C   0  0  0  0  0  0  0  0  0  0  0  0
   26.0493  -20.9175  -11.3682 C   0  0  0  0  0  0  0  0  0  0  0  0
   25.1973  -20.4206  -12.5103 C   0  0  2  0  0  0  0  0  0  0  0  0
   23.8509  -20.9635  -12.3123 N   0  0  0  0  0  0  0  0  0  0  0  0
   25.7978  -20.9879  -13.7507 C   0  0  0  0  0  0  0  0  0  0  0  0
   25.3438  -22.0934  -14.1654 O   0  0  0  0  0  0  0  0  0  0  0  0
   26.8322  -20.3126  -14.4318 N   0  0  0  0  0  0  0  0  0  0  0  0
   27.7404  -19.3677  -13.8449 C   0  0  0  0  0  0  0  0  0  0  0  0
   27.7958  -18.2768  -14.9244 C   0  0  0  0  0  0  0  0  0  0  0  0
   27.4948  -19.0070  -16.2115 C   0  0  0  0  0  0  0  0  0  0  0  0
   27.1971  -20.4330  -15.8245 C   0  0  1  0  0  0  0  0  0  0  0  0
   28.3880  -21.2871  -15.9470 C   0  0  0  0  0  0  0  0  0  0  0  0
   29.0700  -21.6994  -14.8205 O   0  0  0  0  0  0  0  0  0  0  0  0
   28.8046  -21.6551  -17.0694 O   0  0  0  0  0  0  0  0  0  0  0  0
  1  2  1  0
  3  5  1  0
  3  2  1  0
  3  4  1  6
  5  6  2  0
  8  7  1  0
  8  9  1  0
  9 10  1  0
 11 10  1  1
 11 13  1  0
 12  5  1  0
 12 11  1  0
 13 15  1  0
 14 13  2  0
 15 16  1  0
 15 19  1  0
 17 16  1  0
 18 17  1  0
 18 19  1  0
 19 20  1  1
 20 21  1  0
 22 20  2  0
M  END
$$$$
