SMP.pdb
     RDKit          3D

 22 22  0  0  1  0  0  0  0  0999 V2000
   38.4457  -27.5269    4.9478 O   0  0  0  0  0  0  0  0  0  0  0  0
   38.1112  -26.5710    5.9082 C   0  0  0  0  0  0  0  0  0  0  0  0
   38.1933  -25.2295    5.2592 C   0  0  2  0  0  0  0  0  0  0  0  0
   39.5508  -24.7908    5.1334 N   0  0  0  0  0  0  0  0  0  0  0  0
   37.3312  -24.2294    5.9316 C   0  0  0  0  0  0  0  0  0  0  0  0
   37.6748  -23.6279    6.9782 O   0  0  0  0  0  0  0  0  0  0  0  0
   32.4429  -19.9974    3.4204 C   0  0  0  0  0  0  0  0  0  0  0  0
   31.7734  -21.2628    4.5083 S   0  0  0  0  0  0  0  0  0  0  0  0
   33.0406  -21.7271    5.7100 C   0  0  0  0  0  0  0  0  0  0  0  0
   34.0295  -22.6769    5.1025 C   0  0  0  0  0  0  0  0  0  0  0  0
   35.1694  -22.9530    6.0520 C   0  0  2  0  0  0  0  0  0  0  0  0
   36.0549  -23.9174    5.3943 N   0  0  0  0  0  0  0  0  0  0  0  0
   34.5577  -23.5675    7.2641 C   0  0  0  0  0  0  0  0  0  0  0  0
   34.2680  -24.7978    7.2110 O   0  0  0  0  0  0  0  0  0  0  0  0
   34.3141  -22.8012    8.4230 N   0  0  0  0  0  0  0  0  0  0  0  0
   34.3912  -21.3698    8.5091 C   0  0  0  0  0  0  0  0  0  0  0  0
   35.1107  -21.1766    9.8520 C   0  0  0  0  0  0  0  0  0  0  0  0
   34.7499  -22.4060   10.6513 C   0  0  0  0  0  0  0  0  0  0  0  0
   33.9334  -23.2784    9.7325 C   0  0  1  0  0  0  0  0  0  0  0  0
   32.4909  -23.0709    9.9294 C   0  0  0  0  0  0  0  0  0  0  0  0
   31.8173  -22.1134    9.1988 O   0  0  0  0  0  0  0  0  0  0  0  0
   31.8486  -23.7549   10.7590 O   0  0  0  0  0  0  0  0  0  0  0  0
  1  2  1  0
  3  5  1  0
  3  2  1  0
  3  4  1  1
  5  6  2  0
  8  7  1  0
  8  9  1  0
  9 10  1  0
 11 10  1  6
 11 13  1  0
 12  5  1  0
 12 11  1  0
 13 15  1  0
 14 13  2  0
 15 16  1  0
 15 19  1  0
 17 16  1  0
 18 17  1  0
 18 19  1  0
 19 20  1  1
 20 21  1  0
 22 20  2  0
M  END
$$$$
