SMP.pdb
     RDKit          3D

 22 22  0  0  1  0  0  0  0  0999 V2000
   26.5325  -17.9623  -16.1450 O   0  0  0  0  0  0  0  0  0  0  0  0
   27.5686  -17.6941  -15.2492 C   0  0  0  0  0  0  0  0  0  0  0  0
   28.3774  -18.9403  -15.1064 C   0  0  2  0  0  0  0  0  0  0  0  0
   28.9630  -19.3303  -16.3538 N   0  0  0  0  0  0  0  0  0  0  0  0
   27.6089  -20.0358  -14.4703 C   0  0  0  0  0  0  0  0  0  0  0  0
   27.1559  -21.0132  -15.1144 O   0  0  0  0  0  0  0  0  0  0  0  0
   26.4844  -19.7532   -8.1692 C   0  0  0  0  0  0  0  0  0  0  0  0
   25.3318  -21.0925   -8.5021 S   0  0  0  0  0  0  0  0  0  0  0  0
   25.2913  -21.3962  -10.2830 C   0  0  0  0  0  0  0  0  0  0  0  0
   26.3421  -20.5895  -10.9859 C   0  0  0  0  0  0  0  0  0  0  0  0
   26.3497  -20.8818  -12.4663 C   0  0  2  0  0  0  0  0  0  0  0  0
   27.3556  -20.0067  -13.0739 N   0  0  0  0  0  0  0  0  0  0  0  0
   24.9926  -20.5211  -12.9655 C   0  0  0  0  0  0  0  0  0  0  0  0
   24.7636  -19.2994  -13.2008 O   0  0  0  0  0  0  0  0  0  0  0  0
   24.0059  -21.5090  -13.1662 N   0  0  0  0  0  0  0  0  0  0  0  0
   24.0920  -22.8753  -12.7328 C   0  0  0  0  0  0  0  0  0  0  0  0
   23.5416  -23.6253  -13.9547 C   0  0  0  0  0  0  0  0  0  0  0  0
   22.6117  -22.6353  -14.6149 C   0  0  0  0  0  0  0  0  0  0  0  0
   22.7273  -21.3587  -13.8221 C   0  0  1  0  0  0  0  0  0  0  0  0
   21.6665  -21.2526  -12.8091 C   0  0  0  0  0  0  0  0  0  0  0  0
   20.4092  -20.8047  -13.1593 O   0  0  0  0  0  0  0  0  0  0  0  0
   21.8817  -21.5647  -11.6153 O   0  0  0  0  0  0  0  0  0  0  0  0
  1  2  1  0
  3  5  1  0
  3  2  1  0
  3  4  1  6
  5  6  2  0
  8  7  1  0
  8  9  1  0
  9 10  1  0
 11 10  1  1
 11 13  1  0
 12  5  1  0
 12 11  1  0
 13 15  1  0
 14 13  2  0
 15 16  1  0
 15 19  1  0
 17 16  1  0
 18 17  1  0
 18 19  1  0
 19 20  1  1
 20 21  1  0
 22 20  2  0
M  END
$$$$
