SMP.pdb
     RDKit          3D

 22 22  0  0  1  0  0  0  0  0999 V2000
   20.9908  -11.4981  -18.9481 O   0  0  0  0  0  0  0  0  0  0  0  0
   20.6109  -10.4391  -18.1221 C   0  0  0  0  0  0  0  0  0  0  0  0
   21.0223  -10.7817  -16.7290 C   0  0  2  0  0  0  0  0  0  0  0  0
   20.6100  -12.1060  -16.3719 N   0  0  0  0  0  0  0  0  0  0  0  0
   20.5792   -9.7630  -15.7486 C   0  0  0  0  0  0  0  0  0  0  0  0
   19.3876   -9.6559  -15.3692 O   0  0  0  0  0  0  0  0  0  0  0  0
   22.3270  -10.6429   -9.8220 C   0  0  0  0  0  0  0  0  0  0  0  0
   22.6634   -9.1129  -10.7047 S   0  0  0  0  0  0  0  0  0  0  0  0
   21.6231   -9.0520  -12.1811 C   0  0  0  0  0  0  0  0  0  0  0  0
   22.0089   -7.8986  -13.0584 C   0  0  0  0  0  0  0  0  0  0  0  0
   21.1024   -7.8057  -14.2611 C   0  0  2  0  0  0  0  0  0  0  0  0
   21.5189   -8.8529  -15.1974 N   0  0  0  0  0  0  0  0  0  0  0  0
   21.3454   -6.4623  -14.8588 C   0  0  0  0  0  0  0  0  0  0  0  0
   22.2506   -6.3702  -15.7377 O   0  0  0  0  0  0  0  0  0  0  0  0
   20.5913   -5.3404  -14.4556 N   0  0  0  0  0  0  0  0  0  0  0  0
   19.5713   -5.3395  -13.4448 C   0  0  0  0  0  0  0  0  0  0  0  0
   18.4860   -4.4712  -14.0980 C   0  0  0  0  0  0  0  0  0  0  0  0
   19.2462   -3.5602  -15.0322 C   0  0  0  0  0  0  0  0  0  0  0  0
   20.6895   -3.9868  -14.9511 C   0  0  1  0  0  0  0  0  0  0  0  0
   21.4432   -3.1669  -13.9907 C   0  0  0  0  0  0  0  0  0  0  0  0
   21.9464   -1.9380  -14.3659 O   0  0  0  0  0  0  0  0  0  0  0  0
   21.6424   -3.5653  -12.8201 O   0  0  0  0  0  0  0  0  0  0  0  0
  1  2  1  0
  3  5  1  0
  3  2  1  0
  3  4  1  1
  5  6  2  0
  8  7  1  0
  8  9  1  0
  9 10  1  0
 11 10  1  1
 11 13  1  0
 12  5  1  0
 12 11  1  0
 13 15  1  0
 14 13  2  0
 15 16  1  0
 15 19  1  0
 17 16  1  0
 18 17  1  0
 18 19  1  0
 19 20  1  1
 20 21  1  0
 22 20  2  0
M  END
$$$$
