SMP.pdb
     RDKit          3D

 22 22  0  0  1  0  0  0  0  0999 V2000
   27.4655  -15.9911  -15.1469 O   0  0  0  0  0  0  0  0  0  0  0  0
   26.7359  -17.1805  -15.1774 C   0  0  0  0  0  0  0  0  0  0  0  0
   27.7107  -18.3103  -15.1490 C   0  0  2  0  0  0  0  0  0  0  0  0
   28.5104  -18.3418  -16.3367 N   0  0  0  0  0  0  0  0  0  0  0  0
   27.0538  -19.6087  -14.8696 C   0  0  0  0  0  0  0  0  0  0  0  0
   26.6671  -20.3854  -15.7765 O   0  0  0  0  0  0  0  0  0  0  0  0
   26.3282  -21.0774   -8.1992 C   0  0  0  0  0  0  0  0  0  0  0  0
   25.3267  -20.1724   -9.3871 S   0  0  0  0  0  0  0  0  0  0  0  0
   26.2116  -20.1029  -10.9611 C   0  0  0  0  0  0  0  0  0  0  0  0
   26.0349  -21.3787  -11.7293 C   0  0  0  0  0  0  0  0  0  0  0  0
   25.9088  -21.1076  -13.2084 C   0  0  2  0  0  0  0  0  0  0  0  0
   26.8366  -20.0196  -13.5283 N   0  0  0  0  0  0  0  0  0  0  0  0
   24.5043  -20.6604  -13.4281 C   0  0  0  0  0  0  0  0  0  0  0  0
   24.2811  -19.4152  -13.4213 O   0  0  0  0  0  0  0  0  0  0  0  0
   23.4682  -21.5949  -13.6354 N   0  0  0  0  0  0  0  0  0  0  0  0
   23.5890  -23.0193  -13.4992 C   0  0  0  0  0  0  0  0  0  0  0  0
   22.8068  -23.5169  -14.7236 C   0  0  0  0  0  0  0  0  0  0  0  0
   21.8043  -22.4216  -14.9989 C   0  0  0  0  0  0  0  0  0  0  0  0
   22.0982  -21.3255  -14.0069 C   0  0  1  0  0  0  0  0  0  0  0  0
   21.2390  -21.4270  -12.8178 C   0  0  0  0  0  0  0  0  0  0  0  0
   19.9311  -20.9892  -12.8622 O   0  0  0  0  0  0  0  0  0  0  0  0
   21.6745  -21.9099  -11.7473 O   0  0  0  0  0  0  0  0  0  0  0  0
  1  2  1  0
  3  5  1  0
  3  2  1  0
  3  4  1  6
  5  6  2  0
  8  7  1  0
  8  9  1  0
  9 10  1  0
 11 10  1  1
 11 13  1  0
 12  5  1  0
 12 11  1  0
 13 15  1  0
 14 13  2  0
 15 16  1  0
 15 19  1  0
 17 16  1  0
 18 17  1  0
 18 19  1  0
 19 20  1  1
 20 21  1  0
 22 20  2  0
M  END
$$$$
