EDD.pdb
     RDKit          3D

 26 25  0  0  1  0  0  0  0  0999 V2000
    9.7404  -16.0517   20.0326 N   0  0  0  0  0  0  0  0  0  0  0  0
    9.9727  -17.4689   20.2910 C   0  0  1  0  0  0  0  0  0  0  0  0
    9.8810  -18.2902   19.0453 C   0  0  0  0  0  0  0  0  0  0  0  0
    9.6180  -17.5321   17.7920 C   0  0  0  0  0  0  0  0  0  0  0  0
    9.4874  -18.3184   16.5740 C   0  0  0  0  0  0  0  0  0  0  0  0
    9.8073  -17.8527   15.4587 O   0  0  0  0  0  0  0  0  0  0  0  0
   11.3213  -17.6312   20.9437 C   0  0  0  0  0  0  0  0  0  0  0  0
   11.7460  -18.7850   21.2068 O   0  0  0  0  0  0  0  0  0  0  0  0
    9.0001  -19.6128   16.6308 O   0  0  0  0  0  0  0  0  0  0  0  0
   12.1168  -16.4972   21.2645 N   0  0  0  0  0  0  0  0  0  0  0  0
   13.3818  -16.6944   21.8845 C   0  0  1  0  0  0  0  0  0  0  0  0
   14.4072  -15.6571   21.5367 C   0  0  0  0  0  0  0  0  0  0  0  0
   15.7487  -15.9501   22.0287 C   0  0  0  0  0  0  0  0  0  0  0  0
   16.3535  -15.1051   22.7282 O   0  0  0  0  0  0  0  0  0  0  0  0
   13.2304  -16.6845   23.3831 C   0  0  0  0  0  0  0  0  0  0  0  0
   13.1624  -15.5993   23.9981 O   0  0  0  0  0  0  0  0  0  0  0  0
   16.3858  -17.1444   21.7466 O   0  0  0  0  0  0  0  0  0  0  0  0
   13.1670  -17.9068   24.0780 N   0  0  0  0  0  0  0  0  0  0  0  0
   12.9452  -17.9833   25.5241 C   0  0  1  0  0  0  0  0  0  0  0  0
   11.7379  -18.8384   25.7473 C   0  0  0  0  0  0  0  0  0  0  0  0
   11.2956  -18.9533   27.1397 C   0  0  0  0  0  0  0  0  0  0  0  0
   11.8930  -18.5514   28.1582 O   0  0  0  0  0  0  0  0  0  0  0  0
   14.1924  -18.5126   26.1184 C   0  0  0  0  0  0  0  0  0  0  0  0
   15.3298  -18.8008   25.3786 O   0  0  0  0  0  0  0  0  0  0  0  0
   10.0703  -19.5811   27.3597 O   0  0  0  0  0  0  0  0  0  0  0  0
   14.3000  -18.7413   27.3733 O   0  0  0  0  0  0  0  0  0  0  0  0
  2  1  1  6
  2  7  1  0
  3  4  1  0
  3  2  1  0
  4  5  1  0
  5  6  2  0
  7 10  1  0
  7  8  2  0
  9  5  1  0
 10 11  1  0
 11 12  1  1
 12 13  1  0
 13 17  1  0
 14 13  2  0
 15 11  1  0
 15 16  2  0
 18 15  1  0
 19 18  1  0
 19 20  1  6
 21 20  1  0
 22 21  2  0
 23 19  1  0
 24 23  1  0
 25 21  1  0
 26 23  2  0
M  END
$$$$
