EDD.pdb
     RDKit          3D

 26 25  0  0  1  0  0  0  0  0999 V2000
    5.7374  -19.1238   21.4859 N   0  0  0  0  0  0  0  0  0  0  0  0
    6.1538  -20.5160   21.3528 C   0  0  1  0  0  0  0  0  0  0  0  0
    5.9998  -21.0178   19.9530 C   0  0  0  0  0  0  0  0  0  0  0  0
    5.2886  -20.1057   19.0165 C   0  0  0  0  0  0  0  0  0  0  0  0
    4.1255  -20.6548   18.3350 C   0  0  0  0  0  0  0  0  0  0  0  0
    4.2411  -21.5226   17.4423 O   0  0  0  0  0  0  0  0  0  0  0  0
    7.5822  -20.6444   21.8155 C   0  0  0  0  0  0  0  0  0  0  0  0
    8.0977  -21.7863   21.9210 O   0  0  0  0  0  0  0  0  0  0  0  0
    2.8544  -20.2196   18.6681 O   0  0  0  0  0  0  0  0  0  0  0  0
    8.3516  -19.4917   22.1335 N   0  0  0  0  0  0  0  0  0  0  0  0
    9.6902  -19.6581   22.5851 C   0  0  1  0  0  0  0  0  0  0  0  0
   10.6139  -18.5413   22.2004 C   0  0  0  0  0  0  0  0  0  0  0  0
   12.0307  -18.8593   22.3386 C   0  0  0  0  0  0  0  0  0  0  0  0
   12.3772  -19.9808   22.7760 O   0  0  0  0  0  0  0  0  0  0  0  0
    9.7201  -19.7619   24.0875 C   0  0  0  0  0  0  0  0  0  0  0  0
    9.1560  -18.8937   24.7862 O   0  0  0  0  0  0  0  0  0  0  0  0
   13.0193  -17.9541   21.9990 O   0  0  0  0  0  0  0  0  0  0  0  0
   10.3883  -20.8438   24.6909 N   0  0  0  0  0  0  0  0  0  0  0  0
   10.4249  -21.0400   26.1423 C   0  0  1  0  0  0  0  0  0  0  0  0
   10.2339  -22.5012   26.4014 C   0  0  0  0  0  0  0  0  0  0  0  0
    8.8423  -22.9602   26.4263 C   0  0  0  0  0  0  0  0  0  0  0  0
    7.8134  -22.2556   26.4017 O   0  0  0  0  0  0  0  0  0  0  0  0
   11.7175  -20.4956   26.6127 C   0  0  0  0  0  0  0  0  0  0  0  0
   12.7055  -20.0260   25.7599 O   0  0  0  0  0  0  0  0  0  0  0  0
    8.6364  -24.3380   26.4841 O   0  0  0  0  0  0  0  0  0  0  0  0
   12.0086  -20.4236   27.8573 O   0  0  0  0  0  0  0  0  0  0  0  0
  2  1  1  6
  2  7  1  0
  3  4  1  0
  3  2  1  0
  4  5  1  0
  5  6  2  0
  7 10  1  0
  7  8  2  0
  9  5  1  0
 10 11  1  0
 11 12  1  1
 12 13  1  0
 13 17  1  0
 14 13  2  0
 15 11  1  0
 15 16  2  0
 18 15  1  0
 19 18  1  0
 19 20  1  6
 21 20  1  0
 22 21  2  0
 23 19  1  0
 24 23  1  0
 25 21  1  0
 26 23  2  0
M  END
$$$$
