EDD.pdb
     RDKit          3D

 26 25  0  0  1  0  0  0  0  0999 V2000
   11.5309  -15.7046   15.9803 N   0  0  0  0  0  0  0  0  0  0  0  0
   12.7092  -16.4806   16.3528 C   0  0  1  0  0  0  0  0  0  0  0  0
   13.9486  -15.6450   16.3764 C   0  0  0  0  0  0  0  0  0  0  0  0
   14.1042  -14.7572   17.5607 C   0  0  0  0  0  0  0  0  0  0  0  0
   15.3004  -13.9286   17.5969 C   0  0  0  0  0  0  0  0  0  0  0  0
   15.4351  -13.0128   18.4376 O   0  0  0  0  0  0  0  0  0  0  0  0
   12.4673  -17.1210   17.6953 C   0  0  0  0  0  0  0  0  0  0  0  0
   11.5393  -16.6916   18.4270 O   0  0  0  0  0  0  0  0  0  0  0  0
   16.3230  -14.1433   16.6891 O   0  0  0  0  0  0  0  0  0  0  0  0
   13.2746  -18.2025   18.1428 N   0  0  0  0  0  0  0  0  0  0  0  0
   12.9307  -18.8661   19.3531 C   0  0  1  0  0  0  0  0  0  0  0  0
   13.4646  -20.2630   19.4636 C   0  0  0  0  0  0  0  0  0  0  0  0
   13.0216  -20.9830   20.6522 C   0  0  0  0  0  0  0  0  0  0  0  0
   13.3995  -20.6059   21.7853 O   0  0  0  0  0  0  0  0  0  0  0  0
   13.4581  -18.0942   20.5342 C   0  0  0  0  0  0  0  0  0  0  0  0
   14.5468  -17.4876   20.4498 O   0  0  0  0  0  0  0  0  0  0  0  0
   12.1873  -22.0827   20.5718 O   0  0  0  0  0  0  0  0  0  0  0  0
   12.7127  -18.0652   21.7277 N   0  0  0  0  0  0  0  0  0  0  0  0
   13.0931  -17.2406   22.8773 C   0  0  1  0  0  0  0  0  0  0  0  0
   11.8784  -17.0829   23.7366 C   0  0  0  0  0  0  0  0  0  0  0  0
   12.0754  -16.3203   24.9725 C   0  0  0  0  0  0  0  0  0  0  0  0
   13.1550  -15.9098   25.4435 O   0  0  0  0  0  0  0  0  0  0  0  0
   14.2274  -17.9253   23.5353 C   0  0  0  0  0  0  0  0  0  0  0  0
   14.2073  -19.2646   23.8959 O   0  0  0  0  0  0  0  0  0  0  0  0
   10.9329  -16.0150   25.7110 O   0  0  0  0  0  0  0  0  0  0  0  0
   15.3158  -17.3132   23.8174 O   0  0  0  0  0  0  0  0  0  0  0  0
  2  1  1  1
  2  7  1  0
  3  4  1  0
  3  2  1  0
  4  5  1  0
  5  6  2  0
  7 10  1  0
  7  8  2  0
  9  5  1  0
 10 11  1  0
 11 12  1  6
 12 13  1  0
 13 17  1  0
 14 13  2  0
 15 11  1  0
 15 16  2  0
 18 15  1  0
 19 18  1  0
 19 20  1  1
 21 20  1  0
 22 21  2  0
 23 19  1  0
 24 23  1  0
 25 21  1  0
 26 23  2  0
M  END
$$$$
