EDD.pdb
     RDKit          3D

 26 25  0  0  1  0  0  0  0  0999 V2000
    8.9788  -16.1947   17.9671 N   0  0  0  0  0  0  0  0  0  0  0  0
    8.8108  -17.5125   18.5707 C   0  0  1  0  0  0  0  0  0  0  0  0
    8.5069  -18.5634   17.5518 C   0  0  0  0  0  0  0  0  0  0  0  0
    9.1523  -18.3783   16.2236 C   0  0  0  0  0  0  0  0  0  0  0  0
    8.9081  -19.4172   15.2337 C   0  0  0  0  0  0  0  0  0  0  0  0
    7.7786  -19.9355   15.0964 O   0  0  0  0  0  0  0  0  0  0  0  0
   10.0577  -17.8579   19.3433 C   0  0  0  0  0  0  0  0  0  0  0  0
   10.1171  -18.9486   19.9660 O   0  0  0  0  0  0  0  0  0  0  0  0
    9.9360  -19.8548   14.4165 O   0  0  0  0  0  0  0  0  0  0  0  0
   11.1650  -16.9665   19.3760 N   0  0  0  0  0  0  0  0  0  0  0  0
   12.3132  -17.3195   20.1379 C   0  0  1  0  0  0  0  0  0  0  0  0
   13.5012  -16.4336   19.9090 C   0  0  0  0  0  0  0  0  0  0  0  0
   14.1128  -16.5773   18.5927 C   0  0  0  0  0  0  0  0  0  0  0  0
   14.3310  -17.7203   18.1291 O   0  0  0  0  0  0  0  0  0  0  0  0
   11.9948  -17.2644   21.6091 C   0  0  0  0  0  0  0  0  0  0  0  0
   11.8162  -16.1627   22.1700 O   0  0  0  0  0  0  0  0  0  0  0  0
   14.4653  -15.4811   17.8271 O   0  0  0  0  0  0  0  0  0  0  0  0
   11.9017  -18.4637   22.3400 N   0  0  0  0  0  0  0  0  0  0  0  0
   11.6307  -18.4930   23.7794 C   0  0  1  0  0  0  0  0  0  0  0  0
   10.6566  -19.6010   24.0290 C   0  0  0  0  0  0  0  0  0  0  0  0
   10.3785  -19.8899   25.4386 C   0  0  0  0  0  0  0  0  0  0  0  0
   10.8450  -19.3049   26.4365 O   0  0  0  0  0  0  0  0  0  0  0  0
   12.9365  -18.6581   24.4549 C   0  0  0  0  0  0  0  0  0  0  0  0
   13.1630  -18.3077   25.7777 O   0  0  0  0  0  0  0  0  0  0  0  0
    9.4941  -20.9349   25.7029 O   0  0  0  0  0  0  0  0  0  0  0  0
   13.9551  -19.1424   23.8493 O   0  0  0  0  0  0  0  0  0  0  0  0
  2  1  1  6
  2  7  1  0
  3  4  1  0
  3  2  1  0
  4  5  1  0
  5  6  2  0
  7 10  1  0
  7  8  2  0
  9  5  1  0
 10 11  1  0
 11 12  1  1
 12 13  1  0
 13 17  1  0
 14 13  2  0
 15 11  1  0
 15 16  2  0
 18 15  1  0
 19 18  1  0
 19 20  1  6
 21 20  1  0
 22 21  2  0
 23 19  1  0
 24 23  1  0
 25 21  1  0
 26 23  2  0
M  END
$$$$
