EDD.pdb
     RDKit          3D

 26 25  0  0  1  0  0  0  0  0999 V2000
    8.8673  -15.2239   18.5534 N   0  0  0  0  0  0  0  0  0  0  0  0
    9.4865  -16.3177   17.8121 C   0  0  1  0  0  0  0  0  0  0  0  0
    9.0779  -16.3249   16.3741 C   0  0  0  0  0  0  0  0  0  0  0  0
    9.4404  -15.1094   15.5956 C   0  0  0  0  0  0  0  0  0  0  0  0
    9.0652  -15.1047   14.1892 C   0  0  0  0  0  0  0  0  0  0  0  0
    8.0128  -14.5558   13.7960 O   0  0  0  0  0  0  0  0  0  0  0  0
   10.9838  -16.2108   17.9447 C   0  0  0  0  0  0  0  0  0  0  0  0
   11.7166  -17.0669   17.3872 O   0  0  0  0  0  0  0  0  0  0  0  0
    9.8783  -15.7160   13.2503 O   0  0  0  0  0  0  0  0  0  0  0  0
   11.5757  -15.1554   18.6914 N   0  0  0  0  0  0  0  0  0  0  0  0
   12.9897  -15.1264   18.8443 C   0  0  1  0  0  0  0  0  0  0  0  0
   13.6488  -13.9150   18.2557 C   0  0  0  0  0  0  0  0  0  0  0  0
   15.0542  -14.1025   17.9136 C   0  0  0  0  0  0  0  0  0  0  0  0
   15.9446  -13.7072   18.7010 O   0  0  0  0  0  0  0  0  0  0  0  0
   13.3529  -15.1639   20.3057 C   0  0  0  0  0  0  0  0  0  0  0  0
   14.2945  -14.4642   20.7347 O   0  0  0  0  0  0  0  0  0  0  0  0
   15.4446  -14.7097   16.7342 O   0  0  0  0  0  0  0  0  0  0  0  0
   12.6217  -15.9928   21.1770 N   0  0  0  0  0  0  0  0  0  0  0  0
   12.9229  -16.0974   22.6069 C   0  0  1  0  0  0  0  0  0  0  0  0
   11.6358  -16.3789   23.3161 C   0  0  0  0  0  0  0  0  0  0  0  0
   11.7394  -16.5424   24.7688 C   0  0  0  0  0  0  0  0  0  0  0  0
   12.7725  -16.4791   25.4648 O   0  0  0  0  0  0  0  0  0  0  0  0
   13.9478  -17.1546   22.7495 C   0  0  0  0  0  0  0  0  0  0  0  0
   15.0228  -17.0651   23.6217 O   0  0  0  0  0  0  0  0  0  0  0  0
   10.5547  -16.7979   25.4581 O   0  0  0  0  0  0  0  0  0  0  0  0
   13.9050  -18.2353   22.0647 O   0  0  0  0  0  0  0  0  0  0  0  0
  2  1  1  1
  2  7  1  0
  3  4  1  0
  3  2  1  0
  4  5  1  0
  5  6  2  0
  7 10  1  0
  7  8  2  0
  9  5  1  0
 10 11  1  0
 11 12  1  1
 12 13  1  0
 13 17  1  0
 14 13  2  0
 15 11  1  0
 15 16  2  0
 18 15  1  0
 19 18  1  0
 19 20  1  1
 21 20  1  0
 22 21  2  0
 23 19  1  0
 24 23  1  0
 25 21  1  0
 26 23  2  0
M  END
$$$$
