EDD.pdb
     RDKit          3D

 26 25  0  0  1  0  0  0  0  0999 V2000
    9.9923  -19.7207   14.9254 N   0  0  0  0  0  0  0  0  0  0  0  0
   10.7295  -18.4665   14.8129 C   0  0  1  0  0  0  0  0  0  0  0  0
    9.9574  -17.4249   14.0689 C   0  0  0  0  0  0  0  0  0  0  0  0
    9.4224  -17.8431   12.7446 C   0  0  0  0  0  0  0  0  0  0  0  0
    8.5363  -16.9012   12.0766 C   0  0  0  0  0  0  0  0  0  0  0  0
    8.9847  -15.9581   11.3889 O   0  0  0  0  0  0  0  0  0  0  0  0
   11.0870  -17.9851   16.1955 C   0  0  0  0  0  0  0  0  0  0  0  0
   11.7288  -16.9123   16.3299 O   0  0  0  0  0  0  0  0  0  0  0  0
    7.1635  -17.0353   12.1929 O   0  0  0  0  0  0  0  0  0  0  0  0
   10.7078  -18.7285   17.3467 N   0  0  0  0  0  0  0  0  0  0  0  0
   11.0607  -18.2360   18.6337 C   0  0  1  0  0  0  0  0  0  0  0  0
    9.9476  -18.2809   19.6375 C   0  0  0  0  0  0  0  0  0  0  0  0
    8.7548  -18.9848   19.1804 C   0  0  0  0  0  0  0  0  0  0  0  0
    8.8279  -20.1957   18.8682 O   0  0  0  0  0  0  0  0  0  0  0  0
   12.2022  -19.0393   19.1999 C   0  0  0  0  0  0  0  0  0  0  0  0
   12.1340  -20.2861   19.2333 O   0  0  0  0  0  0  0  0  0  0  0  0
    7.5284  -18.3543   19.0779 O   0  0  0  0  0  0  0  0  0  0  0  0
   13.3405  -18.3709   19.6881 N   0  0  0  0  0  0  0  0  0  0  0  0
   14.4953  -19.0799   20.2450 C   0  0  1  0  0  0  0  0  0  0  0  0
   15.6941  -18.2065   20.0486 C   0  0  0  0  0  0  0  0  0  0  0  0
   16.0487  -17.9271   18.6544 C   0  0  0  0  0  0  0  0  0  0  0  0
   15.9254  -18.6903   17.6755 O   0  0  0  0  0  0  0  0  0  0  0  0
   14.1729  -19.3735   21.6587 C   0  0  0  0  0  0  0  0  0  0  0  0
   13.1230  -18.7791   22.3432 O   0  0  0  0  0  0  0  0  0  0  0  0
   16.5847  -16.6690   18.3826 O   0  0  0  0  0  0  0  0  0  0  0  0
   14.8552  -20.2082   22.3490 O   0  0  0  0  0  0  0  0  0  0  0  0
  2  1  1  1
  2  7  1  0
  3  4  1  0
  3  2  1  0
  4  5  1  0
  5  6  2  0
  7 10  1  0
  7  8  2  0
  9  5  1  0
 10 11  1  0
 11 12  1  1
 12 13  1  0
 13 17  1  0
 14 13  2  0
 15 11  1  0
 15 16  2  0
 18 15  1  0
 19 18  1  0
 19 20  1  1
 21 20  1  0
 22 21  2  0
 23 19  1  0
 24 23  1  0
 25 21  1  0
 26 23  2  0
M  END
$$$$
