EDD.pdb
     RDKit          3D

 26 25  0  0  1  0  0  0  0  0999 V2000
    8.5180  -14.6834   17.8160 N   0  0  0  0  0  0  0  0  0  0  0  0
    9.0835  -15.8100   18.5510 C   0  0  1  0  0  0  0  0  0  0  0  0
    9.8197  -16.7535   17.6551 C   0  0  0  0  0  0  0  0  0  0  0  0
   10.8191  -16.1302   16.7453 C   0  0  0  0  0  0  0  0  0  0  0  0
   11.6120  -17.0405   15.9322 C   0  0  0  0  0  0  0  0  0  0  0  0
   12.7217  -17.4654   16.3212 O   0  0  0  0  0  0  0  0  0  0  0  0
    9.9880  -15.2813   19.6342 C   0  0  0  0  0  0  0  0  0  0  0  0
   10.5962  -14.1953   19.4564 O   0  0  0  0  0  0  0  0  0  0  0  0
   11.1445  -17.4570   14.6976 O   0  0  0  0  0  0  0  0  0  0  0  0
   10.1613  -15.9950   20.8517 N   0  0  0  0  0  0  0  0  0  0  0  0
   10.8989  -15.3907   21.9072 C   0  0  1  0  0  0  0  0  0  0  0  0
   10.1552  -15.3005   23.2062 C   0  0  0  0  0  0  0  0  0  0  0  0
    9.7881  -16.5907   23.7789 C   0  0  0  0  0  0  0  0  0  0  0  0
    9.0899  -17.3907   23.1143 O   0  0  0  0  0  0  0  0  0  0  0  0
   12.1597  -16.1717   22.1704 C   0  0  0  0  0  0  0  0  0  0  0  0
   12.1754  -17.4095   22.0038 O   0  0  0  0  0  0  0  0  0  0  0  0
   10.1891  -16.9679   25.0473 O   0  0  0  0  0  0  0  0  0  0  0  0
   13.3137  -15.4927   22.6043 N   0  0  0  0  0  0  0  0  0  0  0  0
   14.5894  -16.1733   22.8401 C   0  0  1  0  0  0  0  0  0  0  0  0
   15.6698  -15.1419   22.7528 C   0  0  0  0  0  0  0  0  0  0  0  0
   16.2209  -14.9183   21.4134 C   0  0  0  0  0  0  0  0  0  0  0  0
   15.9282  -15.5264   20.3644 O   0  0  0  0  0  0  0  0  0  0  0  0
   14.4794  -16.8390   24.1566 C   0  0  0  0  0  0  0  0  0  0  0  0
   13.5029  -16.5284   25.0916 O   0  0  0  0  0  0  0  0  0  0  0  0
   17.1809  -13.9149   21.2886 O   0  0  0  0  0  0  0  0  0  0  0  0
   15.2929  -17.7582   24.5202 O   0  0  0  0  0  0  0  0  0  0  0  0
  2  1  1  6
  2  7  1  0
  3  4  1  0
  3  2  1  0
  4  5  1  0
  5  6  2  0
  7 10  1  0
  7  8  2  0
  9  5  1  0
 10 11  1  0
 11 12  1  1
 12 13  1  0
 13 17  1  0
 14 13  2  0
 15 11  1  0
 15 16  2  0
 18 15  1  0
 19 18  1  0
 19 20  1  1
 21 20  1  0
 22 21  2  0
 23 19  1  0
 24 23  1  0
 25 21  1  0
 26 23  2  0
M  END
$$$$
