EDD.pdb
     RDKit          3D

 26 25  0  0  1  0  0  0  0  0999 V2000
    8.9225  -13.1013   17.7187 N   0  0  0  0  0  0  0  0  0  0  0  0
    8.8653  -14.5536   17.8477 C   0  0  1  0  0  0  0  0  0  0  0  0
    8.3187  -15.2064   16.6189 C   0  0  0  0  0  0  0  0  0  0  0  0
    8.8772  -14.7194   15.3283 C   0  0  0  0  0  0  0  0  0  0  0  0
    8.4722  -15.4435   14.1323 C   0  0  0  0  0  0  0  0  0  0  0  0
    8.6767  -14.9815   12.9886 O   0  0  0  0  0  0  0  0  0  0  0  0
   10.2457  -15.0702   18.1619 C   0  0  0  0  0  0  0  0  0  0  0  0
   10.4140  -16.2992   18.3670 O   0  0  0  0  0  0  0  0  0  0  0  0
    7.8454  -16.6728   14.2423 O   0  0  0  0  0  0  0  0  0  0  0  0
   11.3570  -14.1858   18.2288 N   0  0  0  0  0  0  0  0  0  0  0  0
   12.6371  -14.7096   18.5610 C   0  0  1  0  0  0  0  0  0  0  0  0
   13.7834  -13.9960   17.9088 C   0  0  0  0  0  0  0  0  0  0  0  0
   15.0650  -14.6818   18.0300 C   0  0  0  0  0  0  0  0  0  0  0  0
   16.1309  -14.0323   17.9252 O   0  0  0  0  0  0  0  0  0  0  0  0
   12.8563  -14.6349   20.0493 C   0  0  0  0  0  0  0  0  0  0  0  0
   13.1480  -13.5448   20.5851 O   0  0  0  0  0  0  0  0  0  0  0  0
   15.1466  -16.0428   18.2599 O   0  0  0  0  0  0  0  0  0  0  0  0
   12.7289  -15.8026   20.8247 N   0  0  0  0  0  0  0  0  0  0  0  0
   12.9360  -15.8149   22.2749 C   0  0  1  0  0  0  0  0  0  0  0  0
   11.7379  -16.4644   22.8927 C   0  0  0  0  0  0  0  0  0  0  0  0
   11.7962  -16.6411   24.3463 C   0  0  0  0  0  0  0  0  0  0  0  0
   12.6949  -16.2534   25.1195 O   0  0  0  0  0  0  0  0  0  0  0  0
   14.2124  -16.5227   22.5164 C   0  0  0  0  0  0  0  0  0  0  0  0
   14.6262  -17.6253   21.7834 O   0  0  0  0  0  0  0  0  0  0  0  0
   10.7314  -17.3176   24.9400 O   0  0  0  0  0  0  0  0  0  0  0  0
   15.0273  -16.1549   23.4326 O   0  0  0  0  0  0  0  0  0  0  0  0
  2  1  1  6
  2  7  1  0
  3  4  1  0
  3  2  1  0
  4  5  1  0
  5  6  2  0
  7 10  1  0
  7  8  2  0
  9  5  1  0
 10 11  1  0
 11 12  1  6
 12 13  1  0
 13 17  1  0
 14 13  2  0
 15 11  1  0
 15 16  2  0
 18 15  1  0
 19 18  1  0
 19 20  1  1
 21 20  1  0
 22 21  2  0
 23 19  1  0
 24 23  1  0
 25 21  1  0
 26 23  2  0
M  END
$$$$
