EDD.pdb
     RDKit          3D

 26 25  0  0  1  0  0  0  0  0999 V2000
    9.8745  -13.9824   17.1737 N   0  0  0  0  0  0  0  0  0  0  0  0
   10.0214  -15.4210   17.3685 C   0  0  1  0  0  0  0  0  0  0  0  0
    9.9000  -16.1777   16.0849 C   0  0  0  0  0  0  0  0  0  0  0  0
    9.8007  -15.3466   14.8543 C   0  0  0  0  0  0  0  0  0  0  0  0
    8.8886  -15.8206   13.8238 C   0  0  0  0  0  0  0  0  0  0  0  0
    7.6660  -15.5617   13.8645 O   0  0  0  0  0  0  0  0  0  0  0  0
   11.3492  -15.6911   18.0279 C   0  0  0  0  0  0  0  0  0  0  0  0
   11.6788  -16.8753   18.2922 O   0  0  0  0  0  0  0  0  0  0  0  0
    9.3657  -16.5763   12.7667 O   0  0  0  0  0  0  0  0  0  0  0  0
   12.2312  -14.6245   18.3538 N   0  0  0  0  0  0  0  0  0  0  0  0
   13.5070  -14.9277   18.9053 C   0  0  1  0  0  0  0  0  0  0  0  0
   14.6177  -14.0520   18.4073 C   0  0  0  0  0  0  0  0  0  0  0  0
   15.2171  -14.4966   17.1541 C   0  0  0  0  0  0  0  0  0  0  0  0
   15.3854  -13.6791   16.2201 O   0  0  0  0  0  0  0  0  0  0  0  0
   13.4690  -14.7877   20.4045 C   0  0  0  0  0  0  0  0  0  0  0  0
   13.4134  -13.6540   20.9260 O   0  0  0  0  0  0  0  0  0  0  0  0
   15.6120  -15.8071   16.9574 O   0  0  0  0  0  0  0  0  0  0  0  0
   13.4968  -15.9442   21.2061 N   0  0  0  0  0  0  0  0  0  0  0  0
   13.4991  -15.8913   22.6702 C   0  0  1  0  0  0  0  0  0  0  0  0
   12.4727  -16.8660   23.1550 C   0  0  0  0  0  0  0  0  0  0  0  0
   12.3831  -17.0153   24.6102 C   0  0  0  0  0  0  0  0  0  0  0  0
   13.0611  -16.4237   25.4739 O   0  0  0  0  0  0  0  0  0  0  0  0
   14.8820  -16.1873   23.1044 C   0  0  0  0  0  0  0  0  0  0  0  0
   15.5061  -15.5424   24.1622 O   0  0  0  0  0  0  0  0  0  0  0  0
   11.4360  -17.9181   25.0918 O   0  0  0  0  0  0  0  0  0  0  0  0
   15.6000  -17.0716   22.5202 O   0  0  0  0  0  0  0  0  0  0  0  0
  2  1  1  6
  2  7  1  0
  3  4  1  0
  3  2  1  0
  4  5  1  0
  5  6  2  0
  7 10  1  0
  7  8  2  0
  9  5  1  0
 10 11  1  0
 11 12  1  6
 12 13  1  0
 13 17  1  0
 14 13  2  0
 15 11  1  0
 15 16  2  0
 18 15  1  0
 19 18  1  0
 19 20  1  1
 21 20  1  0
 22 21  2  0
 23 19  1  0
 24 23  1  0
 25 21  1  0
 26 23  2  0
M  END
$$$$
