DPA.pdb
     RDKit          3D

 21 21  0  0  1  0  0  0  0  0999 V2000
   23.1941  -21.5657  -14.7785 N   0  0  0  0  0  0  0  0  0  0  0  0
   24.0450  -20.4742  -14.3291 C   0  0  1  0  0  0  0  0  0  0  0  0
   23.2300  -19.2359  -14.0398 C   0  0  0  0  0  0  0  0  0  0  0  0
   22.6557  -18.6381  -15.2541 C   0  0  0  0  0  0  0  0  0  0  0  0
   21.4073  -18.5478  -15.3630 O   0  0  0  0  0  0  0  0  0  0  0  0
   24.7682  -20.9221  -13.1212 C   0  0  0  0  0  0  0  0  0  0  0  0
   24.1426  -21.4424  -12.1551 O   0  0  0  0  0  0  0  0  0  0  0  0
   23.4139  -18.1592  -16.3043 O   0  0  0  0  0  0  0  0  0  0  0  0
   26.1778  -20.7897  -12.9975 N   0  0  0  0  0  0  0  0  0  0  0  0
   27.0977  -20.2486  -14.0156 C   0  0  0  0  0  0  0  0  0  0  0  0
   28.3830  -21.0190  -13.6682 C   0  0  0  0  0  0  0  0  0  0  0  0
   28.3462  -20.8674  -12.1647 C   0  0  0  0  0  0  0  0  0  0  0  0
   26.9362  -21.1923  -11.8394 C   0  0  1  0  0  0  0  0  0  0  0  0
   26.4503  -20.5525  -10.5956 C   0  0  0  0  0  0  0  0  0  0  0  0
   26.1149  -19.3439  -10.6634 O   0  0  0  0  0  0  0  0  0  0  0  0
   25.3982  -21.2316   -7.0879 C   0  0  0  0  0  0  0  0  0  0  0  0
   26.1241  -20.4431   -8.1435 C   0  0  2  0  0  0  0  0  0  0  0  0
   26.3425  -21.2050   -9.3610 N   0  0  0  0  0  0  0  0  0  0  0  0
   27.4031  -19.9433   -7.5787 C   0  0  0  0  0  0  0  0  0  0  0  0
   28.4780  -20.4586   -7.9500 O   0  0  0  0  0  0  0  0  0  0  0  0
   27.3919  -18.9181   -6.6522 O   0  0  0  0  0  0  0  0  0  0  0  0
  2  1  1  1
  2  3  1  0
  3  4  1  0
  4  8  1  0
  5  4  2  0
  6  2  1  0
  7  6  2  0
  9 13  1  0
  9  6  1  0
 10  9  1  0
 11 12  1  0
 11 10  1  0
 12 13  1  0
 13 14  1  1
 14 18  1  0
 15 14  2  0
 17 16  1  1
 17 19  1  0
 18 17  1  0
 19 20  2  0
 19 21  1  0
M  END
$$$$
