DPA.pdb
     RDKit          3D

 21 21  0  0  1  0  0  0  0  0999 V2000
   22.4641  -20.6256  -10.9453 N   0  0  0  0  0  0  0  0  0  0  0  0
   22.9405  -20.9438  -12.2829 C   0  0  1  0  0  0  0  0  0  0  0  0
   21.8528  -20.7332  -13.3095 C   0  0  0  0  0  0  0  0  0  0  0  0
   20.6689  -21.5690  -13.0615 C   0  0  0  0  0  0  0  0  0  0  0  0
   20.7822  -22.8198  -13.0939 O   0  0  0  0  0  0  0  0  0  0  0  0
   24.1089  -20.0869  -12.5710 C   0  0  0  0  0  0  0  0  0  0  0  0
   24.0274  -18.8315  -12.4567 O   0  0  0  0  0  0  0  0  0  0  0  0
   19.4147  -21.0589  -12.7893 O   0  0  0  0  0  0  0  0  0  0  0  0
   25.3561  -20.6307  -12.9817 N   0  0  0  0  0  0  0  0  0  0  0  0
   25.7112  -22.0613  -13.0339 C   0  0  0  0  0  0  0  0  0  0  0  0
   27.2292  -21.9810  -12.7983 C   0  0  0  0  0  0  0  0  0  0  0  0
   27.5485  -20.8315  -13.7265 C   0  0  0  0  0  0  0  0  0  0  0  0
   26.4908  -19.8450  -13.3985 C   0  0  1  0  0  0  0  0  0  0  0  0
   26.1642  -18.9296  -14.5156 C   0  0  0  0  0  0  0  0  0  0  0  0
   25.3180  -19.3255  -15.3552 O   0  0  0  0  0  0  0  0  0  0  0  0
   26.3538  -15.3645  -15.4874 C   0  0  0  0  0  0  0  0  0  0  0  0
   26.3458  -16.8319  -15.8186 C   0  0  2  0  0  0  0  0  0  0  0  0
   26.7346  -17.6626  -14.6920 N   0  0  0  0  0  0  0  0  0  0  0  0
   27.2220  -17.0663  -16.9942 C   0  0  0  0  0  0  0  0  0  0  0  0
   26.9217  -16.5534  -18.0922 O   0  0  0  0  0  0  0  0  0  0  0  0
   28.3555  -17.8457  -16.8628 O   0  0  0  0  0  0  0  0  0  0  0  0
  2  1  1  1
  2  3  1  0
  3  4  1  0
  4  8  1  0
  5  4  2  0
  6  2  1  0
  7  6  2  0
  9 13  1  0
  9  6  1  0
 10  9  1  0
 11 12  1  0
 11 10  1  0
 12 13  1  0
 13 14  1  6
 14 18  1  0
 15 14  2  0
 17 16  1  1
 17 19  1  0
 18 17  1  0
 19 20  2  0
 19 21  1  0
M  END
$$$$
