DPA.pdb
     RDKit          3D

 21 21  0  0  1  0  0  0  0  0999 V2000
   16.8154  -12.0323  -15.3752 N   0  0  0  0  0  0  0  0  0  0  0  0
   17.5945  -10.9764  -14.7464 C   0  0  1  0  0  0  0  0  0  0  0  0
   18.5400  -10.3381  -15.7364 C   0  0  0  0  0  0  0  0  0  0  0  0
   19.5609  -11.2738  -16.2304 C   0  0  0  0  0  0  0  0  0  0  0  0
   20.1516  -12.0251  -15.4150 O   0  0  0  0  0  0  0  0  0  0  0  0
   16.6556   -9.9772  -14.1963 C   0  0  0  0  0  0  0  0  0  0  0  0
   15.7366   -9.4957  -14.9169 O   0  0  0  0  0  0  0  0  0  0  0  0
   19.9203  -11.3835  -17.5594 O   0  0  0  0  0  0  0  0  0  0  0  0
   16.7444   -9.5231  -12.8525 N   0  0  0  0  0  0  0  0  0  0  0  0
   17.6554  -10.0394  -11.8137 C   0  0  0  0  0  0  0  0  0  0  0  0
   16.8253   -9.7582  -10.5495 C   0  0  0  0  0  0  0  0  0  0  0  0
   16.3679   -8.3556  -10.8785 C   0  0  0  0  0  0  0  0  0  0  0  0
   15.9244   -8.4802  -12.2882 C   0  0  1  0  0  0  0  0  0  0  0  0
   16.0130   -7.2157  -13.0535 C   0  0  0  0  0  0  0  0  0  0  0  0
   17.1473   -6.8744  -13.4714 O   0  0  0  0  0  0  0  0  0  0  0  0
   13.7928   -4.6697  -14.6946 C   0  0  0  0  0  0  0  0  0  0  0  0
   15.0944   -5.1979  -14.1563 C   0  0  2  0  0  0  0  0  0  0  0  0
   14.9213   -6.3853  -13.3374 N   0  0  0  0  0  0  0  0  0  0  0  0
   15.7811   -4.1161  -13.4061 C   0  0  0  0  0  0  0  0  0  0  0  0
   16.1943   -3.1120  -14.0226 O   0  0  0  0  0  0  0  0  0  0  0  0
   15.9557   -4.2300  -12.0401 O   0  0  0  0  0  0  0  0  0  0  0  0
  2  1  1  6
  2  3  1  0
  3  4  1  0
  4  8  1  0
  5  4  2  0
  6  2  1  0
  7  6  2  0
  9 13  1  0
  9  6  1  0
 10  9  1  0
 11 12  1  0
 11 10  1  0
 12 13  1  0
 13 14  1  6
 14 18  1  0
 15 14  2  0
 17 16  1  1
 17 19  1  0
 18 17  1  0
 19 20  2  0
 19 21  1  0
M  END
$$$$
