DPA.pdb
     RDKit          3D

 21 21  0  0  1  0  0  0  0  0999 V2000
   17.4630  -12.1776  -15.1646 N   0  0  0  0  0  0  0  0  0  0  0  0
   17.5556  -10.9977  -16.0111 C   0  0  1  0  0  0  0  0  0  0  0  0
   16.3281  -10.1296  -15.8663 C   0  0  0  0  0  0  0  0  0  0  0  0
   15.1022  -10.7990  -16.3255 C   0  0  0  0  0  0  0  0  0  0  0  0
   15.1349  -11.4878  -17.3756 O   0  0  0  0  0  0  0  0  0  0  0  0
   18.7740  -10.2536  -15.6314 C   0  0  0  0  0  0  0  0  0  0  0  0
   18.9629   -9.9009  -14.4332 O   0  0  0  0  0  0  0  0  0  0  0  0
   13.8923  -10.7189  -15.6644 O   0  0  0  0  0  0  0  0  0  0  0  0
   19.7712   -9.9092  -16.5838 N   0  0  0  0  0  0  0  0  0  0  0  0
   19.7556  -10.2348  -18.0222 C   0  0  0  0  0  0  0  0  0  0  0  0
   21.2653  -10.3076  -18.3084 C   0  0  0  0  0  0  0  0  0  0  0  0
   21.7036   -9.0677  -17.5631 C   0  0  0  0  0  0  0  0  0  0  0  0
   20.9823   -9.1915  -16.2732 C   0  0  1  0  0  0  0  0  0  0  0  0
   20.7158   -7.8927  -15.6139 C   0  0  0  0  0  0  0  0  0  0  0  0
   19.6319   -7.3200  -15.8877 O   0  0  0  0  0  0  0  0  0  0  0  0
   21.9413   -5.7318  -12.8236 C   0  0  0  0  0  0  0  0  0  0  0  0
   21.2535   -5.9781  -14.1385 C   0  0  2  0  0  0  0  0  0  0  0  0
   21.5887   -7.2697  -14.7129 N   0  0  0  0  0  0  0  0  0  0  0  0
   21.5801   -4.8684  -15.0695 C   0  0  0  0  0  0  0  0  0  0  0  0
   22.3314   -5.0878  -16.0423 O   0  0  0  0  0  0  0  0  0  0  0  0
   21.0523   -3.6100  -14.8518 O   0  0  0  0  0  0  0  0  0  0  0  0
  2  1  1  1
  2  3  1  0
  3  4  1  0
  4  8  1  0
  5  4  2  0
  6  2  1  0
  7  6  2  0
  9 13  1  0
  9  6  1  0
 10  9  1  0
 11 12  1  0
 11 10  1  0
 12 13  1  0
 13 14  1  6
 14 18  1  0
 15 14  2  0
 17 16  1  1
 17 19  1  0
 18 17  1  0
 19 20  2  0
 19 21  1  0
M  END
$$$$
