DPA.pdb
     RDKit          3D

 21 21  0  0  1  0  0  0  0  0999 V2000
   22.3986  -19.3156  -15.3525 N   0  0  0  0  0  0  0  0  0  0  0  0
   23.3671  -18.5948  -16.1648 C   0  0  1  0  0  0  0  0  0  0  0  0
   23.0868  -18.7837  -17.6369 C   0  0  0  0  0  0  0  0  0  0  0  0
   23.1703  -20.1910  -18.0545 C   0  0  0  0  0  0  0  0  0  0  0  0
   24.2977  -20.7362  -18.1544 O   0  0  0  0  0  0  0  0  0  0  0  0
   23.3038  -17.1656  -15.7964 C   0  0  0  0  0  0  0  0  0  0  0  0
   22.1900  -16.6017  -15.6034 O   0  0  0  0  0  0  0  0  0  0  0  0
   22.0681  -20.9689  -18.3499 O   0  0  0  0  0  0  0  0  0  0  0  0
   24.4760  -16.3764  -15.6443 N   0  0  0  0  0  0  0  0  0  0  0  0
   25.8686  -16.8562  -15.7205 C   0  0  0  0  0  0  0  0  0  0  0  0
   26.5633  -15.8457  -14.7917 C   0  0  0  0  0  0  0  0  0  0  0  0
   25.9075  -14.5795  -15.2931 C   0  0  0  0  0  0  0  0  0  0  0  0
   24.4764  -14.9617  -15.3672 C   0  0  1  0  0  0  0  0  0  0  0  0
   23.7058  -14.1898  -16.3687 C   0  0  0  0  0  0  0  0  0  0  0  0
   23.7872  -14.5589  -17.5666 O   0  0  0  0  0  0  0  0  0  0  0  0
   20.8507  -11.8246  -16.5868 C   0  0  0  0  0  0  0  0  0  0  0  0
   22.1239  -12.4337  -17.1072 C   0  0  2  0  0  0  0  0  0  0  0  0
   22.9000  -13.0848  -16.0659 N   0  0  0  0  0  0  0  0  0  0  0  0
   22.9146  -11.3834  -17.7975 C   0  0  0  0  0  0  0  0  0  0  0  0
   24.0553  -11.1009  -17.3759 O   0  0  0  0  0  0  0  0  0  0  0  0
   22.3833  -10.7318  -18.8942 O   0  0  0  0  0  0  0  0  0  0  0  0
  2  1  1  1
  2  3  1  0
  3  4  1  0
  4  8  1  0
  5  4  2  0
  6  2  1  0
  7  6  2  0
  9 13  1  0
  9  6  1  0
 10  9  1  0
 11 12  1  0
 11 10  1  0
 12 13  1  0
 13 14  1  6
 14 18  1  0
 15 14  2  0
 17 16  1  1
 17 19  1  0
 18 17  1  0
 19 20  2  0
 19 21  1  0
M  END
$$$$
