DPA.pdb
     RDKit          3D

 21 21  0  0  1  0  0  0  0  0999 V2000
   18.6523  -10.8520  -18.3599 N   0  0  0  0  0  0  0  0  0  0  0  0
   20.0113  -10.3325  -18.3395 C   0  0  1  0  0  0  0  0  0  0  0  0
   20.2368   -9.3608  -19.4737 C   0  0  0  0  0  0  0  0  0  0  0  0
   20.4677  -10.0340  -20.7602 C   0  0  0  0  0  0  0  0  0  0  0  0
   20.9182  -11.2067  -20.7677 O   0  0  0  0  0  0  0  0  0  0  0  0
   20.2341   -9.6781  -17.0339 C   0  0  0  0  0  0  0  0  0  0  0  0
   19.3211   -8.9894  -16.4975 O   0  0  0  0  0  0  0  0  0  0  0  0
   20.2165   -9.4499  -21.9862 O   0  0  0  0  0  0  0  0  0  0  0  0
   21.4665   -9.7950  -16.3357 N   0  0  0  0  0  0  0  0  0  0  0  0
   22.6098  -10.6453  -16.7169 C   0  0  0  0  0  0  0  0  0  0  0  0
   23.2220  -10.9264  -15.3340 C   0  0  0  0  0  0  0  0  0  0  0  0
   23.1554   -9.5291  -14.7614 C   0  0  0  0  0  0  0  0  0  0  0  0
   21.7804   -9.0987  -15.1130 C   0  0  1  0  0  0  0  0  0  0  0  0
   21.6319   -7.6313  -15.2446 C   0  0  0  0  0  0  0  0  0  0  0  0
   21.9643   -7.1154  -16.3406 O   0  0  0  0  0  0  0  0  0  0  0  0
   19.7163   -4.8021  -14.0133 C   0  0  0  0  0  0  0  0  0  0  0  0
   21.0417   -5.3600  -14.4547 C   0  0  2  0  0  0  0  0  0  0  0  0
   21.1488   -6.7917  -14.2330 N   0  0  0  0  0  0  0  0  0  0  0  0
   22.1300   -4.6208  -13.7663 C   0  0  0  0  0  0  0  0  0  0  0  0
   22.6540   -5.1144  -12.7462 O   0  0  0  0  0  0  0  0  0  0  0  0
   22.5506   -3.3999  -14.2585 O   0  0  0  0  0  0  0  0  0  0  0  0
  2  1  1  1
  2  3  1  0
  3  4  1  0
  4  8  1  0
  5  4  2  0
  6  2  1  0
  7  6  2  0
  9 13  1  0
  9  6  1  0
 10  9  1  0
 11 12  1  0
 11 10  1  0
 12 13  1  0
 13 14  1  6
 14 18  1  0
 15 14  2  0
 17 16  1  1
 17 19  1  0
 18 17  1  0
 19 20  2  0
 19 21  1  0
M  END
$$$$
