DPA.pdb
     RDKit          3D

 21 21  0  0  1  0  0  0  0  0999 V2000
   23.9240  -14.8109  -17.0026 N   0  0  0  0  0  0  0  0  0  0  0  0
   24.4762  -13.6153  -17.6215 C   0  0  1  0  0  0  0  0  0  0  0  0
   23.8999  -13.4043  -19.0016 C   0  0  0  0  0  0  0  0  0  0  0  0
   24.2310  -14.4970  -19.9279 C   0  0  0  0  0  0  0  0  0  0  0  0
   23.3696  -14.8810  -20.7579 O   0  0  0  0  0  0  0  0  0  0  0  0
   24.1778  -12.4639  -16.7452 C   0  0  0  0  0  0  0  0  0  0  0  0
   23.0404  -12.3438  -16.2090 O   0  0  0  0  0  0  0  0  0  0  0  0
   25.4519  -15.1423  -19.9460 O   0  0  0  0  0  0  0  0  0  0  0  0
   25.1440  -11.4583  -16.4712 N   0  0  0  0  0  0  0  0  0  0  0  0
   26.5329  -11.4225  -16.9663 C   0  0  0  0  0  0  0  0  0  0  0  0
   27.2154  -10.6454  -15.8276 C   0  0  0  0  0  0  0  0  0  0  0  0
   26.1863   -9.5541  -15.6410 C   0  0  0  0  0  0  0  0  0  0  0  0
   24.9095  -10.3087  -15.6335 C   0  0  1  0  0  0  0  0  0  0  0  0
   23.7449   -9.5116  -16.0814 C   0  0  0  0  0  0  0  0  0  0  0  0
   23.5203   -9.4651  -17.3164 O   0  0  0  0  0  0  0  0  0  0  0  0
   20.6418   -7.8900  -14.8161 C   0  0  0  0  0  0  0  0  0  0  0  0
   21.8078   -8.0031  -15.7597 C   0  0  2  0  0  0  0  0  0  0  0  0
   22.8871   -8.8134  -15.2221 N   0  0  0  0  0  0  0  0  0  0  0  0
   22.2766   -6.6394  -16.1135 C   0  0  0  0  0  0  0  0  0  0  0  0
   23.4237   -6.2806  -15.7756 O   0  0  0  0  0  0  0  0  0  0  0  0
   21.4434   -5.7846  -16.8097 O   0  0  0  0  0  0  0  0  0  0  0  0
  2  1  1  1
  2  3  1  0
  3  4  1  0
  4  8  1  0
  5  4  2  0
  6  2  1  0
  7  6  2  0
  9 13  1  0
  9  6  1  0
 10  9  1  0
 11 12  1  0
 11 10  1  0
 12 13  1  0
 13 14  1  6
 14 18  1  0
 15 14  2  0
 17 16  1  1
 17 19  1  0
 18 17  1  0
 19 20  2  0
 19 21  1  0
M  END
$$$$
