DPA.pdb
     RDKit          3D

 21 21  0  0  1  0  0  0  0  0999 V2000
   14.8020   -9.8656  -10.2675 N   0  0  0  0  0  0  0  0  0  0  0  0
   14.9297   -8.6636  -11.0776 C   0  0  1  0  0  0  0  0  0  0  0  0
   14.6428   -7.4264  -10.2600 C   0  0  0  0  0  0  0  0  0  0  0  0
   13.2317   -7.3252   -9.8600 C   0  0  0  0  0  0  0  0  0  0  0  0
   12.3348   -7.4907  -10.7240 O   0  0  0  0  0  0  0  0  0  0  0  0
   16.2996   -8.6238  -11.6290 C   0  0  0  0  0  0  0  0  0  0  0  0
   17.2982   -8.8205  -10.8808 O   0  0  0  0  0  0  0  0  0  0  0  0
   12.8187   -7.0547   -8.5701 O   0  0  0  0  0  0  0  0  0  0  0  0
   16.5484   -8.3676  -13.0047 N   0  0  0  0  0  0  0  0  0  0  0  0
   15.5318   -8.1754  -14.0558 C   0  0  0  0  0  0  0  0  0  0  0  0
   16.3019   -8.6857  -15.2858 C   0  0  0  0  0  0  0  0  0  0  0  0
   17.6261   -8.0027  -15.0312 C   0  0  0  0  0  0  0  0  0  0  0  0
   17.8615   -8.2753  -13.5925 C   0  0  1  0  0  0  0  0  0  0  0  0
   18.7088   -7.2604  -12.9258 C   0  0  0  0  0  0  0  0  0  0  0  0
   18.1711   -6.1631  -12.6349 O   0  0  0  0  0  0  0  0  0  0  0  0
   21.8170   -6.9225  -10.9614 C   0  0  0  0  0  0  0  0  0  0  0  0
   20.8091   -6.3912  -11.9436 C   0  0  2  0  0  0  0  0  0  0  0  0
   20.0590   -7.4464  -12.6028 N   0  0  0  0  0  0  0  0  0  0  0  0
   21.5048   -5.5234  -12.9274 C   0  0  0  0  0  0  0  0  0  0  0  0
   21.6360   -5.9174  -14.1048 O   0  0  0  0  0  0  0  0  0  0  0  0
   21.9979   -4.2943  -12.5326 O   0  0  0  0  0  0  0  0  0  0  0  0
  2  1  1  1
  2  3  1  0
  3  4  1  0
  4  8  1  0
  5  4  2  0
  6  2  1  0
  7  6  2  0
  9 13  1  0
  9  6  1  0
 10  9  1  0
 11 12  1  0
 11 10  1  0
 12 13  1  0
 13 14  1  1
 14 18  1  0
 15 14  2  0
 17 16  1  1
 17 19  1  0
 18 17  1  0
 19 20  2  0
 19 21  1  0
M  END
$$$$
