DPA.pdb
     RDKit          3D

 21 21  0  0  1  0  0  0  0  0999 V2000
   17.4305  -11.4795  -15.1607 N   0  0  0  0  0  0  0  0  0  0  0  0
   17.9876  -10.6123  -16.1878 C   0  0  1  0  0  0  0  0  0  0  0  0
   16.9304   -9.6935  -16.7529 C   0  0  0  0  0  0  0  0  0  0  0  0
   15.8641  -10.4207  -17.4571 C   0  0  0  0  0  0  0  0  0  0  0  0
   16.1628  -11.1620  -18.4264 O   0  0  0  0  0  0  0  0  0  0  0  0
   19.0916   -9.8367  -15.5859 C   0  0  0  0  0  0  0  0  0  0  0  0
   18.9303   -9.2406  -14.4840 O   0  0  0  0  0  0  0  0  0  0  0  0
   14.5283  -10.3409  -17.1159 O   0  0  0  0  0  0  0  0  0  0  0  0
   20.3635   -9.7312  -16.2112 N   0  0  0  0  0  0  0  0  0  0  0  0
   20.7544  -10.3257  -17.5031 C   0  0  0  0  0  0  0  0  0  0  0  0
   22.2621  -10.5264  -17.2733 C   0  0  0  0  0  0  0  0  0  0  0  0
   22.5817   -9.1896  -16.6443 C   0  0  0  0  0  0  0  0  0  0  0  0
   21.4910   -9.0277  -15.6525 C   0  0  1  0  0  0  0  0  0  0  0  0
   21.1767   -7.6150  -15.3395 C   0  0  0  0  0  0  0  0  0  0  0  0
   20.2810   -7.0598  -16.0231 O   0  0  0  0  0  0  0  0  0  0  0  0
   21.7548   -4.9986  -12.7372 C   0  0  0  0  0  0  0  0  0  0  0  0
   21.4661   -5.4703  -14.1361 C   0  0  2  0  0  0  0  0  0  0  0  0
   21.8098   -6.8673  -14.3385 N   0  0  0  0  0  0  0  0  0  0  0  0
   22.1772   -4.5911  -15.0985 C   0  0  0  0  0  0  0  0  0  0  0  0
   21.8178   -3.4016  -15.2204 O   0  0  0  0  0  0  0  0  0  0  0  0
   23.2244   -5.0948  -15.8462 O   0  0  0  0  0  0  0  0  0  0  0  0
  2  1  1  1
  2  3  1  0
  3  4  1  0
  4  8  1  0
  5  4  2  0
  6  2  1  0
  7  6  2  0
  9 13  1  0
  9  6  1  0
 10  9  1  0
 11 12  1  0
 11 10  1  0
 12 13  1  0
 13 14  1  6
 14 18  1  0
 15 14  2  0
 17 16  1  1
 17 19  1  0
 18 17  1  0
 19 20  2  0
 19 21  1  0
M  END
$$$$
