DPA.pdb
     RDKit          3D

 21 21  0  0  1  0  0  0  0  0999 V2000
   15.2589  -12.2401  -13.6505 N   0  0  0  0  0  0  0  0  0  0  0  0
   15.3139  -10.8200  -13.9628 C   0  0  1  0  0  0  0  0  0  0  0  0
   13.9576  -10.3048  -14.3829 C   0  0  0  0  0  0  0  0  0  0  0  0
   13.5107  -10.8647  -15.6668 C   0  0  0  0  0  0  0  0  0  0  0  0
   12.3285  -11.2744  -15.7802 O   0  0  0  0  0  0  0  0  0  0  0  0
   15.8009  -10.1042  -12.7657 C   0  0  0  0  0  0  0  0  0  0  0  0
   15.3227  -10.3622  -11.6253 O   0  0  0  0  0  0  0  0  0  0  0  0
   14.3219  -10.9720  -16.7794 O   0  0  0  0  0  0  0  0  0  0  0  0
   16.8140   -9.1106  -12.8450 N   0  0  0  0  0  0  0  0  0  0  0  0
   17.5161   -8.6736  -14.0663 C   0  0  0  0  0  0  0  0  0  0  0  0
   18.8666   -8.2390  -13.4716 C   0  0  0  0  0  0  0  0  0  0  0  0
   18.3570   -7.4688  -12.2750 C   0  0  0  0  0  0  0  0  0  0  0  0
   17.3305   -8.3805  -11.7142 C   0  0  1  0  0  0  0  0  0  0  0  0
   16.2655   -7.6835  -10.9576 C   0  0  0  0  0  0  0  0  0  0  0  0
   15.2988   -7.2244  -11.6153 O   0  0  0  0  0  0  0  0  0  0  0  0
   15.0854   -7.0482   -7.4594 C   0  0  0  0  0  0  0  0  0  0  0  0
   15.2240   -6.7307   -8.9232 C   0  0  2  0  0  0  0  0  0  0  0  0
   16.2694   -7.5064   -9.5682 N   0  0  0  0  0  0  0  0  0  0  0  0
   15.4538   -5.2723   -9.0812 C   0  0  0  0  0  0  0  0  0  0  0  0
   16.5507   -4.8706   -9.5221 O   0  0  0  0  0  0  0  0  0  0  0  0
   14.4569   -4.3780   -8.7407 O   0  0  0  0  0  0  0  0  0  0  0  0
  2  1  1  1
  2  3  1  0
  3  4  1  0
  4  8  1  0
  5  4  2  0
  6  2  1  0
  7  6  2  0
  9 13  1  0
  9  6  1  0
 10  9  1  0
 11 12  1  0
 11 10  1  0
 12 13  1  0
 13 14  1  6
 14 18  1  0
 15 14  2  0
 17 16  1  1
 17 19  1  0
 18 17  1  0
 19 20  2  0
 19 21  1  0
M  END
$$$$
