MKT.pdb
     RDKit          3D

 25 24  0  0  1  0  0  0  0  0999 V2000
    8.1242  -11.7190   27.7449 C   0  0  0  0  0  0  0  0  0  0  0  0
    6.2915  -11.7258   27.7442 S   0  0  0  0  0  0  0  0  0  0  0  0
    5.7440  -13.2488   26.9214 C   0  0  0  0  0  0  0  0  0  0  0  0
    6.8827  -13.8561   26.1147 C   0  0  0  0  0  0  0  0  0  0  0  0
    6.3156  -15.0441   25.3828 C   0  0  2  0  0  0  0  0  0  0  0  0
    6.1880  -16.1508   26.3095 N   0  0  0  0  0  0  0  0  0  0  0  0
    7.1218  -15.4601   24.2305 C   0  0  0  0  0  0  0  0  0  0  0  0
    7.7409  -16.5524   24.1563 O   0  0  0  0  0  0  0  0  0  0  0  0
    7.2461  -14.6011   23.0850 N   0  0  0  0  0  0  0  0  0  0  0  0
    8.0202  -14.9951   21.9095 C   0  0  1  0  0  0  0  0  0  0  0  0
    7.9368  -13.9647   20.8213 C   0  0  0  0  0  0  0  0  0  0  0  0
    8.6738  -14.2618   19.5804 C   0  0  0  0  0  0  0  0  0  0  0  0
    8.0702  -13.6335   18.3616 C   0  0  0  0  0  0  0  0  0  0  0  0
    8.7592  -13.9352   17.0702 C   0  0  0  0  0  0  0  0  0  0  0  0
    8.1446  -13.4267   15.8930 N   0  0  0  0  0  0  0  0  0  0  0  0
    9.4170  -15.3237   22.2885 C   0  0  0  0  0  0  0  0  0  0  0  0
   10.1024  -14.4668   22.8895 O   0  0  0  0  0  0  0  0  0  0  0  0
   11.1550  -18.4549   24.1179 C   0  0  0  0  0  0  0  0  0  0  0  0
   11.6283  -18.3148   22.6694 C   0  0  1  0  0  0  0  0  0  0  0  0
   10.8454  -19.1429   21.8622 O   0  0  0  0  0  0  0  0  0  0  0  0
   11.4316  -16.8543   22.2951 C   0  0  2  0  0  0  0  0  0  0  0  0
   10.0390  -16.5682   22.0099 N   0  0  0  0  0  0  0  0  0  0  0  0
   12.2632  -16.6068   21.0846 C   0  0  0  0  0  0  0  0  0  0  0  0
   11.7480  -16.3340   19.9722 O   0  0  0  0  0  0  0  0  0  0  0  0
   13.6484  -16.6674   21.1355 O   0  0  0  0  0  0  0  0  0  0  0  0
  2  1  1  0
  3  2  1  0
  4  3  1  0
  5  7  1  0
  5  4  1  0
  5  6  1  1
  7  8  2  0
  9 10  1  0
  9  7  1  0
 10 11  1  6
 11 12  1  0
 12 13  1  0
 13 14  1  0
 15 14  1  0
 16 22  1  0
 16 10  1  0
 17 16  2  0
 19 18  1  1
 19 21  1  0
 20 19  1  0
 21 22  1  6
 23 21  1  0
 23 25  1  0
 24 23  2  0
M  END
$$$$
