MKT.pdb
     RDKit          3D

 25 24  0  0  1  0  0  0  0  0999 V2000
   13.8442  -14.6288   20.1839 C   0  0  0  0  0  0  0  0  0  0  0  0
   13.4515  -13.8412   18.5763 S   0  0  0  0  0  0  0  0  0  0  0  0
   11.6924  -14.1308   18.2332 C   0  0  0  0  0  0  0  0  0  0  0  0
   10.8720  -13.9901   19.5074 C   0  0  0  0  0  0  0  0  0  0  0  0
    9.4344  -14.2368   19.1318 C   0  0  2  0  0  0  0  0  0  0  0  0
    8.9625  -13.1303   18.3238 N   0  0  0  0  0  0  0  0  0  0  0  0
    8.5498  -14.4114   20.2885 C   0  0  0  0  0  0  0  0  0  0  0  0
    7.8834  -13.4848   20.8170 O   0  0  0  0  0  0  0  0  0  0  0  0
    8.3983  -15.7050   20.8962 N   0  0  0  0  0  0  0  0  0  0  0  0
    7.4617  -15.9327   21.9950 C   0  0  1  0  0  0  0  0  0  0  0  0
    6.9267  -17.3350   21.9841 C   0  0  0  0  0  0  0  0  0  0  0  0
    6.2028  -17.7503   20.7698 C   0  0  0  0  0  0  0  0  0  0  0  0
    5.8034  -19.1943   20.7762 C   0  0  0  0  0  0  0  0  0  0  0  0
    5.0182  -19.6531   19.5904 C   0  0  0  0  0  0  0  0  0  0  0  0
    4.6428  -21.0246   19.5741 N   0  0  0  0  0  0  0  0  0  0  0  0
    8.0765  -15.5587   23.2929 C   0  0  0  0  0  0  0  0  0  0  0  0
    9.2693  -15.8654   23.5125 O   0  0  0  0  0  0  0  0  0  0  0  0
    7.4300  -12.2011   25.5825 C   0  0  0  0  0  0  0  0  0  0  0  0
    7.1747  -13.5011   26.3484 C   0  0  1  0  0  0  0  0  0  0  0  0
    5.8059  -13.7759   26.3171 O   0  0  0  0  0  0  0  0  0  0  0  0
    7.9590  -14.5842   25.6249 C   0  0  2  0  0  0  0  0  0  0  0  0
    7.3891  -14.8631   24.3211 N   0  0  0  0  0  0  0  0  0  0  0  0
    7.8981  -15.8014   26.4811 C   0  0  0  0  0  0  0  0  0  0  0  0
    7.3150  -16.8476   26.1034 O   0  0  0  0  0  0  0  0  0  0  0  0
    8.4857  -15.8305   27.7375 O   0  0  0  0  0  0  0  0  0  0  0  0
  2  1  1  0
  3  2  1  0
  4  3  1  0
  5  7  1  0
  5  4  1  0
  5  6  1  1
  7  8  2  0
  9 10  1  0
  9  7  1  0
 10 11  1  1
 11 12  1  0
 12 13  1  0
 13 14  1  0
 15 14  1  0
 16 22  1  0
 16 10  1  0
 17 16  2  0
 19 18  1  6
 19 21  1  0
 20 19  1  0
 21 22  1  6
 23 21  1  0
 23 25  1  0
 24 23  2  0
M  END
$$$$
