MKT.pdb
     RDKit          3D

 25 24  0  0  1  0  0  0  0  0999 V2000
    7.8240  -11.6344   26.8118 C   0  0  0  0  0  0  0  0  0  0  0  0
    6.0821  -12.1979   26.7299 S   0  0  0  0  0  0  0  0  0  0  0  0
    6.0498  -13.9611   27.1615 C   0  0  0  0  0  0  0  0  0  0  0  0
    7.1433  -14.7113   26.4147 C   0  0  0  0  0  0  0  0  0  0  0  0
    6.5086  -15.2954   25.1800 C   0  0  2  0  0  0  0  0  0  0  0  0
    5.6575  -16.4025   25.5671 N   0  0  0  0  0  0  0  0  0  0  0  0
    7.4819  -15.7510   24.1821 C   0  0  0  0  0  0  0  0  0  0  0  0
    7.9819  -16.9048   24.1554 O   0  0  0  0  0  0  0  0  0  0  0  0
    7.9274  -14.8611   23.1451 N   0  0  0  0  0  0  0  0  0  0  0  0
    8.9574  -15.2540   22.1855 C   0  0  1  0  0  0  0  0  0  0  0  0
    9.1265  -14.2271   21.1040 C   0  0  0  0  0  0  0  0  0  0  0  0
    8.0128  -14.0930   20.1485 C   0  0  0  0  0  0  0  0  0  0  0  0
    8.4529  -13.7178   18.7663 C   0  0  0  0  0  0  0  0  0  0  0  0
    7.3552  -13.4845   17.7795 C   0  0  0  0  0  0  0  0  0  0  0  0
    7.7561  -13.1863   16.4481 N   0  0  0  0  0  0  0  0  0  0  0  0
   10.2280  -15.5736   22.8828 C   0  0  0  0  0  0  0  0  0  0  0  0
   10.7424  -14.7160   23.6344 O   0  0  0  0  0  0  0  0  0  0  0  0
   11.4720  -18.4855   25.2094 C   0  0  0  0  0  0  0  0  0  0  0  0
   12.2670  -18.4986   23.9019 C   0  0  1  0  0  0  0  0  0  0  0  0
   11.6649  -19.4011   23.0227 O   0  0  0  0  0  0  0  0  0  0  0  0
   12.2039  -17.0835   23.3494 C   0  0  2  0  0  0  0  0  0  0  0  0
   10.9113  -16.8103   22.7518 N   0  0  0  0  0  0  0  0  0  0  0  0
   13.2759  -16.9770   22.3210 C   0  0  0  0  0  0  0  0  0  0  0  0
   13.0172  -16.7176   21.1197 O   0  0  0  0  0  0  0  0  0  0  0  0
   14.6115  -17.1608   22.6486 O   0  0  0  0  0  0  0  0  0  0  0  0
  2  1  1  0
  3  2  1  0
  4  3  1  0
  5  7  1  0
  5  4  1  0
  5  6  1  1
  7  8  2  0
  9 10  1  0
  9  7  1  0
 10 11  1  6
 11 12  1  0
 12 13  1  0
 13 14  1  0
 15 14  1  0
 16 22  1  0
 16 10  1  0
 17 16  2  0
 19 18  1  1
 19 21  1  0
 20 19  1  0
 21 22  1  6
 23 21  1  0
 23 25  1  0
 24 23  2  0
M  END
$$$$
