MKT.pdb
     RDKit          3D

 25 24  0  0  1  0  0  0  0  0999 V2000
    7.0618  -11.3622   27.3502 C   0  0  0  0  0  0  0  0  0  0  0  0
    6.7329  -11.1034   25.5660 S   0  0  0  0  0  0  0  0  0  0  0  0
    5.9592  -12.6139   24.9210 C   0  0  0  0  0  0  0  0  0  0  0  0
    6.6874  -13.8465   25.4377 C   0  0  0  0  0  0  0  0  0  0  0  0
    7.4375  -14.4329   24.2706 C   0  0  2  0  0  0  0  0  0  0  0  0
    6.4843  -14.8754   23.2729 N   0  0  0  0  0  0  0  0  0  0  0  0
    8.3138  -15.5493   24.6405 C   0  0  0  0  0  0  0  0  0  0  0  0
    8.1000  -16.3285   25.6044 O   0  0  0  0  0  0  0  0  0  0  0  0
    9.5077  -15.8143   23.8856 N   0  0  0  0  0  0  0  0  0  0  0  0
   10.3812  -16.9431   24.2004 C   0  0  1  0  0  0  0  0  0  0  0  0
   11.2267  -17.3335   23.0234 C   0  0  0  0  0  0  0  0  0  0  0  0
   10.5216  -17.9535   21.8877 C   0  0  0  0  0  0  0  0  0  0  0  0
   11.4205  -18.2883   20.7367 C   0  0  0  0  0  0  0  0  0  0  0  0
   10.7478  -18.8868   19.5440 C   0  0  0  0  0  0  0  0  0  0  0  0
   11.5798  -19.1702   18.4261 N   0  0  0  0  0  0  0  0  0  0  0  0
   11.1809  -16.6623   25.4187 C   0  0  0  0  0  0  0  0  0  0  0  0
   12.0594  -15.7724   25.3786 O   0  0  0  0  0  0  0  0  0  0  0  0
   10.8852  -15.0594   28.5081 C   0  0  0  0  0  0  0  0  0  0  0  0
   11.1478  -16.5019   28.9464 C   0  0  1  0  0  0  0  0  0  0  0  0
    9.9214  -17.1271   29.1813 O   0  0  0  0  0  0  0  0  0  0  0  0
   11.8828  -17.1709   27.7957 C   0  0  2  0  0  0  0  0  0  0  0  0
   11.0128  -17.3483   26.6494 N   0  0  0  0  0  0  0  0  0  0  0  0
   12.3466  -18.4948   28.2959 C   0  0  0  0  0  0  0  0  0  0  0  0
   11.9518  -19.5712   27.7833 O   0  0  0  0  0  0  0  0  0  0  0  0
   13.2385  -18.5949   29.3539 O   0  0  0  0  0  0  0  0  0  0  0  0
  2  1  1  0
  3  2  1  0
  4  3  1  0
  5  7  1  0
  5  4  1  0
  5  6  1  6
  7  8  2  0
  9 10  1  0
  9  7  1  0
 10 11  1  6
 11 12  1  0
 12 13  1  0
 13 14  1  0
 15 14  1  0
 16 22  1  0
 16 10  1  0
 17 16  2  0
 19 18  1  6
 19 21  1  0
 20 19  1  0
 21 22  1  6
 23 21  1  0
 23 25  1  0
 24 23  2  0
M  END
$$$$
