MKT.pdb
     RDKit          3D

 25 24  0  0  1  0  0  0  0  0999 V2000
    8.4678  -11.5423   19.9874 C   0  0  0  0  0  0  0  0  0  0  0  0
    7.1375  -12.5549   19.2368 S   0  0  0  0  0  0  0  0  0  0  0  0
    7.5357  -14.3010   19.5353 C   0  0  0  0  0  0  0  0  0  0  0  0
    7.7618  -14.5484   21.0198 C   0  0  0  0  0  0  0  0  0  0  0  0
    8.0011  -16.0262   21.1858 C   0  0  2  0  0  0  0  0  0  0  0  0
    6.8304  -16.7469   20.7277 N   0  0  0  0  0  0  0  0  0  0  0  0
    8.3088  -16.4172   22.5654 C   0  0  0  0  0  0  0  0  0  0  0  0
    7.4680  -16.4359   23.5007 O   0  0  0  0  0  0  0  0  0  0  0  0
    9.6423  -16.8136   22.9261 N   0  0  0  0  0  0  0  0  0  0  0  0
    9.9783  -17.2322   24.2855 C   0  0  1  0  0  0  0  0  0  0  0  0
   11.0652  -18.2673   24.2930 C   0  0  0  0  0  0  0  0  0  0  0  0
   10.6302  -19.6730   24.3697 C   0  0  0  0  0  0  0  0  0  0  0  0
   10.0215  -20.1806   23.0982 C   0  0  0  0  0  0  0  0  0  0  0  0
    9.5856  -21.6100   23.1158 C   0  0  0  0  0  0  0  0  0  0  0  0
   10.6154  -22.5824   23.2418 N   0  0  0  0  0  0  0  0  0  0  0  0
   10.2950  -16.0554   25.1325 C   0  0  0  0  0  0  0  0  0  0  0  0
   11.2151  -15.2834   24.7826 O   0  0  0  0  0  0  0  0  0  0  0  0
    8.6281  -12.9578   26.0545 C   0  0  0  0  0  0  0  0  0  0  0  0
    8.8112  -13.6783   27.3921 C   0  0  1  0  0  0  0  0  0  0  0  0
    7.6373  -14.3744   27.6882 O   0  0  0  0  0  0  0  0  0  0  0  0
    9.9749  -14.6386   27.2042 C   0  0  2  0  0  0  0  0  0  0  0  0
    9.6111  -15.7410   26.3354 N   0  0  0  0  0  0  0  0  0  0  0  0
   10.3314  -15.1493   28.5571 C   0  0  0  0  0  0  0  0  0  0  0  0
   10.2250  -16.3648   28.8548 O   0  0  0  0  0  0  0  0  0  0  0  0
   10.7983  -14.2998   29.5496 O   0  0  0  0  0  0  0  0  0  0  0  0
  2  1  1  0
  3  2  1  0
  4  3  1  0
  5  7  1  0
  5  4  1  0
  5  6  1  1
  7  8  2  0
  9 10  1  0
  9  7  1  0
 10 11  1  6
 11 12  1  0
 12 13  1  0
 13 14  1  0
 15 14  1  0
 16 22  1  0
 16 10  1  0
 17 16  2  0
 19 18  1  6
 19 21  1  0
 20 19  1  0
 21 22  1  6
 23 21  1  0
 23 25  1  0
 24 23  2  0
M  END
$$$$
