MKT.pdb
     RDKit          3D

 25 24  0  0  1  0  0  0  0  0999 V2000
    8.6738  -11.5790   19.8146 C   0  0  0  0  0  0  0  0  0  0  0  0
    7.9654  -12.6366   18.4962 S   0  0  0  0  0  0  0  0  0  0  0  0
    8.2219  -14.3681   18.9780 C   0  0  0  0  0  0  0  0  0  0  0  0
    7.7257  -14.6041   20.3973 C   0  0  0  0  0  0  0  0  0  0  0  0
    8.0278  -16.0409   20.7333 C   0  0  2  0  0  0  0  0  0  0  0  0
    7.1160  -16.8972   20.0016 N   0  0  0  0  0  0  0  0  0  0  0  0
    7.9354  -16.3379   22.1665 C   0  0  0  0  0  0  0  0  0  0  0  0
    6.8539  -16.4421   22.8002 O   0  0  0  0  0  0  0  0  0  0  0  0
    9.1280  -16.5315   22.9449 N   0  0  0  0  0  0  0  0  0  0  0  0
    9.0848  -16.6460   24.4013 C   0  0  1  0  0  0  0  0  0  0  0  0
   10.1105  -17.6162   24.9106 C   0  0  0  0  0  0  0  0  0  0  0  0
   10.1835  -17.7845   26.3727 C   0  0  0  0  0  0  0  0  0  0  0  0
   11.2156  -18.7790   26.8092 C   0  0  0  0  0  0  0  0  0  0  0  0
   11.2330  -19.0936   28.2701 C   0  0  0  0  0  0  0  0  0  0  0  0
   12.1586  -20.0878   28.6907 N   0  0  0  0  0  0  0  0  0  0  0  0
    9.1899  -15.3081   25.0350 C   0  0  0  0  0  0  0  0  0  0  0  0
   10.1473  -14.5631   24.7293 O   0  0  0  0  0  0  0  0  0  0  0  0
    6.6036  -12.4211   25.3072 C   0  0  0  0  0  0  0  0  0  0  0  0
    7.0056  -12.8357   26.7243 C   0  0  1  0  0  0  0  0  0  0  0  0
    6.0551  -13.7346   27.2127 O   0  0  0  0  0  0  0  0  0  0  0  0
    8.3669  -13.5022   26.6044 C   0  0  2  0  0  0  0  0  0  0  0  0
    8.2595  -14.8075   25.9822 N   0  0  0  0  0  0  0  0  0  0  0  0
    8.9009  -13.6373   27.9882 C   0  0  0  0  0  0  0  0  0  0  0  0
    9.1375  -14.7597   28.4996 O   0  0  0  0  0  0  0  0  0  0  0  0
    9.1608  -12.5237   28.7737 O   0  0  0  0  0  0  0  0  0  0  0  0
  2  1  1  0
  3  2  1  0
  4  3  1  0
  5  7  1  0
  5  4  1  0
  5  6  1  6
  7  8  2  0
  9 10  1  0
  9  7  1  0
 10 11  1  1
 11 12  1  0
 12 13  1  0
 13 14  1  0
 15 14  1  0
 16 22  1  0
 16 10  1  0
 17 16  2  0
 19 18  1  6
 19 21  1  0
 20 19  1  0
 21 22  1  1
 23 21  1  0
 23 25  1  0
 24 23  2  0
M  END
$$$$
