MKT.pdb
     RDKit          3D

 25 24  0  0  1  0  0  0  0  0999 V2000
    8.4345  -11.3495   19.5956 C   0  0  0  0  0  0  0  0  0  0  0  0
    7.5559  -12.5558   18.5319 S   0  0  0  0  0  0  0  0  0  0  0  0
    7.8678  -14.2143   19.2015 C   0  0  0  0  0  0  0  0  0  0  0  0
    7.1836  -14.3802   20.5508 C   0  0  0  0  0  0  0  0  0  0  0  0
    7.6303  -15.7063   21.1080 C   0  0  2  0  0  0  0  0  0  0  0  0
    7.0267  -16.7704   20.3313 N   0  0  0  0  0  0  0  0  0  0  0  0
    7.2997  -15.8860   22.5255 C   0  0  0  0  0  0  0  0  0  0  0  0
    6.4375  -15.2099   23.1431 O   0  0  0  0  0  0  0  0  0  0  0  0
    7.9755  -16.8857   23.3061 N   0  0  0  0  0  0  0  0  0  0  0  0
    7.7152  -17.0506   24.7349 C   0  0  1  0  0  0  0  0  0  0  0  0
    8.0743  -18.4293   25.2072 C   0  0  0  0  0  0  0  0  0  0  0  0
    7.8867  -18.6989   26.6436 C   0  0  0  0  0  0  0  0  0  0  0  0
    8.1804  -20.1166   27.0291 C   0  0  0  0  0  0  0  0  0  0  0  0
    8.0031  -20.4428   28.4767 C   0  0  0  0  0  0  0  0  0  0  0  0
    8.1715  -21.8069   28.8416 N   0  0  0  0  0  0  0  0  0  0  0  0
    8.3834  -15.9798   25.5157 C   0  0  0  0  0  0  0  0  0  0  0  0
    9.5787  -15.7034   25.2710 O   0  0  0  0  0  0  0  0  0  0  0  0
    6.6534  -12.5409   26.6435 C   0  0  0  0  0  0  0  0  0  0  0  0
    7.3508  -13.1927   27.8396 C   0  0  1  0  0  0  0  0  0  0  0  0
    6.3971  -13.8841   28.5896 O   0  0  0  0  0  0  0  0  0  0  0  0
    8.3817  -14.1502   27.2633 C   0  0  2  0  0  0  0  0  0  0  0  0
    7.7453  -15.2343   26.5405 N   0  0  0  0  0  0  0  0  0  0  0  0
    9.1570  -14.6888   28.4152 C   0  0  0  0  0  0  0  0  0  0  0  0
    9.1809  -15.9160   28.6809 O   0  0  0  0  0  0  0  0  0  0  0  0
    9.8888  -13.8534   29.2468 O   0  0  0  0  0  0  0  0  0  0  0  0
  2  1  1  0
  3  2  1  0
  4  3  1  0
  5  7  1  0
  5  4  1  0
  5  6  1  6
  7  8  2  0
  9 10  1  0
  9  7  1  0
 10 11  1  1
 11 12  1  0
 12 13  1  0
 13 14  1  0
 15 14  1  0
 16 22  1  0
 16 10  1  0
 17 16  2  0
 19 18  1  6
 19 21  1  0
 20 19  1  0
 21 22  1  1
 23 21  1  0
 23 25  1  0
 24 23  2  0
M  END
$$$$
