MKT.pdb
     RDKit          3D

 25 24  0  0  1  0  0  0  0  0999 V2000
    7.6365  -11.4962   20.2712 C   0  0  0  0  0  0  0  0  0  0  0  0
    6.9910  -12.4961   18.8776 S   0  0  0  0  0  0  0  0  0  0  0  0
    7.9347  -14.0462   18.8249 C   0  0  0  0  0  0  0  0  0  0  0  0
    9.3004  -13.8594   19.4702 C   0  0  0  0  0  0  0  0  0  0  0  0
    9.9749  -15.2061   19.4650 C   0  0  2  0  0  0  0  0  0  0  0  0
    8.9632  -16.2395   19.5568 N   0  0  0  0  0  0  0  0  0  0  0  0
   10.9490  -15.3761   20.5481 C   0  0  0  0  0  0  0  0  0  0  0  0
   11.9665  -14.6538   20.7056 O   0  0  0  0  0  0  0  0  0  0  0  0
   10.7771  -16.4208   21.5200 N   0  0  0  0  0  0  0  0  0  0  0  0
   11.7343  -16.6257   22.6053 C   0  0  1  0  0  0  0  0  0  0  0  0
   11.2662  -17.6814   23.5640 C   0  0  0  0  0  0  0  0  0  0  0  0
   12.1551  -17.9726   24.7025 C   0  0  0  0  0  0  0  0  0  0  0  0
   11.5856  -18.9684   25.6662 C   0  0  0  0  0  0  0  0  0  0  0  0
   12.4352  -19.2746   26.8569 C   0  0  0  0  0  0  0  0  0  0  0  0
   12.4793  -18.2808   27.8732 N   0  0  0  0  0  0  0  0  0  0  0  0
   13.0895  -16.8963   22.0640 C   0  0  0  0  0  0  0  0  0  0  0  0
   13.3112  -17.9887   21.4960 O   0  0  0  0  0  0  0  0  0  0  0  0
   15.0132  -15.1485   19.5453 C   0  0  0  0  0  0  0  0  0  0  0  0
   15.9924  -15.1727   20.7211 C   0  0  1  0  0  0  0  0  0  0  0  0
   15.9620  -13.9275   21.3526 O   0  0  0  0  0  0  0  0  0  0  0  0
   15.5061  -16.2656   21.6596 C   0  0  2  0  0  0  0  0  0  0  0  0
   14.1710  -15.9818   22.1490 N   0  0  0  0  0  0  0  0  0  0  0  0
   16.4681  -16.3140   22.7955 C   0  0  0  0  0  0  0  0  0  0  0  0
   16.1049  -16.1056   23.9796 O   0  0  0  0  0  0  0  0  0  0  0  0
   17.8120  -16.5925   22.5922 O   0  0  0  0  0  0  0  0  0  0  0  0
  2  1  1  0
  3  2  1  0
  4  3  1  0
  5  7  1  0
  5  4  1  0
  5  6  1  1
  7  8  2  0
  9 10  1  0
  9  7  1  0
 10 11  1  6
 11 12  1  0
 12 13  1  0
 13 14  1  0
 15 14  1  0
 16 22  1  0
 16 10  1  0
 17 16  2  0
 19 18  1  6
 19 21  1  0
 20 19  1  0
 21 22  1  1
 23 21  1  0
 23 25  1  0
 24 23  2  0
M  END
$$$$
