MKT.pdb
     RDKit          3D

 25 24  0  0  1  0  0  0  0  0999 V2000
    7.0788  -11.0476   26.5813 C   0  0  0  0  0  0  0  0  0  0  0  0
    6.0088  -12.1317   27.6003 S   0  0  0  0  0  0  0  0  0  0  0  0
    6.6359  -13.8288   27.4488 C   0  0  0  0  0  0  0  0  0  0  0  0
    6.1453  -14.4634   26.1554 C   0  0  0  0  0  0  0  0  0  0  0  0
    7.1939  -15.4575   25.7304 C   0  0  2  0  0  0  0  0  0  0  0  0
    8.4917  -14.9926   26.1769 N   0  0  0  0  0  0  0  0  0  0  0  0
    7.2275  -15.6887   24.2825 C   0  0  0  0  0  0  0  0  0  0  0  0
    6.3361  -16.3031   23.6423 O   0  0  0  0  0  0  0  0  0  0  0  0
    8.3280  -15.2025   23.4963 N   0  0  0  0  0  0  0  0  0  0  0  0
    8.4839  -15.5612   22.0880 C   0  0  1  0  0  0  0  0  0  0  0  0
    8.2870  -14.3749   21.1899 C   0  0  0  0  0  0  0  0  0  0  0  0
    8.4112  -14.6217   19.7425 C   0  0  0  0  0  0  0  0  0  0  0  0
    8.2115  -13.3939   18.9074 C   0  0  0  0  0  0  0  0  0  0  0  0
    8.2651  -13.6022   17.4285 C   0  0  0  0  0  0  0  0  0  0  0  0
    8.1043  -12.4425   16.6215 N   0  0  0  0  0  0  0  0  0  0  0  0
    9.7804  -16.2476   21.8631 C   0  0  0  0  0  0  0  0  0  0  0  0
   10.8333  -15.7088   22.2707 O   0  0  0  0  0  0  0  0  0  0  0  0
   10.9733  -19.9739   22.5000 C   0  0  0  0  0  0  0  0  0  0  0  0
   11.0794  -19.6430   21.0096 C   0  0  1  0  0  0  0  0  0  0  0  0
    9.9281  -20.1036   20.3673 O   0  0  0  0  0  0  0  0  0  0  0  0
   11.1811  -18.1290   20.9144 C   0  0  2  0  0  0  0  0  0  0  0  0
    9.9083  -17.4978   21.2043 N   0  0  0  0  0  0  0  0  0  0  0  0
   11.6025  -17.8149   19.5209 C   0  0  0  0  0  0  0  0  0  0  0  0
   10.8483  -17.2049   18.7231 O   0  0  0  0  0  0  0  0  0  0  0  0
   12.8517  -18.1846   19.0436 O   0  0  0  0  0  0  0  0  0  0  0  0
  2  1  1  0
  3  2  1  0
  4  3  1  0
  5  7  1  0
  5  4  1  0
  5  6  1  6
  7  8  2  0
  9 10  1  0
  9  7  1  0
 10 11  1  6
 11 12  1  0
 12 13  1  0
 13 14  1  0
 15 14  1  0
 16 22  1  0
 16 10  1  0
 17 16  2  0
 19 18  1  1
 19 21  1  0
 20 19  1  0
 21 22  1  6
 23 21  1  0
 23 25  1  0
 24 23  2  0
M  END
$$$$
