QAP.pdb
     RDKit          3D

 22 22  0  0  1  0  0  0  0  0999 V2000
   13.1646  -14.9859   20.8253 N   0  0  0  0  0  0  0  0  0  0  0  0
   12.7469  -14.1261   19.7768 C   0  0  0  0  0  0  0  0  0  0  0  0
   13.6168  -13.5121   19.1125 O   0  0  0  0  0  0  0  0  0  0  0  0
   11.3139  -13.9350   19.4469 C   0  0  0  0  0  0  0  0  0  0  0  0
   10.4515  -14.7968   20.3339 C   0  0  0  0  0  0  0  0  0  0  0  0
    8.9953  -14.5264   19.9803 C   0  0  2  0  0  0  0  0  0  0  0  0
    8.8986  -13.4230   19.0586 N   0  0  0  0  0  0  0  0  0  0  0  0
    8.1767  -14.2518   21.1693 C   0  0  0  0  0  0  0  0  0  0  0  0
    7.7976  -13.0872   21.4355 O   0  0  0  0  0  0  0  0  0  0  0  0
    6.3893  -16.3775   23.6758 C   0  0  0  0  0  0  0  0  0  0  0  0
    7.0143  -15.0616   23.2562 C   0  0  2  0  0  0  0  0  0  0  0  0
    7.8019  -15.3018   22.0360 N   0  0  0  0  0  0  0  0  0  0  0  0
    7.9360  -14.6011   24.3214 C   0  0  0  0  0  0  0  0  0  0  0  0
    9.1701  -14.9153   24.2329 O   0  0  0  0  0  0  0  0  0  0  0  0
    7.5266  -13.8303   25.4379 N   0  0  0  0  0  0  0  0  0  0  0  0
    6.1652  -13.2971   25.6449 C   0  0  0  0  0  0  0  0  0  0  0  0
    6.4863  -11.9429   26.3145 C   0  0  0  0  0  0  0  0  0  0  0  0
    7.5384  -12.3926   27.2827 C   0  0  0  0  0  0  0  0  0  0  0  0
    8.3336  -13.4299   26.5469 C   0  0  1  0  0  0  0  0  0  0  0  0
    8.6709  -14.5790   27.4430 C   0  0  0  0  0  0  0  0  0  0  0  0
    9.6651  -14.3569   28.3856 O   0  0  0  0  0  0  0  0  0  0  0  0
    8.1309  -15.6892   27.3969 O   0  0  0  0  0  0  0  0  0  0  0  0
  2  3  2  0
  2  1  1  0
  4  2  1  0
  5  4  1  0
  6  5  1  0
  6  7  1  6
  8  6  1  0
  8  9  2  0
 11 10  1  1
 11 12  1  0
 12  8  1  0
 13 15  1  0
 13 11  1  0
 14 13  2  0
 15 16  1  0
 16 17  1  0
 18 19  1  0
 18 17  1  0
 19 15  1  0
 19 20  1  1
 20 22  2  0
 20 21  1  0
M  END
$$$$
