QAP.pdb
     RDKit          3D

 22 22  0  0  1  0  0  0  0  0999 V2000
    8.7354  -12.8984   16.8354 N   0  0  0  0  0  0  0  0  0  0  0  0
    8.4568  -14.2838   16.9624 C   0  0  0  0  0  0  0  0  0  0  0  0
    8.3970  -14.9883   15.9255 O   0  0  0  0  0  0  0  0  0  0  0  0
    8.2352  -14.9185   18.2841 C   0  0  0  0  0  0  0  0  0  0  0  0
    8.2211  -13.8745   19.3719 C   0  0  0  0  0  0  0  0  0  0  0  0
    8.8499  -14.4846   20.6174 C   0  0  2  0  0  0  0  0  0  0  0  0
    9.1781  -15.8688   20.3880 N   0  0  0  0  0  0  0  0  0  0  0  0
    7.9761  -14.3710   21.7933 C   0  0  0  0  0  0  0  0  0  0  0  0
    7.5153  -13.2610   22.1488 O   0  0  0  0  0  0  0  0  0  0  0  0
    6.6232  -16.8276   24.3045 C   0  0  0  0  0  0  0  0  0  0  0  0
    6.9714  -15.4225   23.8543 C   0  0  2  0  0  0  0  0  0  0  0  0
    7.6396  -15.5175   22.5460 N   0  0  0  0  0  0  0  0  0  0  0  0
    7.9236  -14.8257   24.8204 C   0  0  0  0  0  0  0  0  0  0  0  0
    9.1546  -15.1541   24.7401 O   0  0  0  0  0  0  0  0  0  0  0  0
    7.5468  -13.9090   25.8333 N   0  0  0  0  0  0  0  0  0  0  0  0
    6.1840  -13.3742   26.0264 C   0  0  0  0  0  0  0  0  0  0  0  0
    6.5031  -11.9325   26.4792 C   0  0  0  0  0  0  0  0  0  0  0  0
    7.6077  -12.2205   27.4507 C   0  0  0  0  0  0  0  0  0  0  0  0
    8.3931  -13.3397   26.8339 C   0  0  1  0  0  0  0  0  0  0  0  0
    8.7967  -14.3419   27.8681 C   0  0  0  0  0  0  0  0  0  0  0  0
    9.8454  -13.9812   28.7025 O   0  0  0  0  0  0  0  0  0  0  0  0
    8.2659  -15.4468   28.0220 O   0  0  0  0  0  0  0  0  0  0  0  0
  2  3  2  0
  2  1  1  0
  4  2  1  0
  5  4  1  0
  6  5  1  0
  6  7  1  6
  8  6  1  0
  8  9  2  0
 11 10  1  1
 11 12  1  0
 12  8  1  0
 13 15  1  0
 13 11  1  0
 14 13  2  0
 15 16  1  0
 16 17  1  0
 18 19  1  0
 18 17  1  0
 19 15  1  0
 19 20  1  1
 20 22  2  0
 20 21  1  0
M  END
$$$$
