QAP.pdb
     RDKit          3D

 22 22  0  0  1  0  0  0  0  0999 V2000
   14.5175  -19.6505   22.1643 N   0  0  0  0  0  0  0  0  0  0  0  0
   13.7290  -18.6970   21.4700 C   0  0  0  0  0  0  0  0  0  0  0  0
   14.2982  -17.8773   20.7090 O   0  0  0  0  0  0  0  0  0  0  0  0
   12.2547  -18.6442   21.6200 C   0  0  0  0  0  0  0  0  0  0  0  0
   11.8148  -17.2517   21.9953 C   0  0  0  0  0  0  0  0  0  0  0  0
   10.4699  -16.9884   21.3314 C   0  0  2  0  0  0  0  0  0  0  0  0
   10.6399  -16.7864   19.9148 N   0  0  0  0  0  0  0  0  0  0  0  0
    9.7783  -15.8317   21.9171 C   0  0  0  0  0  0  0  0  0  0  0  0
   10.3372  -14.7118   21.9816 O   0  0  0  0  0  0  0  0  0  0  0  0
    6.2661  -15.1885   23.0548 C   0  0  0  0  0  0  0  0  0  0  0  0
    7.7381  -14.8284   23.0094 C   0  0  2  0  0  0  0  0  0  0  0  0
    8.4652  -15.9644   22.4196 N   0  0  0  0  0  0  0  0  0  0  0  0
    8.2312  -14.6284   24.3926 C   0  0  0  0  0  0  0  0  0  0  0  0
    9.1756  -15.3768   24.8137 O   0  0  0  0  0  0  0  0  0  0  0  0
    7.7134  -13.6520   25.2796 N   0  0  0  0  0  0  0  0  0  0  0  0
    6.6258  -12.7069   24.9565 C   0  0  0  0  0  0  0  0  0  0  0  0
    7.0988  -11.4523   25.7231 C   0  0  0  0  0  0  0  0  0  0  0  0
    7.5102  -12.0951   27.0131 C   0  0  0  0  0  0  0  0  0  0  0  0
    8.1364  -13.4004   26.6210 C   0  0  1  0  0  0  0  0  0  0  0  0
    7.7246  -14.4924   27.5564 C   0  0  0  0  0  0  0  0  0  0  0  0
    6.6657  -15.2907   27.1468 O   0  0  0  0  0  0  0  0  0  0  0  0
    8.2572  -14.7226   28.6471 O   0  0  0  0  0  0  0  0  0  0  0  0
  2  3  2  0
  2  1  1  0
  4  2  1  0
  5  4  1  0
  6  5  1  0
  6  7  1  6
  8  6  1  0
  8  9  2  0
 11 10  1  1
 11 12  1  0
 12  8  1  0
 13 15  1  0
 13 11  1  0
 14 13  2  0
 15 16  1  0
 16 17  1  0
 18 19  1  0
 18 17  1  0
 19 15  1  0
 19 20  1  1
 20 22  2  0
 20 21  1  0
M  END
$$$$
