QAP.pdb
     RDKit          3D

 22 22  0  0  1  0  0  0  0  0999 V2000
    8.6709  -12.3095   17.8094 N   0  0  0  0  0  0  0  0  0  0  0  0
    9.3999  -13.4082   18.3333 C   0  0  0  0  0  0  0  0  0  0  0  0
   10.6541  -13.3613   18.3299 O   0  0  0  0  0  0  0  0  0  0  0  0
    8.7206  -14.6062   18.8829 C   0  0  0  0  0  0  0  0  0  0  0  0
    8.5753  -14.4871   20.3790 C   0  0  0  0  0  0  0  0  0  0  0  0
    7.5618  -15.5271   20.8373 C   0  0  2  0  0  0  0  0  0  0  0  0
    6.4275  -15.5490   19.9487 N   0  0  0  0  0  0  0  0  0  0  0  0
    7.1074  -15.2906   22.2146 C   0  0  0  0  0  0  0  0  0  0  0  0
    6.4795  -14.2487   22.5159 O   0  0  0  0  0  0  0  0  0  0  0  0
    6.6450  -17.4098   25.2119 C   0  0  0  0  0  0  0  0  0  0  0  0
    6.9228  -16.0444   24.6146 C   0  0  2  0  0  0  0  0  0  0  0  0
    7.3726  -16.2393   23.2265 N   0  0  0  0  0  0  0  0  0  0  0  0
    8.0199  -15.3977   25.3724 C   0  0  0  0  0  0  0  0  0  0  0  0
    9.2240  -15.6760   25.0525 O   0  0  0  0  0  0  0  0  0  0  0  0
    7.8107  -14.4856   26.4366 N   0  0  0  0  0  0  0  0  0  0  0  0
    6.4910  -14.0041   26.8916 C   0  0  0  0  0  0  0  0  0  0  0  0
    6.8320  -12.5457   27.2685 C   0  0  0  0  0  0  0  0  0  0  0  0
    8.1165  -12.7779   28.0053 C   0  0  0  0  0  0  0  0  0  0  0  0
    8.8120  -13.8713   27.2500 C   0  0  1  0  0  0  0  0  0  0  0  0
    9.4520  -14.8446   28.1881 C   0  0  0  0  0  0  0  0  0  0  0  0
   10.5908  -14.4078   28.8503 O   0  0  0  0  0  0  0  0  0  0  0  0
    9.0384  -15.9884   28.4053 O   0  0  0  0  0  0  0  0  0  0  0  0
  2  3  2  0
  2  1  1  0
  4  2  1  0
  5  4  1  0
  6  5  1  0
  6  7  1  6
  8  6  1  0
  8  9  2  0
 11 10  1  1
 11 12  1  0
 12  8  1  0
 13 15  1  0
 13 11  1  0
 14 13  2  0
 15 16  1  0
 16 17  1  0
 18 19  1  0
 18 17  1  0
 19 15  1  0
 19 20  1  1
 20 22  2  0
 20 21  1  0
M  END
$$$$
