QAP.pdb
     RDKit          3D

 22 22  0  0  1  0  0  0  0  0999 V2000
   12.6398  -15.5526   19.7669 N   0  0  0  0  0  0  0  0  0  0  0  0
   12.3233  -14.2514   20.2357 C   0  0  0  0  0  0  0  0  0  0  0  0
   13.2485  -13.5178   20.6609 O   0  0  0  0  0  0  0  0  0  0  0  0
   10.9323  -13.7378   20.2360 C   0  0  0  0  0  0  0  0  0  0  0  0
    9.9882  -14.7788   19.6899 C   0  0  0  0  0  0  0  0  0  0  0  0
    8.5941  -14.1684   19.6377 C   0  0  2  0  0  0  0  0  0  0  0  0
    8.6183  -12.9215   18.9159 N   0  0  0  0  0  0  0  0  0  0  0  0
    8.0311  -13.9540   20.9780 C   0  0  0  0  0  0  0  0  0  0  0  0
    8.0140  -12.8121   21.4945 O   0  0  0  0  0  0  0  0  0  0  0  0
    6.1039  -16.1319   23.3536 C   0  0  0  0  0  0  0  0  0  0  0  0
    6.8326  -14.8478   23.0095 C   0  0  2  0  0  0  0  0  0  0  0  0
    7.4973  -15.0374   21.7098 N   0  0  0  0  0  0  0  0  0  0  0  0
    7.8746  -14.5927   24.0319 C   0  0  0  0  0  0  0  0  0  0  0  0
    9.0472  -15.0556   23.8311 O   0  0  0  0  0  0  0  0  0  0  0  0
    7.6452  -13.8630   25.2249 N   0  0  0  0  0  0  0  0  0  0  0  0
    6.3820  -13.1809   25.5702 C   0  0  0  0  0  0  0  0  0  0  0  0
    6.9209  -11.9318   26.3013 C   0  0  0  0  0  0  0  0  0  0  0  0
    7.9684  -12.5812   27.1544 C   0  0  0  0  0  0  0  0  0  0  0  0
    8.5705  -13.6514   26.2930 C   0  0  1  0  0  0  0  0  0  0  0  0
    8.8149  -14.8978   27.0827 C   0  0  0  0  0  0  0  0  0  0  0  0
    7.9262  -15.9439   26.8776 O   0  0  0  0  0  0  0  0  0  0  0  0
    9.7388  -15.0502   27.8886 O   0  0  0  0  0  0  0  0  0  0  0  0
  2  3  2  0
  2  1  1  0
  4  2  1  0
  5  4  1  0
  6  5  1  0
  6  7  1  1
  8  6  1  0
  8  9  2  0
 11 10  1  1
 11 12  1  0
 12  8  1  0
 13 15  1  0
 13 11  1  0
 14 13  2  0
 15 16  1  0
 16 17  1  0
 18 19  1  0
 18 17  1  0
 19 15  1  0
 19 20  1  1
 20 22  2  0
 20 21  1  0
M  END
$$$$
