QAP.pdb
     RDKit          3D

 22 22  0  0  1  0  0  0  0  0999 V2000
   12.6950  -15.5560   20.0451 N   0  0  0  0  0  0  0  0  0  0  0  0
   12.3879  -14.1708   20.0367 C   0  0  0  0  0  0  0  0  0  0  0  0
   13.3290  -13.3405   20.0459 O   0  0  0  0  0  0  0  0  0  0  0  0
   10.9886  -13.6807   20.0174 C   0  0  0  0  0  0  0  0  0  0  0  0
   10.0286  -14.8378   19.9042 C   0  0  0  0  0  0  0  0  0  0  0  0
    8.6188  -14.2712   19.8033 C   0  0  2  0  0  0  0  0  0  0  0  0
    8.6324  -13.0119   19.1029 N   0  0  0  0  0  0  0  0  0  0  0  0
    7.9942  -14.0978   21.1220 C   0  0  0  0  0  0  0  0  0  0  0  0
    7.8384  -12.9566   21.6161 O   0  0  0  0  0  0  0  0  0  0  0  0
    6.2470  -16.4318   23.4888 C   0  0  0  0  0  0  0  0  0  0  0  0
    6.8477  -15.0841   23.1408 C   0  0  2  0  0  0  0  0  0  0  0  0
    7.5568  -15.2209   21.8580 N   0  0  0  0  0  0  0  0  0  0  0  0
    7.8354  -14.7104   24.1805 C   0  0  0  0  0  0  0  0  0  0  0  0
    9.0361  -15.1246   24.0530 O   0  0  0  0  0  0  0  0  0  0  0  0
    7.5244  -13.9179   25.3133 N   0  0  0  0  0  0  0  0  0  0  0  0
    6.2541  -13.1927   25.5160 C   0  0  0  0  0  0  0  0  0  0  0  0
    6.7607  -11.9207   26.2306 C   0  0  0  0  0  0  0  0  0  0  0  0
    7.7153  -12.5492   27.2004 C   0  0  0  0  0  0  0  0  0  0  0  0
    8.3608  -13.6733   26.4457 C   0  0  1  0  0  0  0  0  0  0  0  0
    8.5056  -14.8840   27.3118 C   0  0  0  0  0  0  0  0  0  0  0  0
    9.5221  -14.8506   28.2562 O   0  0  0  0  0  0  0  0  0  0  0  0
    7.7920  -15.8899   27.2400 O   0  0  0  0  0  0  0  0  0  0  0  0
  2  3  2  0
  2  1  1  0
  4  2  1  0
  5  4  1  0
  6  5  1  0
  6  7  1  1
  8  6  1  0
  8  9  2  0
 11 10  1  1
 11 12  1  0
 12  8  1  0
 13 15  1  0
 13 11  1  0
 14 13  2  0
 15 16  1  0
 16 17  1  0
 18 19  1  0
 18 17  1  0
 19 15  1  0
 19 20  1  1
 20 22  2  0
 20 21  1  0
M  END
$$$$
