QAP.pdb
     RDKit          3D

 22 22  0  0  1  0  0  0  0  0999 V2000
    9.5193  -20.8518   17.9261 N   0  0  0  0  0  0  0  0  0  0  0  0
    8.7228  -19.8424   17.3264 C   0  0  0  0  0  0  0  0  0  0  0  0
    7.5104  -20.0783   17.1038 O   0  0  0  0  0  0  0  0  0  0  0  0
    9.2839  -18.5204   16.9571 C   0  0  0  0  0  0  0  0  0  0  0  0
    8.1889  -17.5996   16.4815 C   0  0  0  0  0  0  0  0  0  0  0  0
    8.7605  -16.1905   16.4027 C   0  0  2  0  0  0  0  0  0  0  0  0
   10.0333  -16.2016   15.7272 N   0  0  0  0  0  0  0  0  0  0  0  0
    8.9092  -15.5763   17.7293 C   0  0  0  0  0  0  0  0  0  0  0  0
    9.9548  -15.7390   18.4010 O   0  0  0  0  0  0  0  0  0  0  0  0
    6.7515  -13.2948   19.8076 C   0  0  0  0  0  0  0  0  0  0  0  0
    7.9870  -14.1462   19.5913 C   0  0  2  0  0  0  0  0  0  0  0  0
    7.8704  -14.7884   18.2718 N   0  0  0  0  0  0  0  0  0  0  0  0
    8.0304  -15.2088   20.6233 C   0  0  0  0  0  0  0  0  0  0  0  0
    7.7463  -16.4037   20.2757 O   0  0  0  0  0  0  0  0  0  0  0  0
    8.3691  -14.9758   21.9795 N   0  0  0  0  0  0  0  0  0  0  0  0
    8.7984  -13.6760   22.5334 C   0  0  0  0  0  0  0  0  0  0  0  0
    9.8387  -14.1384   23.5771 C   0  0  0  0  0  0  0  0  0  0  0  0
    9.0827  -15.2805   24.1860 C   0  0  0  0  0  0  0  0  0  0  0  0
    8.3626  -15.9309   23.0422 C   0  0  1  0  0  0  0  0  0  0  0  0
    6.9751  -16.3237   23.4390 C   0  0  0  0  0  0  0  0  0  0  0  0
    6.8496  -17.4974   24.1689 O   0  0  0  0  0  0  0  0  0  0  0  0
    5.9561  -15.6818   23.1632 O   0  0  0  0  0  0  0  0  0  0  0  0
  2  3  2  0
  2  1  1  0
  4  2  1  0
  5  4  1  0
  6  5  1  0
  6  7  1  1
  8  6  1  0
  8  9  2  0
 11 10  1  1
 11 12  1  0
 12  8  1  0
 13 15  1  0
 13 11  1  0
 14 13  2  0
 15 16  1  0
 16 17  1  0
 18 19  1  0
 18 17  1  0
 19 15  1  0
 19 20  1  1
 20 22  2  0
 20 21  1  0
M  END
$$$$
