QAP.pdb
     RDKit          3D

 22 22  0  0  1  0  0  0  0  0999 V2000
   11.1715  -13.8728   20.8519 N   0  0  0  0  0  0  0  0  0  0  0  0
   11.1221  -13.6291   19.4551 C   0  0  0  0  0  0  0  0  0  0  0  0
   12.1603  -13.8028   18.7717 O   0  0  0  0  0  0  0  0  0  0  0  0
    9.8798  -13.1760   18.7842 C   0  0  0  0  0  0  0  0  0  0  0  0
    8.7245  -13.1914   19.7530 C   0  0  0  0  0  0  0  0  0  0  0  0
    8.3596  -14.6442   20.0267 C   0  0  2  0  0  0  0  0  0  0  0  0
    7.6505  -15.2042   18.9042 N   0  0  0  0  0  0  0  0  0  0  0  0
    7.5539  -14.7942   21.2464 C   0  0  0  0  0  0  0  0  0  0  0  0
    6.3339  -14.5074   21.2519 O   0  0  0  0  0  0  0  0  0  0  0  0
    7.1352  -16.7418   24.0655 C   0  0  0  0  0  0  0  0  0  0  0  0
    7.4115  -15.2930   23.7149 C   0  0  2  0  0  0  0  0  0  0  0  0
    8.1449  -15.2667   22.4388 N   0  0  0  0  0  0  0  0  0  0  0  0
    8.2763  -14.6975   24.7606 C   0  0  0  0  0  0  0  0  0  0  0  0
    9.5209  -14.9812   24.7521 O   0  0  0  0  0  0  0  0  0  0  0  0
    7.8014  -13.8288   25.7745 N   0  0  0  0  0  0  0  0  0  0  0  0
    6.4005  -13.3855   25.9215 C   0  0  0  0  0  0  0  0  0  0  0  0
    6.6082  -11.9368   26.4148 C   0  0  0  0  0  0  0  0  0  0  0  0
    7.6893  -12.1756   27.4253 C   0  0  0  0  0  0  0  0  0  0  0  0
    8.5688  -13.2291   26.8200 C   0  0  1  0  0  0  0  0  0  0  0  0
    8.9942  -14.2261   27.8505 C   0  0  0  0  0  0  0  0  0  0  0  0
    8.3250  -15.4420   27.8476 O   0  0  0  0  0  0  0  0  0  0  0  0
    9.8850  -14.0383   28.6857 O   0  0  0  0  0  0  0  0  0  0  0  0
  2  3  2  0
  2  1  1  0
  4  2  1  0
  5  4  1  0
  6  5  1  0
  6  7  1  6
  8  6  1  0
  8  9  2  0
 11 10  1  1
 11 12  1  0
 12  8  1  0
 13 15  1  0
 13 11  1  0
 14 13  2  0
 15 16  1  0
 16 17  1  0
 18 19  1  0
 18 17  1  0
 19 15  1  0
 19 20  1  1
 20 22  2  0
 20 21  1  0
M  END
$$$$
