GWK.pdb
     RDKit          3D

 28 29  0  0  1  0  0  0  0  0999 V2000
   27.6556  -24.1827  -16.2825 N   0  0  0  0  0  0  0  0  0  0  0  0
   27.5403  -22.7850  -15.9764 C   0  0  0  0  0  0  0  0  0  0  0  0
   26.7504  -22.6648  -14.7033 C   0  0  0  0  0  0  0  0  0  0  0  0
   26.0784  -23.6352  -14.2611 O   0  0  0  0  0  0  0  0  0  0  0  0
   26.7205  -21.4754  -13.9470 N   0  0  0  0  0  0  0  0  0  0  0  0
   25.9454  -21.2780  -12.7638 C   0  0  1  0  0  0  0  0  0  0  0  0
   26.4549  -20.2780  -11.7965 C   0  0  0  0  0  0  0  0  0  0  0  0
   27.5763  -20.7066  -10.9435 C   0  0  0  0  0  0  0  0  0  0  0  0
   28.8034  -21.2247  -11.2775 C   0  0  0  0  0  0  0  0  0  0  0  0
   29.4759  -21.4672  -10.1169 N   0  0  0  0  0  0  0  0  0  0  0  0
   28.7169  -21.1209   -9.0693 C   0  0  0  0  0  0  0  0  0  0  0  0
   28.9225  -21.1655   -7.7030 C   0  0  0  0  0  0  0  0  0  0  0  0
   27.9583  -20.7405   -6.8048 C   0  0  0  0  0  0  0  0  0  0  0  0
   26.7721  -20.2646   -7.2853 C   0  0  0  0  0  0  0  0  0  0  0  0
   26.5677  -20.2202   -8.6426 C   0  0  0  0  0  0  0  0  0  0  0  0
   27.5152  -20.6391   -9.5674 C   0  0  0  0  0  0  0  0  0  0  0  0
   24.5518  -20.8297  -13.1221 C   0  0  0  0  0  0  0  0  0  0  0  0
   24.4310  -20.0206  -14.0606 O   0  0  0  0  0  0  0  0  0  0  0  0
   23.4579  -21.3177  -12.4137 N   0  0  0  0  0  0  0  0  0  0  0  0
   22.1021  -21.0047  -12.9049 C   0  0  1  0  0  0  0  0  0  0  0  0
   21.1861  -22.1414  -12.4930 C   0  0  0  0  0  0  0  0  0  0  0  0
   19.7615  -21.9294  -12.8935 C   0  0  0  0  0  0  0  0  0  0  0  0
   18.9248  -23.1263  -12.5116 C   0  0  0  0  0  0  0  0  0  0  0  0
   17.4874  -23.0238  -12.9204 C   0  0  0  0  0  0  0  0  0  0  0  0
   16.8368  -24.3101  -12.6232 N   0  0  0  0  0  0  0  0  0  0  0  0
   21.7500  -19.7182  -12.2701 C   0  0  0  0  0  0  0  0  0  0  0  0
   20.9105  -18.7832  -12.8506 O   0  0  0  0  0  0  0  0  0  0  0  0
   22.2267  -19.4410  -11.1471 O   0  0  0  0  0  0  0  0  0  0  0  0
  1  2  1  0
  3  4  2  0
  3  2  1  0
  5  3  1  0
  6  5  1  0
  6  7  1  1
  8 16  1  0
  8  7  1  0
  9  8  2  0
 10  9  1  0
 10 11  1  0
 11 16  2  0
 12 11  1  0
 12 13  2  0
 13 14  1  0
 14 15  2  0
 16 15  1  0
 17 18  2  0
 17  6  1  0
 19 17  1  0
 20 21  1  1
 20 19  1  0
 22 23  1  0
 22 21  1  0
 24 23  1  0
 24 25  1  0
 26 20  1  0
 27 26  1  0
 28 26  2  0
M  END
$$$$
