GWK.pdb
     RDKit          3D

 28 29  0  0  1  0  0  0  0  0999 V2000
   22.0539  -20.6127   -7.5898 N   0  0  0  0  0  0  0  0  0  0  0  0
   23.3275  -21.0723   -8.0666 C   0  0  0  0  0  0  0  0  0  0  0  0
   23.3669  -20.8353   -9.5504 C   0  0  0  0  0  0  0  0  0  0  0  0
   22.4747  -20.1542  -10.1238 O   0  0  0  0  0  0  0  0  0  0  0  0
   24.3911  -21.3557  -10.3675 N   0  0  0  0  0  0  0  0  0  0  0  0
   24.5049  -21.1379  -11.7744 C   0  0  1  0  0  0  0  0  0  0  0  0
   25.8049  -21.4831  -12.3958 C   0  0  0  0  0  0  0  0  0  0  0  0
   25.9266  -21.2270  -13.8409 C   0  0  0  0  0  0  0  0  0  0  0  0
   26.0783  -20.0476  -14.5279 C   0  0  0  0  0  0  0  0  0  0  0  0
   26.1326  -20.3506  -15.8558 N   0  0  0  0  0  0  0  0  0  0  0  0
   26.0205  -21.6741  -16.0264 C   0  0  0  0  0  0  0  0  0  0  0  0
   26.0140  -22.4807  -17.1491 C   0  0  0  0  0  0  0  0  0  0  0  0
   25.8797  -23.8558  -17.0601 C   0  0  0  0  0  0  0  0  0  0  0  0
   25.7502  -24.4282  -15.8271 C   0  0  0  0  0  0  0  0  0  0  0  0
   25.7567  -23.6271  -14.7118 C   0  0  0  0  0  0  0  0  0  0  0  0
   25.8896  -22.2460  -14.7694 C   0  0  0  0  0  0  0  0  0  0  0  0
   23.4693  -21.9466  -12.5127 C   0  0  0  0  0  0  0  0  0  0  0  0
   23.2608  -23.1098  -12.1210 O   0  0  0  0  0  0  0  0  0  0  0  0
   22.7860  -21.3893  -13.5892 N   0  0  0  0  0  0  0  0  0  0  0  0
   21.6989  -22.1672  -14.2144 C   0  0  1  0  0  0  0  0  0  0  0  0
   20.3976  -21.4288  -13.9643 C   0  0  0  0  0  0  0  0  0  0  0  0
   19.2134  -22.0827  -14.6005 C   0  0  0  0  0  0  0  0  0  0  0  0
   17.9619  -21.2853  -14.3248 C   0  0  0  0  0  0  0  0  0  0  0  0
   16.7252  -21.8503  -14.9535 C   0  0  0  0  0  0  0  0  0  0  0  0
   15.6226  -20.9038  -14.7199 N   0  0  0  0  0  0  0  0  0  0  0  0
   22.0549  -22.2445  -15.6459 C   0  0  0  0  0  0  0  0  0  0  0  0
   21.9621  -23.4044  -16.3957 O   0  0  0  0  0  0  0  0  0  0  0  0
   22.4643  -21.2164  -16.2295 O   0  0  0  0  0  0  0  0  0  0  0  0
  1  2  1  0
  3  4  2  0
  3  2  1  0
  5  3  1  0
  6  5  1  0
  6  7  1  6
  8 16  1  0
  8  7  1  0
  9  8  2  0
 10  9  1  0
 10 11  1  0
 11 16  2  0
 12 11  1  0
 12 13  2  0
 13 14  1  0
 14 15  2  0
 16 15  1  0
 17 18  2  0
 17  6  1  0
 19 17  1  0
 20 21  1  6
 20 19  1  0
 22 23  1  0
 22 21  1  0
 24 23  1  0
 24 25  1  0
 26 20  1  0
 27 26  1  0
 28 26  2  0
M  END
$$$$
