GWK.pdb
     RDKit          3D

 28 29  0  0  1  0  0  0  0  0999 V2000
   28.8250  -23.1152  -16.8522 N   0  0  0  0  0  0  0  0  0  0  0  0
   28.7015  -21.7986  -16.2938 C   0  0  0  0  0  0  0  0  0  0  0  0
   27.7831  -21.8949  -15.1078 C   0  0  0  0  0  0  0  0  0  0  0  0
   26.9383  -22.8257  -15.0137 O   0  0  0  0  0  0  0  0  0  0  0  0
   27.8186  -20.9612  -14.0521 N   0  0  0  0  0  0  0  0  0  0  0  0
   26.9975  -21.0151  -12.8848 C   0  0  1  0  0  0  0  0  0  0  0  0
   27.4089  -20.1628  -11.7448 C   0  0  0  0  0  0  0  0  0  0  0  0
   26.6329  -20.3145  -10.5024 C   0  0  0  0  0  0  0  0  0  0  0  0
   25.2763  -20.3852  -10.3014 C   0  0  0  0  0  0  0  0  0  0  0  0
   25.0666  -20.5155   -8.9608 N   0  0  0  0  0  0  0  0  0  0  0  0
   26.2397  -20.5290   -8.3151 C   0  0  0  0  0  0  0  0  0  0  0  0
   26.5767  -20.6364   -6.9786 C   0  0  0  0  0  0  0  0  0  0  0  0
   27.8945  -20.6228   -6.5541 C   0  0  0  0  0  0  0  0  0  0  0  0
   28.8867  -20.4996   -7.4841 C   0  0  0  0  0  0  0  0  0  0  0  0
   28.5520  -20.3930   -8.8117 C   0  0  0  0  0  0  0  0  0  0  0  0
   27.2404  -20.4035   -9.2675 C   0  0  0  0  0  0  0  0  0  0  0  0
   25.5876  -20.6007  -13.2194 C   0  0  0  0  0  0  0  0  0  0  0  0
   25.4329  -19.5268  -13.8300 O   0  0  0  0  0  0  0  0  0  0  0  0
   24.5163  -21.4074  -12.8477 N   0  0  0  0  0  0  0  0  0  0  0  0
   23.2276  -21.2353  -13.5457 C   0  0  1  0  0  0  0  0  0  0  0  0
   22.7982  -22.5934  -14.0675 C   0  0  0  0  0  0  0  0  0  0  0  0
   21.4584  -22.5771  -14.7304 C   0  0  0  0  0  0  0  0  0  0  0  0
   21.0958  -23.9594  -15.2162 C   0  0  0  0  0  0  0  0  0  0  0  0
   19.7761  -24.0340  -15.9208 C   0  0  0  0  0  0  0  0  0  0  0  0
   19.5303  -25.4402  -16.2792 N   0  0  0  0  0  0  0  0  0  0  0  0
   22.3079  -20.6892  -12.5270 C   0  0  0  0  0  0  0  0  0  0  0  0
   21.3677  -19.7085  -12.7923 O   0  0  0  0  0  0  0  0  0  0  0  0
   22.3670  -21.1240  -11.3554 O   0  0  0  0  0  0  0  0  0  0  0  0
  1  2  1  0
  3  4  2  0
  3  2  1  0
  5  3  1  0
  6  5  1  0
  6  7  1  1
  8 16  1  0
  8  7  1  0
  9  8  2  0
 10  9  1  0
 10 11  1  0
 11 16  2  0
 12 11  1  0
 12 13  2  0
 13 14  1  0
 14 15  2  0
 16 15  1  0
 17 18  2  0
 17  6  1  0
 19 17  1  0
 20 21  1  1
 20 19  1  0
 22 23  1  0
 22 21  1  0
 24 23  1  0
 24 25  1  0
 26 20  1  0
 27 26  1  0
 28 26  2  0
M  END
$$$$
