GWK.pdb
     RDKit          3D

 28 29  0  0  1  0  0  0  0  0999 V2000
   27.7065  -23.0687  -15.6509 N   0  0  0  0  0  0  0  0  0  0  0  0
   27.4768  -21.7662  -15.0928 C   0  0  0  0  0  0  0  0  0  0  0  0
   26.6670  -21.9479  -13.8396 C   0  0  0  0  0  0  0  0  0  0  0  0
   25.9714  -22.9835  -13.6595 O   0  0  0  0  0  0  0  0  0  0  0  0
   26.6438  -20.9816  -12.8133 N   0  0  0  0  0  0  0  0  0  0  0  0
   25.7711  -21.0098  -11.6832 C   0  0  1  0  0  0  0  0  0  0  0  0
   26.2190  -20.2690  -10.4808 C   0  0  0  0  0  0  0  0  0  0  0  0
   27.4923  -20.7040   -9.8821 C   0  0  0  0  0  0  0  0  0  0  0  0
   28.5358  -21.4138  -10.4236 C   0  0  0  0  0  0  0  0  0  0  0  0
   29.4776  -21.5654   -9.4500 N   0  0  0  0  0  0  0  0  0  0  0  0
   29.0638  -20.9779   -8.3200 C   0  0  0  0  0  0  0  0  0  0  0  0
   29.6303  -20.8470   -7.0657 C   0  0  0  0  0  0  0  0  0  0  0  0
   28.9854  -20.1786   -6.0389 C   0  0  0  0  0  0  0  0  0  0  0  0
   27.7554  -19.6346   -6.2750 C   0  0  0  0  0  0  0  0  0  0  0  0
   27.1926  -19.7645   -7.5210 C   0  0  0  0  0  0  0  0  0  0  0  0
   27.8147  -20.4287   -8.5698 C   0  0  0  0  0  0  0  0  0  0  0  0
   24.4285  -20.4295  -12.0465 C   0  0  0  0  0  0  0  0  0  0  0  0
   24.3978  -19.2449  -12.4285 O   0  0  0  0  0  0  0  0  0  0  0  0
   23.2810  -21.2109  -11.9496 N   0  0  0  0  0  0  0  0  0  0  0  0
   22.0201  -20.6858  -12.5081 C   0  0  1  0  0  0  0  0  0  0  0  0
   21.7652  -21.3959  -13.8241 C   0  0  0  0  0  0  0  0  0  0  0  0
   21.4119  -22.8392  -13.6601 C   0  0  0  0  0  0  0  0  0  0  0  0
   21.1101  -23.4619  -15.0016 C   0  0  0  0  0  0  0  0  0  0  0  0
   20.6715  -24.8922  -14.9276 C   0  0  0  0  0  0  0  0  0  0  0  0
   20.3577  -25.3432  -16.2931 N   0  0  0  0  0  0  0  0  0  0  0  0
   20.9951  -20.9768  -11.4851 C   0  0  0  0  0  0  0  0  0  0  0  0
   21.2373  -21.7376  -10.3543 O   0  0  0  0  0  0  0  0  0  0  0  0
   19.8398  -20.5195  -11.6312 O   0  0  0  0  0  0  0  0  0  0  0  0
  1  2  1  0
  3  4  2  0
  3  2  1  0
  5  3  1  0
  6  5  1  0
  6  7  1  1
  8 16  1  0
  8  7  1  0
  9  8  2  0
 10  9  1  0
 10 11  1  0
 11 16  2  0
 12 11  1  0
 12 13  2  0
 13 14  1  0
 14 15  2  0
 16 15  1  0
 17 18  2  0
 17  6  1  0
 19 17  1  0
 20 21  1  6
 20 19  1  0
 22 23  1  0
 22 21  1  0
 24 23  1  0
 24 25  1  0
 26 20  1  0
 27 26  1  0
 28 26  2  0
M  END
$$$$
