GWK.pdb
     RDKit          3D

 28 29  0  0  1  0  0  0  0  0999 V2000
   28.6961  -21.5720  -15.6051 N   0  0  0  0  0  0  0  0  0  0  0  0
   28.1024  -20.5319  -14.8136 C   0  0  0  0  0  0  0  0  0  0  0  0
   27.1457  -21.1837  -13.8548 C   0  0  0  0  0  0  0  0  0  0  0  0
   26.7439  -22.3641  -14.0392 O   0  0  0  0  0  0  0  0  0  0  0  0
   26.6545  -20.5172  -12.7138 N   0  0  0  0  0  0  0  0  0  0  0  0
   25.7275  -21.0710  -11.7791 C   0  0  1  0  0  0  0  0  0  0  0  0
   25.9111  -20.6913  -10.3588 C   0  0  0  0  0  0  0  0  0  0  0  0
   27.2359  -20.9636   -9.7759 C   0  0  0  0  0  0  0  0  0  0  0  0
   28.3135  -21.6428  -10.2892 C   0  0  0  0  0  0  0  0  0  0  0  0
   29.2984  -21.6211   -9.3472 N   0  0  0  0  0  0  0  0  0  0  0  0
   28.8789  -20.9547   -8.2641 C   0  0  0  0  0  0  0  0  0  0  0  0
   29.4770  -20.6531   -7.0547 C   0  0  0  0  0  0  0  0  0  0  0  0
   28.8170  -19.9347   -6.0722 C   0  0  0  0  0  0  0  0  0  0  0  0
   27.5395  -19.5139   -6.3074 C   0  0  0  0  0  0  0  0  0  0  0  0
   26.9452  -19.8134   -7.5087 C   0  0  0  0  0  0  0  0  0  0  0  0
   27.5814  -20.5316   -8.5126 C   0  0  0  0  0  0  0  0  0  0  0  0
   24.3211  -20.6621  -12.1349 C   0  0  0  0  0  0  0  0  0  0  0  0
   24.1043  -19.4508  -12.3237 O   0  0  0  0  0  0  0  0  0  0  0  0
   23.3207  -21.6235  -12.2417 N   0  0  0  0  0  0  0  0  0  0  0  0
   22.0368  -21.2406  -12.8601 C   0  0  1  0  0  0  0  0  0  0  0  0
   21.4126  -22.4930  -13.4455 C   0  0  0  0  0  0  0  0  0  0  0  0
   20.1111  -22.2395  -14.1360 C   0  0  0  0  0  0  0  0  0  0  0  0
   19.5631  -23.5227  -14.7115 C   0  0  0  0  0  0  0  0  0  0  0  0
   18.2758  -23.3575  -15.4594 C   0  0  0  0  0  0  0  0  0  0  0  0
   17.8262  -24.6906  -15.8918 N   0  0  0  0  0  0  0  0  0  0  0  0
   21.2402  -20.6553  -11.7624 C   0  0  0  0  0  0  0  0  0  0  0  0
   21.3456  -21.0573  -10.4421 O   0  0  0  0  0  0  0  0  0  0  0  0
   20.4206  -19.7460  -12.0206 O   0  0  0  0  0  0  0  0  0  0  0  0
  1  2  1  0
  3  4  2  0
  3  2  1  0
  5  3  1  0
  6  5  1  0
  6  7  1  1
  8 16  1  0
  8  7  1  0
  9  8  2  0
 10  9  1  0
 10 11  1  0
 11 16  2  0
 12 11  1  0
 12 13  2  0
 13 14  1  0
 14 15  2  0
 16 15  1  0
 17 18  2  0
 17  6  1  0
 19 17  1  0
 20 21  1  1
 20 19  1  0
 22 23  1  0
 22 21  1  0
 24 23  1  0
 24 25  1  0
 26 20  1  0
 27 26  1  0
 28 26  2  0
M  END
$$$$
