GWK.pdb
     RDKit          3D

 28 29  0  0  1  0  0  0  0  0999 V2000
   27.6334  -16.9759  -15.6373 N   0  0  0  0  0  0  0  0  0  0  0  0
   27.4204  -17.3611  -14.2709 C   0  0  0  0  0  0  0  0  0  0  0  0
   27.4179  -18.8633  -14.2199 C   0  0  0  0  0  0  0  0  0  0  0  0
   28.4243  -19.5279  -14.5862 O   0  0  0  0  0  0  0  0  0  0  0  0
   26.3038  -19.5978  -13.7652 N   0  0  0  0  0  0  0  0  0  0  0  0
   26.2904  -21.0083  -13.5412 C   0  0  1  0  0  0  0  0  0  0  0  0
   25.5723  -21.4813  -12.3346 C   0  0  0  0  0  0  0  0  0  0  0  0
   26.1596  -21.1083  -11.0367 C   0  0  0  0  0  0  0  0  0  0  0  0
   25.5629  -20.6630   -9.8827 C   0  0  0  0  0  0  0  0  0  0  0  0
   26.5497  -20.4478   -8.9674 N   0  0  0  0  0  0  0  0  0  0  0  0
   27.7411  -20.7410   -9.5039 C   0  0  0  0  0  0  0  0  0  0  0  0
   29.0318  -20.6953   -9.0109 C   0  0  0  0  0  0  0  0  0  0  0  0
   30.1223  -21.0571   -9.7835 C   0  0  0  0  0  0  0  0  0  0  0  0
   29.9136  -21.4702  -11.0682 C   0  0  0  0  0  0  0  0  0  0  0  0
   28.6315  -21.5157  -11.5580 C   0  0  0  0  0  0  0  0  0  0  0  0
   27.5187  -21.1593  -10.8077 C   0  0  0  0  0  0  0  0  0  0  0  0
   25.6461  -21.7152  -14.7060 C   0  0  0  0  0  0  0  0  0  0  0  0
   24.8254  -21.0725  -15.3867 O   0  0  0  0  0  0  0  0  0  0  0  0
   25.9744  -23.0377  -14.9879 N   0  0  0  0  0  0  0  0  0  0  0  0
   25.3815  -23.6735  -16.1804 C   0  0  1  0  0  0  0  0  0  0  0  0
   26.0994  -24.9901  -16.4088 C   0  0  0  0  0  0  0  0  0  0  0  0
   27.5794  -24.8403  -16.5566 C   0  0  0  0  0  0  0  0  0  0  0  0
   28.2101  -26.1681  -16.8993 C   0  0  0  0  0  0  0  0  0  0  0  0
   29.7014  -26.1213  -17.0319 C   0  0  0  0  0  0  0  0  0  0  0  0
   30.1867  -27.5003  -17.2034 N   0  0  0  0  0  0  0  0  0  0  0  0
   23.9506  -23.8429  -15.8551 C   0  0  0  0  0  0  0  0  0  0  0  0
   22.9461  -23.8564  -16.8073 O   0  0  0  0  0  0  0  0  0  0  0  0
   23.6088  -23.9831  -14.6598 O   0  0  0  0  0  0  0  0  0  0  0  0
  1  2  1  0
  3  4  2  0
  3  2  1  0
  5  3  1  0
  6  5  1  0
  6  7  1  1
  8 16  1  0
  8  7  1  0
  9  8  2  0
 10  9  1  0
 10 11  1  0
 11 16  2  0
 12 11  1  0
 12 13  2  0
 13 14  1  0
 14 15  2  0
 16 15  1  0
 17 18  2  0
 17  6  1  0
 19 17  1  0
 20 21  1  1
 20 19  1  0
 22 23  1  0
 22 21  1  0
 24 23  1  0
 24 25  1  0
 26 20  1  0
 27 26  1  0
 28 26  2  0
M  END
$$$$
