GWK.pdb
     RDKit          3D

 28 29  0  0  1  0  0  0  0  0999 V2000
   28.0849  -18.6290  -15.2781 N   0  0  0  0  0  0  0  0  0  0  0  0
   28.0177  -19.8560  -14.5361 C   0  0  0  0  0  0  0  0  0  0  0  0
   27.1831  -19.5992  -13.3127 C   0  0  0  0  0  0  0  0  0  0  0  0
   26.7513  -18.4443  -13.0510 O   0  0  0  0  0  0  0  0  0  0  0  0
   26.8438  -20.6239  -12.4059 N   0  0  0  0  0  0  0  0  0  0  0  0
   25.9490  -20.4763  -11.3026 C   0  0  1  0  0  0  0  0  0  0  0  0
   24.7661  -21.3683  -11.2843 C   0  0  0  0  0  0  0  0  0  0  0  0
   23.5725  -20.8851  -11.9988 C   0  0  0  0  0  0  0  0  0  0  0  0
   23.3063  -20.8143  -13.3442 C   0  0  0  0  0  0  0  0  0  0  0  0
   22.0603  -20.2805  -13.4881 N   0  0  0  0  0  0  0  0  0  0  0  0
   21.5365  -20.0143  -12.2848 C   0  0  0  0  0  0  0  0  0  0  0  0
   20.3278  -19.4771  -11.8829 C   0  0  0  0  0  0  0  0  0  0  0  0
   20.0169  -19.2970  -10.5458 C   0  0  0  0  0  0  0  0  0  0  0  0
   20.9320  -19.6612   -9.6000 C   0  0  0  0  0  0  0  0  0  0  0  0
   22.1327  -20.1950   -9.9992 C   0  0  0  0  0  0  0  0  0  0  0  0
   22.4728  -20.3875  -11.3317 C   0  0  0  0  0  0  0  0  0  0  0  0
   26.6740  -20.7292  -10.0057 C   0  0  0  0  0  0  0  0  0  0  0  0
   27.2926  -21.8037   -9.8922 O   0  0  0  0  0  0  0  0  0  0  0  0
   26.6371  -19.7798   -8.9889 N   0  0  0  0  0  0  0  0  0  0  0  0
   27.1734  -20.1441   -7.6632 C   0  0  1  0  0  0  0  0  0  0  0  0
   27.2322  -18.8816   -6.8243 C   0  0  0  0  0  0  0  0  0  0  0  0
   27.6118  -19.1333   -5.4005 C   0  0  0  0  0  0  0  0  0  0  0  0
   28.9550  -18.5148   -5.0978 C   0  0  0  0  0  0  0  0  0  0  0  0
   29.4610  -18.7961   -3.7163 C   0  0  0  0  0  0  0  0  0  0  0  0
   30.7889  -18.1754   -3.5828 N   0  0  0  0  0  0  0  0  0  0  0  0
   26.2323  -21.1501   -7.1303 C   0  0  0  0  0  0  0  0  0  0  0  0
   26.5576  -22.0457   -6.1263 O   0  0  0  0  0  0  0  0  0  0  0  0
   25.0740  -21.2113   -7.5993 O   0  0  0  0  0  0  0  0  0  0  0  0
  1  2  1  0
  3  4  2  0
  3  2  1  0
  5  3  1  0
  6  5  1  0
  6  7  1  6
  8 16  1  0
  8  7  1  0
  9  8  2  0
 10  9  1  0
 10 11  1  0
 11 16  2  0
 12 11  1  0
 12 13  2  0
 13 14  1  0
 14 15  2  0
 16 15  1  0
 17 18  2  0
 17  6  1  0
 19 17  1  0
 20 21  1  1
 20 19  1  0
 22 23  1  0
 22 21  1  0
 24 23  1  0
 24 25  1  0
 26 20  1  0
 27 26  1  0
 28 26  2  0
M  END
$$$$
