GWK.pdb
     RDKit          3D

 28 29  0  0  1  0  0  0  0  0999 V2000
   28.4155  -21.9851  -15.4031 N   0  0  0  0  0  0  0  0  0  0  0  0
   27.9422  -20.8183  -14.7137 C   0  0  0  0  0  0  0  0  0  0  0  0
   27.0038  -21.2805  -13.6344 C   0  0  0  0  0  0  0  0  0  0  0  0
   26.3943  -22.3797  -13.7298 O   0  0  0  0  0  0  0  0  0  0  0  0
   26.7596  -20.5183  -12.4738 N   0  0  0  0  0  0  0  0  0  0  0  0
   25.8734  -20.8955  -11.4193 C   0  0  1  0  0  0  0  0  0  0  0  0
   26.1815  -20.3625  -10.0716 C   0  0  0  0  0  0  0  0  0  0  0  0
   27.4569  -20.7936   -9.4746 C   0  0  0  0  0  0  0  0  0  0  0  0
   28.5019  -21.5001  -10.0175 C   0  0  0  0  0  0  0  0  0  0  0  0
   29.4454  -21.6488   -9.0449 N   0  0  0  0  0  0  0  0  0  0  0  0
   29.0311  -21.0628   -7.9144 C   0  0  0  0  0  0  0  0  0  0  0  0
   29.5987  -20.9304   -6.6607 C   0  0  0  0  0  0  0  0  0  0  0  0
   28.9529  -20.2641   -5.6331 C   0  0  0  0  0  0  0  0  0  0  0  0
   27.7209  -19.7239   -5.8677 C   0  0  0  0  0  0  0  0  0  0  0  0
   27.1571  -19.8554   -7.1129 C   0  0  0  0  0  0  0  0  0  0  0  0
   27.7800  -20.5175   -8.1626 C   0  0  0  0  0  0  0  0  0  0  0  0
   24.4703  -20.4409  -11.7297 C   0  0  0  0  0  0  0  0  0  0  0  0
   24.2911  -19.2261  -11.9350 O   0  0  0  0  0  0  0  0  0  0  0  0
   23.4318  -21.3659  -11.7786 N   0  0  0  0  0  0  0  0  0  0  0  0
   22.1338  -20.9409  -12.3373 C   0  0  1  0  0  0  0  0  0  0  0  0
   21.6937  -21.9923  -13.3384 C   0  0  0  0  0  0  0  0  0  0  0  0
   22.2414  -21.7694  -14.7114 C   0  0  0  0  0  0  0  0  0  0  0  0
   21.7080  -22.8106  -15.6651 C   0  0  0  0  0  0  0  0  0  0  0  0
   22.1139  -22.5993  -17.0914 C   0  0  0  0  0  0  0  0  0  0  0  0
   21.6018  -23.7297  -17.8827 N   0  0  0  0  0  0  0  0  0  0  0  0
   21.2299  -20.8349  -11.1738 C   0  0  0  0  0  0  0  0  0  0  0  0
   20.3483  -19.7850  -10.9832 O   0  0  0  0  0  0  0  0  0  0  0  0
   21.2478  -21.7332  -10.3031 O   0  0  0  0  0  0  0  0  0  0  0  0
  1  2  1  0
  3  4  2  0
  3  2  1  0
  5  3  1  0
  6  5  1  0
  6  7  1  1
  8 16  1  0
  8  7  1  0
  9  8  2  0
 10  9  1  0
 10 11  1  0
 11 16  2  0
 12 11  1  0
 12 13  2  0
 13 14  1  0
 14 15  2  0
 16 15  1  0
 17 18  2  0
 17  6  1  0
 19 17  1  0
 20 21  1  6
 20 19  1  0
 22 23  1  0
 22 21  1  0
 24 23  1  0
 24 25  1  0
 26 20  1  0
 27 26  1  0
 28 26  2  0
M  END
$$$$
