GWK.pdb
     RDKit          3D

 28 29  0  0  1  0  0  0  0  0999 V2000
   29.9506  -21.6748  -13.1375 N   0  0  0  0  0  0  0  0  0  0  0  0
   29.3885  -20.5315  -12.4760 C   0  0  0  0  0  0  0  0  0  0  0  0
   28.1860  -21.0008  -11.7060 C   0  0  0  0  0  0  0  0  0  0  0  0
   27.6826  -22.1372  -11.9157 O   0  0  0  0  0  0  0  0  0  0  0  0
   27.5665  -20.2044  -10.7214 N   0  0  0  0  0  0  0  0  0  0  0  0
   26.4063  -20.5790   -9.9775 C   0  0  1  0  0  0  0  0  0  0  0  0
   26.2636  -19.9848   -8.6278 C   0  0  0  0  0  0  0  0  0  0  0  0
   27.5067  -19.8031   -7.8592 C   0  0  0  0  0  0  0  0  0  0  0  0
   28.7467  -19.3688   -8.2587 C   0  0  0  0  0  0  0  0  0  0  0  0
   29.5600  -19.3885   -7.1651 N   0  0  0  0  0  0  0  0  0  0  0  0
   28.8770  -19.8186   -6.0966 C   0  0  0  0  0  0  0  0  0  0  0  0
   29.2275  -20.0199   -4.7745 C   0  0  0  0  0  0  0  0  0  0  0  0
   28.3175  -20.4843   -3.8400 C   0  0  0  0  0  0  0  0  0  0  0  0
   27.0389  -20.7502   -4.2387 C   0  0  0  0  0  0  0  0  0  0  0  0
   26.6906  -20.5503   -5.5519 C   0  0  0  0  0  0  0  0  0  0  0  0
   27.5805  -20.0857   -6.5114 C   0  0  0  0  0  0  0  0  0  0  0  0
   25.1581  -20.1944  -10.7295 C   0  0  0  0  0  0  0  0  0  0  0  0
   25.1879  -19.1422  -11.3944 O   0  0  0  0  0  0  0  0  0  0  0  0
   24.0278  -21.0036  -10.6658 N   0  0  0  0  0  0  0  0  0  0  0  0
   23.0900  -20.9973  -11.8052 C   0  0  1  0  0  0  0  0  0  0  0  0
   23.3584  -22.2396  -12.6332 C   0  0  0  0  0  0  0  0  0  0  0  0
   22.4725  -22.3559  -13.8317 C   0  0  0  0  0  0  0  0  0  0  0  0
   22.8121  -23.5991  -14.6174 C   0  0  0  0  0  0  0  0  0  0  0  0
   21.9812  -23.7910  -15.8488 C   0  0  0  0  0  0  0  0  0  0  0  0
   22.3879  -25.0571  -16.4796 N   0  0  0  0  0  0  0  0  0  0  0  0
   21.7443  -20.9870  -11.1962 C   0  0  0  0  0  0  0  0  0  0  0  0
   21.5153  -21.1713   -9.8436 O   0  0  0  0  0  0  0  0  0  0  0  0
   20.7452  -20.8031  -11.9264 O   0  0  0  0  0  0  0  0  0  0  0  0
  1  2  1  0
  3  4  2  0
  3  2  1  0
  5  3  1  0
  6  5  1  0
  6  7  1  1
  8 16  1  0
  8  7  1  0
  9  8  2  0
 10  9  1  0
 10 11  1  0
 11 16  2  0
 12 11  1  0
 12 13  2  0
 13 14  1  0
 14 15  2  0
 16 15  1  0
 17 18  2  0
 17  6  1  0
 19 17  1  0
 20 21  1  1
 20 19  1  0
 22 23  1  0
 22 21  1  0
 24 23  1  0
 24 25  1  0
 26 20  1  0
 27 26  1  0
 28 26  2  0
M  END
$$$$
