VHI.pdb
     RDKit          3D

 26 26  0  0  1  0  0  0  0  0999 V2000
   12.4596  -17.9788   22.2797 C   0  0  0  0  0  0  0  0  0  0  0  0
   13.3047  -17.1267   21.3492 C   0  0  1  0  0  0  0  0  0  0  0  0
   14.3949  -17.9863   20.7623 C   0  0  0  0  0  0  0  0  0  0  0  0
   12.3940  -16.6456   20.2420 C   0  0  2  0  0  0  0  0  0  0  0  0
   13.1227  -16.0269   19.1668 N   0  0  0  0  0  0  0  0  0  0  0  0
   11.3581  -15.7010   20.7349 C   0  0  0  0  0  0  0  0  0  0  0  0
   11.6454  -14.4750   20.9562 O   0  0  0  0  0  0  0  0  0  0  0  0
   10.0476  -16.1075   20.9732 N   0  0  0  0  0  0  0  0  0  0  0  0
    8.9542  -15.0929   21.2968 C   0  0  1  0  0  0  0  0  0  0  0  0
    7.8169  -15.4474   20.4111 C   0  0  0  0  0  0  0  0  0  0  0  0
    7.6328  -14.6983   19.1687 C   0  0  0  0  0  0  0  0  0  0  0  0
    8.0045  -13.4259   18.8188 C   0  0  0  0  0  0  0  0  0  0  0  0
    7.7168  -13.1801   17.5153 N   0  0  0  0  0  0  0  0  0  0  0  0
    7.1675  -14.2983   17.0521 C   0  0  0  0  0  0  0  0  0  0  0  0
    7.1033  -15.2198   18.0090 N   0  0  0  0  0  0  0  0  0  0  0  0
    8.7088  -15.3962   22.7565 C   0  0  0  0  0  0  0  0  0  0  0  0
    9.2266  -16.5156   23.1517 O   0  0  0  0  0  0  0  0  0  0  0  0
    7.2120  -11.5220   26.5054 C   0  0  0  0  0  0  0  0  0  0  0  0
    7.8691  -12.6695   25.8431 C   0  0  0  0  0  0  0  0  0  0  0  0
    7.2402  -14.0012   25.8959 C   0  0  2  0  0  0  0  0  0  0  0  0
    6.9386  -14.3880   27.3547 C   0  0  0  0  0  0  0  0  0  0  0  0
    7.7686  -15.0984   25.1039 C   0  0  2  0  0  0  0  0  0  0  0  0
    8.0190  -14.6398   23.6923 N   0  0  0  0  0  0  0  0  0  0  0  0
    7.3055  -16.4547   25.1376 C   0  0  0  0  0  0  0  0  0  0  0  0
    7.7639  -17.2758   26.0110 O   0  0  0  0  0  0  0  0  0  0  0  0
    6.3681  -17.0215   24.3063 O   0  0  0  0  0  0  0  0  0  0  0  0
  2  4  1  0
  2  1  1  1
  3  2  1  0
  4  6  1  0
  4  5  1  6
  6  7  2  0
  8  6  1  0
  8  9  1  0
  9 16  1  0
  9 10  1  6
 10 11  1  0
 11 12  2  0
 12 13  1  0
 14 13  1  0
 15 11  1  0
 15 14  2  0
 16 17  2  0
 19 20  1  0
 19 18  1  0
 20 22  1  0
 20 21  1  1
 22 23  1  6
 22 24  1  0
 23 16  1  0
 24 25  2  0
 24 26  1  0
M  END
$$$$
