VHI.pdb
     RDKit          3D

 26 26  0  0  1  0  0  0  0  0999 V2000
    8.8656  -12.3624   18.4594 C   0  0  0  0  0  0  0  0  0  0  0  0
    8.5651  -13.1515   19.7216 C   0  0  1  0  0  0  0  0  0  0  0  0
    7.1712  -12.8122   20.1841 C   0  0  0  0  0  0  0  0  0  0  0  0
    8.6286  -14.6165   19.3520 C   0  0  2  0  0  0  0  0  0  0  0  0
    7.7188  -14.9504   18.2887 N   0  0  0  0  0  0  0  0  0  0  0  0
    8.3644  -15.5029   20.5151 C   0  0  0  0  0  0  0  0  0  0  0  0
    7.2015  -15.9984   20.7070 O   0  0  0  0  0  0  0  0  0  0  0  0
    9.3607  -15.8264   21.4328 N   0  0  0  0  0  0  0  0  0  0  0  0
    9.0719  -16.7419   22.6196 C   0  0  1  0  0  0  0  0  0  0  0  0
   10.1683  -17.7426   22.6177 C   0  0  0  0  0  0  0  0  0  0  0  0
    9.9758  -18.9957   21.8890 C   0  0  0  0  0  0  0  0  0  0  0  0
    8.8879  -19.4910   21.2176 C   0  0  0  0  0  0  0  0  0  0  0  0
    9.1942  -20.6585   20.5968 N   0  0  0  0  0  0  0  0  0  0  0  0
   10.4721  -20.8907   20.8793 C   0  0  0  0  0  0  0  0  0  0  0  0
   10.9659  -19.9216   21.6448 N   0  0  0  0  0  0  0  0  0  0  0  0
    9.1465  -15.7565   23.7626 C   0  0  0  0  0  0  0  0  0  0  0  0
   10.2633  -15.1031   23.8169 O   0  0  0  0  0  0  0  0  0  0  0  0
    7.2563  -11.1244   26.7436 C   0  0  0  0  0  0  0  0  0  0  0  0
    7.4102  -12.5601   27.0632 C   0  0  0  0  0  0  0  0  0  0  0  0
    7.4060  -13.5549   25.9760 C   0  0  2  0  0  0  0  0  0  0  0  0
    5.9852  -14.1093   25.7696 C   0  0  0  0  0  0  0  0  0  0  0  0
    8.4403  -14.5724   25.9031 C   0  0  2  0  0  0  0  0  0  0  0  0
    8.1895  -15.4775   24.7270 N   0  0  0  0  0  0  0  0  0  0  0  0
    8.9805  -15.2987   27.0147 C   0  0  0  0  0  0  0  0  0  0  0  0
    9.6856  -14.6972   27.9025 O   0  0  0  0  0  0  0  0  0  0  0  0
    8.8229  -16.6405   27.2714 O   0  0  0  0  0  0  0  0  0  0  0  0
  2  4  1  0
  2  1  1  6
  3  2  1  0
  4  6  1  0
  4  5  1  6
  6  7  2  0
  8  6  1  0
  8  9  1  0
  9 16  1  0
  9 10  1  1
 10 11  1  0
 11 12  2  0
 12 13  1  0
 14 13  1  0
 15 11  1  0
 15 14  2  0
 16 17  2  0
 19 20  1  0
 19 18  1  0
 20 22  1  0
 20 21  1  1
 22 23  1  6
 22 24  1  0
 23 16  1  0
 24 25  2  0
 24 26  1  0
M  END
$$$$
