VHI.pdb
     RDKit          3D

 26 26  0  0  1  0  0  0  0  0999 V2000
    9.0760  -12.7740   18.3602 C   0  0  0  0  0  0  0  0  0  0  0  0
    8.4477  -13.4378   19.5730 C   0  0  1  0  0  0  0  0  0  0  0  0
    7.0106  -12.9952   19.6768 C   0  0  0  0  0  0  0  0  0  0  0  0
    8.4973  -14.9303   19.3347 C   0  0  2  0  0  0  0  0  0  0  0  0
    7.9191  -15.3000   18.0702 N   0  0  0  0  0  0  0  0  0  0  0  0
    7.8287  -15.6964   20.4183 C   0  0  0  0  0  0  0  0  0  0  0  0
    6.9463  -16.5800   20.1439 O   0  0  0  0  0  0  0  0  0  0  0  0
    8.1321  -15.4859   21.7611 N   0  0  0  0  0  0  0  0  0  0  0  0
    7.4465  -16.2936   22.8600 C   0  0  1  0  0  0  0  0  0  0  0  0
    7.8419  -17.7032   22.6140 C   0  0  0  0  0  0  0  0  0  0  0  0
    7.4589  -18.7219   23.5908 C   0  0  0  0  0  0  0  0  0  0  0  0
    6.7274  -18.6335   24.7469 C   0  0  0  0  0  0  0  0  0  0  0  0
    6.5311  -19.8622   25.2891 N   0  0  0  0  0  0  0  0  0  0  0  0
    7.1382  -20.7164   24.4715 C   0  0  0  0  0  0  0  0  0  0  0  0
    7.6989  -20.0712   23.4526 N   0  0  0  0  0  0  0  0  0  0  0  0
    8.0777  -15.6887   24.0923 C   0  0  0  0  0  0  0  0  0  0  0  0
    9.3691  -15.6118   24.0337 O   0  0  0  0  0  0  0  0  0  0  0  0
    6.2827  -11.2297   26.0525 C   0  0  0  0  0  0  0  0  0  0  0  0
    7.0624  -12.4289   25.6769 C   0  0  0  0  0  0  0  0  0  0  0  0
    7.5946  -13.3130   26.7290 C   0  0  2  0  0  0  0  0  0  0  0  0
    8.4164  -12.4968   27.7424 C   0  0  0  0  0  0  0  0  0  0  0  0
    8.2015  -14.5872   26.3845 C   0  0  2  0  0  0  0  0  0  0  0  0
    7.4560  -15.2192   25.2399 N   0  0  0  0  0  0  0  0  0  0  0  0
    8.6619  -15.5746   27.3162 C   0  0  0  0  0  0  0  0  0  0  0  0
    7.8976  -16.5449   27.6647 O   0  0  0  0  0  0  0  0  0  0  0  0
    9.8987  -15.6221   27.9155 O   0  0  0  0  0  0  0  0  0  0  0  0
  2  4  1  0
  2  1  1  6
  3  2  1  0
  4  6  1  0
  4  5  1  6
  6  7  2  0
  8  6  1  0
  8  9  1  0
  9 16  1  0
  9 10  1  6
 10 11  1  0
 11 12  2  0
 12 13  1  0
 14 13  1  0
 15 11  1  0
 15 14  2  0
 16 17  2  0
 19 20  1  0
 19 18  1  0
 20 22  1  0
 20 21  1  6
 22 23  1  6
 22 24  1  0
 23 16  1  0
 24 25  2  0
 24 26  1  0
M  END
$$$$
