VHI.pdb
     RDKit          3D

 26 26  0  0  1  0  0  0  0  0999 V2000
    8.6283  -12.3466   18.9224 C   0  0  0  0  0  0  0  0  0  0  0  0
    8.4273  -13.1508   20.1948 C   0  0  1  0  0  0  0  0  0  0  0  0
    7.0591  -12.8462   20.7489 C   0  0  0  0  0  0  0  0  0  0  0  0
    8.4993  -14.6114   19.8100 C   0  0  2  0  0  0  0  0  0  0  0  0
    7.5197  -14.9623   18.8165 N   0  0  0  0  0  0  0  0  0  0  0  0
    8.3471  -15.5112   20.9828 C   0  0  0  0  0  0  0  0  0  0  0  0
    7.2080  -16.0110   21.2783 O   0  0  0  0  0  0  0  0  0  0  0  0
    9.4260  -15.8430   21.7985 N   0  0  0  0  0  0  0  0  0  0  0  0
    9.2639  -16.8174   22.9621 C   0  0  1  0  0  0  0  0  0  0  0  0
   10.3778  -17.7879   22.8179 C   0  0  0  0  0  0  0  0  0  0  0  0
   10.2567  -18.8554   21.8258 C   0  0  0  0  0  0  0  0  0  0  0  0
    9.1986  -19.6605   21.4913 C   0  0  0  0  0  0  0  0  0  0  0  0
    9.5088  -20.4501   20.4318 N   0  0  0  0  0  0  0  0  0  0  0  0
   10.7585  -20.1371   20.1047 C   0  0  0  0  0  0  0  0  0  0  0  0
   11.2316  -19.1929   20.9131 N   0  0  0  0  0  0  0  0  0  0  0  0
    9.4175  -15.8821   24.1388 C   0  0  0  0  0  0  0  0  0  0  0  0
   10.4962  -15.1665   24.0999 O   0  0  0  0  0  0  0  0  0  0  0  0
    6.1898  -12.1696   25.5529 C   0  0  0  0  0  0  0  0  0  0  0  0
    7.3393  -13.0857   25.3894 C   0  0  0  0  0  0  0  0  0  0  0  0
    7.8680  -13.8102   26.5587 C   0  0  2  0  0  0  0  0  0  0  0  0
    8.1563  -12.8263   27.7065 C   0  0  0  0  0  0  0  0  0  0  0  0
    8.8941  -14.8254   26.3954 C   0  0  2  0  0  0  0  0  0  0  0  0
    8.5653  -15.7044   25.2186 N   0  0  0  0  0  0  0  0  0  0  0  0
    9.5053  -15.5761   27.4527 C   0  0  0  0  0  0  0  0  0  0  0  0
    9.1309  -16.7794   27.6954 O   0  0  0  0  0  0  0  0  0  0  0  0
   10.5105  -15.1469   28.2874 O   0  0  0  0  0  0  0  0  0  0  0  0
  2  4  1  0
  2  1  1  6
  3  2  1  0
  4  6  1  0
  4  5  1  6
  6  7  2  0
  8  6  1  0
  8  9  1  0
  9 16  1  0
  9 10  1  1
 10 11  1  0
 11 12  2  0
 12 13  1  0
 14 13  1  0
 15 11  1  0
 15 14  2  0
 16 17  2  0
 19 20  1  0
 19 18  1  0
 20 22  1  0
 20 21  1  1
 22 23  1  6
 22 24  1  0
 23 16  1  0
 24 25  2  0
 24 26  1  0
M  END
$$$$
