FQK.pdb
     RDKit          3D

 30 30  0  0  1  0  0  0  0  0999 V2000
    5.9334  -17.3067   25.7613 N   0  0  0  0  0  0  0  0  0  0  0  0
    6.5138  -16.0736   25.2608 C   0  0  1  0  0  0  0  0  0  0  0  0
    7.3026  -15.4531   26.3914 C   0  0  0  0  0  0  0  0  0  0  0  0
    6.9823  -14.0195   26.4841 C   0  0  0  0  0  0  0  0  0  0  0  0
    7.9414  -13.0283   26.3721 C   0  0  0  0  0  0  0  0  0  0  0  0
    7.6526  -11.6842   26.4580 C   0  0  0  0  0  0  0  0  0  0  0  0
    6.3475  -11.2861   26.6660 C   0  0  0  0  0  0  0  0  0  0  0  0
    5.3706  -12.2329   26.7820 C   0  0  0  0  0  0  0  0  0  0  0  0
    5.6809  -13.5775   26.6928 C   0  0  0  0  0  0  0  0  0  0  0  0
    7.3568  -16.3527   24.0780 C   0  0  0  0  0  0  0  0  0  0  0  0
    8.0934  -17.3646   24.0504 O   0  0  0  0  0  0  0  0  0  0  0  0
    8.3817  -12.3004   18.7628 N   0  0  0  0  0  0  0  0  0  0  0  0
    8.2644  -13.6935   18.5582 C   0  0  0  0  0  0  0  0  0  0  0  0
    7.7799  -14.1058   17.4782 O   0  0  0  0  0  0  0  0  0  0  0  0
    8.7160  -14.6220   19.6037 C   0  0  0  0  0  0  0  0  0  0  0  0
    7.8925  -14.6915   20.8386 C   0  0  0  0  0  0  0  0  0  0  0  0
    8.2971  -15.6379   21.9019 C   0  0  2  0  0  0  0  0  0  0  0  0
    7.3206  -15.4698   22.9886 N   0  0  0  0  0  0  0  0  0  0  0  0
    9.6483  -15.5721   22.4466 C   0  0  0  0  0  0  0  0  0  0  0  0
   10.0843  -14.6607   23.1964 O   0  0  0  0  0  0  0  0  0  0  0  0
   10.6403  -16.5888   22.1565 N   0  0  0  0  0  0  0  0  0  0  0  0
   11.9879  -16.5071   22.6563 C   0  0  1  0  0  0  0  0  0  0  0  0
   12.4616  -17.7200   23.3793 C   0  0  0  0  0  0  0  0  0  0  0  0
   11.6002  -18.1370   24.5471 C   0  0  0  0  0  0  0  0  0  0  0  0
   12.0661  -19.4602   25.1151 C   0  0  0  0  0  0  0  0  0  0  0  0
   11.9287  -19.4859   26.6250 C   0  0  0  0  0  0  0  0  0  0  0  0
   10.5093  -19.6991   26.9319 N   0  0  0  0  0  0  0  0  0  0  0  0
   12.9597  -16.2807   21.5249 C   0  0  0  0  0  0  0  0  0  0  0  0
   14.2791  -16.0078   21.8711 O   0  0  0  0  0  0  0  0  0  0  0  0
   12.5572  -16.3444   20.3496 O   0  0  0  0  0  0  0  0  0  0  0  0
  2  1  1  1
  2 10  1  0
  3  2  1  0
  3  4  1  0
  4  5  2  0
  5  6  1  0
  7  6  2  0
  8  7  1  0
  9  4  1  0
  9  8  2  0
 10 11  2  0
 12 13  1  0
 13 15  1  0
 14 13  2  0
 16 15  1  0
 17 16  1  6
 17 19  1  0
 18 17  1  0
 18 10  1  0
 19 21  1  0
 19 20  2  0
 21 22  1  0
 22 28  1  0
 22 23  1  6
 24 25  1  0
 24 23  1  0
 26 25  1  0
 27 26  1  0
 28 30  2  0
 28 29  1  0
M  END
$$$$
