FQK.pdb
     RDKit          3D

 30 30  0  0  1  0  0  0  0  0999 V2000
    5.7978  -16.8072   25.1833 N   0  0  0  0  0  0  0  0  0  0  0  0
    6.6716  -15.7091   24.8111 C   0  0  1  0  0  0  0  0  0  0  0  0
    7.2285  -15.1212   26.0876 C   0  0  0  0  0  0  0  0  0  0  0  0
    6.7865  -13.7233   26.2178 C   0  0  0  0  0  0  0  0  0  0  0  0
    5.6022  -13.3662   26.8380 C   0  0  0  0  0  0  0  0  0  0  0  0
    5.1789  -12.0614   26.9646 C   0  0  0  0  0  0  0  0  0  0  0  0
    5.9611  -11.0455   26.4537 C   0  0  0  0  0  0  0  0  0  0  0  0
    7.1376  -11.3552   25.8339 C   0  0  0  0  0  0  0  0  0  0  0  0
    7.5451  -12.6715   25.7170 C   0  0  0  0  0  0  0  0  0  0  0  0
    7.7373  -16.1925   23.9065 C   0  0  0  0  0  0  0  0  0  0  0  0
    8.1234  -17.3821   23.9622 O   0  0  0  0  0  0  0  0  0  0  0  0
    7.1623  -12.6313   19.0691 N   0  0  0  0  0  0  0  0  0  0  0  0
    8.0161  -13.7530   18.9736 C   0  0  0  0  0  0  0  0  0  0  0  0
    8.7622  -13.8593   17.9721 O   0  0  0  0  0  0  0  0  0  0  0  0
    8.0170  -14.7588   20.0447 C   0  0  0  0  0  0  0  0  0  0  0  0
    9.2483  -14.8560   20.8708 C   0  0  0  0  0  0  0  0  0  0  0  0
    9.2668  -15.8170   21.9959 C   0  0  2  0  0  0  0  0  0  0  0  0
    8.3096  -15.3017   22.9863 N   0  0  0  0  0  0  0  0  0  0  0  0
   10.5301  -16.1275   22.6552 C   0  0  0  0  0  0  0  0  0  0  0  0
   11.1398  -15.3660   23.4498 O   0  0  0  0  0  0  0  0  0  0  0  0
   11.2161  -17.3864   22.4397 N   0  0  0  0  0  0  0  0  0  0  0  0
   12.5127  -17.6571   23.0036 C   0  0  1  0  0  0  0  0  0  0  0  0
   12.8313  -19.1020   23.1747 C   0  0  0  0  0  0  0  0  0  0  0  0
   12.2987  -19.7209   24.4448 C   0  0  0  0  0  0  0  0  0  0  0  0
   11.6627  -21.0652   24.1637 C   0  0  0  0  0  0  0  0  0  0  0  0
   11.0371  -21.6468   25.4166 C   0  0  0  0  0  0  0  0  0  0  0  0
    9.6523  -21.1644   25.4790 N   0  0  0  0  0  0  0  0  0  0  0  0
   13.6006  -17.0832   22.1301 C   0  0  0  0  0  0  0  0  0  0  0  0
   13.2062  -16.5078   20.9266 O   0  0  0  0  0  0  0  0  0  0  0  0
   14.7844  -17.1430   22.5073 O   0  0  0  0  0  0  0  0  0  0  0  0
  2  1  1  1
  2 10  1  0
  3  2  1  0
  3  4  1  0
  4  5  2  0
  5  6  1  0
  7  6  2  0
  8  7  1  0
  9  4  1  0
  9  8  2  0
 10 11  2  0
 12 13  1  0
 13 15  1  0
 14 13  2  0
 16 15  1  0
 17 16  1  6
 17 19  1  0
 18 17  1  0
 18 10  1  0
 19 21  1  0
 19 20  2  0
 21 22  1  0
 22 28  1  0
 22 23  1  6
 24 25  1  0
 24 23  1  0
 26 25  1  0
 27 26  1  0
 28 30  2  0
 28 29  1  0
M  END
$$$$
