FQK.pdb
     RDKit          3D

 30 30  0  0  1  0  0  0  0  0999 V2000
    6.0854  -16.6651   25.7570 N   0  0  0  0  0  0  0  0  0  0  0  0
    6.9455  -15.8261   24.9420 C   0  0  1  0  0  0  0  0  0  0  0  0
    7.9265  -15.1468   25.8702 C   0  0  0  0  0  0  0  0  0  0  0  0
    7.3924  -13.8362   26.2747 C   0  0  0  0  0  0  0  0  0  0  0  0
    7.6860  -12.6657   25.5976 C   0  0  0  0  0  0  0  0  0  0  0  0
    7.1921  -11.4342   25.9681 C   0  0  0  0  0  0  0  0  0  0  0  0
    6.3614  -11.3427   27.0665 C   0  0  0  0  0  0  0  0  0  0  0  0
    6.0469  -12.4745   27.7624 C   0  0  0  0  0  0  0  0  0  0  0  0
    6.5529  -13.7015   27.3745 C   0  0  0  0  0  0  0  0  0  0  0  0
    7.6236  -16.6430   23.9123 C   0  0  0  0  0  0  0  0  0  0  0  0
    8.0218  -17.7988   24.1824 O   0  0  0  0  0  0  0  0  0  0  0  0
    8.8481  -17.3557   16.9293 N   0  0  0  0  0  0  0  0  0  0  0  0
    9.0149  -16.3644   17.9221 C   0  0  0  0  0  0  0  0  0  0  0  0
    8.8237  -15.1645   17.6143 O   0  0  0  0  0  0  0  0  0  0  0  0
    9.3981  -16.7581   19.2849 C   0  0  0  0  0  0  0  0  0  0  0  0
    8.5155  -16.2977   20.3880 C   0  0  0  0  0  0  0  0  0  0  0  0
    8.8758  -16.6618   21.7763 C   0  0  2  0  0  0  0  0  0  0  0  0
    7.8151  -16.1066   22.6303 N   0  0  0  0  0  0  0  0  0  0  0  0
   10.1790  -16.2763   22.3052 C   0  0  0  0  0  0  0  0  0  0  0  0
   10.3818  -15.3445   23.1259 O   0  0  0  0  0  0  0  0  0  0  0  0
   11.3963  -16.9590   21.9127 N   0  0  0  0  0  0  0  0  0  0  0  0
   12.3492  -17.4397   22.8788 C   0  0  1  0  0  0  0  0  0  0  0  0
   11.8225  -18.4676   23.8193 C   0  0  0  0  0  0  0  0  0  0  0  0
   12.8248  -18.9743   24.8283 C   0  0  0  0  0  0  0  0  0  0  0  0
   12.2370  -18.9656   26.2230 C   0  0  0  0  0  0  0  0  0  0  0  0
   13.2593  -19.4120   27.2501 C   0  0  0  0  0  0  0  0  0  0  0  0
   12.6874  -19.1553   28.5772 N   0  0  0  0  0  0  0  0  0  0  0  0
   13.5352  -18.0650   22.1873 C   0  0  0  0  0  0  0  0  0  0  0  0
   13.2738  -18.8381   21.0608 O   0  0  0  0  0  0  0  0  0  0  0  0
   14.6786  -17.8724   22.6377 O   0  0  0  0  0  0  0  0  0  0  0  0
  2  1  1  1
  2 10  1  0
  3  2  1  0
  3  4  1  0
  4  5  2  0
  5  6  1  0
  7  6  2  0
  8  7  1  0
  9  4  1  0
  9  8  2  0
 10 11  2  0
 12 13  1  0
 13 15  1  0
 14 13  2  0
 16 15  1  0
 17 16  1  6
 17 19  1  0
 18 17  1  0
 18 10  1  0
 19 21  1  0
 19 20  2  0
 21 22  1  0
 22 28  1  0
 22 23  1  1
 24 25  1  0
 24 23  1  0
 26 25  1  0
 27 26  1  0
 28 30  2  0
 28 29  1  0
M  END
$$$$
