FQK.pdb
     RDKit          3D

 30 30  0  0  1  0  0  0  0  0999 V2000
    7.7325  -14.8166   20.0794 N   0  0  0  0  0  0  0  0  0  0  0  0
    8.1076  -14.5575   21.4578 C   0  0  1  0  0  0  0  0  0  0  0  0
    6.8857  -14.0173   22.1654 C   0  0  0  0  0  0  0  0  0  0  0  0
    7.1937  -13.8138   23.5902 C   0  0  0  0  0  0  0  0  0  0  0  0
    6.9302  -14.7672   24.5579 C   0  0  0  0  0  0  0  0  0  0  0  0
    7.2138  -14.5866   25.8937 C   0  0  0  0  0  0  0  0  0  0  0  0
    7.7896  -13.4024   26.3074 C   0  0  0  0  0  0  0  0  0  0  0  0
    8.0659  -12.4354   25.3840 C   0  0  0  0  0  0  0  0  0  0  0  0
    7.7735  -12.6359   24.0473 C   0  0  0  0  0  0  0  0  0  0  0  0
    8.6165  -15.7955   22.0868 C   0  0  0  0  0  0  0  0  0  0  0  0
    8.1232  -16.9065   21.7874 O   0  0  0  0  0  0  0  0  0  0  0  0
   12.7290  -18.1849   19.5387 N   0  0  0  0  0  0  0  0  0  0  0  0
   13.0083  -17.5092   20.7477 C   0  0  0  0  0  0  0  0  0  0  0  0
   14.1632  -17.5862   21.2288 O   0  0  0  0  0  0  0  0  0  0  0  0
   11.9503  -16.7307   21.4063 C   0  0  0  0  0  0  0  0  0  0  0  0
   10.9135  -17.4992   22.1427 C   0  0  0  0  0  0  0  0  0  0  0  0
   10.3795  -16.9333   23.4014 C   0  0  2  0  0  0  0  0  0  0  0  0
    9.6579  -15.7091   23.0226 N   0  0  0  0  0  0  0  0  0  0  0  0
   11.2911  -16.6407   24.5015 C   0  0  0  0  0  0  0  0  0  0  0  0
   11.8425  -15.5293   24.7105 O   0  0  0  0  0  0  0  0  0  0  0  0
   11.6537  -17.6451   25.4821 N   0  0  0  0  0  0  0  0  0  0  0  0
   11.6631  -17.3668   26.8945 C   0  0  1  0  0  0  0  0  0  0  0  0
   10.4673  -16.6340   27.3958 C   0  0  0  0  0  0  0  0  0  0  0  0
   10.7428  -15.2310   27.8809 C   0  0  0  0  0  0  0  0  0  0  0  0
    9.4650  -14.5552   28.3295 C   0  0  0  0  0  0  0  0  0  0  0  0
    9.7190  -13.1140   28.7268 C   0  0  0  0  0  0  0  0  0  0  0  0
    8.4386  -12.5499   29.1703 N   0  0  0  0  0  0  0  0  0  0  0  0
   11.7382  -18.6486   27.6866 C   0  0  0  0  0  0  0  0  0  0  0  0
   12.0478  -18.5382   29.0383 O   0  0  0  0  0  0  0  0  0  0  0  0
   11.5258  -19.7339   27.1171 O   0  0  0  0  0  0  0  0  0  0  0  0
  2  1  1  6
  2 10  1  0
  3  2  1  0
  3  4  1  0
  4  5  2  0
  5  6  1  0
  7  6  2  0
  8  7  1  0
  9  4  1  0
  9  8  2  0
 10 11  2  0
 12 13  1  0
 13 15  1  0
 14 13  2  0
 16 15  1  0
 17 16  1  6
 17 19  1  0
 18 17  1  0
 18 10  1  0
 19 21  1  0
 19 20  2  0
 21 22  1  0
 22 28  1  0
 22 23  1  1
 24 25  1  0
 24 23  1  0
 26 25  1  0
 27 26  1  0
 28 30  2  0
 28 29  1  0
M  END
$$$$
