FQK.pdb
     RDKit          3D

 30 30  0  0  1  0  0  0  0  0999 V2000
    6.0695  -16.9011   25.3413 N   0  0  0  0  0  0  0  0  0  0  0  0
    7.0479  -15.9403   24.8644 C   0  0  1  0  0  0  0  0  0  0  0  0
    7.6937  -15.3116   26.0781 C   0  0  0  0  0  0  0  0  0  0  0  0
    7.1331  -13.9675   26.2914 C   0  0  0  0  0  0  0  0  0  0  0  0
    6.1535  -13.7045   27.2326 C   0  0  0  0  0  0  0  0  0  0  0  0
    5.6217  -12.4508   27.4398 C   0  0  0  0  0  0  0  0  0  0  0  0
    6.0755  -11.3912   26.6807 C   0  0  0  0  0  0  0  0  0  0  0  0
    7.0417  -11.6081   25.7407 C   0  0  0  0  0  0  0  0  0  0  0  0
    7.5630  -12.8744   25.5479 C   0  0  0  0  0  0  0  0  0  0  0  0
    8.0345  -16.6116   23.9905 C   0  0  0  0  0  0  0  0  0  0  0  0
    8.4087  -17.7800   24.2394 O   0  0  0  0  0  0  0  0  0  0  0  0
    8.7720  -18.2153   18.6947 N   0  0  0  0  0  0  0  0  0  0  0  0
    7.8425  -17.4929   19.4759 C   0  0  0  0  0  0  0  0  0  0  0  0
    6.7647  -18.0467   19.7962 O   0  0  0  0  0  0  0  0  0  0  0  0
    8.1593  -16.1220   19.8994 C   0  0  0  0  0  0  0  0  0  0  0  0
    9.4059  -15.9355   20.6862 C   0  0  0  0  0  0  0  0  0  0  0  0
    9.5124  -16.6004   22.0040 C   0  0  2  0  0  0  0  0  0  0  0  0
    8.5452  -15.9228   22.8804 N   0  0  0  0  0  0  0  0  0  0  0  0
   10.8075  -16.6713   22.6707 C   0  0  0  0  0  0  0  0  0  0  0  0
   11.4582  -15.6829   23.0982 O   0  0  0  0  0  0  0  0  0  0  0  0
   11.4801  -17.9345   22.9030 N   0  0  0  0  0  0  0  0  0  0  0  0
   12.7044  -18.0220   23.6552 C   0  0  1  0  0  0  0  0  0  0  0  0
   12.7470  -19.1254   24.6549 C   0  0  0  0  0  0  0  0  0  0  0  0
   11.8656  -18.9184   25.8631 C   0  0  0  0  0  0  0  0  0  0  0  0
   11.8137  -20.1697   26.7130 C   0  0  0  0  0  0  0  0  0  0  0  0
   10.8802  -19.9899   27.8944 C   0  0  0  0  0  0  0  0  0  0  0  0
   10.7871  -21.2845   28.5797 N   0  0  0  0  0  0  0  0  0  0  0  0
   13.8784  -18.2392   22.7330 C   0  0  0  0  0  0  0  0  0  0  0  0
   13.5927  -18.4759   21.3923 O   0  0  0  0  0  0  0  0  0  0  0  0
   15.0337  -18.2001   23.1925 O   0  0  0  0  0  0  0  0  0  0  0  0
  2  1  1  1
  2 10  1  0
  3  2  1  0
  3  4  1  0
  4  5  2  0
  5  6  1  0
  7  6  2  0
  8  7  1  0
  9  4  1  0
  9  8  2  0
 10 11  2  0
 12 13  1  0
 13 15  1  0
 14 13  2  0
 16 15  1  0
 17 16  1  6
 17 19  1  0
 18 17  1  0
 18 10  1  0
 19 21  1  0
 19 20  2  0
 21 22  1  0
 22 28  1  0
 22 23  1  1
 24 25  1  0
 24 23  1  0
 26 25  1  0
 27 26  1  0
 28 30  2  0
 28 29  1  0
M  END
$$$$
