FQK.pdb
     RDKit          3D

 30 30  0  0  1  0  0  0  0  0999 V2000
    6.4308  -16.1582   25.6076 N   0  0  0  0  0  0  0  0  0  0  0  0
    7.0413  -15.1880   24.7165 C   0  0  1  0  0  0  0  0  0  0  0  0
    7.8819  -14.2608   25.5646 C   0  0  0  0  0  0  0  0  0  0  0  0
    7.0560  -13.1324   26.0241 C   0  0  0  0  0  0  0  0  0  0  0  0
    5.9898  -12.6375   25.2940 C   0  0  0  0  0  0  0  0  0  0  0  0
    5.2112  -11.5818   25.7145 C   0  0  0  0  0  0  0  0  0  0  0  0
    5.4926  -10.9742   26.9214 C   0  0  0  0  0  0  0  0  0  0  0  0
    6.5365  -11.4323   27.6727 C   0  0  0  0  0  0  0  0  0  0  0  0
    7.3064  -12.4935   27.2331 C   0  0  0  0  0  0  0  0  0  0  0  0
    7.8417  -15.8807   23.6835 C   0  0  0  0  0  0  0  0  0  0  0  0
    8.0221  -17.1179   23.7468 O   0  0  0  0  0  0  0  0  0  0  0  0
    8.8959  -13.1578   18.2597 N   0  0  0  0  0  0  0  0  0  0  0  0
    7.7105  -13.7586   18.7392 C   0  0  0  0  0  0  0  0  0  0  0  0
    6.6223  -13.4690   18.1887 O   0  0  0  0  0  0  0  0  0  0  0  0
    7.7784  -14.7080   19.8587 C   0  0  0  0  0  0  0  0  0  0  0  0
    9.1294  -15.0134   20.3965 C   0  0  0  0  0  0  0  0  0  0  0  0
    9.2288  -15.8195   21.6334 C   0  0  2  0  0  0  0  0  0  0  0  0
    8.3959  -15.1342   22.6331 N   0  0  0  0  0  0  0  0  0  0  0  0
   10.5410  -16.1021   22.2037 C   0  0  0  0  0  0  0  0  0  0  0  0
   11.4909  -15.2805   22.2797 O   0  0  0  0  0  0  0  0  0  0  0  0
   10.8739  -17.4035   22.7490 N   0  0  0  0  0  0  0  0  0  0  0  0
   12.1800  -17.7003   23.2767 C   0  0  1  0  0  0  0  0  0  0  0  0
   12.2495  -18.9236   24.1236 C   0  0  0  0  0  0  0  0  0  0  0  0
   11.6057  -18.7893   25.4826 C   0  0  0  0  0  0  0  0  0  0  0  0
   11.6091  -20.1144   26.2139 C   0  0  0  0  0  0  0  0  0  0  0  0
   11.1389  -19.9498   27.6461 C   0  0  0  0  0  0  0  0  0  0  0  0
   10.0405  -20.8999   27.8582 N   0  0  0  0  0  0  0  0  0  0  0  0
   13.1704  -17.9025   22.1568 C   0  0  0  0  0  0  0  0  0  0  0  0
   14.3241  -17.1259   22.1866 O   0  0  0  0  0  0  0  0  0  0  0  0
   12.9269  -18.7367   21.2669 O   0  0  0  0  0  0  0  0  0  0  0  0
  2  1  1  1
  2 10  1  0
  3  2  1  0
  3  4  1  0
  4  5  2  0
  5  6  1  0
  7  6  2  0
  8  7  1  0
  9  4  1  0
  9  8  2  0
 10 11  2  0
 12 13  1  0
 13 15  1  0
 14 13  2  0
 16 15  1  0
 17 16  1  6
 17 19  1  0
 18 17  1  0
 18 10  1  0
 19 21  1  0
 19 20  2  0
 21 22  1  0
 22 28  1  0
 22 23  1  6
 24 25  1  0
 24 23  1  0
 26 25  1  0
 27 26  1  0
 28 30  2  0
 28 29  1  0
M  END
$$$$
