FQK.pdb
     RDKit          3D

 30 30  0  0  1  0  0  0  0  0999 V2000
    6.4017  -16.4881   25.8922 N   0  0  0  0  0  0  0  0  0  0  0  0
    6.4827  -16.3423   24.4500 C   0  0  1  0  0  0  0  0  0  0  0  0
    6.1003  -14.9182   24.1169 C   0  0  0  0  0  0  0  0  0  0  0  0
    6.7097  -14.0045   25.0968 C   0  0  0  0  0  0  0  0  0  0  0  0
    8.0089  -13.5419   24.9837 C   0  0  0  0  0  0  0  0  0  0  0  0
    8.5889  -12.6874   25.8953 C   0  0  0  0  0  0  0  0  0  0  0  0
    7.8537  -12.2600   26.9824 C   0  0  0  0  0  0  0  0  0  0  0  0
    6.5675  -12.6931   27.1311 C   0  0  0  0  0  0  0  0  0  0  0  0
    6.0032  -13.5510   26.2049 C   0  0  0  0  0  0  0  0  0  0  0  0
    7.8443  -16.6800   23.9813 C   0  0  0  0  0  0  0  0  0  0  0  0
    8.6038  -17.3765   24.6922 O   0  0  0  0  0  0  0  0  0  0  0  0
    9.9884  -18.9918   19.1143 N   0  0  0  0  0  0  0  0  0  0  0  0
   10.8887  -18.2199   19.8825 C   0  0  0  0  0  0  0  0  0  0  0  0
   11.8171  -18.8033   20.4897 O   0  0  0  0  0  0  0  0  0  0  0  0
   10.7237  -16.7612   19.9467 C   0  0  0  0  0  0  0  0  0  0  0  0
    9.6154  -16.2496   20.7940 C   0  0  0  0  0  0  0  0  0  0  0  0
    9.5866  -16.6342   22.2226 C   0  0  2  0  0  0  0  0  0  0  0  0
    8.2735  -16.2101   22.7312 N   0  0  0  0  0  0  0  0  0  0  0  0
   10.6336  -16.1546   23.1174 C   0  0  0  0  0  0  0  0  0  0  0  0
   10.8387  -14.9490   23.4133 O   0  0  0  0  0  0  0  0  0  0  0  0
   11.5625  -17.0613   23.7631 N   0  0  0  0  0  0  0  0  0  0  0  0
   12.6540  -16.5885   24.5739 C   0  0  1  0  0  0  0  0  0  0  0  0
   12.8953  -17.3724   25.8172 C   0  0  0  0  0  0  0  0  0  0  0  0
   11.7636  -17.3379   26.8161 C   0  0  0  0  0  0  0  0  0  0  0  0
   12.0456  -18.2609   27.9820 C   0  0  0  0  0  0  0  0  0  0  0  0
   10.9582  -18.1608   29.0341 C   0  0  0  0  0  0  0  0  0  0  0  0
   11.3364  -19.0480   30.1405 N   0  0  0  0  0  0  0  0  0  0  0  0
   13.9455  -16.6204   23.7948 C   0  0  0  0  0  0  0  0  0  0  0  0
   15.0623  -16.0537   24.4003 O   0  0  0  0  0  0  0  0  0  0  0  0
   13.9664  -17.1400   22.6648 O   0  0  0  0  0  0  0  0  0  0  0  0
  2  1  1  1
  2 10  1  0
  3  2  1  0
  3  4  1  0
  4  5  2  0
  5  6  1  0
  7  6  2  0
  8  7  1  0
  9  4  1  0
  9  8  2  0
 10 11  2  0
 12 13  1  0
 13 15  1  0
 14 13  2  0
 16 15  1  0
 17 16  1  6
 17 19  1  0
 18 17  1  0
 18 10  1  0
 19 21  1  0
 19 20  2  0
 21 22  1  0
 22 28  1  0
 22 23  1  1
 24 25  1  0
 24 23  1  0
 26 25  1  0
 27 26  1  0
 28 30  2  0
 28 29  1  0
M  END
$$$$
