FQK.pdb
     RDKit          3D

 30 30  0  0  1  0  0  0  0  0999 V2000
    8.5903  -15.7219   16.1056 N   0  0  0  0  0  0  0  0  0  0  0  0
    8.8122  -14.8277   17.2276 C   0  0  1  0  0  0  0  0  0  0  0  0
    7.4577  -14.4665   17.7934 C   0  0  0  0  0  0  0  0  0  0  0  0
    7.6290  -13.8365   19.1125 C   0  0  0  0  0  0  0  0  0  0  0  0
    7.9542  -12.5006   19.2688 C   0  0  0  0  0  0  0  0  0  0  0  0
    8.1175  -11.9014   20.4983 C   0  0  0  0  0  0  0  0  0  0  0  0
    7.9527  -12.6542   21.6433 C   0  0  0  0  0  0  0  0  0  0  0  0
    7.6313  -13.9766   21.5330 C   0  0  0  0  0  0  0  0  0  0  0  0
    7.4718  -14.5597   20.2893 C   0  0  0  0  0  0  0  0  0  0  0  0
    9.6821  -15.4786   18.2312 C   0  0  0  0  0  0  0  0  0  0  0  0
    9.5918  -16.7090   18.4442 O   0  0  0  0  0  0  0  0  0  0  0  0
   15.2718  -13.8445   17.5139 N   0  0  0  0  0  0  0  0  0  0  0  0
   15.4648  -14.6724   18.6424 C   0  0  0  0  0  0  0  0  0  0  0  0
   16.6314  -14.8590   19.0611 O   0  0  0  0  0  0  0  0  0  0  0  0
   14.3032  -15.2859   19.3008 C   0  0  0  0  0  0  0  0  0  0  0  0
   12.9632  -14.7911   18.8917 C   0  0  0  0  0  0  0  0  0  0  0  0
   11.7698  -15.3596   19.5570 C   0  0  2  0  0  0  0  0  0  0  0  0
   10.6085  -14.7004   18.9411 N   0  0  0  0  0  0  0  0  0  0  0  0
   11.6555  -15.2908   21.0093 C   0  0  0  0  0  0  0  0  0  0  0  0
   11.9779  -14.3011   21.7161 O   0  0  0  0  0  0  0  0  0  0  0  0
   11.1437  -16.4003   21.7896 N   0  0  0  0  0  0  0  0  0  0  0  0
   11.6092  -16.6763   23.1236 C   0  0  1  0  0  0  0  0  0  0  0  0
   11.3009  -18.0451   23.6232 C   0  0  0  0  0  0  0  0  0  0  0  0
   11.7725  -18.3260   25.0298 C   0  0  0  0  0  0  0  0  0  0  0  0
   11.5275  -19.7726   25.4015 C   0  0  0  0  0  0  0  0  0  0  0  0
   11.8513  -20.0244   26.8614 C   0  0  0  0  0  0  0  0  0  0  0  0
   11.5965  -21.4451   27.1276 N   0  0  0  0  0  0  0  0  0  0  0  0
   13.1078  -16.5226   23.2040 C   0  0  0  0  0  0  0  0  0  0  0  0
   13.6038  -15.6806   24.1940 O   0  0  0  0  0  0  0  0  0  0  0  0
   13.8308  -17.1394   22.4015 O   0  0  0  0  0  0  0  0  0  0  0  0
  2  1  1  6
  2 10  1  0
  3  2  1  0
  3  4  1  0
  4  5  2  0
  5  6  1  0
  7  6  2  0
  8  7  1  0
  9  4  1  0
  9  8  2  0
 10 11  2  0
 12 13  1  0
 13 15  1  0
 14 13  2  0
 16 15  1  0
 17 16  1  6
 17 19  1  0
 18 17  1  0
 18 10  1  0
 19 21  1  0
 19 20  2  0
 21 22  1  0
 22 28  1  0
 22 23  1  6
 24 25  1  0
 24 23  1  0
 26 25  1  0
 27 26  1  0
 28 30  2  0
 28 29  1  0
M  END
$$$$
