FQK.pdb
     RDKit          3D

 30 30  0  0  1  0  0  0  0  0999 V2000
    6.0848  -17.3988   25.8742 N   0  0  0  0  0  0  0  0  0  0  0  0
    5.9090  -16.5558   24.7053 C   0  0  1  0  0  0  0  0  0  0  0  0
    5.3225  -15.2447   25.1769 C   0  0  0  0  0  0  0  0  0  0  0  0
    6.3512  -14.4782   25.8985 C   0  0  0  0  0  0  0  0  0  0  0  0
    6.8962  -14.8997   27.0985 C   0  0  0  0  0  0  0  0  0  0  0  0
    7.8587  -14.1899   27.7821 C   0  0  0  0  0  0  0  0  0  0  0  0
    8.3152  -12.9964   27.2603 C   0  0  0  0  0  0  0  0  0  0  0  0
    7.8031  -12.5448   26.0779 C   0  0  0  0  0  0  0  0  0  0  0  0
    6.8373  -13.2722   25.4068 C   0  0  0  0  0  0  0  0  0  0  0  0
    7.2028  -16.3726   24.0124 C   0  0  0  0  0  0  0  0  0  0  0  0
    8.2163  -17.0051   24.3865 O   0  0  0  0  0  0  0  0  0  0  0  0
    8.0594  -12.6062   18.9042 N   0  0  0  0  0  0  0  0  0  0  0  0
    7.8928  -13.9720   18.5831 C   0  0  0  0  0  0  0  0  0  0  0  0
    7.6530  -14.2870   17.3938 O   0  0  0  0  0  0  0  0  0  0  0  0
    8.0106  -14.9865   19.6396 C   0  0  0  0  0  0  0  0  0  0  0  0
    8.2407  -14.4905   21.0212 C   0  0  0  0  0  0  0  0  0  0  0  0
    8.4874  -15.4812   22.0925 C   0  0  2  0  0  0  0  0  0  0  0  0
    7.2797  -15.4816   22.9316 N   0  0  0  0  0  0  0  0  0  0  0  0
    9.6680  -15.3464   22.9380 C   0  0  0  0  0  0  0  0  0  0  0  0
    9.9512  -14.3362   23.6326 O   0  0  0  0  0  0  0  0  0  0  0  0
   10.6527  -16.4045   23.0510 N   0  0  0  0  0  0  0  0  0  0  0  0
   11.7189  -16.3570   24.0172 C   0  0  1  0  0  0  0  0  0  0  0  0
   11.7110  -17.4649   25.0126 C   0  0  0  0  0  0  0  0  0  0  0  0
   12.8703  -17.4543   25.9798 C   0  0  0  0  0  0  0  0  0  0  0  0
   12.8242  -18.6630   26.8896 C   0  0  0  0  0  0  0  0  0  0  0  0
   13.9625  -18.6373   27.8911 C   0  0  0  0  0  0  0  0  0  0  0  0
   13.8567  -19.8538   28.7055 N   0  0  0  0  0  0  0  0  0  0  0  0
   13.0603  -16.4142   23.3291 C   0  0  0  0  0  0  0  0  0  0  0  0
   13.0657  -16.7738   21.9854 O   0  0  0  0  0  0  0  0  0  0  0  0
   14.0904  -16.1443   23.9720 O   0  0  0  0  0  0  0  0  0  0  0  0
  2  1  1  1
  2 10  1  0
  3  2  1  0
  3  4  1  0
  4  5  2  0
  5  6  1  0
  7  6  2  0
  8  7  1  0
  9  4  1  0
  9  8  2  0
 10 11  2  0
 12 13  1  0
 13 15  1  0
 14 13  2  0
 16 15  1  0
 17 16  1  6
 17 19  1  0
 18 17  1  0
 18 10  1  0
 19 21  1  0
 19 20  2  0
 21 22  1  0
 22 28  1  0
 22 23  1  1
 24 25  1  0
 24 23  1  0
 26 25  1  0
 27 26  1  0
 28 30  2  0
 28 29  1  0
M  END
$$$$
