FQK.pdb
     RDKit          3D

 30 30  0  0  1  0  0  0  0  0999 V2000
    5.6700  -17.5953   25.0366 N   0  0  0  0  0  0  0  0  0  0  0  0
    6.2609  -16.2702   24.9829 C   0  0  1  0  0  0  0  0  0  0  0  0
    6.7029  -15.9146   26.3842 C   0  0  0  0  0  0  0  0  0  0  0  0
    6.7528  -14.4505   26.5263 C   0  0  0  0  0  0  0  0  0  0  0  0
    7.9396  -13.7392   26.5454 C   0  0  0  0  0  0  0  0  0  0  0  0
    7.9975  -12.3693   26.6786 C   0  0  0  0  0  0  0  0  0  0  0  0
    6.8242  -11.6527   26.8003 C   0  0  0  0  0  0  0  0  0  0  0  0
    5.6313  -12.3167   26.7860 C   0  0  0  0  0  0  0  0  0  0  0  0
    5.5942  -13.6925   26.6514 C   0  0  0  0  0  0  0  0  0  0  0  0
    7.3843  -16.2538   24.0210 C   0  0  0  0  0  0  0  0  0  0  0  0
    8.1503  -17.2395   23.9257 O   0  0  0  0  0  0  0  0  0  0  0  0
    9.0918  -15.4121   18.9927 N   0  0  0  0  0  0  0  0  0  0  0  0
    7.7709  -14.9285   19.1250 C   0  0  0  0  0  0  0  0  0  0  0  0
    6.9278  -15.2294   18.2477 O   0  0  0  0  0  0  0  0  0  0  0  0
    7.4143  -14.0963   20.2823 C   0  0  0  0  0  0  0  0  0  0  0  0
    8.4372  -13.9632   21.3518 C   0  0  0  0  0  0  0  0  0  0  0  0
    8.6801  -15.1208   22.2412 C   0  0  2  0  0  0  0  0  0  0  0  0
    7.5805  -15.1207   23.2177 N   0  0  0  0  0  0  0  0  0  0  0  0
    9.9540  -15.2338   22.9421 C   0  0  0  0  0  0  0  0  0  0  0  0
   10.3513  -14.4626   23.8534 O   0  0  0  0  0  0  0  0  0  0  0  0
   10.9063  -16.2826   22.6337 N   0  0  0  0  0  0  0  0  0  0  0  0
   12.1148  -16.4661   23.3941 C   0  0  1  0  0  0  0  0  0  0  0  0
   12.1368  -17.6852   24.2495 C   0  0  0  0  0  0  0  0  0  0  0  0
   11.3244  -17.5823   25.5180 C   0  0  0  0  0  0  0  0  0  0  0  0
   11.3268  -18.8971   26.2676 C   0  0  0  0  0  0  0  0  0  0  0  0
   10.5165  -18.7994   27.5456 C   0  0  0  0  0  0  0  0  0  0  0  0
   10.5961  -20.1031   28.2152 N   0  0  0  0  0  0  0  0  0  0  0  0
   13.3076  -16.5701   22.4763 C   0  0  0  0  0  0  0  0  0  0  0  0
   13.0493  -16.6469   21.1116 O   0  0  0  0  0  0  0  0  0  0  0  0
   14.4535  -16.5832   22.9601 O   0  0  0  0  0  0  0  0  0  0  0  0
  2  1  1  1
  2 10  1  0
  3  2  1  0
  3  4  1  0
  4  5  2  0
  5  6  1  0
  7  6  2  0
  8  7  1  0
  9  4  1  0
  9  8  2  0
 10 11  2  0
 12 13  1  0
 13 15  1  0
 14 13  2  0
 16 15  1  0
 17 16  1  1
 17 19  1  0
 18 17  1  0
 18 10  1  0
 19 21  1  0
 19 20  2  0
 21 22  1  0
 22 28  1  0
 22 23  1  6
 24 25  1  0
 24 23  1  0
 26 25  1  0
 27 26  1  0
 28 30  2  0
 28 29  1  0
M  END
$$$$
