MQQ.pdb
     RDKit          3D

 27 26  0  0  1  0  0  0  0  0999 V2000
   15.8748  -15.6469  -14.3271 C   0  0  0  0  0  0  0  0  0  0  0  0
   16.7603  -14.0761  -14.3922 S   0  0  0  0  0  0  0  0  0  0  0  0
   17.2905  -13.7987  -16.1159 C   0  0  0  0  0  0  0  0  0  0  0  0
   18.1315  -12.5431  -16.1242 C   0  0  0  0  0  0  0  0  0  0  0  0
   18.5459  -12.2595  -17.5472 C   0  0  2  0  0  0  0  0  0  0  0  0
   19.5860  -13.1670  -17.9839 N   0  0  0  0  0  0  0  0  0  0  0  0
   18.9591  -10.8516  -17.6625 C   0  0  0  0  0  0  0  0  0  0  0  0
   20.1881  -10.5859  -17.5889 O   0  0  0  0  0  0  0  0  0  0  0  0
   15.5287   -5.8879  -19.3995 N   0  0  0  0  0  0  0  0  0  0  0  0
   16.8107   -5.3064  -19.2054 C   0  0  0  0  0  0  0  0  0  0  0  0
   16.9911   -4.1043  -19.4836 O   0  0  0  0  0  0  0  0  0  0  0  0
   17.9365   -6.1208  -18.6736 C   0  0  0  0  0  0  0  0  0  0  0  0
   17.4582   -7.5368  -18.4505 C   0  0  0  0  0  0  0  0  0  0  0  0
   18.5732   -8.4294  -17.9717 C   0  0  2  0  0  0  0  0  0  0  0  0
   18.0654   -9.7744  -17.8496 N   0  0  0  0  0  0  0  0  0  0  0  0
   18.9650   -7.9294  -16.6135 C   0  0  0  0  0  0  0  0  0  0  0  0
   18.5153   -8.5110  -15.6131 O   0  0  0  0  0  0  0  0  0  0  0  0
   20.2181   -8.8197  -12.5576 N   0  0  0  0  0  0  0  0  0  0  0  0
   21.3858   -8.0450  -12.3054 C   0  0  0  0  0  0  0  0  0  0  0  0
   21.8442   -7.8286  -11.1595 O   0  0  0  0  0  0  0  0  0  0  0  0
   22.0858   -7.4673  -13.5031 C   0  0  0  0  0  0  0  0  0  0  0  0
   21.3214   -7.7723  -14.7624 C   0  0  0  0  0  0  0  0  0  0  0  0
   20.5810   -6.5674  -15.2221 C   0  0  2  0  0  0  0  0  0  0  0  0
   19.8273   -6.8202  -16.4416 N   0  0  0  0  0  0  0  0  0  0  0  0
   21.3452   -5.3215  -15.2918 C   0  0  0  0  0  0  0  0  0  0  0  0
   22.0053   -4.9154  -14.2638 O   0  0  0  0  0  0  0  0  0  0  0  0
   21.4581   -4.4785  -16.3818 O   0  0  0  0  0  0  0  0  0  0  0  0
  2  1  1  0
  3  4  1  0
  3  2  1  0
  4  5  1  0
  5  6  1  1
  7  5  1  0
  7  8  2  0
  9 10  1  0
 10 12  1  0
 10 11  2  0
 12 13  1  0
 14 13  1  1
 14 15  1  0
 15  7  1  0
 16 14  1  0
 17 16  2  0
 19 20  2  0
 19 18  1  0
 21 19  1  0
 22 21  1  0
 23 22  1  6
 23 24  1  0
 24 16  1  0
 25 23  1  0
 26 25  2  0
 27 25  1  0
M  END
$$$$
