MQQ.pdb
     RDKit          3D

 27 26  0  0  1  0  0  0  0  0999 V2000
   27.1284  -19.3364   -4.6631 C   0  0  0  0  0  0  0  0  0  0  0  0
   28.6736  -19.5820   -5.5618 S   0  0  0  0  0  0  0  0  0  0  0  0
   28.3401  -20.7060   -6.9598 C   0  0  0  0  0  0  0  0  0  0  0  0
   27.3366  -20.0152   -7.8541 C   0  0  0  0  0  0  0  0  0  0  0  0
   27.0408  -20.9217   -9.0236 C   0  0  2  0  0  0  0  0  0  0  0  0
   28.2595  -21.3750   -9.6603 N   0  0  0  0  0  0  0  0  0  0  0  0
   26.1527  -20.2244   -9.9677 C   0  0  0  0  0  0  0  0  0  0  0  0
   26.4291  -19.0343  -10.2739 O   0  0  0  0  0  0  0  0  0  0  0  0
   25.9767  -22.7843  -14.9888 N   0  0  0  0  0  0  0  0  0  0  0  0
   26.2940  -21.4062  -15.1275 C   0  0  0  0  0  0  0  0  0  0  0  0
   26.5810  -20.9497  -16.2519 O   0  0  0  0  0  0  0  0  0  0  0  0
   26.2860  -20.5064  -13.9427 C   0  0  0  0  0  0  0  0  0  0  0  0
   25.8967  -21.3048  -12.7201 C   0  0  0  0  0  0  0  0  0  0  0  0
   24.7658  -20.6522  -11.9690 C   0  0  2  0  0  0  0  0  0  0  0  0
   25.0058  -20.8030  -10.5542 N   0  0  0  0  0  0  0  0  0  0  0  0
   23.5214  -21.4036  -12.3367 C   0  0  0  0  0  0  0  0  0  0  0  0
   23.4988  -22.6338  -12.1714 O   0  0  0  0  0  0  0  0  0  0  0  0
   18.4006  -21.4976  -10.0406 N   0  0  0  0  0  0  0  0  0  0  0  0
   17.9502  -22.1169  -11.2410 C   0  0  0  0  0  0  0  0  0  0  0  0
   16.8398  -22.6857  -11.3571 O   0  0  0  0  0  0  0  0  0  0  0  0
   18.8830  -22.0686  -12.4182 C   0  0  0  0  0  0  0  0  0  0  0  0
   20.1504  -21.3409  -12.0610 C   0  0  0  0  0  0  0  0  0  0  0  0
   21.1334  -21.4393  -13.1725 C   0  0  2  0  0  0  0  0  0  0  0  0
   22.3797  -20.7535  -12.8634 N   0  0  0  0  0  0  0  0  0  0  0  0
   20.6382  -21.1115  -14.5098 C   0  0  0  0  0  0  0  0  0  0  0  0
   19.6397  -21.7592  -15.0009 O   0  0  0  0  0  0  0  0  0  0  0  0
   21.1306  -20.1393  -15.3606 O   0  0  0  0  0  0  0  0  0  0  0  0
  2  1  1  0
  3  4  1  0
  3  2  1  0
  4  5  1  0
  5  6  1  6
  7  5  1  0
  7  8  2  0
  9 10  1  0
 10 12  1  0
 10 11  2  0
 12 13  1  0
 14 13  1  6
 14 15  1  0
 15  7  1  0
 16 14  1  0
 17 16  2  0
 19 20  2  0
 19 18  1  0
 21 19  1  0
 22 21  1  0
 23 22  1  1
 23 24  1  0
 24 16  1  0
 25 23  1  0
 26 25  2  0
 27 25  1  0
M  END
$$$$
