MQQ.pdb
     RDKit          3D

 27 26  0  0  1  0  0  0  0  0999 V2000
   29.6076  -20.3132  -19.0499 C   0  0  0  0  0  0  0  0  0  0  0  0
   30.0259  -18.5592  -18.9839 S   0  0  0  0  0  0  0  0  0  0  0  0
   29.0408  -17.7944  -17.6522 C   0  0  0  0  0  0  0  0  0  0  0  0
   28.1536  -18.8759  -17.0802 C   0  0  0  0  0  0  0  0  0  0  0  0
   27.2223  -18.2431  -16.0756 C   0  0  2  0  0  0  0  0  0  0  0  0
   27.9027  -17.2378  -15.2867 N   0  0  0  0  0  0  0  0  0  0  0  0
   26.6272  -19.2939  -15.2341 C   0  0  0  0  0  0  0  0  0  0  0  0
   26.1069  -20.2883  -15.8059 O   0  0  0  0  0  0  0  0  0  0  0  0
   26.7667  -20.0192   -8.9862 N   0  0  0  0  0  0  0  0  0  0  0  0
   25.8462  -21.0260   -9.3839 C   0  0  0  0  0  0  0  0  0  0  0  0
   25.4077  -21.8298   -8.5373 O   0  0  0  0  0  0  0  0  0  0  0  0
   25.4033  -21.1273  -10.8006 C   0  0  0  0  0  0  0  0  0  0  0  0
   26.1774  -20.1303  -11.6315 C   0  0  0  0  0  0  0  0  0  0  0  0
   25.8308  -20.2396  -13.0934 C   0  0  2  0  0  0  0  0  0  0  0  0
   26.5996  -19.2603  -13.8227 N   0  0  0  0  0  0  0  0  0  0  0  0
   24.3741  -19.9045  -13.2114 C   0  0  0  0  0  0  0  0  0  0  0  0
   24.0257  -18.7183  -13.0978 O   0  0  0  0  0  0  0  0  0  0  0  0
   20.9399  -21.5606  -17.6803 N   0  0  0  0  0  0  0  0  0  0  0  0
   19.9118  -20.9449  -16.9115 C   0  0  0  0  0  0  0  0  0  0  0  0
   18.7709  -20.6817  -17.3578 O   0  0  0  0  0  0  0  0  0  0  0  0
   20.2453  -20.6036  -15.4865 C   0  0  0  0  0  0  0  0  0  0  0  0
   21.6580  -21.0057  -15.1615 C   0  0  0  0  0  0  0  0  0  0  0  0
   22.0062  -20.5954  -13.7752 C   0  0  2  0  0  0  0  0  0  0  0  0
   23.3921  -20.8963  -13.4470 N   0  0  0  0  0  0  0  0  0  0  0  0
   21.0834  -21.0172  -12.7208 C   0  0  0  0  0  0  0  0  0  0  0  0
   21.3203  -22.0922  -12.0532 O   0  0  0  0  0  0  0  0  0  0  0  0
   19.9264  -20.3720  -12.3253 O   0  0  0  0  0  0  0  0  0  0  0  0
  2  1  1  0
  3  4  1  0
  3  2  1  0
  4  5  1  0
  5  6  1  1
  7  5  1  0
  7  8  2  0
  9 10  1  0
 10 12  1  0
 10 11  2  0
 12 13  1  0
 14 13  1  1
 14 15  1  0
 15  7  1  0
 16 14  1  0
 17 16  2  0
 19 20  2  0
 19 18  1  0
 21 19  1  0
 22 21  1  0
 23 22  1  6
 23 24  1  0
 24 16  1  0
 25 23  1  0
 26 25  2  0
 27 25  1  0
M  END
$$$$
