MQQ.pdb
     RDKit          3D

 27 26  0  0  1  0  0  0  0  0999 V2000
   23.8890  -13.5598  -14.9774 C   0  0  0  0  0  0  0  0  0  0  0  0
   25.6675  -13.5497  -15.2819 S   0  0  0  0  0  0  0  0  0  0  0  0
   25.9409  -13.9590  -17.0389 C   0  0  0  0  0  0  0  0  0  0  0  0
   25.2985  -15.3045  -17.2855 C   0  0  0  0  0  0  0  0  0  0  0  0
   26.2275  -16.3753  -16.7683 C   0  0  2  0  0  0  0  0  0  0  0  0
   27.4195  -16.4775  -17.5837 N   0  0  0  0  0  0  0  0  0  0  0  0
   25.5019  -17.6535  -16.6909 C   0  0  0  0  0  0  0  0  0  0  0  0
   25.0458  -18.1426  -17.7582 O   0  0  0  0  0  0  0  0  0  0  0  0
   26.8261  -22.5251  -16.5099 N   0  0  0  0  0  0  0  0  0  0  0  0
   25.6552  -22.9878  -15.8511 C   0  0  0  0  0  0  0  0  0  0  0  0
   25.3087  -24.1794  -15.9738 O   0  0  0  0  0  0  0  0  0  0  0  0
   24.8417  -22.0619  -15.0177 C   0  0  0  0  0  0  0  0  0  0  0  0
   25.5033  -20.7034  -15.0014 C   0  0  0  0  0  0  0  0  0  0  0  0
   24.5839  -19.6329  -15.5286 C   0  0  2  0  0  0  0  0  0  0  0  0
   25.2811  -18.3701  -15.4943 N   0  0  0  0  0  0  0  0  0  0  0  0
   23.4174  -19.5732  -14.5885 C   0  0  0  0  0  0  0  0  0  0  0  0
   23.5973  -19.1234  -13.4454 O   0  0  0  0  0  0  0  0  0  0  0  0
   18.9996  -16.2872  -16.3969 N   0  0  0  0  0  0  0  0  0  0  0  0
   18.6744  -17.2631  -15.4125 C   0  0  0  0  0  0  0  0  0  0  0  0
   17.7611  -17.1217  -14.5664 O   0  0  0  0  0  0  0  0  0  0  0  0
   19.4917  -18.5242  -15.4146 C   0  0  0  0  0  0  0  0  0  0  0  0
   20.2782  -18.6485  -14.1381 C   0  0  0  0  0  0  0  0  0  0  0  0
   20.9691  -19.9642  -14.0830 C   0  0  2  0  0  0  0  0  0  0  0  0
   22.1257  -20.0124  -14.9656 N   0  0  0  0  0  0  0  0  0  0  0  0
   20.1220  -21.1499  -14.2153 C   0  0  0  0  0  0  0  0  0  0  0  0
   20.3147  -21.9708  -15.1882 O   0  0  0  0  0  0  0  0  0  0  0  0
   19.0847  -21.5244  -13.3814 O   0  0  0  0  0  0  0  0  0  0  0  0
  2  1  1  0
  3  4  1  0
  3  2  1  0
  4  5  1  0
  5  6  1  6
  7  5  1  0
  7  8  2  0
  9 10  1  0
 10 12  1  0
 10 11  2  0
 12 13  1  0
 14 13  1  1
 14 15  1  0
 15  7  1  0
 16 14  1  0
 17 16  2  0
 19 20  2  0
 19 18  1  0
 21 19  1  0
 22 21  1  0
 23 22  1  6
 23 24  1  0
 24 16  1  0
 25 23  1  0
 26 25  2  0
 27 25  1  0
M  END
$$$$
