MQQ.pdb
     RDKit          3D

 27 26  0  0  1  0  0  0  0  0999 V2000
   30.8787  -21.1885   -8.5994 C   0  0  0  0  0  0  0  0  0  0  0  0
   31.5479  -22.3888   -9.7687 S   0  0  0  0  0  0  0  0  0  0  0  0
   31.2660  -21.7509  -11.4548 C   0  0  0  0  0  0  0  0  0  0  0  0
   30.0334  -20.8783  -11.3981 C   0  0  0  0  0  0  0  0  0  0  0  0
   29.0630  -21.3599  -12.4486 C   0  0  2  0  0  0  0  0  0  0  0  0
   29.7547  -21.9685  -13.5654 N   0  0  0  0  0  0  0  0  0  0  0  0
   28.2101  -20.2384  -12.8741 C   0  0  0  0  0  0  0  0  0  0  0  0
   27.3190  -19.8360  -12.0801 O   0  0  0  0  0  0  0  0  0  0  0  0
   28.6825  -16.4607  -17.8758 N   0  0  0  0  0  0  0  0  0  0  0  0
   27.4443  -16.0544  -17.3093 C   0  0  0  0  0  0  0  0  0  0  0  0
   26.8321  -15.0837  -17.7970 O   0  0  0  0  0  0  0  0  0  0  0  0
   26.8750  -16.7779  -16.1406 C   0  0  0  0  0  0  0  0  0  0  0  0
   27.8571  -17.8337  -15.6883 C   0  0  0  0  0  0  0  0  0  0  0  0
   27.3220  -18.6260  -14.5243 C   0  0  2  0  0  0  0  0  0  0  0  0
   28.3240  -19.5819  -14.1192 N   0  0  0  0  0  0  0  0  0  0  0  0
   26.1182  -19.3637  -15.0293 C   0  0  0  0  0  0  0  0  0  0  0  0
   26.2396  -20.5607  -15.3355 O   0  0  0  0  0  0  0  0  0  0  0  0
   23.7739  -22.7475  -13.2641 N   0  0  0  0  0  0  0  0  0  0  0  0
   22.4446  -22.2441  -13.1822 C   0  0  0  0  0  0  0  0  0  0  0  0
   21.4358  -22.9663  -13.0060 O   0  0  0  0  0  0  0  0  0  0  0  0
   22.2748  -20.7572  -13.3187 C   0  0  0  0  0  0  0  0  0  0  0  0
   23.6010  -20.0929  -13.5702 C   0  0  0  0  0  0  0  0  0  0  0  0
   23.5922  -19.4040  -14.8880 C   0  0  2  0  0  0  0  0  0  0  0  0
   24.8562  -18.7375  -15.1657 N   0  0  0  0  0  0  0  0  0  0  0  0
   22.4407  -18.5447  -15.1651 C   0  0  0  0  0  0  0  0  0  0  0  0
   22.5432  -17.2692  -15.0236 O   0  0  0  0  0  0  0  0  0  0  0  0
   21.1873  -18.9491  -15.5857 O   0  0  0  0  0  0  0  0  0  0  0  0
  2  1  1  0
  3  4  1  0
  3  2  1  0
  4  5  1  0
  5  6  1  6
  7  5  1  0
  7  8  2  0
  9 10  1  0
 10 12  1  0
 10 11  2  0
 12 13  1  0
 14 13  1  6
 14 15  1  0
 15  7  1  0
 16 14  1  0
 17 16  2  0
 19 20  2  0
 19 18  1  0
 21 19  1  0
 22 21  1  0
 23 22  1  1
 23 24  1  0
 24 16  1  0
 25 23  1  0
 26 25  2  0
 27 25  1  0
M  END
$$$$
