MQQ.pdb
     RDKit          3D

 27 26  0  0  1  0  0  0  0  0999 V2000
   26.9744  -18.3324   -6.4421 C   0  0  0  0  0  0  0  0  0  0  0  0
   28.0468  -19.7333   -6.0640 S   0  0  0  0  0  0  0  0  0  0  0  0
   27.8356  -20.9769   -7.3823 C   0  0  0  0  0  0  0  0  0  0  0  0
   27.3053  -20.2498   -8.5964 C   0  0  0  0  0  0  0  0  0  0  0  0
   27.0613  -21.2637   -9.6871 C   0  0  2  0  0  0  0  0  0  0  0  0
   28.2873  -21.9327  -10.0685 N   0  0  0  0  0  0  0  0  0  0  0  0
   26.4161  -20.6012  -10.8322 C   0  0  0  0  0  0  0  0  0  0  0  0
   27.1515  -20.0151  -11.6701 O   0  0  0  0  0  0  0  0  0  0  0  0
   25.0363  -24.2656  -14.2713 N   0  0  0  0  0  0  0  0  0  0  0  0
   24.3790  -23.2580  -15.0276 C   0  0  0  0  0  0  0  0  0  0  0  0
   23.9897  -23.5110  -16.1849 O   0  0  0  0  0  0  0  0  0  0  0  0
   24.1528  -21.9062  -14.4489 C   0  0  0  0  0  0  0  0  0  0  0  0
   24.7216  -21.8677  -13.0493 C   0  0  0  0  0  0  0  0  0  0  0  0
   24.5067  -20.5254  -12.4005 C   0  0  2  0  0  0  0  0  0  0  0  0
   25.0217  -20.5778  -11.0537 N   0  0  0  0  0  0  0  0  0  0  0  0
   23.0236  -20.3103  -12.3489 C   0  0  0  0  0  0  0  0  0  0  0  0
   22.3357  -21.0753  -11.6541 O   0  0  0  0  0  0  0  0  0  0  0  0
   20.0058  -17.1329  -16.8245 N   0  0  0  0  0  0  0  0  0  0  0  0
   18.8962  -17.7124  -16.1462 C   0  0  0  0  0  0  0  0  0  0  0  0
   17.7111  -17.6182  -16.5422 O   0  0  0  0  0  0  0  0  0  0  0  0
   19.1965  -18.4745  -14.8863 C   0  0  0  0  0  0  0  0  0  0  0  0
   20.6808  -18.5499  -14.6532 C   0  0  0  0  0  0  0  0  0  0  0  0
   20.9678  -19.2474  -13.3716 C   0  0  2  0  0  0  0  0  0  0  0  0
   22.3908  -19.2666  -13.0655 N   0  0  0  0  0  0  0  0  0  0  0  0
   20.3450  -20.5591  -13.1912 C   0  0  0  0  0  0  0  0  0  0  0  0
   20.7590  -21.5659  -13.8787 O   0  0  0  0  0  0  0  0  0  0  0  0
   19.3130  -20.8747  -12.3270 O   0  0  0  0  0  0  0  0  0  0  0  0
  2  1  1  0
  3  4  1  0
  3  2  1  0
  4  5  1  0
  5  6  1  6
  7  5  1  0
  7  8  2  0
  9 10  1  0
 10 12  1  0
 10 11  2  0
 12 13  1  0
 14 13  1  1
 14 15  1  0
 15  7  1  0
 16 14  1  0
 17 16  2  0
 19 20  2  0
 19 18  1  0
 21 19  1  0
 22 21  1  0
 23 22  1  6
 23 24  1  0
 24 16  1  0
 25 23  1  0
 26 25  2  0
 27 25  1  0
M  END
$$$$
