KAL.pdb
     RDKit          3D

 23 22  0  0  1  0  0  0  0  0999 V2000
    9.4418  -15.9638   19.2551 N   0  0  0  0  0  0  0  0  0  0  0  0
    9.0576  -14.7114   19.8807 C   0  0  1  0  0  0  0  0  0  0  0  0
    7.9725  -14.0346   19.0812 C   0  0  0  0  0  0  0  0  0  0  0  0
    8.1944  -14.3463   17.6298 C   0  0  0  0  0  0  0  0  0  0  0  0
    7.6496  -13.2695   16.7181 C   0  0  0  0  0  0  0  0  0  0  0  0
    7.9118  -13.6834   15.2818 C   0  0  0  0  0  0  0  0  0  0  0  0
    7.3387  -12.7473   14.3440 N   0  0  0  0  0  0  0  0  0  0  0  0
    8.6203  -15.0140   21.2689 C   0  0  0  0  0  0  0  0  0  0  0  0
    8.1521  -14.1175   22.0313 O   0  0  0  0  0  0  0  0  0  0  0  0
    8.4524  -18.1159   23.3800 C   0  0  0  0  0  0  0  0  0  0  0  0
    8.1876  -16.6319   23.1500 C   0  0  2  0  0  0  0  0  0  0  0  0
    8.6988  -16.3221   21.8281 N   0  0  0  0  0  0  0  0  0  0  0  0
    8.8277  -15.8257   24.2011 C   0  0  0  0  0  0  0  0  0  0  0  0
   10.0350  -15.5091   24.0630 O   0  0  0  0  0  0  0  0  0  0  0  0
    5.6787  -12.1348   26.1632 C   0  0  0  0  0  0  0  0  0  0  0  0
    6.8605  -12.9163   25.6973 C   0  0  1  0  0  0  0  0  0  0  0  0
    7.8363  -12.0226   24.9441 C   0  0  0  0  0  0  0  0  0  0  0  0
    7.5455  -13.6384   26.7946 C   0  0  0  0  0  0  0  0  0  0  0  0
    8.6115  -14.5665   26.3433 C   0  0  2  0  0  0  0  0  0  0  0  0
    8.0677  -15.4347   25.3273 N   0  0  0  0  0  0  0  0  0  0  0  0
    9.3162  -15.3231   27.3835 C   0  0  0  0  0  0  0  0  0  0  0  0
   10.0146  -14.7862   28.3115 O   0  0  0  0  0  0  0  0  0  0  0  0
    9.2762  -16.7191   27.4440 O   0  0  0  0  0  0  0  0  0  0  0  0
  2  3  1  0
  2  1  1  6
  4  3  1  0
  5  6  1  0
  5  4  1  0
  7  6  1  0
  8  2  1  0
  8 12  1  0
  9  8  2  0
 11 12  1  0
 11 10  1  1
 13 11  1  0
 13 14  2  0
 16 18  1  0
 16 15  1  1
 17 16  1  0
 19 18  1  1
 19 20  1  0
 19 21  1  0
 20 13  1  0
 21 22  2  0
 21 23  1  0
M  END
$$$$
