KAL.pdb
     RDKit          3D

 23 22  0  0  1  0  0  0  0  0999 V2000
    6.5387  -17.1816   20.5112 N   0  0  0  0  0  0  0  0  0  0  0  0
    7.5379  -16.2900   21.0718 C   0  0  1  0  0  0  0  0  0  0  0  0
    7.1469  -14.8513   20.8441 C   0  0  0  0  0  0  0  0  0  0  0  0
    7.5979  -14.4539   19.4687 C   0  0  0  0  0  0  0  0  0  0  0  0
    8.2871  -13.1077   19.4536 C   0  0  0  0  0  0  0  0  0  0  0  0
    8.6001  -12.7485   18.0127 C   0  0  0  0  0  0  0  0  0  0  0  0
    9.1940  -11.4369   17.9071 N   0  0  0  0  0  0  0  0  0  0  0  0
    7.6698  -16.6093   22.5176 C   0  0  0  0  0  0  0  0  0  0  0  0
    6.6730  -16.5902   23.2988 O   0  0  0  0  0  0  0  0  0  0  0  0
   10.0874  -18.2774   24.7168 C   0  0  0  0  0  0  0  0  0  0  0  0
    9.0607  -17.1634   24.5429 C   0  0  2  0  0  0  0  0  0  0  0  0
    8.9165  -16.9551   23.1144 N   0  0  0  0  0  0  0  0  0  0  0  0
    9.4975  -15.9464   25.2450 C   0  0  0  0  0  0  0  0  0  0  0  0
   10.3865  -15.2346   24.7159 O   0  0  0  0  0  0  0  0  0  0  0  0
    6.2626  -12.3456   26.5658 C   0  0  0  0  0  0  0  0  0  0  0  0
    7.5266  -13.0857   26.2852 C   0  0  1  0  0  0  0  0  0  0  0  0
    8.4885  -12.2250   25.4775 C   0  0  0  0  0  0  0  0  0  0  0  0
    8.1806  -13.5994   27.5112 C   0  0  0  0  0  0  0  0  0  0  0  0
    9.3463  -14.4815   27.2582 C   0  0  2  0  0  0  0  0  0  0  0  0
    8.9059  -15.6184   26.4865 N   0  0  0  0  0  0  0  0  0  0  0  0
   10.1344  -14.8904   28.4255 C   0  0  0  0  0  0  0  0  0  0  0  0
   10.1899  -16.0895   28.8685 O   0  0  0  0  0  0  0  0  0  0  0  0
   10.9042  -13.9825   29.1585 O   0  0  0  0  0  0  0  0  0  0  0  0
  2  3  1  0
  2  1  1  1
  4  3  1  0
  5  6  1  0
  5  4  1  0
  7  6  1  0
  8  2  1  0
  8 12  1  0
  9  8  2  0
 11 12  1  0
 11 10  1  6
 13 11  1  0
 13 14  2  0
 16 18  1  0
 16 15  1  1
 17 16  1  0
 19 18  1  1
 19 20  1  0
 19 21  1  0
 20 13  1  0
 21 22  2  0
 21 23  1  0
M  END
$$$$
