KAL.pdb
     RDKit          3D

 23 22  0  0  1  0  0  0  0  0999 V2000
    7.3886  -18.0003   19.8212 N   0  0  0  0  0  0  0  0  0  0  0  0
    8.3746  -18.0989   20.8821 C   0  0  1  0  0  0  0  0  0  0  0  0
    9.6739  -17.4640   20.4541 C   0  0  0  0  0  0  0  0  0  0  0  0
   10.2766  -18.3111   19.3714 C   0  0  0  0  0  0  0  0  0  0  0  0
   11.7886  -18.2766   19.3855 C   0  0  0  0  0  0  0  0  0  0  0  0
   12.2963  -19.1773   18.2747 C   0  0  0  0  0  0  0  0  0  0  0  0
   13.7390  -19.2052   18.2282 N   0  0  0  0  0  0  0  0  0  0  0  0
    7.8067  -17.4453   22.0905 C   0  0  0  0  0  0  0  0  0  0  0  0
    7.2771  -16.2959   22.0408 O   0  0  0  0  0  0  0  0  0  0  0  0
    7.0039  -18.5203   25.5672 C   0  0  0  0  0  0  0  0  0  0  0  0
    7.2815  -17.4154   24.5536 C   0  0  2  0  0  0  0  0  0  0  0  0
    7.8210  -18.0646   23.3736 N   0  0  0  0  0  0  0  0  0  0  0  0
    8.2066  -16.4199   25.1174 C   0  0  0  0  0  0  0  0  0  0  0  0
    9.4315  -16.5267   24.8621 O   0  0  0  0  0  0  0  0  0  0  0  0
    5.8260  -11.7586   26.5251 C   0  0  0  0  0  0  0  0  0  0  0  0
    6.7916  -12.7579   25.9838 C   0  0  1  0  0  0  0  0  0  0  0  0
    7.5433  -12.1899   24.7878 C   0  0  0  0  0  0  0  0  0  0  0  0
    7.7349  -13.2644   27.0077 C   0  0  0  0  0  0  0  0  0  0  0  0
    8.5548  -14.4191   26.5655 C   0  0  2  0  0  0  0  0  0  0  0  0
    7.6904  -15.3802   25.9244 N   0  0  0  0  0  0  0  0  0  0  0  0
    9.4125  -15.0489   27.5748 C   0  0  0  0  0  0  0  0  0  0  0  0
    9.1877  -16.1982   28.0901 O   0  0  0  0  0  0  0  0  0  0  0  0
   10.5681  -14.4298   28.0600 O   0  0  0  0  0  0  0  0  0  0  0  0
  2  3  1  0
  2  1  1  6
  4  3  1  0
  5  6  1  0
  5  4  1  0
  7  6  1  0
  8  2  1  0
  8 12  1  0
  9  8  2  0
 11 12  1  0
 11 10  1  1
 13 11  1  0
 13 14  2  0
 16 18  1  0
 16 15  1  1
 17 16  1  0
 19 18  1  1
 19 20  1  0
 19 21  1  0
 20 13  1  0
 21 22  2  0
 21 23  1  0
M  END
$$$$
