KAL.pdb
     RDKit          3D

 23 22  0  0  1  0  0  0  0  0999 V2000
    5.9756  -17.9124   21.3021 N   0  0  0  0  0  0  0  0  0  0  0  0
    7.3806  -18.2754   21.3428 C   0  0  1  0  0  0  0  0  0  0  0  0
    7.7509  -19.0845   20.1250 C   0  0  0  0  0  0  0  0  0  0  0  0
    7.2205  -20.4768   20.3068 C   0  0  0  0  0  0  0  0  0  0  0  0
    8.2637  -21.5340   20.0213 C   0  0  0  0  0  0  0  0  0  0  0  0
    7.6109  -22.8972   20.1584 C   0  0  0  0  0  0  0  0  0  0  0  0
    8.5538  -23.9656   19.9265 N   0  0  0  0  0  0  0  0  0  0  0  0
    8.1704  -17.0196   21.4384 C   0  0  0  0  0  0  0  0  0  0  0  0
    9.4350  -17.0303   21.5081 O   0  0  0  0  0  0  0  0  0  0  0  0
    7.4404  -13.3734   21.1267 C   0  0  0  0  0  0  0  0  0  0  0  0
    8.3311  -14.5121   21.6117 C   0  0  2  0  0  0  0  0  0  0  0  0
    7.5609  -15.7319   21.4580 N   0  0  0  0  0  0  0  0  0  0  0  0
    8.7463  -14.2837   23.0045 C   0  0  0  0  0  0  0  0  0  0  0  0
    9.6451  -13.4366   23.2316 O   0  0  0  0  0  0  0  0  0  0  0  0
    6.1458  -12.2257   26.6250 C   0  0  0  0  0  0  0  0  0  0  0  0
    7.3311  -12.8169   25.9396 C   0  0  1  0  0  0  0  0  0  0  0  0
    8.6004  -12.0602   26.3068 C   0  0  0  0  0  0  0  0  0  0  0  0
    7.4870  -14.2668   26.2007 C   0  0  0  0  0  0  0  0  0  0  0  0
    8.5597  -14.9183   25.4096 C   0  0  2  0  0  0  0  0  0  0  0  0
    8.1239  -15.0210   24.0379 N   0  0  0  0  0  0  0  0  0  0  0  0
    9.0721  -16.1968   25.9134 C   0  0  0  0  0  0  0  0  0  0  0  0
    8.9750  -17.3062   25.2834 O   0  0  0  0  0  0  0  0  0  0  0  0
    9.7222  -16.3037   27.1463 O   0  0  0  0  0  0  0  0  0  0  0  0
  2  3  1  0
  2  1  1  6
  4  3  1  0
  5  6  1  0
  5  4  1  0
  7  6  1  0
  8  2  1  0
  8 12  1  0
  9  8  2  0
 11 12  1  0
 11 10  1  1
 13 11  1  0
 13 14  2  0
 16 18  1  0
 16 15  1  1
 17 16  1  0
 19 18  1  1
 19 20  1  0
 19 21  1  0
 20 13  1  0
 21 22  2  0
 21 23  1  0
M  END
$$$$
