KAL.pdb
     RDKit          3D

 23 22  0  0  1  0  0  0  0  0999 V2000
    6.5845  -15.8455   20.1175 N   0  0  0  0  0  0  0  0  0  0  0  0
    7.7971  -15.2255   20.6202 C   0  0  1  0  0  0  0  0  0  0  0  0
    7.7144  -13.7253   20.4899 C   0  0  0  0  0  0  0  0  0  0  0  0
    7.3323  -13.3967   19.0761 C   0  0  0  0  0  0  0  0  0  0  0  0
    8.4902  -13.5479   18.1149 C   0  0  0  0  0  0  0  0  0  0  0  0
    8.0206  -13.1307   16.7334 C   0  0  0  0  0  0  0  0  0  0  0  0
    9.0368  -13.3582   15.7335 N   0  0  0  0  0  0  0  0  0  0  0  0
    7.9723  -15.6532   22.0330 C   0  0  0  0  0  0  0  0  0  0  0  0
    7.0206  -15.6061   22.8674 O   0  0  0  0  0  0  0  0  0  0  0  0
   10.4571  -17.7089   23.8324 C   0  0  0  0  0  0  0  0  0  0  0  0
    9.3518  -16.6597   23.8844 C   0  0  2  0  0  0  0  0  0  0  0  0
    9.2129  -16.1403   22.5370 N   0  0  0  0  0  0  0  0  0  0  0  0
    9.6851  -15.6084   24.8582 C   0  0  0  0  0  0  0  0  0  0  0  0
   10.5664  -14.7668   24.5548 O   0  0  0  0  0  0  0  0  0  0  0  0
    6.1658  -12.5400   26.8494 C   0  0  0  0  0  0  0  0  0  0  0  0
    7.4675  -13.1436   26.4425 C   0  0  1  0  0  0  0  0  0  0  0  0
    8.4060  -12.0805   25.8880 C   0  0  0  0  0  0  0  0  0  0  0  0
    8.1186  -13.9048   27.5339 C   0  0  0  0  0  0  0  0  0  0  0  0
    9.3493  -14.6260   27.1263 C   0  0  2  0  0  0  0  0  0  0  0  0
    9.0066  -15.5788   26.0982 N   0  0  0  0  0  0  0  0  0  0  0  0
   10.1416  -15.2427   28.1954 C   0  0  0  0  0  0  0  0  0  0  0  0
   10.2635  -16.5057   28.3597 O   0  0  0  0  0  0  0  0  0  0  0  0
   10.8418  -14.4816   29.1359 O   0  0  0  0  0  0  0  0  0  0  0  0
  2  3  1  0
  2  1  1  1
  4  3  1  0
  5  6  1  0
  5  4  1  0
  7  6  1  0
  8  2  1  0
  8 12  1  0
  9  8  2  0
 11 12  1  0
 11 10  1  6
 13 11  1  0
 13 14  2  0
 16 18  1  0
 16 15  1  1
 17 16  1  0
 19 18  1  1
 19 20  1  0
 19 21  1  0
 20 13  1  0
 21 22  2  0
 21 23  1  0
M  END
$$$$
