KAL.pdb
     RDKit          3D

 23 22  0  0  1  0  0  0  0  0999 V2000
    9.2853  -14.7860   18.8944 N   0  0  0  0  0  0  0  0  0  0  0  0
    8.6214  -13.6972   19.5882 C   0  0  1  0  0  0  0  0  0  0  0  0
    7.5347  -13.1075   18.7246 C   0  0  0  0  0  0  0  0  0  0  0  0
    7.2472  -14.0696   17.6088 C   0  0  0  0  0  0  0  0  0  0  0  0
    8.3155  -14.0483   16.5384 C   0  0  0  0  0  0  0  0  0  0  0  0
    7.8430  -14.9025   15.3764 C   0  0  0  0  0  0  0  0  0  0  0  0
    8.8711  -15.0554   14.3744 N   0  0  0  0  0  0  0  0  0  0  0  0
    8.0868  -14.2343   20.8671 C   0  0  0  0  0  0  0  0  0  0  0  0
    7.4352  -13.5085   21.6751 O   0  0  0  0  0  0  0  0  0  0  0  0
    8.0138  -17.6068   22.5109 C   0  0  0  0  0  0  0  0  0  0  0  0
    7.7825  -16.0996   22.5318 C   0  0  2  0  0  0  0  0  0  0  0  0
    8.2709  -15.5901   21.2643 N   0  0  0  0  0  0  0  0  0  0  0  0
    8.4674  -15.4895   23.6820 C   0  0  0  0  0  0  0  0  0  0  0  0
    9.6913  -15.2265   23.5814 O   0  0  0  0  0  0  0  0  0  0  0  0
    5.8496  -11.9094   26.6531 C   0  0  0  0  0  0  0  0  0  0  0  0
    6.9277  -12.6804   25.9695 C   0  0  1  0  0  0  0  0  0  0  0  0
    8.0860  -11.7683   25.5889 C   0  0  0  0  0  0  0  0  0  0  0  0
    7.4052  -13.8362   26.7638 C   0  0  0  0  0  0  0  0  0  0  0  0
    8.3659  -14.7130   26.0503 C   0  0  2  0  0  0  0  0  0  0  0  0
    7.7305  -15.2197   24.8581 N   0  0  0  0  0  0  0  0  0  0  0  0
    8.9900  -15.7865   26.8307 C   0  0  0  0  0  0  0  0  0  0  0  0
    8.6759  -17.0227   26.7286 O   0  0  0  0  0  0  0  0  0  0  0  0
    9.9998  -15.5368   27.7647 O   0  0  0  0  0  0  0  0  0  0  0  0
  2  3  1  0
  2  1  1  6
  4  3  1  0
  5  6  1  0
  5  4  1  0
  7  6  1  0
  8  2  1  0
  8 12  1  0
  9  8  2  0
 11 12  1  0
 11 10  1  6
 13 11  1  0
 13 14  2  0
 16 18  1  0
 16 15  1  1
 17 16  1  0
 19 18  1  1
 19 20  1  0
 19 21  1  0
 20 13  1  0
 21 22  2  0
 21 23  1  0
M  END
$$$$
