KAL.pdb
     RDKit          3D

 23 22  0  0  1  0  0  0  0  0999 V2000
    7.3032  -18.2591   20.8884 N   0  0  0  0  0  0  0  0  0  0  0  0
    8.7483  -18.2361   21.0252 C   0  0  1  0  0  0  0  0  0  0  0  0
    9.4038  -18.7775   19.7795 C   0  0  0  0  0  0  0  0  0  0  0  0
    8.4286  -19.6897   19.0939 C   0  0  0  0  0  0  0  0  0  0  0  0
    8.7068  -19.8247   17.6135 C   0  0  0  0  0  0  0  0  0  0  0  0
    7.7694  -20.8746   17.0460 C   0  0  0  0  0  0  0  0  0  0  0  0
    7.9847  -21.0736   15.6324 N   0  0  0  0  0  0  0  0  0  0  0  0
    9.1547  -16.8336   21.3038 C   0  0  0  0  0  0  0  0  0  0  0  0
   10.3720  -16.5001   21.4097 O   0  0  0  0  0  0  0  0  0  0  0  0
    7.4427  -13.5235   21.4070 C   0  0  0  0  0  0  0  0  0  0  0  0
    8.6065  -14.4263   21.8017 C   0  0  2  0  0  0  0  0  0  0  0  0
    8.2086  -15.7811   21.4688 N   0  0  0  0  0  0  0  0  0  0  0  0
    8.9182  -14.2694   23.2310 C   0  0  0  0  0  0  0  0  0  0  0  0
    9.7030  -13.3522   23.5770 O   0  0  0  0  0  0  0  0  0  0  0  0
    5.3999  -12.9773   26.2943 C   0  0  0  0  0  0  0  0  0  0  0  0
    6.8023  -13.2476   25.8649 C   0  0  1  0  0  0  0  0  0  0  0  0
    7.7497  -12.1918   26.4183 C   0  0  0  0  0  0  0  0  0  0  0  0
    7.2641  -14.6095   26.2211 C   0  0  0  0  0  0  0  0  0  0  0  0
    8.5438  -15.0069   25.5843 C   0  0  2  0  0  0  0  0  0  0  0  0
    8.3276  -15.1514   24.1650 N   0  0  0  0  0  0  0  0  0  0  0  0
    9.2324  -16.1718   26.1497 C   0  0  0  0  0  0  0  0  0  0  0  0
    9.5227  -17.2255   25.4844 O   0  0  0  0  0  0  0  0  0  0  0  0
    9.6356  -16.2207   27.4873 O   0  0  0  0  0  0  0  0  0  0  0  0
  2  3  1  0
  2  1  1  6
  4  3  1  0
  5  6  1  0
  5  4  1  0
  7  6  1  0
  8  2  1  0
  8 12  1  0
  9  8  2  0
 11 12  1  0
 11 10  1  1
 13 11  1  0
 13 14  2  0
 16 18  1  0
 16 15  1  1
 17 16  1  0
 19 18  1  1
 19 20  1  0
 19 21  1  0
 20 13  1  0
 21 22  2  0
 21 23  1  0
M  END
$$$$
