KAL.pdb
     RDKit          3D

 23 22  0  0  1  0  0  0  0  0999 V2000
    5.9513  -16.8059   19.8771 N   0  0  0  0  0  0  0  0  0  0  0  0
    7.0682  -16.2293   20.6034 C   0  0  1  0  0  0  0  0  0  0  0  0
    7.2233  -14.7694   20.2582 C   0  0  0  0  0  0  0  0  0  0  0  0
    7.7682  -14.6717   18.8630 C   0  0  0  0  0  0  0  0  0  0  0  0
    7.9475  -13.2393   18.4120 C   0  0  0  0  0  0  0  0  0  0  0  0
    8.4502  -13.2498   16.9801 C   0  0  0  0  0  0  0  0  0  0  0  0
    9.7287  -13.9110   16.8686 N   0  0  0  0  0  0  0  0  0  0  0  0
    6.8196  -16.4352   22.0545 C   0  0  0  0  0  0  0  0  0  0  0  0
    5.7255  -16.1013   22.5981 O   0  0  0  0  0  0  0  0  0  0  0  0
    7.8430  -18.5832   24.7196 C   0  0  0  0  0  0  0  0  0  0  0  0
    7.5813  -17.1262   24.3537 C   0  0  2  0  0  0  0  0  0  0  0  0
    7.7886  -17.0172   22.9219 N   0  0  0  0  0  0  0  0  0  0  0  0
    8.4692  -16.2359   25.1175 C   0  0  0  0  0  0  0  0  0  0  0  0
    9.6254  -16.0199   24.6775 O   0  0  0  0  0  0  0  0  0  0  0  0
    5.9755  -12.1989   27.3002 C   0  0  0  0  0  0  0  0  0  0  0  0
    7.0165  -13.0583   26.6661 C   0  0  1  0  0  0  0  0  0  0  0  0
    7.8050  -12.2734   25.6266 C   0  0  0  0  0  0  0  0  0  0  0  0
    7.9249  -13.6891   27.6517 C   0  0  0  0  0  0  0  0  0  0  0  0
    8.8049  -14.7411   27.0859 C   0  0  2  0  0  0  0  0  0  0  0  0
    7.9957  -15.6547   26.3162 N   0  0  0  0  0  0  0  0  0  0  0  0
    9.6796  -15.4503   28.0256 C   0  0  0  0  0  0  0  0  0  0  0  0
    9.5364  -16.6798   28.3496 O   0  0  0  0  0  0  0  0  0  0  0  0
   10.7620  -14.8248   28.6511 O   0  0  0  0  0  0  0  0  0  0  0  0
  2  3  1  0
  2  1  1  6
  4  3  1  0
  5  6  1  0
  5  4  1  0
  7  6  1  0
  8  2  1  0
  8 12  1  0
  9  8  2  0
 11 12  1  0
 11 10  1  1
 13 11  1  0
 13 14  2  0
 16 18  1  0
 16 15  1  1
 17 16  1  0
 19 18  1  1
 19 20  1  0
 19 21  1  0
 20 13  1  0
 21 22  2  0
 21 23  1  0
M  END
$$$$
