PRK.pdb
     RDKit          3D

 28 28  0  0  1  0  0  0  0  0999 V2000
   25.0249  -21.7832  -13.1750 N   0  0  0  0  0  0  0  0  0  0  0  0
   26.4793  -21.7470  -13.2570 C   0  0  0  0  0  0  0  0  0  0  0  0
   26.9845  -21.0520  -12.0399 C   0  0  0  0  0  0  0  0  0  0  0  0
   25.7104  -20.5629  -11.3666 C   0  0  0  0  0  0  0  0  0  0  0  0
   24.7196  -21.6337  -11.7625 C   0  0  1  0  0  0  0  0  0  0  0  0
   23.3116  -21.2284  -11.5503 C   0  0  0  0  0  0  0  0  0  0  0  0
   22.8894  -20.8586  -10.4100 O   0  0  0  0  0  0  0  0  0  0  0  0
   16.2600  -18.2600  -14.1369 N   0  0  0  0  0  0  0  0  0  0  0  0
   17.0353  -17.7994  -15.2104 C   0  0  0  0  0  0  0  0  0  0  0  0
   16.7753  -16.7189  -15.8524 N   0  0  0  0  0  0  0  0  0  0  0  0
   18.1877  -18.5571  -15.6346 N   0  0  0  0  0  0  0  0  0  0  0  0
   18.4813  -19.8416  -15.0388 C   0  0  0  0  0  0  0  0  0  0  0  0
   19.1080  -19.6570  -13.6479 C   0  0  0  0  0  0  0  0  0  0  0  0
   20.5476  -20.0776  -13.7734 C   0  0  0  0  0  0  0  0  0  0  0  0
   21.0057  -20.8980  -12.5727 C   0  0  2  0  0  0  0  0  0  0  0  0
   22.3955  -21.2412  -12.6232 N   0  0  0  0  0  0  0  0  0  0  0  0
   20.1137  -22.0675  -12.5235 C   0  0  0  0  0  0  0  0  0  0  0  0
   20.2660  -22.9449  -13.4170 O   0  0  0  0  0  0  0  0  0  0  0  0
   17.2860  -16.3622  -16.6740 N   0  0  0  0  0  0  0  0  0  0  0  0
   19.1311  -22.2549  -11.5544 C   0  0  2  0  0  0  0  0  0  0  0  0
   18.2345  -23.4768  -11.5282 C   0  0  0  0  0  0  0  0  0  0  0  0
   17.5441  -23.4189  -10.2084 C   0  0  0  0  0  0  0  0  0  0  0  0
   18.0348  -24.2063   -9.0966 C   0  0  0  0  0  0  0  0  0  0  0  0
   17.4778  -24.2225   -7.7424 C   0  0  0  0  0  0  0  0  0  0  0  0
   18.3274  -25.2735   -6.9331 N   0  0  0  0  0  0  0  0  0  0  0  0
   17.8862  -25.3035   -5.5770 C   0  0  0  0  0  0  0  0  0  0  0  0
   17.2794  -23.2674  -12.6313 O   0  0  0  0  0  0  0  0  0  0  0  0
   16.8944  -22.0659  -12.9219 O   0  0  0  0  0  0  0  0  0  0  0  0
  1  5  1  0
  2  1  1  0
  2  3  1  0
  3  4  1  0
  5  6  1  6
  5  4  1  0
  6  7  2  0
  9 11  1  0
  9  8  1  0
 10  9  2  0
 12 13  1  0
 12 11  1  0
 13 14  1  0
 15 14  1  6
 16 15  1  0
 16  6  1  0
 17 18  2  0
 17 15  1  0
 19 17  1  0
 20 19  1  0
 20 26  1  0
 20 21  1  1
 22 21  1  0
 23 22  1  0
 24 23  1  0
 24 25  1  0
 26 28  1  0
 27 26  2  0
M  END
$$$$
