PRK.pdb
     RDKit          3D

 28 28  0  0  1  0  0  0  0  0999 V2000
   24.6577  -21.6878  -14.5352 N   0  0  0  0  0  0  0  0  0  0  0  0
   25.5373  -22.7765  -14.1301 C   0  0  0  0  0  0  0  0  0  0  0  0
   25.7601  -22.6565  -12.6619 C   0  0  0  0  0  0  0  0  0  0  0  0
   25.0824  -21.3386  -12.3156 C   0  0  0  0  0  0  0  0  0  0  0  0
   23.9579  -21.2934  -13.3247 C   0  0  1  0  0  0  0  0  0  0  0  0
   23.3530  -19.9489  -13.4596 C   0  0  0  0  0  0  0  0  0  0  0  0
   22.7231  -19.4025  -12.5004 O   0  0  0  0  0  0  0  0  0  0  0  0
   27.8903  -17.2325  -15.7296 N   0  0  0  0  0  0  0  0  0  0  0  0
   27.1306  -17.0415  -16.8924 C   0  0  0  0  0  0  0  0  0  0  0  0
   27.3400  -17.6857  -17.9824 N   0  0  0  0  0  0  0  0  0  0  0  0
   26.0541  -16.0805  -16.8910 N   0  0  0  0  0  0  0  0  0  0  0  0
   25.6454  -15.4382  -15.6615 C   0  0  0  0  0  0  0  0  0  0  0  0
   24.8139  -16.4037  -14.8026 C   0  0  0  0  0  0  0  0  0  0  0  0
   23.8034  -17.0285  -15.7264 C   0  0  0  0  0  0  0  0  0  0  0  0
   22.8636  -17.9723  -14.9843 C   0  0  2  0  0  0  0  0  0  0  0  0
   23.4656  -19.2336  -14.6704 N   0  0  0  0  0  0  0  0  0  0  0  0
   21.6641  -18.0884  -15.8291 C   0  0  0  0  0  0  0  0  0  0  0  0
   21.7284  -18.8738  -16.8142 O   0  0  0  0  0  0  0  0  0  0  0  0
   26.8294  -17.5615  -18.8695 N   0  0  0  0  0  0  0  0  0  0  0  0
   20.4803  -17.3922  -15.5974 C   0  0  1  0  0  0  0  0  0  0  0  0
   19.2654  -17.5290  -16.4934 C   0  0  0  0  0  0  0  0  0  0  0  0
   18.1808  -18.0226  -15.5980 C   0  0  0  0  0  0  0  0  0  0  0  0
   18.0945  -19.4302  -15.2691 C   0  0  0  0  0  0  0  0  0  0  0  0
   17.1296  -20.0415  -14.3528 C   0  0  0  0  0  0  0  0  0  0  0  0
   17.5306  -21.5611  -14.2460 N   0  0  0  0  0  0  0  0  0  0  0  0
   16.6486  -22.2268  -13.3442 C   0  0  0  0  0  0  0  0  0  0  0  0
   18.9824  -16.1585  -16.9567 O   0  0  0  0  0  0  0  0  0  0  0  0
   19.4784  -15.1520  -16.3109 O   0  0  0  0  0  0  0  0  0  0  0  0
  1  5  1  0
  2  1  1  0
  2  3  1  0
  3  4  1  0
  5  6  1  6
  5  4  1  0
  6  7  2  0
  9 11  1  0
  9  8  1  0
 10  9  2  0
 12 13  1  0
 12 11  1  0
 13 14  1  0
 15 14  1  6
 16 15  1  0
 16  6  1  0
 17 18  2  0
 17 15  1  0
 19 17  1  0
 20 19  1  0
 20 26  1  0
 20 21  1  6
 22 21  1  0
 23 22  1  0
 24 23  1  0
 24 25  1  0
 26 28  1  0
 27 26  2  0
M  END
$$$$
