PRK.pdb
     RDKit          3D

 28 28  0  0  1  0  0  0  0  0999 V2000
   24.2570  -22.7326  -14.3618 N   0  0  0  0  0  0  0  0  0  0  0  0
   25.3780  -22.8944  -15.2785 C   0  0  0  0  0  0  0  0  0  0  0  0
   26.3586  -21.8103  -14.9909 C   0  0  0  0  0  0  0  0  0  0  0  0
   25.6299  -20.9458  -13.9722 C   0  0  0  0  0  0  0  0  0  0  0  0
   24.7856  -21.9676  -13.2455 C   0  0  1  0  0  0  0  0  0  0  0  0
   23.7018  -21.3587  -12.4416 C   0  0  0  0  0  0  0  0  0  0  0  0
   23.9314  -20.4201  -11.6160 O   0  0  0  0  0  0  0  0  0  0  0  0
   20.1474  -20.3536  -17.6836 N   0  0  0  0  0  0  0  0  0  0  0  0
   18.9667  -19.6926  -17.3165 C   0  0  0  0  0  0  0  0  0  0  0  0
   17.8312  -19.9239  -17.8680 N   0  0  0  0  0  0  0  0  0  0  0  0
   19.0012  -18.6998  -16.2698 N   0  0  0  0  0  0  0  0  0  0  0  0
   20.0735  -18.6933  -15.2996 C   0  0  0  0  0  0  0  0  0  0  0  0
   19.9895  -19.9355  -14.3990 C   0  0  0  0  0  0  0  0  0  0  0  0
   21.1540  -19.8491  -13.4495 C   0  0  0  0  0  0  0  0  0  0  0  0
   21.1804  -21.0221  -12.4759 C   0  0  2  0  0  0  0  0  0  0  0  0
   22.3721  -21.8105  -12.5772 N   0  0  0  0  0  0  0  0  0  0  0  0
   19.9485  -21.7845  -12.7346 C   0  0  0  0  0  0  0  0  0  0  0  0
   19.8312  -22.3196  -13.8709 O   0  0  0  0  0  0  0  0  0  0  0  0
   16.9272  -19.5102  -17.5946 N   0  0  0  0  0  0  0  0  0  0  0  0
   18.9259  -21.9478  -11.8032 C   0  0  2  0  0  0  0  0  0  0  0  0
   17.7624  -22.8931  -12.0273 C   0  0  0  0  0  0  0  0  0  0  0  0
   17.0043  -22.8808  -10.7440 C   0  0  0  0  0  0  0  0  0  0  0  0
   17.1707  -23.9588   -9.7915 C   0  0  0  0  0  0  0  0  0  0  0  0
   17.8378  -23.8623   -8.4916 C   0  0  0  0  0  0  0  0  0  0  0  0
   17.7590  -25.2997   -7.8521 N   0  0  0  0  0  0  0  0  0  0  0  0
   18.3902  -25.2900   -6.5731 C   0  0  0  0  0  0  0  0  0  0  0  0
   16.9759  -22.2732  -13.1090 O   0  0  0  0  0  0  0  0  0  0  0  0
   16.3338  -23.0270  -13.9430 O   0  0  0  0  0  0  0  0  0  0  0  0
  1  5  1  0
  2  1  1  0
  2  3  1  0
  3  4  1  0
  5  6  1  6
  5  4  1  0
  6  7  2  0
  9 11  1  0
  9  8  1  0
 10  9  2  0
 12 13  1  0
 12 11  1  0
 13 14  1  0
 15 14  1  6
 16 15  1  0
 16  6  1  0
 17 18  2  0
 17 15  1  0
 19 17  1  0
 20 19  1  0
 20 26  1  0
 20 21  1  1
 22 21  1  0
 23 22  1  0
 24 23  1  0
 24 25  1  0
 26 28  1  0
 27 26  2  0
M  END
$$$$
