PRK.pdb
     RDKit          3D

 28 28  0  0  1  0  0  0  0  0999 V2000
   28.2948  -20.3314  -17.1063 N   0  0  0  0  0  0  0  0  0  0  0  0
   29.5164  -20.4553  -17.8909 C   0  0  0  0  0  0  0  0  0  0  0  0
   29.7396  -21.9043  -18.1559 C   0  0  0  0  0  0  0  0  0  0  0  0
   28.6554  -22.5786  -17.3276 C   0  0  0  0  0  0  0  0  0  0  0  0
   27.5486  -21.5499  -17.3688 C   0  0  1  0  0  0  0  0  0  0  0  0
   26.5045  -21.7797  -16.3447 C   0  0  0  0  0  0  0  0  0  0  0  0
   25.5830  -22.6385  -16.5138 O   0  0  0  0  0  0  0  0  0  0  0  0
   23.2066  -20.1473   -9.6659 N   0  0  0  0  0  0  0  0  0  0  0  0
   23.9427  -20.9393   -8.7734 C   0  0  0  0  0  0  0  0  0  0  0  0
   23.5347  -21.2316   -7.5922 N   0  0  0  0  0  0  0  0  0  0  0  0
   25.2245  -21.4652   -9.1769 N   0  0  0  0  0  0  0  0  0  0  0  0
   25.9508  -20.8662  -10.2746 C   0  0  0  0  0  0  0  0  0  0  0  0
   25.1798  -21.0491  -11.5912 C   0  0  0  0  0  0  0  0  0  0  0  0
   26.1982  -20.9511  -12.6949 C   0  0  0  0  0  0  0  0  0  0  0  0
   25.5652  -21.1382  -14.0693 C   0  0  2  0  0  0  0  0  0  0  0  0
   26.5102  -21.0430  -15.1415 N   0  0  0  0  0  0  0  0  0  0  0  0
   24.4835  -20.1437  -14.1502 C   0  0  0  0  0  0  0  0  0  0  0  0
   24.7885  -18.9419  -13.9175 O   0  0  0  0  0  0  0  0  0  0  0  0
   24.0485  -21.7867   -6.8916 N   0  0  0  0  0  0  0  0  0  0  0  0
   23.1643  -20.4549  -14.4708 C   0  0  2  0  0  0  0  0  0  0  0  0
   22.0979  -19.3936  -14.6550 C   0  0  0  0  0  0  0  0  0  0  0  0
   21.7932  -19.4038  -16.1140 C   0  0  0  0  0  0  0  0  0  0  0  0
   20.8098  -18.4902  -16.6572 C   0  0  0  0  0  0  0  0  0  0  0  0
   20.3092  -18.4843  -18.0334 C   0  0  0  0  0  0  0  0  0  0  0  0
   19.2964  -17.2813  -18.1248 N   0  0  0  0  0  0  0  0  0  0  0  0
   18.7514  -17.2133  -19.4412 C   0  0  0  0  0  0  0  0  0  0  0  0
   20.9455  -19.8773  -13.8734 O   0  0  0  0  0  0  0  0  0  0  0  0
   20.6404  -21.1352  -13.8992 O   0  0  0  0  0  0  0  0  0  0  0  0
  1  5  1  0
  2  1  1  0
  2  3  1  0
  3  4  1  0
  5  6  1  1
  5  4  1  0
  6  7  2  0
  9 11  1  0
  9  8  1  0
 10  9  2  0
 12 13  1  0
 12 11  1  0
 13 14  1  0
 15 14  1  1
 16 15  1  0
 16  6  1  0
 17 18  2  0
 17 15  1  0
 19 17  1  0
 20 19  1  0
 20 26  1  0
 20 21  1  6
 22 21  1  0
 23 22  1  0
 24 23  1  0
 24 25  1  0
 26 28  1  0
 27 26  2  0
M  END
$$$$
