PRK.pdb
     RDKit          3D

 28 28  0  0  1  0  0  0  0  0999 V2000
   28.3515  -19.0322  -16.8512 N   0  0  0  0  0  0  0  0  0  0  0  0
   29.2970  -18.7354  -17.9194 C   0  0  0  0  0  0  0  0  0  0  0  0
   29.6766  -20.0258  -18.5599 C   0  0  0  0  0  0  0  0  0  0  0  0
   29.0086  -21.0638  -17.6696 C   0  0  0  0  0  0  0  0  0  0  0  0
   27.7793  -20.3220  -17.1969 C   0  0  1  0  0  0  0  0  0  0  0  0
   27.1301  -20.9597  -16.0291 C   0  0  0  0  0  0  0  0  0  0  0  0
   26.5191  -22.0696  -16.1302 O   0  0  0  0  0  0  0  0  0  0  0  0
   30.5210  -21.8838   -8.5753 N   0  0  0  0  0  0  0  0  0  0  0  0
   31.2480  -22.0191   -9.7664 C   0  0  0  0  0  0  0  0  0  0  0  0
   32.2652  -22.7928   -9.8849 N   0  0  0  0  0  0  0  0  0  0  0  0
   30.8549  -21.2641  -10.9316 N   0  0  0  0  0  0  0  0  0  0  0  0
   29.5383  -20.6714  -11.0122 C   0  0  0  0  0  0  0  0  0  0  0  0
   28.7514  -21.2707  -12.1882 C   0  0  0  0  0  0  0  0  0  0  0  0
   27.4937  -20.4539  -12.3156 C   0  0  0  0  0  0  0  0  0  0  0  0
   26.6688  -20.8681  -13.5290 C   0  0  2  0  0  0  0  0  0  0  0  0
   27.1778  -20.3433  -14.7609 N   0  0  0  0  0  0  0  0  0  0  0  0
   25.2891  -20.4472  -13.2373 C   0  0  0  0  0  0  0  0  0  0  0  0
   25.0669  -19.2069  -13.1762 O   0  0  0  0  0  0  0  0  0  0  0  0
   32.8897  -22.8548  -10.7028 N   0  0  0  0  0  0  0  0  0  0  0  0
   24.2331  -21.3325  -13.0347 C   0  0  2  0  0  0  0  0  0  0  0  0
   22.8003  -20.8674  -12.8663 C   0  0  0  0  0  0  0  0  0  0  0  0
   21.9695  -22.0736  -13.1431 C   0  0  0  0  0  0  0  0  0  0  0  0
   20.5342  -22.0254  -12.9573 C   0  0  0  0  0  0  0  0  0  0  0  0
   19.6098  -23.1515  -13.1048 C   0  0  0  0  0  0  0  0  0  0  0  0
   18.1671  -22.5671  -12.8631 N   0  0  0  0  0  0  0  0  0  0  0  0
   17.1936  -23.5826  -13.0984 C   0  0  0  0  0  0  0  0  0  0  0  0
   22.6966  -20.4708  -11.4504 O   0  0  0  0  0  0  0  0  0  0  0  0
   23.4981  -20.9970  -10.5804 O   0  0  0  0  0  0  0  0  0  0  0  0
  1  5  1  0
  2  1  1  0
  2  3  1  0
  3  4  1  0
  5  6  1  1
  5  4  1  0
  6  7  2  0
  9 11  1  0
  9  8  1  0
 10  9  2  0
 12 13  1  0
 12 11  1  0
 13 14  1  0
 15 14  1  1
 16 15  1  0
 16  6  1  0
 17 18  2  0
 17 15  1  0
 19 17  1  0
 20 19  1  0
 20 26  1  0
 20 21  1  6
 22 21  1  0
 23 22  1  0
 24 23  1  0
 24 25  1  0
 26 28  1  0
 27 26  2  0
M  END
$$$$
