PRK.pdb
     RDKit          3D

 28 28  0  0  1  0  0  0  0  0999 V2000
   27.6531  -19.4047  -16.8258 N   0  0  0  0  0  0  0  0  0  0  0  0
   28.6532  -19.2238  -17.8700 C   0  0  0  0  0  0  0  0  0  0  0  0
   29.2047  -20.5662  -18.2065 C   0  0  0  0  0  0  0  0  0  0  0  0
   28.5644  -21.4741  -17.1663 C   0  0  0  0  0  0  0  0  0  0  0  0
   27.2356  -20.7919  -16.9349 C   0  0  1  0  0  0  0  0  0  0  0  0
   26.5532  -21.2530  -15.7046 C   0  0  0  0  0  0  0  0  0  0  0  0
   25.8325  -22.2998  -15.6949 O   0  0  0  0  0  0  0  0  0  0  0  0
   29.7994  -21.7597   -8.3527 N   0  0  0  0  0  0  0  0  0  0  0  0
   30.5190  -21.8787   -9.5501 C   0  0  0  0  0  0  0  0  0  0  0  0
   31.4586  -22.7357   -9.7231 N   0  0  0  0  0  0  0  0  0  0  0  0
   30.2083  -21.0085  -10.6584 N   0  0  0  0  0  0  0  0  0  0  0  0
   28.8963  -20.4121  -10.7777 C   0  0  0  0  0  0  0  0  0  0  0  0
   28.0707  -21.1420  -11.8486 C   0  0  0  0  0  0  0  0  0  0  0  0
   26.8178  -20.3309  -12.0426 C   0  0  0  0  0  0  0  0  0  0  0  0
   26.0242  -20.7949  -13.2588 C   0  0  2  0  0  0  0  0  0  0  0  0
   26.6912  -20.5330  -14.4991 N   0  0  0  0  0  0  0  0  0  0  0  0
   24.7090  -20.1434  -13.1507 C   0  0  0  0  0  0  0  0  0  0  0  0
   24.6522  -18.9135  -13.4252 O   0  0  0  0  0  0  0  0  0  0  0  0
   32.0367  -22.8412  -10.5703 N   0  0  0  0  0  0  0  0  0  0  0  0
   23.5430  -20.8049  -12.7730 C   0  0  2  0  0  0  0  0  0  0  0  0
   22.1800  -20.1432  -12.8160 C   0  0  0  0  0  0  0  0  0  0  0  0
   21.5055  -20.7293  -14.0090 C   0  0  0  0  0  0  0  0  0  0  0  0
   21.1499  -22.1330  -14.0261 C   0  0  0  0  0  0  0  0  0  0  0  0
   20.4377  -22.8265  -15.1014 C   0  0  0  0  0  0  0  0  0  0  0  0
   20.3529  -24.3378  -14.6655 N   0  0  0  0  0  0  0  0  0  0  0  0
   19.5503  -25.0606  -15.5971 C   0  0  0  0  0  0  0  0  0  0  0  0
   21.5140  -20.5705  -11.5722 O   0  0  0  0  0  0  0  0  0  0  0  0
   22.1065  -21.4143  -10.7892 O   0  0  0  0  0  0  0  0  0  0  0  0
  1  5  1  0
  2  1  1  0
  2  3  1  0
  3  4  1  0
  5  6  1  1
  5  4  1  0
  6  7  2  0
  9 11  1  0
  9  8  1  0
 10  9  2  0
 12 13  1  0
 12 11  1  0
 13 14  1  0
 15 14  1  1
 16 15  1  0
 16  6  1  0
 17 18  2  0
 17 15  1  0
 19 17  1  0
 20 19  1  0
 20 26  1  0
 20 21  1  6
 22 21  1  0
 23 22  1  0
 24 23  1  0
 24 25  1  0
 26 28  1  0
 27 26  2  0
M  END
$$$$
