PRK.pdb
     RDKit          3D

 28 28  0  0  1  0  0  0  0  0999 V2000
   26.1994  -17.6268  -16.8407 N   0  0  0  0  0  0  0  0  0  0  0  0
   27.2771  -16.9766  -17.5749 C   0  0  0  0  0  0  0  0  0  0  0  0
   28.2777  -18.0214  -17.9306 C   0  0  0  0  0  0  0  0  0  0  0  0
   27.7635  -19.2551  -17.2027 C   0  0  0  0  0  0  0  0  0  0  0  0
   26.2694  -19.0267  -17.2225 C   0  0  1  0  0  0  0  0  0  0  0  0
   25.5381  -19.8885  -16.2663 C   0  0  0  0  0  0  0  0  0  0  0  0
   25.2373  -21.0907  -16.5484 O   0  0  0  0  0  0  0  0  0  0  0  0
   22.0113  -19.7229   -9.4916 N   0  0  0  0  0  0  0  0  0  0  0  0
   22.7517  -20.6612   -8.7587 C   0  0  0  0  0  0  0  0  0  0  0  0
   22.2700  -21.3157   -7.7654 N   0  0  0  0  0  0  0  0  0  0  0  0
   24.1246  -20.9238   -9.1176 N   0  0  0  0  0  0  0  0  0  0  0  0
   24.7604  -20.1785  -10.1813 C   0  0  0  0  0  0  0  0  0  0  0  0
   24.1384  -20.5436  -11.5381 C   0  0  0  0  0  0  0  0  0  0  0  0
   24.9302  -19.8004  -12.5802 C   0  0  0  0  0  0  0  0  0  0  0  0
   24.4215  -20.0848  -13.9890 C   0  0  2  0  0  0  0  0  0  0  0  0
   25.1559  -19.3893  -15.0033 N   0  0  0  0  0  0  0  0  0  0  0  0
   22.9877  -19.7536  -13.9710 C   0  0  0  0  0  0  0  0  0  0  0  0
   22.6693  -18.5981  -13.5775 O   0  0  0  0  0  0  0  0  0  0  0  0
   22.7701  -22.0183   -7.2005 N   0  0  0  0  0  0  0  0  0  0  0  0
   21.9821  -20.6330  -14.3650 C   0  0  2  0  0  0  0  0  0  0  0  0
   20.5121  -20.2678  -14.3102 C   0  0  0  0  0  0  0  0  0  0  0  0
   19.8046  -21.4271  -14.9245 C   0  0  0  0  0  0  0  0  0  0  0  0
   20.0628  -21.7884  -16.3028 C   0  0  0  0  0  0  0  0  0  0  0  0
   19.0612  -21.8959  -17.3656 C   0  0  0  0  0  0  0  0  0  0  0  0
   19.8655  -22.0889  -18.7062 N   0  0  0  0  0  0  0  0  0  0  0  0
   19.4106  -23.2652  -19.3724 C   0  0  0  0  0  0  0  0  0  0  0  0
   20.2026  -20.1641  -12.8727 O   0  0  0  0  0  0  0  0  0  0  0  0
   20.5148  -21.1400  -12.0813 O   0  0  0  0  0  0  0  0  0  0  0  0
  1  5  1  0
  2  1  1  0
  2  3  1  0
  3  4  1  0
  5  6  1  1
  5  4  1  0
  6  7  2  0
  9 11  1  0
  9  8  1  0
 10  9  2  0
 12 13  1  0
 12 11  1  0
 13 14  1  0
 15 14  1  1
 16 15  1  0
 16  6  1  0
 17 18  2  0
 17 15  1  0
 19 17  1  0
 20 19  1  0
 20 26  1  0
 20 21  1  6
 22 21  1  0
 23 22  1  0
 24 23  1  0
 24 25  1  0
 26 28  1  0
 27 26  2  0
M  END
$$$$
