PRK.pdb
     RDKit          3D

 28 28  0  0  1  0  0  0  0  0999 V2000
   26.9039  -20.1844  -22.2450 N   0  0  0  0  0  0  0  0  0  0  0  0
   28.0282  -19.4575  -22.8201 C   0  0  0  0  0  0  0  0  0  0  0  0
   27.9169  -19.5503  -24.3028 C   0  0  0  0  0  0  0  0  0  0  0  0
   26.7549  -20.5124  -24.5031 C   0  0  0  0  0  0  0  0  0  0  0  0
   25.8980  -20.2203  -23.2926 C   0  0  1  0  0  0  0  0  0  0  0  0
   24.8817  -21.2655  -23.0353 C   0  0  0  0  0  0  0  0  0  0  0  0
   23.8052  -21.3282  -23.7082 O   0  0  0  0  0  0  0  0  0  0  0  0
   23.6642  -27.5490  -18.1784 N   0  0  0  0  0  0  0  0  0  0  0  0
   23.4148  -28.3981  -19.2657 C   0  0  0  0  0  0  0  0  0  0  0  0
   22.6565  -29.4309  -19.1915 N   0  0  0  0  0  0  0  0  0  0  0  0
   24.0271  -28.1204  -20.5426 N   0  0  0  0  0  0  0  0  0  0  0  0
   24.8558  -26.9486  -20.7196 C   0  0  0  0  0  0  0  0  0  0  0  0
   23.9890  -25.7239  -21.0516 C   0  0  0  0  0  0  0  0  0  0  0  0
   24.9431  -24.5988  -21.3499 C   0  0  0  0  0  0  0  0  0  0  0  0
   24.2085  -23.3005  -21.6652 C   0  0  2  0  0  0  0  0  0  0  0  0
   25.0887  -22.2296  -22.0263 N   0  0  0  0  0  0  0  0  0  0  0  0
   23.3847  -23.0093  -20.4810 C   0  0  0  0  0  0  0  0  0  0  0  0
   23.9932  -22.7355  -19.4104 O   0  0  0  0  0  0  0  0  0  0  0  0
   22.4105  -30.0615  -19.9692 N   0  0  0  0  0  0  0  0  0  0  0  0
   21.9920  -23.0144  -20.4831 C   0  0  2  0  0  0  0  0  0  0  0  0
   21.1732  -22.5467  -19.2963 C   0  0  0  0  0  0  0  0  0  0  0  0
   19.7855  -22.4001  -19.8203 C   0  0  0  0  0  0  0  0  0  0  0  0
   18.7113  -22.0074  -18.9322 C   0  0  0  0  0  0  0  0  0  0  0  0
   17.2866  -21.9722  -19.2689 C   0  0  0  0  0  0  0  0  0  0  0  0
   16.5607  -21.3238  -18.0304 N   0  0  0  0  0  0  0  0  0  0  0  0
   15.1516  -21.3170  -18.2509 C   0  0  0  0  0  0  0  0  0  0  0  0
   21.2544  -23.6513  -18.3235 O   0  0  0  0  0  0  0  0  0  0  0  0
   21.3426  -24.8708  -18.7492 O   0  0  0  0  0  0  0  0  0  0  0  0
  1  5  1  0
  2  1  1  0
  2  3  1  0
  3  4  1  0
  5  6  1  1
  5  4  1  0
  6  7  2  0
  9 11  1  0
  9  8  1  0
 10  9  2  0
 12 13  1  0
 12 11  1  0
 13 14  1  0
 15 14  1  1
 16 15  1  0
 16  6  1  0
 17 18  2  0
 17 15  1  0
 19 17  1  0
 20 19  1  0
 20 26  1  0
 20 21  1  6
 22 21  1  0
 23 22  1  0
 24 23  1  0
 24 25  1  0
 26 28  1  0
 27 26  2  0
M  END
$$$$
