YSI.pdb
     RDKit          3D

 27 27  0  0  1  0  0  0  0  0999 V2000
   23.9302  -14.6488  -19.9433 O   0  0  0  0  0  0  0  0  0  0  0  0
   23.3357  -15.6684  -19.2010 C   0  0  0  0  0  0  0  0  0  0  0  0
   22.9763  -15.4900  -17.8814 C   0  0  0  0  0  0  0  0  0  0  0  0
   22.3888  -16.5079  -17.1594 C   0  0  0  0  0  0  0  0  0  0  0  0
   22.1327  -17.7495  -17.7192 C   0  0  0  0  0  0  0  0  0  0  0  0
   21.5094  -18.7777  -16.8806 C   0  0  0  0  0  0  0  0  0  0  0  0
   22.4456  -19.3545  -15.8251 C   0  0  2  0  0  0  0  0  0  0  0  0
   23.4923  -20.0357  -16.5649 N   0  0  0  0  0  0  0  0  0  0  0  0
   21.7361  -20.2858  -14.9125 C   0  0  0  0  0  0  0  0  0  0  0  0
   21.5809  -21.4814  -15.2661 O   0  0  0  0  0  0  0  0  0  0  0  0
   22.4940  -17.9236  -19.0397 C   0  0  0  0  0  0  0  0  0  0  0  0
   23.0860  -16.8997  -19.7696 C   0  0  0  0  0  0  0  0  0  0  0  0
   19.6357  -18.9460  -11.5504 O   0  0  0  0  0  0  0  0  0  0  0  0
   20.4601  -20.0647  -11.4047 C   0  0  0  0  0  0  0  0  0  0  0  0
   20.5722  -20.8214  -12.7333 C   0  0  2  0  0  0  0  0  0  0  0  0
   21.2182  -19.9083  -13.6564 N   0  0  0  0  0  0  0  0  0  0  0  0
   19.2372  -21.2388  -13.2109 C   0  0  0  0  0  0  0  0  0  0  0  0
   18.6019  -20.5016  -14.0062 O   0  0  0  0  0  0  0  0  0  0  0  0
   17.9693  -25.7416  -15.5052 C   0  0  0  0  0  0  0  0  0  0  0  0
   18.0055  -24.3665  -14.9332 C   0  0  0  0  0  0  0  0  0  0  0  0
   17.1668  -24.2206  -13.6836 C   0  0  2  0  0  0  0  0  0  0  0  0
   15.7476  -24.6257  -13.8832 C   0  0  0  0  0  0  0  0  0  0  0  0
   17.2667  -22.7760  -13.1951 C   0  0  2  0  0  0  0  0  0  0  0  0
   18.6252  -22.4569  -12.8064 N   0  0  0  0  0  0  0  0  0  0  0  0
   16.3137  -22.5276  -12.0832 C   0  0  0  0  0  0  0  0  0  0  0  0
   16.6753  -22.6252  -10.8799 O   0  0  0  0  0  0  0  0  0  0  0  0
   14.9928  -22.1795  -12.3209 O   0  0  0  0  0  0  0  0  0  0  0  0
  1  2  1  0
  2  3  2  0
  3  4  1  0
  5  4  2  0
  5  6  1  0
  7  6  1  0
  7  9  1  0
  7  8  1  6
  9 10  2  0
 11  5  1  0
 12  2  1  0
 12 11  2  0
 15 14  1  1
 14 13  1  0
 16  9  1  0
 16 15  1  0
 17 15  1  0
 17 18  2  0
 19 20  1  0
 20 21  1  0
 21 22  1  6
 21 23  1  0
 23 24  1  1
 23 25  1  0
 24 17  1  0
 25 26  2  0
 25 27  1  0
M  END
$$$$
