YSI.pdb
     RDKit          3D

 27 27  0  0  1  0  0  0  0  0999 V2000
   22.6263  -16.7746  -18.3117 O   0  0  0  0  0  0  0  0  0  0  0  0
   22.6458  -17.6063  -17.1929 C   0  0  0  0  0  0  0  0  0  0  0  0
   22.8924  -17.1148  -15.9279 C   0  0  0  0  0  0  0  0  0  0  0  0
   22.9086  -17.9495  -14.8301 C   0  0  0  0  0  0  0  0  0  0  0  0
   22.6799  -19.3118  -14.9425 C   0  0  0  0  0  0  0  0  0  0  0  0
   22.7196  -20.1285  -13.7258 C   0  0  0  0  0  0  0  0  0  0  0  0
   24.1296  -20.3767  -13.2030 C   0  0  2  0  0  0  0  0  0  0  0  0
   24.8106  -21.1092  -14.2549 N   0  0  0  0  0  0  0  0  0  0  0  0
   24.1165  -21.1441  -11.9324 C   0  0  0  0  0  0  0  0  0  0  0  0
   23.6957  -22.3279  -11.9427 O   0  0  0  0  0  0  0  0  0  0  0  0
   22.4338  -19.7993  -16.2099 C   0  0  0  0  0  0  0  0  0  0  0  0
   22.4168  -18.9604  -17.3179 C   0  0  0  0  0  0  0  0  0  0  0  0
   25.1243  -19.2517   -8.3542 O   0  0  0  0  0  0  0  0  0  0  0  0
   25.3274  -20.6311   -8.4461 C   0  0  0  0  0  0  0  0  0  0  0  0
   24.3166  -21.2558   -9.4149 C   0  0  2  0  0  0  0  0  0  0  0  0
   24.5525  -20.6212  -10.6975 N   0  0  0  0  0  0  0  0  0  0  0  0
   22.9344  -21.0418   -8.9373 C   0  0  0  0  0  0  0  0  0  0  0  0
   22.2945  -20.0286   -9.3163 O   0  0  0  0  0  0  0  0  0  0  0  0
   17.4542  -22.5410   -8.9679 C   0  0  0  0  0  0  0  0  0  0  0  0
   18.5217  -22.0480   -8.0532 C   0  0  0  0  0  0  0  0  0  0  0  0
   19.9168  -22.3632   -8.5437 C   0  0  2  0  0  0  0  0  0  0  0  0
   20.1748  -23.8248   -8.6681 C   0  0  0  0  0  0  0  0  0  0  0  0
   20.9250  -21.7009   -7.6054 C   0  0  2  0  0  0  0  0  0  0  0  0
   22.2811  -21.9437   -8.0532 N   0  0  0  0  0  0  0  0  0  0  0  0
   20.7265  -22.1614   -6.2074 C   0  0  0  0  0  0  0  0  0  0  0  0
   19.6486  -21.9383   -5.5937 O   0  0  0  0  0  0  0  0  0  0  0  0
   21.7138  -22.8526   -5.5218 O   0  0  0  0  0  0  0  0  0  0  0  0
  1  2  1  0
  2  3  2  0
  3  4  1  0
  5  4  2  0
  5  6  1  0
  7  6  1  0
  7  9  1  0
  7  8  1  6
  9 10  2  0
 11  5  1  0
 12  2  1  0
 12 11  2  0
 15 14  1  1
 14 13  1  0
 16  9  1  0
 16 15  1  0
 17 15  1  0
 17 18  2  0
 19 20  1  0
 20 21  1  0
 21 22  1  1
 21 23  1  0
 23 24  1  6
 23 25  1  0
 24 17  1  0
 25 26  2  0
 25 27  1  0
M  END
$$$$
