YSI.pdb
     RDKit          3D

 27 27  0  0  1  0  0  0  0  0999 V2000
   20.6641  -18.3727  -19.1891 O   0  0  0  0  0  0  0  0  0  0  0  0
   20.6638  -16.9957  -18.9704 C   0  0  0  0  0  0  0  0  0  0  0  0
   21.2257  -16.1177  -19.8736 C   0  0  0  0  0  0  0  0  0  0  0  0
   21.2180  -14.7577  -19.6441 C   0  0  0  0  0  0  0  0  0  0  0  0
   20.6501  -14.2106  -18.5044 C   0  0  0  0  0  0  0  0  0  0  0  0
   20.6886  -12.7549  -18.3358 C   0  0  0  0  0  0  0  0  0  0  0  0
   19.3256  -12.0878  -18.4782 C   0  0  2  0  0  0  0  0  0  0  0  0
   18.9611  -12.2431  -19.8745 N   0  0  0  0  0  0  0  0  0  0  0  0
   19.3721  -10.6561  -18.0886 C   0  0  0  0  0  0  0  0  0  0  0  0
   19.7948   -9.8143  -18.9200 O   0  0  0  0  0  0  0  0  0  0  0  0
   20.0891  -15.0927  -17.6034 C   0  0  0  0  0  0  0  0  0  0  0  0
   20.0955  -16.4635  -17.8322 C   0  0  0  0  0  0  0  0  0  0  0  0
   17.7072   -7.0770  -15.4374 O   0  0  0  0  0  0  0  0  0  0  0  0
   17.7684   -8.4460  -15.7104 C   0  0  0  0  0  0  0  0  0  0  0  0
   19.0913   -8.7932  -16.4030 C   0  0  2  0  0  0  0  0  0  0  0  0
   18.9663  -10.1745  -16.8268 N   0  0  0  0  0  0  0  0  0  0  0  0
   20.2302   -8.5979  -15.4814 C   0  0  0  0  0  0  0  0  0  0  0  0
   21.0159   -9.5516  -15.2517 O   0  0  0  0  0  0  0  0  0  0  0  0
   23.9216   -9.2709  -15.0716 C   0  0  0  0  0  0  0  0  0  0  0  0
   22.9738   -8.5371  -15.9562 C   0  0  0  0  0  0  0  0  0  0  0  0
   22.8049   -7.0847  -15.5710 C   0  0  2  0  0  0  0  0  0  0  0  0
   24.0937   -6.4154  -15.2404 C   0  0  0  0  0  0  0  0  0  0  0  0
   21.8221   -7.0009  -14.4037 C   0  0  2  0  0  0  0  0  0  0  0  0
   20.4850   -7.3600  -14.8300 N   0  0  0  0  0  0  0  0  0  0  0  0
   21.8486   -5.6498  -13.7874 C   0  0  0  0  0  0  0  0  0  0  0  0
   21.2423   -4.6795  -14.3159 O   0  0  0  0  0  0  0  0  0  0  0  0
   22.5379   -5.4001  -12.6105 O   0  0  0  0  0  0  0  0  0  0  0  0
  1  2  1  0
  2  3  2  0
  3  4  1  0
  5  4  2  0
  5  6  1  0
  7  6  1  0
  7  9  1  0
  7  8  1  6
  9 10  2  0
 11  5  1  0
 12  2  1  0
 12 11  2  0
 15 14  1  1
 14 13  1  0
 16  9  1  0
 16 15  1  0
 17 15  1  0
 17 18  2  0
 19 20  1  0
 20 21  1  0
 21 22  1  1
 21 23  1  0
 23 24  1  6
 23 25  1  0
 24 17  1  0
 25 26  2  0
 25 27  1  0
M  END
$$$$
