YSI.pdb
     RDKit          3D

 27 27  0  0  1  0  0  0  0  0999 V2000
   24.0711  -21.7127   -7.9161 O   0  0  0  0  0  0  0  0  0  0  0  0
   24.6239  -21.3615   -9.1469 C   0  0  0  0  0  0  0  0  0  0  0  0
   25.9884  -21.2880   -9.3348 C   0  0  0  0  0  0  0  0  0  0  0  0
   26.5212  -20.9392  -10.5582 C   0  0  0  0  0  0  0  0  0  0  0  0
   25.7189  -20.6478  -11.6501 C   0  0  0  0  0  0  0  0  0  0  0  0
   26.3662  -20.2813  -12.9133 C   0  0  0  0  0  0  0  0  0  0  0  0
   25.9471  -21.1550  -14.0897 C   0  0  2  0  0  0  0  0  0  0  0  0
   26.9129  -22.2377  -14.1330 N   0  0  0  0  0  0  0  0  0  0  0  0
   25.9345  -20.3918  -15.3629 C   0  0  0  0  0  0  0  0  0  0  0  0
   27.0288  -20.1048  -15.9093 O   0  0  0  0  0  0  0  0  0  0  0  0
   24.3544  -20.7224  -11.4577 C   0  0  0  0  0  0  0  0  0  0  0  0
   23.8148  -21.0737  -10.2259 C   0  0  0  0  0  0  0  0  0  0  0  0
   22.4576  -19.8138  -17.3889 O   0  0  0  0  0  0  0  0  0  0  0  0
   23.6505  -19.5996  -18.0843 C   0  0  0  0  0  0  0  0  0  0  0  0
   24.7289  -19.0571  -17.1393 C   0  0  2  0  0  0  0  0  0  0  0  0
   24.7556  -19.9626  -16.0067 N   0  0  0  0  0  0  0  0  0  0  0  0
   24.4173  -17.6708  -16.7323 C   0  0  0  0  0  0  0  0  0  0  0  0
   23.7257  -17.4644  -15.7035 O   0  0  0  0  0  0  0  0  0  0  0  0
   27.7940  -14.2109  -15.6018 C   0  0  0  0  0  0  0  0  0  0  0  0
   26.4825  -14.8965  -15.7728 C   0  0  0  0  0  0  0  0  0  0  0  0
   25.6306  -14.2862  -16.8627 C   0  0  2  0  0  0  0  0  0  0  0  0
   25.1921  -12.8973  -16.5510 C   0  0  0  0  0  0  0  0  0  0  0  0
   24.4330  -15.2012  -17.1157 C   0  0  2  0  0  0  0  0  0  0  0  0
   24.8708  -16.5379  -17.4622 N   0  0  0  0  0  0  0  0  0  0  0  0
   23.5471  -14.6336  -18.1641 C   0  0  0  0  0  0  0  0  0  0  0  0
   23.8372  -14.7315  -19.3866 O   0  0  0  0  0  0  0  0  0  0  0  0
   22.3695  -13.9754  -17.8438 O   0  0  0  0  0  0  0  0  0  0  0  0
  1  2  1  0
  2  3  2  0
  3  4  1  0
  5  4  2  0
  5  6  1  0
  7  6  1  0
  7  9  1  0
  7  8  1  6
  9 10  2  0
 11  5  1  0
 12  2  1  0
 12 11  2  0
 15 14  1  6
 14 13  1  0
 16  9  1  0
 16 15  1  0
 17 15  1  0
 17 18  2  0
 19 20  1  0
 20 21  1  0
 21 22  1  1
 21 23  1  0
 23 24  1  6
 23 25  1  0
 24 17  1  0
 25 26  2  0
 25 27  1  0
M  END
$$$$
