YSI.pdb
     RDKit          3D

 27 27  0  0  1  0  0  0  0  0999 V2000
   20.0885  -14.1587  -19.9103 O   0  0  0  0  0  0  0  0  0  0  0  0
   20.5580  -15.1505  -19.0501 C   0  0  0  0  0  0  0  0  0  0  0  0
   21.9018  -15.2952  -18.7747 C   0  0  0  0  0  0  0  0  0  0  0  0
   22.3518  -16.2811  -17.9216 C   0  0  0  0  0  0  0  0  0  0  0  0
   21.4837  -17.1676  -17.3041 C   0  0  0  0  0  0  0  0  0  0  0  0
   22.0454  -18.1889  -16.4151 C   0  0  0  0  0  0  0  0  0  0  0  0
   22.8371  -19.2664  -17.1468 C   0  0  2  0  0  0  0  0  0  0  0  0
   21.8504  -20.0559  -17.8609 N   0  0  0  0  0  0  0  0  0  0  0  0
   23.6212  -20.1053  -16.2060 C   0  0  0  0  0  0  0  0  0  0  0  0
   23.0076  -20.8370  -15.3894 O   0  0  0  0  0  0  0  0  0  0  0  0
   20.1402  -17.0193  -17.5826 C   0  0  0  0  0  0  0  0  0  0  0  0
   19.6840  -16.0268  -18.4418 C   0  0  0  0  0  0  0  0  0  0  0  0
   27.7439  -19.4652  -15.3170 O   0  0  0  0  0  0  0  0  0  0  0  0
   27.2704  -20.7403  -15.6369 C   0  0  0  0  0  0  0  0  0  0  0  0
   25.8066  -20.8893  -15.2061 C   0  0  2  0  0  0  0  0  0  0  0  0
   25.0306  -20.1332  -16.1702 N   0  0  0  0  0  0  0  0  0  0  0  0
   25.6145  -20.3910  -13.8280 C   0  0  0  0  0  0  0  0  0  0  0  0
   25.0454  -19.2865  -13.6390 O   0  0  0  0  0  0  0  0  0  0  0  0
   22.4699  -19.9991   -9.4548 C   0  0  0  0  0  0  0  0  0  0  0  0
   23.9245  -20.0554   -9.7716 C   0  0  0  0  0  0  0  0  0  0  0  0
   24.2154  -20.6734  -11.1206 C   0  0  2  0  0  0  0  0  0  0  0  0
   23.6577  -22.0468  -11.2652 C   0  0  0  0  0  0  0  0  0  0  0  0
   25.7268  -20.6630  -11.3462 C   0  0  2  0  0  0  0  0  0  0  0  0
   26.0506  -21.1143  -12.6841 N   0  0  0  0  0  0  0  0  0  0  0  0
   26.4198  -21.4800  -10.3175 C   0  0  0  0  0  0  0  0  0  0  0  0
   26.6494  -21.0218   -9.1661 O   0  0  0  0  0  0  0  0  0  0  0  0
   26.8412  -22.7749  -10.5790 O   0  0  0  0  0  0  0  0  0  0  0  0
  1  2  1  0
  2  3  2  0
  3  4  1  0
  5  4  2  0
  5  6  1  0
  7  6  1  0
  7  9  1  0
  7  8  1  1
  9 10  2  0
 11  5  1  0
 12  2  1  0
 12 11  2  0
 15 14  1  6
 14 13  1  0
 16  9  1  0
 16 15  1  0
 17 15  1  0
 17 18  2  0
 19 20  1  0
 20 21  1  0
 21 22  1  1
 21 23  1  0
 23 24  1  6
 23 25  1  0
 24 17  1  0
 25 26  2  0
 25 27  1  0
M  END
$$$$
