TKN.pdb
     RDKit          3D

 25 24  0  0  1  0  0  0  0  0999 V2000
    7.1615  -14.9362   17.2393 C   0  0  0  0  0  0  0  0  0  0  0  0
    7.7017  -15.0348   18.6444 C   0  0  1  0  0  0  0  0  0  0  0  0
    8.9277  -15.6513   18.7231 O   0  0  0  0  0  0  0  0  0  0  0  0
    7.7783  -13.6326   19.2102 C   0  0  2  0  0  0  0  0  0  0  0  0
    8.6916  -12.8210   18.4172 N   0  0  0  0  0  0  0  0  0  0  0  0
    8.2524  -13.5877   20.6094 C   0  0  0  0  0  0  0  0  0  0  0  0
    9.4795  -13.5077   20.8708 O   0  0  0  0  0  0  0  0  0  0  0  0
    7.3542  -13.6306   21.7376 N   0  0  0  0  0  0  0  0  0  0  0  0
    7.8331  -13.6727   23.0864 C   0  0  1  0  0  0  0  0  0  0  0  0
    6.6849  -13.2178   23.9897 C   0  0  0  0  0  0  0  0  0  0  0  0
    7.0795  -13.2158   25.4337 C   0  0  0  0  0  0  0  0  0  0  0  0
    6.0921  -12.4984   26.3043 C   0  0  0  0  0  0  0  0  0  0  0  0
    6.4883  -12.5039   27.7485 C   0  0  0  0  0  0  0  0  0  0  0  0
    5.5006  -11.8365   28.5872 N   0  0  0  0  0  0  0  0  0  0  0  0
    8.2609  -15.0613   23.5106 C   0  0  0  0  0  0  0  0  0  0  0  0
    7.6215  -16.0546   23.0994 O   0  0  0  0  0  0  0  0  0  0  0  0
   13.4359  -17.6521   24.2455 N   0  0  0  0  0  0  0  0  0  0  0  0
   12.1898  -17.5355   23.6289 C   0  0  0  0  0  0  0  0  0  0  0  0
   11.7341  -18.5943   23.0694 O   0  0  0  0  0  0  0  0  0  0  0  0
   11.3950  -16.3221   23.5811 C   0  0  0  0  0  0  0  0  0  0  0  0
   10.1555  -16.4297   24.4164 C   0  0  2  0  0  0  0  0  0  0  0  0
    9.3793  -15.2011   24.3672 N   0  0  0  0  0  0  0  0  0  0  0  0
   10.3835  -16.7648   25.8333 C   0  0  0  0  0  0  0  0  0  0  0  0
   10.7170  -15.7148   26.7125 O   0  0  0  0  0  0  0  0  0  0  0  0
   10.3091  -17.9035   26.3446 O   0  0  0  0  0  0  0  0  0  0  0  0
  2  1  1  6
  3  2  1  0
  4  2  1  0
  4  5  1  6
  6  4  1  0
  6  8  1  0
  7  6  2  0
  9  8  1  0
 10 11  1  0
  9 10  1  1
 12 13  1  0
 12 11  1  0
 13 14  1  0
 15  9  1  0
 16 15  2  0
 18 17  1  0
 19 18  2  0
 20 18  1  0
 21 20  1  6
 21 23  1  0
 21 22  1  0
 22 15  1  0
 23 24  1  0
 25 23  2  0
M  END
$$$$
