TKN.pdb
     RDKit          3D

 25 24  0  0  1  0  0  0  0  0999 V2000
    7.5283  -14.3993   16.4875 C   0  0  0  0  0  0  0  0  0  0  0  0
    8.1309  -14.7850   17.8157 C   0  0  1  0  0  0  0  0  0  0  0  0
    9.5046  -14.7406   17.8329 O   0  0  0  0  0  0  0  0  0  0  0  0
    7.5592  -13.8602   18.8693 C   0  0  2  0  0  0  0  0  0  0  0  0
    7.8277  -12.4725   18.5175 N   0  0  0  0  0  0  0  0  0  0  0  0
    8.1187  -14.0878   20.2183 C   0  0  0  0  0  0  0  0  0  0  0  0
    9.1242  -13.4457   20.6146 O   0  0  0  0  0  0  0  0  0  0  0  0
    7.5557  -15.0402   21.1442 N   0  0  0  0  0  0  0  0  0  0  0  0
    8.2190  -15.3960   22.3623 C   0  0  1  0  0  0  0  0  0  0  0  0
    7.3150  -16.3873   23.0980 C   0  0  0  0  0  0  0  0  0  0  0  0
    7.9444  -16.8823   24.3628 C   0  0  0  0  0  0  0  0  0  0  0  0
    7.1679  -17.9948   25.0008 C   0  0  0  0  0  0  0  0  0  0  0  0
    7.6976  -18.3646   26.3520 C   0  0  0  0  0  0  0  0  0  0  0  0
    7.0137  -19.5261   26.9063 N   0  0  0  0  0  0  0  0  0  0  0  0
    9.5627  -16.0512   22.1252 C   0  0  0  0  0  0  0  0  0  0  0  0
    9.6331  -17.0638   21.3943 O   0  0  0  0  0  0  0  0  0  0  0  0
   12.1993  -14.5176   19.7096 N   0  0  0  0  0  0  0  0  0  0  0  0
   12.8244  -15.4756   20.5082 C   0  0  0  0  0  0  0  0  0  0  0  0
   13.2583  -16.5193   19.9049 O   0  0  0  0  0  0  0  0  0  0  0  0
   13.0107  -15.3696   21.9437 C   0  0  0  0  0  0  0  0  0  0  0  0
   11.9988  -16.1739   22.7020 C   0  0  2  0  0  0  0  0  0  0  0  0
   10.7116  -15.4987   22.7407 N   0  0  0  0  0  0  0  0  0  0  0  0
   12.3764  -16.5085   24.0867 C   0  0  0  0  0  0  0  0  0  0  0  0
   13.5959  -17.1850   24.2911 O   0  0  0  0  0  0  0  0  0  0  0  0
   11.7158  -16.2486   25.1160 O   0  0  0  0  0  0  0  0  0  0  0  0
  2  1  1  6
  3  2  1  0
  4  2  1  0
  4  5  1  6
  6  4  1  0
  6  8  1  0
  7  6  2  0
  9  8  1  0
 10 11  1  0
  9 10  1  6
 12 13  1  0
 12 11  1  0
 13 14  1  0
 15  9  1  0
 16 15  2  0
 18 17  1  0
 19 18  2  0
 20 18  1  0
 21 20  1  1
 21 23  1  0
 21 22  1  0
 22 15  1  0
 23 24  1  0
 25 23  2  0
M  END
$$$$
