TKN.pdb
     RDKit          3D

 25 24  0  0  1  0  0  0  0  0999 V2000
    8.9110  -16.2033   16.8676 C   0  0  0  0  0  0  0  0  0  0  0  0
    8.8619  -14.7044   16.7036 C   0  0  1  0  0  0  0  0  0  0  0  0
    8.4135  -14.2980   15.4695 O   0  0  0  0  0  0  0  0  0  0  0  0
    7.9752  -14.1480   17.7974 C   0  0  2  0  0  0  0  0  0  0  0  0
    7.8696  -12.7009   17.6697 N   0  0  0  0  0  0  0  0  0  0  0  0
    8.4716  -14.4339   19.1599 C   0  0  0  0  0  0  0  0  0  0  0  0
    9.4732  -13.8292   19.6200 O   0  0  0  0  0  0  0  0  0  0  0  0
    7.8489  -15.4037   20.0279 N   0  0  0  0  0  0  0  0  0  0  0  0
    8.4016  -15.7434   21.3044 C   0  0  1  0  0  0  0  0  0  0  0  0
    7.5238  -16.8462   21.8996 C   0  0  0  0  0  0  0  0  0  0  0  0
    8.0547  -17.3336   23.2116 C   0  0  0  0  0  0  0  0  0  0  0  0
    7.3211  -18.5365   23.7240 C   0  0  0  0  0  0  0  0  0  0  0  0
    7.8767  -19.0399   25.0204 C   0  0  0  0  0  0  0  0  0  0  0  0
    7.1057  -20.1596   25.5456 N   0  0  0  0  0  0  0  0  0  0  0  0
    9.8225  -16.2561   21.2073 C   0  0  0  0  0  0  0  0  0  0  0  0
   10.1034  -17.1338   20.3616 O   0  0  0  0  0  0  0  0  0  0  0  0
   12.5518  -13.4384   19.7508 N   0  0  0  0  0  0  0  0  0  0  0  0
   12.9664  -14.6791   20.2359 C   0  0  0  0  0  0  0  0  0  0  0  0
   13.2513  -15.5646   19.3549 O   0  0  0  0  0  0  0  0  0  0  0  0
   13.0931  -15.0237   21.6402 C   0  0  0  0  0  0  0  0  0  0  0  0
   12.1902  -16.1565   22.0237 C   0  0  2  0  0  0  0  0  0  0  0  0
   10.8022  -15.7269   22.0815 N   0  0  0  0  0  0  0  0  0  0  0  0
   12.5157  -16.8097   23.3041 C   0  0  0  0  0  0  0  0  0  0  0  0
   13.7773  -17.4262   23.4263 O   0  0  0  0  0  0  0  0  0  0  0  0
   11.7761  -16.8730   24.3103 O   0  0  0  0  0  0  0  0  0  0  0  0
  2  1  1  6
  3  2  1  0
  4  2  1  0
  4  5  1  6
  6  4  1  0
  6  8  1  0
  7  6  2  0
  9  8  1  0
 10 11  1  0
  9 10  1  6
 12 13  1  0
 12 11  1  0
 13 14  1  0
 15  9  1  0
 16 15  2  0
 18 17  1  0
 19 18  2  0
 20 18  1  0
 21 20  1  1
 21 23  1  0
 21 22  1  0
 22 15  1  0
 23 24  1  0
 25 23  2  0
M  END
$$$$
