TKN.pdb
     RDKit          3D

 25 24  0  0  1  0  0  0  0  0999 V2000
    9.7707  -15.5350   18.4183 C   0  0  0  0  0  0  0  0  0  0  0  0
    9.4501  -14.0611   18.4500 C   0  0  1  0  0  0  0  0  0  0  0  0
    9.8316  -13.3882   17.3138 O   0  0  0  0  0  0  0  0  0  0  0  0
    7.9598  -13.9165   18.6743 C   0  0  2  0  0  0  0  0  0  0  0  0
    7.5913  -12.5075   18.7022 N   0  0  0  0  0  0  0  0  0  0  0  0
    7.4945  -14.5176   19.9419 C   0  0  0  0  0  0  0  0  0  0  0  0
    7.8109  -14.0117   21.0484 O   0  0  0  0  0  0  0  0  0  0  0  0
    6.6644  -15.6969   19.9857 N   0  0  0  0  0  0  0  0  0  0  0  0
    6.3421  -16.3513   21.2179 C   0  0  1  0  0  0  0  0  0  0  0  0
    5.4271  -17.5299   20.8794 C   0  0  0  0  0  0  0  0  0  0  0  0
    5.1220  -18.3625   22.0855 C   0  0  0  0  0  0  0  0  0  0  0  0
    4.2136  -19.5155   21.7804 C   0  0  0  0  0  0  0  0  0  0  0  0
    3.8824  -20.3242   22.9965 C   0  0  0  0  0  0  0  0  0  0  0  0
    3.0839  -21.4987   22.6693 N   0  0  0  0  0  0  0  0  0  0  0  0
    7.5656  -16.8796   21.9355 C   0  0  0  0  0  0  0  0  0  0  0  0
    8.3479  -17.6478   21.3337 O   0  0  0  0  0  0  0  0  0  0  0  0
   10.9431  -14.8958   22.1435 N   0  0  0  0  0  0  0  0  0  0  0  0
   10.8474  -15.9816   23.0144 C   0  0  0  0  0  0  0  0  0  0  0  0
   11.5688  -17.0012   22.7289 O   0  0  0  0  0  0  0  0  0  0  0  0
   10.0041  -16.0301   24.1947 C   0  0  0  0  0  0  0  0  0  0  0  0
    8.8978  -17.0310   24.0532 C   0  0  2  0  0  0  0  0  0  0  0  0
    7.7940  -16.4893   23.2770 N   0  0  0  0  0  0  0  0  0  0  0  0
    8.3507  -17.5420   25.3227 C   0  0  0  0  0  0  0  0  0  0  0  0
    6.9641  -17.4138   25.5408 O   0  0  0  0  0  0  0  0  0  0  0  0
    9.0007  -18.0878   26.2409 O   0  0  0  0  0  0  0  0  0  0  0  0
  2  1  1  6
  3  2  1  0
  4  2  1  0
  4  5  1  1
  6  4  1  0
  6  8  1  0
  7  6  2  0
  9  8  1  0
 10 11  1  0
  9 10  1  6
 12 13  1  0
 12 11  1  0
 13 14  1  0
 15  9  1  0
 16 15  2  0
 18 17  1  0
 19 18  2  0
 20 18  1  0
 21 20  1  1
 21 23  1  0
 21 22  1  0
 22 15  1  0
 23 24  1  0
 25 23  2  0
M  END
$$$$
