TKN.pdb
     RDKit          3D

 25 24  0  0  1  0  0  0  0  0999 V2000
    7.2453  -14.3237   16.6925 C   0  0  0  0  0  0  0  0  0  0  0  0
    7.9564  -14.7072   17.9665 C   0  0  1  0  0  0  0  0  0  0  0  0
    9.3268  -14.6734   17.8661 O   0  0  0  0  0  0  0  0  0  0  0  0
    7.4836  -13.7725   19.0598 C   0  0  2  0  0  0  0  0  0  0  0  0
    7.8182  -12.3957   18.7219 N   0  0  0  0  0  0  0  0  0  0  0  0
    8.0838  -14.0595   20.3796 C   0  0  0  0  0  0  0  0  0  0  0  0
    9.1201  -13.4577   20.7599 O   0  0  0  0  0  0  0  0  0  0  0  0
    7.5277  -15.0269   21.2941 N   0  0  0  0  0  0  0  0  0  0  0  0
    8.2118  -15.4211   22.4887 C   0  0  1  0  0  0  0  0  0  0  0  0
    7.3480  -16.4796   23.1775 C   0  0  0  0  0  0  0  0  0  0  0  0
    8.0385  -17.0757   24.3644 C   0  0  0  0  0  0  0  0  0  0  0  0
    7.1969  -18.0924   25.0756 C   0  0  0  0  0  0  0  0  0  0  0  0
    7.8917  -18.6855   26.2623 C   0  0  0  0  0  0  0  0  0  0  0  0
    7.0052  -19.5403   27.0419 N   0  0  0  0  0  0  0  0  0  0  0  0
    9.5757  -16.0159   22.2109 C   0  0  0  0  0  0  0  0  0  0  0  0
    9.7066  -16.8505   21.2886 O   0  0  0  0  0  0  0  0  0  0  0  0
   14.4604  -14.6409   20.0770 N   0  0  0  0  0  0  0  0  0  0  0  0
   13.8017  -15.3676   21.0692 C   0  0  0  0  0  0  0  0  0  0  0  0
   14.2208  -16.5620   21.2682 O   0  0  0  0  0  0  0  0  0  0  0  0
   12.6990  -14.8708   21.8715 C   0  0  0  0  0  0  0  0  0  0  0  0
   12.0411  -15.9630   22.6590 C   0  0  2  0  0  0  0  0  0  0  0  0
   10.6740  -15.6108   23.0070 N   0  0  0  0  0  0  0  0  0  0  0  0
   12.7392  -16.3476   23.8987 C   0  0  0  0  0  0  0  0  0  0  0  0
   13.9564  -17.0480   23.7785 O   0  0  0  0  0  0  0  0  0  0  0  0
   12.3570  -16.1113   25.0656 O   0  0  0  0  0  0  0  0  0  0  0  0
  2  1  1  6
  3  2  1  0
  4  2  1  0
  4  5  1  6
  6  4  1  0
  6  8  1  0
  7  6  2  0
  9  8  1  0
 10 11  1  0
  9 10  1  6
 12 13  1  0
 12 11  1  0
 13 14  1  0
 15  9  1  0
 16 15  2  0
 18 17  1  0
 19 18  2  0
 20 18  1  0
 21 20  1  1
 21 23  1  0
 21 22  1  0
 22 15  1  0
 23 24  1  0
 25 23  2  0
M  END
$$$$
