TKN.pdb
     RDKit          3D

 25 24  0  0  1  0  0  0  0  0999 V2000
    7.4107  -16.1805   19.1474 C   0  0  0  0  0  0  0  0  0  0  0  0
    8.1010  -15.0585   18.4122 C   0  0  1  0  0  0  0  0  0  0  0  0
    7.7637  -14.9796   17.0821 O   0  0  0  0  0  0  0  0  0  0  0  0
    7.7627  -13.7639   19.1207 C   0  0  2  0  0  0  0  0  0  0  0  0
    8.3102  -12.6320   18.3853 N   0  0  0  0  0  0  0  0  0  0  0  0
    8.2931  -13.6910   20.4983 C   0  0  0  0  0  0  0  0  0  0  0  0
    9.5310  -13.6295   20.7089 O   0  0  0  0  0  0  0  0  0  0  0  0
    7.4399  -13.6847   21.6618 N   0  0  0  0  0  0  0  0  0  0  0  0
    7.9701  -13.7428   22.9906 C   0  0  1  0  0  0  0  0  0  0  0  0
    6.8713  -13.2586   23.9388 C   0  0  0  0  0  0  0  0  0  0  0  0
    7.3325  -13.2403   25.3628 C   0  0  0  0  0  0  0  0  0  0  0  0
    6.2813  -12.7395   26.3071 C   0  0  0  0  0  0  0  0  0  0  0  0
    6.7968  -12.5667   27.7025 C   0  0  0  0  0  0  0  0  0  0  0  0
    5.7724  -12.0518   28.6023 N   0  0  0  0  0  0  0  0  0  0  0  0
    8.3760  -15.1435   23.3962 C   0  0  0  0  0  0  0  0  0  0  0  0
    7.7712  -16.1244   22.9100 O   0  0  0  0  0  0  0  0  0  0  0  0
   11.2782  -17.3319   21.0670 N   0  0  0  0  0  0  0  0  0  0  0  0
   10.7208  -17.4837   22.3370 C   0  0  0  0  0  0  0  0  0  0  0  0
    9.7238  -18.2837   22.4253 O   0  0  0  0  0  0  0  0  0  0  0  0
   11.1855  -16.8106   23.5360 C   0  0  0  0  0  0  0  0  0  0  0  0
   10.0792  -16.5961   24.5238 C   0  0  2  0  0  0  0  0  0  0  0  0
    9.4350  -15.3083   24.3211 N   0  0  0  0  0  0  0  0  0  0  0  0
   10.4792  -16.6845   25.9395 C   0  0  0  0  0  0  0  0  0  0  0  0
   10.8776  -15.4972   26.5862 O   0  0  0  0  0  0  0  0  0  0  0  0
   10.5006  -17.7214   26.6379 O   0  0  0  0  0  0  0  0  0  0  0  0
  2  1  1  1
  3  2  1  0
  4  2  1  0
  4  5  1  6
  6  4  1  0
  6  8  1  0
  7  6  2  0
  9  8  1  0
 10 11  1  0
  9 10  1  1
 12 13  1  0
 12 11  1  0
 13 14  1  0
 15  9  1  0
 16 15  2  0
 18 17  1  0
 19 18  2  0
 20 18  1  0
 21 20  1  6
 21 23  1  0
 21 22  1  0
 22 15  1  0
 23 24  1  0
 25 23  2  0
M  END
$$$$
