TKN.pdb
     RDKit          3D

 25 24  0  0  1  0  0  0  0  0999 V2000
    7.6161  -12.4328   19.4509 C   0  0  0  0  0  0  0  0  0  0  0  0
    7.4948  -13.5122   18.4039 C   0  0  1  0  0  0  0  0  0  0  0  0
    7.7047  -13.0643   17.1215 O   0  0  0  0  0  0  0  0  0  0  0  0
    8.4832  -14.6057   18.7499 C   0  0  2  0  0  0  0  0  0  0  0  0
    8.3804  -15.6966   17.7903 N   0  0  0  0  0  0  0  0  0  0  0  0
    8.2758  -15.1824   20.0949 C   0  0  0  0  0  0  0  0  0  0  0  0
    8.5309  -14.5135   21.1283 O   0  0  0  0  0  0  0  0  0  0  0  0
    7.7767  -16.5205   20.2997 N   0  0  0  0  0  0  0  0  0  0  0  0
    7.5460  -17.0510   21.6096 C   0  0  1  0  0  0  0  0  0  0  0  0
    6.9559  -18.4517   21.4340 C   0  0  0  0  0  0  0  0  0  0  0  0
    6.6733  -19.1061   22.7504 C   0  0  0  0  0  0  0  0  0  0  0  0
    5.9827  -20.4287   22.6047 C   0  0  0  0  0  0  0  0  0  0  0  0
    5.5484  -20.9987   23.9198 C   0  0  0  0  0  0  0  0  0  0  0  0
    4.7510  -22.2072   23.7535 N   0  0  0  0  0  0  0  0  0  0  0  0
    8.8154  -17.1602   22.4269 C   0  0  0  0  0  0  0  0  0  0  0  0
    9.8557  -17.6021   21.8915 O   0  0  0  0  0  0  0  0  0  0  0  0
    7.8043  -15.1925   26.6053 N   0  0  0  0  0  0  0  0  0  0  0  0
    9.1114  -15.6804   26.6102 C   0  0  0  0  0  0  0  0  0  0  0  0
    9.4929  -16.2656   27.6843 O   0  0  0  0  0  0  0  0  0  0  0  0
   10.0449  -15.5708   25.5042 C   0  0  0  0  0  0  0  0  0  0  0  0
    9.9924  -16.7682   24.6047 C   0  0  2  0  0  0  0  0  0  0  0  0
    8.7922  -16.7577   23.7839 N   0  0  0  0  0  0  0  0  0  0  0  0
   10.0595  -18.0701   25.2922 C   0  0  0  0  0  0  0  0  0  0  0  0
   11.3329  -18.5713   25.6297 O   0  0  0  0  0  0  0  0  0  0  0  0
    9.0868  -18.7870   25.6134 O   0  0  0  0  0  0  0  0  0  0  0  0
  2  1  1  1
  3  2  1  0
  4  2  1  0
  4  5  1  6
  6  4  1  0
  6  8  1  0
  7  6  2  0
  9  8  1  0
 10 11  1  0
  9 10  1  6
 12 13  1  0
 12 11  1  0
 13 14  1  0
 15  9  1  0
 16 15  2  0
 18 17  1  0
 19 18  2  0
 20 18  1  0
 21 20  1  1
 21 23  1  0
 21 22  1  0
 22 15  1  0
 23 24  1  0
 25 23  2  0
M  END
$$$$
