TKN.pdb
     RDKit          3D

 25 24  0  0  1  0  0  0  0  0999 V2000
    8.4216  -15.9912   17.8117 C   0  0  0  0  0  0  0  0  0  0  0  0
    8.4779  -14.4978   17.6057 C   0  0  1  0  0  0  0  0  0  0  0  0
    8.0476  -14.0947   16.3641 O   0  0  0  0  0  0  0  0  0  0  0  0
    7.6439  -13.8493   18.6902 C   0  0  2  0  0  0  0  0  0  0  0  0
    7.5692  -12.4109   18.4727 N   0  0  0  0  0  0  0  0  0  0  0  0
    8.1806  -14.0607   20.0509 C   0  0  0  0  0  0  0  0  0  0  0  0
    9.2025  -13.4421   20.4430 O   0  0  0  0  0  0  0  0  0  0  0  0
    7.5762  -14.9703   20.9937 N   0  0  0  0  0  0  0  0  0  0  0  0
    8.2103  -15.3106   22.2316 C   0  0  1  0  0  0  0  0  0  0  0  0
    7.2610  -16.2439   22.9858 C   0  0  0  0  0  0  0  0  0  0  0  0
    7.8664  -16.7427   24.2608 C   0  0  0  0  0  0  0  0  0  0  0  0
    6.9559  -17.6654   25.0138 C   0  0  0  0  0  0  0  0  0  0  0  0
    7.4990  -18.0382   26.3587 C   0  0  0  0  0  0  0  0  0  0  0  0
    6.5513  -18.8351   27.1275 N   0  0  0  0  0  0  0  0  0  0  0  0
    9.5318  -16.0219   22.0342 C   0  0  0  0  0  0  0  0  0  0  0  0
    9.5913  -17.0076   21.2666 O   0  0  0  0  0  0  0  0  0  0  0  0
   12.1084  -15.6365   19.8148 N   0  0  0  0  0  0  0  0  0  0  0  0
   12.9704  -14.9865   20.6986 C   0  0  0  0  0  0  0  0  0  0  0  0
   13.7789  -14.1387   20.1796 O   0  0  0  0  0  0  0  0  0  0  0  0
   13.0099  -15.2027   22.1332 C   0  0  0  0  0  0  0  0  0  0  0  0
   11.9722  -16.1867   22.5813 C   0  0  2  0  0  0  0  0  0  0  0  0
   10.6726  -15.5511   22.7277 N   0  0  0  0  0  0  0  0  0  0  0  0
   12.2779  -16.8877   23.8411 C   0  0  0  0  0  0  0  0  0  0  0  0
   11.6169  -16.4591   25.0099 O   0  0  0  0  0  0  0  0  0  0  0  0
   13.0757  -17.8402   23.9819 O   0  0  0  0  0  0  0  0  0  0  0  0
  2  1  1  6
  3  2  1  0
  4  2  1  0
  4  5  1  6
  6  4  1  0
  6  8  1  0
  7  6  2  0
  9  8  1  0
 10 11  1  0
  9 10  1  1
 12 13  1  0
 12 11  1  0
 13 14  1  0
 15  9  1  0
 16 15  2  0
 18 17  1  0
 19 18  2  0
 20 18  1  0
 21 20  1  1
 21 23  1  0
 21 22  1  0
 22 15  1  0
 23 24  1  0
 25 23  2  0
M  END
$$$$
