VTM.pdb
     RDKit          3D

 23 22  0  0  1  0  0  0  0  0999 V2000
   19.5195  -14.6856  -16.9042 C   0  0  0  0  0  0  0  0  0  0  0  0
   19.6617  -13.1797  -17.1457 C   0  0  2  0  0  0  0  0  0  0  0  0
   21.0860  -12.8123  -16.7965 C   0  0  0  0  0  0  0  0  0  0  0  0
   18.6693  -12.5045  -16.2238 C   0  0  2  0  0  0  0  0  0  0  0  0
   17.3804  -13.0615  -16.4511 N   0  0  0  0  0  0  0  0  0  0  0  0
   18.7478  -11.0483  -16.4844 C   0  0  0  0  0  0  0  0  0  0  0  0
   18.5355  -10.6432  -17.6508 O   0  0  0  0  0  0  0  0  0  0  0  0
   16.5636   -8.4962  -15.7188 C   0  0  0  0  0  0  0  0  0  0  0  0
   17.8469   -8.0066  -15.0820 C   0  0  1  0  0  0  0  0  0  0  0  0
   17.8024   -8.4076  -13.7411 O   0  0  0  0  0  0  0  0  0  0  0  0
   19.0582   -8.6759  -15.6993 C   0  0  2  0  0  0  0  0  0  0  0  0
   19.0497  -10.1054  -15.4808 N   0  0  0  0  0  0  0  0  0  0  0  0
   20.3155   -8.1386  -15.1678 C   0  0  0  0  0  0  0  0  0  0  0  0
   20.9822   -8.8028  -14.3544 O   0  0  0  0  0  0  0  0  0  0  0  0
   26.8567   -4.3846  -16.8537 C   0  0  0  0  0  0  0  0  0  0  0  0
   25.1894   -4.9508  -17.3217 S   0  0  0  0  0  0  0  0  0  0  0  0
   24.2345   -5.3815  -15.8323 C   0  0  0  0  0  0  0  0  0  0  0  0
   22.9233   -5.9677  -16.2831 C   0  0  0  0  0  0  0  0  0  0  0  0
   22.0543   -6.3639  -15.1067 C   0  0  2  0  0  0  0  0  0  0  0  0
   20.7724   -6.8744  -15.5725 N   0  0  0  0  0  0  0  0  0  0  0  0
   21.7880   -5.2256  -14.2132 C   0  0  0  0  0  0  0  0  0  0  0  0
   22.6497   -4.9241  -13.1871 O   0  0  0  0  0  0  0  0  0  0  0  0
   20.7687   -4.5307  -14.3930 O   0  0  0  0  0  0  0  0  0  0  0  0
  2  3  1  1
  2  1  1  0
  4  2  1  0
  4  5  1  6
  6  7  2  0
  6  4  1  0
  9  8  1  6
  9 10  1  0
  9 11  1  0
 11 12  1  1
 12  6  1  0
 13 11  1  0
 13 20  1  0
 14 13  2  0
 15 16  1  0
 16 17  1  0
 19 18  1  6
 18 17  1  0
 19 20  1  0
 19 21  1  0
 21 22  1  0
 23 21  2  0
M  END
$$$$
