VTM.pdb
     RDKit          3D

 23 22  0  0  1  0  0  0  0  0999 V2000
   28.8200  -18.4466  -16.2185 C   0  0  0  0  0  0  0  0  0  0  0  0
   28.0407  -18.3116  -14.9067 C   0  0  2  0  0  0  0  0  0  0  0  0
   29.0252  -18.5538  -13.7851 C   0  0  0  0  0  0  0  0  0  0  0  0
   26.9617  -19.3723  -14.9407 C   0  0  2  0  0  0  0  0  0  0  0  0
   26.2025  -19.2154  -16.1332 N   0  0  0  0  0  0  0  0  0  0  0  0
   26.1656  -19.2291  -13.6996 C   0  0  0  0  0  0  0  0  0  0  0  0
   25.6233  -18.1237  -13.4681 O   0  0  0  0  0  0  0  0  0  0  0  0
   23.0282  -20.4917  -12.7817 C   0  0  0  0  0  0  0  0  0  0  0  0
   23.9247  -20.9892  -11.6677 C   0  0  1  0  0  0  0  0  0  0  0  0
   24.3090  -22.2892  -12.0185 O   0  0  0  0  0  0  0  0  0  0  0  0
   25.1944  -20.1674  -11.5742 C   0  0  2  0  0  0  0  0  0  0  0  0
   25.9939  -20.2785  -12.7739 N   0  0  0  0  0  0  0  0  0  0  0  0
   26.0247  -20.5640  -10.4317 C   0  0  0  0  0  0  0  0  0  0  0  0
   26.8956  -21.4415  -10.5696 O   0  0  0  0  0  0  0  0  0  0  0  0
   30.0734  -18.8776   -5.8773 C   0  0  0  0  0  0  0  0  0  0  0  0
   28.5568  -19.1543   -4.9062 S   0  0  0  0  0  0  0  0  0  0  0  0
   27.4565  -20.3115   -5.7815 C   0  0  0  0  0  0  0  0  0  0  0  0
   27.0804  -19.6800   -7.0952 C   0  0  0  0  0  0  0  0  0  0  0  0
   26.2729  -20.6271   -7.9597 C   0  0  2  0  0  0  0  0  0  0  0  0
   25.8416  -19.9577   -9.1790 N   0  0  0  0  0  0  0  0  0  0  0  0
   25.0713  -21.1151   -7.2646 C   0  0  0  0  0  0  0  0  0  0  0  0
   25.1653  -22.0969   -6.3088 O   0  0  0  0  0  0  0  0  0  0  0  0
   23.9589  -20.6297   -7.5495 O   0  0  0  0  0  0  0  0  0  0  0  0
  2  3  1  1
  2  1  1  0
  4  2  1  0
  4  5  1  6
  6  7  2  0
  6  4  1  0
  9  8  1  6
  9 10  1  0
  9 11  1  0
 11 12  1  6
 12  6  1  0
 13 11  1  0
 13 20  1  0
 14 13  2  0
 15 16  1  0
 16 17  1  0
 19 18  1  1
 18 17  1  0
 19 20  1  0
 19 21  1  0
 21 22  1  0
 23 21  2  0
M  END
$$$$
