VTM.pdb
     RDKit          3D

 23 22  0  0  1  0  0  0  0  0999 V2000
   15.8847  -14.9090  -15.5880 C   0  0  0  0  0  0  0  0  0  0  0  0
   16.9368  -15.1873  -16.6658 C   0  0  2  0  0  0  0  0  0  0  0  0
   17.5586  -16.5254  -16.3362 C   0  0  0  0  0  0  0  0  0  0  0  0
   17.9478  -14.0647  -16.5746 C   0  0  2  0  0  0  0  0  0  0  0  0
   18.5114  -14.0607  -15.2686 N   0  0  0  0  0  0  0  0  0  0  0  0
   17.2442  -12.8100  -16.9281 C   0  0  0  0  0  0  0  0  0  0  0  0
   16.7990  -12.6886  -18.0929 O   0  0  0  0  0  0  0  0  0  0  0  0
   14.0179  -11.4246  -15.9592 C   0  0  0  0  0  0  0  0  0  0  0  0
   15.0597  -10.4232  -15.5074 C   0  0  1  0  0  0  0  0  0  0  0  0
   15.3932  -10.7644  -14.1909 O   0  0  0  0  0  0  0  0  0  0  0  0
   16.3294  -10.5425  -16.3258 C   0  0  2  0  0  0  0  0  0  0  0  0
   17.0559  -11.7533  -16.0140 N   0  0  0  0  0  0  0  0  0  0  0  0
   17.2285   -9.4022  -16.1175 C   0  0  0  0  0  0  0  0  0  0  0  0
   18.1525   -9.4809  -15.2883 O   0  0  0  0  0  0  0  0  0  0  0  0
   20.6034   -3.2092  -19.5316 C   0  0  0  0  0  0  0  0  0  0  0  0
   19.4812   -4.6427  -19.6049 S   0  0  0  0  0  0  0  0  0  0  0  0
   19.1826   -5.2891  -17.9290 C   0  0  0  0  0  0  0  0  0  0  0  0
   18.2641   -6.4753  -18.0531 C   0  0  0  0  0  0  0  0  0  0  0  0
   17.9839   -7.1087  -16.7053 C   0  0  2  0  0  0  0  0  0  0  0  0
   17.0518   -8.2181  -16.8504 N   0  0  0  0  0  0  0  0  0  0  0  0
   17.3962   -6.1474  -15.7589 C   0  0  0  0  0  0  0  0  0  0  0  0
   18.1972   -5.4086  -14.9230 O   0  0  0  0  0  0  0  0  0  0  0  0
   16.1582   -6.0056  -15.7188 O   0  0  0  0  0  0  0  0  0  0  0  0
  2  3  1  1
  2  1  1  0
  4  2  1  0
  4  5  1  1
  6  7  2  0
  6  4  1  0
  9  8  1  6
  9 10  1  0
  9 11  1  0
 11 12  1  1
 12  6  1  0
 13 11  1  0
 13 20  1  0
 14 13  2  0
 15 16  1  0
 16 17  1  0
 19 18  1  6
 18 17  1  0
 19 20  1  0
 19 21  1  0
 21 22  1  0
 23 21  2  0
M  END
$$$$
