VTM.pdb
     RDKit          3D

 23 22  0  0  1  0  0  0  0  0999 V2000
   19.5990  -21.0323  -12.6769 C   0  0  0  0  0  0  0  0  0  0  0  0
   20.3056  -19.6848  -12.8540 C   0  0  2  0  0  0  0  0  0  0  0  0
   19.2932  -18.7343  -13.4518 C   0  0  0  0  0  0  0  0  0  0  0  0
   21.4639  -19.9313  -13.7964 C   0  0  2  0  0  0  0  0  0  0  0  0
   20.9521  -20.3965  -15.0394 N   0  0  0  0  0  0  0  0  0  0  0  0
   22.3778  -20.8870  -13.1287 C   0  0  0  0  0  0  0  0  0  0  0  0
   22.1457  -22.1121  -13.2506 O   0  0  0  0  0  0  0  0  0  0  0  0
   25.9493  -20.6313  -14.1165 C   0  0  0  0  0  0  0  0  0  0  0  0
   25.2984  -21.7852  -13.3838 C   0  0  1  0  0  0  0  0  0  0  0  0
   26.3325  -22.6535  -13.0130 O   0  0  0  0  0  0  0  0  0  0  0  0
   24.6362  -21.3204  -12.1025 C   0  0  2  0  0  0  0  0  0  0  0  0
   23.4910  -20.4778  -12.3665 N   0  0  0  0  0  0  0  0  0  0  0  0
   25.5628  -20.5776  -11.2413 C   0  0  0  0  0  0  0  0  0  0  0  0
   25.7000  -19.3499  -11.3870 O   0  0  0  0  0  0  0  0  0  0  0  0
   28.9196  -19.0928   -4.4928 C   0  0  0  0  0  0  0  0  0  0  0  0
   27.8548  -20.1911   -5.4824 S   0  0  0  0  0  0  0  0  0  0  0  0
   28.2353  -20.0016   -7.2531 C   0  0  0  0  0  0  0  0  0  0  0  0
   27.1252  -20.6553   -8.0320 C   0  0  0  0  0  0  0  0  0  0  0  0
   27.3611  -20.5625   -9.5260 C   0  0  2  0  0  0  0  0  0  0  0  0
   26.2988  -21.2462  -10.2504 N   0  0  0  0  0  0  0  0  0  0  0  0
   28.6402  -21.1747   -9.9186 C   0  0  0  0  0  0  0  0  0  0  0  0
   29.8233  -20.4999   -9.7415 O   0  0  0  0  0  0  0  0  0  0  0  0
   28.6454  -22.3175  -10.4168 O   0  0  0  0  0  0  0  0  0  0  0  0
  2  3  1  6
  2  1  1  0
  4  2  1  0
  4  5  1  6
  6  7  2  0
  6  4  1  0
  9  8  1  1
  9 10  1  0
  9 11  1  0
 11 12  1  6
 12  6  1  0
 13 11  1  0
 13 20  1  0
 14 13  2  0
 15 16  1  0
 16 17  1  0
 19 18  1  1
 18 17  1  0
 19 20  1  0
 19 21  1  0
 21 22  1  0
 23 21  2  0
M  END
$$$$
