VTM.pdb
     RDKit          3D

 23 22  0  0  1  0  0  0  0  0999 V2000
   17.6434  -13.5066  -18.3377 C   0  0  0  0  0  0  0  0  0  0  0  0
   18.5259  -12.2911  -18.0375 C   0  0  2  0  0  0  0  0  0  0  0  0
   17.8352  -11.5070  -16.9450 C   0  0  0  0  0  0  0  0  0  0  0  0
   18.6120  -11.4986  -19.3240 C   0  0  2  0  0  0  0  0  0  0  0  0
   19.1200  -12.3434  -20.3494 N   0  0  0  0  0  0  0  0  0  0  0  0
   19.4549  -10.3110  -19.0529 C   0  0  0  0  0  0  0  0  0  0  0  0
   20.6998  -10.4477  -19.0888 O   0  0  0  0  0  0  0  0  0  0  0  0
   19.1655   -7.2094  -20.9914 C   0  0  0  0  0  0  0  0  0  0  0  0
   19.2208   -6.7418  -19.5525 C   0  0  1  0  0  0  0  0  0  0  0  0
   17.9014   -6.4631  -19.1750 O   0  0  0  0  0  0  0  0  0  0  0  0
   19.7157   -7.8415  -18.6349 C   0  0  2  0  0  0  0  0  0  0  0  0
   18.9179   -9.0413  -18.7579 N   0  0  0  0  0  0  0  0  0  0  0  0
   19.7092   -7.4292  -17.2270 C   0  0  0  0  0  0  0  0  0  0  0  0
   18.9870   -8.0239  -16.4072 O   0  0  0  0  0  0  0  0  0  0  0  0
   22.8499   -8.6077  -10.9337 C   0  0  0  0  0  0  0  0  0  0  0  0
   22.4776   -8.7553  -12.7111 S   0  0  0  0  0  0  0  0  0  0  0  0
   21.7864   -7.1913  -13.3370 C   0  0  0  0  0  0  0  0  0  0  0  0
   21.4109   -7.4019  -14.7795 C   0  0  0  0  0  0  0  0  0  0  0  0
   20.7852   -6.1598  -15.3811 C   0  0  2  0  0  0  0  0  0  0  0  0
   20.5155   -6.3634  -16.7977 N   0  0  0  0  0  0  0  0  0  0  0  0
   21.6635   -4.9862  -15.2540 C   0  0  0  0  0  0  0  0  0  0  0  0
   21.5985   -4.1796  -14.1442 O   0  0  0  0  0  0  0  0  0  0  0  0
   22.4733   -4.7251  -16.1651 O   0  0  0  0  0  0  0  0  0  0  0  0
  2  3  1  1
  2  1  1  0
  4  2  1  0
  4  5  1  6
  6  7  2  0
  6  4  1  0
  9  8  1  6
  9 10  1  0
  9 11  1  0
 11 12  1  1
 12  6  1  0
 13 11  1  0
 13 20  1  0
 14 13  2  0
 15 16  1  0
 16 17  1  0
 19 18  1  6
 18 17  1  0
 19 20  1  0
 19 21  1  0
 21 22  1  0
 23 21  2  0
M  END
$$$$
