VTM.pdb
     RDKit          3D

 23 22  0  0  1  0  0  0  0  0999 V2000
   28.8624  -19.1641  -16.3627 C   0  0  0  0  0  0  0  0  0  0  0  0
   28.1049  -18.8126  -15.0786 C   0  0  2  0  0  0  0  0  0  0  0  0
   28.9373  -19.3237  -13.9247 C   0  0  0  0  0  0  0  0  0  0  0  0
   26.7712  -19.5233  -15.1623 C   0  0  2  0  0  0  0  0  0  0  0  0
   26.0986  -19.0979  -16.3412 N   0  0  0  0  0  0  0  0  0  0  0  0
   26.0355  -19.2257  -13.9114 C   0  0  0  0  0  0  0  0  0  0  0  0
   25.7500  -18.0315  -13.6622 O   0  0  0  0  0  0  0  0  0  0  0  0
   22.7376  -19.6917  -13.0230 C   0  0  0  0  0  0  0  0  0  0  0  0
   23.4578  -20.4180  -11.9068 C   0  0  1  0  0  0  0  0  0  0  0  0
   23.4949  -21.7693  -12.2720 O   0  0  0  0  0  0  0  0  0  0  0  0
   24.8963  -19.9568  -11.7881 C   0  0  2  0  0  0  0  0  0  0  0  0
   25.6459  -20.2240  -12.9955 N   0  0  0  0  0  0  0  0  0  0  0  0
   25.5902  -20.5989  -10.6664 C   0  0  0  0  0  0  0  0  0  0  0  0
   26.2478  -21.6381  -10.8535 O   0  0  0  0  0  0  0  0  0  0  0  0
   28.8360  -19.8410   -3.5718 C   0  0  0  0  0  0  0  0  0  0  0  0
   28.2069  -19.1255   -5.1249 S   0  0  0  0  0  0  0  0  0  0  0  0
   27.3302  -20.3974   -6.0890 C   0  0  0  0  0  0  0  0  0  0  0  0
   26.9050  -19.7724   -7.3909 C   0  0  0  0  0  0  0  0  0  0  0  0
   26.1016  -20.7382   -8.2383 C   0  0  2  0  0  0  0  0  0  0  0  0
   25.5160  -20.0463   -9.3781 N   0  0  0  0  0  0  0  0  0  0  0  0
   25.0060  -21.3570   -7.4756 C   0  0  0  0  0  0  0  0  0  0  0  0
   25.2637  -22.3404   -6.5521 O   0  0  0  0  0  0  0  0  0  0  0  0
   23.8336  -20.9821   -7.6731 O   0  0  0  0  0  0  0  0  0  0  0  0
  2  3  1  1
  2  1  1  0
  4  2  1  0
  4  5  1  6
  6  7  2  0
  6  4  1  0
  9  8  1  6
  9 10  1  0
  9 11  1  0
 11 12  1  6
 12  6  1  0
 13 11  1  0
 13 20  1  0
 14 13  2  0
 15 16  1  0
 16 17  1  0
 19 18  1  1
 18 17  1  0
 19 20  1  0
 19 21  1  0
 21 22  1  0
 23 21  2  0
M  END
$$$$
