VTM.pdb
     RDKit          3D

 23 22  0  0  1  0  0  0  0  0999 V2000
   14.0505  -11.7073  -15.6325 C   0  0  0  0  0  0  0  0  0  0  0  0
   15.4708  -11.1407  -15.5435 C   0  0  2  0  0  0  0  0  0  0  0  0
   15.3742   -9.8316  -14.7935 C   0  0  0  0  0  0  0  0  0  0  0  0
   15.9376  -10.9343  -16.9684 C   0  0  2  0  0  0  0  0  0  0  0  0
   15.8726  -12.1775  -17.6563 N   0  0  0  0  0  0  0  0  0  0  0  0
   17.2992  -10.3543  -16.9049 C   0  0  0  0  0  0  0  0  0  0  0  0
   18.2685  -11.1338  -16.7543 O   0  0  0  0  0  0  0  0  0  0  0  0
   18.6397   -7.8502  -19.4764 C   0  0  0  0  0  0  0  0  0  0  0  0
   18.9849   -7.3141  -18.1033 C   0  0  1  0  0  0  0  0  0  0  0  0
   18.0165   -6.3495  -17.7991 O   0  0  0  0  0  0  0  0  0  0  0  0
   18.8740   -8.3945  -17.0465 C   0  0  2  0  0  0  0  0  0  0  0  0
   17.5482   -8.9704  -17.0064 N   0  0  0  0  0  0  0  0  0  0  0  0
   19.1953   -7.8902  -15.7069 C   0  0  0  0  0  0  0  0  0  0  0  0
   18.2941   -7.7530  -14.8604 O   0  0  0  0  0  0  0  0  0  0  0  0
   22.2949  -10.8013  -12.0065 C   0  0  0  0  0  0  0  0  0  0  0  0
   22.2836   -9.3494  -10.9059 S   0  0  0  0  0  0  0  0  0  0  0  0
   21.8420   -7.8546  -11.8474 C   0  0  0  0  0  0  0  0  0  0  0  0
   21.3689   -8.2937  -13.2074 C   0  0  0  0  0  0  0  0  0  0  0  0
   20.8576   -7.1251  -14.0254 C   0  0  2  0  0  0  0  0  0  0  0  0
   20.5181   -7.5597  -15.3732 N   0  0  0  0  0  0  0  0  0  0  0  0
   21.8594   -6.0531  -14.1368 C   0  0  0  0  0  0  0  0  0  0  0  0
   22.0718   -5.1821  -13.0963 O   0  0  0  0  0  0  0  0  0  0  0  0
   22.5196   -5.9380  -15.1880 O   0  0  0  0  0  0  0  0  0  0  0  0
  2  3  1  1
  2  1  1  0
  4  2  1  0
  4  5  1  6
  6  7  2  0
  6  4  1  0
  9  8  1  6
  9 10  1  0
  9 11  1  0
 11 12  1  1
 12  6  1  0
 13 11  1  0
 13 20  1  0
 14 13  2  0
 15 16  1  0
 16 17  1  0
 19 18  1  1
 18 17  1  0
 19 20  1  0
 19 21  1  0
 21 22  1  0
 23 21  2  0
M  END
$$$$
