VTM.pdb
     RDKit          3D

 23 22  0  0  1  0  0  0  0  0999 V2000
   19.9393  -11.8902  -18.4102 C   0  0  0  0  0  0  0  0  0  0  0  0
   20.3751  -12.1926  -16.9732 C   0  0  2  0  0  0  0  0  0  0  0  0
   20.8866  -13.6152  -16.9604 C   0  0  0  0  0  0  0  0  0  0  0  0
   19.1408  -12.0357  -16.1115 C   0  0  2  0  0  0  0  0  0  0  0  0
   18.1168  -12.8821  -16.6195 N   0  0  0  0  0  0  0  0  0  0  0  0
   18.7851  -10.5977  -16.1110 C   0  0  0  0  0  0  0  0  0  0  0  0
   18.0422  -10.1711  -17.0253 O   0  0  0  0  0  0  0  0  0  0  0  0
   17.6725   -6.3891  -14.1594 C   0  0  0  0  0  0  0  0  0  0  0  0
   17.8959   -7.8865  -14.1712 C   0  0  1  0  0  0  0  0  0  0  0  0
   16.7041   -8.4618  -14.6289 O   0  0  0  0  0  0  0  0  0  0  0  0
   18.9771   -8.2741  -15.1597 C   0  0  2  0  0  0  0  0  0  0  0  0
   19.2449   -9.6948  -15.1308 N   0  0  0  0  0  0  0  0  0  0  0  0
   20.2360   -7.5651  -14.9056 C   0  0  0  0  0  0  0  0  0  0  0  0
   21.0252   -7.9873  -14.0417 O   0  0  0  0  0  0  0  0  0  0  0  0
   25.1270   -1.8384  -17.3987 C   0  0  0  0  0  0  0  0  0  0  0  0
   23.6544   -2.8740  -17.6793 S   0  0  0  0  0  0  0  0  0  0  0  0
   23.3237   -3.9010  -16.2124 C   0  0  0  0  0  0  0  0  0  0  0  0
   22.1014   -4.7308  -16.5011 C   0  0  0  0  0  0  0  0  0  0  0  0
   21.7837   -5.6742  -15.3585 C   0  0  2  0  0  0  0  0  0  0  0  0
   20.5566   -6.4085  -15.6336 N   0  0  0  0  0  0  0  0  0  0  0  0
   21.6031   -4.9553  -14.0874 C   0  0  0  0  0  0  0  0  0  0  0  0
   22.5907   -4.9612  -13.1330 O   0  0  0  0  0  0  0  0  0  0  0  0
   20.5414   -4.3362  -13.8790 O   0  0  0  0  0  0  0  0  0  0  0  0
  2  3  1  6
  2  1  1  0
  4  2  1  0
  4  5  1  6
  6  7  2  0
  6  4  1  0
  9  8  1  6
  9 10  1  0
  9 11  1  0
 11 12  1  1
 12  6  1  0
 13 11  1  0
 13 20  1  0
 14 13  2  0
 15 16  1  0
 16 17  1  0
 19 18  1  6
 18 17  1  0
 19 20  1  0
 19 21  1  0
 21 22  1  0
 23 21  2  0
M  END
$$$$
