YYS.pdb
     RDKit          3D

 31 32  0  0  1  0  0  0  0  0999 V2000
   12.9944  -22.5164    1.8266 O   0  0  0  0  0  0  0  0  0  0  0  0
   13.8601  -21.6486    2.4811 C   0  0  0  0  0  0  0  0  0  0  0  0
   13.4393  -20.4533    3.0232 C   0  0  0  0  0  0  0  0  0  0  0  0
   14.3455  -19.6340    3.6609 C   0  0  0  0  0  0  0  0  0  0  0  0
   15.6617  -20.0028    3.7580 C   0  0  0  0  0  0  0  0  0  0  0  0
   16.6533  -19.1161    4.4509 C   0  0  0  0  0  0  0  0  0  0  0  0
   17.0308  -17.9484    3.5445 C   0  0  2  0  0  0  0  0  0  0  0  0
   17.4933  -18.4548    2.2854 N   0  0  0  0  0  0  0  0  0  0  0  0
   17.9810  -17.0365    4.1963 C   0  0  0  0  0  0  0  0  0  0  0  0
   19.2025  -17.3784    4.2568 O   0  0  0  0  0  0  0  0  0  0  0  0
   16.0802  -21.1879    3.2208 C   0  0  0  0  0  0  0  0  0  0  0  0
   15.1858  -22.0137    2.5823 C   0  0  0  0  0  0  0  0  0  0  0  0
   21.8075  -10.0468    7.9888 O   0  0  0  0  0  0  0  0  0  0  0  0
   20.9532  -10.8850    7.3003 C   0  0  0  0  0  0  0  0  0  0  0  0
   21.2365  -11.3182    6.0065 C   0  0  0  0  0  0  0  0  0  0  0  0
   20.3235  -12.1641    5.3777 C   0  0  0  0  0  0  0  0  0  0  0  0
   19.1758  -12.5793    5.9741 C   0  0  0  0  0  0  0  0  0  0  0  0
   18.2284  -13.4654    5.3034 C   0  0  0  0  0  0  0  0  0  0  0  0
   18.5444  -14.9243    5.4498 C   0  0  2  0  0  0  0  0  0  0  0  0
   17.6504  -15.7973    4.7687 N   0  0  0  0  0  0  0  0  0  0  0  0
   18.6933  -15.3316    6.8683 C   0  0  0  0  0  0  0  0  0  0  0  0
   17.7143  -15.5135    7.6338 O   0  0  0  0  0  0  0  0  0  0  0  0
   18.8957  -12.1477    7.2603 C   0  0  0  0  0  0  0  0  0  0  0  0
   19.7907  -11.3004    7.9157 C   0  0  0  0  0  0  0  0  0  0  0  0
   21.8972  -17.3891    7.8905 O   0  0  0  0  0  0  0  0  0  0  0  0
   20.7639  -17.3598    8.7270 C   0  0  0  0  0  0  0  0  0  0  0  0
   20.2731  -15.9112    8.7552 C   0  0  2  0  0  0  0  0  0  0  0  0
   19.9881  -15.5292    7.4027 N   0  0  0  0  0  0  0  0  0  0  0  0
   21.3991  -15.1001    9.2626 C   0  0  0  0  0  0  0  0  0  0  0  0
   21.7772  -15.2298   10.5872 O   0  0  0  0  0  0  0  0  0  0  0  0
   21.9965  -14.3061    8.4879 O   0  0  0  0  0  0  0  0  0  0  0  0
  2 12  2  0
  2  1  1  0
  3  2  1  0
  4  5  1  0
  4  3  2  0
  5 11  2  0
  6  7  1  0
  6  5  1  0
  7  8  1  6
  9  7  1  0
  9 20  1  0
 10  9  2  0
 11 12  1  0
 13 14  1  0
 14 15  2  0
 15 16  1  0
 17 18  1  0
 17 16  2  0
 19 18  1  1
 19 20  1  0
 19 21  1  0
 21 28  1  0
 22 21  2  0
 23 17  1  0
 24 23  2  0
 24 14  1  0
 25 26  1  0
 27 26  1  6
 27 29  1  0
 28 27  1  0
 29 31  2  0
 29 30  1  0
M  END
$$$$
