YYS.pdb
     RDKit          3D

 31 32  0  0  1  0  0  0  0  0999 V2000
   28.2998  -12.7923  -16.3805 O   0  0  0  0  0  0  0  0  0  0  0  0
   27.4448  -11.6973  -16.3480 C   0  0  0  0  0  0  0  0  0  0  0  0
   27.2872  -10.9150  -15.2242 C   0  0  0  0  0  0  0  0  0  0  0  0
   26.4239   -9.8413  -15.2530 C   0  0  0  0  0  0  0  0  0  0  0  0
   25.7224   -9.5488  -16.3932 C   0  0  0  0  0  0  0  0  0  0  0  0
   24.7813   -8.3816  -16.4317 C   0  0  0  0  0  0  0  0  0  0  0  0
   23.5336   -8.6909  -15.6100 C   0  0  2  0  0  0  0  0  0  0  0  0
   22.8882   -9.8536  -16.1459 N   0  0  0  0  0  0  0  0  0  0  0  0
   22.6475   -7.5236  -15.5027 C   0  0  0  0  0  0  0  0  0  0  0  0
   21.5226   -7.5623  -16.0908 O   0  0  0  0  0  0  0  0  0  0  0  0
   25.8779  -10.3239  -17.5083 C   0  0  0  0  0  0  0  0  0  0  0  0
   26.7360  -11.3975  -17.4920 C   0  0  0  0  0  0  0  0  0  0  0  0
   17.8249   -6.8732  -10.2249 O   0  0  0  0  0  0  0  0  0  0  0  0
   18.8199   -6.3042  -10.9947 C   0  0  0  0  0  0  0  0  0  0  0  0
   18.5447   -5.3050  -11.9262 C   0  0  0  0  0  0  0  0  0  0  0  0
   19.6042   -4.7803  -12.6655 C   0  0  0  0  0  0  0  0  0  0  0  0
   20.8862   -5.2031  -12.5135 C   0  0  0  0  0  0  0  0  0  0  0  0
   21.9862   -4.6445  -13.2948 C   0  0  0  0  0  0  0  0  0  0  0  0
   22.0997   -5.2051  -14.6814 C   0  0  2  0  0  0  0  0  0  0  0  0
   22.9411   -6.3474  -14.7936 N   0  0  0  0  0  0  0  0  0  0  0  0
   22.4808   -4.1753  -15.6787 C   0  0  0  0  0  0  0  0  0  0  0  0
   23.6723   -3.8444  -15.8986 O   0  0  0  0  0  0  0  0  0  0  0  0
   21.1580   -6.1964  -11.5871 C   0  0  0  0  0  0  0  0  0  0  0  0
   20.1180   -6.7413  -10.8319 C   0  0  0  0  0  0  0  0  0  0  0  0
   21.0723   -2.0613  -19.6932 O   0  0  0  0  0  0  0  0  0  0  0  0
   20.7842   -2.9541  -18.6421 C   0  0  0  0  0  0  0  0  0  0  0  0
   21.7049   -2.5792  -17.4793 C   0  0  2  0  0  0  0  0  0  0  0  0
   21.4717   -3.5246  -16.4266 N   0  0  0  0  0  0  0  0  0  0  0  0
   21.2819   -1.2367  -17.0298 C   0  0  0  0  0  0  0  0  0  0  0  0
   20.2156   -1.1260  -16.1553 O   0  0  0  0  0  0  0  0  0  0  0  0
   21.8936   -0.2167  -17.4457 O   0  0  0  0  0  0  0  0  0  0  0  0
  2 12  2  0
  2  1  1  0
  3  2  1  0
  4  5  1  0
  4  3  2  0
  5 11  2  0
  6  7  1  0
  6  5  1  0
  7  8  1  6
  9  7  1  0
  9 20  1  0
 10  9  2  0
 11 12  1  0
 13 14  1  0
 14 15  2  0
 15 16  1  0
 17 18  1  0
 17 16  2  0
 19 18  1  1
 19 20  1  0
 19 21  1  0
 21 28  1  0
 22 21  2  0
 23 17  1  0
 24 23  2  0
 24 14  1  0
 25 26  1  0
 27 26  1  6
 27 29  1  0
 28 27  1  0
 29 31  2  0
 29 30  1  0
M  END
$$$$
