YYS.pdb
     RDKit          3D

 31 32  0  0  1  0  0  0  0  0999 V2000
   35.1780  -39.7144   -8.3493 O   0  0  0  0  0  0  0  0  0  0  0  0
   34.4165  -38.8310   -7.5939 C   0  0  0  0  0  0  0  0  0  0  0  0
   33.1851  -39.1712   -7.0765 C   0  0  0  0  0  0  0  0  0  0  0  0
   32.4763  -38.2514   -6.3346 C   0  0  0  0  0  0  0  0  0  0  0  0
   32.9905  -37.0013   -6.1094 C   0  0  0  0  0  0  0  0  0  0  0  0
   32.2247  -35.9953   -5.3026 C   0  0  0  0  0  0  0  0  0  0  0  0
   31.0244  -35.4930   -6.0994 C   0  0  2  0  0  0  0  0  0  0  0  0
   31.4622  -34.5145   -7.0514 N   0  0  0  0  0  0  0  0  0  0  0  0
   29.9465  -35.0177   -5.2210 C   0  0  0  0  0  0  0  0  0  0  0  0
   30.0046  -33.8273   -4.7825 O   0  0  0  0  0  0  0  0  0  0  0  0
   34.2117  -36.6627   -6.6219 C   0  0  0  0  0  0  0  0  0  0  0  0
   34.9282  -37.5715   -7.3636 C   0  0  0  0  0  0  0  0  0  0  0  0
   26.2932  -32.1545   -9.3284 O   0  0  0  0  0  0  0  0  0  0  0  0
   26.3193  -32.8908   -8.1606 C   0  0  0  0  0  0  0  0  0  0  0  0
   26.0834  -32.3040   -6.9189 C   0  0  0  0  0  0  0  0  0  0  0  0
   26.1272  -33.1150   -5.7854 C   0  0  0  0  0  0  0  0  0  0  0  0
   26.3894  -34.4466   -5.8448 C   0  0  0  0  0  0  0  0  0  0  0  0
   26.4322  -35.2839   -4.6491 C   0  0  0  0  0  0  0  0  0  0  0  0
   27.7748  -35.3319   -3.9821 C   0  0  2  0  0  0  0  0  0  0  0  0
   28.8374  -35.7786   -4.8167 N   0  0  0  0  0  0  0  0  0  0  0  0
   27.7491  -36.0991   -2.7129 C   0  0  0  0  0  0  0  0  0  0  0  0
   27.9149  -37.3431   -2.6625 O   0  0  0  0  0  0  0  0  0  0  0  0
   26.6236  -35.0283   -7.0799 C   0  0  0  0  0  0  0  0  0  0  0  0
   26.5864  -34.2421   -8.2329 C   0  0  0  0  0  0  0  0  0  0  0  0
   27.5046  -33.7667    0.3886 O   0  0  0  0  0  0  0  0  0  0  0  0
   27.8663  -35.0502    0.8434 C   0  0  0  0  0  0  0  0  0  0  0  0
   27.3815  -36.0457   -0.2121 C   0  0  2  0  0  0  0  0  0  0  0  0
   27.5293  -35.4178   -1.4928 N   0  0  0  0  0  0  0  0  0  0  0  0
   25.9460  -36.2707    0.0564 C   0  0  0  0  0  0  0  0  0  0  0  0
   25.5778  -37.0028    1.1712 O   0  0  0  0  0  0  0  0  0  0  0  0
   25.0815  -35.7964   -0.7279 O   0  0  0  0  0  0  0  0  0  0  0  0
  2 12  2  0
  2  1  1  0
  3  2  1  0
  4  5  1  0
  4  3  2  0
  5 11  2  0
  6  7  1  0
  6  5  1  0
  7  8  1  6
  9  7  1  0
  9 20  1  0
 10  9  2  0
 11 12  1  0
 13 14  1  0
 14 15  2  0
 15 16  1  0
 17 18  1  0
 17 16  2  0
 19 18  1  6
 19 20  1  0
 19 21  1  0
 21 28  1  0
 22 21  2  0
 23 17  1  0
 24 23  2  0
 24 14  1  0
 25 26  1  0
 27 26  1  1
 27 29  1  0
 28 27  1  0
 29 31  2  0
 29 30  1  0
M  END
$$$$
