YYS.pdb
     RDKit          3D

 31 32  0  0  1  0  0  0  0  0999 V2000
   23.3746  -31.8078  -11.1245 O   0  0  0  0  0  0  0  0  0  0  0  0
   24.1430  -32.1413  -10.0158 C   0  0  0  0  0  0  0  0  0  0  0  0
   23.6150  -32.2147   -8.7448 C   0  0  0  0  0  0  0  0  0  0  0  0
   24.4279  -32.5509   -7.6840 C   0  0  0  0  0  0  0  0  0  0  0  0
   25.7575  -32.8121   -7.8878 C   0  0  0  0  0  0  0  0  0  0  0  0
   26.6480  -33.1787   -6.7380 C   0  0  0  0  0  0  0  0  0  0  0  0
   27.0586  -34.6443   -6.8434 C   0  0  2  0  0  0  0  0  0  0  0  0
   25.8959  -35.4734   -6.7164 N   0  0  0  0  0  0  0  0  0  0  0  0
   28.1276  -34.9813   -5.8931 C   0  0  0  0  0  0  0  0  0  0  0  0
   27.8330  -35.6803   -4.8747 O   0  0  0  0  0  0  0  0  0  0  0  0
   26.2824  -32.7396   -9.1479 C   0  0  0  0  0  0  0  0  0  0  0  0
   25.4817  -32.4053  -10.2140 C   0  0  0  0  0  0  0  0  0  0  0  0
   36.1790  -36.4198   -2.5275 O   0  0  0  0  0  0  0  0  0  0  0  0
   35.1126  -35.8796   -3.2184 C   0  0  0  0  0  0  0  0  0  0  0  0
   34.3799  -34.8071   -2.7136 C   0  0  0  0  0  0  0  0  0  0  0  0
   33.3166  -34.3177   -3.4714 C   0  0  0  0  0  0  0  0  0  0  0  0
   32.9697  -34.8430   -4.6752 C   0  0  0  0  0  0  0  0  0  0  0  0
   31.8533  -34.3203   -5.4582 C   0  0  0  0  0  0  0  0  0  0  0  0
   30.5302  -34.9479   -5.1339 C   0  0  2  0  0  0  0  0  0  0  0  0
   29.4712  -34.5908   -6.0150 N   0  0  0  0  0  0  0  0  0  0  0  0
   30.1313  -34.7300   -3.7219 C   0  0  0  0  0  0  0  0  0  0  0  0
   29.8060  -33.6045   -3.2693 O   0  0  0  0  0  0  0  0  0  0  0  0
   33.6991  -35.9090   -5.1755 C   0  0  0  0  0  0  0  0  0  0  0  0
   34.7693  -36.4209   -4.4398 C   0  0  0  0  0  0  0  0  0  0  0  0
   29.2137  -38.0132   -1.8853 O   0  0  0  0  0  0  0  0  0  0  0  0
   28.7479  -36.8877   -1.1774 C   0  0  0  0  0  0  0  0  0  0  0  0
   29.7417  -35.7557   -1.4442 C   0  0  2  0  0  0  0  0  0  0  0  0
   30.1097  -35.8265   -2.8284 N   0  0  0  0  0  0  0  0  0  0  0  0
   30.9284  -36.0385   -0.6105 C   0  0  0  0  0  0  0  0  0  0  0  0
   32.1078  -36.4168   -1.2269 O   0  0  0  0  0  0  0  0  0  0  0  0
   30.8516  -35.9324    0.6426 O   0  0  0  0  0  0  0  0  0  0  0  0
  2 12  2  0
  2  1  1  0
  3  2  1  0
  4  5  1  0
  4  3  2  0
  5 11  2  0
  6  7  1  0
  6  5  1  0
  7  8  1  1
  9  7  1  0
  9 20  1  0
 10  9  2  0
 11 12  1  0
 13 14  1  0
 14 15  2  0
 15 16  1  0
 17 18  1  0
 17 16  2  0
 19 18  1  6
 19 20  1  0
 19 21  1  0
 21 28  1  0
 22 21  2  0
 23 17  1  0
 24 23  2  0
 24 14  1  0
 25 26  1  0
 27 26  1  6
 27 29  1  0
 28 27  1  0
 29 31  2  0
 29 30  1  0
M  END
$$$$
