YYS.pdb
     RDKit          3D

 31 32  0  0  1  0  0  0  0  0999 V2000
   15.7227  -21.6472  -15.7167 O   0  0  0  0  0  0  0  0  0  0  0  0
   17.0089  -21.2267  -15.4010 C   0  0  0  0  0  0  0  0  0  0  0  0
   18.1196  -22.0115  -15.6247 C   0  0  0  0  0  0  0  0  0  0  0  0
   19.3703  -21.5393  -15.2903 C   0  0  0  0  0  0  0  0  0  0  0  0
   19.5137  -20.2939  -14.7369 C   0  0  0  0  0  0  0  0  0  0  0  0
   20.8719  -19.7735  -14.3707 C   0  0  0  0  0  0  0  0  0  0  0  0
   21.4420  -20.5786  -13.2069 C   0  0  2  0  0  0  0  0  0  0  0  0
   20.6623  -20.3293  -12.0299 N   0  0  0  0  0  0  0  0  0  0  0  0
   22.8788  -20.3305  -13.0237 C   0  0  0  0  0  0  0  0  0  0  0  0
   23.2512  -19.1703  -12.6661 O   0  0  0  0  0  0  0  0  0  0  0  0
   18.4129  -19.5146  -14.5145 C   0  0  0  0  0  0  0  0  0  0  0  0
   17.1601  -19.9746  -14.8439 C   0  0  0  0  0  0  0  0  0  0  0  0
   26.3785  -19.6079   -6.8981 O   0  0  0  0  0  0  0  0  0  0  0  0
   26.2326  -20.1901   -8.1415 C   0  0  0  0  0  0  0  0  0  0  0  0
   25.0281  -20.7625   -8.5459 C   0  0  0  0  0  0  0  0  0  0  0  0
   24.9602  -21.3309   -9.8174 C   0  0  0  0  0  0  0  0  0  0  0  0
   26.0163  -21.3479  -10.6716 C   0  0  0  0  0  0  0  0  0  0  0  0
   25.9308  -21.9469  -12.0007 C   0  0  0  0  0  0  0  0  0  0  0  0
   25.2893  -21.0649  -13.0305 C   0  0  2  0  0  0  0  0  0  0  0  0
   23.8947  -21.2817  -13.2129 N   0  0  0  0  0  0  0  0  0  0  0  0
   25.9993  -21.1058  -14.3321 C   0  0  0  0  0  0  0  0  0  0  0  0
   25.7928  -21.9938  -15.1960 O   0  0  0  0  0  0  0  0  0  0  0  0
   27.2128  -20.7784  -10.2681 C   0  0  0  0  0  0  0  0  0  0  0  0
   27.3116  -20.2016   -9.0007 C   0  0  0  0  0  0  0  0  0  0  0  0
   27.9405  -17.6767  -15.5867 O   0  0  0  0  0  0  0  0  0  0  0  0
   28.6870  -18.8648  -15.7128 C   0  0  0  0  0  0  0  0  0  0  0  0
   27.6793  -20.0053  -15.8679 C   0  0  2  0  0  0  0  0  0  0  0  0
   26.9564  -20.1087  -14.6337 N   0  0  0  0  0  0  0  0  0  0  0  0
   28.4716  -21.2358  -16.0719 C   0  0  0  0  0  0  0  0  0  0  0  0
   28.7184  -21.6696  -17.3623 O   0  0  0  0  0  0  0  0  0  0  0  0
   28.9092  -21.8699  -15.0750 O   0  0  0  0  0  0  0  0  0  0  0  0
  2 12  2  0
  2  1  1  0
  3  2  1  0
  4  5  1  0
  4  3  2  0
  5 11  2  0
  6  7  1  0
  6  5  1  0
  7  8  1  1
  9  7  1  0
  9 20  1  0
 10  9  2  0
 11 12  1  0
 13 14  1  0
 14 15  2  0
 15 16  1  0
 17 18  1  0
 17 16  2  0
 19 18  1  1
 19 20  1  0
 19 21  1  0
 21 28  1  0
 22 21  2  0
 23 17  1  0
 24 23  2  0
 24 14  1  0
 25 26  1  0
 27 26  1  1
 27 29  1  0
 28 27  1  0
 29 31  2  0
 29 30  1  0
M  END
$$$$
