YYS.pdb
     RDKit          3D

 31 32  0  0  1  0  0  0  0  0999 V2000
   21.1733   -3.0841  -14.4798 O   0  0  0  0  0  0  0  0  0  0  0  0
   21.3917   -4.4283  -14.7560 C   0  0  0  0  0  0  0  0  0  0  0  0
   22.6420   -5.0042  -14.6865 C   0  0  0  0  0  0  0  0  0  0  0  0
   22.7958   -6.3435  -14.9721 C   0  0  0  0  0  0  0  0  0  0  0  0
   21.7117   -7.1040  -15.3246 C   0  0  0  0  0  0  0  0  0  0  0  0
   21.8718   -8.5623  -15.6365 C   0  0  0  0  0  0  0  0  0  0  0  0
   22.8346   -8.7424  -16.8063 C   0  0  2  0  0  0  0  0  0  0  0  0
   22.2867   -8.1150  -17.9732 N   0  0  0  0  0  0  0  0  0  0  0  0
   23.1889  -10.1540  -17.0092 C   0  0  0  0  0  0  0  0  0  0  0  0
   22.5528  -10.8170  -17.8857 O   0  0  0  0  0  0  0  0  0  0  0  0
   20.4713   -6.5341  -15.3939 C   0  0  0  0  0  0  0  0  0  0  0  0
   20.3051   -5.1991  -15.1113 C   0  0  0  0  0  0  0  0  0  0  0  0
   26.9804  -18.1141  -16.3707 O   0  0  0  0  0  0  0  0  0  0  0  0
   26.6834  -16.7765  -16.2002 C   0  0  0  0  0  0  0  0  0  0  0  0
   26.2141  -16.2790  -14.9861 C   0  0  0  0  0  0  0  0  0  0  0  0
   25.9366  -14.9156  -14.8933 C   0  0  0  0  0  0  0  0  0  0  0  0
   26.1051  -14.0593  -15.9343 C   0  0  0  0  0  0  0  0  0  0  0  0
   25.8103  -12.6334  -15.8228 C   0  0  0  0  0  0  0  0  0  0  0  0
   24.5093  -12.2257  -16.4481 C   0  0  2  0  0  0  0  0  0  0  0  0
   24.1878  -10.8466  -16.3056 N   0  0  0  0  0  0  0  0  0  0  0  0
   23.3772  -13.0749  -16.0040 C   0  0  0  0  0  0  0  0  0  0  0  0
   22.7088  -12.8361  -14.9678 O   0  0  0  0  0  0  0  0  0  0  0  0
   26.5717  -14.5556  -17.1405 C   0  0  0  0  0  0  0  0  0  0  0  0
   26.8583  -15.9162  -17.2641 C   0  0  0  0  0  0  0  0  0  0  0  0
   19.7486  -15.6500  -17.1737 O   0  0  0  0  0  0  0  0  0  0  0  0
   20.8989  -14.9493  -17.5869 C   0  0  0  0  0  0  0  0  0  0  0  0
   21.9315  -15.0965  -16.4678 C   0  0  2  0  0  0  0  0  0  0  0  0
   23.0178  -14.2098  -16.7681 N   0  0  0  0  0  0  0  0  0  0  0  0
   22.4126  -16.4923  -16.5265 C   0  0  0  0  0  0  0  0  0  0  0  0
   22.0236  -17.3791  -15.5383 O   0  0  0  0  0  0  0  0  0  0  0  0
   23.1660  -16.8547  -17.4691 O   0  0  0  0  0  0  0  0  0  0  0  0
  2 12  2  0
  2  1  1  0
  3  2  1  0
  4  5  1  0
  4  3  2  0
  5 11  2  0
  6  7  1  0
  6  5  1  0
  7  8  1  6
  9  7  1  0
  9 20  1  0
 10  9  2  0
 11 12  1  0
 13 14  1  0
 14 15  2  0
 15 16  1  0
 17 18  1  0
 17 16  2  0
 19 18  1  1
 19 20  1  0
 19 21  1  0
 21 28  1  0
 22 21  2  0
 23 17  1  0
 24 23  2  0
 24 14  1  0
 25 26  1  0
 27 26  1  6
 27 29  1  0
 28 27  1  0
 29 31  2  0
 29 30  1  0
M  END
$$$$
