YYS.pdb
     RDKit          3D

 31 32  0  0  1  0  0  0  0  0999 V2000
   29.9110  -12.8252  -16.7388 O   0  0  0  0  0  0  0  0  0  0  0  0
   28.8690  -11.9063  -16.7090 C   0  0  0  0  0  0  0  0  0  0  0  0
   28.5723  -11.0893  -17.7786 C   0  0  0  0  0  0  0  0  0  0  0  0
   27.5259  -10.1971  -17.6891 C   0  0  0  0  0  0  0  0  0  0  0  0
   26.7800  -10.1193  -16.5422 C   0  0  0  0  0  0  0  0  0  0  0  0
   25.6396   -9.1508  -16.4380 C   0  0  0  0  0  0  0  0  0  0  0  0
   24.3214   -9.9090  -16.3152 C   0  0  2  0  0  0  0  0  0  0  0  0
   24.2272  -10.8720  -17.3731 N   0  0  0  0  0  0  0  0  0  0  0  0
   23.1714   -8.9968  -16.2463 C   0  0  0  0  0  0  0  0  0  0  0  0
   22.6497   -8.5986  -17.3335 O   0  0  0  0  0  0  0  0  0  0  0  0
   27.0733  -10.9291  -15.4807 C   0  0  0  0  0  0  0  0  0  0  0  0
   28.1146  -11.8230  -15.5579 C   0  0  0  0  0  0  0  0  0  0  0  0
   17.5471  -12.4638  -16.6201 O   0  0  0  0  0  0  0  0  0  0  0  0
   18.2459  -11.4520  -15.9922 C   0  0  0  0  0  0  0  0  0  0  0  0
   19.1881  -11.7182  -15.0005 C   0  0  0  0  0  0  0  0  0  0  0  0
   19.8524  -10.6418  -14.4137 C   0  0  0  0  0  0  0  0  0  0  0  0
   19.6180   -9.3518  -14.7693 C   0  0  0  0  0  0  0  0  0  0  0  0
   20.3213   -8.2341  -14.1460 C   0  0  0  0  0  0  0  0  0  0  0  0
   21.4429   -7.6782  -14.9723 C   0  0  2  0  0  0  0  0  0  0  0  0
   22.5881   -8.5182  -15.0618 N   0  0  0  0  0  0  0  0  0  0  0  0
   21.8303   -6.3092  -14.5527 C   0  0  0  0  0  0  0  0  0  0  0  0
   22.5500   -6.0796  -13.5493 O   0  0  0  0  0  0  0  0  0  0  0  0
   18.6811   -9.0890  -15.7552 C   0  0  0  0  0  0  0  0  0  0  0  0
   17.9998  -10.1460  -16.3613 C   0  0  0  0  0  0  0  0  0  0  0  0
   22.9139   -2.0361  -16.0859 O   0  0  0  0  0  0  0  0  0  0  0  0
   22.4494   -3.3389  -16.3541 C   0  0  0  0  0  0  0  0  0  0  0  0
   21.7693   -3.8368  -15.0775 C   0  0  2  0  0  0  0  0  0  0  0  0
   21.3792   -5.1982  -15.3031 N   0  0  0  0  0  0  0  0  0  0  0  0
   20.5595   -3.0073  -14.8998 C   0  0  0  0  0  0  0  0  0  0  0  0
   20.6268   -1.8852  -14.0933 O   0  0  0  0  0  0  0  0  0  0  0  0
   19.4893   -3.3303  -15.4810 O   0  0  0  0  0  0  0  0  0  0  0  0
  2 12  2  0
  2  1  1  0
  3  2  1  0
  4  5  1  0
  4  3  2  0
  5 11  2  0
  6  7  1  0
  6  5  1  0
  7  8  1  6
  9  7  1  0
  9 20  1  0
 10  9  2  0
 11 12  1  0
 13 14  1  0
 14 15  2  0
 15 16  1  0
 17 18  1  0
 17 16  2  0
 19 18  1  1
 19 20  1  0
 19 21  1  0
 21 28  1  0
 22 21  2  0
 23 17  1  0
 24 23  2  0
 24 14  1  0
 25 26  1  0
 27 26  1  6
 27 29  1  0
 28 27  1  0
 29 31  2  0
 29 30  1  0
M  END
$$$$
