YYS.pdb
     RDKit          3D

 31 32  0  0  1  0  0  0  0  0999 V2000
   31.4687    9.3350  -10.1729 O   0  0  0  0  0  0  0  0  0  0  0  0
   30.3775    8.7079   -9.5837 C   0  0  0  0  0  0  0  0  0  0  0  0
   29.0779    9.0859   -9.8436 C   0  0  0  0  0  0  0  0  0  0  0  0
   28.0366    8.4254   -9.2283 C   0  0  0  0  0  0  0  0  0  0  0  0
   28.2882    7.3956   -8.3600 C   0  0  0  0  0  0  0  0  0  0  0  0
   27.1598    6.6723   -7.6869 C   0  0  0  0  0  0  0  0  0  0  0  0
   26.9947    5.2830   -8.2953 C   0  0  2  0  0  0  0  0  0  0  0  0
   26.5491    5.4086   -9.6522 N   0  0  0  0  0  0  0  0  0  0  0  0
   26.1328    4.4248   -7.4705 C   0  0  0  0  0  0  0  0  0  0  0  0
   24.8906    4.6838   -7.4221 O   0  0  0  0  0  0  0  0  0  0  0  0
   29.5767    7.0198   -8.1014 C   0  0  0  0  0  0  0  0  0  0  0  0
   30.6238    7.6709   -8.7090 C   0  0  0  0  0  0  0  0  0  0  0  0
   23.2223    0.9289  -11.5626 O   0  0  0  0  0  0  0  0  0  0  0  0
   23.8277    0.9717  -10.3224 C   0  0  0  0  0  0  0  0  0  0  0  0
   25.2137    1.0148  -10.1846 C   0  0  0  0  0  0  0  0  0  0  0  0
   25.7491    1.0565   -8.8977 C   0  0  0  0  0  0  0  0  0  0  0  0
   24.9764    1.0567   -7.7804 C   0  0  0  0  0  0  0  0  0  0  0  0
   25.5511    1.1006   -6.4386 C   0  0  0  0  0  0  0  0  0  0  0  0
   25.7553    2.4872   -5.9043 C   0  0  2  0  0  0  0  0  0  0  0  0
   26.5709    3.3233   -6.7173 N   0  0  0  0  0  0  0  0  0  0  0  0
   26.2401    2.4878   -4.5024 C   0  0  0  0  0  0  0  0  0  0  0  0
   27.4574    2.4236   -4.2000 O   0  0  0  0  0  0  0  0  0  0  0  0
   23.5989    1.0139   -7.9192 C   0  0  0  0  0  0  0  0  0  0  0  0
   23.0333    0.9715   -9.1948 C   0  0  0  0  0  0  0  0  0  0  0  0
   25.5504    3.9218   -0.1168 O   0  0  0  0  0  0  0  0  0  0  0  0
   25.1561    3.9003   -1.4692 C   0  0  0  0  0  0  0  0  0  0  0  0
   25.6375    2.5687   -2.0484 C   0  0  2  0  0  0  0  0  0  0  0  0
   25.3053    2.5635   -3.4434 N   0  0  0  0  0  0  0  0  0  0  0  0
   24.8658    1.5126   -1.3609 C   0  0  0  0  0  0  0  0  0  0  0  0
   25.4399    0.8501   -0.2906 O   0  0  0  0  0  0  0  0  0  0  0  0
   23.7029    1.2308   -1.7555 O   0  0  0  0  0  0  0  0  0  0  0  0
  2 12  2  0
  2  1  1  0
  3  2  1  0
  4  5  1  0
  4  3  2  0
  5 11  2  0
  6  7  1  0
  6  5  1  0
  7  8  1  6
  9  7  1  0
  9 20  1  0
 10  9  2  0
 11 12  1  0
 13 14  1  0
 14 15  2  0
 15 16  1  0
 17 18  1  0
 17 16  2  0
 19 18  1  6
 19 20  1  0
 19 21  1  0
 21 28  1  0
 22 21  2  0
 23 17  1  0
 24 23  2  0
 24 14  1  0
 25 26  1  0
 27 26  1  1
 27 29  1  0
 28 27  1  0
 29 31  2  0
 29 30  1  0
M  END
$$$$
