HEY.pdb
     RDKit          3D

 32 33  0  0  1  0  0  0  0  0999 V2000
    7.8499  -17.3622   17.8160 N   0  0  0  0  0  0  0  0  0  0  0  0
    8.9487  -16.5998   18.3637 C   0  0  1  0  0  0  0  0  0  0  0  0
    8.3817  -15.2507   18.7936 C   0  0  0  0  0  0  0  0  0  0  0  0
    7.9773  -14.4245   17.6263 C   0  0  0  0  0  0  0  0  0  0  0  0
    8.1300  -14.7777   16.2998 C   0  0  0  0  0  0  0  0  0  0  0  0
    7.6426  -13.7636   15.5825 N   0  0  0  0  0  0  0  0  0  0  0  0
    7.1947  -12.7979   16.4087 C   0  0  0  0  0  0  0  0  0  0  0  0
    7.4039  -13.2117   17.6705 N   0  0  0  0  0  0  0  0  0  0  0  0
    9.4218  -17.2627   19.5995 C   0  0  0  0  0  0  0  0  0  0  0  0
    8.5687  -17.7791   20.3605 O   0  0  0  0  0  0  0  0  0  0  0  0
   10.7911  -17.3364   19.9560 N   0  0  0  0  0  0  0  0  0  0  0  0
   11.2372  -18.0433   21.1480 C   0  0  1  0  0  0  0  0  0  0  0  0
   12.3834  -18.9430   20.8604 C   0  0  0  0  0  0  0  0  0  0  0  0
   13.6726  -18.3014   20.5094 C   0  0  0  0  0  0  0  0  0  0  0  0
   14.7487  -19.3020   20.4215 C   0  0  0  0  0  0  0  0  0  0  0  0
   15.7438  -19.1397   21.1708 O   0  0  0  0  0  0  0  0  0  0  0  0
   11.3976  -17.1140   22.2777 C   0  0  0  0  0  0  0  0  0  0  0  0
   11.8370  -15.9298   22.1161 O   0  0  0  0  0  0  0  0  0  0  0  0
   14.6808  -20.3907   19.5481 O   0  0  0  0  0  0  0  0  0  0  0  0
   10.5533  -13.8906   30.5090 O   0  0  0  0  0  0  0  0  0  0  0  0
   10.4269  -14.5576   29.2755 C   0  0  0  0  0  0  0  0  0  0  0  0
    9.9643  -13.9248   28.1638 C   0  0  0  0  0  0  0  0  0  0  0  0
    9.8591  -14.6341   26.9662 C   0  0  0  0  0  0  0  0  0  0  0  0
   10.2145  -15.9612   26.8887 C   0  0  0  0  0  0  0  0  0  0  0  0
   10.0960  -16.6924   25.6407 C   0  0  0  0  0  0  0  0  0  0  0  0
   11.3452  -16.6306   24.7554 C   0  0  2  0  0  0  0  0  0  0  0  0
   11.0719  -17.4699   23.6155 N   0  0  0  0  0  0  0  0  0  0  0  0
   12.5543  -16.9625   25.5000 C   0  0  0  0  0  0  0  0  0  0  0  0
   12.9027  -18.2305   25.9279 O   0  0  0  0  0  0  0  0  0  0  0  0
   10.6790  -16.5762   28.0274 C   0  0  0  0  0  0  0  0  0  0  0  0
   10.7895  -15.8770   29.2346 C   0  0  0  0  0  0  0  0  0  0  0  0
   13.3843  -16.0466   25.8049 O   0  0  0  0  0  0  0  0  0  0  0  0
  2  1  1  1
  3  2  1  0
  3  4  1  0
  4  5  2  0
  5  6  1  0
  7  6  1  0
  8  4  1  0
  8  7  2  0
  9 11  1  0
  9  2  1  0
 10  9  2  0
 12 11  1  0
 13 14  1  0
 12 13  1  6
 14 15  1  0
 15 16  2  0
 15 19  1  0
 17 27  1  0
 17 12  1  0
 18 17  2  0
 20 21  1  0
 21 31  2  0
 21 22  1  0
 22 23  2  0
 23 24  1  0
 24 25  1  0
 26 25  1  1
 26 27  1  0
 26 28  1  0
 28 29  1  0
 30 24  2  0
 31 30  1  0
 32 28  2  0
M  END
$$$$
