HEY.pdb
     RDKit          3D

 32 33  0  0  1  0  0  0  0  0999 V2000
    8.7636  -16.8660   16.7683 N   0  0  0  0  0  0  0  0  0  0  0  0
    8.8485  -15.6928   17.6079 C   0  0  1  0  0  0  0  0  0  0  0  0
    7.8259  -14.6930   17.0776 C   0  0  0  0  0  0  0  0  0  0  0  0
    8.1496  -14.2527   15.6955 C   0  0  0  0  0  0  0  0  0  0  0  0
    9.2186  -14.6943   14.9406 C   0  0  0  0  0  0  0  0  0  0  0  0
    9.1433  -14.0541   13.7723 N   0  0  0  0  0  0  0  0  0  0  0  0
    8.0732  -13.2353   13.7720 C   0  0  0  0  0  0  0  0  0  0  0  0
    7.4626  -13.3622   14.9629 N   0  0  0  0  0  0  0  0  0  0  0  0
    8.4078  -16.0499   18.9749 C   0  0  0  0  0  0  0  0  0  0  0  0
    7.2785  -15.6590   19.3561 O   0  0  0  0  0  0  0  0  0  0  0  0
    9.2056  -16.8103   19.8653 N   0  0  0  0  0  0  0  0  0  0  0  0
    8.7380  -17.1743   21.1951 C   0  0  1  0  0  0  0  0  0  0  0  0
    8.4603  -18.6293   21.3041 C   0  0  0  0  0  0  0  0  0  0  0  0
    9.6172  -19.5476   21.1813 C   0  0  0  0  0  0  0  0  0  0  0  0
    9.1814  -20.9518   21.2545 C   0  0  0  0  0  0  0  0  0  0  0  0
    9.8266  -21.7123   22.0181 O   0  0  0  0  0  0  0  0  0  0  0  0
    9.6038  -16.5903   22.2319 C   0  0  0  0  0  0  0  0  0  0  0  0
   10.8677  -16.5237   22.0922 O   0  0  0  0  0  0  0  0  0  0  0  0
    8.0987  -21.4328   20.5135 O   0  0  0  0  0  0  0  0  0  0  0  0
   11.4410  -14.2649   30.6469 O   0  0  0  0  0  0  0  0  0  0  0  0
   10.8174  -14.5698   29.4219 C   0  0  0  0  0  0  0  0  0  0  0  0
   10.5461  -15.8516   29.0564 C   0  0  0  0  0  0  0  0  0  0  0  0
    9.9260  -16.0971   27.8302 C   0  0  0  0  0  0  0  0  0  0  0  0
    9.5838  -15.0672   26.9842 C   0  0  0  0  0  0  0  0  0  0  0  0
    8.9448  -15.3323   25.7083 C   0  0  0  0  0  0  0  0  0  0  0  0
    9.9077  -15.7853   24.6057 C   0  0  2  0  0  0  0  0  0  0  0  0
    9.0927  -16.0609   23.4488 N   0  0  0  0  0  0  0  0  0  0  0  0
   10.7585  -16.8843   25.0468 C   0  0  0  0  0  0  0  0  0  0  0  0
   12.0801  -16.7615   25.4350 O   0  0  0  0  0  0  0  0  0  0  0  0
    9.8694  -13.7814   27.3785 C   0  0  0  0  0  0  0  0  0  0  0  0
   10.4908  -13.5210   28.6051 C   0  0  0  0  0  0  0  0  0  0  0  0
   10.2935  -18.0685   25.0939 O   0  0  0  0  0  0  0  0  0  0  0  0
  2  1  1  6
  3  2  1  0
  3  4  1  0
  4  5  2  0
  5  6  1  0
  7  6  1  0
  8  4  1  0
  8  7  2  0
  9 11  1  0
  9  2  1  0
 10  9  2  0
 12 11  1  0
 13 14  1  0
 12 13  1  6
 14 15  1  0
 15 16  2  0
 15 19  1  0
 17 27  1  0
 17 12  1  0
 18 17  2  0
 20 21  1  0
 21 31  2  0
 21 22  1  0
 22 23  2  0
 23 24  1  0
 24 25  1  0
 26 25  1  1
 26 27  1  0
 26 28  1  0
 28 29  1  0
 30 24  2  0
 31 30  1  0
 32 28  2  0
M  END
$$$$
