HEY.pdb
     RDKit          3D

 32 33  0  0  1  0  0  0  0  0999 V2000
    7.6966  -16.8750   20.6040 N   0  0  0  0  0  0  0  0  0  0  0  0
    8.7504  -16.1067   21.2267 C   0  0  1  0  0  0  0  0  0  0  0  0
    8.1587  -14.7455   21.5778 C   0  0  0  0  0  0  0  0  0  0  0  0
    7.9289  -13.9145   20.3673 C   0  0  0  0  0  0  0  0  0  0  0  0
    6.7346  -13.8047   19.6823 C   0  0  0  0  0  0  0  0  0  0  0  0
    6.9592  -12.9679   18.6675 N   0  0  0  0  0  0  0  0  0  0  0  0
    8.2415  -12.5551   18.6954 C   0  0  0  0  0  0  0  0  0  0  0  0
    8.8361  -13.1430   19.7481 N   0  0  0  0  0  0  0  0  0  0  0  0
    9.1120  -16.7449   22.5122 C   0  0  0  0  0  0  0  0  0  0  0  0
    8.2219  -17.3715   23.1354 O   0  0  0  0  0  0  0  0  0  0  0  0
   10.4152  -16.6764   23.0642 N   0  0  0  0  0  0  0  0  0  0  0  0
   10.7860  -17.4306   24.2529 C   0  0  1  0  0  0  0  0  0  0  0  0
   12.0313  -18.2128   24.0448 C   0  0  0  0  0  0  0  0  0  0  0  0
   12.4697  -19.0908   25.1556 C   0  0  0  0  0  0  0  0  0  0  0  0
   13.8331  -19.5931   24.9193 C   0  0  0  0  0  0  0  0  0  0  0  0
   14.1081  -19.9765   23.7551 O   0  0  0  0  0  0  0  0  0  0  0  0
   10.7380  -16.5765   25.4503 C   0  0  0  0  0  0  0  0  0  0  0  0
   11.3260  -15.4479   25.4943 O   0  0  0  0  0  0  0  0  0  0  0  0
   14.7910  -19.6470   25.9353 O   0  0  0  0  0  0  0  0  0  0  0  0
    6.6996  -11.9076   24.6196 O   0  0  0  0  0  0  0  0  0  0  0  0
    7.2248  -12.8397   25.5349 C   0  0  0  0  0  0  0  0  0  0  0  0
    8.1168  -12.4755   26.4950 C   0  0  0  0  0  0  0  0  0  0  0  0
    8.6056  -13.4408   27.3769 C   0  0  0  0  0  0  0  0  0  0  0  0
    8.2022  -14.7538   27.2936 C   0  0  0  0  0  0  0  0  0  0  0  0
    8.7204  -15.7518   28.2110 C   0  0  0  0  0  0  0  0  0  0  0  0
   10.1359  -16.2357   27.8786 C   0  0  2  0  0  0  0  0  0  0  0  0
   10.0342  -16.9475   26.6290 N   0  0  0  0  0  0  0  0  0  0  0  0
   10.7242  -16.9883   28.9804 C   0  0  0  0  0  0  0  0  0  0  0  0
   11.1521  -18.3014   28.9084 O   0  0  0  0  0  0  0  0  0  0  0  0
    7.2998  -15.0945   26.3138 C   0  0  0  0  0  0  0  0  0  0  0  0
    6.8016  -14.1368   25.4231 C   0  0  0  0  0  0  0  0  0  0  0  0
   10.8751  -16.4366   30.1178 O   0  0  0  0  0  0  0  0  0  0  0  0
  2  1  1  1
  3  2  1  0
  3  4  1  0
  4  5  2  0
  5  6  1  0
  7  6  1  0
  8  4  1  0
  8  7  2  0
  9 11  1  0
  9  2  1  0
 10  9  2  0
 12 11  1  0
 13 14  1  0
 12 13  1  6
 14 15  1  0
 15 16  2  0
 15 19  1  0
 17 27  1  0
 17 12  1  0
 18 17  2  0
 20 21  1  0
 21 31  2  0
 21 22  1  0
 22 23  2  0
 23 24  1  0
 24 25  1  0
 26 25  1  1
 26 27  1  0
 26 28  1  0
 28 29  1  0
 30 24  2  0
 31 30  1  0
 32 28  2  0
M  END
$$$$
