HEY.pdb
     RDKit          3D

 32 33  0  0  1  0  0  0  0  0999 V2000
    7.9070  -16.9702   20.0292 N   0  0  0  0  0  0  0  0  0  0  0  0
    8.8657  -16.1494   20.7334 C   0  0  1  0  0  0  0  0  0  0  0  0
    8.2624  -14.7524   20.8366 C   0  0  0  0  0  0  0  0  0  0  0  0
    8.1918  -14.0822   19.5120 C   0  0  0  0  0  0  0  0  0  0  0  0
    8.8301  -12.9057   19.1712 C   0  0  0  0  0  0  0  0  0  0  0  0
    8.5045  -12.6559   17.9015 N   0  0  0  0  0  0  0  0  0  0  0  0
    7.6920  -13.6277   17.4421 C   0  0  0  0  0  0  0  0  0  0  0  0
    7.5023  -14.5066   18.4415 N   0  0  0  0  0  0  0  0  0  0  0  0
    8.9946  -16.6482   22.1209 C   0  0  0  0  0  0  0  0  0  0  0  0
    8.0282  -16.4836   22.9035 O   0  0  0  0  0  0  0  0  0  0  0  0
   10.1589  -17.2995   22.5982 N   0  0  0  0  0  0  0  0  0  0  0  0
   10.2562  -17.7949   23.9637 C   0  0  1  0  0  0  0  0  0  0  0  0
   10.9144  -19.1250   24.0233 C   0  0  0  0  0  0  0  0  0  0  0  0
   11.1974  -19.6776   25.3692 C   0  0  0  0  0  0  0  0  0  0  0  0
   11.7822  -21.0249   25.2698 C   0  0  0  0  0  0  0  0  0  0  0  0
   11.0632  -21.9891   25.6322 O   0  0  0  0  0  0  0  0  0  0  0  0
   10.7890  -16.7565   24.8600 C   0  0  0  0  0  0  0  0  0  0  0  0
   11.7198  -15.9677   24.4955 O   0  0  0  0  0  0  0  0  0  0  0  0
   13.0789  -21.2383   24.7947 O   0  0  0  0  0  0  0  0  0  0  0  0
    5.1743  -12.7305   26.6714 O   0  0  0  0  0  0  0  0  0  0  0  0
    6.5233  -13.1290   26.6117 C   0  0  0  0  0  0  0  0  0  0  0  0
    6.9579  -14.0518   25.7118 C   0  0  0  0  0  0  0  0  0  0  0  0
    8.3068  -14.4104   25.6962 C   0  0  0  0  0  0  0  0  0  0  0  0
    9.2054  -13.8481   26.5737 C   0  0  0  0  0  0  0  0  0  0  0  0
   10.6050  -14.2315   26.5543 C   0  0  0  0  0  0  0  0  0  0  0  0
   10.8811  -15.6295   27.1176 C   0  0  2  0  0  0  0  0  0  0  0  0
   10.3025  -16.5613   26.1819 N   0  0  0  0  0  0  0  0  0  0  0  0
   10.4203  -15.7597   28.4950 C   0  0  0  0  0  0  0  0  0  0  0  0
   10.8736  -15.0041   29.5608 O   0  0  0  0  0  0  0  0  0  0  0  0
    8.7393  -12.9180   27.4726 C   0  0  0  0  0  0  0  0  0  0  0  0
    7.3895  -12.5493   27.4992 C   0  0  0  0  0  0  0  0  0  0  0  0
    9.5329  -16.6239   28.7892 O   0  0  0  0  0  0  0  0  0  0  0  0
  2  1  1  6
  3  2  1  0
  3  4  1  0
  4  5  2  0
  5  6  1  0
  7  6  1  0
  8  4  1  0
  8  7  2  0
  9 11  1  0
  9  2  1  0
 10  9  2  0
 12 11  1  0
 13 14  1  0
 12 13  1  6
 14 15  1  0
 15 16  2  0
 15 19  1  0
 17 27  1  0
 17 12  1  0
 18 17  2  0
 20 21  1  0
 21 31  2  0
 21 22  1  0
 22 23  2  0
 23 24  1  0
 24 25  1  0
 26 25  1  6
 26 27  1  0
 26 28  1  0
 28 29  1  0
 30 24  2  0
 31 30  1  0
 32 28  2  0
M  END
$$$$
