HEY.pdb
     RDKit          3D

 32 33  0  0  1  0  0  0  0  0999 V2000
    8.7361  -16.9512   18.8045 N   0  0  0  0  0  0  0  0  0  0  0  0
    9.0954  -15.9673   19.8003 C   0  0  1  0  0  0  0  0  0  0  0  0
    7.9072  -15.0210   19.9377 C   0  0  0  0  0  0  0  0  0  0  0  0
    7.7458  -14.1594   18.7376 C   0  0  0  0  0  0  0  0  0  0  0  0
    8.1872  -12.8561   18.6184 C   0  0  0  0  0  0  0  0  0  0  0  0
    7.8425  -12.4532   17.3938 N   0  0  0  0  0  0  0  0  0  0  0  0
    7.2069  -13.4519   16.7502 C   0  0  0  0  0  0  0  0  0  0  0  0
    7.1501  -14.5039   17.5852 N   0  0  0  0  0  0  0  0  0  0  0  0
    9.2404  -16.6425   21.1094 C   0  0  0  0  0  0  0  0  0  0  0  0
    8.3659  -17.4755   21.4482 O   0  0  0  0  0  0  0  0  0  0  0  0
   10.3203  -16.3869   21.9903 N   0  0  0  0  0  0  0  0  0  0  0  0
   10.6395  -17.2817   23.0934 C   0  0  1  0  0  0  0  0  0  0  0  0
   11.9870  -17.8876   22.9410 C   0  0  0  0  0  0  0  0  0  0  0  0
   12.4439  -18.7956   24.0198 C   0  0  0  0  0  0  0  0  0  0  0  0
   13.7615  -19.3684   23.6992 C   0  0  0  0  0  0  0  0  0  0  0  0
   14.6982  -19.1343   24.5026 O   0  0  0  0  0  0  0  0  0  0  0  0
   10.3480  -16.6425   24.3864 C   0  0  0  0  0  0  0  0  0  0  0  0
   10.8532  -15.5191   24.7094 O   0  0  0  0  0  0  0  0  0  0  0  0
   13.9766  -20.1414   22.5551 O   0  0  0  0  0  0  0  0  0  0  0  0
    6.7233  -10.8721   25.7968 O   0  0  0  0  0  0  0  0  0  0  0  0
    6.9636  -12.2425   26.0125 C   0  0  0  0  0  0  0  0  0  0  0  0
    6.2233  -13.2044   25.3986 C   0  0  0  0  0  0  0  0  0  0  0  0
    6.5047  -14.5485   25.6485 C   0  0  0  0  0  0  0  0  0  0  0  0
    7.5168  -14.9192   26.5039 C   0  0  0  0  0  0  0  0  0  0  0  0
    7.7983  -16.3193   26.7625 C   0  0  0  0  0  0  0  0  0  0  0  0
    9.2831  -16.6879   26.6754 C   0  0  2  0  0  0  0  0  0  0  0  0
    9.4862  -17.2282   25.3543 N   0  0  0  0  0  0  0  0  0  0  0  0
    9.6918  -17.5547   27.7745 C   0  0  0  0  0  0  0  0  0  0  0  0
   10.1257  -18.8608   27.6392 O   0  0  0  0  0  0  0  0  0  0  0  0
    8.2494  -13.9266   27.1110 C   0  0  0  0  0  0  0  0  0  0  0  0
    7.9781  -12.5751   26.8695 C   0  0  0  0  0  0  0  0  0  0  0  0
    9.6628  -17.1204   28.9709 O   0  0  0  0  0  0  0  0  0  0  0  0
  2  1  1  6
  3  2  1  0
  3  4  1  0
  4  5  2  0
  5  6  1  0
  7  6  1  0
  8  4  1  0
  8  7  2  0
  9 11  1  0
  9  2  1  0
 10  9  2  0
 12 11  1  0
 13 14  1  0
 12 13  1  1
 14 15  1  0
 15 16  2  0
 15 19  1  0
 17 27  1  0
 17 12  1  0
 18 17  2  0
 20 21  1  0
 21 31  2  0
 21 22  1  0
 22 23  2  0
 23 24  1  0
 24 25  1  0
 26 25  1  1
 26 27  1  0
 26 28  1  0
 28 29  1  0
 30 24  2  0
 31 30  1  0
 32 28  2  0
M  END
$$$$
