HEY.pdb
     RDKit          3D

 32 33  0  0  1  0  0  0  0  0999 V2000
    6.8516  -16.6588   21.0508 N   0  0  0  0  0  0  0  0  0  0  0  0
    8.1439  -16.0781   21.3359 C   0  0  1  0  0  0  0  0  0  0  0  0
    7.8984  -14.6305   21.7488 C   0  0  0  0  0  0  0  0  0  0  0  0
    7.8562  -13.7209   20.5743 C   0  0  0  0  0  0  0  0  0  0  0  0
    8.0362  -14.0986   19.2580 C   0  0  0  0  0  0  0  0  0  0  0  0
    7.9220  -12.9867   18.5291 N   0  0  0  0  0  0  0  0  0  0  0  0
    7.6787  -11.9371   19.3383 C   0  0  0  0  0  0  0  0  0  0  0  0
    7.6389  -12.3966   20.6011 N   0  0  0  0  0  0  0  0  0  0  0  0
    8.7214  -16.7538   22.5194 C   0  0  0  0  0  0  0  0  0  0  0  0
    7.9437  -17.3557   23.2981 O   0  0  0  0  0  0  0  0  0  0  0  0
   10.1088  -16.7475   22.8069 N   0  0  0  0  0  0  0  0  0  0  0  0
   10.6611  -17.4743   23.9410 C   0  0  1  0  0  0  0  0  0  0  0  0
   11.9926  -18.0543   23.6301 C   0  0  0  0  0  0  0  0  0  0  0  0
   12.6464  -18.8511   24.6953 C   0  0  0  0  0  0  0  0  0  0  0  0
   13.9565  -19.3503   24.2466 C   0  0  0  0  0  0  0  0  0  0  0  0
   14.3163  -19.0469   23.0819 O   0  0  0  0  0  0  0  0  0  0  0  0
   10.5631  -16.6747   25.1724 C   0  0  0  0  0  0  0  0  0  0  0  0
   10.8086  -15.4253   25.1833 O   0  0  0  0  0  0  0  0  0  0  0  0
   14.7758  -20.1286   25.0686 O   0  0  0  0  0  0  0  0  0  0  0  0
    6.7725  -11.6992   25.1766 O   0  0  0  0  0  0  0  0  0  0  0  0
    7.2975  -12.7903   25.8951 C   0  0  0  0  0  0  0  0  0  0  0  0
    8.4156  -12.6719   26.6606 C   0  0  0  0  0  0  0  0  0  0  0  0
    8.8929  -13.7864   27.3523 C   0  0  0  0  0  0  0  0  0  0  0  0
    8.2539  -15.0026   27.2746 C   0  0  0  0  0  0  0  0  0  0  0  0
    8.7609  -16.1576   27.9925 C   0  0  0  0  0  0  0  0  0  0  0  0
   10.2166  -16.5094   27.6681 C   0  0  2  0  0  0  0  0  0  0  0  0
   10.1865  -17.2365   26.4235 N   0  0  0  0  0  0  0  0  0  0  0  0
   10.8684  -17.1960   28.7772 C   0  0  0  0  0  0  0  0  0  0  0  0
   11.1687  -16.6253   30.0005 O   0  0  0  0  0  0  0  0  0  0  0  0
    7.1259  -15.0943   26.4938 C   0  0  0  0  0  0  0  0  0  0  0  0
    6.6365  -13.9849   25.7950 C   0  0  0  0  0  0  0  0  0  0  0  0
   11.2080  -18.4171   28.6572 O   0  0  0  0  0  0  0  0  0  0  0  0
  2  1  1  1
  3  2  1  0
  3  4  1  0
  4  5  2  0
  5  6  1  0
  7  6  1  0
  8  4  1  0
  8  7  2  0
  9 11  1  0
  9  2  1  0
 10  9  2  0
 12 11  1  0
 13 14  1  0
 12 13  1  6
 14 15  1  0
 15 16  2  0
 15 19  1  0
 17 27  1  0
 17 12  1  0
 18 17  2  0
 20 21  1  0
 21 31  2  0
 21 22  1  0
 22 23  2  0
 23 24  1  0
 24 25  1  0
 26 25  1  1
 26 27  1  0
 26 28  1  0
 28 29  1  0
 30 24  2  0
 31 30  1  0
 32 28  2  0
M  END
$$$$
