HEY.pdb
     RDKit          3D

 32 33  0  0  1  0  0  0  0  0999 V2000
    9.0480  -16.6581   19.6525 N   0  0  0  0  0  0  0  0  0  0  0  0
    9.0036  -15.8846   20.8725 C   0  0  1  0  0  0  0  0  0  0  0  0
    7.7973  -14.9573   20.7659 C   0  0  0  0  0  0  0  0  0  0  0  0
    7.9513  -13.9758   19.6606 C   0  0  0  0  0  0  0  0  0  0  0  0
    8.9149  -12.9887   19.5904 C   0  0  0  0  0  0  0  0  0  0  0  0
    8.7001  -12.3348   18.4472 N   0  0  0  0  0  0  0  0  0  0  0  0
    7.6448  -12.8753   17.8071 C   0  0  0  0  0  0  0  0  0  0  0  0
    7.1861  -13.8891   18.5613 N   0  0  0  0  0  0  0  0  0  0  0  0
    8.7270  -16.7948   22.0062 C   0  0  0  0  0  0  0  0  0  0  0  0
    7.8307  -17.6613   21.8674 O   0  0  0  0  0  0  0  0  0  0  0  0
    9.4291  -16.7269   23.2351 N   0  0  0  0  0  0  0  0  0  0  0  0
    8.9952  -17.4700   24.4093 C   0  0  1  0  0  0  0  0  0  0  0  0
   10.0971  -18.2796   24.9893 C   0  0  0  0  0  0  0  0  0  0  0  0
   11.3247  -17.5549   25.3953 C   0  0  0  0  0  0  0  0  0  0  0  0
   12.1315  -18.3685   26.3195 C   0  0  0  0  0  0  0  0  0  0  0  0
   13.3774  -18.3494   26.1603 O   0  0  0  0  0  0  0  0  0  0  0  0
    8.2608  -16.5969   25.3388 C   0  0  0  0  0  0  0  0  0  0  0  0
    7.6845  -17.0554   26.3776 O   0  0  0  0  0  0  0  0  0  0  0  0
   11.5517  -19.1335   27.3350 O   0  0  0  0  0  0  0  0  0  0  0  0
   11.9133  -15.8838   30.2768 O   0  0  0  0  0  0  0  0  0  0  0  0
   11.0587  -15.2635   29.3455 C   0  0  0  0  0  0  0  0  0  0  0  0
   11.4216  -15.0895   28.0463 C   0  0  0  0  0  0  0  0  0  0  0  0
   10.5351  -14.4681   27.1652 C   0  0  0  0  0  0  0  0  0  0  0  0
    9.3009  -14.0284   27.5858 C   0  0  0  0  0  0  0  0  0  0  0  0
    8.3880  -13.3778   26.6640 C   0  0  0  0  0  0  0  0  0  0  0  0
    7.3811  -14.3254   26.0036 C   0  0  2  0  0  0  0  0  0  0  0  0
    8.1487  -15.1925   25.1449 N   0  0  0  0  0  0  0  0  0  0  0  0
    6.2993  -13.5975   25.3506 C   0  0  0  0  0  0  0  0  0  0  0  0
    5.4005  -12.7641   25.9910 O   0  0  0  0  0  0  0  0  0  0  0  0
    8.9596  -14.2170   28.9043 C   0  0  0  0  0  0  0  0  0  0  0  0
    9.8388  -14.8385   29.7984 C   0  0  0  0  0  0  0  0  0  0  0  0
    6.1278  -13.7067   24.0939 O   0  0  0  0  0  0  0  0  0  0  0  0
  2  1  1  6
  3  2  1  0
  3  4  1  0
  4  5  2  0
  5  6  1  0
  7  6  1  0
  8  4  1  0
  8  7  2  0
  9 11  1  0
  9  2  1  0
 10  9  2  0
 12 11  1  0
 13 14  1  0
 12 13  1  1
 14 15  1  0
 15 16  2  0
 15 19  1  0
 17 27  1  0
 17 12  1  0
 18 17  2  0
 20 21  1  0
 21 31  2  0
 21 22  1  0
 22 23  2  0
 23 24  1  0
 24 25  1  0
 26 25  1  6
 26 27  1  0
 26 28  1  0
 28 29  1  0
 30 24  2  0
 31 30  1  0
 32 28  2  0
M  END
$$$$
