HEY.pdb
     RDKit          3D

 32 33  0  0  1  0  0  0  0  0999 V2000
    9.3638  -16.0783   20.1149 N   0  0  0  0  0  0  0  0  0  0  0  0
    8.9710  -14.9567   20.9372 C   0  0  1  0  0  0  0  0  0  0  0  0
    7.6512  -14.4366   20.3770 C   0  0  0  0  0  0  0  0  0  0  0  0
    7.7582  -14.1014   18.9330 C   0  0  0  0  0  0  0  0  0  0  0  0
    8.1993  -12.8983   18.4176 C   0  0  0  0  0  0  0  0  0  0  0  0
    8.1390  -13.0139   17.0896 N   0  0  0  0  0  0  0  0  0  0  0  0
    7.6795  -14.2373   16.7614 C   0  0  0  0  0  0  0  0  0  0  0  0
    7.4459  -14.9052   17.9045 N   0  0  0  0  0  0  0  0  0  0  0  0
    8.6771  -15.4447   22.3032 C   0  0  0  0  0  0  0  0  0  0  0  0
    7.9829  -14.7206   23.0562 O   0  0  0  0  0  0  0  0  0  0  0  0
    9.1461  -16.6892   22.7920 N   0  0  0  0  0  0  0  0  0  0  0  0
    8.9046  -17.1159   24.1628 C   0  0  1  0  0  0  0  0  0  0  0  0
    8.6871  -18.5823   24.2548 C   0  0  0  0  0  0  0  0  0  0  0  0
    7.4110  -19.1098   23.7160 C   0  0  0  0  0  0  0  0  0  0  0  0
    7.0691  -20.3963   24.3444 C   0  0  0  0  0  0  0  0  0  0  0  0
    6.8131  -20.3826   25.5741 O   0  0  0  0  0  0  0  0  0  0  0  0
    9.9073  -16.5412   25.0737 C   0  0  0  0  0  0  0  0  0  0  0  0
   11.1553  -16.6159   24.8322 O   0  0  0  0  0  0  0  0  0  0  0  0
    7.0266  -21.5894   23.6180 O   0  0  0  0  0  0  0  0  0  0  0  0
    5.7583  -11.6577   25.2189 O   0  0  0  0  0  0  0  0  0  0  0  0
    6.9290  -12.2146   25.7681 C   0  0  0  0  0  0  0  0  0  0  0  0
    7.1671  -12.2030   27.1073 C   0  0  0  0  0  0  0  0  0  0  0  0
    8.3446  -12.7695   27.5981 C   0  0  0  0  0  0  0  0  0  0  0  0
    9.2691  -13.3395   26.7532 C   0  0  0  0  0  0  0  0  0  0  0  0
   10.4936  -13.9207   27.2720 C   0  0  0  0  0  0  0  0  0  0  0  0
   10.5114  -15.4530   27.2706 C   0  0  2  0  0  0  0  0  0  0  0  0
    9.5545  -15.8650   26.2740 N   0  0  0  0  0  0  0  0  0  0  0  0
   10.2972  -15.9988   28.6058 C   0  0  0  0  0  0  0  0  0  0  0  0
   11.1352  -15.8053   29.6887 O   0  0  0  0  0  0  0  0  0  0  0  0
    9.0033  -13.3376   25.4042 C   0  0  0  0  0  0  0  0  0  0  0  0
    7.8267  -12.7732   24.8986 C   0  0  0  0  0  0  0  0  0  0  0  0
    9.2731  -16.7173   28.8418 O   0  0  0  0  0  0  0  0  0  0  0  0
  2  1  1  6
  3  2  1  0
  3  4  1  0
  4  5  2  0
  5  6  1  0
  7  6  1  0
  8  4  1  0
  8  7  2  0
  9 11  1  0
  9  2  1  0
 10  9  2  0
 12 11  1  0
 13 14  1  0
 12 13  1  6
 14 15  1  0
 15 16  2  0
 15 19  1  0
 17 27  1  0
 17 12  1  0
 18 17  2  0
 20 21  1  0
 21 31  2  0
 21 22  1  0
 22 23  2  0
 23 24  1  0
 24 25  1  0
 26 25  1  1
 26 27  1  0
 26 28  1  0
 28 29  1  0
 30 24  2  0
 31 30  1  0
 32 28  2  0
M  END
$$$$
