HEY.pdb
     RDKit          3D

 32 33  0  0  1  0  0  0  0  0999 V2000
    8.9281  -17.3276   16.5531 N   0  0  0  0  0  0  0  0  0  0  0  0
    9.1485  -16.2703   17.5133 C   0  0  1  0  0  0  0  0  0  0  0  0
    7.9683  -15.3113   17.3957 C   0  0  0  0  0  0  0  0  0  0  0  0
    7.9522  -14.6138   16.0834 C   0  0  0  0  0  0  0  0  0  0  0  0
    8.6681  -13.4751   15.7694 C   0  0  0  0  0  0  0  0  0  0  0  0
    8.3700  -13.1815   14.5023 N   0  0  0  0  0  0  0  0  0  0  0  0
    7.5003  -14.0901   14.0189 C   0  0  0  0  0  0  0  0  0  0  0  0
    7.2458  -14.9730   15.0002 N   0  0  0  0  0  0  0  0  0  0  0  0
    9.0834  -16.8414   18.8771 C   0  0  0  0  0  0  0  0  0  0  0  0
    8.3663  -17.8535   19.0637 O   0  0  0  0  0  0  0  0  0  0  0  0
    9.7935  -16.2937   19.9742 N   0  0  0  0  0  0  0  0  0  0  0  0
   10.0164  -17.0491   21.1985 C   0  0  1  0  0  0  0  0  0  0  0  0
   11.1704  -17.9758   21.0735 C   0  0  0  0  0  0  0  0  0  0  0  0
   11.5322  -18.7678   22.2731 C   0  0  0  0  0  0  0  0  0  0  0  0
   12.7659  -19.5365   22.0406 C   0  0  0  0  0  0  0  0  0  0  0  0
   13.8554  -18.9311   22.1964 O   0  0  0  0  0  0  0  0  0  0  0  0
   10.0114  -16.1591   22.3704 C   0  0  0  0  0  0  0  0  0  0  0  0
   10.7135  -15.0976   22.4106 O   0  0  0  0  0  0  0  0  0  0  0  0
   12.7426  -20.8817   21.6631 O   0  0  0  0  0  0  0  0  0  0  0  0
    6.1716  -11.2350   28.4572 O   0  0  0  0  0  0  0  0  0  0  0  0
    6.5162  -12.1699   27.4624 C   0  0  0  0  0  0  0  0  0  0  0  0
    5.9790  -13.4192   27.4375 C   0  0  0  0  0  0  0  0  0  0  0  0
    6.3559  -14.3065   26.4280 C   0  0  0  0  0  0  0  0  0  0  0  0
    7.2605  -13.9413   25.4574 C   0  0  0  0  0  0  0  0  0  0  0  0
    7.6512  -14.8725   24.4151 C   0  0  0  0  0  0  0  0  0  0  0  0
    9.0481  -15.4742   24.6016 C   0  0  2  0  0  0  0  0  0  0  0  0
    9.2257  -16.4187   23.5270 N   0  0  0  0  0  0  0  0  0  0  0  0
    9.2312  -16.0135   25.9441 C   0  0  0  0  0  0  0  0  0  0  0  0
    9.7692  -15.3211   27.0134 O   0  0  0  0  0  0  0  0  0  0  0  0
    7.7879  -12.6725   25.5064 C   0  0  0  0  0  0  0  0  0  0  0  0
    7.4188  -11.7729   26.5129 C   0  0  0  0  0  0  0  0  0  0  0  0
    8.8850  -17.2115   26.2003 O   0  0  0  0  0  0  0  0  0  0  0  0
  2  1  1  6
  3  2  1  0
  3  4  1  0
  4  5  2  0
  5  6  1  0
  7  6  1  0
  8  4  1  0
  8  7  2  0
  9 11  1  0
  9  2  1  0
 10  9  2  0
 12 11  1  0
 13 14  1  0
 12 13  1  6
 14 15  1  0
 15 16  2  0
 15 19  1  0
 17 27  1  0
 17 12  1  0
 18 17  2  0
 20 21  1  0
 21 31  2  0
 21 22  1  0
 22 23  2  0
 23 24  1  0
 24 25  1  0
 26 25  1  1
 26 27  1  0
 26 28  1  0
 28 29  1  0
 30 24  2  0
 31 30  1  0
 32 28  2  0
M  END
$$$$
