HEY.pdb
     RDKit          3D

 32 33  0  0  1  0  0  0  0  0999 V2000
    6.3546  -16.8868   20.2740 N   0  0  0  0  0  0  0  0  0  0  0  0
    7.3204  -16.1800   21.0841 C   0  0  1  0  0  0  0  0  0  0  0  0
    7.0250  -14.6918   20.9290 C   0  0  0  0  0  0  0  0  0  0  0  0
    7.6283  -14.1353   19.6900 C   0  0  0  0  0  0  0  0  0  0  0  0
    8.7229  -13.2947   19.6362 C   0  0  0  0  0  0  0  0  0  0  0  0
    8.9329  -13.0335   18.3446 N   0  0  0  0  0  0  0  0  0  0  0  0
    8.0149  -13.6768   17.5969 C   0  0  0  0  0  0  0  0  0  0  0  0
    7.2114  -14.3563   18.4335 N   0  0  0  0  0  0  0  0  0  0  0  0
    7.0788  -16.5038   22.5079 C   0  0  0  0  0  0  0  0  0  0  0  0
    5.9348  -16.2960   22.9785 O   0  0  0  0  0  0  0  0  0  0  0  0
    8.0819  -17.0350   23.3561 N   0  0  0  0  0  0  0  0  0  0  0  0
    7.7985  -17.4243   24.7299 C   0  0  1  0  0  0  0  0  0  0  0  0
    7.5775  -18.8877   24.8551 C   0  0  0  0  0  0  0  0  0  0  0  0
    7.3425  -19.4200   26.2183 C   0  0  0  0  0  0  0  0  0  0  0  0
    7.2776  -20.8906   26.2023 C   0  0  0  0  0  0  0  0  0  0  0  0
    8.1637  -21.4955   25.5491 O   0  0  0  0  0  0  0  0  0  0  0  0
    8.7733  -16.8248   25.6550 C   0  0  0  0  0  0  0  0  0  0  0  0
   10.0028  -16.7009   25.3477 O   0  0  0  0  0  0  0  0  0  0  0  0
    6.2803  -21.5972   26.8797 O   0  0  0  0  0  0  0  0  0  0  0  0
    6.4490  -10.7671   25.1247 O   0  0  0  0  0  0  0  0  0  0  0  0
    7.0270  -11.7230   25.9818 C   0  0  0  0  0  0  0  0  0  0  0  0
    8.3755  -11.8628   26.0922 C   0  0  0  0  0  0  0  0  0  0  0  0
    8.8952  -12.8268   26.9576 C   0  0  0  0  0  0  0  0  0  0  0  0
    8.0695  -13.6385   27.7011 C   0  0  0  0  0  0  0  0  0  0  0  0
    8.6187  -14.6424   28.5938 C   0  0  0  0  0  0  0  0  0  0  0  0
    9.3531  -15.7827   27.8807 C   0  0  2  0  0  0  0  0  0  0  0  0
    8.4118  -16.3427   26.9431 N   0  0  0  0  0  0  0  0  0  0  0  0
    9.9317  -16.7300   28.8264 C   0  0  0  0  0  0  0  0  0  0  0  0
   10.9602  -16.4481   29.7068 O   0  0  0  0  0  0  0  0  0  0  0  0
    6.7105  -13.4759   27.5702 C   0  0  0  0  0  0  0  0  0  0  0  0
    6.1760  -12.5133   26.7064 C   0  0  0  0  0  0  0  0  0  0  0  0
    9.4896  -17.9225   28.8822 O   0  0  0  0  0  0  0  0  0  0  0  0
  2  1  1  6
  3  2  1  0
  3  4  1  0
  4  5  2  0
  5  6  1  0
  7  6  1  0
  8  4  1  0
  8  7  2  0
  9 11  1  0
  9  2  1  0
 10  9  2  0
 12 11  1  0
 13 14  1  0
 12 13  1  6
 14 15  1  0
 15 16  2  0
 15 19  1  0
 17 27  1  0
 17 12  1  0
 18 17  2  0
 20 21  1  0
 21 31  2  0
 21 22  1  0
 22 23  2  0
 23 24  1  0
 24 25  1  0
 26 25  1  1
 26 27  1  0
 26 28  1  0
 28 29  1  0
 30 24  2  0
 31 30  1  0
 32 28  2  0
M  END
$$$$
