KYR.pdb
     RDKit          3D

 33 33  0  0  1  0  0  0  0  0999 V2000
    9.4072  -16.3395   17.6411 N   0  0  0  0  0  0  0  0  0  0  0  0
    8.2775  -16.3742   18.5283 C   0  0  1  0  0  0  0  0  0  0  0  0
    7.6593  -17.7198   18.5487 C   0  0  0  0  0  0  0  0  0  0  0  0
    8.6292  -18.8181   18.7931 C   0  0  0  0  0  0  0  0  0  0  0  0
    8.0963  -20.2061   18.6805 C   0  0  0  0  0  0  0  0  0  0  0  0
    9.1907  -21.2322   19.0093 C   0  0  0  0  0  0  0  0  0  0  0  0
    8.5880  -22.5578   18.8886 N   0  0  0  0  0  0  0  0  0  0  0  0
    8.6726  -15.9072   19.8955 C   0  0  0  0  0  0  0  0  0  0  0  0
    9.8447  -16.1186   20.2726 O   0  0  0  0  0  0  0  0  0  0  0  0
    6.6295  -12.1794   27.8461 O   0  0  0  0  0  0  0  0  0  0  0  0
    6.7716  -12.5831   26.5286 C   0  0  0  0  0  0  0  0  0  0  0  0
    7.6628  -11.9613   25.6985 C   0  0  0  0  0  0  0  0  0  0  0  0
    7.7387  -12.4292   24.3988 C   0  0  0  0  0  0  0  0  0  0  0  0
    6.9710  -13.4705   23.9205 C   0  0  0  0  0  0  0  0  0  0  0  0
    7.0562  -13.8989   22.5377 C   0  0  0  0  0  0  0  0  0  0  0  0
    8.1195  -14.8337   22.1329 C   0  0  2  0  0  0  0  0  0  0  0  0
    7.7582  -15.2468   20.7431 N   0  0  0  0  0  0  0  0  0  0  0  0
    8.3868  -16.0209   22.9285 C   0  0  0  0  0  0  0  0  0  0  0  0
    7.6323  -17.0732   22.8151 O   0  0  0  0  0  0  0  0  0  0  0  0
    6.0918  -14.0626   24.7908 C   0  0  0  0  0  0  0  0  0  0  0  0
    5.9883  -13.6216   26.0978 C   0  0  0  0  0  0  0  0  0  0  0  0
   12.5293  -15.9264   29.8999 N   0  0  0  0  0  0  0  0  0  0  0  0
   11.4299  -16.8116   29.7847 C   0  0  0  0  0  0  0  0  0  0  0  0
   10.7781  -17.1339   30.8369 N   0  0  0  0  0  0  0  0  0  0  0  0
   11.0422  -17.3431   28.5394 N   0  0  0  0  0  0  0  0  0  0  0  0
   12.0256  -17.7888   27.5364 C   0  0  0  0  0  0  0  0  0  0  0  0
   11.3535  -18.2638   26.3115 C   0  0  0  0  0  0  0  0  0  0  0  0
   10.8303  -17.3349   25.3285 C   0  0  0  0  0  0  0  0  0  0  0  0
    9.4747  -17.4157   24.7230 C   0  0  2  0  0  0  0  0  0  0  0  0
    9.4319  -16.1751   23.8573 N   0  0  0  0  0  0  0  0  0  0  0  0
    8.3686  -17.2086   25.6575 C   0  0  0  0  0  0  0  0  0  0  0  0
    7.9849  -16.0868   26.0464 O   0  0  0  0  0  0  0  0  0  0  0  0
    7.6698  -18.2900   26.1687 O   0  0  0  0  0  0  0  0  0  0  0  0
  2  3  1  0
  2  1  1  6
  3  4  1  0
  5  4  1  0
  6  5  1  0
  7  6  1  0
  8  9  2  0
  8  2  1  0
 10 11  1  0
 11 21  2  0
 12 11  1  0
 12 13  2  0
 13 14  1  0
 14 20  2  0
 14 15  1  0
 16 15  1  1
 16 17  1  0
 17  8  1  0
 18 19  2  0
 18 16  1  0
 21 20  1  0
 23 24  2  0
 23 22  1  0
 25 23  1  0
 26 25  1  0
 27 26  1  0
 28 27  1  0
 29 28  1  1
 29 30  1  0
 30 18  1  0
 31 29  1  0
 32 31  2  0
 33 31  1  0
M  END
$$$$
