KYR.pdb
     RDKit          3D

 33 33  0  0  1  0  0  0  0  0999 V2000
    7.9556  -16.3124   19.0147 N   0  0  0  0  0  0  0  0  0  0  0  0
    8.6710  -15.0897   18.7746 C   0  0  1  0  0  0  0  0  0  0  0  0
    7.9680  -14.2501   17.7775 C   0  0  0  0  0  0  0  0  0  0  0  0
    7.5688  -14.9882   16.5516 C   0  0  0  0  0  0  0  0  0  0  0  0
    8.1939  -14.5353   15.2759 C   0  0  0  0  0  0  0  0  0  0  0  0
    7.5767  -15.2760   14.0804 C   0  0  0  0  0  0  0  0  0  0  0  0
    8.2008  -14.7395   12.8730 N   0  0  0  0  0  0  0  0  0  0  0  0
    8.9124  -14.3642   20.0625 C   0  0  0  0  0  0  0  0  0  0  0  0
    9.7643  -13.4505   20.0713 O   0  0  0  0  0  0  0  0  0  0  0  0
    6.8600  -11.7000   28.3183 O   0  0  0  0  0  0  0  0  0  0  0  0
    6.9106  -12.2742   27.0587 C   0  0  0  0  0  0  0  0  0  0  0  0
    6.6852  -13.6124   26.8902 C   0  0  0  0  0  0  0  0  0  0  0  0
    6.7560  -14.1009   25.5978 C   0  0  0  0  0  0  0  0  0  0  0  0
    7.0374  -13.3119   24.5020 C   0  0  0  0  0  0  0  0  0  0  0  0
    7.1418  -13.8773   23.1707 C   0  0  0  0  0  0  0  0  0  0  0  0
    8.4660  -14.0052   22.5395 C   0  0  2  0  0  0  0  0  0  0  0  0
    8.2059  -14.6928   21.2388 N   0  0  0  0  0  0  0  0  0  0  0  0
    9.5408  -14.6935   23.2358 C   0  0  0  0  0  0  0  0  0  0  0  0
    9.9747  -14.2510   24.3784 O   0  0  0  0  0  0  0  0  0  0  0  0
    7.2557  -11.9757   24.7214 C   0  0  0  0  0  0  0  0  0  0  0  0
    7.1934  -11.4515   26.0000 C   0  0  0  0  0  0  0  0  0  0  0  0
   11.2210  -19.9036   29.0622 N   0  0  0  0  0  0  0  0  0  0  0  0
   10.9791  -18.5277   29.2938 C   0  0  0  0  0  0  0  0  0  0  0  0
   11.4378  -17.9861   30.3578 N   0  0  0  0  0  0  0  0  0  0  0  0
   10.2451  -17.7469   28.3798 N   0  0  0  0  0  0  0  0  0  0  0  0
    9.9264  -18.2214   27.0216 C   0  0  0  0  0  0  0  0  0  0  0  0
   10.8526  -17.6436   26.0287 C   0  0  0  0  0  0  0  0  0  0  0  0
   10.3628  -16.9456   24.8557 C   0  0  0  0  0  0  0  0  0  0  0  0
   11.2063  -16.5251   23.7056 C   0  0  2  0  0  0  0  0  0  0  0  0
   10.2010  -15.8545   22.7945 N   0  0  0  0  0  0  0  0  0  0  0  0
   11.7210  -17.6212   22.8850 C   0  0  0  0  0  0  0  0  0  0  0  0
   11.0521  -18.2145   22.0147 O   0  0  0  0  0  0  0  0  0  0  0  0
   13.0244  -18.0633   23.0420 O   0  0  0  0  0  0  0  0  0  0  0  0
  2  3  1  0
  2  1  1  1
  3  4  1  0
  5  4  1  0
  6  5  1  0
  7  6  1  0
  8  9  2  0
  8  2  1  0
 10 11  1  0
 11 21  2  0
 12 11  1  0
 12 13  2  0
 13 14  1  0
 14 20  2  0
 14 15  1  0
 16 15  1  1
 16 17  1  0
 17  8  1  0
 18 19  2  0
 18 16  1  0
 21 20  1  0
 23 24  2  0
 23 22  1  0
 25 23  1  0
 26 25  1  0
 27 26  1  0
 28 27  1  0
 29 28  1  1
 29 30  1  0
 30 18  1  0
 31 29  1  0
 32 31  2  0
 33 31  1  0
M  END
$$$$
