KYR.pdb
     RDKit          3D

 33 33  0  0  1  0  0  0  0  0999 V2000
    9.0377  -18.0716   20.8273 N   0  0  0  0  0  0  0  0  0  0  0  0
   10.2673  -17.3907   21.1256 C   0  0  1  0  0  0  0  0  0  0  0  0
   10.9051  -16.8805   19.8902 C   0  0  0  0  0  0  0  0  0  0  0  0
   10.7567  -17.7884   18.7238 C   0  0  0  0  0  0  0  0  0  0  0  0
    9.8535  -17.3199   17.6338 C   0  0  0  0  0  0  0  0  0  0  0  0
    9.8729  -18.3058   16.4564 C   0  0  0  0  0  0  0  0  0  0  0  0
    9.0963  -17.7015   15.3763 N   0  0  0  0  0  0  0  0  0  0  0  0
   10.0339  -16.3094   22.1354 C   0  0  0  0  0  0  0  0  0  0  0  0
   11.0303  -15.7267   22.6131 O   0  0  0  0  0  0  0  0  0  0  0  0
    7.4002  -12.7673   17.5985 O   0  0  0  0  0  0  0  0  0  0  0  0
    7.3939  -13.1217   18.9377 C   0  0  0  0  0  0  0  0  0  0  0  0
    6.6580  -14.1876   19.3758 C   0  0  0  0  0  0  0  0  0  0  0  0
    6.7099  -14.4698   20.7292 C   0  0  0  0  0  0  0  0  0  0  0  0
    7.4552  -13.7374   21.6296 C   0  0  0  0  0  0  0  0  0  0  0  0
    7.4455  -14.0464   23.0464 C   0  0  0  0  0  0  0  0  0  0  0  0
    8.4879  -14.9245   23.6037 C   0  0  2  0  0  0  0  0  0  0  0  0
    8.7323  -15.9495   22.5444 N   0  0  0  0  0  0  0  0  0  0  0  0
    8.2711  -15.5956   24.8752 C   0  0  0  0  0  0  0  0  0  0  0  0
    8.0119  -14.9075   25.9471 O   0  0  0  0  0  0  0  0  0  0  0  0
    8.1769  -12.6778   21.1424 C   0  0  0  0  0  0  0  0  0  0  0  0
    8.1493  -12.3655   19.7951 C   0  0  0  0  0  0  0  0  0  0  0  0
    6.4085  -24.1406   26.6013 N   0  0  0  0  0  0  0  0  0  0  0  0
    6.2219  -23.4522   27.8247 C   0  0  0  0  0  0  0  0  0  0  0  0
    5.8934  -24.1157   28.8677 N   0  0  0  0  0  0  0  0  0  0  0  0
    6.3888  -22.0567   27.9152 N   0  0  0  0  0  0  0  0  0  0  0  0
    6.7311  -21.2300   26.7443 C   0  0  0  0  0  0  0  0  0  0  0  0
    6.9832  -19.8310   27.1400 C   0  0  0  0  0  0  0  0  0  0  0  0
    7.3212  -18.8179   26.1590 C   0  0  0  0  0  0  0  0  0  0  0  0
    7.9878  -17.5256   26.4700 C   0  0  2  0  0  0  0  0  0  0  0  0
    8.3050  -16.9849   25.0926 N   0  0  0  0  0  0  0  0  0  0  0  0
    9.3058  -17.6459   27.0928 C   0  0  0  0  0  0  0  0  0  0  0  0
    9.4945  -17.6768   28.3258 O   0  0  0  0  0  0  0  0  0  0  0  0
   10.4458  -17.7375   26.3109 O   0  0  0  0  0  0  0  0  0  0  0  0
  2  3  1  0
  2  1  1  6
  3  4  1  0
  5  4  1  0
  6  5  1  0
  7  6  1  0
  8  9  2  0
  8  2  1  0
 10 11  1  0
 11 21  2  0
 12 11  1  0
 12 13  2  0
 13 14  1  0
 14 20  2  0
 14 15  1  0
 16 15  1  6
 16 17  1  0
 17  8  1  0
 18 19  2  0
 18 16  1  0
 21 20  1  0
 23 24  2  0
 23 22  1  0
 25 23  1  0
 26 25  1  0
 27 26  1  0
 28 27  1  0
 29 28  1  6
 29 30  1  0
 30 18  1  0
 31 29  1  0
 32 31  2  0
 33 31  1  0
M  END
$$$$
