KYR.pdb
     RDKit          3D

 33 33  0  0  1  0  0  0  0  0999 V2000
    7.7533  -16.2968   20.4133 N   0  0  0  0  0  0  0  0  0  0  0  0
    8.7666  -15.3002   20.6243 C   0  0  1  0  0  0  0  0  0  0  0  0
    8.3671  -14.0029   20.0324 C   0  0  0  0  0  0  0  0  0  0  0  0
    8.6572  -13.8957   18.5794 C   0  0  0  0  0  0  0  0  0  0  0  0
    7.5200  -13.4821   17.7083 C   0  0  0  0  0  0  0  0  0  0  0  0
    7.8678  -12.1978   16.9412 C   0  0  0  0  0  0  0  0  0  0  0  0
    6.8121  -11.9874   15.9531 N   0  0  0  0  0  0  0  0  0  0  0  0
    9.0916  -15.1862   22.0820 C   0  0  0  0  0  0  0  0  0  0  0  0
   10.1092  -14.5391   22.4081 O   0  0  0  0  0  0  0  0  0  0  0  0
    5.4040  -10.4673   26.3157 O   0  0  0  0  0  0  0  0  0  0  0  0
    5.9134  -11.7322   26.0714 C   0  0  0  0  0  0  0  0  0  0  0  0
    7.1657  -12.0766   26.4990 C   0  0  0  0  0  0  0  0  0  0  0  0
    7.5941  -13.3603   26.2114 C   0  0  0  0  0  0  0  0  0  0  0  0
    6.8276  -14.2815   25.5283 C   0  0  0  0  0  0  0  0  0  0  0  0
    7.3360  -15.6026   25.2138 C   0  0  0  0  0  0  0  0  0  0  0  0
    8.6284  -15.7357   24.5208 C   0  0  2  0  0  0  0  0  0  0  0  0
    8.2811  -15.7870   23.0684 N   0  0  0  0  0  0  0  0  0  0  0  0
    9.5140  -16.8441   24.8384 C   0  0  0  0  0  0  0  0  0  0  0  0
    9.2525  -18.0411   24.4043 O   0  0  0  0  0  0  0  0  0  0  0  0
    5.5783  -13.8895   25.1200 C   0  0  0  0  0  0  0  0  0  0  0  0
    5.1162  -12.6138   25.3896 C   0  0  0  0  0  0  0  0  0  0  0  0
   13.9712  -16.6911   19.4051 N   0  0  0  0  0  0  0  0  0  0  0  0
   14.4827  -15.8777   20.4453 C   0  0  0  0  0  0  0  0  0  0  0  0
   15.2596  -14.9056   20.1496 N   0  0  0  0  0  0  0  0  0  0  0  0
   14.1555  -16.1178   21.7940 N   0  0  0  0  0  0  0  0  0  0  0  0
   13.1257  -17.0950   22.1893 C   0  0  0  0  0  0  0  0  0  0  0  0
   13.0228  -17.1897   23.6583 C   0  0  0  0  0  0  0  0  0  0  0  0
   12.0946  -18.1057   24.2928 C   0  0  0  0  0  0  0  0  0  0  0  0
   11.5977  -17.9777   25.6883 C   0  0  2  0  0  0  0  0  0  0  0  0
   10.6937  -16.7671   25.6006 N   0  0  0  0  0  0  0  0  0  0  0  0
   12.6058  -17.5708   26.6670 C   0  0  0  0  0  0  0  0  0  0  0  0
   13.6184  -18.2442   26.9463 O   0  0  0  0  0  0  0  0  0  0  0  0
   12.4772  -16.3727   27.3505 O   0  0  0  0  0  0  0  0  0  0  0  0
  2  3  1  0
  2  1  1  1
  3  4  1  0
  5  4  1  0
  6  5  1  0
  7  6  1  0
  8  9  2  0
  8  2  1  0
 10 11  1  0
 11 21  2  0
 12 11  1  0
 12 13  2  0
 13 14  1  0
 14 20  2  0
 14 15  1  0
 16 15  1  1
 16 17  1  0
 17  8  1  0
 18 19  2  0
 18 16  1  0
 21 20  1  0
 23 24  2  0
 23 22  1  0
 25 23  1  0
 26 25  1  0
 27 26  1  0
 28 27  1  0
 29 28  1  6
 29 30  1  0
 30 18  1  0
 31 29  1  0
 32 31  2  0
 33 31  1  0
M  END
$$$$
