KYR.pdb
     RDKit          3D

 33 33  0  0  1  0  0  0  0  0999 V2000
   10.5030  -17.4700   19.0724 N   0  0  0  0  0  0  0  0  0  0  0  0
    9.3440  -17.5070   19.9209 C   0  0  1  0  0  0  0  0  0  0  0  0
    8.9863  -18.9008   20.2710 C   0  0  0  0  0  0  0  0  0  0  0  0
    8.9749  -19.8239   19.1072 C   0  0  0  0  0  0  0  0  0  0  0  0
    7.7923  -20.7246   18.9911 C   0  0  0  0  0  0  0  0  0  0  0  0
    7.9616  -21.6867   17.8060 C   0  0  0  0  0  0  0  0  0  0  0  0
    9.1163  -22.5324   18.0999 N   0  0  0  0  0  0  0  0  0  0  0  0
    9.5555  -16.6510   21.1316 C   0  0  0  0  0  0  0  0  0  0  0  0
   10.7013  -16.6078   21.6276 O   0  0  0  0  0  0  0  0  0  0  0  0
    6.6913  -11.3346   27.7572 O   0  0  0  0  0  0  0  0  0  0  0  0
    6.8605  -12.0801   26.6019 C   0  0  0  0  0  0  0  0  0  0  0  0
    6.1694  -13.2447   26.4132 C   0  0  0  0  0  0  0  0  0  0  0  0
    6.4003  -13.9248   25.2307 C   0  0  0  0  0  0  0  0  0  0  0  0
    7.2771  -13.4854   24.2607 C   0  0  0  0  0  0  0  0  0  0  0  0
    7.5171  -14.2544   23.0550 C   0  0  0  0  0  0  0  0  0  0  0  0
    8.6513  -15.1923   23.0074 C   0  0  2  0  0  0  0  0  0  0  0  0
    8.5008  -15.9101   21.7056 N   0  0  0  0  0  0  0  0  0  0  0  0
    8.8348  -16.1670   24.0705 C   0  0  0  0  0  0  0  0  0  0  0  0
    8.1279  -17.2575   24.0933 O   0  0  0  0  0  0  0  0  0  0  0  0
    7.9469  -12.3118   24.4954 C   0  0  0  0  0  0  0  0  0  0  0  0
    7.7417  -11.6045   25.6664 C   0  0  0  0  0  0  0  0  0  0  0  0
   12.5861  -19.9424   21.3706 N   0  0  0  0  0  0  0  0  0  0  0  0
   13.5567  -19.1206   21.9934 C   0  0  0  0  0  0  0  0  0  0  0  0
   14.6324  -18.8401   21.3607 N   0  0  0  0  0  0  0  0  0  0  0  0
   13.3627  -18.6090   23.2912 N   0  0  0  0  0  0  0  0  0  0  0  0
   12.5653  -19.3225   24.3045 C   0  0  0  0  0  0  0  0  0  0  0  0
   11.2942  -18.6207   24.5675 C   0  0  0  0  0  0  0  0  0  0  0  0
   11.0870  -17.8657   25.7882 C   0  0  0  0  0  0  0  0  0  0  0  0
    9.8197  -17.1808   26.1565 C   0  0  2  0  0  0  0  0  0  0  0  0
    9.7462  -16.0647   25.1371 N   0  0  0  0  0  0  0  0  0  0  0  0
    9.8534  -16.4656   27.4321 C   0  0  0  0  0  0  0  0  0  0  0  0
   10.0730  -15.2421   27.5401 O   0  0  0  0  0  0  0  0  0  0  0  0
    9.6315  -17.1406   28.6213 O   0  0  0  0  0  0  0  0  0  0  0  0
  2  3  1  0
  2  1  1  1
  3  4  1  0
  5  4  1  0
  6  5  1  0
  7  6  1  0
  8  9  2  0
  8  2  1  0
 10 11  1  0
 11 21  2  0
 12 11  1  0
 12 13  2  0
 13 14  1  0
 14 20  2  0
 14 15  1  0
 16 15  1  1
 16 17  1  0
 17  8  1  0
 18 19  2  0
 18 16  1  0
 21 20  1  0
 23 24  2  0
 23 22  1  0
 25 23  1  0
 26 25  1  0
 27 26  1  0
 28 27  1  0
 29 28  1  6
 29 30  1  0
 30 18  1  0
 31 29  1  0
 32 31  2  0
 33 31  1  0
M  END
$$$$
