KYR.pdb
     RDKit          3D

 33 33  0  0  1  0  0  0  0  0999 V2000
    8.7463  -18.6397   20.3251 N   0  0  0  0  0  0  0  0  0  0  0  0
    9.9416  -17.8713   20.1120 C   0  0  1  0  0  0  0  0  0  0  0  0
   10.0805  -17.4891   18.6880 C   0  0  0  0  0  0  0  0  0  0  0  0
    9.4564  -18.4550   17.7476 C   0  0  0  0  0  0  0  0  0  0  0  0
   10.2884  -18.8735   16.5832 C   0  0  0  0  0  0  0  0  0  0  0  0
    9.4449  -19.6692   15.5761 C   0  0  0  0  0  0  0  0  0  0  0  0
   10.2941  -19.9321   14.4164 N   0  0  0  0  0  0  0  0  0  0  0  0
    9.9701  -16.6854   21.0264 C   0  0  0  0  0  0  0  0  0  0  0  0
   11.0043  -15.9849   21.0479 O   0  0  0  0  0  0  0  0  0  0  0  0
    6.1889  -11.1993   27.0893 O   0  0  0  0  0  0  0  0  0  0  0  0
    6.5427  -12.0918   26.0906 C   0  0  0  0  0  0  0  0  0  0  0  0
    7.1504  -11.6558   24.9458 C   0  0  0  0  0  0  0  0  0  0  0  0
    7.4683  -12.6157   24.0017 C   0  0  0  0  0  0  0  0  0  0  0  0
    7.2034  -13.9594   24.1657 C   0  0  0  0  0  0  0  0  0  0  0  0
    7.5180  -14.9236   23.1293 C   0  0  0  0  0  0  0  0  0  0  0  0
    8.9258  -15.2504   22.8469 C   0  0  2  0  0  0  0  0  0  0  0  0
    8.8687  -16.3574   21.8450 N   0  0  0  0  0  0  0  0  0  0  0  0
    9.8156  -15.6341   23.9308 C   0  0  0  0  0  0  0  0  0  0  0  0
   10.3377  -14.7303   24.7054 O   0  0  0  0  0  0  0  0  0  0  0  0
    6.5929  -14.3482   25.3308 C   0  0  0  0  0  0  0  0  0  0  0  0
    6.2600  -13.4165   26.2976 C   0  0  0  0  0  0  0  0  0  0  0  0
   12.3973  -19.4603   30.2821 N   0  0  0  0  0  0  0  0  0  0  0  0
   11.0805  -19.9598   30.4305 C   0  0  0  0  0  0  0  0  0  0  0  0
   10.7718  -20.5915   31.4989 N   0  0  0  0  0  0  0  0  0  0  0  0
   10.1082  -19.7767   29.4281 N   0  0  0  0  0  0  0  0  0  0  0  0
   10.3946  -20.0213   28.0034 C   0  0  0  0  0  0  0  0  0  0  0  0
   11.0409  -18.8478   27.3849 C   0  0  0  0  0  0  0  0  0  0  0  0
   10.4791  -18.2072   26.2114 C   0  0  0  0  0  0  0  0  0  0  0  0
   11.1693  -17.1704   25.3993 C   0  0  2  0  0  0  0  0  0  0  0  0
   10.1951  -16.9473   24.2628 N   0  0  0  0  0  0  0  0  0  0  0  0
   12.3796  -17.6268   24.7162 C   0  0  0  0  0  0  0  0  0  0  0  0
   12.3768  -18.2659   23.6446 O   0  0  0  0  0  0  0  0  0  0  0  0
   13.6300  -17.3563   25.2478 O   0  0  0  0  0  0  0  0  0  0  0  0
  2  3  1  0
  2  1  1  6
  3  4  1  0
  5  4  1  0
  6  5  1  0
  7  6  1  0
  8  9  2  0
  8  2  1  0
 10 11  1  0
 11 21  2  0
 12 11  1  0
 12 13  2  0
 13 14  1  0
 14 20  2  0
 14 15  1  0
 16 15  1  1
 16 17  1  0
 17  8  1  0
 18 19  2  0
 18 16  1  0
 21 20  1  0
 23 24  2  0
 23 22  1  0
 25 23  1  0
 26 25  1  0
 27 26  1  0
 28 27  1  0
 29 28  1  1
 29 30  1  0
 30 18  1  0
 31 29  1  0
 32 31  2  0
 33 31  1  0
M  END
$$$$
