KYR.pdb
     RDKit          3D

 33 33  0  0  1  0  0  0  0  0999 V2000
    9.7450  -20.6352   27.9612 N   0  0  0  0  0  0  0  0  0  0  0  0
   10.1941  -19.5233   27.1697 C   0  0  1  0  0  0  0  0  0  0  0  0
   10.8746  -19.9879   25.9392 C   0  0  0  0  0  0  0  0  0  0  0  0
   10.6851  -21.4351   25.6629 C   0  0  0  0  0  0  0  0  0  0  0  0
   11.4143  -21.9826   24.4832 C   0  0  0  0  0  0  0  0  0  0  0  0
   11.2261  -23.5041   24.3915 C   0  0  0  0  0  0  0  0  0  0  0  0
   12.0025  -23.9653   23.2428 N   0  0  0  0  0  0  0  0  0  0  0  0
    9.0544  -18.5969   26.8762 C   0  0  0  0  0  0  0  0  0  0  0  0
    7.9057  -19.0829   26.8053 O   0  0  0  0  0  0  0  0  0  0  0  0
    5.2463  -10.5910   25.7917 O   0  0  0  0  0  0  0  0  0  0  0  0
    6.1319  -11.6489   25.9158 C   0  0  0  0  0  0  0  0  0  0  0  0
    7.2083  -11.7620   25.0801 C   0  0  0  0  0  0  0  0  0  0  0  0
    8.0403  -12.8500   25.2752 C   0  0  0  0  0  0  0  0  0  0  0  0
    7.8319  -13.7996   26.2537 C   0  0  0  0  0  0  0  0  0  0  0  0
    8.7090  -14.9459   26.3932 C   0  0  0  0  0  0  0  0  0  0  0  0
    8.1567  -16.3031   26.2467 C   0  0  2  0  0  0  0  0  0  0  0  0
    9.2576  -17.2141   26.6832 N   0  0  0  0  0  0  0  0  0  0  0  0
    7.6523  -16.7485   24.9579 C   0  0  0  0  0  0  0  0  0  0  0  0
    6.3933  -16.6173   24.6625 O   0  0  0  0  0  0  0  0  0  0  0  0
    6.7390  -13.6430   27.0675 C   0  0  0  0  0  0  0  0  0  0  0  0
    5.8847  -12.5676   26.9020 C   0  0  0  0  0  0  0  0  0  0  0  0
    8.0446  -12.8200   18.2098 N   0  0  0  0  0  0  0  0  0  0  0  0
    8.5735  -12.4807   19.4789 C   0  0  0  0  0  0  0  0  0  0  0  0
    9.4289  -11.5335   19.5630 N   0  0  0  0  0  0  0  0  0  0  0  0
    8.1789  -13.1637   20.6456 N   0  0  0  0  0  0  0  0  0  0  0  0
    6.9810  -14.0212   20.6854 C   0  0  0  0  0  0  0  0  0  0  0  0
    7.3493  -15.4349   20.8931 C   0  0  0  0  0  0  0  0  0  0  0  0
    7.6003  -15.9629   22.2202 C   0  0  0  0  0  0  0  0  0  0  0  0
    7.8416  -17.3969   22.5304 C   0  0  2  0  0  0  0  0  0  0  0  0
    8.4136  -17.3340   23.9301 N   0  0  0  0  0  0  0  0  0  0  0  0
    8.9156  -18.0225   21.7591 C   0  0  0  0  0  0  0  0  0  0  0  0
    8.8045  -18.3744   20.5672 O   0  0  0  0  0  0  0  0  0  0  0  0
   10.1513  -18.2576   22.3394 O   0  0  0  0  0  0  0  0  0  0  0  0
  2  3  1  0
  2  1  1  6
  3  4  1  0
  5  4  1  0
  6  5  1  0
  7  6  1  0
  8  9  2  0
  8  2  1  0
 10 11  1  0
 11 21  2  0
 12 11  1  0
 12 13  2  0
 13 14  1  0
 14 20  2  0
 14 15  1  0
 16 15  1  6
 16 17  1  0
 17  8  1  0
 18 19  2  0
 18 16  1  0
 21 20  1  0
 23 24  2  0
 23 22  1  0
 25 23  1  0
 26 25  1  0
 27 26  1  0
 28 27  1  0
 29 28  1  6
 29 30  1  0
 30 18  1  0
 31 29  1  0
 32 31  2  0
 33 31  1  0
M  END
$$$$
