KYR.pdb
     RDKit          3D

 33 33  0  0  1  0  0  0  0  0999 V2000
    7.0326  -15.6560   19.9283 N   0  0  0  0  0  0  0  0  0  0  0  0
    8.2552  -14.9012   19.9291 C   0  0  1  0  0  0  0  0  0  0  0  0
    8.0385  -13.5385   19.3913 C   0  0  0  0  0  0  0  0  0  0  0  0
    7.3716  -13.5202   18.0640 C   0  0  0  0  0  0  0  0  0  0  0  0
    8.2682  -13.5819   16.8742 C   0  0  0  0  0  0  0  0  0  0  0  0
    7.4490  -13.5061   15.5773 C   0  0  0  0  0  0  0  0  0  0  0  0
    7.8333  -12.2713   14.8972 N   0  0  0  0  0  0  0  0  0  0  0  0
    8.8576  -14.8842   21.3003 C   0  0  0  0  0  0  0  0  0  0  0  0
    9.9532  -14.3038   21.4535 O   0  0  0  0  0  0  0  0  0  0  0  0
    5.7893  -10.4811   26.7316 O   0  0  0  0  0  0  0  0  0  0  0  0
    6.1990  -11.6877   26.1882 C   0  0  0  0  0  0  0  0  0  0  0  0
    5.3839  -12.3863   25.3412 C   0  0  0  0  0  0  0  0  0  0  0  0
    5.8736  -13.5816   24.8458 C   0  0  0  0  0  0  0  0  0  0  0  0
    7.1186  -14.0827   25.1644 C   0  0  0  0  0  0  0  0  0  0  0  0
    7.5720  -15.3614   24.6526 C   0  0  0  0  0  0  0  0  0  0  0  0
    8.7607  -15.4143   23.7850 C   0  0  2  0  0  0  0  0  0  0  0  0
    8.2176  -15.5017   22.3957 N   0  0  0  0  0  0  0  0  0  0  0  0
    9.7545  -16.4584   23.9747 C   0  0  0  0  0  0  0  0  0  0  0  0
    9.4904  -17.6870   23.6425 O   0  0  0  0  0  0  0  0  0  0  0  0
    7.8997  -13.3459   26.0177 C   0  0  0  0  0  0  0  0  0  0  0  0
    7.4435  -12.1460   26.5331 C   0  0  0  0  0  0  0  0  0  0  0  0
   18.5188  -16.0795   23.0333 N   0  0  0  0  0  0  0  0  0  0  0  0
   18.2341  -17.4220   23.3824 C   0  0  0  0  0  0  0  0  0  0  0  0
   19.1913  -18.2692   23.4277 N   0  0  0  0  0  0  0  0  0  0  0  0
   16.9226  -17.8418   23.6785 N   0  0  0  0  0  0  0  0  0  0  0  0
   15.7670  -16.9327   23.5798 C   0  0  0  0  0  0  0  0  0  0  0  0
   14.5362  -17.5875   24.0636 C   0  0  0  0  0  0  0  0  0  0  0  0
   13.2662  -16.8877   24.0833 C   0  0  0  0  0  0  0  0  0  0  0  0
   11.9857  -17.4685   24.5668 C   0  0  2  0  0  0  0  0  0  0  0  0
   11.0470  -16.2831   24.5013 N   0  0  0  0  0  0  0  0  0  0  0  0
   11.9686  -17.8293   25.9843 C   0  0  0  0  0  0  0  0  0  0  0  0
   11.5768  -17.0692   26.8928 O   0  0  0  0  0  0  0  0  0  0  0  0
   12.4003  -19.0799   26.3954 O   0  0  0  0  0  0  0  0  0  0  0  0
  2  3  1  0
  2  1  1  1
  3  4  1  0
  5  4  1  0
  6  5  1  0
  7  6  1  0
  8  9  2  0
  8  2  1  0
 10 11  1  0
 11 21  2  0
 12 11  1  0
 12 13  2  0
 13 14  1  0
 14 20  2  0
 14 15  1  0
 16 15  1  1
 16 17  1  0
 17  8  1  0
 18 19  2  0
 18 16  1  0
 21 20  1  0
 23 24  2  0
 23 22  1  0
 25 23  1  0
 26 25  1  0
 27 26  1  0
 28 27  1  0
 29 28  1  1
 29 30  1  0
 30 18  1  0
 31 29  1  0
 32 31  2  0
 33 31  1  0
M  END
$$$$
