KYR.pdb
     RDKit          3D

 33 33  0  0  1  0  0  0  0  0999 V2000
    7.9021  -20.1962   26.4043 N   0  0  0  0  0  0  0  0  0  0  0  0
    7.1614  -20.1580   25.1738 C   0  0  1  0  0  0  0  0  0  0  0  0
    5.8483  -20.8263   25.3233 C   0  0  0  0  0  0  0  0  0  0  0  0
    5.9471  -22.2496   25.7370 C   0  0  0  0  0  0  0  0  0  0  0  0
    4.6569  -22.9645   25.9549 C   0  0  0  0  0  0  0  0  0  0  0  0
    4.9110  -24.4055   26.4216 C   0  0  0  0  0  0  0  0  0  0  0  0
    3.6051  -25.0276   26.6277 N   0  0  0  0  0  0  0  0  0  0  0  0
    7.0315  -18.7479   24.6859 C   0  0  0  0  0  0  0  0  0  0  0  0
    6.3798  -18.5460   23.6394 O   0  0  0  0  0  0  0  0  0  0  0  0
   11.1704  -14.7949   29.9784 O   0  0  0  0  0  0  0  0  0  0  0  0
   10.1933  -14.9851   29.0150 C   0  0  0  0  0  0  0  0  0  0  0  0
    9.4820  -16.1516   28.9607 C   0  0  0  0  0  0  0  0  0  0  0  0
    8.5260  -16.2558   27.9661 C   0  0  0  0  0  0  0  0  0  0  0  0
    8.2694  -15.2557   27.0516 C   0  0  0  0  0  0  0  0  0  0  0  0
    7.2854  -15.4273   26.0004 C   0  0  0  0  0  0  0  0  0  0  0  0
    7.6051  -16.2758   24.8401 C   0  0  2  0  0  0  0  0  0  0  0  0
    7.6228  -17.6697   25.3778 N   0  0  0  0  0  0  0  0  0  0  0  0
    8.8229  -16.0423   24.0810 C   0  0  0  0  0  0  0  0  0  0  0  0
    9.9032  -16.7148   24.3461 O   0  0  0  0  0  0  0  0  0  0  0  0
    9.0085  -14.1042   27.1464 C   0  0  0  0  0  0  0  0  0  0  0  0
    9.9732  -13.9641   28.1279 C   0  0  0  0  0  0  0  0  0  0  0  0
    6.9708  -12.2083   16.2369 N   0  0  0  0  0  0  0  0  0  0  0  0
    7.4532  -13.5215   16.0169 C   0  0  0  0  0  0  0  0  0  0  0  0
    7.2776  -14.0649   14.8724 N   0  0  0  0  0  0  0  0  0  0  0  0
    8.1189  -14.2388   17.0298 N   0  0  0  0  0  0  0  0  0  0  0  0
    8.0841  -13.8178   18.4416 C   0  0  0  0  0  0  0  0  0  0  0  0
    8.8147  -14.7731   19.2965 C   0  0  0  0  0  0  0  0  0  0  0  0
    8.7911  -14.6636   20.7424 C   0  0  0  0  0  0  0  0  0  0  0  0
    9.4434  -15.6199   21.6757 C   0  0  2  0  0  0  0  0  0  0  0  0
    8.9763  -15.1236   23.0269 N   0  0  0  0  0  0  0  0  0  0  0  0
   10.8988  -15.5019   21.7619 C   0  0  0  0  0  0  0  0  0  0  0  0
   11.6961  -16.2491   21.1596 O   0  0  0  0  0  0  0  0  0  0  0  0
   11.4779  -14.5155   22.5435 O   0  0  0  0  0  0  0  0  0  0  0  0
  2  3  1  0
  2  1  1  1
  3  4  1  0
  5  4  1  0
  6  5  1  0
  7  6  1  0
  8  9  2  0
  8  2  1  0
 10 11  1  0
 11 21  2  0
 12 11  1  0
 12 13  2  0
 13 14  1  0
 14 20  2  0
 14 15  1  0
 16 15  1  1
 16 17  1  0
 17  8  1  0
 18 19  2  0
 18 16  1  0
 21 20  1  0
 23 24  2  0
 23 22  1  0
 25 23  1  0
 26 25  1  0
 27 26  1  0
 28 27  1  0
 29 28  1  6
 29 30  1  0
 30 18  1  0
 31 29  1  0
 32 31  2  0
 33 31  1  0
M  END
$$$$
