KYR.pdb
     RDKit          3D

 33 33  0  0  1  0  0  0  0  0999 V2000
    7.8218  -16.7752   18.8651 N   0  0  0  0  0  0  0  0  0  0  0  0
    8.9864  -15.9337   18.8782 C   0  0  1  0  0  0  0  0  0  0  0  0
    8.9507  -14.9601   17.7629 C   0  0  0  0  0  0  0  0  0  0  0  0
    8.6071  -15.5677   16.4516 C   0  0  0  0  0  0  0  0  0  0  0  0
    9.6531  -15.4861   15.3922 C   0  0  0  0  0  0  0  0  0  0  0  0
    9.0764  -15.9045   14.0316 C   0  0  0  0  0  0  0  0  0  0  0  0
   10.1756  -15.8706   13.0695 N   0  0  0  0  0  0  0  0  0  0  0  0
    9.1350  -15.2683   20.2118 C   0  0  0  0  0  0  0  0  0  0  0  0
   10.1726  -14.6062   20.4256 O   0  0  0  0  0  0  0  0  0  0  0  0
    6.4947  -12.2779   28.2065 O   0  0  0  0  0  0  0  0  0  0  0  0
    6.6879  -12.7244   26.9095 C   0  0  0  0  0  0  0  0  0  0  0  0
    7.3189  -11.9383   25.9855 C   0  0  0  0  0  0  0  0  0  0  0  0
    7.4684  -12.4639   24.7145 C   0  0  0  0  0  0  0  0  0  0  0  0
    7.0179  -13.7164   24.3528 C   0  0  0  0  0  0  0  0  0  0  0  0
    7.1609  -14.2081   22.9961 C   0  0  0  0  0  0  0  0  0  0  0  0
    8.3775  -14.9462   22.6173 C   0  0  2  0  0  0  0  0  0  0  0  0
    8.1404  -15.3777   21.2066 N   0  0  0  0  0  0  0  0  0  0  0  0
    8.8066  -16.0933   23.4008 C   0  0  0  0  0  0  0  0  0  0  0  0
    8.5421  -17.3010   22.9994 O   0  0  0  0  0  0  0  0  0  0  0  0
    6.3915  -14.4676   25.3142 C   0  0  0  0  0  0  0  0  0  0  0  0
    6.2237  -13.9751   26.5960 C   0  0  0  0  0  0  0  0  0  0  0  0
   15.5440  -19.4275   21.3389 N   0  0  0  0  0  0  0  0  0  0  0  0
   15.3280  -20.0968   22.5680 C   0  0  0  0  0  0  0  0  0  0  0  0
   16.0264  -21.1324   22.8433 N   0  0  0  0  0  0  0  0  0  0  0  0
   14.3621  -19.6475   23.4892 N   0  0  0  0  0  0  0  0  0  0  0  0
   13.4112  -18.5693   23.1655 C   0  0  0  0  0  0  0  0  0  0  0  0
   12.4101  -18.4075   24.2374 C   0  0  0  0  0  0  0  0  0  0  0  0
   11.3342  -17.4415   24.1265 C   0  0  0  0  0  0  0  0  0  0  0  0
   10.2236  -17.2935   25.1040 C   0  0  2  0  0  0  0  0  0  0  0  0
    9.5220  -16.0464   24.6110 N   0  0  0  0  0  0  0  0  0  0  0  0
   10.6387  -16.9292   26.4584 C   0  0  0  0  0  0  0  0  0  0  0  0
   10.9579  -17.7564   27.3364 O   0  0  0  0  0  0  0  0  0  0  0  0
   10.7012  -15.5987   26.8395 O   0  0  0  0  0  0  0  0  0  0  0  0
  2  3  1  0
  2  1  1  1
  3  4  1  0
  5  4  1  0
  6  5  1  0
  7  6  1  0
  8  9  2  0
  8  2  1  0
 10 11  1  0
 11 21  2  0
 12 11  1  0
 12 13  2  0
 13 14  1  0
 14 20  2  0
 14 15  1  0
 16 15  1  1
 16 17  1  0
 17  8  1  0
 18 19  2  0
 18 16  1  0
 21 20  1  0
 23 24  2  0
 23 22  1  0
 25 23  1  0
 26 25  1  0
 27 26  1  0
 28 27  1  0
 29 28  1  6
 29 30  1  0
 30 18  1  0
 31 29  1  0
 32 31  2  0
 33 31  1  0
M  END
$$$$
