KYR.pdb
     RDKit          3D

 33 33  0  0  1  0  0  0  0  0999 V2000
    5.0827  -20.3722   21.5597 N   0  0  0  0  0  0  0  0  0  0  0  0
    5.6819  -20.1779   22.8510 C   0  0  1  0  0  0  0  0  0  0  0  0
    6.6726  -21.2395   23.1420 C   0  0  0  0  0  0  0  0  0  0  0  0
    6.2792  -22.5783   22.6325 C   0  0  0  0  0  0  0  0  0  0  0  0
    7.1869  -23.7092   22.9795 C   0  0  0  0  0  0  0  0  0  0  0  0
    6.6050  -25.0402   22.4808 C   0  0  0  0  0  0  0  0  0  0  0  0
    7.5725  -26.0838   22.8119 N   0  0  0  0  0  0  0  0  0  0  0  0
    6.2711  -18.8046   22.9522 C   0  0  0  0  0  0  0  0  0  0  0  0
    6.7219  -18.2806   21.9115 O   0  0  0  0  0  0  0  0  0  0  0  0
    8.0231  -11.1808   27.4011 O   0  0  0  0  0  0  0  0  0  0  0  0
    7.5845  -12.3912   26.8896 C   0  0  0  0  0  0  0  0  0  0  0  0
    6.7078  -12.4311   25.8411 C   0  0  0  0  0  0  0  0  0  0  0  0
    6.3228  -13.6827   25.3947 C   0  0  0  0  0  0  0  0  0  0  0  0
    6.7768  -14.8603   25.9513 C   0  0  0  0  0  0  0  0  0  0  0  0
    6.3125  -16.1491   25.4757 C   0  0  0  0  0  0  0  0  0  0  0  0
    6.9612  -16.7669   24.3070 C   0  0  2  0  0  0  0  0  0  0  0  0
    6.3222  -18.1116   24.1801 N   0  0  0  0  0  0  0  0  0  0  0  0
    8.4065  -16.9210   24.2735 C   0  0  0  0  0  0  0  0  0  0  0  0
    8.9848  -17.8590   24.9629 O   0  0  0  0  0  0  0  0  0  0  0  0
    7.6551  -14.7689   27.0007 C   0  0  0  0  0  0  0  0  0  0  0  0
    8.0624  -13.5347   27.4742 C   0  0  0  0  0  0  0  0  0  0  0  0
    7.2985  -14.5093   19.2861 N   0  0  0  0  0  0  0  0  0  0  0  0
    8.2986  -13.5069   19.3017 C   0  0  0  0  0  0  0  0  0  0  0  0
    7.9838  -12.3094   18.9810 N   0  0  0  0  0  0  0  0  0  0  0  0
    9.6283  -13.8014   19.6607 N   0  0  0  0  0  0  0  0  0  0  0  0
   10.0469  -15.1504   20.0810 C   0  0  0  0  0  0  0  0  0  0  0  0
   10.8383  -15.0949   21.3252 C   0  0  0  0  0  0  0  0  0  0  0  0
   11.1335  -16.2933   22.0865 C   0  0  0  0  0  0  0  0  0  0  0  0
   10.7721  -16.5015   23.5137 C   0  0  2  0  0  0  0  0  0  0  0  0
    9.3049  -16.1307   23.5339 N   0  0  0  0  0  0  0  0  0  0  0  0
   11.3701  -15.5468   24.4469 C   0  0  0  0  0  0  0  0  0  0  0  0
   10.7604  -14.5742   24.9358 O   0  0  0  0  0  0  0  0  0  0  0  0
   12.6890  -15.6880   24.8464 O   0  0  0  0  0  0  0  0  0  0  0  0
  2  3  1  0
  2  1  1  6
  3  4  1  0
  5  4  1  0
  6  5  1  0
  7  6  1  0
  8  9  2  0
  8  2  1  0
 10 11  1  0
 11 21  2  0
 12 11  1  0
 12 13  2  0
 13 14  1  0
 14 20  2  0
 14 15  1  0
 16 15  1  1
 16 17  1  0
 17  8  1  0
 18 19  2  0
 18 16  1  0
 21 20  1  0
 23 24  2  0
 23 22  1  0
 25 23  1  0
 26 25  1  0
 27 26  1  0
 28 27  1  0
 29 28  1  6
 29 30  1  0
 30 18  1  0
 31 29  1  0
 32 31  2  0
 33 31  1  0
M  END
$$$$
