KYR.pdb
     RDKit          3D

 33 33  0  0  1  0  0  0  0  0999 V2000
    7.2795  -16.3041   18.6023 N   0  0  0  0  0  0  0  0  0  0  0  0
    8.4350  -15.4518   18.5486 C   0  0  1  0  0  0  0  0  0  0  0  0
    8.2204  -14.3244   17.6126 C   0  0  0  0  0  0  0  0  0  0  0  0
    7.8939  -14.7526   16.2281 C   0  0  0  0  0  0  0  0  0  0  0  0
    8.0830  -13.7301   15.1594 C   0  0  0  0  0  0  0  0  0  0  0  0
    7.6936  -14.3042   13.7891 C   0  0  0  0  0  0  0  0  0  0  0  0
    7.9284  -13.2543   12.8003 N   0  0  0  0  0  0  0  0  0  0  0  0
    8.8069  -14.9888   19.9236 C   0  0  0  0  0  0  0  0  0  0  0  0
    9.9268  -14.4582   20.0819 O   0  0  0  0  0  0  0  0  0  0  0  0
    6.8915  -12.5294   28.3224 O   0  0  0  0  0  0  0  0  0  0  0  0
    6.9686  -12.8825   26.9851 C   0  0  0  0  0  0  0  0  0  0  0  0
    7.4318  -11.9957   26.0529 C   0  0  0  0  0  0  0  0  0  0  0  0
    7.4745  -12.4324   24.7409 C   0  0  0  0  0  0  0  0  0  0  0  0
    7.0787  -13.6937   24.3470 C   0  0  0  0  0  0  0  0  0  0  0  0
    7.1027  -14.0922   22.9529 C   0  0  0  0  0  0  0  0  0  0  0  0
    8.3083  -14.7350   22.4037 C   0  0  2  0  0  0  0  0  0  0  0  0
    7.9282  -15.1412   21.0170 N   0  0  0  0  0  0  0  0  0  0  0  0
    8.9025  -15.8722   23.0874 C   0  0  0  0  0  0  0  0  0  0  0  0
    8.3838  -17.0579   22.9663 O   0  0  0  0  0  0  0  0  0  0  0  0
    6.6217  -14.5476   25.3182 C   0  0  0  0  0  0  0  0  0  0  0  0
    6.5647  -14.1458   26.6407 C   0  0  0  0  0  0  0  0  0  0  0  0
   15.8117  -17.8455   21.4557 N   0  0  0  0  0  0  0  0  0  0  0  0
   15.4802  -19.0893   22.0460 C   0  0  0  0  0  0  0  0  0  0  0  0
   15.8017  -20.1698   21.4418 N   0  0  0  0  0  0  0  0  0  0  0  0
   14.8048  -19.1599   23.2799 N   0  0  0  0  0  0  0  0  0  0  0  0
   14.4080  -17.9533   24.0272 C   0  0  0  0  0  0  0  0  0  0  0  0
   13.0109  -18.0542   24.4912 C   0  0  0  0  0  0  0  0  0  0  0  0
   11.9996  -17.1118   24.0529 C   0  0  0  0  0  0  0  0  0  0  0  0
   10.5775  -17.1315   24.4866 C   0  0  2  0  0  0  0  0  0  0  0  0
   10.0443  -15.8386   23.9084 N   0  0  0  0  0  0  0  0  0  0  0  0
   10.3690  -16.9646   25.9248 C   0  0  0  0  0  0  0  0  0  0  0  0
   10.0059  -15.8964   26.4575 O   0  0  0  0  0  0  0  0  0  0  0  0
   10.5703  -18.0268   26.7911 O   0  0  0  0  0  0  0  0  0  0  0  0
  2  3  1  0
  2  1  1  1
  3  4  1  0
  5  4  1  0
  6  5  1  0
  7  6  1  0
  8  9  2  0
  8  2  1  0
 10 11  1  0
 11 21  2  0
 12 11  1  0
 12 13  2  0
 13 14  1  0
 14 20  2  0
 14 15  1  0
 16 15  1  1
 16 17  1  0
 17  8  1  0
 18 19  2  0
 18 16  1  0
 21 20  1  0
 23 24  2  0
 23 22  1  0
 25 23  1  0
 26 25  1  0
 27 26  1  0
 28 27  1  0
 29 28  1  1
 29 30  1  0
 30 18  1  0
 31 29  1  0
 32 31  2  0
 33 31  1  0
M  END
$$$$
