KYR.pdb
     RDKit          3D

 33 33  0  0  1  0  0  0  0  0999 V2000
    8.6489  -17.5648   20.0944 N   0  0  0  0  0  0  0  0  0  0  0  0
    9.9851  -17.1935   20.4704 C   0  0  1  0  0  0  0  0  0  0  0  0
   10.7115  -16.5945   19.3273 C   0  0  0  0  0  0  0  0  0  0  0  0
   10.6117  -17.3881   18.0754 C   0  0  0  0  0  0  0  0  0  0  0  0
   11.7286  -17.2263   17.1010 C   0  0  0  0  0  0  0  0  0  0  0  0
   11.5523  -18.1857   15.9147 C   0  0  0  0  0  0  0  0  0  0  0  0
   12.7266  -18.0321   15.0589 N   0  0  0  0  0  0  0  0  0  0  0  0
    9.9596  -16.2915   21.6659 C   0  0  0  0  0  0  0  0  0  0  0  0
   11.0513  -15.9576   22.1732 O   0  0  0  0  0  0  0  0  0  0  0  0
    5.9407  -11.0500   27.7051 O   0  0  0  0  0  0  0  0  0  0  0  0
    6.2925  -11.8508   26.6308 C   0  0  0  0  0  0  0  0  0  0  0  0
    5.7625  -13.1033   26.4886 C   0  0  0  0  0  0  0  0  0  0  0  0
    6.1698  -13.8335   25.3865 C   0  0  0  0  0  0  0  0  0  0  0  0
    7.0656  -13.3601   24.4505 C   0  0  0  0  0  0  0  0  0  0  0  0
    7.4944  -14.1789   23.3332 C   0  0  0  0  0  0  0  0  0  0  0  0
    8.7000  -15.0138   23.4672 C   0  0  2  0  0  0  0  0  0  0  0  0
    8.7457  -15.8252   22.2134 N   0  0  0  0  0  0  0  0  0  0  0  0
    8.8501  -15.8971   24.6122 C   0  0  0  0  0  0  0  0  0  0  0  0
    9.1836  -15.4186   25.7738 O   0  0  0  0  0  0  0  0  0  0  0  0
    7.5695  -12.0980   24.6360 C   0  0  0  0  0  0  0  0  0  0  0  0
    7.1854  -11.3384   25.7265 C   0  0  0  0  0  0  0  0  0  0  0  0
    5.0011  -23.4039   27.4595 N   0  0  0  0  0  0  0  0  0  0  0  0
    5.8519  -22.7493   28.3831 C   0  0  0  0  0  0  0  0  0  0  0  0
    5.6300  -22.8827   29.6356 N   0  0  0  0  0  0  0  0  0  0  0  0
    6.9328  -21.9562   27.9514 N   0  0  0  0  0  0  0  0  0  0  0  0
    7.0074  -21.4083   26.5855 C   0  0  0  0  0  0  0  0  0  0  0  0
    8.1826  -20.5293   26.4317 C   0  0  0  0  0  0  0  0  0  0  0  0
    8.1369  -19.3471   25.5929 C   0  0  0  0  0  0  0  0  0  0  0  0
    8.8084  -18.0583   25.9072 C   0  0  2  0  0  0  0  0  0  0  0  0
    8.6593  -17.2908   24.6114 N   0  0  0  0  0  0  0  0  0  0  0  0
   10.2585  -18.1442   26.0789 C   0  0  0  0  0  0  0  0  0  0  0  0
   10.8250  -18.2436   27.1861 O   0  0  0  0  0  0  0  0  0  0  0  0
   11.0983  -18.1215   24.9773 O   0  0  0  0  0  0  0  0  0  0  0  0
  2  3  1  0
  2  1  1  6
  3  4  1  0
  5  4  1  0
  6  5  1  0
  7  6  1  0
  8  9  2  0
  8  2  1  0
 10 11  1  0
 11 21  2  0
 12 11  1  0
 12 13  2  0
 13 14  1  0
 14 20  2  0
 14 15  1  0
 16 15  1  1
 16 17  1  0
 17  8  1  0
 18 19  2  0
 18 16  1  0
 21 20  1  0
 23 24  2  0
 23 22  1  0
 25 23  1  0
 26 25  1  0
 27 26  1  0
 28 27  1  0
 29 28  1  6
 29 30  1  0
 30 18  1  0
 31 29  1  0
 32 31  2  0
 33 31  1  0
M  END
$$$$
