PIK.pdb
     RDKit          3D

 25 25  0  0  1  0  0  0  0  0999 V2000
   27.9984  -22.1873  -18.0125 N   0  0  0  0  0  0  0  0  0  0  0  0
   29.3109  -22.4196  -18.5430 C   0  0  0  0  0  0  0  0  0  0  0  0
   30.0004  -23.3789  -17.5871 C   0  0  0  0  0  0  0  0  0  0  0  0
   29.3256  -23.0277  -16.2780 C   0  0  0  0  0  0  0  0  0  0  0  0
   27.9037  -22.8021  -16.7285 C   0  0  1  0  0  0  0  0  0  0  0  0
   27.1372  -21.9871  -15.7497 C   0  0  0  0  0  0  0  0  0  0  0  0
   27.0813  -22.3860  -14.5667 O   0  0  0  0  0  0  0  0  0  0  0  0
   27.8452  -16.7623  -15.8448 C   0  0  0  0  0  0  0  0  0  0  0  0
   27.5058  -18.1508  -15.4298 C   0  0  0  0  0  0  0  0  0  0  0  0
   26.0611  -18.5077  -15.4573 C   0  0  2  0  0  0  0  0  0  0  0  0
   25.3030  -17.5719  -14.5366 C   0  0  0  0  0  0  0  0  0  0  0  0
   25.7586  -19.9435  -15.1721 C   0  0  2  0  0  0  0  0  0  0  0  0
   26.4779  -20.7873  -16.1193 N   0  0  0  0  0  0  0  0  0  0  0  0
   24.3149  -20.2571  -15.2609 C   0  0  0  0  0  0  0  0  0  0  0  0
   23.7235  -20.3386  -16.3769 O   0  0  0  0  0  0  0  0  0  0  0  0
   23.5802  -20.4696  -14.0916 N   0  0  0  0  0  0  0  0  0  0  0  0
   22.1105  -20.8618  -14.2606 C   0  0  1  0  0  0  0  0  0  0  0  0
   21.7927  -21.6868  -13.0638 C   0  0  0  0  0  0  0  0  0  0  0  0
   20.5010  -22.3092  -12.8833 C   0  0  0  0  0  0  0  0  0  0  0  0
   20.2063  -23.0699  -11.6543 C   0  0  0  0  0  0  0  0  0  0  0  0
   18.7198  -23.5447  -11.6701 C   0  0  0  0  0  0  0  0  0  0  0  0
   18.4131  -24.2962  -10.4914 N   0  0  0  0  0  0  0  0  0  0  0  0
   21.4663  -19.5221  -14.2987 C   0  0  0  0  0  0  0  0  0  0  0  0
   20.2858  -19.1901  -14.9028 O   0  0  0  0  0  0  0  0  0  0  0  0
   22.0454  -18.5256  -13.7174 O   0  0  0  0  0  0  0  0  0  0  0  0
  1  5  1  0
  2  3  1  0
  2  1  1  0
  3  4  1  0
  4  5  1  0
  5  6  1  1
  7  6  2  0
  9  8  1  0
 10  9  1  0
 10 11  1  1
 12 10  1  0
 12 13  1  6
 13  6  1  0
 14 15  2  0
 14 12  1  0
 16 14  1  0
 17 16  1  0
 17 18  1  1
 19 20  1  0
 19 18  1  0
 20 21  1  0
 21 22  1  0
 23 24  1  0
 23 17  1  0
 25 23  2  0
M  END
$$$$
