PIK.pdb
     RDKit          3D

 25 25  0  0  1  0  0  0  0  0999 V2000
   27.6757  -19.5261  -15.6380 N   0  0  0  0  0  0  0  0  0  0  0  0
   29.0684  -19.2747  -15.8724 C   0  0  0  0  0  0  0  0  0  0  0  0
   29.6852  -20.6026  -16.2801 C   0  0  0  0  0  0  0  0  0  0  0  0
   28.7921  -21.5808  -15.5466 C   0  0  0  0  0  0  0  0  0  0  0  0
   27.4408  -20.9314  -15.7137 C   0  0  1  0  0  0  0  0  0  0  0  0
   26.4675  -21.4128  -14.6984 C   0  0  0  0  0  0  0  0  0  0  0  0
   26.0889  -22.6020  -14.7629 O   0  0  0  0  0  0  0  0  0  0  0  0
   25.4647  -20.9822   -8.7830 C   0  0  0  0  0  0  0  0  0  0  0  0
   24.8450  -21.1641  -10.1240 C   0  0  0  0  0  0  0  0  0  0  0  0
   25.7000  -20.8192  -11.2925 C   0  0  2  0  0  0  0  0  0  0  0  0
   26.2175  -19.4041  -11.1260 C   0  0  0  0  0  0  0  0  0  0  0  0
   25.0618  -21.0306  -12.6277 C   0  0  2  0  0  0  0  0  0  0  0  0
   25.9659  -20.5695  -13.6749 N   0  0  0  0  0  0  0  0  0  0  0  0
   23.7719  -20.3188  -12.7692 C   0  0  0  0  0  0  0  0  0  0  0  0
   23.6757  -19.0754  -12.5533 O   0  0  0  0  0  0  0  0  0  0  0  0
   22.6292  -21.0274  -13.1493 N   0  0  0  0  0  0  0  0  0  0  0  0
   21.3692  -20.2061  -13.4321 C   0  0  1  0  0  0  0  0  0  0  0  0
   20.9170  -20.6474  -14.7793 C   0  0  0  0  0  0  0  0  0  0  0  0
   19.6749  -20.1891  -15.3587 C   0  0  0  0  0  0  0  0  0  0  0  0
   19.1897  -20.7619  -16.6285 C   0  0  0  0  0  0  0  0  0  0  0  0
   17.8296  -20.1043  -17.0196 C   0  0  0  0  0  0  0  0  0  0  0  0
   17.3896  -20.5683  -18.2999 N   0  0  0  0  0  0  0  0  0  0  0  0
   20.5011  -20.6273  -12.3006 C   0  0  0  0  0  0  0  0  0  0  0  0
   20.4966  -21.8401  -11.6700 O   0  0  0  0  0  0  0  0  0  0  0  0
   19.6347  -19.7966  -11.8256 O   0  0  0  0  0  0  0  0  0  0  0  0
  1  5  1  0
  2  3  1  0
  2  1  1  0
  3  4  1  0
  4  5  1  0
  5  6  1  1
  7  6  2  0
  9  8  1  0
 10  9  1  0
 10 11  1  1
 12 10  1  0
 12 13  1  6
 13  6  1  0
 14 15  2  0
 14 12  1  0
 16 14  1  0
 17 16  1  0
 17 18  1  6
 19 20  1  0
 19 18  1  0
 20 21  1  0
 21 22  1  0
 23 24  1  0
 23 17  1  0
 25 23  2  0
M  END
$$$$
