PIK.pdb
     RDKit          3D

 25 25  0  0  1  0  0  0  0  0999 V2000
   25.3421  -11.4975  -15.9353 N   0  0  0  0  0  0  0  0  0  0  0  0
   25.8430  -12.8290  -15.7512 C   0  0  0  0  0  0  0  0  0  0  0  0
   25.6409  -13.5539  -17.0716 C   0  0  0  0  0  0  0  0  0  0  0  0
   24.4223  -12.8398  -17.6171 C   0  0  0  0  0  0  0  0  0  0  0  0
   24.7061  -11.4153  -17.2099 C   0  0  1  0  0  0  0  0  0  0  0  0
   23.4700  -10.5900  -17.1897 C   0  0  0  0  0  0  0  0  0  0  0  0
   22.8539  -10.4256  -18.2646 O   0  0  0  0  0  0  0  0  0  0  0  0
   18.4667   -9.3890  -15.9901 C   0  0  0  0  0  0  0  0  0  0  0  0
   19.4495   -9.2913  -14.8765 C   0  0  0  0  0  0  0  0  0  0  0  0
   20.7495   -9.9848  -15.0879 C   0  0  2  0  0  0  0  0  0  0  0  0
   21.3316  -10.3652  -13.7408 C   0  0  0  0  0  0  0  0  0  0  0  0
   21.7321   -9.2424  -15.9351 C   0  0  2  0  0  0  0  0  0  0  0  0
   22.9802   -9.9938  -16.0001 N   0  0  0  0  0  0  0  0  0  0  0  0
   22.0236   -7.8843  -15.4241 C   0  0  0  0  0  0  0  0  0  0  0  0
   22.7610   -7.7031  -14.4115 O   0  0  0  0  0  0  0  0  0  0  0  0
   21.4768   -6.7712  -16.0677 N   0  0  0  0  0  0  0  0  0  0  0  0
   21.8561   -5.3965  -15.5123 C   0  0  1  0  0  0  0  0  0  0  0  0
   21.9327   -4.5083  -16.7037 C   0  0  0  0  0  0  0  0  0  0  0  0
   22.2064   -3.0940  -16.5886 C   0  0  0  0  0  0  0  0  0  0  0  0
   22.2563   -2.2448  -17.7937 C   0  0  0  0  0  0  0  0  0  0  0  0
   22.4442   -0.7516  -17.3810 C   0  0  0  0  0  0  0  0  0  0  0  0
   22.3976    0.1031  -18.5279 N   0  0  0  0  0  0  0  0  0  0  0  0
   20.7110   -5.1382  -14.5994 C   0  0  0  0  0  0  0  0  0  0  0  0
   20.7469   -4.5066  -13.3875 O   0  0  0  0  0  0  0  0  0  0  0  0
   19.5310   -5.5379  -14.9370 O   0  0  0  0  0  0  0  0  0  0  0  0
  1  5  1  0
  2  3  1  0
  2  1  1  0
  3  4  1  0
  4  5  1  0
  5  6  1  1
  7  6  2  0
  9  8  1  0
 10  9  1  0
 10 11  1  1
 12 10  1  0
 12 13  1  1
 13  6  1  0
 14 15  2  0
 14 12  1  0
 16 14  1  0
 17 16  1  0
 17 18  1  6
 19 20  1  0
 19 18  1  0
 20 21  1  0
 21 22  1  0
 23 24  1  0
 23 17  1  0
 25 23  2  0
M  END
$$$$
