PIK.pdb
     RDKit          3D

 25 25  0  0  1  0  0  0  0  0999 V2000
   27.6089  -19.2201  -14.9434 N   0  0  0  0  0  0  0  0  0  0  0  0
   29.0153  -18.9464  -15.0132 C   0  0  0  0  0  0  0  0  0  0  0  0
   29.6884  -20.2434  -15.4311 C   0  0  0  0  0  0  0  0  0  0  0  0
   28.7351  -21.2696  -14.8560 C   0  0  0  0  0  0  0  0  0  0  0  0
   27.4010  -20.6197  -15.1268 C   0  0  1  0  0  0  0  0  0  0  0  0
   26.3320  -21.1675  -14.2511 C   0  0  0  0  0  0  0  0  0  0  0  0
   25.9789  -22.3537  -14.4242 O   0  0  0  0  0  0  0  0  0  0  0  0
   26.6615  -20.5851   -9.0859 C   0  0  0  0  0  0  0  0  0  0  0  0
   26.2239  -21.1035  -10.4107 C   0  0  0  0  0  0  0  0  0  0  0  0
   24.9626  -20.5298  -10.9541 C   0  0  2  0  0  0  0  0  0  0  0  0
   23.8202  -20.8722  -10.0183 C   0  0  0  0  0  0  0  0  0  0  0  0
   24.6584  -20.8985  -12.3704 C   0  0  2  0  0  0  0  0  0  0  0  0
   25.7124  -20.3897  -13.2403 N   0  0  0  0  0  0  0  0  0  0  0  0
   23.3598  -20.3649  -12.8389 C   0  0  0  0  0  0  0  0  0  0  0  0
   23.1717  -19.1226  -12.9911 O   0  0  0  0  0  0  0  0  0  0  0  0
   22.3121  -21.2449  -13.1220 N   0  0  0  0  0  0  0  0  0  0  0  0
   21.0293  -20.6325  -13.6889 C   0  0  1  0  0  0  0  0  0  0  0  0
   20.6128  -21.5544  -14.7801 C   0  0  0  0  0  0  0  0  0  0  0  0
   19.3412  -21.4194  -15.4535 C   0  0  0  0  0  0  0  0  0  0  0  0
   18.8866  -22.4551  -16.4003 C   0  0  0  0  0  0  0  0  0  0  0  0
   17.5012  -22.0546  -16.9969 C   0  0  0  0  0  0  0  0  0  0  0  0
   16.9342  -23.1388  -17.7392 N   0  0  0  0  0  0  0  0  0  0  0  0
   20.1592  -20.6403  -12.4831 C   0  0  0  0  0  0  0  0  0  0  0  0
   19.0599  -19.8611  -12.2527 O   0  0  0  0  0  0  0  0  0  0  0  0
   20.4292  -21.4494  -11.5142 O   0  0  0  0  0  0  0  0  0  0  0  0
  1  5  1  0
  2  3  1  0
  2  1  1  0
  3  4  1  0
  4  5  1  0
  5  6  1  1
  7  6  2  0
  9  8  1  0
 10  9  1  0
 10 11  1  1
 12 10  1  0
 12 13  1  6
 13  6  1  0
 14 15  2  0
 14 12  1  0
 16 14  1  0
 17 16  1  0
 17 18  1  6
 19 20  1  0
 19 18  1  0
 20 21  1  0
 21 22  1  0
 23 24  1  0
 23 17  1  0
 25 23  2  0
M  END
$$$$
