PIK.pdb
     RDKit          3D

 25 25  0  0  1  0  0  0  0  0999 V2000
   43.3090  -14.1935   -6.8500 N   0  0  0  0  0  0  0  0  0  0  0  0
   43.3485  -15.6013   -7.1229 C   0  0  0  0  0  0  0  0  0  0  0  0
   43.7104  -15.7474   -8.5917 C   0  0  0  0  0  0  0  0  0  0  0  0
   43.1319  -14.4718   -9.1668 C   0  0  0  0  0  0  0  0  0  0  0  0
   43.4575  -13.4808   -8.0771 C   0  0  1  0  0  0  0  0  0  0  0  0
   42.5957  -12.2721   -8.1543 C   0  0  0  0  0  0  0  0  0  0  0  0
   42.7112  -11.5291   -9.1525 O   0  0  0  0  0  0  0  0  0  0  0  0
   37.9687  -13.0531   -6.2944 C   0  0  0  0  0  0  0  0  0  0  0  0
   38.8528  -12.2815   -7.2100 C   0  0  0  0  0  0  0  0  0  0  0  0
   39.4771  -11.0567   -6.6394 C   0  0  2  0  0  0  0  0  0  0  0  0
   38.5201   -9.8924   -6.8022 C   0  0  0  0  0  0  0  0  0  0  0  0
   40.8414  -10.7400   -7.1618 C   0  0  2  0  0  0  0  0  0  0  0  0
   41.6605  -11.9462   -7.1395 N   0  0  0  0  0  0  0  0  0  0  0  0
   41.5280   -9.6875   -6.3797 C   0  0  0  0  0  0  0  0  0  0  0  0
   41.5206   -9.6933   -5.1141 O   0  0  0  0  0  0  0  0  0  0  0  0
   42.2022   -8.6604   -7.0451 N   0  0  0  0  0  0  0  0  0  0  0  0
   42.8219   -7.5640   -6.1757 C   0  0  1  0  0  0  0  0  0  0  0  0
   44.1951   -7.3747   -6.7165 C   0  0  0  0  0  0  0  0  0  0  0  0
   45.3075   -7.0062   -5.8707 C   0  0  0  0  0  0  0  0  0  0  0  0
   46.0606   -8.0416   -5.1380 C   0  0  0  0  0  0  0  0  0  0  0  0
   47.2430   -7.3842   -4.3601 C   0  0  0  0  0  0  0  0  0  0  0  0
   47.9744   -8.3672   -3.6205 N   0  0  0  0  0  0  0  0  0  0  0  0
   41.8793   -6.4417   -6.4271 C   0  0  0  0  0  0  0  0  0  0  0  0
   41.1002   -6.2495   -7.5338 O   0  0  0  0  0  0  0  0  0  0  0  0
   41.7470   -5.5161   -5.5371 O   0  0  0  0  0  0  0  0  0  0  0  0
  1  5  1  0
  2  3  1  0
  2  1  1  0
  3  4  1  0
  4  5  1  0
  5  6  1  1
  7  6  2  0
  9  8  1  0
 10  9  1  0
 10 11  1  6
 12 10  1  0
 12 13  1  1
 13  6  1  0
 14 15  2  0
 14 12  1  0
 16 14  1  0
 17 16  1  0
 17 18  1  6
 19 20  1  0
 19 18  1  0
 20 21  1  0
 21 22  1  0
 23 24  1  0
 23 17  1  0
 25 23  2  0
M  END
$$$$
