INV.pdb
     RDKit          3D

 24 23  0  0  1  0  0  0  0  0999 V2000
    7.2893  -11.9912   19.0854 C   0  0  0  0  0  0  0  0  0  0  0  0
    7.9548  -13.3462   19.1343 C   0  0  0  0  0  0  0  0  0  0  0  0
    7.8305  -14.0330   20.4473 C   0  0  2  0  0  0  0  0  0  0  0  0
    8.5485  -13.1920   21.4825 C   0  0  0  0  0  0  0  0  0  0  0  0
    8.3683  -15.4396   20.4480 C   0  0  2  0  0  0  0  0  0  0  0  0
    7.8812  -16.2396   19.3743 N   0  0  0  0  0  0  0  0  0  0  0  0
    8.1711  -16.1122   21.7494 C   0  0  0  0  0  0  0  0  0  0  0  0
    7.4825  -17.1463   21.7994 O   0  0  0  0  0  0  0  0  0  0  0  0
   10.2951  -19.4592   24.8657 N   0  0  0  0  0  0  0  0  0  0  0  0
   10.9022  -18.2258   24.5264 C   0  0  0  0  0  0  0  0  0  0  0  0
   11.9254  -17.8544   25.1409 O   0  0  0  0  0  0  0  0  0  0  0  0
   10.3329  -17.3900   23.4601 C   0  0  0  0  0  0  0  0  0  0  0  0
    9.2822  -16.4381   23.9743 C   0  0  2  0  0  0  0  0  0  0  0  0
    8.7633  -15.5751   22.9112 N   0  0  0  0  0  0  0  0  0  0  0  0
    9.8264  -15.5496   25.0357 C   0  0  0  0  0  0  0  0  0  0  0  0
   10.6415  -15.9724   25.9043 O   0  0  0  0  0  0  0  0  0  0  0  0
    6.8648  -12.5317   27.2447 C   0  0  0  0  0  0  0  0  0  0  0  0
    7.4656  -13.2970   26.0853 C   0  0  1  0  0  0  0  0  0  0  0  0
    7.2631  -12.5719   24.7749 C   0  0  0  0  0  0  0  0  0  0  0  0
    8.9360  -13.5821   26.3492 C   0  0  2  0  0  0  0  0  0  0  0  0
    9.4620  -14.1771   25.1341 N   0  0  0  0  0  0  0  0  0  0  0  0
    9.1004  -14.5694   27.4470 C   0  0  0  0  0  0  0  0  0  0  0  0
    9.6336  -14.2099   28.6871 O   0  0  0  0  0  0  0  0  0  0  0  0
    8.7692  -15.7697   27.3133 O   0  0  0  0  0  0  0  0  0  0  0  0
  2  1  1  0
  3  2  1  0
  3  4  1  1
  5  7  1  0
  5  3  1  0
  5  6  1  6
  7  8  2  0
 10  9  1  0
 11 10  2  0
 13 12  1  6
 12 10  1  0
 14 13  1  0
 14  7  1  0
 15 21  1  0
 15 13  1  0
 16 15  2  0
 18 17  1  1
 19 18  1  0
 20 18  1  0
 20 21  1  6
 22 23  1  0
 22 20  1  0
 24 22  2  0
M  END
$$$$
