INV.pdb
     RDKit          3D

 24 23  0  0  1  0  0  0  0  0999 V2000
    7.4378  -11.9507   18.8159 C   0  0  0  0  0  0  0  0  0  0  0  0
    7.8218  -13.4087   18.9052 C   0  0  0  0  0  0  0  0  0  0  0  0
    7.6249  -14.0036   20.2537 C   0  0  2  0  0  0  0  0  0  0  0  0
    8.4118  -13.1745   21.2477 C   0  0  0  0  0  0  0  0  0  0  0  0
    8.0284  -15.4517   20.3413 C   0  0  2  0  0  0  0  0  0  0  0  0
    7.3072  -16.3020   19.4541 N   0  0  0  0  0  0  0  0  0  0  0  0
    7.9818  -15.9616   21.7279 C   0  0  0  0  0  0  0  0  0  0  0  0
    6.9024  -16.3754   22.1859 O   0  0  0  0  0  0  0  0  0  0  0  0
   10.6093  -19.0492   22.1614 N   0  0  0  0  0  0  0  0  0  0  0  0
    9.8960  -18.7583   23.3494 C   0  0  0  0  0  0  0  0  0  0  0  0
    9.0158  -19.5511   23.7482 O   0  0  0  0  0  0  0  0  0  0  0  0
   10.1893  -17.5334   24.1068 C   0  0  0  0  0  0  0  0  0  0  0  0
    9.1519  -16.4604   23.8896 C   0  0  2  0  0  0  0  0  0  0  0  0
    9.1558  -15.9718   22.5093 N   0  0  0  0  0  0  0  0  0  0  0  0
    9.3903  -15.2872   24.7721 C   0  0  0  0  0  0  0  0  0  0  0  0
    9.6205  -14.1367   24.3020 O   0  0  0  0  0  0  0  0  0  0  0  0
    8.2858  -12.9374   25.3532 C   0  0  0  0  0  0  0  0  0  0  0  0
    8.3217  -13.3482   26.8095 C   0  0  1  0  0  0  0  0  0  0  0  0
    7.0275  -14.0017   27.2358 C   0  0  0  0  0  0  0  0  0  0  0  0
    9.5195  -14.2476   27.0725 C   0  0  2  0  0  0  0  0  0  0  0  0
    9.3732  -15.3920   26.1916 N   0  0  0  0  0  0  0  0  0  0  0  0
    9.5158  -14.7474   28.4714 C   0  0  0  0  0  0  0  0  0  0  0  0
    9.2158  -16.0769   28.7778 O   0  0  0  0  0  0  0  0  0  0  0  0
    9.7811  -14.0016   29.4420 O   0  0  0  0  0  0  0  0  0  0  0  0
  2  1  1  0
  3  2  1  0
  3  4  1  1
  5  7  1  0
  5  3  1  0
  5  6  1  6
  7  8  2  0
 10  9  1  0
 11 10  2  0
 13 12  1  6
 12 10  1  0
 14 13  1  0
 14  7  1  0
 15 21  1  0
 15 13  1  0
 16 15  2  0
 18 17  1  6
 19 18  1  0
 20 18  1  0
 20 21  1  6
 22 23  1  0
 22 20  1  0
 24 22  2  0
M  END
$$$$
