INV.pdb
     RDKit          3D

 24 23  0  0  1  0  0  0  0  0999 V2000
    7.5817  -12.0594   18.7581 C   0  0  0  0  0  0  0  0  0  0  0  0
    8.2123  -13.4311   18.8041 C   0  0  0  0  0  0  0  0  0  0  0  0
    7.9726  -14.1636   20.0758 C   0  0  2  0  0  0  0  0  0  0  0  0
    8.5547  -13.3386   21.2051 C   0  0  0  0  0  0  0  0  0  0  0  0
    8.5482  -15.5550   20.0907 C   0  0  2  0  0  0  0  0  0  0  0  0
    8.0300  -16.4002   19.0673 N   0  0  0  0  0  0  0  0  0  0  0  0
    8.4349  -16.1920   21.4198 C   0  0  0  0  0  0  0  0  0  0  0  0
    7.3855  -16.7879   21.7192 O   0  0  0  0  0  0  0  0  0  0  0  0
   11.6243  -18.4314   25.9884 N   0  0  0  0  0  0  0  0  0  0  0  0
   10.4343  -18.3404   25.2264 C   0  0  0  0  0  0  0  0  0  0  0  0
    9.3569  -18.7400   25.7183 O   0  0  0  0  0  0  0  0  0  0  0  0
   10.4671  -17.7802   23.8681 C   0  0  0  0  0  0  0  0  0  0  0  0
    9.4302  -16.7042   23.6643 C   0  0  2  0  0  0  0  0  0  0  0  0
    9.5129  -16.1159   22.3260 N   0  0  0  0  0  0  0  0  0  0  0  0
    9.5967  -15.5965   24.6427 C   0  0  0  0  0  0  0  0  0  0  0  0
   10.5789  -14.8028   24.5886 O   0  0  0  0  0  0  0  0  0  0  0  0
    7.4559  -12.6622   27.9612 C   0  0  0  0  0  0  0  0  0  0  0  0
    7.4188  -13.7255   26.8847 C   0  0  1  0  0  0  0  0  0  0  0  0
    6.8220  -13.1974   25.6007 C   0  0  0  0  0  0  0  0  0  0  0  0
    8.8101  -14.2990   26.6643 C   0  0  2  0  0  0  0  0  0  0  0  0
    8.6632  -15.3672   25.6925 N   0  0  0  0  0  0  0  0  0  0  0  0
    9.3476  -14.8932   27.9153 C   0  0  0  0  0  0  0  0  0  0  0  0
   10.0811  -14.1380   28.8335 O   0  0  0  0  0  0  0  0  0  0  0  0
    9.1692  -16.0982   28.2062 O   0  0  0  0  0  0  0  0  0  0  0  0
  2  1  1  0
  3  2  1  0
  3  4  1  1
  5  7  1  0
  5  3  1  0
  5  6  1  6
  7  8  2  0
 10  9  1  0
 11 10  2  0
 13 12  1  6
 12 10  1  0
 14 13  1  0
 14  7  1  0
 15 21  1  0
 15 13  1  0
 16 15  2  0
 18 17  1  1
 19 18  1  0
 20 18  1  0
 20 21  1  6
 22 23  1  0
 22 20  1  0
 24 22  2  0
M  END
$$$$
