INV.pdb
     RDKit          3D

 24 23  0  0  1  0  0  0  0  0999 V2000
    5.8192  -12.2006   26.8985 C   0  0  0  0  0  0  0  0  0  0  0  0
    5.7370  -13.3343   25.9038 C   0  0  0  0  0  0  0  0  0  0  0  0
    6.9975  -14.1115   25.7683 C   0  0  2  0  0  0  0  0  0  0  0  0
    8.0790  -13.1648   25.2899 C   0  0  0  0  0  0  0  0  0  0  0  0
    6.8842  -15.2918   24.8402 C   0  0  2  0  0  0  0  0  0  0  0  0
    5.7528  -16.1182   25.1000 N   0  0  0  0  0  0  0  0  0  0  0  0
    8.1291  -16.0874   24.7938 C   0  0  0  0  0  0  0  0  0  0  0  0
    8.1581  -17.2011   25.3459 O   0  0  0  0  0  0  0  0  0  0  0  0
   13.8036  -15.9588   22.6544 N   0  0  0  0  0  0  0  0  0  0  0  0
   12.5633  -16.6420   22.6542 C   0  0  0  0  0  0  0  0  0  0  0  0
   12.5465  -17.8860   22.5337 O   0  0  0  0  0  0  0  0  0  0  0  0
   11.3066  -15.8932   22.7946 C   0  0  0  0  0  0  0  0  0  0  0  0
   10.4759  -16.3762   23.9571 C   0  0  2  0  0  0  0  0  0  0  0  0
    9.2618  -15.5755   24.1276 N   0  0  0  0  0  0  0  0  0  0  0  0
   11.2340  -16.3030   25.2345 C   0  0  0  0  0  0  0  0  0  0  0  0
   12.3715  -16.8386   25.3649 O   0  0  0  0  0  0  0  0  0  0  0  0
   11.1752  -13.2213   27.7880 C   0  0  0  0  0  0  0  0  0  0  0  0
   10.8222  -14.5188   28.4829 C   0  0  1  0  0  0  0  0  0  0  0  0
    9.3358  -14.6311   28.7310 C   0  0  0  0  0  0  0  0  0  0  0  0
   11.3508  -15.7020   27.6869 C   0  0  2  0  0  0  0  0  0  0  0  0
   10.7244  -15.6283   26.3795 N   0  0  0  0  0  0  0  0  0  0  0  0
   10.9492  -16.9886   28.3115 C   0  0  0  0  0  0  0  0  0  0  0  0
   10.0148  -17.8377   27.7135 O   0  0  0  0  0  0  0  0  0  0  0  0
   11.4285  -17.3733   29.4027 O   0  0  0  0  0  0  0  0  0  0  0  0
  2  1  1  0
  3  2  1  0
  3  4  1  6
  5  7  1  0
  5  3  1  0
  5  6  1  1
  7  8  2  0
 10  9  1  0
 11 10  2  0
 13 12  1  6
 12 10  1  0
 14 13  1  0
 14  7  1  0
 15 21  1  0
 15 13  1  0
 16 15  2  0
 18 17  1  6
 19 18  1  0
 20 18  1  0
 20 21  1  6
 22 23  1  0
 22 20  1  0
 24 22  2  0
M  END
$$$$
