INV.pdb
     RDKit          3D

 24 23  0  0  1  0  0  0  0  0999 V2000
    7.4501  -11.9094   19.8923 C   0  0  0  0  0  0  0  0  0  0  0  0
    7.5701  -13.4078   19.7452 C   0  0  0  0  0  0  0  0  0  0  0  0
    7.7482  -14.1288   21.0334 C   0  0  2  0  0  0  0  0  0  0  0  0
    8.9776  -13.5656   21.7161 C   0  0  0  0  0  0  0  0  0  0  0  0
    7.8699  -15.6218   20.8798 C   0  0  2  0  0  0  0  0  0  0  0  0
    6.7724  -16.2185   20.1945 N   0  0  0  0  0  0  0  0  0  0  0  0
    8.1270  -16.2968   22.1694 C   0  0  0  0  0  0  0  0  0  0  0  0
    7.1827  -16.4786   22.9576 O   0  0  0  0  0  0  0  0  0  0  0  0
   10.2819  -18.8372   26.0409 N   0  0  0  0  0  0  0  0  0  0  0  0
   11.0216  -19.1638   24.8785 C   0  0  0  0  0  0  0  0  0  0  0  0
   11.8651  -20.0851   24.9249 O   0  0  0  0  0  0  0  0  0  0  0  0
   10.7983  -18.4247   23.6280 C   0  0  0  0  0  0  0  0  0  0  0  0
    9.7387  -17.3609   23.7698 C   0  0  2  0  0  0  0  0  0  0  0  0
    9.4330  -16.7235   22.4874 N   0  0  0  0  0  0  0  0  0  0  0  0
   10.1689  -16.2862   24.7036 C   0  0  0  0  0  0  0  0  0  0  0  0
   11.1294  -15.5116   24.4295 O   0  0  0  0  0  0  0  0  0  0  0  0
    9.0115  -13.0540   28.0939 C   0  0  0  0  0  0  0  0  0  0  0  0
    8.6995  -14.1551   27.1034 C   0  0  1  0  0  0  0  0  0  0  0  0
    8.1648  -13.5997   25.8036 C   0  0  0  0  0  0  0  0  0  0  0  0
    9.9270  -15.0251   26.8808 C   0  0  2  0  0  0  0  0  0  0  0  0
    9.5263  -16.0689   25.9550 N   0  0  0  0  0  0  0  0  0  0  0  0
   10.3555  -15.6782   28.1444 C   0  0  0  0  0  0  0  0  0  0  0  0
   11.3160  -15.1047   28.9811 O   0  0  0  0  0  0  0  0  0  0  0  0
    9.8767  -16.7729   28.5196 O   0  0  0  0  0  0  0  0  0  0  0  0
  2  1  1  0
  3  2  1  0
  3  4  1  6
  5  7  1  0
  5  3  1  0
  5  6  1  1
  7  8  2  0
 10  9  1  0
 11 10  2  0
 13 12  1  6
 12 10  1  0
 14 13  1  0
 14  7  1  0
 15 21  1  0
 15 13  1  0
 16 15  2  0
 18 17  1  1
 19 18  1  0
 20 18  1  0
 20 21  1  6
 22 23  1  0
 22 20  1  0
 24 22  2  0
M  END
$$$$
