INV.pdb
     RDKit          3D

 24 23  0  0  1  0  0  0  0  0999 V2000
    7.5016  -11.9713   18.7585 C   0  0  0  0  0  0  0  0  0  0  0  0
    7.8430  -13.4402   18.8440 C   0  0  0  0  0  0  0  0  0  0  0  0
    7.7235  -14.0092   20.2126 C   0  0  2  0  0  0  0  0  0  0  0  0
    8.6509  -13.2310   21.1231 C   0  0  0  0  0  0  0  0  0  0  0  0
    8.0299  -15.4818   20.2848 C   0  0  2  0  0  0  0  0  0  0  0  0
    7.2171  -16.2787   19.4280 N   0  0  0  0  0  0  0  0  0  0  0  0
    8.0043  -15.9901   21.6726 C   0  0  0  0  0  0  0  0  0  0  0  0
    6.9091  -16.1563   22.2374 O   0  0  0  0  0  0  0  0  0  0  0  0
   11.0371  -19.3885   22.2723 N   0  0  0  0  0  0  0  0  0  0  0  0
   10.1137  -18.9727   23.2619 C   0  0  0  0  0  0  0  0  0  0  0  0
    9.1147  -19.6826   23.5079 O   0  0  0  0  0  0  0  0  0  0  0  0
   10.3292  -17.7163   23.9932 C   0  0  0  0  0  0  0  0  0  0  0  0
    9.2397  -16.7060   23.7347 C   0  0  2  0  0  0  0  0  0  0  0  0
    9.2158  -16.2784   22.3344 N   0  0  0  0  0  0  0  0  0  0  0  0
    9.4225  -15.4852   24.5643 C   0  0  0  0  0  0  0  0  0  0  0  0
   10.4224  -14.7256   24.4194 O   0  0  0  0  0  0  0  0  0  0  0  0
    7.3766  -12.0416   27.3886 C   0  0  0  0  0  0  0  0  0  0  0  0
    7.3090  -13.2420   26.4691 C   0  0  1  0  0  0  0  0  0  0  0  0
    6.8162  -12.8614   25.0921 C   0  0  0  0  0  0  0  0  0  0  0  0
    8.6609  -13.9363   26.4109 C   0  0  2  0  0  0  0  0  0  0  0  0
    8.4856  -15.1032   25.5654 N   0  0  0  0  0  0  0  0  0  0  0  0
    9.0777  -14.4083   27.7564 C   0  0  0  0  0  0  0  0  0  0  0  0
    9.8116  -13.5984   28.6265 O   0  0  0  0  0  0  0  0  0  0  0  0
    8.7914  -15.5536   28.1746 O   0  0  0  0  0  0  0  0  0  0  0  0
  2  1  1  0
  3  2  1  0
  3  4  1  1
  5  7  1  0
  5  3  1  0
  5  6  1  6
  7  8  2  0
 10  9  1  0
 11 10  2  0
 13 12  1  6
 12 10  1  0
 14 13  1  0
 14  7  1  0
 15 21  1  0
 15 13  1  0
 16 15  2  0
 18 17  1  1
 19 18  1  0
 20 18  1  0
 20 21  1  6
 22 23  1  0
 22 20  1  0
 24 22  2  0
M  END
$$$$
