INV.pdb
     RDKit          3D

 24 23  0  0  1  0  0  0  0  0999 V2000
    7.4427  -11.9276   19.9492 C   0  0  0  0  0  0  0  0  0  0  0  0
    7.7956  -13.3842   19.7617 C   0  0  0  0  0  0  0  0  0  0  0  0
    7.8586  -14.1584   21.0296 C   0  0  2  0  0  0  0  0  0  0  0  0
    8.8599  -13.4788   21.9408 C   0  0  0  0  0  0  0  0  0  0  0  0
    8.2220  -15.6070   20.8371 C   0  0  2  0  0  0  0  0  0  0  0  0
    7.3666  -16.2964   19.9297 N   0  0  0  0  0  0  0  0  0  0  0  0
    8.3346  -16.3300   22.1214 C   0  0  0  0  0  0  0  0  0  0  0  0
    7.3005  -16.7246   22.6879 O   0  0  0  0  0  0  0  0  0  0  0  0
   10.7595  -19.6652   21.7344 N   0  0  0  0  0  0  0  0  0  0  0  0
   10.1849  -19.4652   23.0130 C   0  0  0  0  0  0  0  0  0  0  0  0
    9.2407  -20.1955   23.3840 O   0  0  0  0  0  0  0  0  0  0  0  0
   10.6955  -18.4071   23.8959 C   0  0  0  0  0  0  0  0  0  0  0  0
    9.7604  -17.2268   23.9799 C   0  0  2  0  0  0  0  0  0  0  0  0
    9.6067  -16.5616   22.6845 N   0  0  0  0  0  0  0  0  0  0  0  0
   10.2572  -16.2071   24.9417 C   0  0  0  0  0  0  0  0  0  0  0  0
   11.3040  -15.5350   24.7177 O   0  0  0  0  0  0  0  0  0  0  0  0
    9.3061  -13.0787   28.5574 C   0  0  0  0  0  0  0  0  0  0  0  0
    8.8959  -14.0902   27.5089 C   0  0  1  0  0  0  0  0  0  0  0  0
    8.2990  -13.4206   26.2927 C   0  0  0  0  0  0  0  0  0  0  0  0
   10.0771  -14.9748   27.1414 C   0  0  2  0  0  0  0  0  0  0  0  0
    9.5850  -15.9301   26.1655 N   0  0  0  0  0  0  0  0  0  0  0  0
   10.5608  -15.7378   28.3206 C   0  0  0  0  0  0  0  0  0  0  0  0
   11.5737  -15.2491   29.1493 O   0  0  0  0  0  0  0  0  0  0  0  0
   10.0842  -16.8545   28.6280 O   0  0  0  0  0  0  0  0  0  0  0  0
  2  1  1  0
  3  2  1  0
  3  4  1  1
  5  7  1  0
  5  3  1  0
  5  6  1  6
  7  8  2  0
 10  9  1  0
 11 10  2  0
 13 12  1  6
 12 10  1  0
 14 13  1  0
 14  7  1  0
 15 21  1  0
 15 13  1  0
 16 15  2  0
 18 17  1  1
 19 18  1  0
 20 18  1  0
 20 21  1  6
 22 23  1  0
 22 20  1  0
 24 22  2  0
M  END
$$$$
