INV.pdb
     RDKit          3D

 24 23  0  0  1  0  0  0  0  0999 V2000
    7.9237  -12.1644   18.6393 C   0  0  0  0  0  0  0  0  0  0  0  0
    8.0527  -13.6602   18.8045 C   0  0  0  0  0  0  0  0  0  0  0  0
    7.4288  -14.1866   20.0474 C   0  0  2  0  0  0  0  0  0  0  0  0
    8.1229  -13.5381   21.2274 C   0  0  0  0  0  0  0  0  0  0  0  0
    7.4847  -15.6868   20.1644 C   0  0  2  0  0  0  0  0  0  0  0  0
    6.8094  -16.3690   19.1115 N   0  0  0  0  0  0  0  0  0  0  0  0
    7.0295  -16.1610   21.4884 C   0  0  0  0  0  0  0  0  0  0  0  0
    5.8100  -16.2426   21.7169 O   0  0  0  0  0  0  0  0  0  0  0  0
    6.6449  -17.8446   26.2803 N   0  0  0  0  0  0  0  0  0  0  0  0
    7.5692  -18.6367   25.5571 C   0  0  0  0  0  0  0  0  0  0  0  0
    8.0888  -19.6318   26.1069 O   0  0  0  0  0  0  0  0  0  0  0  0
    7.9140  -18.2907   24.1710 C   0  0  0  0  0  0  0  0  0  0  0  0
    7.5766  -16.8598   23.8343 C   0  0  2  0  0  0  0  0  0  0  0  0
    7.9792  -16.5129   22.4698 N   0  0  0  0  0  0  0  0  0  0  0  0
    8.2625  -15.9097   24.7502 C   0  0  0  0  0  0  0  0  0  0  0  0
    9.5217  -15.8038   24.7781 O   0  0  0  0  0  0  0  0  0  0  0  0
    7.7027  -11.9643   27.7118 C   0  0  0  0  0  0  0  0  0  0  0  0
    7.1181  -13.0523   26.8369 C   0  0  1  0  0  0  0  0  0  0  0  0
    6.4700  -12.4814   25.5968 C   0  0  0  0  0  0  0  0  0  0  0  0
    8.1852  -14.0795   26.4920 C   0  0  2  0  0  0  0  0  0  0  0  0
    7.5431  -15.0680   25.6447 N   0  0  0  0  0  0  0  0  0  0  0  0
    8.6727  -14.7740   27.7114 C   0  0  0  0  0  0  0  0  0  0  0  0
    9.8105  -14.3442   28.3986 O   0  0  0  0  0  0  0  0  0  0  0  0
    8.0876  -15.7766   28.1812 O   0  0  0  0  0  0  0  0  0  0  0  0
  2  1  1  0
  3  2  1  0
  3  4  1  1
  5  7  1  0
  5  3  1  0
  5  6  1  6
  7  8  2  0
 10  9  1  0
 11 10  2  0
 13 12  1  1
 12 10  1  0
 14 13  1  0
 14  7  1  0
 15 21  1  0
 15 13  1  0
 16 15  2  0
 18 17  1  6
 19 18  1  0
 20 18  1  0
 20 21  1  6
 22 23  1  0
 22 20  1  0
 24 22  2  0
M  END
$$$$
