VAT.pdb
     RDKit          3D

 20 19  0  0  1  0  0  0  0  0999 V2000
    8.3819  -12.3856   20.4633 C   0  0  0  0  0  0  0  0  0  0  0  0
    7.6828  -13.3393   19.5341 C   0  0  1  0  0  0  0  0  0  0  0  0
    8.1858  -13.0460   18.1301 C   0  0  0  0  0  0  0  0  0  0  0  0
    8.0530  -14.7520   19.8569 C   0  0  2  0  0  0  0  0  0  0  0  0
    7.2792  -15.6254   18.9367 N   0  0  0  0  0  0  0  0  0  0  0  0
    7.7907  -15.2097   21.2101 C   0  0  0  0  0  0  0  0  0  0  0  0
    6.5679  -15.3435   21.5688 O   0  0  0  0  0  0  0  0  0  0  0  0
    8.9210  -17.3146   23.8900 C   0  0  0  0  0  0  0  0  0  0  0  0
    8.3754  -15.9620   23.5441 C   0  0  2  0  0  0  0  0  0  0  0  0
    8.7248  -15.5360   22.2058 N   0  0  0  0  0  0  0  0  0  0  0  0
    8.7561  -14.9342   24.5595 C   0  0  0  0  0  0  0  0  0  0  0  0
    9.8636  -14.3396   24.5045 O   0  0  0  0  0  0  0  0  0  0  0  0
    6.4609  -12.0229   25.6792 C   0  0  0  0  0  0  0  0  0  0  0  0
    6.8656  -12.8585   26.8859 C   0  0  1  0  0  0  0  0  0  0  0  0
    5.9027  -13.8496   27.0759 O   0  0  0  0  0  0  0  0  0  0  0  0
    8.1644  -13.5744   26.5551 C   0  0  2  0  0  0  0  0  0  0  0  0
    7.8577  -14.6243   25.5993 N   0  0  0  0  0  0  0  0  0  0  0  0
    8.7303  -14.1810   27.7884 C   0  0  0  0  0  0  0  0  0  0  0  0
    8.8093  -15.4234   27.9067 O   0  0  0  0  0  0  0  0  0  0  0  0
    9.1772  -13.3709   28.8224 O   0  0  0  0  0  0  0  0  0  0  0  0
  2  1  1  1
  2  4  1  0
  3  2  1  0
  4  5  1  6
  6  4  1  0
  7  6  2  0
  9 10  1  0
  9  8  1  1
 10  6  1  0
 11  9  1  0
 12 11  2  0
 14 13  1  6
 14 15  1  0
 16 14  1  0
 16 17  1  6
 17 11  1  0
 18 20  1  0
 18 16  1  0
 19 18  2  0
M  END
$$$$
