VAT.pdb
     RDKit          3D

 20 19  0  0  1  0  0  0  0  0999 V2000
    4.9852  -18.6350   19.3574 C   0  0  0  0  0  0  0  0  0  0  0  0
    5.7533  -18.1223   20.5443 C   0  0  1  0  0  0  0  0  0  0  0  0
    6.8555  -19.1284   20.8329 C   0  0  0  0  0  0  0  0  0  0  0  0
    6.4102  -16.8183   20.2203 C   0  0  2  0  0  0  0  0  0  0  0  0
    7.1343  -17.0034   18.9359 N   0  0  0  0  0  0  0  0  0  0  0  0
    7.3660  -16.3036   21.1852 C   0  0  0  0  0  0  0  0  0  0  0  0
    8.5848  -16.6847   21.0801 O   0  0  0  0  0  0  0  0  0  0  0  0
    7.6778  -13.8288   24.0390 C   0  0  0  0  0  0  0  0  0  0  0  0
    8.1396  -14.9639   23.1758 C   0  0  2  0  0  0  0  0  0  0  0  0
    7.1262  -15.4177   22.2474 N   0  0  0  0  0  0  0  0  0  0  0  0
    8.6789  -16.0953   23.9891 C   0  0  0  0  0  0  0  0  0  0  0  0
    7.9182  -16.8350   24.6655 O   0  0  0  0  0  0  0  0  0  0  0  0
   11.3799  -18.4401   22.6599 C   0  0  0  0  0  0  0  0  0  0  0  0
   11.8344  -17.9611   24.0319 C   0  0  1  0  0  0  0  0  0  0  0  0
   12.6947  -16.8775   23.8552 O   0  0  0  0  0  0  0  0  0  0  0  0
   10.6204  -17.4331   24.7778 C   0  0  2  0  0  0  0  0  0  0  0  0
   10.0661  -16.3393   23.9991 N   0  0  0  0  0  0  0  0  0  0  0  0
   11.0339  -16.9273   26.1130 C   0  0  0  0  0  0  0  0  0  0  0  0
   11.0253  -15.7011   26.3583 O   0  0  0  0  0  0  0  0  0  0  0  0
   11.4342  -17.8146   27.1017 O   0  0  0  0  0  0  0  0  0  0  0  0
  2  1  1  6
  2  4  1  0
  3  2  1  0
  4  5  1  6
  6  4  1  0
  7  6  2  0
  9 10  1  0
  9  8  1  1
 10  6  1  0
 11  9  1  0
 12 11  2  0
 14 13  1  6
 14 15  1  0
 16 14  1  0
 16 17  1  6
 17 11  1  0
 18 20  1  0
 18 16  1  0
 19 18  2  0
M  END
$$$$
