VAT.pdb
     RDKit          3D

 20 19  0  0  1  0  0  0  0  0999 V2000
    7.1300  -16.5305   14.1754 C   0  0  0  0  0  0  0  0  0  0  0  0
    7.4860  -16.3159   15.6207 C   0  0  1  0  0  0  0  0  0  0  0  0
    8.3842  -17.4694   16.0366 C   0  0  0  0  0  0  0  0  0  0  0  0
    8.2716  -15.0539   15.7854 C   0  0  2  0  0  0  0  0  0  0  0  0
    9.4908  -15.1880   14.9464 N   0  0  0  0  0  0  0  0  0  0  0  0
    8.7068  -14.7188   17.1300 C   0  0  0  0  0  0  0  0  0  0  0  0
    9.8416  -15.1684   17.5199 O   0  0  0  0  0  0  0  0  0  0  0  0
    7.7607  -12.5920   20.1202 C   0  0  0  0  0  0  0  0  0  0  0  0
    8.5402  -13.6578   19.4108 C   0  0  2  0  0  0  0  0  0  0  0  0
    8.0315  -13.9445   18.0865 N   0  0  0  0  0  0  0  0  0  0  0  0
    8.6535  -14.9011   20.2315 C   0  0  0  0  0  0  0  0  0  0  0  0
    7.6879  -15.6999   20.3451 O   0  0  0  0  0  0  0  0  0  0  0  0
   10.3500  -17.7526   19.8095 C   0  0  0  0  0  0  0  0  0  0  0  0
   10.9307  -17.3198   21.1488 C   0  0  1  0  0  0  0  0  0  0  0  0
   12.1185  -16.6291   20.9091 O   0  0  0  0  0  0  0  0  0  0  0  0
    9.9726  -16.3262   21.7841 C   0  0  2  0  0  0  0  0  0  0  0  0
    9.8650  -15.1853   20.8915 N   0  0  0  0  0  0  0  0  0  0  0  0
   10.5124  -15.8774   23.0943 C   0  0  0  0  0  0  0  0  0  0  0  0
   10.9836  -14.7266   23.2267 O   0  0  0  0  0  0  0  0  0  0  0  0
   10.4979  -16.7346   24.1852 O   0  0  0  0  0  0  0  0  0  0  0  0
  2  1  1  6
  2  4  1  0
  3  2  1  0
  4  5  1  6
  6  4  1  0
  7  6  2  0
  9 10  1  0
  9  8  1  1
 10  6  1  0
 11  9  1  0
 12 11  2  0
 14 13  1  6
 14 15  1  0
 16 14  1  0
 16 17  1  6
 17 11  1  0
 18 20  1  0
 18 16  1  0
 19 18  2  0
M  END
$$$$
