VAT.pdb
     RDKit          3D

 20 19  0  0  1  0  0  0  0  0999 V2000
    8.1090  -12.4178   20.8363 C   0  0  0  0  0  0  0  0  0  0  0  0
    7.3987  -13.4191   19.9677 C   0  0  1  0  0  0  0  0  0  0  0  0
    7.6677  -13.0294   18.5234 C   0  0  0  0  0  0  0  0  0  0  0  0
    7.9641  -14.7880   20.1755 C   0  0  2  0  0  0  0  0  0  0  0  0
    7.1943  -15.7134   19.3041 N   0  0  0  0  0  0  0  0  0  0  0  0
    7.9155  -15.3238   21.5246 C   0  0  0  0  0  0  0  0  0  0  0  0
    6.7647  -15.5952   22.0184 O   0  0  0  0  0  0  0  0  0  0  0  0
    9.6943  -17.2244   24.0826 C   0  0  0  0  0  0  0  0  0  0  0  0
    8.8506  -16.0290   23.7571 C   0  0  2  0  0  0  0  0  0  0  0  0
    8.9921  -15.5932   22.3842 N   0  0  0  0  0  0  0  0  0  0  0  0
    9.0890  -14.9052   24.7124 C   0  0  0  0  0  0  0  0  0  0  0  0
   10.1020  -14.1656   24.6121 O   0  0  0  0  0  0  0  0  0  0  0  0
    6.9691  -11.9601   25.7655 C   0  0  0  0  0  0  0  0  0  0  0  0
    7.1586  -12.8673   26.9735 C   0  0  1  0  0  0  0  0  0  0  0  0
    6.1077  -13.7841   27.0024 O   0  0  0  0  0  0  0  0  0  0  0  0
    8.4306  -13.6729   26.7689 C   0  0  2  0  0  0  0  0  0  0  0  0
    8.1618  -14.6687   25.7461 N   0  0  0  0  0  0  0  0  0  0  0  0
    8.8002  -14.3560   28.0363 C   0  0  0  0  0  0  0  0  0  0  0  0
    8.7538  -15.6026   28.1230 O   0  0  0  0  0  0  0  0  0  0  0  0
    9.2013  -13.6134   29.1375 O   0  0  0  0  0  0  0  0  0  0  0  0
  2  1  1  1
  2  4  1  0
  3  2  1  0
  4  5  1  6
  6  4  1  0
  7  6  2  0
  9 10  1  0
  9  8  1  1
 10  6  1  0
 11  9  1  0
 12 11  2  0
 14 13  1  6
 14 15  1  0
 16 14  1  0
 16 17  1  6
 17 11  1  0
 18 20  1  0
 18 16  1  0
 19 18  2  0
M  END
$$$$
