VAT.pdb
     RDKit          3D

 20 19  0  0  1  0  0  0  0  0999 V2000
    8.0481  -12.7884   18.0099 C   0  0  0  0  0  0  0  0  0  0  0  0
    7.4923  -13.2254   19.3372 C   0  0  1  0  0  0  0  0  0  0  0  0
    6.6276  -14.4485   19.0795 C   0  0  0  0  0  0  0  0  0  0  0  0
    8.5961  -13.6422   20.2563 C   0  0  2  0  0  0  0  0  0  0  0  0
    9.3495  -14.7231   19.5690 N   0  0  0  0  0  0  0  0  0  0  0  0
    8.2112  -14.1468   21.5627 C   0  0  0  0  0  0  0  0  0  0  0  0
    7.5278  -13.3749   22.3236 O   0  0  0  0  0  0  0  0  0  0  0  0
    8.2970  -17.3005   23.6690 C   0  0  0  0  0  0  0  0  0  0  0  0
    8.0228  -15.8493   23.4125 C   0  0  2  0  0  0  0  0  0  0  0  0
    8.4947  -15.4042   22.1186 N   0  0  0  0  0  0  0  0  0  0  0  0
    8.5477  -14.9832   24.5110 C   0  0  0  0  0  0  0  0  0  0  0  0
    9.7468  -14.6024   24.5271 O   0  0  0  0  0  0  0  0  0  0  0  0
    6.9032  -11.7694   25.9480 C   0  0  0  0  0  0  0  0  0  0  0  0
    7.0528  -12.8161   27.0435 C   0  0  1  0  0  0  0  0  0  0  0  0
    5.8834  -13.5752   27.0873 O   0  0  0  0  0  0  0  0  0  0  0  0
    8.1705  -13.7654   26.6454 C   0  0  2  0  0  0  0  0  0  0  0  0
    7.6834  -14.5847   25.5494 N   0  0  0  0  0  0  0  0  0  0  0  0
    8.5195  -14.6389   27.7963 C   0  0  0  0  0  0  0  0  0  0  0  0
    8.3009  -15.8693   27.7491 O   0  0  0  0  0  0  0  0  0  0  0  0
    9.0928  -14.0946   28.9365 O   0  0  0  0  0  0  0  0  0  0  0  0
  2  1  1  6
  2  4  1  0
  3  2  1  0
  4  5  1  6
  6  4  1  0
  7  6  2  0
  9 10  1  0
  9  8  1  1
 10  6  1  0
 11  9  1  0
 12 11  2  0
 14 13  1  6
 14 15  1  0
 16 14  1  0
 16 17  1  6
 17 11  1  0
 18 20  1  0
 18 16  1  0
 19 18  2  0
M  END
$$$$
