VAT.pdb
     RDKit          3D

 20 19  0  0  1  0  0  0  0  0999 V2000
    8.1427  -13.1199   18.2006 C   0  0  0  0  0  0  0  0  0  0  0  0
    8.3385  -13.4049   19.6642 C   0  0  1  0  0  0  0  0  0  0  0  0
    7.2580  -12.6456   20.4166 C   0  0  0  0  0  0  0  0  0  0  0  0
    8.1423  -14.8607   19.9458 C   0  0  2  0  0  0  0  0  0  0  0  0
    6.8821  -15.2679   19.2717 N   0  0  0  0  0  0  0  0  0  0  0  0
    8.0337  -15.2539   21.3396 C   0  0  0  0  0  0  0  0  0  0  0  0
    6.9106  -15.0664   21.9274 O   0  0  0  0  0  0  0  0  0  0  0  0
    9.6676  -17.3724   23.9533 C   0  0  0  0  0  0  0  0  0  0  0  0
    8.8256  -16.2045   23.5362 C   0  0  2  0  0  0  0  0  0  0  0  0
    9.0229  -15.8301   22.1521 N   0  0  0  0  0  0  0  0  0  0  0  0
    9.0088  -15.0351   24.4480 C   0  0  0  0  0  0  0  0  0  0  0  0
    9.8982  -14.1714   24.2331 O   0  0  0  0  0  0  0  0  0  0  0  0
    6.6674  -12.3670   25.3468 C   0  0  0  0  0  0  0  0  0  0  0  0
    6.9819  -13.1063   26.6402 C   0  0  1  0  0  0  0  0  0  0  0  0
    6.0450  -14.1271   26.8006 O   0  0  0  0  0  0  0  0  0  0  0  0
    8.3349  -13.7806   26.4860 C   0  0  2  0  0  0  0  0  0  0  0  0
    8.1694  -14.8963   25.5707 N   0  0  0  0  0  0  0  0  0  0  0  0
    8.7942  -14.2894   27.8049 C   0  0  0  0  0  0  0  0  0  0  0  0
    8.8895  -15.5188   28.0134 O   0  0  0  0  0  0  0  0  0  0  0  0
    9.1221  -13.4015   28.8193 O   0  0  0  0  0  0  0  0  0  0  0  0
  2  1  1  6
  2  4  1  0
  3  2  1  0
  4  5  1  6
  6  4  1  0
  7  6  2  0
  9 10  1  0
  9  8  1  1
 10  6  1  0
 11  9  1  0
 12 11  2  0
 14 13  1  6
 14 15  1  0
 16 14  1  0
 16 17  1  6
 17 11  1  0
 18 20  1  0
 18 16  1  0
 19 18  2  0
M  END
$$$$
