VAT.pdb
     RDKit          3D

 20 19  0  0  1  0  0  0  0  0999 V2000
    8.4184  -12.4907   20.5989 C   0  0  0  0  0  0  0  0  0  0  0  0
    7.5110  -13.4340   19.8585 C   0  0  1  0  0  0  0  0  0  0  0  0
    7.7162  -13.1799   18.3740 C   0  0  0  0  0  0  0  0  0  0  0  0
    7.8976  -14.8534   20.1280 C   0  0  2  0  0  0  0  0  0  0  0  0
    6.9595  -15.7129   19.3601 N   0  0  0  0  0  0  0  0  0  0  0  0
    7.8571  -15.2968   21.5105 C   0  0  0  0  0  0  0  0  0  0  0  0
    6.7136  -15.3546   22.0859 O   0  0  0  0  0  0  0  0  0  0  0  0
    9.7744  -17.1198   24.1314 C   0  0  0  0  0  0  0  0  0  0  0  0
    8.8136  -16.0455   23.7196 C   0  0  2  0  0  0  0  0  0  0  0  0
    8.9342  -15.6831   22.3235 N   0  0  0  0  0  0  0  0  0  0  0  0
    8.9113  -14.8453   24.6040 C   0  0  0  0  0  0  0  0  0  0  0  0
    9.7981  -13.9709   24.4241 O   0  0  0  0  0  0  0  0  0  0  0  0
    6.6199  -12.1064   25.4276 C   0  0  0  0  0  0  0  0  0  0  0  0
    6.8275  -12.8800   26.7225 C   0  0  1  0  0  0  0  0  0  0  0  0
    5.8348  -13.8556   26.8144 O   0  0  0  0  0  0  0  0  0  0  0  0
    8.1525  -13.6181   26.6287 C   0  0  2  0  0  0  0  0  0  0  0  0
    7.9928  -14.6890   25.6605 N   0  0  0  0  0  0  0  0  0  0  0  0
    8.4973  -14.1985   27.9529 C   0  0  0  0  0  0  0  0  0  0  0  0
    8.5117  -15.4379   28.1190 O   0  0  0  0  0  0  0  0  0  0  0  0
    8.8073  -13.3671   29.0196 O   0  0  0  0  0  0  0  0  0  0  0  0
  2  1  1  1
  2  4  1  0
  3  2  1  0
  4  5  1  6
  6  4  1  0
  7  6  2  0
  9 10  1  0
  9  8  1  1
 10  6  1  0
 11  9  1  0
 12 11  2  0
 14 13  1  6
 14 15  1  0
 16 14  1  0
 16 17  1  6
 17 11  1  0
 18 20  1  0
 18 16  1  0
 19 18  2  0
M  END
$$$$
