VAT.pdb
     RDKit          3D

 20 19  0  0  1  0  0  0  0  0999 V2000
    5.2232  -18.6121   20.8975 C   0  0  0  0  0  0  0  0  0  0  0  0
    5.8940  -18.8418   19.5713 C   0  0  1  0  0  0  0  0  0  0  0  0
    4.8635  -19.4773   18.6524 C   0  0  0  0  0  0  0  0  0  0  0  0
    6.3004  -17.5401   18.9568 C   0  0  2  0  0  0  0  0  0  0  0  0
    6.9128  -17.8534   17.6396 N   0  0  0  0  0  0  0  0  0  0  0  0
    7.2542  -16.7315   19.6956 C   0  0  0  0  0  0  0  0  0  0  0  0
    8.4460  -17.1835   19.8259 O   0  0  0  0  0  0  0  0  0  0  0  0
    7.6225  -13.3583   21.3884 C   0  0  0  0  0  0  0  0  0  0  0  0
    8.0413  -14.7578   21.0525 C   0  0  2  0  0  0  0  0  0  0  0  0
    7.0389  -15.4840   20.3022 N   0  0  0  0  0  0  0  0  0  0  0  0
    8.4674  -15.5159   22.2674 C   0  0  0  0  0  0  0  0  0  0  0  0
    7.6685  -15.7362   23.2142 O   0  0  0  0  0  0  0  0  0  0  0  0
    9.3954  -18.8193   22.7848 C   0  0  0  0  0  0  0  0  0  0  0  0
   10.6547  -18.0683   23.1953 C   0  0  1  0  0  0  0  0  0  0  0  0
   11.4914  -17.9745   22.0833 O   0  0  0  0  0  0  0  0  0  0  0  0
   10.2626  -16.6470   23.5632 C   0  0  2  0  0  0  0  0  0  0  0  0
    9.7896  -15.9937   22.3552 N   0  0  0  0  0  0  0  0  0  0  0  0
   11.4490  -15.9191   24.0847 C   0  0  0  0  0  0  0  0  0  0  0  0
   12.0401  -15.0766   23.3744 O   0  0  0  0  0  0  0  0  0  0  0  0
   11.9120  -16.1693   25.3685 O   0  0  0  0  0  0  0  0  0  0  0  0
  2  1  1  1
  2  4  1  0
  3  2  1  0
  4  5  1  6
  6  4  1  0
  7  6  2  0
  9 10  1  0
  9  8  1  1
 10  6  1  0
 11  9  1  0
 12 11  2  0
 14 13  1  6
 14 15  1  0
 16 14  1  0
 16 17  1  6
 17 11  1  0
 18 20  1  0
 18 16  1  0
 19 18  2  0
M  END
$$$$
