VAT.pdb
     RDKit          3D

 20 19  0  0  1  0  0  0  0  0999 V2000
    6.0602  -10.8952   25.5890 C   0  0  0  0  0  0  0  0  0  0  0  0
    7.0318  -12.0430   25.5734 C   0  0  1  0  0  0  0  0  0  0  0  0
    7.4966  -12.2556   27.0048 C   0  0  0  0  0  0  0  0  0  0  0  0
    6.3517  -13.2997   25.1315 C   0  0  2  0  0  0  0  0  0  0  0  0
    5.2247  -13.5375   26.0703 N   0  0  0  0  0  0  0  0  0  0  0  0
    7.1547  -14.5096   25.1046 C   0  0  0  0  0  0  0  0  0  0  0  0
    7.1989  -15.2208   26.1696 O   0  0  0  0  0  0  0  0  0  0  0  0
    9.2229  -16.6844   22.7949 C   0  0  0  0  0  0  0  0  0  0  0  0
    8.7880  -16.1657   24.1323 C   0  0  2  0  0  0  0  0  0  0  0  0
    7.9094  -15.0195   24.0365 N   0  0  0  0  0  0  0  0  0  0  0  0
    9.9534  -15.8854   25.0241 C   0  0  0  0  0  0  0  0  0  0  0  0
   10.8256  -15.0338   24.7121 O   0  0  0  0  0  0  0  0  0  0  0  0
   10.4622  -14.2882   27.9931 C   0  0  0  0  0  0  0  0  0  0  0  0
   10.8364  -15.7217   28.3441 C   0  0  1  0  0  0  0  0  0  0  0  0
    9.6910  -16.3752   28.7987 O   0  0  0  0  0  0  0  0  0  0  0  0
   11.2607  -16.4290   27.0679 C   0  0  2  0  0  0  0  0  0  0  0  0
   10.0789  -16.5881   26.2385 N   0  0  0  0  0  0  0  0  0  0  0  0
   11.8150  -17.7681   27.3978 C   0  0  0  0  0  0  0  0  0  0  0  0
   11.1950  -18.8074   27.0828 O   0  0  0  0  0  0  0  0  0  0  0  0
   13.0292  -17.8765   28.0604 O   0  0  0  0  0  0  0  0  0  0  0  0
  2  1  1  1
  2  4  1  0
  3  2  1  0
  4  5  1  1
  6  4  1  0
  7  6  2  0
  9 10  1  0
  9  8  1  6
 10  6  1  0
 11  9  1  0
 12 11  2  0
 14 13  1  6
 14 15  1  0
 16 14  1  0
 16 17  1  6
 17 11  1  0
 18 20  1  0
 18 16  1  0
 19 18  2  0
M  END
$$$$
