VAT.pdb
     RDKit          3D

 20 19  0  0  1  0  0  0  0  0999 V2000
    8.8501  -15.1471   19.6621 C   0  0  0  0  0  0  0  0  0  0  0  0
    8.3280  -14.2581   20.7569 C   0  0  1  0  0  0  0  0  0  0  0  0
    7.1389  -13.5003   20.1895 C   0  0  0  0  0  0  0  0  0  0  0  0
    7.8310  -15.0772   21.9054 C   0  0  2  0  0  0  0  0  0  0  0  0
    6.3470  -15.0794   21.8280 N   0  0  0  0  0  0  0  0  0  0  0  0
    8.1937  -14.6313   23.2392 C   0  0  0  0  0  0  0  0  0  0  0  0
    9.4185  -14.7506   23.5964 O   0  0  0  0  0  0  0  0  0  0  0  0
    6.8446  -12.6473   26.1542 C   0  0  0  0  0  0  0  0  0  0  0  0
    7.8167  -13.5824   25.5005 C   0  0  2  0  0  0  0  0  0  0  0  0
    7.3579  -14.0695   24.2171 N   0  0  0  0  0  0  0  0  0  0  0  0
    8.1974  -14.7084   26.4057 C   0  0  0  0  0  0  0  0  0  0  0  0
    7.4316  -15.6905   26.5855 O   0  0  0  0  0  0  0  0  0  0  0  0
   10.2966  -17.1457   26.0767 C   0  0  0  0  0  0  0  0  0  0  0  0
   10.8693  -16.5738   27.3663 C   0  0  1  0  0  0  0  0  0  0  0  0
   11.9246  -15.7229   27.0379 O   0  0  0  0  0  0  0  0  0  0  0  0
    9.8031  -15.7096   28.0185 C   0  0  2  0  0  0  0  0  0  0  0  0
    9.4382  -14.6704   27.0715 N   0  0  0  0  0  0  0  0  0  0  0  0
   10.3503  -15.0834   29.2505 C   0  0  0  0  0  0  0  0  0  0  0  0
   10.5288  -13.8471   29.3092 O   0  0  0  0  0  0  0  0  0  0  0  0
   10.6687  -15.8682   30.3494 O   0  0  0  0  0  0  0  0  0  0  0  0
  2  1  1  6
  2  4  1  0
  3  2  1  0
  4  5  1  1
  6  4  1  0
  7  6  2  0
  9 10  1  0
  9  8  1  1
 10  6  1  0
 11  9  1  0
 12 11  2  0
 14 13  1  6
 14 15  1  0
 16 14  1  0
 16 17  1  6
 17 11  1  0
 18 20  1  0
 18 16  1  0
 19 18  2  0
M  END
$$$$
