VAT.pdb
     RDKit          3D

 20 19  0  0  1  0  0  0  0  0999 V2000
    7.1456  -12.6784   19.6019 C   0  0  0  0  0  0  0  0  0  0  0  0
    8.4696  -13.3105   19.2715 C   0  0  1  0  0  0  0  0  0  0  0  0
    9.5151  -12.6459   20.1521 C   0  0  0  0  0  0  0  0  0  0  0  0
    8.4554  -14.7664   19.6134 C   0  0  2  0  0  0  0  0  0  0  0  0
    7.5915  -15.4405   18.6096 N   0  0  0  0  0  0  0  0  0  0  0  0
    7.9558  -15.1304   20.9277 C   0  0  0  0  0  0  0  0  0  0  0  0
    6.6884  -15.1024   21.1137 O   0  0  0  0  0  0  0  0  0  0  0  0
    8.4048  -17.2343   23.7912 C   0  0  0  0  0  0  0  0  0  0  0  0
    8.1193  -15.8325   23.3435 C   0  0  2  0  0  0  0  0  0  0  0  0
    8.6974  -15.5214   22.0536 N   0  0  0  0  0  0  0  0  0  0  0  0
    8.5185  -14.8287   24.3756 C   0  0  0  0  0  0  0  0  0  0  0  0
    9.6807  -14.3473   24.4044 O   0  0  0  0  0  0  0  0  0  0  0  0
    6.3781  -11.7198   25.5995 C   0  0  0  0  0  0  0  0  0  0  0  0
    6.6942  -12.6777   26.7400 C   0  0  1  0  0  0  0  0  0  0  0  0
    5.6561  -13.6045   26.8346 O   0  0  0  0  0  0  0  0  0  0  0  0
    7.9424  -13.4618   26.3709 C   0  0  2  0  0  0  0  0  0  0  0  0
    7.5755  -14.4124   25.3356 N   0  0  0  0  0  0  0  0  0  0  0  0
    8.4416  -14.1984   27.5615 C   0  0  0  0  0  0  0  0  0  0  0  0
    8.4282  -15.4486   27.5867 O   0  0  0  0  0  0  0  0  0  0  0  0
    8.9283  -13.5024   28.6587 O   0  0  0  0  0  0  0  0  0  0  0  0
  2  1  1  1
  2  4  1  0
  3  2  1  0
  4  5  1  6
  6  4  1  0
  7  6  2  0
  9 10  1  0
  9  8  1  1
 10  6  1  0
 11  9  1  0
 12 11  2  0
 14 13  1  6
 14 15  1  0
 16 14  1  0
 16 17  1  6
 17 11  1  0
 18 20  1  0
 18 16  1  0
 19 18  2  0
M  END
$$$$
