VAT.pdb
     RDKit          3D

 20 19  0  0  1  0  0  0  0  0999 V2000
    3.9906  -20.6043   21.3247 C   0  0  0  0  0  0  0  0  0  0  0  0
    4.7968  -20.0865   22.4839 C   0  0  1  0  0  0  0  0  0  0  0  0
    5.7749  -21.1824   22.8741 C   0  0  0  0  0  0  0  0  0  0  0  0
    5.6003  -18.8939   22.0725 C   0  0  2  0  0  0  0  0  0  0  0  0
    6.3919  -19.2932   20.8799 N   0  0  0  0  0  0  0  0  0  0  0  0
    6.5313  -18.3573   23.0496 C   0  0  0  0  0  0  0  0  0  0  0  0
    7.7350  -18.7964   23.0316 O   0  0  0  0  0  0  0  0  0  0  0  0
    6.8736  -15.6637   25.6813 C   0  0  0  0  0  0  0  0  0  0  0  0
    7.2603  -16.9452   25.0067 C   0  0  2  0  0  0  0  0  0  0  0  0
    6.2819  -17.3927   24.0384 N   0  0  0  0  0  0  0  0  0  0  0  0
    7.5778  -18.0188   25.9960 C   0  0  0  0  0  0  0  0  0  0  0  0
    6.6692  -18.6027   26.6415 O   0  0  0  0  0  0  0  0  0  0  0  0
    8.8886  -21.1268   25.3953 C   0  0  0  0  0  0  0  0  0  0  0  0
    9.9150  -20.5634   26.3685 C   0  0  1  0  0  0  0  0  0  0  0  0
   10.9478  -19.9853   25.6304 O   0  0  0  0  0  0  0  0  0  0  0  0
    9.2603  -19.4381   27.1520 C   0  0  2  0  0  0  0  0  0  0  0  0
    8.9209  -18.3851   26.2108 N   0  0  0  0  0  0  0  0  0  0  0  0
   10.2151  -18.9084   28.1606 C   0  0  0  0  0  0  0  0  0  0  0  0
   10.7560  -17.7926   27.9987 O   0  0  0  0  0  0  0  0  0  0  0  0
   10.5152  -19.6502   29.2940 O   0  0  0  0  0  0  0  0  0  0  0  0
  2  1  1  6
  2  4  1  0
  3  2  1  0
  4  5  1  6
  6  4  1  0
  7  6  2  0
  9 10  1  0
  9  8  1  1
 10  6  1  0
 11  9  1  0
 12 11  2  0
 14 13  1  6
 14 15  1  0
 16 14  1  0
 16 17  1  6
 17 11  1  0
 18 20  1  0
 18 16  1  0
 19 18  2  0
M  END
$$$$
