VDR.pdb
     RDKit          3D

 27 26  0  0  1  0  0  0  0  0999 V2000
   26.1879  -21.1922   -9.3255 C   0  0  0  0  0  0  0  0  0  0  0  0
   27.6076  -20.7664   -9.7036 C   0  0  1  0  0  0  0  0  0  0  0  0
   28.6176  -21.3116   -8.7376 C   0  0  0  0  0  0  0  0  0  0  0  0
   27.8617  -21.1820  -11.1208 C   0  0  2  0  0  0  0  0  0  0  0  0
   29.2211  -21.0279  -11.5363 N   0  0  0  0  0  0  0  0  0  0  0  0
   26.8865  -20.5129  -12.0206 C   0  0  0  0  0  0  0  0  0  0  0  0
   27.0592  -19.2907  -12.2363 O   0  0  0  0  0  0  0  0  0  0  0  0
   25.8030  -21.2070  -12.6180 N   0  0  0  0  0  0  0  0  0  0  0  0
   24.9032  -20.5359  -13.5338 C   0  0  1  0  0  0  0  0  0  0  0  0
   25.2879  -20.7029  -14.9689 C   0  0  0  0  0  0  0  0  0  0  0  0
   24.4509  -19.9386  -15.9090 C   0  0  0  0  0  0  0  0  0  0  0  0
   23.2226  -20.1940  -15.9448 O   0  0  0  0  0  0  0  0  0  0  0  0
   23.5070  -21.0162  -13.3854 C   0  0  0  0  0  0  0  0  0  0  0  0
   23.1990  -22.1557  -13.8065 O   0  0  0  0  0  0  0  0  0  0  0  0
   24.9333  -18.9544  -16.7574 O   0  0  0  0  0  0  0  0  0  0  0  0
   16.1575  -17.6098  -13.6826 N   0  0  0  0  0  0  0  0  0  0  0  0
   15.9221  -18.8490  -14.3832 C   0  0  0  0  0  0  0  0  0  0  0  0
   14.7091  -19.1979  -14.6273 N   0  0  0  0  0  0  0  0  0  0  0  0
   16.9835  -19.6679  -14.7965 N   0  0  0  0  0  0  0  0  0  0  0  0
   18.1203  -19.9275  -13.8693 C   0  0  0  0  0  0  0  0  0  0  0  0
   19.3115  -19.1990  -14.3530 C   0  0  0  0  0  0  0  0  0  0  0  0
   20.6088  -19.3364  -13.7350 C   0  0  0  0  0  0  0  0  0  0  0  0
   21.0939  -20.4851  -12.9583 C   0  0  2  0  0  0  0  0  0  0  0  0
   22.5529  -20.2056  -12.7842 N   0  0  0  0  0  0  0  0  0  0  0  0
   20.9526  -21.8413  -13.4639 C   0  0  0  0  0  0  0  0  0  0  0  0
   20.3432  -22.7055  -12.7327 O   0  0  0  0  0  0  0  0  0  0  0  0
   21.3983  -22.3090  -14.6569 O   0  0  0  0  0  0  0  0  0  0  0  0
  2  1  1  1
  3  2  1  0
  4  2  1  0
  4  5  1  6
  6  7  2  0
  6  4  1  0
  8  6  1  0
  9  8  1  0
 10 11  1  0
  9 10  1  6
 11 12  2  0
 13 24  1  0
 13  9  1  0
 14 13  2  0
 15 11  1  0
 17 16  1  0
 18 17  2  0
 19 17  1  0
 20 21  1  0
 20 19  1  0
 23 22  1  6
 22 21  1  0
 23 25  1  0
 23 24  1  0
 25 27  1  0
 26 25  2  0
M  END
$$$$
