VDR.pdb
     RDKit          3D

 27 26  0  0  1  0  0  0  0  0999 V2000
   15.3060  -25.9094   -4.9110 C   0  0  0  0  0  0  0  0  0  0  0  0
   16.0887  -25.4154   -6.1287 C   0  0  1  0  0  0  0  0  0  0  0  0
   16.2404  -23.9230   -6.1127 C   0  0  0  0  0  0  0  0  0  0  0  0
   17.3989  -26.1416   -6.1722 C   0  0  2  0  0  0  0  0  0  0  0  0
   18.2066  -25.9525   -5.0076 N   0  0  0  0  0  0  0  0  0  0  0  0
   18.1040  -25.8252   -7.4415 C   0  0  0  0  0  0  0  0  0  0  0  0
   19.2695  -25.3747   -7.3461 O   0  0  0  0  0  0  0  0  0  0  0  0
   17.5041  -26.0168   -8.7127 N   0  0  0  0  0  0  0  0  0  0  0  0
   18.2572  -25.8014   -9.9314 C   0  0  1  0  0  0  0  0  0  0  0  0
   17.9307  -26.7849  -11.0093 C   0  0  0  0  0  0  0  0  0  0  0  0
   18.4228  -28.1481  -10.7489 C   0  0  0  0  0  0  0  0  0  0  0  0
   19.6369  -28.2913  -10.4646 O   0  0  0  0  0  0  0  0  0  0  0  0
   18.0352  -24.4419  -10.4832 C   0  0  0  0  0  0  0  0  0  0  0  0
   16.9673  -23.8388  -10.2257 O   0  0  0  0  0  0  0  0  0  0  0  0
   17.6303  -29.2842  -10.7978 O   0  0  0  0  0  0  0  0  0  0  0  0
   24.1126  -19.8206  -15.2007 N   0  0  0  0  0  0  0  0  0  0  0  0
   22.9046  -19.0316  -15.2096 C   0  0  0  0  0  0  0  0  0  0  0  0
   22.8904  -17.9343  -15.8793 N   0  0  0  0  0  0  0  0  0  0  0  0
   21.7604  -19.4388  -14.5074 N   0  0  0  0  0  0  0  0  0  0  0  0
   21.7839  -20.7102  -13.7313 C   0  0  0  0  0  0  0  0  0  0  0  0
   20.4567  -20.9236  -13.1176 C   0  0  0  0  0  0  0  0  0  0  0  0
   20.1052  -22.1460  -12.4349 C   0  0  0  0  0  0  0  0  0  0  0  0
   18.8116  -22.4650  -11.8161 C   0  0  2  0  0  0  0  0  0  0  0  0
   19.0063  -23.8469  -11.2780 N   0  0  0  0  0  0  0  0  0  0  0  0
   17.5866  -22.4557  -12.5999 C   0  0  0  0  0  0  0  0  0  0  0  0
   17.3396  -23.4631  -13.3594 O   0  0  0  0  0  0  0  0  0  0  0  0
   16.6453  -21.4788  -12.6156 O   0  0  0  0  0  0  0  0  0  0  0  0
  2  1  1  1
  3  2  1  0
  4  2  1  0
  4  5  1  1
  6  7  2  0
  6  4  1  0
  8  6  1  0
  9  8  1  0
 10 11  1  0
  9 10  1  6
 11 12  2  0
 13 24  1  0
 13  9  1  0
 14 13  2  0
 15 11  1  0
 17 16  1  0
 18 17  2  0
 19 17  1  0
 20 21  1  0
 20 19  1  0
 23 22  1  6
 22 21  1  0
 23 25  1  0
 23 24  1  0
 25 27  1  0
 26 25  2  0
M  END
$$$$
