VDR.pdb
     RDKit          3D

 27 26  0  0  1  0  0  0  0  0999 V2000
   16.2634  -18.1011  -16.8772 C   0  0  0  0  0  0  0  0  0  0  0  0
   17.5880  -18.3618  -17.5965 C   0  0  1  0  0  0  0  0  0  0  0  0
   17.6028  -17.7348  -18.9592 C   0  0  0  0  0  0  0  0  0  0  0  0
   18.7032  -17.8863  -16.7156 C   0  0  2  0  0  0  0  0  0  0  0  0
   18.5839  -16.5192  -16.3145 N   0  0  0  0  0  0  0  0  0  0  0  0
   20.0100  -18.2083  -17.3457 C   0  0  0  0  0  0  0  0  0  0  0  0
   20.3340  -19.4178  -17.3941 O   0  0  0  0  0  0  0  0  0  0  0  0
   20.8663  -17.2081  -17.8742 N   0  0  0  0  0  0  0  0  0  0  0  0
   22.1602  -17.5522  -18.4274 C   0  0  1  0  0  0  0  0  0  0  0  0
   22.6259  -16.5971  -19.4793 C   0  0  0  0  0  0  0  0  0  0  0  0
   23.0538  -15.2885  -18.9569 C   0  0  0  0  0  0  0  0  0  0  0  0
   22.4668  -14.8393  -17.9425 O   0  0  0  0  0  0  0  0  0  0  0  0
   23.2093  -17.6110  -17.3797 C   0  0  0  0  0  0  0  0  0  0  0  0
   23.0738  -16.9354  -16.3329 O   0  0  0  0  0  0  0  0  0  0  0  0
   24.0642  -14.5207  -19.5143 O   0  0  0  0  0  0  0  0  0  0  0  0
   25.3667  -22.7319  -12.7266 N   0  0  0  0  0  0  0  0  0  0  0  0
   25.5624  -21.7547  -11.6831 C   0  0  0  0  0  0  0  0  0  0  0  0
   26.1362  -22.1236  -10.5934 N   0  0  0  0  0  0  0  0  0  0  0  0
   25.1412  -20.4256  -11.8382 N   0  0  0  0  0  0  0  0  0  0  0  0
   24.2792  -20.0543  -12.9951 C   0  0  0  0  0  0  0  0  0  0  0  0
   25.1363  -19.5733  -14.0986 C   0  0  0  0  0  0  0  0  0  0  0  0
   24.5958  -19.0953  -15.3489 C   0  0  0  0  0  0  0  0  0  0  0  0
   25.3548  -18.5475  -16.4811 C   0  0  2  0  0  0  0  0  0  0  0  0
   24.3305  -18.4100  -17.5623 N   0  0  0  0  0  0  0  0  0  0  0  0
   26.4960  -19.2622  -17.0304 C   0  0  0  0  0  0  0  0  0  0  0  0
   26.2808  -20.1661  -17.9188 O   0  0  0  0  0  0  0  0  0  0  0  0
   27.7998  -19.0726  -16.7065 O   0  0  0  0  0  0  0  0  0  0  0  0
  2  1  1  1
  3  2  1  0
  4  2  1  0
  4  5  1  6
  6  7  2  0
  6  4  1  0
  8  6  1  0
  9  8  1  0
 10 11  1  0
  9 10  1  6
 11 12  2  0
 13 24  1  0
 13  9  1  0
 14 13  2  0
 15 11  1  0
 17 16  1  0
 18 17  2  0
 19 17  1  0
 20 21  1  0
 20 19  1  0
 23 22  1  1
 22 21  1  0
 23 25  1  0
 23 24  1  0
 25 27  1  0
 26 25  2  0
M  END
$$$$
