VDR.pdb
     RDKit          3D

 27 26  0  0  1  0  0  0  0  0999 V2000
   28.7241  -21.6250  -16.5158 C   0  0  0  0  0  0  0  0  0  0  0  0
   27.6859  -22.0270  -15.4668 C   0  0  1  0  0  0  0  0  0  0  0  0
   28.2840  -22.0638  -14.0915 C   0  0  0  0  0  0  0  0  0  0  0  0
   26.5188  -21.0937  -15.5783 C   0  0  2  0  0  0  0  0  0  0  0  0
   26.8672  -19.7118  -15.4635 N   0  0  0  0  0  0  0  0  0  0  0  0
   25.4489  -21.5164  -14.6375 C   0  0  0  0  0  0  0  0  0  0  0  0
   24.9934  -22.6750  -14.7797 O   0  0  0  0  0  0  0  0  0  0  0  0
   24.9519  -20.6635  -13.6185 N   0  0  0  0  0  0  0  0  0  0  0  0
   23.9352  -21.1221  -12.6941 C   0  0  1  0  0  0  0  0  0  0  0  0
   24.0714  -20.5335  -11.3264 C   0  0  0  0  0  0  0  0  0  0  0  0
   25.1933  -21.0808  -10.5451 C   0  0  0  0  0  0  0  0  0  0  0  0
   25.8309  -22.0477  -11.0285 O   0  0  0  0  0  0  0  0  0  0  0  0
   22.5680  -20.8125  -13.1808 C   0  0  0  0  0  0  0  0  0  0  0  0
   22.3502  -19.7191  -13.7533 O   0  0  0  0  0  0  0  0  0  0  0  0
   25.5904  -20.5958   -9.3088 O   0  0  0  0  0  0  0  0  0  0  0  0
   17.9627  -27.9202  -13.8618 N   0  0  0  0  0  0  0  0  0  0  0  0
   19.0887  -27.6038  -14.7069 C   0  0  0  0  0  0  0  0  0  0  0  0
   19.5834  -28.5313  -15.4469 N   0  0  0  0  0  0  0  0  0  0  0  0
   19.6441  -26.3158  -14.7324 N   0  0  0  0  0  0  0  0  0  0  0  0
   19.0560  -25.2411  -13.8848 C   0  0  0  0  0  0  0  0  0  0  0  0
   19.8171  -23.9920  -14.0952 C   0  0  0  0  0  0  0  0  0  0  0  0
   19.4907  -22.7609  -13.4158 C   0  0  0  0  0  0  0  0  0  0  0  0
   20.1781  -21.4705  -13.5587 C   0  0  2  0  0  0  0  0  0  0  0  0
   21.5414  -21.7304  -13.0011 N   0  0  0  0  0  0  0  0  0  0  0  0
   19.6537  -20.2712  -12.9250 C   0  0  0  0  0  0  0  0  0  0  0  0
   19.9215  -20.0690  -11.6840 O   0  0  0  0  0  0  0  0  0  0  0  0
   18.8976  -19.3111  -13.5143 O   0  0  0  0  0  0  0  0  0  0  0  0
  2  1  1  6
  3  2  1  0
  4  2  1  0
  4  5  1  1
  6  7  2  0
  6  4  1  0
  8  6  1  0
  9  8  1  0
 10 11  1  0
  9 10  1  1
 11 12  2  0
 13 24  1  0
 13  9  1  0
 14 13  2  0
 15 11  1  0
 17 16  1  0
 18 17  2  0
 19 17  1  0
 20 21  1  0
 20 19  1  0
 23 22  1  1
 22 21  1  0
 23 25  1  0
 23 24  1  0
 25 27  1  0
 26 25  2  0
M  END
$$$$
