VDR.pdb
     RDKit          3D

 27 26  0  0  1  0  0  0  0  0999 V2000
   14.7391  -12.9376  -14.7983 C   0  0  0  0  0  0  0  0  0  0  0  0
   15.4361  -12.6262  -16.1238 C   0  0  1  0  0  0  0  0  0  0  0  0
   14.8929  -11.3740  -16.7462 C   0  0  0  0  0  0  0  0  0  0  0  0
   16.9131  -12.5702  -15.8770 C   0  0  2  0  0  0  0  0  0  0  0  0
   17.4658  -13.7922  -15.3814 N   0  0  0  0  0  0  0  0  0  0  0  0
   17.2349  -11.3886  -15.0352 C   0  0  0  0  0  0  0  0  0  0  0  0
   17.2217  -11.5559  -13.7934 O   0  0  0  0  0  0  0  0  0  0  0  0
   17.5455  -10.1209  -15.5912 N   0  0  0  0  0  0  0  0  0  0  0  0
   17.9217   -9.0081  -14.7434 C   0  0  1  0  0  0  0  0  0  0  0  0
   19.2333   -8.3963  -15.1188 C   0  0  0  0  0  0  0  0  0  0  0  0
   19.6787   -7.3247  -14.2123 C   0  0  0  0  0  0  0  0  0  0  0  0
   18.9898   -7.0958  -13.1884 O   0  0  0  0  0  0  0  0  0  0  0  0
   16.9021   -7.9301  -14.7645 C   0  0  0  0  0  0  0  0  0  0  0  0
   16.5968   -7.3915  -15.8542 O   0  0  0  0  0  0  0  0  0  0  0  0
   20.8109   -6.5520  -14.4177 O   0  0  0  0  0  0  0  0  0  0  0  0
   10.4588   -8.0567   -9.0082 N   0  0  0  0  0  0  0  0  0  0  0  0
   10.1863   -8.4529  -10.3687 C   0  0  0  0  0  0  0  0  0  0  0  0
    9.0949   -9.0843  -10.6196 N   0  0  0  0  0  0  0  0  0  0  0  0
   11.0831   -8.1631  -11.4078 N   0  0  0  0  0  0  0  0  0  0  0  0
   12.4273   -7.6055  -11.0892 C   0  0  0  0  0  0  0  0  0  0  0  0
   13.1743   -7.4019  -12.3478 C   0  0  0  0  0  0  0  0  0  0  0  0
   14.4525   -6.7326  -12.3918 C   0  0  0  0  0  0  0  0  0  0  0  0
   15.2544   -6.4495  -13.5896 C   0  0  2  0  0  0  0  0  0  0  0  0
   16.2940   -7.5248  -13.5835 N   0  0  0  0  0  0  0  0  0  0  0  0
   15.9295   -5.1716  -13.7512 C   0  0  0  0  0  0  0  0  0  0  0  0
   17.1517   -5.0732  -13.3648 O   0  0  0  0  0  0  0  0  0  0  0  0
   15.4019   -4.0412  -14.2846 O   0  0  0  0  0  0  0  0  0  0  0  0
  2  1  1  1
  3  2  1  0
  4  2  1  0
  4  5  1  1
  6  7  2  0
  6  4  1  0
  8  6  1  0
  9  8  1  0
 10 11  1  0
  9 10  1  6
 11 12  2  0
 13 24  1  0
 13  9  1  0
 14 13  2  0
 15 11  1  0
 17 16  1  0
 18 17  2  0
 19 17  1  0
 20 21  1  0
 20 19  1  0
 23 22  1  1
 22 21  1  0
 23 25  1  0
 23 24  1  0
 25 27  1  0
 26 25  2  0
M  END
$$$$
