VDR.pdb
     RDKit          3D

 27 26  0  0  1  0  0  0  0  0999 V2000
   18.0185  -14.8281  -17.0959 C   0  0  0  0  0  0  0  0  0  0  0  0
   18.4198  -13.5787  -16.3100 C   0  0  1  0  0  0  0  0  0  0  0  0
   19.8939  -13.5575  -16.0321 C   0  0  0  0  0  0  0  0  0  0  0  0
   17.9441  -12.3749  -17.0651 C   0  0  2  0  0  0  0  0  0  0  0  0
   18.3690  -12.3400  -18.4298 N   0  0  0  0  0  0  0  0  0  0  0  0
   18.2825  -11.1427  -16.3063 C   0  0  0  0  0  0  0  0  0  0  0  0
   17.7269  -10.9911  -15.1934 O   0  0  0  0  0  0  0  0  0  0  0  0
   19.1897  -10.1705  -16.8006 N   0  0  0  0  0  0  0  0  0  0  0  0
   19.5030   -8.9846  -16.0298 C   0  0  1  0  0  0  0  0  0  0  0  0
   20.9370   -8.5741  -16.1337 C   0  0  0  0  0  0  0  0  0  0  0  0
   21.3107   -7.4631  -15.2424 C   0  0  0  0  0  0  0  0  0  0  0  0
   20.4369   -7.0170  -14.4597 O   0  0  0  0  0  0  0  0  0  0  0  0
   18.6740   -7.8249  -16.4418 C   0  0  0  0  0  0  0  0  0  0  0  0
   18.5844   -7.5317  -17.6569 O   0  0  0  0  0  0  0  0  0  0  0  0
   22.5669   -6.8781  -15.2126 O   0  0  0  0  0  0  0  0  0  0  0  0
   10.9040   -8.0740  -15.3259 N   0  0  0  0  0  0  0  0  0  0  0  0
   12.0083   -8.4439  -16.1778 C   0  0  0  0  0  0  0  0  0  0  0  0
   11.9150   -9.5200  -16.8750 N   0  0  0  0  0  0  0  0  0  0  0  0
   13.1670   -7.6569  -16.2553 N   0  0  0  0  0  0  0  0  0  0  0  0
   13.2126   -6.3393  -15.5617 C   0  0  0  0  0  0  0  0  0  0  0  0
   14.5326   -5.7178  -15.7960 C   0  0  0  0  0  0  0  0  0  0  0  0
   15.7659   -6.4640  -15.7200 C   0  0  0  0  0  0  0  0  0  0  0  0
   17.1252   -5.9325  -15.8869 C   0  0  2  0  0  0  0  0  0  0  0  0
   18.0047   -7.0735  -15.4846 N   0  0  0  0  0  0  0  0  0  0  0  0
   17.5594   -4.7509  -15.1588 C   0  0  0  0  0  0  0  0  0  0  0  0
   18.2411   -4.9137  -14.0810 O   0  0  0  0  0  0  0  0  0  0  0  0
   17.3250   -3.4594  -15.5018 O   0  0  0  0  0  0  0  0  0  0  0  0
  2  1  1  6
  3  2  1  0
  4  2  1  0
  4  5  1  6
  6  7  2  0
  6  4  1  0
  8  6  1  0
  9  8  1  0
 10 11  1  0
  9 10  1  6
 11 12  2  0
 13 24  1  0
 13  9  1  0
 14 13  2  0
 15 11  1  0
 17 16  1  0
 18 17  2  0
 19 17  1  0
 20 21  1  0
 20 19  1  0
 23 22  1  1
 22 21  1  0
 23 25  1  0
 23 24  1  0
 25 27  1  0
 26 25  2  0
M  END
$$$$
