VDR.pdb
     RDKit          3D

 27 26  0  0  1  0  0  0  0  0999 V2000
   19.6861  -10.8367  -15.0194 C   0  0  0  0  0  0  0  0  0  0  0  0
   19.8573   -9.6426  -15.9599 C   0  0  1  0  0  0  0  0  0  0  0  0
   19.7504  -10.0589  -17.3972 C   0  0  0  0  0  0  0  0  0  0  0  0
   18.8602   -8.5927  -15.5736 C   0  0  2  0  0  0  0  0  0  0  0  0
   18.7410   -7.5285  -16.5209 N   0  0  0  0  0  0  0  0  0  0  0  0
   19.1352   -8.1273  -14.1893 C   0  0  0  0  0  0  0  0  0  0  0  0
   19.1367   -8.9977  -13.2878 O   0  0  0  0  0  0  0  0  0  0  0  0
   19.3867   -6.7656  -13.8809 N   0  0  0  0  0  0  0  0  0  0  0  0
   19.5593   -6.3326  -12.5093 C   0  0  1  0  0  0  0  0  0  0  0  0
   20.4796   -5.1624  -12.3705 C   0  0  0  0  0  0  0  0  0  0  0  0
   21.8543   -5.4203  -12.8310 C   0  0  0  0  0  0  0  0  0  0  0  0
   22.3640   -6.5363  -12.5664 O   0  0  0  0  0  0  0  0  0  0  0  0
   18.2667   -5.9628  -11.8814 C   0  0  0  0  0  0  0  0  0  0  0  0
   17.5626   -5.0662  -12.4019 O   0  0  0  0  0  0  0  0  0  0  0  0
   22.6220   -4.5086  -13.5386 O   0  0  0  0  0  0  0  0  0  0  0  0
   11.9941  -11.0130   -8.7235 N   0  0  0  0  0  0  0  0  0  0  0  0
   11.6836   -9.7008   -8.2099 C   0  0  0  0  0  0  0  0  0  0  0  0
   10.5451   -9.5149   -7.6425 N   0  0  0  0  0  0  0  0  0  0  0  0
   12.5938   -8.6390   -8.3192 N   0  0  0  0  0  0  0  0  0  0  0  0
   13.8687   -8.8330   -9.0652 C   0  0  0  0  0  0  0  0  0  0  0  0
   14.5809   -7.5407   -9.1446 C   0  0  0  0  0  0  0  0  0  0  0  0
   15.8875   -7.4106   -9.7444 C   0  0  0  0  0  0  0  0  0  0  0  0
   16.6119   -6.1600  -10.0078 C   0  0  2  0  0  0  0  0  0  0  0  0
   17.8448   -6.6081  -10.7262 N   0  0  0  0  0  0  0  0  0  0  0  0
   17.0183   -5.2887   -8.9166 C   0  0  0  0  0  0  0  0  0  0  0  0
   16.1708   -4.4302   -8.4723 O   0  0  0  0  0  0  0  0  0  0  0  0
   18.2230   -5.2840   -8.2927 O   0  0  0  0  0  0  0  0  0  0  0  0
  2  1  1  1
  3  2  1  0
  4  2  1  0
  4  5  1  6
  6  7  2  0
  6  4  1  0
  8  6  1  0
  9  8  1  0
 10 11  1  0
  9 10  1  6
 11 12  2  0
 13 24  1  0
 13  9  1  0
 14 13  2  0
 15 11  1  0
 17 16  1  0
 18 17  2  0
 19 17  1  0
 20 21  1  0
 20 19  1  0
 23 22  1  1
 22 21  1  0
 23 25  1  0
 23 24  1  0
 25 27  1  0
 26 25  2  0
M  END
$$$$
