VDR.pdb
     RDKit          3D

 27 26  0  0  1  0  0  0  0  0999 V2000
   14.6770  -10.8780  -15.5758 C   0  0  0  0  0  0  0  0  0  0  0  0
   15.2857  -12.2771  -15.4669 C   0  0  1  0  0  0  0  0  0  0  0  0
   14.3783  -13.3157  -16.0573 C   0  0  0  0  0  0  0  0  0  0  0  0
   16.6434  -12.2501  -16.1007 C   0  0  2  0  0  0  0  0  0  0  0  0
   17.3000  -13.5200  -16.1213 N   0  0  0  0  0  0  0  0  0  0  0  0
   17.4596  -11.1696  -15.4886 C   0  0  0  0  0  0  0  0  0  0  0  0
   17.7027  -11.2670  -14.2632 O   0  0  0  0  0  0  0  0  0  0  0  0
   17.9506  -10.0700  -16.2386 N   0  0  0  0  0  0  0  0  0  0  0  0
   18.6915   -9.0030  -15.5972 C   0  0  1  0  0  0  0  0  0  0  0  0
   19.6528   -8.3170  -16.5143 C   0  0  0  0  0  0  0  0  0  0  0  0
   20.4253   -7.2371  -15.8775 C   0  0  0  0  0  0  0  0  0  0  0  0
   20.1871   -6.9741  -14.6736 O   0  0  0  0  0  0  0  0  0  0  0  0
   17.7900   -7.9663  -15.0363 C   0  0  0  0  0  0  0  0  0  0  0  0
   16.8299   -7.5467  -15.7238 O   0  0  0  0  0  0  0  0  0  0  0  0
   21.3993   -6.4919  -16.5233 O   0  0  0  0  0  0  0  0  0  0  0  0
   13.9300   -7.7138   -7.3580 N   0  0  0  0  0  0  0  0  0  0  0  0
   13.8569   -6.3475   -7.8163 C   0  0  0  0  0  0  0  0  0  0  0  0
   13.2431   -5.4851   -7.0867 N   0  0  0  0  0  0  0  0  0  0  0  0
   14.4380   -5.9517   -9.0302 N   0  0  0  0  0  0  0  0  0  0  0  0
   15.1675   -6.9509   -9.8601 C   0  0  0  0  0  0  0  0  0  0  0  0
   15.6963   -6.2803  -11.0661 C   0  0  0  0  0  0  0  0  0  0  0  0
   16.5664   -6.9466  -12.0057 C   0  0  0  0  0  0  0  0  0  0  0  0
   17.1670   -6.3624  -13.2123 C   0  0  2  0  0  0  0  0  0  0  0  0
   18.0128   -7.4682  -13.7592 N   0  0  0  0  0  0  0  0  0  0  0  0
   17.9882   -5.1648  -13.1326 C   0  0  0  0  0  0  0  0  0  0  0  0
   19.2478   -5.3012  -12.9142 O   0  0  0  0  0  0  0  0  0  0  0  0
   17.5640   -3.8838  -13.2731 O   0  0  0  0  0  0  0  0  0  0  0  0
  2  1  1  6
  3  2  1  0
  4  2  1  0
  4  5  1  1
  6  7  2  0
  6  4  1  0
  8  6  1  0
  9  8  1  0
 10 11  1  0
  9 10  1  6
 11 12  2  0
 13 24  1  0
 13  9  1  0
 14 13  2  0
 15 11  1  0
 17 16  1  0
 18 17  2  0
 19 17  1  0
 20 21  1  0
 20 19  1  0
 23 22  1  1
 22 21  1  0
 23 25  1  0
 23 24  1  0
 25 27  1  0
 26 25  2  0
M  END
$$$$
