FHM.pdb
     RDKit          3D

 30 31  0  0  1  0  0  0  0  0999 V2000
    5.8024  -17.3851   24.3554 N   0  0  0  0  0  0  0  0  0  0  0  0
    6.8549  -16.3824   24.4827 C   0  0  1  0  0  0  0  0  0  0  0  0
    6.9638  -15.8201   25.8354 C   0  0  0  0  0  0  0  0  0  0  0  0
    6.9383  -14.3457   25.8531 C   0  0  0  0  0  0  0  0  0  0  0  0
    5.9910  -13.6208   26.5433 C   0  0  0  0  0  0  0  0  0  0  0  0
    5.9433  -12.2437   26.5570 C   0  0  0  0  0  0  0  0  0  0  0  0
    6.8886  -11.5254   25.8471 C   0  0  0  0  0  0  0  0  0  0  0  0
    7.8508  -12.2109   25.1467 C   0  0  0  0  0  0  0  0  0  0  0  0
    7.8763  -13.5936   25.1484 C   0  0  0  0  0  0  0  0  0  0  0  0
    8.1100  -16.8041   23.8863 C   0  0  0  0  0  0  0  0  0  0  0  0
    8.6149  -17.9487   24.1491 O   0  0  0  0  0  0  0  0  0  0  0  0
    8.8364  -15.9896   22.9897 N   0  0  0  0  0  0  0  0  0  0  0  0
   10.2065  -16.3157   22.5933 C   0  0  1  0  0  0  0  0  0  0  0  0
   10.5594  -15.7567   21.2606 C   0  0  0  0  0  0  0  0  0  0  0  0
    9.3805  -15.8318   20.3475 C   0  0  0  0  0  0  0  0  0  0  0  0
    8.7822  -16.9792   19.8218 C   0  0  0  0  0  0  0  0  0  0  0  0
    7.7470  -16.6184   19.0431 N   0  0  0  0  0  0  0  0  0  0  0  0
    7.6584  -15.2778   19.0494 C   0  0  0  0  0  0  0  0  0  0  0  0
    8.6593  -14.8119   19.8483 N   0  0  0  0  0  0  0  0  0  0  0  0
   11.2014  -16.1712   23.6520 C   0  0  0  0  0  0  0  0  0  0  0  0
   11.8017  -15.0834   23.8132 O   0  0  0  0  0  0  0  0  0  0  0  0
    9.4584  -13.8937   28.4136 C   0  0  0  0  0  0  0  0  0  0  0  0
    9.9984  -15.4104   29.2313 S   0  0  0  0  0  0  0  0  0  0  0  0
   11.2309  -16.2152   28.1939 C   0  0  0  0  0  0  0  0  0  0  0  0
   10.8183  -16.3476   26.7508 C   0  0  0  0  0  0  0  0  0  0  0  0
   11.8733  -17.0485   25.9211 C   0  0  2  0  0  0  0  0  0  0  0  0
   11.5482  -17.2236   24.5490 N   0  0  0  0  0  0  0  0  0  0  0  0
   12.3160  -18.2515   26.6211 C   0  0  0  0  0  0  0  0  0  0  0  0
   13.2873  -18.1950   27.4093 O   0  0  0  0  0  0  0  0  0  0  0  0
   11.6898  -19.4729   26.4409 O   0  0  0  0  0  0  0  0  0  0  0  0
  2  1  1  1
  2  3  1  0
  3  4  1  0
  4  5  2  0
  5  6  1  0
  7  6  2  0
  8  7  1  0
  9  4  1  0
  9  8  2  0
 10 11  2  0
 10  2  1  0
 12 10  1  0
 13 12  1  0
 14 15  1  0
 13 14  1  6
 15 19  1  0
 15 16  2  0
 16 17  1  0
 18 17  1  0
 19 18  2  0
 20 21  2  0
 20 13  1  0
 23 22  1  0
 24 23  1  0
 24 25  1  0
 26 25  1  1
 26 27  1  0
 27 20  1  0
 28 26  1  0
 29 28  2  0
 30 28  1  0
M  END
$$$$
