FHM.pdb
     RDKit          3D

 30 31  0  0  1  0  0  0  0  0999 V2000
    6.1107  -18.5904   25.2799 N   0  0  0  0  0  0  0  0  0  0  0  0
    6.4660  -17.1800   25.1628 C   0  0  1  0  0  0  0  0  0  0  0  0
    6.6240  -16.5090   26.4600 C   0  0  0  0  0  0  0  0  0  0  0  0
    6.4289  -15.0492   26.3841 C   0  0  0  0  0  0  0  0  0  0  0  0
    7.4091  -14.1837   25.9490 C   0  0  0  0  0  0  0  0  0  0  0  0
    7.2486  -12.8165   25.8874 C   0  0  0  0  0  0  0  0  0  0  0  0
    6.0453  -12.2568   26.2774 C   0  0  0  0  0  0  0  0  0  0  0  0
    5.0421  -13.0857   26.7165 C   0  0  0  0  0  0  0  0  0  0  0  0
    5.2287  -14.4549   26.7697 C   0  0  0  0  0  0  0  0  0  0  0  0
    7.5382  -16.9460   24.2118 C   0  0  0  0  0  0  0  0  0  0  0  0
    8.5593  -17.7139   24.1651 O   0  0  0  0  0  0  0  0  0  0  0  0
    7.5170  -15.8749   23.2915 N   0  0  0  0  0  0  0  0  0  0  0  0
    8.5229  -15.7482   22.2367 C   0  0  1  0  0  0  0  0  0  0  0  0
    8.1454  -14.7383   21.2116 C   0  0  0  0  0  0  0  0  0  0  0  0
    9.0633  -14.8349   20.0380 C   0  0  0  0  0  0  0  0  0  0  0  0
    8.8386  -15.5065   18.8341 C   0  0  0  0  0  0  0  0  0  0  0  0
    9.9108  -15.3524   18.0374 N   0  0  0  0  0  0  0  0  0  0  0  0
   10.8182  -14.6045   18.6872 C   0  0  0  0  0  0  0  0  0  0  0  0
   10.2885  -14.2961   19.9044 N   0  0  0  0  0  0  0  0  0  0  0  0
    9.9046  -15.7233   22.7075 C   0  0  0  0  0  0  0  0  0  0  0  0
   10.7917  -15.1444   22.0385 O   0  0  0  0  0  0  0  0  0  0  0  0
   10.3032  -13.4490   28.6081 C   0  0  0  0  0  0  0  0  0  0  0  0
   10.7173  -15.1652   28.2289 S   0  0  0  0  0  0  0  0  0  0  0  0
   10.6274  -15.3977   26.4454 C   0  0  0  0  0  0  0  0  0  0  0  0
   11.8569  -16.0359   25.8526 C   0  0  0  0  0  0  0  0  0  0  0  0
   11.6701  -16.3757   24.3890 C   0  0  2  0  0  0  0  0  0  0  0  0
   10.3283  -16.3353   23.9234 N   0  0  0  0  0  0  0  0  0  0  0  0
   12.4063  -17.5989   24.0808 C   0  0  0  0  0  0  0  0  0  0  0  0
   11.7994  -18.5980   23.6319 O   0  0  0  0  0  0  0  0  0  0  0  0
   13.7741  -17.6952   24.2707 O   0  0  0  0  0  0  0  0  0  0  0  0
  2  1  1  1
  2  3  1  0
  3  4  1  0
  4  5  2  0
  5  6  1  0
  7  6  2  0
  8  7  1  0
  9  4  1  0
  9  8  2  0
 10 11  2  0
 10  2  1  0
 12 10  1  0
 13 12  1  0
 14 15  1  0
 13 14  1  1
 15 19  1  0
 15 16  2  0
 16 17  1  0
 18 17  1  0
 19 18  2  0
 20 21  2  0
 20 13  1  0
 23 22  1  0
 24 23  1  0
 24 25  1  0
 26 25  1  1
 26 27  1  0
 27 20  1  0
 28 26  1  0
 29 28  2  0
 30 28  1  0
M  END
$$$$
