FHM.pdb
     RDKit          3D

 30 31  0  0  1  0  0  0  0  0999 V2000
    5.7181  -18.0239   24.4050 N   0  0  0  0  0  0  0  0  0  0  0  0
    6.4212  -16.7474   24.4806 C   0  0  1  0  0  0  0  0  0  0  0  0
    6.2527  -16.0646   25.7703 C   0  0  0  0  0  0  0  0  0  0  0  0
    6.4340  -14.6038   25.6798 C   0  0  0  0  0  0  0  0  0  0  0  0
    7.4510  -14.0182   24.9574 C   0  0  0  0  0  0  0  0  0  0  0  0
    7.6440  -12.6562   24.8758 C   0  0  0  0  0  0  0  0  0  0  0  0
    6.7816  -11.8078   25.5465 C   0  0  0  0  0  0  0  0  0  0  0  0
    5.7539  -12.3522   26.2771 C   0  0  0  0  0  0  0  0  0  0  0  0
    5.5823  -13.7228   26.3437 C   0  0  0  0  0  0  0  0  0  0  0  0
    7.7886  -16.8277   23.9983 C   0  0  0  0  0  0  0  0  0  0  0  0
    8.6105  -17.6796   24.4810 O   0  0  0  0  0  0  0  0  0  0  0  0
    8.2851  -15.9856   22.9790 N   0  0  0  0  0  0  0  0  0  0  0  0
    9.6497  -16.1197   22.4684 C   0  0  1  0  0  0  0  0  0  0  0  0
    9.7979  -15.5679   21.0948 C   0  0  0  0  0  0  0  0  0  0  0  0
   10.3120  -16.6242   20.1734 C   0  0  0  0  0  0  0  0  0  0  0  0
    9.8368  -17.9291   20.0242 C   0  0  0  0  0  0  0  0  0  0  0  0
   10.5719  -18.5615   19.0927 N   0  0  0  0  0  0  0  0  0  0  0  0
   11.5043  -17.7083   18.6369 C   0  0  0  0  0  0  0  0  0  0  0  0
   11.3339  -16.5320   19.3036 N   0  0  0  0  0  0  0  0  0  0  0  0
   10.6983  -15.7869   23.4280 C   0  0  0  0  0  0  0  0  0  0  0  0
   10.9461  -14.5907   23.7065 O   0  0  0  0  0  0  0  0  0  0  0  0
   10.7119  -13.0780   27.7851 C   0  0  0  0  0  0  0  0  0  0  0  0
   11.6164  -14.3175   28.7371 S   0  0  0  0  0  0  0  0  0  0  0  0
   12.2827  -15.5433   27.5985 C   0  0  0  0  0  0  0  0  0  0  0  0
   11.4850  -15.6908   26.3288 C   0  0  0  0  0  0  0  0  0  0  0  0
   12.1968  -16.5540   25.3085 C   0  0  2  0  0  0  0  0  0  0  0  0
   11.4886  -16.7680   24.0954 N   0  0  0  0  0  0  0  0  0  0  0  0
   12.7003  -17.7583   25.9638 C   0  0  0  0  0  0  0  0  0  0  0  0
   13.5031  -17.6612   26.9198 O   0  0  0  0  0  0  0  0  0  0  0  0
   12.3155  -19.0248   25.5586 O   0  0  0  0  0  0  0  0  0  0  0  0
  2  1  1  1
  2  3  1  0
  3  4  1  0
  4  5  2  0
  5  6  1  0
  7  6  2  0
  8  7  1  0
  9  4  1  0
  9  8  2  0
 10 11  2  0
 10  2  1  0
 12 10  1  0
 13 12  1  0
 14 15  1  0
 13 14  1  6
 15 19  1  0
 15 16  2  0
 16 17  1  0
 18 17  1  0
 19 18  2  0
 20 21  2  0
 20 13  1  0
 23 22  1  0
 24 23  1  0
 24 25  1  0
 26 25  1  1
 26 27  1  0
 27 20  1  0
 28 26  1  0
 29 28  2  0
 30 28  1  0
M  END
$$$$
