FHM.pdb
     RDKit          3D

 30 31  0  0  1  0  0  0  0  0999 V2000
    5.8136  -16.7386   24.3437 N   0  0  0  0  0  0  0  0  0  0  0  0
    6.9572  -15.8325   24.3277 C   0  0  1  0  0  0  0  0  0  0  0  0
    7.2673  -15.2620   25.6454 C   0  0  0  0  0  0  0  0  0  0  0  0
    6.8802  -13.8442   25.7679 C   0  0  0  0  0  0  0  0  0  0  0  0
    7.6057  -12.8177   25.2029 C   0  0  0  0  0  0  0  0  0  0  0  0
    7.2669  -11.4873   25.3215 C   0  0  0  0  0  0  0  0  0  0  0  0
    6.1393  -11.1364   26.0418 C   0  0  0  0  0  0  0  0  0  0  0  0
    5.3882  -12.1304   26.6198 C   0  0  0  0  0  0  0  0  0  0  0  0
    5.7503  -13.4584   26.4867 C   0  0  0  0  0  0  0  0  0  0  0  0
    8.0951  -16.3737   23.6057 C   0  0  0  0  0  0  0  0  0  0  0  0
    8.4504  -17.5931   23.7508 O   0  0  0  0  0  0  0  0  0  0  0  0
    8.8642  -15.5992   22.7095 N   0  0  0  0  0  0  0  0  0  0  0  0
   10.1532  -16.0677   22.2001 C   0  0  1  0  0  0  0  0  0  0  0  0
   10.5249  -15.4179   20.9145 C   0  0  0  0  0  0  0  0  0  0  0  0
    9.2998  -15.1572   20.1018 C   0  0  0  0  0  0  0  0  0  0  0  0
    8.6005  -16.0630   19.3009 C   0  0  0  0  0  0  0  0  0  0  0  0
    7.5546  -15.4345   18.7359 N   0  0  0  0  0  0  0  0  0  0  0  0
    7.5567  -14.1550   19.1456 C   0  0  0  0  0  0  0  0  0  0  0  0
    8.6250  -14.0003   19.9774 N   0  0  0  0  0  0  0  0  0  0  0  0
   11.2042  -16.1838   23.2068 C   0  0  0  0  0  0  0  0  0  0  0  0
   12.0395  -15.2626   23.3599 O   0  0  0  0  0  0  0  0  0  0  0  0
   11.0823  -14.6810   30.0805 C   0  0  0  0  0  0  0  0  0  0  0  0
   11.1314  -14.6735   28.2754 S   0  0  0  0  0  0  0  0  0  0  0  0
   10.7918  -16.3403   27.6842 C   0  0  0  0  0  0  0  0  0  0  0  0
   10.5000  -16.4141   26.2078 C   0  0  0  0  0  0  0  0  0  0  0  0
   11.5186  -17.2567   25.4696 C   0  0  2  0  0  0  0  0  0  0  0  0
   11.3490  -17.3167   24.0601 N   0  0  0  0  0  0  0  0  0  0  0  0
   11.6555  -18.5460   26.1420 C   0  0  0  0  0  0  0  0  0  0  0  0
   12.0268  -18.5921   27.3370 O   0  0  0  0  0  0  0  0  0  0  0  0
   11.3851  -19.7393   25.4945 O   0  0  0  0  0  0  0  0  0  0  0  0
  2  1  1  1
  2  3  1  0
  3  4  1  0
  4  5  2  0
  5  6  1  0
  7  6  2  0
  8  7  1  0
  9  4  1  0
  9  8  2  0
 10 11  2  0
 10  2  1  0
 12 10  1  0
 13 12  1  0
 14 15  1  0
 13 14  1  6
 15 19  1  0
 15 16  2  0
 16 17  1  0
 18 17  1  0
 19 18  2  0
 20 21  2  0
 20 13  1  0
 23 22  1  0
 24 23  1  0
 24 25  1  0
 26 25  1  1
 26 27  1  0
 27 20  1  0
 28 26  1  0
 29 28  2  0
 30 28  1  0
M  END
$$$$
