MQL.pdb
     RDKit          3D

 26 25  0  0  1  0  0  0  0  0999 V2000
   27.0180  -30.8692  -15.4758 C   0  0  0  0  0  0  0  0  0  0  0  0
   26.9719  -32.5580  -16.1395 S   0  0  0  0  0  0  0  0  0  0  0  0
   26.3817  -33.7188  -14.8878 C   0  0  0  0  0  0  0  0  0  0  0  0
   26.7063  -33.1998  -13.4949 C   0  0  0  0  0  0  0  0  0  0  0  0
   26.7205  -34.3722  -12.5273 C   0  0  2  0  0  0  0  0  0  0  0  0
   25.4105  -34.9835  -12.5677 N   0  0  0  0  0  0  0  0  0  0  0  0
   27.0277  -33.8487  -11.1728 C   0  0  0  0  0  0  0  0  0  0  0  0
   28.1328  -33.2368  -11.0296 O   0  0  0  0  0  0  0  0  0  0  0  0
   22.8426  -33.8577   -6.6811 N   0  0  0  0  0  0  0  0  0  0  0  0
   22.8438  -33.0016   -7.7973 C   0  0  0  0  0  0  0  0  0  0  0  0
   21.8121  -32.3771   -8.1830 O   0  0  0  0  0  0  0  0  0  0  0  0
   24.1094  -32.8264   -8.5509 C   0  0  0  0  0  0  0  0  0  0  0  0
   25.1904  -33.6361   -7.9137 C   0  0  0  0  0  0  0  0  0  0  0  0
   26.4448  -33.4998   -8.7477 C   0  0  2  0  0  0  0  0  0  0  0  0
   26.1577  -34.0022  -10.0629 N   0  0  0  0  0  0  0  0  0  0  0  0
   27.5290  -34.2261   -8.0705 C   0  0  0  0  0  0  0  0  0  0  0  0
   27.8713  -35.3510   -8.4901 O   0  0  0  0  0  0  0  0  0  0  0  0
   31.8604  -33.7816   -4.7439 C   0  0  0  0  0  0  0  0  0  0  0  0
   31.8094  -34.1404   -6.2279 C   0  0  2  0  0  0  0  0  0  0  0  0
   33.0449  -33.6665   -6.8961 C   0  0  0  0  0  0  0  0  0  0  0  0
   30.5364  -33.5700   -6.7685 C   0  0  0  0  0  0  0  0  0  0  0  0
   29.2964  -34.2602   -6.2759 C   0  0  2  0  0  0  0  0  0  0  0  0
   28.1706  -33.6570   -6.9635 N   0  0  0  0  0  0  0  0  0  0  0  0
   29.1246  -34.2438   -4.8273 C   0  0  0  0  0  0  0  0  0  0  0  0
   29.5662  -35.0722   -4.0239 O   0  0  0  0  0  0  0  0  0  0  0  0
   28.3825  -33.1832   -4.2679 O   0  0  0  0  0  0  0  0  0  0  0  0
  2  1  1  0
  3  2  1  0
  4  3  1  0
  4  5  1  0
  5  6  1  1
  7  5  1  0
  7  8  2  0
  9 10  1  0
 10 12  1  0
 11 10  2  0
 12 13  1  0
 14 13  1  1
 14 15  1  0
 15  7  1  0
 16 14  1  0
 17 16  2  0
 19 18  1  1
 19 21  1  0
 20 19  1  0
 22 23  1  0
 22 21  1  1
 23 16  1  0
 24 22  1  0
 25 24  2  0
 26 24  1  0
M  END
$$$$
