MQL.pdb
     RDKit          3D

 26 25  0  0  1  0  0  0  0  0999 V2000
   27.5144  -15.4912  -17.0261 C   0  0  0  0  0  0  0  0  0  0  0  0
   28.8468  -16.7216  -16.9510 S   0  0  0  0  0  0  0  0  0  0  0  0
   28.2303  -18.2898  -16.3005 C   0  0  0  0  0  0  0  0  0  0  0  0
   27.1580  -18.0382  -15.2508 C   0  0  0  0  0  0  0  0  0  0  0  0
   26.6830  -19.3759  -14.7068 C   0  0  2  0  0  0  0  0  0  0  0  0
   25.6884  -19.8881  -15.6233 N   0  0  0  0  0  0  0  0  0  0  0  0
   26.1045  -19.1468  -13.3592 C   0  0  0  0  0  0  0  0  0  0  0  0
   25.3104  -18.1621  -13.2340 O   0  0  0  0  0  0  0  0  0  0  0  0
   22.4131  -22.0082  -13.7161 N   0  0  0  0  0  0  0  0  0  0  0  0
   22.7286  -21.2737  -12.5585 C   0  0  0  0  0  0  0  0  0  0  0  0
   21.8502  -20.6964  -11.8527 O   0  0  0  0  0  0  0  0  0  0  0  0
   24.1517  -21.1742  -12.1519 C   0  0  0  0  0  0  0  0  0  0  0  0
   24.3034  -20.1190  -11.1060 C   0  0  0  0  0  0  0  0  0  0  0  0
   25.7752  -19.8072  -10.9513 C   0  0  2  0  0  0  0  0  0  0  0  0
   26.3975  -19.9635  -12.2369 N   0  0  0  0  0  0  0  0  0  0  0  0
   26.3294  -20.7005   -9.9234 C   0  0  0  0  0  0  0  0  0  0  0  0
   26.0046  -21.9060   -9.9164 O   0  0  0  0  0  0  0  0  0  0  0  0
   28.5104  -18.4474   -4.7058 C   0  0  0  0  0  0  0  0  0  0  0  0
   28.0332  -19.7557   -5.3337 C   0  0  2  0  0  0  0  0  0  0  0  0
   28.9165  -20.8651   -4.9015 C   0  0  0  0  0  0  0  0  0  0  0  0
   27.9730  -19.5309   -6.8115 C   0  0  0  0  0  0  0  0  0  0  0  0
   27.1906  -20.5724   -7.5596 C   0  0  2  0  0  0  0  0  0  0  0  0
   27.2147  -20.1992   -8.9611 N   0  0  0  0  0  0  0  0  0  0  0  0
   25.8312  -20.7799   -7.0725 C   0  0  0  0  0  0  0  0  0  0  0  0
   24.8539  -20.0543   -7.2850 O   0  0  0  0  0  0  0  0  0  0  0  0
   25.5875  -21.9185   -6.2770 O   0  0  0  0  0  0  0  0  0  0  0  0
  2  1  1  0
  3  2  1  0
  4  3  1  0
  4  5  1  0
  5  6  1  6
  7  5  1  0
  7  8  2  0
  9 10  1  0
 10 12  1  0
 11 10  2  0
 12 13  1  0
 14 13  1  6
 14 15  1  0
 15  7  1  0
 16 14  1  0
 17 16  2  0
 19 18  1  1
 19 21  1  0
 20 19  1  0
 22 23  1  0
 22 21  1  1
 23 16  1  0
 24 22  1  0
 25 24  2  0
 26 24  1  0
M  END
$$$$
