MQL.pdb
     RDKit          3D

 26 25  0  0  1  0  0  0  0  0999 V2000
   24.1583  -16.3012  -19.4556 C   0  0  0  0  0  0  0  0  0  0  0  0
   22.8106  -17.4463  -19.8645 S   0  0  0  0  0  0  0  0  0  0  0  0
   21.2079  -16.7074  -19.4803 C   0  0  0  0  0  0  0  0  0  0  0  0
   21.2998  -15.1900  -19.5439 C   0  0  0  0  0  0  0  0  0  0  0  0
   21.2220  -14.6358  -18.1305 C   0  0  2  0  0  0  0  0  0  0  0  0
   19.9406  -15.0227  -17.5830 N   0  0  0  0  0  0  0  0  0  0  0  0
   21.3502  -13.1589  -18.2064 C   0  0  0  0  0  0  0  0  0  0  0  0
   22.4374  -12.6994  -18.6783 O   0  0  0  0  0  0  0  0  0  0  0  0
   16.7835   -8.9441  -18.1627 N   0  0  0  0  0  0  0  0  0  0  0  0
   17.9225   -8.1219  -18.2377 C   0  0  0  0  0  0  0  0  0  0  0  0
   17.8541   -6.8724  -18.4307 O   0  0  0  0  0  0  0  0  0  0  0  0
   19.2576   -8.7498  -18.0837 C   0  0  0  0  0  0  0  0  0  0  0  0
   19.1036  -10.2271  -17.9278 C   0  0  0  0  0  0  0  0  0  0  0  0
   20.4785  -10.8370  -17.7691 C   0  0  2  0  0  0  0  0  0  0  0  0
   20.3322  -12.2663  -17.7830 N   0  0  0  0  0  0  0  0  0  0  0  0
   21.0687  -10.3239  -16.5241 C   0  0  0  0  0  0  0  0  0  0  0  0
   20.5461  -10.6179  -15.4290 O   0  0  0  0  0  0  0  0  0  0  0  0
   24.7411  -11.0239  -14.7309 C   0  0  0  0  0  0  0  0  0  0  0  0
   24.9815  -10.1573  -15.9658 C   0  0  2  0  0  0  0  0  0  0  0  0
   26.4354  -10.0848  -16.2462 C   0  0  0  0  0  0  0  0  0  0  0  0
   24.3181   -8.8415  -15.7081 C   0  0  0  0  0  0  0  0  0  0  0  0
   22.8512   -8.9432  -15.4007 C   0  0  2  0  0  0  0  0  0  0  0  0
   22.2086   -9.5118  -16.5703 N   0  0  0  0  0  0  0  0  0  0  0  0
   22.2268   -7.6908  -14.9886 C   0  0  0  0  0  0  0  0  0  0  0  0
   21.6156   -6.8989  -15.7139 O   0  0  0  0  0  0  0  0  0  0  0  0
   22.3190   -7.3299  -13.6285 O   0  0  0  0  0  0  0  0  0  0  0  0
  2  1  1  0
  3  2  1  0
  4  3  1  0
  4  5  1  0
  5  6  1  6
  7  5  1  0
  7  8  2  0
  9 10  1  0
 10 12  1  0
 11 10  2  0
 12 13  1  0
 14 13  1  1
 14 15  1  0
 15  7  1  0
 16 14  1  0
 17 16  2  0
 19 18  1  1
 19 21  1  0
 20 19  1  0
 22 23  1  0
 22 21  1  6
 23 16  1  0
 24 22  1  0
 25 24  2  0
 26 24  1  0
M  END
$$$$
