MQL.pdb
     RDKit          3D

 26 25  0  0  1  0  0  0  0  0999 V2000
   31.3666  -20.8288   -9.4633 C   0  0  0  0  0  0  0  0  0  0  0  0
   31.3821  -22.2599  -10.5798 S   0  0  0  0  0  0  0  0  0  0  0  0
   31.2329  -21.7281  -12.2995 C   0  0  0  0  0  0  0  0  0  0  0  0
   29.8216  -21.2312  -12.5755 C   0  0  0  0  0  0  0  0  0  0  0  0
   29.7308  -20.8001  -14.0305 C   0  0  2  0  0  0  0  0  0  0  0  0
   30.6262  -19.6781  -14.2068 N   0  0  0  0  0  0  0  0  0  0  0  0
   28.3250  -20.4148  -14.3106 C   0  0  0  0  0  0  0  0  0  0  0  0
   27.9887  -19.2215  -14.0298 O   0  0  0  0  0  0  0  0  0  0  0  0
   24.6016  -22.5890  -18.6725 N   0  0  0  0  0  0  0  0  0  0  0  0
   23.7816  -21.6243  -18.0595 C   0  0  0  0  0  0  0  0  0  0  0  0
   22.6861  -21.2368  -18.5623 O   0  0  0  0  0  0  0  0  0  0  0  0
   24.2233  -21.0393  -16.7699 C   0  0  0  0  0  0  0  0  0  0  0  0
   25.5794  -21.5582  -16.4204 C   0  0  0  0  0  0  0  0  0  0  0  0
   25.9945  -20.9576  -15.0959 C   0  0  2  0  0  0  0  0  0  0  0  0
   27.3694  -21.3049  -14.8646 N   0  0  0  0  0  0  0  0  0  0  0  0
   25.0839  -21.4606  -14.0569 C   0  0  0  0  0  0  0  0  0  0  0  0
   25.0772  -22.6784  -13.7821 O   0  0  0  0  0  0  0  0  0  0  0  0
   25.3062  -21.9245  -10.4501 C   0  0  0  0  0  0  0  0  0  0  0  0
   25.1199  -20.4255  -10.6787 C   0  0  2  0  0  0  0  0  0  0  0  0
   25.5310  -19.6830   -9.4633 C   0  0  0  0  0  0  0  0  0  0  0  0
   23.6973  -20.2239  -11.0952 C   0  0  0  0  0  0  0  0  0  0  0  0
   23.3087  -20.9748  -12.3369 C   0  0  2  0  0  0  0  0  0  0  0  0
   24.2319  -20.5771  -13.3826 N   0  0  0  0  0  0  0  0  0  0  0  0
   21.9176  -20.8042  -12.7419 C   0  0  0  0  0  0  0  0  0  0  0  0
   21.5091  -20.1902  -13.7332 O   0  0  0  0  0  0  0  0  0  0  0  0
   20.9235  -21.3924  -11.9330 O   0  0  0  0  0  0  0  0  0  0  0  0
  2  1  1  0
  3  2  1  0
  4  3  1  0
  4  5  1  0
  5  6  1  1
  7  5  1  0
  7  8  2  0
  9 10  1  0
 10 12  1  0
 11 10  2  0
 12 13  1  0
 14 13  1  6
 14 15  1  0
 15  7  1  0
 16 14  1  0
 17 16  2  0
 19 18  1  1
 19 21  1  0
 20 19  1  0
 22 23  1  0
 22 21  1  1
 23 16  1  0
 24 22  1  0
 25 24  2  0
 26 24  1  0
M  END
$$$$
