MQL.pdb
     RDKit          3D

 26 25  0  0  1  0  0  0  0  0999 V2000
   29.4260  -19.4021   -6.2460 C   0  0  0  0  0  0  0  0  0  0  0  0
   27.8871  -19.6630   -5.3194 S   0  0  0  0  0  0  0  0  0  0  0  0
   26.4883  -19.8498   -6.4467 C   0  0  0  0  0  0  0  0  0  0  0  0
   26.9821  -20.1861   -7.8460 C   0  0  0  0  0  0  0  0  0  0  0  0
   25.7976  -20.1729   -8.7988 C   0  0  2  0  0  0  0  0  0  0  0  0
   24.9191  -21.2551   -8.4133 N   0  0  0  0  0  0  0  0  0  0  0  0
   26.3127  -20.3641  -10.1778 C   0  0  0  0  0  0  0  0  0  0  0  0
   27.4921  -20.8244  -10.2926 O   0  0  0  0  0  0  0  0  0  0  0  0
   25.7600  -24.0680  -14.0374 N   0  0  0  0  0  0  0  0  0  0  0  0
   24.5566  -23.4116  -13.7214 C   0  0  0  0  0  0  0  0  0  0  0  0
   23.4205  -23.9437  -13.8925 O   0  0  0  0  0  0  0  0  0  0  0  0
   24.6267  -22.0385  -13.1646 C   0  0  0  0  0  0  0  0  0  0  0  0
   26.0513  -21.5952  -13.0974 C   0  0  0  0  0  0  0  0  0  0  0  0
   26.0808  -20.1430  -12.6757 C   0  0  2  0  0  0  0  0  0  0  0  0
   25.5581  -20.0601  -11.3399 N   0  0  0  0  0  0  0  0  0  0  0  0
   25.3068  -19.3641  -13.6535 C   0  0  0  0  0  0  0  0  0  0  0  0
   24.0776  -19.2192  -13.4898 O   0  0  0  0  0  0  0  0  0  0  0  0
   25.5538  -15.0312  -15.5515 C   0  0  0  0  0  0  0  0  0  0  0  0
   26.7985  -15.9037  -15.7033 C   0  0  2  0  0  0  0  0  0  0  0  0
   27.8702  -15.1279  -16.3720 C   0  0  0  0  0  0  0  0  0  0  0  0
   26.3726  -17.1461  -16.4195 C   0  0  0  0  0  0  0  0  0  0  0  0
   25.2934  -17.9202  -15.7175 C   0  0  2  0  0  0  0  0  0  0  0  0
   25.9473  -18.7904  -14.7588 N   0  0  0  0  0  0  0  0  0  0  0  0
   24.3981  -18.6571  -16.6027 C   0  0  0  0  0  0  0  0  0  0  0  0
   24.5389  -19.8224  -16.9889 O   0  0  0  0  0  0  0  0  0  0  0  0
   23.2499  -17.9893  -17.0763 O   0  0  0  0  0  0  0  0  0  0  0  0
  2  1  1  0
  3  2  1  0
  4  3  1  0
  4  5  1  0
  5  6  1  1
  7  5  1  0
  7  8  2  0
  9 10  1  0
 10 12  1  0
 11 10  2  0
 12 13  1  0
 14 13  1  6
 14 15  1  0
 15  7  1  0
 16 14  1  0
 17 16  2  0
 19 18  1  6
 19 21  1  0
 20 19  1  0
 22 23  1  0
 22 21  1  6
 23 16  1  0
 24 22  1  0
 25 24  2  0
 26 24  1  0
M  END
$$$$
