MQL.pdb
     RDKit          3D

 26 25  0  0  1  0  0  0  0  0999 V2000
   21.4577  -10.8245  -20.3408 C   0  0  0  0  0  0  0  0  0  0  0  0
   21.1864  -12.5990  -20.0721 S   0  0  0  0  0  0  0  0  0  0  0  0
   20.4581  -12.8933  -18.4457 C   0  0  0  0  0  0  0  0  0  0  0  0
   19.4250  -11.8217  -18.1307 C   0  0  0  0  0  0  0  0  0  0  0  0
   18.8739  -12.0689  -16.7355 C   0  0  2  0  0  0  0  0  0  0  0  0
   18.1611  -13.3268  -16.7675 N   0  0  0  0  0  0  0  0  0  0  0  0
   17.9664  -10.9455  -16.3923 C   0  0  0  0  0  0  0  0  0  0  0  0
   16.9723  -10.7538  -17.1609 O   0  0  0  0  0  0  0  0  0  0  0  0
   16.0888   -9.3453  -10.9235 N   0  0  0  0  0  0  0  0  0  0  0  0
   15.4270   -8.3785  -11.7022 C   0  0  0  0  0  0  0  0  0  0  0  0
   14.5022   -7.6453  -11.2437 O   0  0  0  0  0  0  0  0  0  0  0  0
   15.8331   -8.2151  -13.1195 C   0  0  0  0  0  0  0  0  0  0  0  0
   16.8948   -9.2101  -13.4563 C   0  0  0  0  0  0  0  0  0  0  0  0
   17.2737   -9.0313  -14.9096 C   0  0  2  0  0  0  0  0  0  0  0  0
   18.1627  -10.1013  -15.2693 N   0  0  0  0  0  0  0  0  0  0  0  0
   17.8727   -7.6980  -15.0685 C   0  0  0  0  0  0  0  0  0  0  0  0
   19.0154   -7.4794  -14.6154 O   0  0  0  0  0  0  0  0  0  0  0  0
   18.9353   -4.9644  -18.4917 C   0  0  0  0  0  0  0  0  0  0  0  0
   17.4500   -5.3077  -18.3931 C   0  0  2  0  0  0  0  0  0  0  0  0
   16.7435   -4.8059  -19.5960 C   0  0  0  0  0  0  0  0  0  0  0  0
   16.9620   -4.7527  -17.0924 C   0  0  0  0  0  0  0  0  0  0  0  0
   17.6474   -5.3256  -15.8846 C   0  0  2  0  0  0  0  0  0  0  0  0
   17.1637   -6.6836  -15.7237 N   0  0  0  0  0  0  0  0  0  0  0  0
   17.4895   -4.5409  -14.6650 C   0  0  0  0  0  0  0  0  0  0  0  0
   17.9726   -3.4264  -14.4385 O   0  0  0  0  0  0  0  0  0  0  0  0
   16.7100   -5.0931  -13.6276 O   0  0  0  0  0  0  0  0  0  0  0  0
  2  1  1  0
  3  2  1  0
  4  3  1  0
  4  5  1  0
  5  6  1  6
  7  5  1  0
  7  8  2  0
  9 10  1  0
 10 12  1  0
 11 10  2  0
 12 13  1  0
 14 13  1  1
 14 15  1  0
 15  7  1  0
 16 14  1  0
 17 16  2  0
 19 18  1  6
 19 21  1  0
 20 19  1  0
 22 23  1  0
 22 21  1  6
 23 16  1  0
 24 22  1  0
 25 24  2  0
 26 24  1  0
M  END
$$$$
