MQL.pdb
     RDKit          3D

 26 25  0  0  1  0  0  0  0  0999 V2000
   34.5423  -22.3537  -10.3515 C   0  0  0  0  0  0  0  0  0  0  0  0
   34.4693  -22.7974  -12.1101 S   0  0  0  0  0  0  0  0  0  0  0  0
   32.8160  -23.3740  -12.5538 C   0  0  0  0  0  0  0  0  0  0  0  0
   31.7990  -22.2608  -12.3506 C   0  0  0  0  0  0  0  0  0  0  0  0
   30.4116  -22.8055  -12.6500 C   0  0  2  0  0  0  0  0  0  0  0  0
   30.3788  -23.1616  -14.0513 N   0  0  0  0  0  0  0  0  0  0  0  0
   29.4224  -21.7424  -12.3424 C   0  0  0  0  0  0  0  0  0  0  0  0
   29.5105  -21.1873  -11.2022 O   0  0  0  0  0  0  0  0  0  0  0  0
   24.3993  -20.4461  -15.8748 N   0  0  0  0  0  0  0  0  0  0  0  0
   24.1905  -19.5865  -14.7811 C   0  0  0  0  0  0  0  0  0  0  0  0
   23.1963  -18.8064  -14.7028 O   0  0  0  0  0  0  0  0  0  0  0  0
   25.1793  -19.5982  -13.6754 C   0  0  0  0  0  0  0  0  0  0  0  0
   26.3057  -20.5171  -14.0178 C   0  0  0  0  0  0  0  0  0  0  0  0
   27.3104  -20.4836  -12.8877 C   0  0  2  0  0  0  0  0  0  0  0  0
   28.4102  -21.3348  -13.2489 N   0  0  0  0  0  0  0  0  0  0  0  0
   26.6296  -20.9033  -11.6540 C   0  0  0  0  0  0  0  0  0  0  0  0
   26.1365  -22.0481  -11.5828 O   0  0  0  0  0  0  0  0  0  0  0  0
   26.5872  -18.3904   -6.1034 C   0  0  0  0  0  0  0  0  0  0  0  0
   26.3709  -19.7105   -6.8411 C   0  0  2  0  0  0  0  0  0  0  0  0
   27.1175  -20.7913   -6.1541 C   0  0  0  0  0  0  0  0  0  0  0  0
   26.7582  -19.4787   -8.2674 C   0  0  0  0  0  0  0  0  0  0  0  0
   26.0944  -20.4086   -9.2427 C   0  0  2  0  0  0  0  0  0  0  0  0
   26.5371  -20.0228  -10.5691 N   0  0  0  0  0  0  0  0  0  0  0  0
   24.6397  -20.4574   -9.1447 C   0  0  0  0  0  0  0  0  0  0  0  0
   23.8330  -19.8378   -9.8462 O   0  0  0  0  0  0  0  0  0  0  0  0
   24.0778  -21.2906   -8.1554 O   0  0  0  0  0  0  0  0  0  0  0  0
  2  1  1  0
  3  2  1  0
  4  3  1  0
  4  5  1  0
  5  6  1  6
  7  5  1  0
  7  8  2  0
  9 10  1  0
 10 12  1  0
 11 10  2  0
 12 13  1  0
 14 13  1  6
 14 15  1  0
 15  7  1  0
 16 14  1  0
 17 16  2  0
 19 18  1  1
 19 21  1  0
 20 19  1  0
 22 23  1  0
 22 21  1  1
 23 16  1  0
 24 22  1  0
 25 24  2  0
 26 24  1  0
M  END
$$$$
