MQL.pdb
     RDKit          3D

 26 25  0  0  1  0  0  0  0  0999 V2000
   31.8722  -20.3971  -20.7292 C   0  0  0  0  0  0  0  0  0  0  0  0
   30.1062  -20.5073  -20.3247 S   0  0  0  0  0  0  0  0  0  0  0  0
   29.5614  -19.0292  -19.4409 C   0  0  0  0  0  0  0  0  0  0  0  0
   28.1369  -19.2122  -18.9387 C   0  0  0  0  0  0  0  0  0  0  0  0
   27.6771  -17.9166  -18.2898 C   0  0  2  0  0  0  0  0  0  0  0  0
   26.4714  -18.2082  -17.5463 N   0  0  0  0  0  0  0  0  0  0  0  0
   27.4187  -16.9279  -19.3663 C   0  0  0  0  0  0  0  0  0  0  0  0
   28.4321  -16.4703  -19.9824 O   0  0  0  0  0  0  0  0  0  0  0  0
   22.4894  -13.4810  -22.6058 N   0  0  0  0  0  0  0  0  0  0  0  0
   22.8169  -14.8432  -22.7329 C   0  0  0  0  0  0  0  0  0  0  0  0
   21.9457  -15.7430  -22.9182 O   0  0  0  0  0  0  0  0  0  0  0  0
   24.2444  -15.2369  -22.6453 C   0  0  0  0  0  0  0  0  0  0  0  0
   24.4781  -16.0044  -21.3857 C   0  0  0  0  0  0  0  0  0  0  0  0
   25.8438  -15.6379  -20.8489 C   0  0  2  0  0  0  0  0  0  0  0  0
   26.1183  -16.4868  -19.7227 N   0  0  0  0  0  0  0  0  0  0  0  0
   25.8369  -14.2068  -20.5116 C   0  0  0  0  0  0  0  0  0  0  0  0
   25.8111  -13.3593  -21.4280 O   0  0  0  0  0  0  0  0  0  0  0  0
   26.9735  -13.3342  -16.1348 C   0  0  0  0  0  0  0  0  0  0  0  0
   27.8395  -13.2309  -17.3891 C   0  0  2  0  0  0  0  0  0  0  0  0
   29.2576  -13.0447  -16.9994 C   0  0  0  0  0  0  0  0  0  0  0  0
   27.2616  -12.1337  -18.2258 C   0  0  0  0  0  0  0  0  0  0  0  0
   25.8787  -12.4168  -18.7398 C   0  0  2  0  0  0  0  0  0  0  0  0
   25.8591  -13.8015  -19.1714 N   0  0  0  0  0  0  0  0  0  0  0  0
   25.4209  -11.5110  -19.7878 C   0  0  0  0  0  0  0  0  0  0  0  0
   25.2763  -11.7825  -20.9845 O   0  0  0  0  0  0  0  0  0  0  0  0
   25.1065  -10.1871  -19.4176 O   0  0  0  0  0  0  0  0  0  0  0  0
  2  1  1  0
  3  2  1  0
  4  3  1  0
  4  5  1  0
  5  6  1  6
  7  5  1  0
  7  8  2  0
  9 10  1  0
 10 12  1  0
 11 10  2  0
 12 13  1  0
 14 13  1  1
 14 15  1  0
 15  7  1  0
 16 14  1  0
 17 16  2  0
 19 18  1  1
 19 21  1  0
 20 19  1  0
 22 23  1  0
 22 21  1  6
 23 16  1  0
 24 22  1  0
 25 24  2  0
 26 24  1  0
M  END
$$$$
