KKL.pdb
     RDKit          3D

 27 26  0  0  1  0  0  0  0  0999 V2000
   18.3561  -26.4514   -9.6481 N   0  0  0  0  0  0  0  0  0  0  0  0
   18.4106  -25.4533   -8.6227 C   0  0  1  0  0  0  0  0  0  0  0  0
   17.9136  -24.1055   -9.1232 C   0  0  0  0  0  0  0  0  0  0  0  0
   18.7587  -23.6190  -10.2729 C   0  0  0  0  0  0  0  0  0  0  0  0
   18.3600  -22.2607  -10.7438 C   0  0  0  0  0  0  0  0  0  0  0  0
   19.1245  -21.7949  -11.9497 C   0  0  0  0  0  0  0  0  0  0  0  0
   18.7095  -20.5012  -12.4175 N   0  0  0  0  0  0  0  0  0  0  0  0
   17.6098  -25.9228   -7.4636 C   0  0  0  0  0  0  0  0  0  0  0  0
   16.3650  -26.1664   -7.6210 O   0  0  0  0  0  0  0  0  0  0  0  0
   18.2011  -26.1064   -6.1835 N   0  0  0  0  0  0  0  0  0  0  0  0
   17.3901  -26.5435   -5.0651 C   0  0  1  0  0  0  0  0  0  0  0  0
   18.2603  -27.3863   -4.1928 C   0  0  0  0  0  0  0  0  0  0  0  0
   17.5968  -27.9118   -2.9595 C   0  0  0  0  0  0  0  0  0  0  0  0
   18.5302  -28.7933   -2.1390 C   0  0  0  0  0  0  0  0  0  0  0  0
   17.7921  -29.2538   -0.8991 C   0  0  0  0  0  0  0  0  0  0  0  0
   18.7288  -30.0310   -0.0745 N   0  0  0  0  0  0  0  0  0  0  0  0
   16.7954  -25.3806   -4.4127 C   0  0  0  0  0  0  0  0  0  0  0  0
   17.3967  -24.2965   -4.1977 O   0  0  0  0  0  0  0  0  0  0  0  0
   13.3233  -21.3582   -3.9164 C   0  0  0  0  0  0  0  0  0  0  0  0
   12.9162  -22.7001   -3.3513 C   0  0  1  0  0  0  0  0  0  0  0  0
   11.3913  -22.7709   -3.5657 C   0  0  0  0  0  0  0  0  0  0  0  0
   13.5907  -23.8434   -4.0254 C   0  0  0  0  0  0  0  0  0  0  0  0
   14.8055  -24.2902   -3.2858 C   0  0  2  0  0  0  0  0  0  0  0  0
   15.4453  -25.4304   -3.9728 N   0  0  0  0  0  0  0  0  0  0  0  0
   14.5767  -24.6846   -1.8835 C   0  0  0  0  0  0  0  0  0  0  0  0
   14.6428  -23.8267   -0.9725 O   0  0  0  0  0  0  0  0  0  0  0  0
   14.2840  -25.9775   -1.4949 O   0  0  0  0  0  0  0  0  0  0  0  0
  2  1  1  6
  3  2  1  0
  4  5  1  0
  4  3  1  0
  5  6  1  0
  7  6  1  0
  8  2  1  0
  8  9  2  0
 10  8  1  0
 11 10  1  0
 11 12  1  1
 13 12  1  0
 14 15  1  0
 14 13  1  0
 15 16  1  0
 17 11  1  0
 18 17  2  0
 20 19  1  6
 20 22  1  0
 20 21  1  0
 23 22  1  6
 23 24  1  0
 23 25  1  0
 24 17  1  0
 25 27  1  0
 26 25  2  0
M  END
$$$$
