KKL.pdb
     RDKit          3D

 27 26  0  0  1  0  0  0  0  0999 V2000
   25.9392  -19.1620  -15.4990 N   0  0  0  0  0  0  0  0  0  0  0  0
   26.6531  -19.8844  -14.4893 C   0  0  1  0  0  0  0  0  0  0  0  0
   28.1316  -19.5265  -14.4814 C   0  0  0  0  0  0  0  0  0  0  0  0
   28.8195  -20.0746  -15.7058 C   0  0  0  0  0  0  0  0  0  0  0  0
   28.7486  -21.5626  -15.7862 C   0  0  0  0  0  0  0  0  0  0  0  0
   29.5248  -22.1394  -16.9354 C   0  0  0  0  0  0  0  0  0  0  0  0
   29.4851  -23.5750  -16.9807 N   0  0  0  0  0  0  0  0  0  0  0  0
   26.0261  -19.6008  -13.1734 C   0  0  0  0  0  0  0  0  0  0  0  0
   25.8181  -18.3878  -12.8281 O   0  0  0  0  0  0  0  0  0  0  0  0
   25.6534  -20.6519  -12.2913 N   0  0  0  0  0  0  0  0  0  0  0  0
   24.9755  -20.3494  -11.0469 C   0  0  1  0  0  0  0  0  0  0  0  0
   23.6084  -20.9426  -11.1345 C   0  0  0  0  0  0  0  0  0  0  0  0
   22.6589  -20.2094  -12.0280 C   0  0  0  0  0  0  0  0  0  0  0  0
   21.2719  -20.8401  -12.0295 C   0  0  0  0  0  0  0  0  0  0  0  0
   20.3829  -20.0470  -12.9649 C   0  0  0  0  0  0  0  0  0  0  0  0
   19.0566  -20.6811  -12.9783 N   0  0  0  0  0  0  0  0  0  0  0  0
   25.7859  -20.8172   -9.9262 C   0  0  0  0  0  0  0  0  0  0  0  0
   26.3279  -21.9508   -9.8604 O   0  0  0  0  0  0  0  0  0  0  0  0
   29.3609  -20.5842   -5.9645 C   0  0  0  0  0  0  0  0  0  0  0  0
   28.1339  -19.7406   -5.7022 C   0  0  1  0  0  0  0  0  0  0  0  0
   28.6571  -18.5161   -4.9255 C   0  0  0  0  0  0  0  0  0  0  0  0
   27.4463  -19.3107   -6.9508 C   0  0  0  0  0  0  0  0  0  0  0  0
   26.7121  -20.4343   -7.5994 C   0  0  2  0  0  0  0  0  0  0  0  0
   26.0054  -19.9671   -8.8091 N   0  0  0  0  0  0  0  0  0  0  0  0
   25.7262  -21.1177   -6.7417 C   0  0  0  0  0  0  0  0  0  0  0  0
   26.0812  -21.6009   -5.6414 O   0  0  0  0  0  0  0  0  0  0  0  0
   24.3951  -21.2643   -7.0807 O   0  0  0  0  0  0  0  0  0  0  0  0
  2  1  1  6
  3  2  1  0
  4  5  1  0
  4  3  1  0
  5  6  1  0
  7  6  1  0
  8  2  1  0
  8  9  2  0
 10  8  1  0
 11 10  1  0
 11 12  1  6
 13 12  1  0
 14 15  1  0
 14 13  1  0
 15 16  1  0
 17 11  1  0
 18 17  2  0
 20 19  1  6
 20 22  1  0
 20 21  1  0
 23 22  1  1
 23 24  1  0
 23 25  1  0
 24 17  1  0
 25 27  1  0
 26 25  2  0
M  END
$$$$
