KKL.pdb
     RDKit          3D

 27 26  0  0  1  0  0  0  0  0999 V2000
   19.0239  -25.4282   -9.3897 N   0  0  0  0  0  0  0  0  0  0  0  0
   18.0357  -26.2470   -8.7541 C   0  0  1  0  0  0  0  0  0  0  0  0
   18.3816  -27.7249   -8.8537 C   0  0  0  0  0  0  0  0  0  0  0  0
   18.9038  -28.0589  -10.2280 C   0  0  0  0  0  0  0  0  0  0  0  0
   20.2126  -28.7736  -10.1868 C   0  0  0  0  0  0  0  0  0  0  0  0
   20.7936  -29.0414  -11.5456 C   0  0  0  0  0  0  0  0  0  0  0  0
   22.0608  -29.7169  -11.4958 N   0  0  0  0  0  0  0  0  0  0  0  0
   17.9095  -25.8207   -7.3372 C   0  0  0  0  0  0  0  0  0  0  0  0
   18.8922  -25.2306   -6.7717 O   0  0  0  0  0  0  0  0  0  0  0  0
   16.7175  -26.0563   -6.5987 N   0  0  0  0  0  0  0  0  0  0  0  0
   16.5762  -25.5232   -5.2587 C   0  0  1  0  0  0  0  0  0  0  0  0
   15.1849  -24.9953   -5.1391 C   0  0  0  0  0  0  0  0  0  0  0  0
   15.0048  -23.5829   -5.5974 C   0  0  0  0  0  0  0  0  0  0  0  0
   13.5588  -23.1200   -5.4700 C   0  0  0  0  0  0  0  0  0  0  0  0
   13.4614  -21.6974   -5.9807 C   0  0  0  0  0  0  0  0  0  0  0  0
   12.0535  -21.2813   -5.9020 N   0  0  0  0  0  0  0  0  0  0  0  0
   16.9373  -26.5509   -4.2867 C   0  0  0  0  0  0  0  0  0  0  0  0
   16.5051  -27.7326   -4.3021 O   0  0  0  0  0  0  0  0  0  0  0  0
   21.0893  -28.8184   -0.8523 C   0  0  0  0  0  0  0  0  0  0  0  0
   19.9121  -27.9146   -0.5640 C   0  0  1  0  0  0  0  0  0  0  0  0
   20.3418  -27.0885    0.6645 C   0  0  0  0  0  0  0  0  0  0  0  0
   19.5755  -27.0173   -1.7034 C   0  0  0  0  0  0  0  0  0  0  0  0
   18.1794  -27.2239   -2.1837 C   0  0  2  0  0  0  0  0  0  0  0  0
   17.8368  -26.2411   -3.2314 N   0  0  0  0  0  0  0  0  0  0  0  0
   17.1393  -27.1469   -1.1412 C   0  0  0  0  0  0  0  0  0  0  0  0
   16.9240  -28.1319   -0.3970 O   0  0  0  0  0  0  0  0  0  0  0  0
   16.3627  -26.0256   -0.9227 O   0  0  0  0  0  0  0  0  0  0  0  0
  2  1  1  1
  3  2  1  0
  4  5  1  0
  4  3  1  0
  5  6  1  0
  7  6  1  0
  8  2  1  0
  8  9  2  0
 10  8  1  0
 11 10  1  0
 11 12  1  1
 13 12  1  0
 14 15  1  0
 14 13  1  0
 15 16  1  0
 17 11  1  0
 18 17  2  0
 20 19  1  6
 20 22  1  0
 20 21  1  0
 23 22  1  1
 23 24  1  0
 23 25  1  0
 24 17  1  0
 25 27  1  0
 26 25  2  0
M  END
$$$$
