KKL.pdb
     RDKit          3D

 27 26  0  0  1  0  0  0  0  0999 V2000
   22.6869  -20.5725  -16.3977 N   0  0  0  0  0  0  0  0  0  0  0  0
   21.7485  -20.1616  -17.3984 C   0  0  1  0  0  0  0  0  0  0  0  0
   20.3723  -19.9005  -16.8050 C   0  0  0  0  0  0  0  0  0  0  0  0
   19.8485  -21.1322  -16.1110 C   0  0  0  0  0  0  0  0  0  0  0  0
   18.3902  -21.0446  -15.8094 C   0  0  0  0  0  0  0  0  0  0  0  0
   17.8178  -22.3108  -15.2394 C   0  0  0  0  0  0  0  0  0  0  0  0
   16.3883  -22.2724  -15.0992 N   0  0  0  0  0  0  0  0  0  0  0  0
   22.2790  -18.9504  -18.0741 C   0  0  0  0  0  0  0  0  0  0  0  0
   22.8628  -18.0510  -17.3784 O   0  0  0  0  0  0  0  0  0  0  0  0
   22.1498  -18.7724  -19.4790 N   0  0  0  0  0  0  0  0  0  0  0  0
   22.7791  -17.6402  -20.1284 C   0  0  1  0  0  0  0  0  0  0  0  0
   23.3326  -18.1283  -21.4260 C   0  0  0  0  0  0  0  0  0  0  0  0
   24.4605  -19.1031  -21.3036 C   0  0  0  0  0  0  0  0  0  0  0  0
   25.0148  -19.5105  -22.6631 C   0  0  0  0  0  0  0  0  0  0  0  0
   26.1175  -20.5266  -22.4491 C   0  0  0  0  0  0  0  0  0  0  0  0
   26.5656  -20.9961  -23.7683 N   0  0  0  0  0  0  0  0  0  0  0  0
   21.8187  -16.5457  -20.2342 C   0  0  0  0  0  0  0  0  0  0  0  0
   20.5776  -16.6650  -20.0646 O   0  0  0  0  0  0  0  0  0  0  0  0
   18.3998  -13.0835  -20.3732 C   0  0  0  0  0  0  0  0  0  0  0  0
   19.6108  -12.7634  -19.5265 C   0  0  1  0  0  0  0  0  0  0  0  0
   19.0388  -12.4108  -18.1392 C   0  0  0  0  0  0  0  0  0  0  0  0
   20.5648  -13.9016  -19.4227 C   0  0  0  0  0  0  0  0  0  0  0  0
   21.3385  -14.0987  -20.6817 C   0  0  2  0  0  0  0  0  0  0  0  0
   22.2711  -15.2361  -20.5489 N   0  0  0  0  0  0  0  0  0  0  0  0
   22.1194  -12.9301  -21.1277 C   0  0  0  0  0  0  0  0  0  0  0  0
   23.3213  -12.8145  -20.7924 O   0  0  0  0  0  0  0  0  0  0  0  0
   21.5981  -11.9229  -21.9165 O   0  0  0  0  0  0  0  0  0  0  0  0
  2  1  1  1
  3  2  1  0
  4  5  1  0
  4  3  1  0
  5  6  1  0
  7  6  1  0
  8  2  1  0
  8  9  2  0
 10  8  1  0
 11 10  1  0
 11 12  1  6
 13 12  1  0
 14 15  1  0
 14 13  1  0
 15 16  1  0
 17 11  1  0
 18 17  2  0
 20 19  1  6
 20 22  1  0
 20 21  1  0
 23 22  1  1
 23 24  1  0
 23 25  1  0
 24 17  1  0
 25 27  1  0
 26 25  2  0
M  END
$$$$
