KKL.pdb
     RDKit          3D

 27 26  0  0  1  0  0  0  0  0999 V2000
   20.9765  -20.7587  -13.4199 N   0  0  0  0  0  0  0  0  0  0  0  0
   21.3882  -20.0117  -12.2695 C   0  0  1  0  0  0  0  0  0  0  0  0
   20.2769  -19.9143  -11.2353 C   0  0  0  0  0  0  0  0  0  0  0  0
   18.9535  -20.3160  -11.8353 C   0  0  0  0  0  0  0  0  0  0  0  0
   18.7644  -21.7953  -11.8701 C   0  0  0  0  0  0  0  0  0  0  0  0
   17.3992  -22.2154  -12.3342 C   0  0  0  0  0  0  0  0  0  0  0  0
   17.2540  -23.6404  -12.4475 N   0  0  0  0  0  0  0  0  0  0  0  0
   22.5980  -20.6549  -11.6970 C   0  0  0  0  0  0  0  0  0  0  0  0
   22.4625  -21.6500  -10.9063 O   0  0  0  0  0  0  0  0  0  0  0  0
   23.9028  -20.1853  -12.0114 N   0  0  0  0  0  0  0  0  0  0  0  0
   25.0665  -20.9422  -11.5962 C   0  0  1  0  0  0  0  0  0  0  0  0
   25.9584  -21.0673  -12.7868 C   0  0  0  0  0  0  0  0  0  0  0  0
   25.8676  -22.3747  -13.5081 C   0  0  0  0  0  0  0  0  0  0  0  0
   26.7911  -22.4255  -14.7188 C   0  0  0  0  0  0  0  0  0  0  0  0
   26.5930  -23.7530  -15.4207 C   0  0  0  0  0  0  0  0  0  0  0  0
   27.4762  -23.7826  -16.5956 N   0  0  0  0  0  0  0  0  0  0  0  0
   25.6709  -20.3035  -10.4307 C   0  0  0  0  0  0  0  0  0  0  0  0
   25.5820  -19.0777  -10.1612 O   0  0  0  0  0  0  0  0  0  0  0  0
   28.0275  -18.4963   -6.1962 C   0  0  0  0  0  0  0  0  0  0  0  0
   28.1508  -19.9968   -6.3348 C   0  0  1  0  0  0  0  0  0  0  0  0
   28.0101  -20.5375   -4.8981 C   0  0  0  0  0  0  0  0  0  0  0  0
   27.1073  -20.5866   -7.2179 C   0  0  0  0  0  0  0  0  0  0  0  0
   27.4731  -20.4856   -8.6595 C   0  0  2  0  0  0  0  0  0  0  0  0
   26.4213  -21.0810   -9.5082 N   0  0  0  0  0  0  0  0  0  0  0  0
   28.7544  -21.1159   -9.0274 C   0  0  0  0  0  0  0  0  0  0  0  0
   28.7621  -22.2166   -9.6264 O   0  0  0  0  0  0  0  0  0  0  0  0
   29.9858  -20.5558   -8.7478 O   0  0  0  0  0  0  0  0  0  0  0  0
  2  1  1  6
  3  2  1  0
  4  5  1  0
  4  3  1  0
  5  6  1  0
  7  6  1  0
  8  2  1  0
  8  9  2  0
 10  8  1  0
 11 10  1  0
 11 12  1  6
 13 12  1  0
 14 15  1  0
 14 13  1  0
 15 16  1  0
 17 11  1  0
 18 17  2  0
 20 19  1  1
 20 22  1  0
 20 21  1  0
 23 22  1  1
 23 24  1  0
 23 25  1  0
 24 17  1  0
 25 27  1  0
 26 25  2  0
M  END
$$$$
