KKL.pdb
     RDKit          3D

 27 26  0  0  1  0  0  0  0  0999 V2000
   43.9735  -10.5102   -7.0582 N   0  0  0  0  0  0  0  0  0  0  0  0
   44.8348  -11.3066   -7.8797 C   0  0  1  0  0  0  0  0  0  0  0  0
   45.8599  -12.0646   -7.0498 C   0  0  0  0  0  0  0  0  0  0  0  0
   46.8585  -11.1149   -6.4384 C   0  0  0  0  0  0  0  0  0  0  0  0
   47.9064  -11.8179   -5.6428 C   0  0  0  0  0  0  0  0  0  0  0  0
   48.9071  -10.8902   -5.0152 C   0  0  0  0  0  0  0  0  0  0  0  0
   49.9540  -11.5792   -4.3124 N   0  0  0  0  0  0  0  0  0  0  0  0
   43.9976  -12.2377   -8.6780 C   0  0  0  0  0  0  0  0  0  0  0  0
   42.9383  -12.7287   -8.1580 O   0  0  0  0  0  0  0  0  0  0  0  0
   44.3519  -12.5928  -10.0086 N   0  0  0  0  0  0  0  0  0  0  0  0
   43.4877  -13.4605  -10.7830 C   0  0  1  0  0  0  0  0  0  0  0  0
   43.0191  -12.6758  -11.9634 C   0  0  0  0  0  0  0  0  0  0  0  0
   42.0789  -13.4034  -12.8713 C   0  0  0  0  0  0  0  0  0  0  0  0
   41.6508  -12.5472  -14.0567 C   0  0  0  0  0  0  0  0  0  0  0  0
   40.5810  -13.2922  -14.8279 C   0  0  0  0  0  0  0  0  0  0  0  0
   40.1704  -12.4526  -15.9626 N   0  0  0  0  0  0  0  0  0  0  0  0
   44.1978  -14.6962  -11.0997 C   0  0  0  0  0  0  0  0  0  0  0  0
   45.4422  -14.7832  -11.2642 O   0  0  0  0  0  0  0  0  0  0  0  0
   42.7904  -19.6025   -8.9236 C   0  0  0  0  0  0  0  0  0  0  0  0
   43.6217  -18.4988   -9.5374 C   0  0  1  0  0  0  0  0  0  0  0  0
   45.0826  -18.9104   -9.2678 C   0  0  0  0  0  0  0  0  0  0  0  0
   43.3869  -18.3385  -10.9988 C   0  0  0  0  0  0  0  0  0  0  0  0
   44.1458  -17.1863  -11.5635 C   0  0  2  0  0  0  0  0  0  0  0  0
   43.4744  -15.9108  -11.2419 N   0  0  0  0  0  0  0  0  0  0  0  0
   44.3536  -17.2265  -13.0228 C   0  0  0  0  0  0  0  0  0  0  0  0
   43.5114  -16.7051  -13.7903 O   0  0  0  0  0  0  0  0  0  0  0  0
   45.4501  -17.8184  -13.6191 O   0  0  0  0  0  0  0  0  0  0  0  0
  2  1  1  1
  3  2  1  0
  4  5  1  0
  4  3  1  0
  5  6  1  0
  7  6  1  0
  8  2  1  0
  8  9  2  0
 10  8  1  0
 11 10  1  0
 11 12  1  6
 13 12  1  0
 14 15  1  0
 14 13  1  0
 15 16  1  0
 17 11  1  0
 18 17  2  0
 20 19  1  6
 20 22  1  0
 20 21  1  0
 23 22  1  6
 23 24  1  0
 23 25  1  0
 24 17  1  0
 25 27  1  0
 26 25  2  0
M  END
$$$$
