KKL.pdb
     RDKit          3D

 27 26  0  0  1  0  0  0  0  0999 V2000
   20.6146  -27.4449  -14.1398 N   0  0  0  0  0  0  0  0  0  0  0  0
   19.2960  -27.7140  -13.6502 C   0  0  1  0  0  0  0  0  0  0  0  0
   18.2515  -27.5857  -14.7488 C   0  0  0  0  0  0  0  0  0  0  0  0
   17.9745  -26.1356  -15.0543 C   0  0  0  0  0  0  0  0  0  0  0  0
   16.5257  -25.7945  -14.9538 C   0  0  0  0  0  0  0  0  0  0  0  0
   16.0892  -24.7359  -15.9258 C   0  0  0  0  0  0  0  0  0  0  0  0
   14.6838  -24.4457  -15.8525 N   0  0  0  0  0  0  0  0  0  0  0  0
   19.2820  -29.0739  -13.0541 C   0  0  0  0  0  0  0  0  0  0  0  0
   18.2238  -29.7852  -13.1432 O   0  0  0  0  0  0  0  0  0  0  0  0
   20.4225  -29.5992  -12.3866 N   0  0  0  0  0  0  0  0  0  0  0  0
   20.3830  -30.9331  -11.8220 C   0  0  1  0  0  0  0  0  0  0  0  0
   21.7755  -31.4697  -11.8618 C   0  0  0  0  0  0  0  0  0  0  0  0
   21.9190  -32.8857  -11.4017 C   0  0  0  0  0  0  0  0  0  0  0  0
   23.3746  -33.3352  -11.3788 C   0  0  0  0  0  0  0  0  0  0  0  0
   23.4369  -34.7383  -10.8115 C   0  0  0  0  0  0  0  0  0  0  0  0
   24.8524  -35.1113  -10.6754 N   0  0  0  0  0  0  0  0  0  0  0  0
   19.7740  -30.8814  -10.4961 C   0  0  0  0  0  0  0  0  0  0  0  0
   20.1124  -30.0824   -9.5850 O   0  0  0  0  0  0  0  0  0  0  0  0
   14.4585  -30.8062   -9.6887 C   0  0  0  0  0  0  0  0  0  0  0  0
   15.9583  -30.6823   -9.5437 C   0  0  1  0  0  0  0  0  0  0  0  0
   16.1643  -29.4847   -8.5952 C   0  0  0  0  0  0  0  0  0  0  0  0
   16.5909  -31.9071   -8.9813 C   0  0  0  0  0  0  0  0  0  0  0  0
   18.0677  -31.7595   -8.8420 C   0  0  2  0  0  0  0  0  0  0  0  0
   18.7215  -31.7771  -10.1662 N   0  0  0  0  0  0  0  0  0  0  0  0
   18.7244  -32.7812   -8.0057 C   0  0  0  0  0  0  0  0  0  0  0  0
   19.2961  -33.7582   -8.5433 O   0  0  0  0  0  0  0  0  0  0  0  0
   18.7532  -32.7309   -6.6255 O   0  0  0  0  0  0  0  0  0  0  0  0
  2  1  1  6
  3  2  1  0
  4  5  1  0
  4  3  1  0
  5  6  1  0
  7  6  1  0
  8  2  1  0
  8  9  2  0
 10  8  1  0
 11 10  1  0
 11 12  1  1
 13 12  1  0
 14 15  1  0
 14 13  1  0
 15 16  1  0
 17 11  1  0
 18 17  2  0
 20 19  1  1
 20 22  1  0
 20 21  1  0
 23 22  1  6
 23 24  1  0
 23 25  1  0
 24 17  1  0
 25 27  1  0
 26 25  2  0
M  END
$$$$
