KKL.pdb
     RDKit          3D

 27 26  0  0  1  0  0  0  0  0999 V2000
   25.9595  -22.3238  -13.9371 N   0  0  0  0  0  0  0  0  0  0  0  0
   25.1889  -21.1207  -13.8387 C   0  0  1  0  0  0  0  0  0  0  0  0
   24.8346  -20.5665  -15.2104 C   0  0  0  0  0  0  0  0  0  0  0  0
   26.0771  -20.3580  -16.0384 C   0  0  0  0  0  0  0  0  0  0  0  0
   26.4889  -18.9257  -16.1049 C   0  0  0  0  0  0  0  0  0  0  0  0
   27.6553  -18.6781  -17.0181 C   0  0  0  0  0  0  0  0  0  0  0  0
   27.9786  -17.2850  -17.1575 N   0  0  0  0  0  0  0  0  0  0  0  0
   23.9672  -21.4061  -13.0444 C   0  0  0  0  0  0  0  0  0  0  0  0
   23.3167  -22.4845  -13.2629 O   0  0  0  0  0  0  0  0  0  0  0  0
   23.5078  -20.5033  -12.0464 N   0  0  0  0  0  0  0  0  0  0  0  0
   22.3107  -20.8068  -11.2884 C   0  0  1  0  0  0  0  0  0  0  0  0
   22.4074  -20.0647   -9.9966 C   0  0  0  0  0  0  0  0  0  0  0  0
   21.2884  -20.3201   -9.0375 C   0  0  0  0  0  0  0  0  0  0  0  0
   21.2423  -21.7746   -8.5861 C   0  0  0  0  0  0  0  0  0  0  0  0
   20.0733  -21.9484   -7.6387 C   0  0  0  0  0  0  0  0  0  0  0  0
   19.9829  -23.3724   -7.2844 N   0  0  0  0  0  0  0  0  0  0  0  0
   21.1338  -20.4993  -12.0957 C   0  0  0  0  0  0  0  0  0  0  0  0
   20.9268  -19.3973  -12.6666 O   0  0  0  0  0  0  0  0  0  0  0  0
   19.5894  -23.0068  -16.3196 C   0  0  0  0  0  0  0  0  0  0  0  0
   19.6537  -21.9390  -15.2511 C   0  0  1  0  0  0  0  0  0  0  0  0
   19.3103  -20.6274  -15.9845 C   0  0  0  0  0  0  0  0  0  0  0  0
   18.6987  -22.1766  -14.1339 C   0  0  0  0  0  0  0  0  0  0  0  0
   18.8826  -21.1983  -13.0242 C   0  0  2  0  0  0  0  0  0  0  0  0
   20.1247  -21.4829  -12.2775 N   0  0  0  0  0  0  0  0  0  0  0  0
   17.7781  -21.1408  -12.0489 C   0  0  0  0  0  0  0  0  0  0  0  0
   17.9089  -21.6727  -10.9219 O   0  0  0  0  0  0  0  0  0  0  0  0
   16.5709  -20.5190  -12.3026 O   0  0  0  0  0  0  0  0  0  0  0  0
  2  1  1  6
  3  2  1  0
  4  5  1  0
  4  3  1  0
  5  6  1  0
  7  6  1  0
  8  2  1  0
  8  9  2  0
 10  8  1  0
 11 10  1  0
 11 12  1  1
 13 12  1  0
 14 15  1  0
 14 13  1  0
 15 16  1  0
 17 11  1  0
 18 17  2  0
 20 19  1  6
 20 22  1  0
 20 21  1  0
 23 22  1  6
 23 24  1  0
 23 25  1  0
 24 17  1  0
 25 27  1  0
 26 25  2  0
M  END
$$$$
