PHR.pdb
     RDKit          3D

 29 30  0  0  1  0  0  0  0  0999 V2000
   27.9879  -19.7009  -16.4129 N   0  0  0  0  0  0  0  0  0  0  0  0
   29.3180  -19.5397  -16.9156 C   0  0  0  0  0  0  0  0  0  0  0  0
   29.1932  -19.0332  -18.3501 C   0  0  0  0  0  0  0  0  0  0  0  0
   27.7723  -19.4544  -18.7063 C   0  0  0  0  0  0  0  0  0  0  0  0
   27.0617  -19.2223  -17.3898 C   0  0  1  0  0  0  0  0  0  0  0  0
   25.7551  -19.8835  -17.3439 C   0  0  0  0  0  0  0  0  0  0  0  0
   24.8615  -19.5354  -18.1549 O   0  0  0  0  0  0  0  0  0  0  0  0
   25.4666  -20.9114  -16.4056 N   0  0  0  0  0  0  0  0  0  0  0  0
   24.1797  -21.5672  -16.3342 C   0  0  1  0  0  0  0  0  0  0  0  0
   24.2336  -23.0482  -16.2256 C   0  0  0  0  0  0  0  0  0  0  0  0
   25.5438  -23.6697  -16.4438 C   0  0  0  0  0  0  0  0  0  0  0  0
   26.7575  -23.1218  -16.7902 C   0  0  0  0  0  0  0  0  0  0  0  0
   27.6580  -24.1420  -16.8738 N   0  0  0  0  0  0  0  0  0  0  0  0
   27.0442  -25.2868  -16.5932 C   0  0  0  0  0  0  0  0  0  0  0  0
   25.7664  -25.0007  -16.3335 N   0  0  0  0  0  0  0  0  0  0  0  0
   23.5204  -21.0785  -15.0681 C   0  0  0  0  0  0  0  0  0  0  0  0
   24.2383  -20.5528  -14.1948 O   0  0  0  0  0  0  0  0  0  0  0  0
   20.9733  -16.7255  -18.6245 N   0  0  0  0  0  0  0  0  0  0  0  0
   19.8203  -16.5964  -17.7757 C   0  0  0  0  0  0  0  0  0  0  0  0
   18.7778  -15.9976  -18.2321 N   0  0  0  0  0  0  0  0  0  0  0  0
   19.8192  -17.1132  -16.4631 N   0  0  0  0  0  0  0  0  0  0  0  0
   20.9975  -17.8403  -15.9328 C   0  0  0  0  0  0  0  0  0  0  0  0
   20.7272  -18.3187  -14.5556 C   0  0  0  0  0  0  0  0  0  0  0  0
   21.7127  -19.1854  -13.9046 C   0  0  0  0  0  0  0  0  0  0  0  0
   21.4778  -20.6168  -13.7042 C   0  0  2  0  0  0  0  0  0  0  0  0
   22.1498  -21.2301  -14.9214 N   0  0  0  0  0  0  0  0  0  0  0  0
   20.1747  -21.2133  -13.6900 C   0  0  0  0  0  0  0  0  0  0  0  0
   19.7696  -21.8601  -14.7270 O   0  0  0  0  0  0  0  0  0  0  0  0
   19.2863  -21.1742  -12.6458 O   0  0  0  0  0  0  0  0  0  0  0  0
  1  2  1  0
  3  2  1  0
  4  3  1  0
  5  4  1  0
  5  1  1  0
  5  6  1  6
  7  6  2  0
  8  6  1  0
  9  8  1  0
 10 11  1  0
  9 10  1  1
 11 15  1  0
 12 11  2  0
 12 13  1  0
 13 14  1  0
 15 14  2  0
 16  9  1  0
 16 17  2  0
 19 20  2  0
 19 18  1  0
 21 19  1  0
 22 21  1  0
 23 22  1  0
 24 23  1  0
 25 24  1  6
 25 26  1  0
 26 16  1  0
 27 25  1  0
 28 27  2  0
 29 27  1  0
M  END
$$$$
