PHR.pdb
     RDKit          3D

 29 30  0  0  1  0  0  0  0  0999 V2000
   19.2831  -25.0176  -14.1159 N   0  0  0  0  0  0  0  0  0  0  0  0
   20.1661  -24.6353  -15.1752 C   0  0  0  0  0  0  0  0  0  0  0  0
   20.8095  -25.9154  -15.7019 C   0  0  0  0  0  0  0  0  0  0  0  0
   20.6166  -26.8669  -14.5269 C   0  0  0  0  0  0  0  0  0  0  0  0
   19.2501  -26.4434  -14.0314 C   0  0  1  0  0  0  0  0  0  0  0  0
   18.9685  -26.9525  -12.6867 C   0  0  0  0  0  0  0  0  0  0  0  0
   18.0092  -27.7454  -12.5184 O   0  0  0  0  0  0  0  0  0  0  0  0
   19.7512  -26.5748  -11.5621 N   0  0  0  0  0  0  0  0  0  0  0  0
   19.5653  -27.1528  -10.2496 C   0  0  1  0  0  0  0  0  0  0  0  0
   20.8048  -27.6552   -9.6021 C   0  0  0  0  0  0  0  0  0  0  0  0
   21.3664  -28.8960  -10.1460 C   0  0  0  0  0  0  0  0  0  0  0  0
   20.9165  -29.7307  -11.1431 C   0  0  0  0  0  0  0  0  0  0  0  0
   21.8087  -30.7559  -11.2519 N   0  0  0  0  0  0  0  0  0  0  0  0
   22.7816  -30.5807  -10.3638 C   0  0  0  0  0  0  0  0  0  0  0  0
   22.5137  -29.4565   -9.6956 N   0  0  0  0  0  0  0  0  0  0  0  0
   19.0499  -26.0455   -9.3638 C   0  0  0  0  0  0  0  0  0  0  0  0
   19.4189  -24.8789   -9.6034 O   0  0  0  0  0  0  0  0  0  0  0  0
   11.2773  -26.1874   -5.2282 N   0  0  0  0  0  0  0  0  0  0  0  0
   11.7581  -24.8332   -5.1860 C   0  0  0  0  0  0  0  0  0  0  0  0
   10.9387  -23.8934   -4.8721 N   0  0  0  0  0  0  0  0  0  0  0  0
   13.1031  -24.5272   -5.4817 N   0  0  0  0  0  0  0  0  0  0  0  0
   14.0100  -25.5570   -6.0434 C   0  0  0  0  0  0  0  0  0  0  0  0
   15.3311  -24.9608   -6.3559 C   0  0  0  0  0  0  0  0  0  0  0  0
   16.3102  -25.7640   -7.0925 C   0  0  0  0  0  0  0  0  0  0  0  0
   17.6154  -25.2301   -7.4868 C   0  0  2  0  0  0  0  0  0  0  0  0
   18.1906  -26.3617   -8.3223 N   0  0  0  0  0  0  0  0  0  0  0  0
   18.6605  -24.9199   -6.5564 C   0  0  0  0  0  0  0  0  0  0  0  0
   19.6938  -25.6857   -6.4957 O   0  0  0  0  0  0  0  0  0  0  0  0
   18.6801  -23.8484   -5.7005 O   0  0  0  0  0  0  0  0  0  0  0  0
  1  2  1  0
  3  2  1  0
  4  3  1  0
  5  4  1  0
  5  1  1  0
  5  6  1  1
  7  6  2  0
  8  6  1  0
  9  8  1  0
 10 11  1  0
  9 10  1  1
 11 15  1  0
 12 11  2  0
 12 13  1  0
 13 14  1  0
 15 14  2  0
 16  9  1  0
 16 17  2  0
 19 20  2  0
 19 18  1  0
 21 19  1  0
 22 21  1  0
 23 22  1  0
 24 23  1  0
 25 24  1  1
 25 26  1  0
 26 16  1  0
 27 25  1  0
 28 27  2  0
 29 27  1  0
M  END
$$$$
