PHR.pdb
     RDKit          3D

 29 30  0  0  1  0  0  0  0  0999 V2000
   27.2868  -18.3905  -17.5553 N   0  0  0  0  0  0  0  0  0  0  0  0
   28.4298  -17.9510  -18.2958 C   0  0  0  0  0  0  0  0  0  0  0  0
   28.7949  -16.5655  -17.7698 C   0  0  0  0  0  0  0  0  0  0  0  0
   27.4870  -16.1231  -17.1241 C   0  0  0  0  0  0  0  0  0  0  0  0
   26.9956  -17.4299  -16.5385 C   0  0  1  0  0  0  0  0  0  0  0  0
   25.5798  -17.3699  -16.1660 C   0  0  0  0  0  0  0  0  0  0  0  0
   25.2221  -16.6105  -15.2318 O   0  0  0  0  0  0  0  0  0  0  0  0
   24.5947  -18.1481  -16.8323 N   0  0  0  0  0  0  0  0  0  0  0  0
   23.1852  -18.0593  -16.5214 C   0  0  1  0  0  0  0  0  0  0  0  0
   22.2859  -17.9625  -17.7004 C   0  0  0  0  0  0  0  0  0  0  0  0
   22.3372  -16.7073  -18.4569 C   0  0  0  0  0  0  0  0  0  0  0  0
   21.9028  -15.4413  -18.1376 C   0  0  0  0  0  0  0  0  0  0  0  0
   22.1831  -14.6328  -19.1990 N   0  0  0  0  0  0  0  0  0  0  0  0
   22.7690  -15.3527  -20.1502 C   0  0  0  0  0  0  0  0  0  0  0  0
   22.8618  -16.6064  -19.7010 N   0  0  0  0  0  0  0  0  0  0  0  0
   22.8200  -19.3449  -15.8210 C   0  0  0  0  0  0  0  0  0  0  0  0
   23.4678  -20.3729  -16.1004 O   0  0  0  0  0  0  0  0  0  0  0  0
   25.1949  -21.2833   -8.3536 N   0  0  0  0  0  0  0  0  0  0  0  0
   25.9203  -21.2490   -9.5943 C   0  0  0  0  0  0  0  0  0  0  0  0
   27.0827  -21.7960   -9.6487 N   0  0  0  0  0  0  0  0  0  0  0  0
   25.3777  -20.6293  -10.7397 N   0  0  0  0  0  0  0  0  0  0  0  0
   24.0564  -19.9587  -10.6857 C   0  0  0  0  0  0  0  0  0  0  0  0
   23.1186  -20.5970  -11.6405 C   0  0  0  0  0  0  0  0  0  0  0  0
   22.6692  -19.8308  -12.8056 C   0  0  0  0  0  0  0  0  0  0  0  0
   21.7726  -20.4012  -13.8129 C   0  0  2  0  0  0  0  0  0  0  0  0
   21.7847  -19.3378  -14.8985 N   0  0  0  0  0  0  0  0  0  0  0  0
   20.3794  -20.6498  -13.5864 C   0  0  0  0  0  0  0  0  0  0  0  0
   19.5412  -19.6802  -13.7092 O   0  0  0  0  0  0  0  0  0  0  0  0
   19.8248  -21.8584  -13.2503 O   0  0  0  0  0  0  0  0  0  0  0  0
  1  2  1  0
  3  2  1  0
  4  3  1  0
  5  4  1  0
  5  1  1  0
  5  6  1  6
  7  6  2  0
  8  6  1  0
  9  8  1  0
 10 11  1  0
  9 10  1  6
 11 15  1  0
 12 11  2  0
 12 13  1  0
 13 14  1  0
 15 14  2  0
 16  9  1  0
 16 17  2  0
 19 20  2  0
 19 18  1  0
 21 19  1  0
 22 21  1  0
 23 22  1  0
 24 23  1  0
 25 24  1  1
 25 26  1  0
 26 16  1  0
 27 25  1  0
 28 27  2  0
 29 27  1  0
M  END
$$$$
