PHR.pdb
     RDKit          3D

 29 30  0  0  1  0  0  0  0  0999 V2000
   27.6288  -17.0689  -19.4171 N   0  0  0  0  0  0  0  0  0  0  0  0
   28.3130  -16.4782  -20.5265 C   0  0  0  0  0  0  0  0  0  0  0  0
   29.4603  -15.6512  -19.9526 C   0  0  0  0  0  0  0  0  0  0  0  0
   28.9971  -15.4303  -18.5173 C   0  0  0  0  0  0  0  0  0  0  0  0
   28.3391  -16.7602  -18.2165 C   0  0  1  0  0  0  0  0  0  0  0  0
   27.4908  -16.6987  -17.0235 C   0  0  0  0  0  0  0  0  0  0  0  0
   27.9909  -16.3286  -15.9325 O   0  0  0  0  0  0  0  0  0  0  0  0
   26.1133  -17.0466  -17.0633 N   0  0  0  0  0  0  0  0  0  0  0  0
   25.2543  -16.9756  -15.9020 C   0  0  1  0  0  0  0  0  0  0  0  0
   23.9178  -16.3729  -16.1441 C   0  0  0  0  0  0  0  0  0  0  0  0
   23.8767  -14.9132  -16.2788 C   0  0  0  0  0  0  0  0  0  0  0  0
   24.1677  -13.9140  -15.3785 C   0  0  0  0  0  0  0  0  0  0  0  0
   23.9574  -12.7228  -16.0074 N   0  0  0  0  0  0  0  0  0  0  0  0
   23.5509  -12.9544  -17.2513 C   0  0  0  0  0  0  0  0  0  0  0  0
   23.5023  -14.2785  -17.4146 N   0  0  0  0  0  0  0  0  0  0  0  0
   24.9995  -18.3989  -15.4709 C   0  0  0  0  0  0  0  0  0  0  0  0
   24.8760  -19.2694  -16.3549 O   0  0  0  0  0  0  0  0  0  0  0  0
   26.3805  -19.7630   -8.0488 N   0  0  0  0  0  0  0  0  0  0  0  0
   25.4702  -20.8731   -8.1246 C   0  0  0  0  0  0  0  0  0  0  0  0
   24.6355  -21.0577   -7.1641 N   0  0  0  0  0  0  0  0  0  0  0  0
   25.4819  -21.7521   -9.2280 N   0  0  0  0  0  0  0  0  0  0  0  0
   26.3157  -21.4633  -10.4195 C   0  0  0  0  0  0  0  0  0  0  0  0
   25.4738  -21.4369  -11.6398 C   0  0  0  0  0  0  0  0  0  0  0  0
   25.4538  -20.2203  -12.4558 C   0  0  0  0  0  0  0  0  0  0  0  0
   24.6789  -20.1275  -13.6948 C   0  0  2  0  0  0  0  0  0  0  0  0
   24.9123  -18.6866  -14.1172 N   0  0  0  0  0  0  0  0  0  0  0  0
   23.2551  -20.2802  -13.7543 C   0  0  0  0  0  0  0  0  0  0  0  0
   22.5085  -19.2338  -13.6801 O   0  0  0  0  0  0  0  0  0  0  0  0
   22.5810  -21.4661  -13.8972 O   0  0  0  0  0  0  0  0  0  0  0  0
  1  2  1  0
  3  2  1  0
  4  3  1  0
  5  4  1  0
  5  1  1  0
  5  6  1  1
  7  6  2  0
  8  6  1  0
  9  8  1  0
 10 11  1  0
  9 10  1  6
 11 15  1  0
 12 11  2  0
 12 13  1  0
 13 14  1  0
 15 14  2  0
 16  9  1  0
 16 17  2  0
 19 20  2  0
 19 18  1  0
 21 19  1  0
 22 21  1  0
 23 22  1  0
 24 23  1  0
 25 24  1  1
 25 26  1  0
 26 16  1  0
 27 25  1  0
 28 27  2  0
 29 27  1  0
M  END
$$$$
