PHR.pdb
     RDKit          3D

 29 30  0  0  1  0  0  0  0  0999 V2000
   26.4466  -20.5284  -15.6861 N   0  0  0  0  0  0  0  0  0  0  0  0
   27.8255  -20.4459  -16.0600 C   0  0  0  0  0  0  0  0  0  0  0  0
   28.5384  -19.6628  -14.9608 C   0  0  0  0  0  0  0  0  0  0  0  0
   27.3803  -18.9158  -14.3097 C   0  0  0  0  0  0  0  0  0  0  0  0
   26.2832  -19.9563  -14.3872 C   0  0  1  0  0  0  0  0  0  0  0  0
   24.9571  -19.3782  -14.1552 C   0  0  0  0  0  0  0  0  0  0  0  0
   24.7228  -18.7950  -13.0678 O   0  0  0  0  0  0  0  0  0  0  0  0
   23.9232  -19.4576  -15.1272 N   0  0  0  0  0  0  0  0  0  0  0  0
   22.6709  -18.7461  -14.9976 C   0  0  1  0  0  0  0  0  0  0  0  0
   22.4708  -17.6422  -15.9720 C   0  0  0  0  0  0  0  0  0  0  0  0
   23.4044  -16.5151  -15.8795 C   0  0  0  0  0  0  0  0  0  0  0  0
   24.1493  -16.0430  -14.8233 C   0  0  0  0  0  0  0  0  0  0  0  0
   24.8484  -14.9600  -15.2675 N   0  0  0  0  0  0  0  0  0  0  0  0
   24.5605  -14.7531  -16.5483 C   0  0  0  0  0  0  0  0  0  0  0  0
   23.6877  -15.6933  -16.9175 N   0  0  0  0  0  0  0  0  0  0  0  0
   21.5783  -19.7499  -15.2724 C   0  0  0  0  0  0  0  0  0  0  0  0
   21.7806  -20.6171  -16.1450 O   0  0  0  0  0  0  0  0  0  0  0  0
   18.7642  -24.2895   -9.3569 N   0  0  0  0  0  0  0  0  0  0  0  0
   17.9748  -23.3044  -10.0448 C   0  0  0  0  0  0  0  0  0  0  0  0
   16.9099  -22.8576   -9.4793 N   0  0  0  0  0  0  0  0  0  0  0  0
   18.3507  -22.8278  -11.3182 N   0  0  0  0  0  0  0  0  0  0  0  0
   19.5826  -23.3207  -11.9798 C   0  0  0  0  0  0  0  0  0  0  0  0
   19.7200  -22.7127  -13.3251 C   0  0  0  0  0  0  0  0  0  0  0  0
   19.1665  -21.3757  -13.5540 C   0  0  0  0  0  0  0  0  0  0  0  0
   19.3025  -20.6871  -14.8391 C   0  0  2  0  0  0  0  0  0  0  0  0
   20.3969  -19.6730  -14.5504 N   0  0  0  0  0  0  0  0  0  0  0  0
   18.2581  -19.9094  -15.4378 C   0  0  0  0  0  0  0  0  0  0  0  0
   18.1740  -18.6544  -15.1624 O   0  0  0  0  0  0  0  0  0  0  0  0
   17.3110  -20.3771  -16.3126 O   0  0  0  0  0  0  0  0  0  0  0  0
  1  2  1  0
  3  2  1  0
  4  3  1  0
  5  4  1  0
  5  1  1  0
  5  6  1  6
  7  6  2  0
  8  6  1  0
  9  8  1  0
 10 11  1  0
  9 10  1  6
 11 15  1  0
 12 11  2  0
 12 13  1  0
 13 14  1  0
 15 14  2  0
 16  9  1  0
 16 17  2  0
 19 20  2  0
 19 18  1  0
 21 19  1  0
 22 21  1  0
 23 22  1  0
 24 23  1  0
 25 24  1  1
 25 26  1  0
 26 16  1  0
 27 25  1  0
 28 27  2  0
 29 27  1  0
M  END
$$$$
