PHR.pdb
     RDKit          3D

 29 30  0  0  1  0  0  0  0  0999 V2000
   26.7577  -20.8945  -15.3688 N   0  0  0  0  0  0  0  0  0  0  0  0
   28.1336  -20.9237  -15.7611 C   0  0  0  0  0  0  0  0  0  0  0  0
   28.7948  -19.6878  -15.1569 C   0  0  0  0  0  0  0  0  0  0  0  0
   27.5935  -18.7846  -14.9036 C   0  0  0  0  0  0  0  0  0  0  0  0
   26.5531  -19.7980  -14.4761 C   0  0  1  0  0  0  0  0  0  0  0  0
   25.1965  -19.2458  -14.5144 C   0  0  0  0  0  0  0  0  0  0  0  0
   24.9252  -18.2343  -13.8211 O   0  0  0  0  0  0  0  0  0  0  0  0
   24.1739  -19.8223  -15.3155 N   0  0  0  0  0  0  0  0  0  0  0  0
   22.8618  -19.2304  -15.4550 C   0  0  1  0  0  0  0  0  0  0  0  0
   22.3618  -19.1308  -16.8508 C   0  0  0  0  0  0  0  0  0  0  0  0
   22.9641  -18.0859  -17.6850 C   0  0  0  0  0  0  0  0  0  0  0  0
   23.8814  -17.1056  -17.3835 C   0  0  0  0  0  0  0  0  0  0  0  0
   24.1004  -16.3864  -18.5209 N   0  0  0  0  0  0  0  0  0  0  0  0
   23.3556  -16.8870  -19.5011 C   0  0  0  0  0  0  0  0  0  0  0  0
   22.6691  -17.9142  -18.9952 N   0  0  0  0  0  0  0  0  0  0  0  0
   21.9022  -20.1422  -14.7309 C   0  0  0  0  0  0  0  0  0  0  0  0
   22.1701  -21.3588  -14.6796 O   0  0  0  0  0  0  0  0  0  0  0  0
   24.3380  -20.1546   -8.8202 N   0  0  0  0  0  0  0  0  0  0  0  0
   23.1324  -20.8320   -8.4273 C   0  0  0  0  0  0  0  0  0  0  0  0
   22.8663  -20.9486   -7.1747 N   0  0  0  0  0  0  0  0  0  0  0  0
   22.2481  -21.3641   -9.3891 N   0  0  0  0  0  0  0  0  0  0  0  0
   21.9759  -20.6386  -10.6533 C   0  0  0  0  0  0  0  0  0  0  0  0
   20.5622  -20.1933  -10.6941 C   0  0  0  0  0  0  0  0  0  0  0  0
   20.0295  -19.6533  -11.9475 C   0  0  0  0  0  0  0  0  0  0  0  0
   19.9709  -20.4497  -13.1749 C   0  0  2  0  0  0  0  0  0  0  0  0
   20.7648  -19.5992  -14.1525 N   0  0  0  0  0  0  0  0  0  0  0  0
   18.7550  -20.7403  -13.8757 C   0  0  0  0  0  0  0  0  0  0  0  0
   18.3739  -19.9554  -14.8225 O   0  0  0  0  0  0  0  0  0  0  0  0
   17.9308  -21.8112  -13.6415 O   0  0  0  0  0  0  0  0  0  0  0  0
  1  2  1  0
  3  2  1  0
  4  3  1  0
  5  4  1  0
  5  1  1  0
  5  6  1  6
  7  6  2  0
  8  6  1  0
  9  8  1  0
 10 11  1  0
  9 10  1  6
 11 15  1  0
 12 11  2  0
 12 13  1  0
 13 14  1  0
 15 14  2  0
 16  9  1  0
 16 17  2  0
 19 20  2  0
 19 18  1  0
 21 19  1  0
 22 21  1  0
 23 22  1  0
 24 23  1  0
 25 24  1  1
 25 26  1  0
 26 16  1  0
 27 25  1  0
 28 27  2  0
 29 27  1  0
M  END
$$$$
