PHR.pdb
     RDKit          3D

 29 30  0  0  1  0  0  0  0  0999 V2000
   30.9312  -20.5086  -10.1782 N   0  0  0  0  0  0  0  0  0  0  0  0
   32.2217  -20.5527   -9.5611 C   0  0  0  0  0  0  0  0  0  0  0  0
   32.5156  -22.0176   -9.2490 C   0  0  0  0  0  0  0  0  0  0  0  0
   31.1167  -22.6227   -9.2493 C   0  0  0  0  0  0  0  0  0  0  0  0
   30.4639  -21.8447  -10.3721 C   0  0  1  0  0  0  0  0  0  0  0  0
   29.0044  -21.9718  -10.3556 C   0  0  0  0  0  0  0  0  0  0  0  0
   28.4846  -23.1048  -10.5095 O   0  0  0  0  0  0  0  0  0  0  0  0
   28.1551  -20.8474  -10.1701 N   0  0  0  0  0  0  0  0  0  0  0  0
   26.7125  -20.9486  -10.1649 C   0  0  1  0  0  0  0  0  0  0  0  0
   26.0171  -19.9803   -9.2778 C   0  0  0  0  0  0  0  0  0  0  0  0
   24.5580  -20.1029   -9.1974 C   0  0  0  0  0  0  0  0  0  0  0  0
   23.5648  -19.6388  -10.0290 C   0  0  0  0  0  0  0  0  0  0  0  0
   22.3707  -20.0191   -9.4921 N   0  0  0  0  0  0  0  0  0  0  0  0
   22.5949  -20.6943   -8.3697 C   0  0  0  0  0  0  0  0  0  0  0  0
   23.9170  -20.7446   -8.1921 N   0  0  0  0  0  0  0  0  0  0  0  0
   26.2566  -20.6326  -11.5681 C   0  0  0  0  0  0  0  0  0  0  0  0
   26.7555  -19.6442  -12.1413 O   0  0  0  0  0  0  0  0  0  0  0  0
   23.7736  -26.3546  -15.0368 N   0  0  0  0  0  0  0  0  0  0  0  0
   23.7407  -25.9258  -16.4086 C   0  0  0  0  0  0  0  0  0  0  0  0
   22.8871  -26.4630  -17.2062 N   0  0  0  0  0  0  0  0  0  0  0  0
   24.6238  -24.9337  -16.8842 N   0  0  0  0  0  0  0  0  0  0  0  0
   25.5398  -24.2259  -15.9577 C   0  0  0  0  0  0  0  0  0  0  0  0
   24.8122  -23.1524  -15.2388 C   0  0  0  0  0  0  0  0  0  0  0  0
   25.5576  -22.2909  -14.3175 C   0  0  0  0  0  0  0  0  0  0  0  0
   24.9245  -21.1751  -13.6118 C   0  0  2  0  0  0  0  0  0  0  0  0
   25.3061  -21.4462  -12.1661 N   0  0  0  0  0  0  0  0  0  0  0  0
   23.5072  -20.9676  -13.5635 C   0  0  0  0  0  0  0  0  0  0  0  0
   22.8469  -21.3846  -12.5398 O   0  0  0  0  0  0  0  0  0  0  0  0
   22.7555  -20.3398  -14.5237 O   0  0  0  0  0  0  0  0  0  0  0  0
  1  2  1  0
  3  2  1  0
  4  3  1  0
  5  4  1  0
  5  1  1  0
  5  6  1  1
  7  6  2  0
  8  6  1  0
  9  8  1  0
 10 11  1  0
  9 10  1  1
 11 15  1  0
 12 11  2  0
 12 13  1  0
 13 14  1  0
 15 14  2  0
 16  9  1  0
 16 17  2  0
 19 20  2  0
 19 18  1  0
 21 19  1  0
 22 21  1  0
 23 22  1  0
 24 23  1  0
 25 24  1  6
 25 26  1  0
 26 16  1  0
 27 25  1  0
 28 27  2  0
 29 27  1  0
M  END
$$$$
