PHR.pdb
     RDKit          3D

 29 30  0  0  1  0  0  0  0  0999 V2000
   28.5616  -24.5912  -17.8078 N   0  0  0  0  0  0  0  0  0  0  0  0
   29.7332  -25.3187  -18.1901 C   0  0  0  0  0  0  0  0  0  0  0  0
   30.7613  -25.1219  -17.0793 C   0  0  0  0  0  0  0  0  0  0  0  0
   30.2503  -23.8551  -16.4031 C   0  0  0  0  0  0  0  0  0  0  0  0
   28.7532  -24.0602  -16.4953 C   0  0  1  0  0  0  0  0  0  0  0  0
   28.0100  -22.8234  -16.2406 C   0  0  0  0  0  0  0  0  0  0  0  0
   28.1428  -22.2438  -15.1343 O   0  0  0  0  0  0  0  0  0  0  0  0
   27.1398  -22.2572  -17.2112 N   0  0  0  0  0  0  0  0  0  0  0  0
   26.3529  -21.0704  -16.9593 C   0  0  1  0  0  0  0  0  0  0  0  0
   26.5705  -19.9561  -17.9180 C   0  0  0  0  0  0  0  0  0  0  0  0
   27.8473  -19.2432  -17.8085 C   0  0  0  0  0  0  0  0  0  0  0  0
   28.9173  -19.4303  -16.9637 C   0  0  0  0  0  0  0  0  0  0  0  0
   29.8524  -18.4875  -17.2730 N   0  0  0  0  0  0  0  0  0  0  0  0
   29.3971  -17.7350  -18.2693 C   0  0  0  0  0  0  0  0  0  0  0  0
   28.1852  -18.1923  -18.5924 N   0  0  0  0  0  0  0  0  0  0  0  0
   24.9074  -21.4758  -17.1102 C   0  0  0  0  0  0  0  0  0  0  0  0
   24.6328  -22.3931  -17.9087 O   0  0  0  0  0  0  0  0  0  0  0  0
   19.9156  -22.1522  -10.3166 N   0  0  0  0  0  0  0  0  0  0  0  0
   19.7759  -23.2026  -11.2881 C   0  0  0  0  0  0  0  0  0  0  0  0
   19.4416  -24.3778  -10.8874 N   0  0  0  0  0  0  0  0  0  0  0  0
   19.9986  -22.9616  -12.6601 N   0  0  0  0  0  0  0  0  0  0  0  0
   20.4373  -21.6273  -13.1348 C   0  0  0  0  0  0  0  0  0  0  0  0
   20.7632  -21.6795  -14.5804 C   0  0  0  0  0  0  0  0  0  0  0  0
   22.1096  -21.2975  -15.0135 C   0  0  0  0  0  0  0  0  0  0  0  0
   22.5099  -21.3219  -16.4217 C   0  0  2  0  0  0  0  0  0  0  0  0
   23.9426  -20.8190  -16.3613 N   0  0  0  0  0  0  0  0  0  0  0  0
   21.9003  -20.5117  -17.4347 C   0  0  0  0  0  0  0  0  0  0  0  0
   22.3355  -19.3153  -17.6272 O   0  0  0  0  0  0  0  0  0  0  0  0
   20.8716  -20.8952  -18.2568 O   0  0  0  0  0  0  0  0  0  0  0  0
  1  2  1  0
  3  2  1  0
  4  3  1  0
  5  4  1  0
  5  1  1  0
  5  6  1  6
  7  6  2  0
  8  6  1  0
  9  8  1  0
 10 11  1  0
  9 10  1  6
 11 15  1  0
 12 11  2  0
 12 13  1  0
 13 14  1  0
 15 14  2  0
 16  9  1  0
 16 17  2  0
 19 20  2  0
 19 18  1  0
 21 19  1  0
 22 21  1  0
 23 22  1  0
 24 23  1  0
 25 24  1  1
 25 26  1  0
 26 16  1  0
 27 25  1  0
 28 27  2  0
 29 27  1  0
M  END
$$$$
