PHR.pdb
     RDKit          3D

 29 30  0  0  1  0  0  0  0  0999 V2000
   28.6894  -22.0339  -12.2728 N   0  0  0  0  0  0  0  0  0  0  0  0
   30.1047  -22.1606  -12.1031 C   0  0  0  0  0  0  0  0  0  0  0  0
   30.5404  -21.0471  -11.1543 C   0  0  0  0  0  0  0  0  0  0  0  0
   29.3877  -20.0584  -11.2845 C   0  0  0  0  0  0  0  0  0  0  0  0
   28.2095  -21.0008  -11.4104 C   0  0  1  0  0  0  0  0  0  0  0  0
   27.0102  -20.3214  -11.9074 C   0  0  0  0  0  0  0  0  0  0  0  0
   26.5890  -19.3015  -11.3077 O   0  0  0  0  0  0  0  0  0  0  0  0
   26.3060  -20.7834  -13.0522 N   0  0  0  0  0  0  0  0  0  0  0  0
   25.2967  -19.9932  -13.7218 C   0  0  1  0  0  0  0  0  0  0  0  0
   25.4878  -19.8398  -15.1874 C   0  0  0  0  0  0  0  0  0  0  0  0
   26.6185  -19.0085  -15.6130 C   0  0  0  0  0  0  0  0  0  0  0  0
   27.7904  -19.3368  -16.2550 C   0  0  0  0  0  0  0  0  0  0  0  0
   28.5079  -18.1879  -16.4096 N   0  0  0  0  0  0  0  0  0  0  0  0
   27.8230  -17.1750  -15.8890 C   0  0  0  0  0  0  0  0  0  0  0  0
   26.6811  -17.6716  -15.4077 N   0  0  0  0  0  0  0  0  0  0  0  0
   23.9910  -20.7283  -13.5448 C   0  0  0  0  0  0  0  0  0  0  0  0
   24.0114  -21.9749  -13.5473 O   0  0  0  0  0  0  0  0  0  0  0  0
   18.2734  -21.6656   -8.8157 N   0  0  0  0  0  0  0  0  0  0  0  0
   19.4719  -22.2469   -8.2750 C   0  0  0  0  0  0  0  0  0  0  0  0
   19.3780  -23.3154   -7.5659 N   0  0  0  0  0  0  0  0  0  0  0  0
   20.7353  -21.6653   -8.5109 N   0  0  0  0  0  0  0  0  0  0  0  0
   20.8578  -20.4004   -9.2747 C   0  0  0  0  0  0  0  0  0  0  0  0
   20.4010  -20.5991  -10.6713 C   0  0  0  0  0  0  0  0  0  0  0  0
   21.1650  -19.9800  -11.7574 C   0  0  0  0  0  0  0  0  0  0  0  0
   21.5632  -20.7270  -12.9523 C   0  0  2  0  0  0  0  0  0  0  0  0
   22.8233  -19.9972  -13.3869 N   0  0  0  0  0  0  0  0  0  0  0  0
   20.7729  -20.7957  -14.1459 C   0  0  0  0  0  0  0  0  0  0  0  0
   21.0972  -20.0657  -15.1557 O   0  0  0  0  0  0  0  0  0  0  0  0
   19.6738  -21.5941  -14.3350 O   0  0  0  0  0  0  0  0  0  0  0  0
  1  2  1  0
  3  2  1  0
  4  3  1  0
  5  4  1  0
  5  1  1  0
  5  6  1  6
  7  6  2  0
  8  6  1  0
  9  8  1  0
 10 11  1  0
  9 10  1  6
 11 15  1  0
 12 11  2  0
 12 13  1  0
 13 14  1  0
 15 14  2  0
 16  9  1  0
 16 17  2  0
 19 20  2  0
 19 18  1  0
 21 19  1  0
 22 21  1  0
 23 22  1  0
 24 23  1  0
 25 24  1  1
 25 26  1  0
 26 16  1  0
 27 25  1  0
 28 27  2  0
 29 27  1  0
M  END
$$$$
