PHR.pdb
     RDKit          3D

 29 30  0  0  1  0  0  0  0  0999 V2000
   26.5709  -19.3955  -14.9538 N   0  0  0  0  0  0  0  0  0  0  0  0
   27.6613  -18.7842  -15.6506 C   0  0  0  0  0  0  0  0  0  0  0  0
   28.7649  -19.8332  -15.7576 C   0  0  0  0  0  0  0  0  0  0  0  0
   28.3891  -20.7957  -14.6370 C   0  0  0  0  0  0  0  0  0  0  0  0
   26.8781  -20.7724  -14.7286 C   0  0  1  0  0  0  0  0  0  0  0  0
   26.2441  -21.3347  -13.5333 C   0  0  0  0  0  0  0  0  0  0  0  0
   26.3814  -22.5577  -13.2828 O   0  0  0  0  0  0  0  0  0  0  0  0
   25.4753  -20.5350  -12.6448 N   0  0  0  0  0  0  0  0  0  0  0  0
   24.9730  -21.0297  -11.3822 C   0  0  1  0  0  0  0  0  0  0  0  0
   25.4140  -20.2653  -10.1867 C   0  0  0  0  0  0  0  0  0  0  0  0
   26.8044  -20.4624   -9.7645 C   0  0  0  0  0  0  0  0  0  0  0  0
   27.8201  -21.2075  -10.3182 C   0  0  0  0  0  0  0  0  0  0  0  0
   28.9186  -21.0548   -9.5253 N   0  0  0  0  0  0  0  0  0  0  0  0
   28.6147  -20.2491   -8.5131 C   0  0  0  0  0  0  0  0  0  0  0  0
   27.3368  -19.8914   -8.6582 N   0  0  0  0  0  0  0  0  0  0  0  0
   23.4713  -20.8926  -11.4360 C   0  0  0  0  0  0  0  0  0  0  0  0
   22.9677  -20.3071  -12.4149 O   0  0  0  0  0  0  0  0  0  0  0  0
   17.9231  -24.2283   -6.8184 N   0  0  0  0  0  0  0  0  0  0  0  0
   16.9986  -24.2250   -7.9192 C   0  0  0  0  0  0  0  0  0  0  0  0
   15.7375  -24.2597   -7.6705 N   0  0  0  0  0  0  0  0  0  0  0  0
   17.4537  -24.1845   -9.2540 N   0  0  0  0  0  0  0  0  0  0  0  0
   18.9013  -24.0860   -9.5595 C   0  0  0  0  0  0  0  0  0  0  0  0
   19.4008  -22.7268   -9.2405 C   0  0  0  0  0  0  0  0  0  0  0  0
   20.8050  -22.4102   -9.5130 C   0  0  0  0  0  0  0  0  0  0  0  0
   21.2011  -21.4790  -10.5714 C   0  0  2  0  0  0  0  0  0  0  0  0
   22.7102  -21.4183  -10.4030 N   0  0  0  0  0  0  0  0  0  0  0  0
   20.8007  -20.1034  -10.6096 C   0  0  0  0  0  0  0  0  0  0  0  0
   21.5121  -19.2257   -9.9921 O   0  0  0  0  0  0  0  0  0  0  0  0
   19.7051  -19.6052  -11.2673 O   0  0  0  0  0  0  0  0  0  0  0  0
  1  2  1  0
  3  2  1  0
  4  3  1  0
  5  4  1  0
  5  1  1  0
  5  6  1  1
  7  6  2  0
  8  6  1  0
  9  8  1  0
 10 11  1  0
  9 10  1  1
 11 15  1  0
 12 11  2  0
 12 13  1  0
 13 14  1  0
 15 14  2  0
 16  9  1  0
 16 17  2  0
 19 20  2  0
 19 18  1  0
 21 19  1  0
 22 21  1  0
 23 22  1  0
 24 23  1  0
 25 24  1  1
 25 26  1  0
 26 16  1  0
 27 25  1  0
 28 27  2  0
 29 27  1  0
M  END
$$$$
