PHR.pdb
     RDKit          3D

 29 30  0  0  1  0  0  0  0  0999 V2000
   27.5976  -20.1049  -16.6586 N   0  0  0  0  0  0  0  0  0  0  0  0
   28.1331  -19.6999  -17.9224 C   0  0  0  0  0  0  0  0  0  0  0  0
   28.7638  -18.3250  -17.7184 C   0  0  0  0  0  0  0  0  0  0  0  0
   28.0595  -17.8439  -16.4552 C   0  0  0  0  0  0  0  0  0  0  0  0
   27.9538  -19.1351  -15.6718 C   0  0  1  0  0  0  0  0  0  0  0  0
   26.9974  -19.0333  -14.5666 C   0  0  0  0  0  0  0  0  0  0  0  0
   27.2002  -18.1947  -13.6539 O   0  0  0  0  0  0  0  0  0  0  0  0
   25.8421  -19.8581  -14.4954 N   0  0  0  0  0  0  0  0  0  0  0  0
   24.7699  -19.6235  -13.5538 C   0  0  1  0  0  0  0  0  0  0  0  0
   23.4202  -20.0318  -14.0228 C   0  0  0  0  0  0  0  0  0  0  0  0
   22.8705  -19.2814  -15.1564 C   0  0  0  0  0  0  0  0  0  0  0  0
   22.6970  -19.6345  -16.4750 C   0  0  0  0  0  0  0  0  0  0  0  0
   22.1503  -18.5630  -17.1169 N   0  0  0  0  0  0  0  0  0  0  0  0
   21.9841  -17.5735  -16.2455 C   0  0  0  0  0  0  0  0  0  0  0  0
   22.4196  -18.0083  -15.0608 N   0  0  0  0  0  0  0  0  0  0  0  0
   25.0682  -20.4758  -12.3450 C   0  0  0  0  0  0  0  0  0  0  0  0
   25.4655  -21.6430  -12.5303 O   0  0  0  0  0  0  0  0  0  0  0  0
   30.3104  -19.6499   -5.6862 N   0  0  0  0  0  0  0  0  0  0  0  0
   29.0335  -19.7538   -5.0341 C   0  0  0  0  0  0  0  0  0  0  0  0
   28.9816  -19.6591   -3.7528 N   0  0  0  0  0  0  0  0  0  0  0  0
   27.8502  -19.9560   -5.7752 N   0  0  0  0  0  0  0  0  0  0  0  0
   27.8666  -19.9147   -7.2572 C   0  0  0  0  0  0  0  0  0  0  0  0
   26.4988  -20.1229   -7.7906 C   0  0  0  0  0  0  0  0  0  0  0  0
   26.3021  -20.1295   -9.2424 C   0  0  0  0  0  0  0  0  0  0  0  0
   25.1692  -20.8121   -9.8706 C   0  0  2  0  0  0  0  0  0  0  0  0
   24.8914  -19.9352  -11.0803 N   0  0  0  0  0  0  0  0  0  0  0  0
   23.8869  -20.9607   -9.2480 C   0  0  0  0  0  0  0  0  0  0  0  0
   22.8943  -20.2654   -9.6828 O   0  0  0  0  0  0  0  0  0  0  0  0
   23.5940  -21.8038   -8.2066 O   0  0  0  0  0  0  0  0  0  0  0  0
  1  2  1  0
  3  2  1  0
  4  3  1  0
  5  4  1  0
  5  1  1  0
  5  6  1  1
  7  6  2  0
  8  6  1  0
  9  8  1  0
 10 11  1  0
  9 10  1  6
 11 15  1  0
 12 11  2  0
 12 13  1  0
 13 14  1  0
 15 14  2  0
 16  9  1  0
 16 17  2  0
 19 20  2  0
 19 18  1  0
 21 19  1  0
 22 21  1  0
 23 22  1  0
 24 23  1  0
 25 24  1  1
 25 26  1  0
 26 16  1  0
 27 25  1  0
 28 27  2  0
 29 27  1  0
M  END
$$$$
