AWC.pdb
     RDKit          3D

 26 27  0  0  1  0  0  0  0  0999 V2000
   27.0750  -20.6718  -16.5752 C   0  0  0  0  0  0  0  0  0  0  0  0
   27.9212  -21.1847  -15.4333 C   0  0  2  0  0  0  0  0  0  0  0  0
   28.7107  -22.2991  -15.9243 N   0  0  0  0  0  0  0  0  0  0  0  0
   27.1016  -21.5528  -14.2623 C   0  0  0  0  0  0  0  0  0  0  0  0
   26.6281  -22.7332  -14.2298 O   0  0  0  0  0  0  0  0  0  0  0  0
   26.8532  -20.6483  -13.2277 N   0  0  0  0  0  0  0  0  0  0  0  0
   25.9723  -20.9865  -12.0596 C   0  0  1  0  0  0  0  0  0  0  0  0
   26.5520  -20.1260  -10.9940 C   0  0  0  0  0  0  0  0  0  0  0  0
   27.7028  -20.5892  -10.2441 C   0  0  0  0  0  0  0  0  0  0  0  0
   28.8705  -21.2282  -10.5477 C   0  0  0  0  0  0  0  0  0  0  0  0
   29.6161  -21.3982   -9.4424 N   0  0  0  0  0  0  0  0  0  0  0  0
   28.9608  -20.8766   -8.3886 C   0  0  0  0  0  0  0  0  0  0  0  0
   29.2886  -20.7785   -7.0298 C   0  0  0  0  0  0  0  0  0  0  0  0
   28.4133  -20.1692   -6.1640 C   0  0  0  0  0  0  0  0  0  0  0  0
   27.2131  -19.6466   -6.5876 C   0  0  0  0  0  0  0  0  0  0  0  0
   26.9302  -19.7649   -7.9339 C   0  0  0  0  0  0  0  0  0  0  0  0
   27.7753  -20.3689   -8.8533 C   0  0  0  0  0  0  0  0  0  0  0  0
   24.6377  -20.4788  -12.4670 C   0  0  0  0  0  0  0  0  0  0  0  0
   24.5935  -19.6216  -13.4315 O   0  0  0  0  0  0  0  0  0  0  0  0
   23.4019  -20.8716  -11.8789 N   0  0  0  0  0  0  0  0  0  0  0  0
   22.1335  -20.7705  -12.5771 C   0  0  1  0  0  0  0  0  0  0  0  0
   22.1039  -21.7241  -13.7646 C   0  0  0  0  0  0  0  0  0  0  0  0
   22.1780  -20.8575  -15.3551 S   0  0  0  0  0  0  0  0  0  0  0  0
   21.0167  -21.0444  -11.6834 C   0  0  0  0  0  0  0  0  0  0  0  0
   19.7117  -20.7664  -12.1246 O   0  0  0  0  0  0  0  0  0  0  0  0
   21.1290  -21.5239  -10.5168 O   0  0  0  0  0  0  0  0  0  0  0  0
  2  1  1  6
  3  2  1  0
  4  2  1  0
  4  5  2  0
  6  4  1  0
  7  6  1  0
  7  8  1  1
  9  8  1  0
  9 17  1  0
 10 11  1  0
 10  9  2  0
 11 12  1  0
 12 17  2  0
 12 13  1  0
 13 14  2  0
 14 15  1  0
 16 15  2  0
 17 16  1  0
 18  7  1  0
 19 18  2  0
 20 18  1  0
 21 20  1  0
 21 24  1  0
 21 22  1  6
 23 22  1  0
 24 25  1  0
 26 24  2  0
M  END
$$$$
