AWC.pdb
     RDKit          3D

 26 27  0  0  1  0  0  0  0  0999 V2000
   19.4936  -13.1099  -17.7858 C   0  0  0  0  0  0  0  0  0  0  0  0
   19.5839  -11.6277  -18.0649 C   0  0  2  0  0  0  0  0  0  0  0  0
   20.4506  -11.4386  -19.2135 N   0  0  0  0  0  0  0  0  0  0  0  0
   20.0469  -10.8721  -16.8845 C   0  0  0  0  0  0  0  0  0  0  0  0
   19.4040  -11.0353  -15.7988 O   0  0  0  0  0  0  0  0  0  0  0  0
   21.1459  -10.0128  -16.9488 N   0  0  0  0  0  0  0  0  0  0  0  0
   21.6034   -9.2048  -15.7687 C   0  0  1  0  0  0  0  0  0  0  0  0
   23.0769   -9.3965  -15.8335 C   0  0  0  0  0  0  0  0  0  0  0  0
   23.6599  -10.6408  -15.3720 C   0  0  0  0  0  0  0  0  0  0  0  0
   23.1778  -11.8149  -14.8690 C   0  0  0  0  0  0  0  0  0  0  0  0
   24.1844  -12.6705  -14.6218 N   0  0  0  0  0  0  0  0  0  0  0  0
   25.3489  -12.0837  -14.9556 C   0  0  0  0  0  0  0  0  0  0  0  0
   26.6762  -12.5302  -14.9096 C   0  0  0  0  0  0  0  0  0  0  0  0
   27.6851  -11.7013  -15.3363 C   0  0  0  0  0  0  0  0  0  0  0  0
   27.4364  -10.4345  -15.8120 C   0  0  0  0  0  0  0  0  0  0  0  0
   26.1150  -10.0351  -15.8402 C   0  0  0  0  0  0  0  0  0  0  0  0
   25.0564  -10.8286  -15.4230 C   0  0  0  0  0  0  0  0  0  0  0  0
   21.2453   -7.8114  -16.1364 C   0  0  0  0  0  0  0  0  0  0  0  0
   21.5407   -7.4133  -17.3286 O   0  0  0  0  0  0  0  0  0  0  0  0
   20.5939   -6.8831  -15.2755 N   0  0  0  0  0  0  0  0  0  0  0  0
   20.2517   -5.5350  -15.6904 C   0  0  1  0  0  0  0  0  0  0  0  0
   18.7842   -5.2470  -15.4009 C   0  0  0  0  0  0  0  0  0  0  0  0
   18.0184   -4.1976  -16.6652 S   0  0  0  0  0  0  0  0  0  0  0  0
   21.0977   -4.5499  -15.0311 C   0  0  0  0  0  0  0  0  0  0  0  0
   21.5732   -3.4575  -15.7765 O   0  0  0  0  0  0  0  0  0  0  0  0
   21.4459   -4.5987  -13.8146 O   0  0  0  0  0  0  0  0  0  0  0  0
  2  1  1  1
  3  2  1  0
  4  2  1  0
  4  5  2  0
  6  4  1  0
  7  6  1  0
  7  8  1  6
  9  8  1  0
  9 17  1  0
 10 11  1  0
 10  9  2  0
 11 12  1  0
 12 17  2  0
 12 13  1  0
 13 14  2  0
 14 15  1  0
 16 15  2  0
 17 16  1  0
 18  7  1  0
 19 18  2  0
 20 18  1  0
 21 20  1  0
 21 24  1  0
 21 22  1  1
 23 22  1  0
 24 25  1  0
 26 24  2  0
M  END
$$$$
