AWC.pdb
     RDKit          3D

 26 27  0  0  1  0  0  0  0  0999 V2000
   28.6322  -19.1517  -13.6107 C   0  0  0  0  0  0  0  0  0  0  0  0
   29.0818  -19.8412  -12.3437 C   0  0  2  0  0  0  0  0  0  0  0  0
   30.1928  -20.7136  -12.6767 N   0  0  0  0  0  0  0  0  0  0  0  0
   27.9761  -20.5684  -11.6901 C   0  0  0  0  0  0  0  0  0  0  0  0
   27.8822  -21.8162  -11.9203 O   0  0  0  0  0  0  0  0  0  0  0  0
   27.0674  -19.9204  -10.8506 N   0  0  0  0  0  0  0  0  0  0  0  0
   25.9724  -20.6555  -10.1328 C   0  0  1  0  0  0  0  0  0  0  0  0
   25.6697  -19.7186   -9.0180 C   0  0  0  0  0  0  0  0  0  0  0  0
   26.7280  -19.3120   -8.1148 C   0  0  0  0  0  0  0  0  0  0  0  0
   27.5664  -18.2390   -8.0168 C   0  0  0  0  0  0  0  0  0  0  0  0
   28.3613  -18.3585   -6.9396 N   0  0  0  0  0  0  0  0  0  0  0  0
   28.0663  -19.5078   -6.3040 C   0  0  0  0  0  0  0  0  0  0  0  0
   28.5788  -20.1005   -5.1424 C   0  0  0  0  0  0  0  0  0  0  0  0
   28.0661  -21.2996   -4.7108 C   0  0  0  0  0  0  0  0  0  0  0  0
   27.0569  -21.9468   -5.3857 C   0  0  0  0  0  0  0  0  0  0  0  0
   26.5813  -21.3278   -6.5246 C   0  0  0  0  0  0  0  0  0  0  0  0
   27.0601  -20.1184   -7.0068 C   0  0  0  0  0  0  0  0  0  0  0  0
   24.8577  -20.6712  -11.1138 C   0  0  0  0  0  0  0  0  0  0  0  0
   24.6983  -19.6252  -11.8538 O   0  0  0  0  0  0  0  0  0  0  0  0
   23.9555  -21.7559  -11.3050 N   0  0  0  0  0  0  0  0  0  0  0  0
   23.1506  -21.9051  -12.5036 C   0  0  1  0  0  0  0  0  0  0  0  0
   23.5291  -23.1828  -13.2415 C   0  0  0  0  0  0  0  0  0  0  0  0
   22.7709  -24.6587  -12.5112 S   0  0  0  0  0  0  0  0  0  0  0  0
   21.7292  -21.9088  -12.1867 C   0  0  0  0  0  0  0  0  0  0  0  0
   21.3352  -21.8572  -10.8387 O   0  0  0  0  0  0  0  0  0  0  0  0
   20.8001  -21.9546  -13.0459 O   0  0  0  0  0  0  0  0  0  0  0  0
  2  1  1  6
  3  2  1  0
  4  2  1  0
  4  5  2  0
  6  4  1  0
  7  6  1  0
  7  8  1  1
  9  8  1  0
  9 17  1  0
 10 11  1  0
 10  9  2  0
 11 12  1  0
 12 17  2  0
 12 13  1  0
 13 14  2  0
 14 15  1  0
 16 15  2  0
 17 16  1  0
 18  7  1  0
 19 18  2  0
 20 18  1  0
 21 20  1  0
 21 24  1  0
 21 22  1  1
 23 22  1  0
 24 25  1  0
 26 24  2  0
M  END
$$$$
