AWC.pdb
     RDKit          3D

 26 27  0  0  1  0  0  0  0  0999 V2000
   26.8525  -19.2749  -16.5674 C   0  0  0  0  0  0  0  0  0  0  0  0
   25.6930  -18.7131  -17.3567 C   0  0  2  0  0  0  0  0  0  0  0  0
   26.2066  -17.6779  -18.2347 N   0  0  0  0  0  0  0  0  0  0  0  0
   24.6166  -18.2172  -16.4770 C   0  0  0  0  0  0  0  0  0  0  0  0
   24.7435  -17.0423  -16.0057 O   0  0  0  0  0  0  0  0  0  0  0  0
   23.5005  -18.9992  -16.1716 N   0  0  0  0  0  0  0  0  0  0  0  0
   22.3602  -18.4820  -15.3428 C   0  0  1  0  0  0  0  0  0  0  0  0
   21.3898  -18.0786  -16.3953 C   0  0  0  0  0  0  0  0  0  0  0  0
   21.3390  -16.6978  -16.8335 C   0  0  0  0  0  0  0  0  0  0  0  0
   21.6780  -16.0238  -17.9713 C   0  0  0  0  0  0  0  0  0  0  0  0
   21.3880  -14.7171  -17.8495 N   0  0  0  0  0  0  0  0  0  0  0  0
   20.8522  -14.4998  -16.6339 C   0  0  0  0  0  0  0  0  0  0  0  0
   20.3723  -13.3410  -16.0093 C   0  0  0  0  0  0  0  0  0  0  0  0
   19.8567  -13.4204  -14.7385 C   0  0  0  0  0  0  0  0  0  0  0  0
   19.7945  -14.6095  -14.0493 C   0  0  0  0  0  0  0  0  0  0  0  0
   20.2780  -15.7261  -14.7019 C   0  0  0  0  0  0  0  0  0  0  0  0
   20.8087  -15.7057  -15.9834 C   0  0  0  0  0  0  0  0  0  0  0  0
   21.8737  -19.6866  -14.6235 C   0  0  0  0  0  0  0  0  0  0  0  0
   21.7831  -20.7866  -15.2933 O   0  0  0  0  0  0  0  0  0  0  0  0
   21.5062  -19.7216  -13.2483 N   0  0  0  0  0  0  0  0  0  0  0  0
   21.0911  -20.9402  -12.5780 C   0  0  1  0  0  0  0  0  0  0  0  0
   21.2324  -20.7902  -11.0687 C   0  0  0  0  0  0  0  0  0  0  0  0
   20.2205  -19.4402  -10.4057 S   0  0  0  0  0  0  0  0  0  0  0  0
   19.7203  -21.2907  -12.9229 C   0  0  0  0  0  0  0  0  0  0  0  0
   19.2965  -22.6194  -12.7501 O   0  0  0  0  0  0  0  0  0  0  0  0
   18.8610  -20.4774  -13.3744 O   0  0  0  0  0  0  0  0  0  0  0  0
  2  1  1  1
  3  2  1  0
  4  2  1  0
  4  5  2  0
  6  4  1  0
  7  6  1  0
  7  8  1  6
  9  8  1  0
  9 17  1  0
 10 11  1  0
 10  9  2  0
 11 12  1  0
 12 17  2  0
 12 13  1  0
 13 14  2  0
 14 15  1  0
 16 15  2  0
 17 16  1  0
 18  7  1  0
 19 18  2  0
 20 18  1  0
 21 20  1  0
 21 24  1  0
 21 22  1  1
 23 22  1  0
 24 25  1  0
 26 24  2  0
M  END
$$$$
