AWC.pdb
     RDKit          3D

 26 27  0  0  1  0  0  0  0  0999 V2000
   27.1185  -17.5843  -13.7731 C   0  0  0  0  0  0  0  0  0  0  0  0
   28.1372  -18.2009  -12.8430 C   0  0  2  0  0  0  0  0  0  0  0  0
   29.3807  -18.3529  -13.5756 N   0  0  0  0  0  0  0  0  0  0  0  0
   27.6628  -19.4781  -12.2752 C   0  0  0  0  0  0  0  0  0  0  0  0
   28.1080  -20.5494  -12.7974 O   0  0  0  0  0  0  0  0  0  0  0  0
   26.7635  -19.5168  -11.2074 N   0  0  0  0  0  0  0  0  0  0  0  0
   26.3013  -20.8066  -10.5933 C   0  0  1  0  0  0  0  0  0  0  0  0
   25.6220  -20.3207   -9.3626 C   0  0  0  0  0  0  0  0  0  0  0  0
   26.3748  -19.5734   -8.3747 C   0  0  0  0  0  0  0  0  0  0  0  0
   26.6407  -18.2539   -8.1461 C   0  0  0  0  0  0  0  0  0  0  0  0
   27.3927  -18.1089   -7.0416 N   0  0  0  0  0  0  0  0  0  0  0  0
   27.6385  -19.3242   -6.5175 C   0  0  0  0  0  0  0  0  0  0  0  0
   28.3498  -19.7343   -5.3821 C   0  0  0  0  0  0  0  0  0  0  0  0
   28.4258  -21.0714   -5.0766 C   0  0  0  0  0  0  0  0  0  0  0  0
   27.8224  -22.0329   -5.8541 C   0  0  0  0  0  0  0  0  0  0  0  0
   27.1320  -21.5850   -6.9628 C   0  0  0  0  0  0  0  0  0  0  0  0
   27.0216  -20.2490   -7.3196 C   0  0  0  0  0  0  0  0  0  0  0  0
   25.3049  -21.3222  -11.5661 C   0  0  0  0  0  0  0  0  0  0  0  0
   24.5361  -20.4623  -12.1464 O   0  0  0  0  0  0  0  0  0  0  0  0
   25.1381  -22.6930  -11.9129 N   0  0  0  0  0  0  0  0  0  0  0  0
   24.1935  -23.1380  -12.9211 C   0  0  1  0  0  0  0  0  0  0  0  0
   24.3081  -24.6427  -13.1284 C   0  0  0  0  0  0  0  0  0  0  0  0
   23.0804  -25.2792  -14.3004 S   0  0  0  0  0  0  0  0  0  0  0  0
   22.8287  -22.7823  -12.5581 C   0  0  0  0  0  0  0  0  0  0  0  0
   21.9208  -22.4502  -13.5780 O   0  0  0  0  0  0  0  0  0  0  0  0
   22.3845  -22.7485  -11.3727 O   0  0  0  0  0  0  0  0  0  0  0  0
  2  1  1  6
  3  2  1  0
  4  2  1  0
  4  5  2  0
  6  4  1  0
  7  6  1  0
  7  8  1  1
  9  8  1  0
  9 17  1  0
 10 11  1  0
 10  9  2  0
 11 12  1  0
 12 17  2  0
 12 13  1  0
 13 14  2  0
 14 15  1  0
 16 15  2  0
 17 16  1  0
 18  7  1  0
 19 18  2  0
 20 18  1  0
 21 20  1  0
 21 24  1  0
 21 22  1  1
 23 22  1  0
 24 25  1  0
 26 24  2  0
M  END
$$$$
