AWC.pdb
     RDKit          3D

 26 27  0  0  1  0  0  0  0  0999 V2000
   27.4434  -17.2106  -15.1681 C   0  0  0  0  0  0  0  0  0  0  0  0
   28.0790  -18.5722  -15.3266 C   0  0  2  0  0  0  0  0  0  0  0  0
   28.2787  -18.8127  -16.7438 N   0  0  0  0  0  0  0  0  0  0  0  0
   27.2761  -19.6327  -14.6870 C   0  0  0  0  0  0  0  0  0  0  0  0
   26.4010  -20.2144  -15.4043 O   0  0  0  0  0  0  0  0  0  0  0  0
   27.4648  -19.9898  -13.3501 N   0  0  0  0  0  0  0  0  0  0  0  0
   26.6760  -21.0852  -12.6925 C   0  0  1  0  0  0  0  0  0  0  0  0
   27.3682  -21.2008  -11.3812 C   0  0  0  0  0  0  0  0  0  0  0  0
   26.7081  -20.7353  -10.1776 C   0  0  0  0  0  0  0  0  0  0  0  0
   25.4215  -20.4516   -9.8198 C   0  0  0  0  0  0  0  0  0  0  0  0
   25.3633  -20.0698   -8.5324 N   0  0  0  0  0  0  0  0  0  0  0  0
   26.6049  -20.0938   -8.0128 C   0  0  0  0  0  0  0  0  0  0  0  0
   27.0965  -19.8033   -6.7334 C   0  0  0  0  0  0  0  0  0  0  0  0
   28.4406  -19.9300   -6.4792 C   0  0  0  0  0  0  0  0  0  0  0  0
   29.3309  -20.3357   -7.4464 C   0  0  0  0  0  0  0  0  0  0  0  0
   28.8040  -20.6117   -8.6925 C   0  0  0  0  0  0  0  0  0  0  0  0
   27.4571  -20.5018   -9.0060 C   0  0  0  0  0  0  0  0  0  0  0  0
   25.3271  -20.4900  -12.5159 C   0  0  0  0  0  0  0  0  0  0  0  0
   25.2492  -19.2049  -12.4192 O   0  0  0  0  0  0  0  0  0  0  0  0
   24.1120  -21.2294  -12.4525 N   0  0  0  0  0  0  0  0  0  0  0  0
   22.8193  -20.6415  -12.7525 C   0  0  1  0  0  0  0  0  0  0  0  0
   22.8257  -20.0286  -14.1471 C   0  0  0  0  0  0  0  0  0  0  0  0
   21.2138  -20.1492  -14.9677 S   0  0  0  0  0  0  0  0  0  0  0  0
   21.7533  -21.6274  -12.6408 C   0  0  0  0  0  0  0  0  0  0  0  0
   20.5030  -21.2204  -12.1447 O   0  0  0  0  0  0  0  0  0  0  0  0
   21.8640  -22.8472  -12.9624 O   0  0  0  0  0  0  0  0  0  0  0  0
  2  1  1  6
  3  2  1  0
  4  2  1  0
  4  5  2  0
  6  4  1  0
  7  6  1  0
  7  8  1  1
  9  8  1  0
  9 17  1  0
 10 11  1  0
 10  9  2  0
 11 12  1  0
 12 17  2  0
 12 13  1  0
 13 14  2  0
 14 15  1  0
 16 15  2  0
 17 16  1  0
 18  7  1  0
 19 18  2  0
 20 18  1  0
 21 20  1  0
 21 24  1  0
 21 22  1  6
 23 22  1  0
 24 25  1  0
 26 24  2  0
M  END
$$$$
