AWC.pdb
     RDKit          3D

 26 27  0  0  1  0  0  0  0  0999 V2000
   26.8991  -21.2190  -17.2550 C   0  0  0  0  0  0  0  0  0  0  0  0
   27.8083  -21.6110  -16.1137 C   0  0  2  0  0  0  0  0  0  0  0  0
   28.6474  -22.7064  -16.5634 N   0  0  0  0  0  0  0  0  0  0  0  0
   27.0477  -21.9525  -14.8958 C   0  0  0  0  0  0  0  0  0  0  0  0
   26.7994  -23.1832  -14.6893 O   0  0  0  0  0  0  0  0  0  0  0  0
   26.6165  -20.9707  -14.0011 N   0  0  0  0  0  0  0  0  0  0  0  0
   25.8785  -21.3047  -12.7368 C   0  0  1  0  0  0  0  0  0  0  0  0
   26.4871  -20.3448  -11.7776 C   0  0  0  0  0  0  0  0  0  0  0  0
   27.5970  -20.7671  -10.9463 C   0  0  0  0  0  0  0  0  0  0  0  0
   28.8168  -21.3393  -11.1669 C   0  0  0  0  0  0  0  0  0  0  0  0
   29.4798  -21.4974  -10.0085 N   0  0  0  0  0  0  0  0  0  0  0  0
   28.7165  -21.0342   -9.0011 C   0  0  0  0  0  0  0  0  0  0  0  0
   28.9295  -20.9515   -7.6188 C   0  0  0  0  0  0  0  0  0  0  0  0
   27.9576  -20.4073   -6.8148 C   0  0  0  0  0  0  0  0  0  0  0  0
   26.7694  -19.9359   -7.3238 C   0  0  0  0  0  0  0  0  0  0  0  0
   26.6012  -20.0367   -8.6905 C   0  0  0  0  0  0  0  0  0  0  0  0
   27.5470  -20.5759   -9.5502 C   0  0  0  0  0  0  0  0  0  0  0  0
   24.4760  -20.9195  -13.0361 C   0  0  0  0  0  0  0  0  0  0  0  0
   24.2875  -19.9275  -13.8406 O   0  0  0  0  0  0  0  0  0  0  0  0
   23.3227  -21.5665  -12.5082 N   0  0  0  0  0  0  0  0  0  0  0  0
   21.9725  -21.2059  -12.8997 C   0  0  1  0  0  0  0  0  0  0  0  0
   20.9636  -22.1492  -12.2573 C   0  0  0  0  0  0  0  0  0  0  0  0
   21.2588  -22.3809  -10.4838 S   0  0  0  0  0  0  0  0  0  0  0  0
   21.6707  -19.8267  -12.5422 C   0  0  0  0  0  0  0  0  0  0  0  0
   22.5546  -19.1374  -11.6945 O   0  0  0  0  0  0  0  0  0  0  0  0
   20.6554  -19.1847  -12.9428 O   0  0  0  0  0  0  0  0  0  0  0  0
  2  1  1  6
  3  2  1  0
  4  2  1  0
  4  5  2  0
  6  4  1  0
  7  6  1  0
  7  8  1  1
  9  8  1  0
  9 17  1  0
 10 11  1  0
 10  9  2  0
 11 12  1  0
 12 17  2  0
 12 13  1  0
 13 14  2  0
 14 15  1  0
 16 15  2  0
 17 16  1  0
 18  7  1  0
 19 18  2  0
 20 18  1  0
 21 20  1  0
 21 24  1  0
 21 22  1  1
 23 22  1  0
 24 25  1  0
 26 24  2  0
M  END
$$$$
