VFM.pdb
     RDKit          3D

 27 27  0  0  1  0  0  0  0  0999 V2000
   24.7845  -19.7169  -14.7337 C   0  0  0  0  0  0  0  0  0  0  0  0
   24.6654  -20.1381  -13.3120 C   0  0  1  0  0  0  0  0  0  0  0  0
   23.4293  -20.9783  -13.1042 C   0  0  0  0  0  0  0  0  0  0  0  0
   25.8856  -20.8503  -12.7931 C   0  0  2  0  0  0  0  0  0  0  0  0
   26.0227  -22.1523  -13.4904 N   0  0  0  0  0  0  0  0  0  0  0  0
   25.8315  -21.1439  -11.3591 C   0  0  0  0  0  0  0  0  0  0  0  0
   25.5397  -22.3263  -10.9555 O   0  0  0  0  0  0  0  0  0  0  0  0
   26.0789  -20.2269  -10.3206 N   0  0  0  0  0  0  0  0  0  0  0  0
   26.0619  -20.6478   -8.9126 C   0  0  1  0  0  0  0  0  0  0  0  0
   27.1277  -19.7846   -8.2854 C   0  0  0  0  0  0  0  0  0  0  0  0
   27.3278  -19.8873   -6.8653 C   0  0  0  0  0  0  0  0  0  0  0  0
   27.8909  -21.0014   -6.2982 C   0  0  0  0  0  0  0  0  0  0  0  0
   28.1033  -21.0872   -4.9215 C   0  0  0  0  0  0  0  0  0  0  0  0
   27.7313  -20.0201   -4.1446 C   0  0  0  0  0  0  0  0  0  0  0  0
   27.1643  -18.8860   -4.6725 C   0  0  0  0  0  0  0  0  0  0  0  0
   26.9731  -18.8457   -6.0406 C   0  0  0  0  0  0  0  0  0  0  0  0
   24.7019  -20.4209   -8.3331 C   0  0  0  0  0  0  0  0  0  0  0  0
   24.1809  -19.3152   -8.5507 O   0  0  0  0  0  0  0  0  0  0  0  0
   19.8284  -24.8022   -8.2254 C   0  0  0  0  0  0  0  0  0  0  0  0
   20.1255  -24.4806   -6.4641 S   0  0  0  0  0  0  0  0  0  0  0  0
   20.8210  -22.7941   -6.2758 C   0  0  0  0  0  0  0  0  0  0  0  0
   22.1796  -22.7198   -6.8764 C   0  0  0  0  0  0  0  0  0  0  0  0
   22.8144  -21.3760   -6.9022 C   0  0  2  0  0  0  0  0  0  0  0  0
   24.0677  -21.4322   -7.5840 N   0  0  0  0  0  0  0  0  0  0  0  0
   22.7411  -20.6233   -5.6589 C   0  0  0  0  0  0  0  0  0  0  0  0
   21.8353  -19.7471   -5.4903 O   0  0  0  0  0  0  0  0  0  0  0  0
   23.6093  -20.7857   -4.6127 O   0  0  0  0  0  0  0  0  0  0  0  0
  2  4  1  0
  2  1  1  6
  3  2  1  0
  4  6  1  0
  4  5  1  6
  6  7  2  0
  8  9  1  0
  8  6  1  0
  9 10  1  1
 10 11  1  0
 11 16  2  0
 12 13  2  0
 12 11  1  0
 13 14  1  0
 14 15  2  0
 16 15  1  0
 17 18  2  0
 17  9  1  0
 20 21  1  0
 20 19  1  0
 21 22  1  0
 23 22  1  1
 23 24  1  0
 23 25  1  0
 24 17  1  0
 25 27  1  0
 26 25  2  0
M  END
$$$$
