VFM.pdb
     RDKit          3D

 27 27  0  0  1  0  0  0  0  0999 V2000
   27.9116  -19.0926  -14.9702 C   0  0  0  0  0  0  0  0  0  0  0  0
   27.2472  -19.4485  -13.6879 C   0  0  1  0  0  0  0  0  0  0  0  0
   25.7483  -19.4940  -13.8561 C   0  0  0  0  0  0  0  0  0  0  0  0
   27.7537  -20.7316  -13.0857 C   0  0  2  0  0  0  0  0  0  0  0  0
   27.2469  -21.8762  -13.8814 N   0  0  0  0  0  0  0  0  0  0  0  0
   27.3130  -20.9495  -11.7059 C   0  0  0  0  0  0  0  0  0  0  0  0
   26.2722  -21.6612  -11.4683 O   0  0  0  0  0  0  0  0  0  0  0  0
   27.9371  -20.4408  -10.5517 N   0  0  0  0  0  0  0  0  0  0  0  0
   27.3948  -20.7076   -9.2121 C   0  0  1  0  0  0  0  0  0  0  0  0
   28.4948  -20.2306   -8.2972 C   0  0  0  0  0  0  0  0  0  0  0  0
   28.2036  -20.1227   -6.8934 C   0  0  0  0  0  0  0  0  0  0  0  0
   28.3485  -21.1907   -6.0459 C   0  0  0  0  0  0  0  0  0  0  0  0
   28.0856  -21.0750   -4.6801 C   0  0  0  0  0  0  0  0  0  0  0  0
   27.6755  -19.8561   -4.2041 C   0  0  0  0  0  0  0  0  0  0  0  0
   27.5179  -18.7616   -5.0186 C   0  0  0  0  0  0  0  0  0  0  0  0
   27.7897  -18.9231   -6.3640 C   0  0  0  0  0  0  0  0  0  0  0  0
   26.1105  -19.9634   -9.0288 C   0  0  0  0  0  0  0  0  0  0  0  0
   26.0669  -18.8076   -9.4799 O   0  0  0  0  0  0  0  0  0  0  0  0
   23.1615  -19.6623  -13.0976 C   0  0  0  0  0  0  0  0  0  0  0  0
   21.7574  -20.4982  -12.3080 S   0  0  0  0  0  0  0  0  0  0  0  0
   21.9222  -20.3481  -10.4875 C   0  0  0  0  0  0  0  0  0  0  0  0
   23.3344  -20.5599  -10.0721 C   0  0  0  0  0  0  0  0  0  0  0  0
   23.6258  -20.3937   -8.6240 C   0  0  2  0  0  0  0  0  0  0  0  0
   25.0204  -20.5718   -8.3748 N   0  0  0  0  0  0  0  0  0  0  0  0
   22.6790  -21.0249   -7.7169 C   0  0  0  0  0  0  0  0  0  0  0  0
   21.4277  -20.8909   -7.8983 O   0  0  0  0  0  0  0  0  0  0  0  0
   23.0424  -21.7796   -6.6339 O   0  0  0  0  0  0  0  0  0  0  0  0
  2  4  1  0
  2  1  1  6
  3  2  1  0
  4  6  1  0
  4  5  1  6
  6  7  2  0
  8  9  1  0
  8  6  1  0
  9 10  1  1
 10 11  1  0
 11 16  2  0
 12 13  2  0
 12 11  1  0
 13 14  1  0
 14 15  2  0
 16 15  1  0
 17 18  2  0
 17  9  1  0
 20 21  1  0
 20 19  1  0
 21 22  1  0
 23 22  1  6
 23 24  1  0
 23 25  1  0
 24 17  1  0
 25 27  1  0
 26 25  2  0
M  END
$$$$
