VFM.pdb
     RDKit          3D

 27 27  0  0  1  0  0  0  0  0999 V2000
   26.0102  -18.7719  -12.9782 C   0  0  0  0  0  0  0  0  0  0  0  0
   26.6468  -19.9560  -13.6148 C   0  0  1  0  0  0  0  0  0  0  0  0
   27.0592  -19.6446  -15.0326 C   0  0  0  0  0  0  0  0  0  0  0  0
   27.8085  -20.5061  -12.8319 C   0  0  2  0  0  0  0  0  0  0  0  0
   28.2597  -21.7738  -13.4560 N   0  0  0  0  0  0  0  0  0  0  0  0
   27.4859  -20.8147  -11.4368 C   0  0  0  0  0  0  0  0  0  0  0  0
   26.8982  -21.9163  -11.1414 O   0  0  0  0  0  0  0  0  0  0  0  0
   27.7650  -19.9964  -10.3263 N   0  0  0  0  0  0  0  0  0  0  0  0
   27.4052  -20.4130   -8.9637 C   0  0  1  0  0  0  0  0  0  0  0  0
   28.4693  -19.7624   -8.1156 C   0  0  0  0  0  0  0  0  0  0  0  0
   28.3096  -19.8023   -6.6873 C   0  0  0  0  0  0  0  0  0  0  0  0
   27.9591  -18.6859   -5.9726 C   0  0  0  0  0  0  0  0  0  0  0  0
   27.7838  -18.7347   -4.5889 C   0  0  0  0  0  0  0  0  0  0  0  0
   27.9728  -19.9374   -3.9577 C   0  0  0  0  0  0  0  0  0  0  0  0
   28.3241  -21.0788   -4.6360 C   0  0  0  0  0  0  0  0  0  0  0  0
   28.4867  -20.9829   -6.0051 C   0  0  0  0  0  0  0  0  0  0  0  0
   26.0229  -19.9430   -8.6393 C   0  0  0  0  0  0  0  0  0  0  0  0
   25.7141  -18.8067   -9.0325 O   0  0  0  0  0  0  0  0  0  0  0  0
   22.8660  -21.9292  -12.3510 C   0  0  0  0  0  0  0  0  0  0  0  0
   21.5358  -20.9926  -11.5464 S   0  0  0  0  0  0  0  0  0  0  0  0
   21.8524  -20.9403   -9.7407 C   0  0  0  0  0  0  0  0  0  0  0  0
   23.3120  -20.8529   -9.4690 C   0  0  0  0  0  0  0  0  0  0  0  0
   23.7161  -20.8597   -8.0386 C   0  0  2  0  0  0  0  0  0  0  0  0
   25.1367  -20.7730   -7.9237 N   0  0  0  0  0  0  0  0  0  0  0  0
   23.0149  -21.8141   -7.1929 C   0  0  0  0  0  0  0  0  0  0  0  0
   23.5471  -22.9331   -6.9081 O   0  0  0  0  0  0  0  0  0  0  0  0
   21.7724  -21.5972   -6.6603 O   0  0  0  0  0  0  0  0  0  0  0  0
  2  4  1  0
  2  1  1  1
  3  2  1  0
  4  6  1  0
  4  5  1  6
  6  7  2  0
  8  9  1  0
  8  6  1  0
  9 10  1  1
 10 11  1  0
 11 16  2  0
 12 13  2  0
 12 11  1  0
 13 14  1  0
 14 15  2  0
 16 15  1  0
 17 18  2  0
 17  9  1  0
 20 21  1  0
 20 19  1  0
 21 22  1  0
 23 22  1  6
 23 24  1  0
 23 25  1  0
 24 17  1  0
 25 27  1  0
 26 25  2  0
M  END
$$$$
