VFM.pdb
     RDKit          3D

 27 27  0  0  1  0  0  0  0  0999 V2000
   21.6572  -34.5883   -4.6711 C   0  0  0  0  0  0  0  0  0  0  0  0
   22.5133  -34.9002   -5.8469 C   0  0  1  0  0  0  0  0  0  0  0  0
   21.7191  -34.8086   -7.1267 C   0  0  0  0  0  0  0  0  0  0  0  0
   23.7529  -34.0506   -5.9286 C   0  0  2  0  0  0  0  0  0  0  0  0
   24.5527  -34.4684   -7.1059 N   0  0  0  0  0  0  0  0  0  0  0  0
   24.6282  -34.1710   -4.7603 C   0  0  0  0  0  0  0  0  0  0  0  0
   25.3579  -35.2154   -4.6086 O   0  0  0  0  0  0  0  0  0  0  0  0
   24.7671  -33.2188   -3.7334 N   0  0  0  0  0  0  0  0  0  0  0  0
   25.6568  -33.4577   -2.5884 C   0  0  1  0  0  0  0  0  0  0  0  0
   26.2552  -32.0974   -2.3314 C   0  0  0  0  0  0  0  0  0  0  0  0
   25.4335  -31.1120   -1.6824 C   0  0  0  0  0  0  0  0  0  0  0  0
   24.6893  -30.2119   -2.4006 C   0  0  0  0  0  0  0  0  0  0  0  0
   23.8761  -29.2716   -1.7662 C   0  0  0  0  0  0  0  0  0  0  0  0
   23.8406  -29.2713   -0.3954 C   0  0  0  0  0  0  0  0  0  0  0  0
   24.5701  -30.1553    0.3613 C   0  0  0  0  0  0  0  0  0  0  0  0
   25.3611  -31.0683   -0.3100 C   0  0  0  0  0  0  0  0  0  0  0  0
   24.8648  -33.9819   -1.4330 C   0  0  0  0  0  0  0  0  0  0  0  0
   23.6349  -34.0524   -1.5868 O   0  0  0  0  0  0  0  0  0  0  0  0
   21.5302  -38.9092    2.5643 C   0  0  0  0  0  0  0  0  0  0  0  0
   22.2219  -38.0299    1.1352 S   0  0  0  0  0  0  0  0  0  0  0  0
   23.2880  -36.6637    1.7357 C   0  0  0  0  0  0  0  0  0  0  0  0
   23.9401  -35.9698    0.5933 C   0  0  0  0  0  0  0  0  0  0  0  0
   24.9323  -34.9193    0.9417 C   0  0  2  0  0  0  0  0  0  0  0  0
   25.5113  -34.3711   -0.2427 N   0  0  0  0  0  0  0  0  0  0  0  0
   25.8138  -35.2335    2.0561 C   0  0  0  0  0  0  0  0  0  0  0  0
   25.5936  -34.7427    3.2082 O   0  0  0  0  0  0  0  0  0  0  0  0
   26.9114  -36.0461    1.9591 O   0  0  0  0  0  0  0  0  0  0  0  0
  2  4  1  0
  2  1  1  1
  3  2  1  0
  4  6  1  0
  4  5  1  6
  6  7  2  0
  8  9  1  0
  8  6  1  0
  9 10  1  1
 10 11  1  0
 11 16  2  0
 12 13  2  0
 12 11  1  0
 13 14  1  0
 14 15  2  0
 16 15  1  0
 17 18  2  0
 17  9  1  0
 20 21  1  0
 20 19  1  0
 21 22  1  0
 23 22  1  6
 23 24  1  0
 23 25  1  0
 24 17  1  0
 25 27  1  0
 26 25  2  0
M  END
$$$$
