VFM.pdb
     RDKit          3D

 27 27  0  0  1  0  0  0  0  0999 V2000
   24.3307  -19.7491  -14.5154 C   0  0  0  0  0  0  0  0  0  0  0  0
   24.4724  -20.1837  -13.0999 C   0  0  1  0  0  0  0  0  0  0  0  0
   23.5352  -21.3261  -12.7941 C   0  0  0  0  0  0  0  0  0  0  0  0
   25.8848  -20.5386  -12.7198 C   0  0  2  0  0  0  0  0  0  0  0  0
   26.3166  -21.7226  -13.5019 N   0  0  0  0  0  0  0  0  0  0  0  0
   26.0452  -20.8860  -11.3059 C   0  0  0  0  0  0  0  0  0  0  0  0
   25.9442  -22.1082  -10.9288 O   0  0  0  0  0  0  0  0  0  0  0  0
   26.3139  -19.9825  -10.2609 N   0  0  0  0  0  0  0  0  0  0  0  0
   26.4707  -20.4457   -8.8750 C   0  0  1  0  0  0  0  0  0  0  0  0
   27.5270  -19.5212   -8.3235 C   0  0  0  0  0  0  0  0  0  0  0  0
   27.8636  -19.6383   -6.9306 C   0  0  0  0  0  0  0  0  0  0  0  0
   27.5135  -18.6715   -6.0236 C   0  0  0  0  0  0  0  0  0  0  0  0
   27.8232  -18.8002   -4.6689 C   0  0  0  0  0  0  0  0  0  0  0  0
   28.4920  -19.9273   -4.2653 C   0  0  0  0  0  0  0  0  0  0  0  0
   28.8608  -20.9190   -5.1410 C   0  0  0  0  0  0  0  0  0  0  0  0
   28.5331  -20.7486   -6.4727 C   0  0  0  0  0  0  0  0  0  0  0  0
   25.1630  -20.3431   -8.1563 C   0  0  0  0  0  0  0  0  0  0  0  0
   24.5197  -19.2936   -8.3170 O   0  0  0  0  0  0  0  0  0  0  0  0
   19.5674  -21.8451   -8.9811 C   0  0  0  0  0  0  0  0  0  0  0  0
   19.8350  -22.9253   -7.5474 S   0  0  0  0  0  0  0  0  0  0  0  0
   21.1386  -22.1929   -6.4853 C   0  0  0  0  0  0  0  0  0  0  0  0
   22.4297  -22.1188   -7.2197 C   0  0  0  0  0  0  0  0  0  0  0  0
   23.5513  -21.4477   -6.5118 C   0  0  2  0  0  0  0  0  0  0  0  0
   24.7091  -21.4032   -7.3462 N   0  0  0  0  0  0  0  0  0  0  0  0
   23.7239  -21.8193   -5.1154 C   0  0  0  0  0  0  0  0  0  0  0  0
   24.4820  -22.7890   -4.7971 O   0  0  0  0  0  0  0  0  0  0  0  0
   23.1050  -21.1848   -4.0718 O   0  0  0  0  0  0  0  0  0  0  0  0
  2  4  1  0
  2  1  1  6
  3  2  1  0
  4  6  1  0
  4  5  1  6
  6  7  2  0
  8  9  1  0
  8  6  1  0
  9 10  1  1
 10 11  1  0
 11 16  2  0
 12 13  2  0
 12 11  1  0
 13 14  1  0
 14 15  2  0
 16 15  1  0
 17 18  2  0
 17  9  1  0
 20 21  1  0
 20 19  1  0
 21 22  1  0
 23 22  1  6
 23 24  1  0
 23 25  1  0
 24 17  1  0
 25 27  1  0
 26 25  2  0
M  END
$$$$
