VFM.pdb
     RDKit          3D

 27 27  0  0  1  0  0  0  0  0999 V2000
   27.4638  -19.2541  -15.1447 C   0  0  0  0  0  0  0  0  0  0  0  0
   26.9925  -19.6867  -13.8018 C   0  0  1  0  0  0  0  0  0  0  0  0
   25.5178  -20.0056  -13.8291 C   0  0  0  0  0  0  0  0  0  0  0  0
   27.7753  -20.8400  -13.2341 C   0  0  2  0  0  0  0  0  0  0  0  0
   27.4612  -22.0679  -14.0046 N   0  0  0  0  0  0  0  0  0  0  0  0
   27.4640  -21.1307  -11.8326 C   0  0  0  0  0  0  0  0  0  0  0  0
   26.5359  -21.9671  -11.5404 O   0  0  0  0  0  0  0  0  0  0  0  0
   28.1038  -20.5677  -10.7127 N   0  0  0  0  0  0  0  0  0  0  0  0
   27.5941  -20.7905   -9.3524 C   0  0  1  0  0  0  0  0  0  0  0  0
   28.6529  -20.1592   -8.4835 C   0  0  0  0  0  0  0  0  0  0  0  0
   28.3555  -19.9704   -7.0895 C   0  0  0  0  0  0  0  0  0  0  0  0
   27.5705  -18.9327   -6.6569 C   0  0  0  0  0  0  0  0  0  0  0  0
   27.2666  -18.7666   -5.3049 C   0  0  0  0  0  0  0  0  0  0  0  0
   27.7772  -19.6750   -4.4136 C   0  0  0  0  0  0  0  0  0  0  0  0
   28.5672  -20.7281   -4.8051 C   0  0  0  0  0  0  0  0  0  0  0  0
   28.8417  -20.8529   -6.1538 C   0  0  0  0  0  0  0  0  0  0  0  0
   26.2504  -20.1506   -9.2044 C   0  0  0  0  0  0  0  0  0  0  0  0
   26.1048  -19.0335   -9.7260 O   0  0  0  0  0  0  0  0  0  0  0  0
   19.9350  -19.7933  -12.4282 C   0  0  0  0  0  0  0  0  0  0  0  0
   21.6752  -20.2216  -12.1417 S   0  0  0  0  0  0  0  0  0  0  0  0
   21.9778  -20.3063  -10.3348 C   0  0  0  0  0  0  0  0  0  0  0  0
   23.4201  -20.5400  -10.0575 C   0  0  0  0  0  0  0  0  0  0  0  0
   23.8089  -20.6261   -8.6255 C   0  0  2  0  0  0  0  0  0  0  0  0
   25.2197  -20.8092   -8.5043 N   0  0  0  0  0  0  0  0  0  0  0  0
   22.9362  -21.4329   -7.7857 C   0  0  0  0  0  0  0  0  0  0  0  0
   21.6733  -21.3073   -7.8633 O   0  0  0  0  0  0  0  0  0  0  0  0
   23.3845  -22.3525   -6.8758 O   0  0  0  0  0  0  0  0  0  0  0  0
  2  4  1  0
  2  1  1  6
  3  2  1  0
  4  6  1  0
  4  5  1  6
  6  7  2  0
  8  9  1  0
  8  6  1  0
  9 10  1  1
 10 11  1  0
 11 16  2  0
 12 13  2  0
 12 11  1  0
 13 14  1  0
 14 15  2  0
 16 15  1  0
 17 18  2  0
 17  9  1  0
 20 21  1  0
 20 19  1  0
 21 22  1  0
 23 22  1  6
 23 24  1  0
 23 25  1  0
 24 17  1  0
 25 27  1  0
 26 25  2  0
M  END
$$$$
