HHE.pdb
     RDKit          3D

 30 31  0  0  1  0  0  0  0  0999 V2000
   12.5998  -15.4019   18.0316 N   0  0  0  0  0  0  0  0  0  0  0  0
   13.1603  -15.0744   19.3178 C   0  0  1  0  0  0  0  0  0  0  0  0
   13.7524  -13.6892   19.2120 C   0  0  0  0  0  0  0  0  0  0  0  0
   15.0589  -13.8182   18.5049 C   0  0  0  0  0  0  0  0  0  0  0  0
   16.2222  -14.3768   18.9968 C   0  0  0  0  0  0  0  0  0  0  0  0
   17.1558  -14.2846   18.0318 N   0  0  0  0  0  0  0  0  0  0  0  0
   16.6378  -13.6951   16.9556 C   0  0  0  0  0  0  0  0  0  0  0  0
   15.3669  -13.4126   17.2425 N   0  0  0  0  0  0  0  0  0  0  0  0
   12.1360  -15.1805   20.3749 C   0  0  0  0  0  0  0  0  0  0  0  0
   10.9719  -14.7145   20.1539 O   0  0  0  0  0  0  0  0  0  0  0  0
   12.4554  -15.8045   21.6373 N   0  0  0  0  0  0  0  0  0  0  0  0
   11.3789  -16.1706   22.4924 C   0  0  1  0  0  0  0  0  0  0  0  0
   10.4577  -17.1907   21.9016 C   0  0  0  0  0  0  0  0  0  0  0  0
    9.3654  -17.6709   22.7490 C   0  0  0  0  0  0  0  0  0  0  0  0
    8.8818  -17.2950   23.9655 C   0  0  0  0  0  0  0  0  0  0  0  0
    7.8345  -18.0778   24.2754 N   0  0  0  0  0  0  0  0  0  0  0  0
    7.6580  -18.9365   23.2686 C   0  0  0  0  0  0  0  0  0  0  0  0
    8.5761  -18.7076   22.3313 N   0  0  0  0  0  0  0  0  0  0  0  0
   11.8320  -16.6861   23.8264 C   0  0  0  0  0  0  0  0  0  0  0  0
   12.5592  -17.7054   23.8503 O   0  0  0  0  0  0  0  0  0  0  0  0
   11.4783  -16.0796   25.0492 N   0  0  0  0  0  0  0  0  0  0  0  0
   11.9654  -16.4881   26.3453 C   0  0  1  0  0  0  0  0  0  0  0  0
   11.5273  -15.6120   27.4689 C   0  0  0  0  0  0  0  0  0  0  0  0
   10.0277  -15.4202   27.5411 C   0  0  0  0  0  0  0  0  0  0  0  0
    9.7599  -14.5026   28.6605 C   0  0  0  0  0  0  0  0  0  0  0  0
   10.7025  -14.1029   29.3673 O   0  0  0  0  0  0  0  0  0  0  0  0
   11.4592  -17.8633   26.5995 C   0  0  0  0  0  0  0  0  0  0  0  0
   10.5893  -18.4141   25.8565 O   0  0  0  0  0  0  0  0  0  0  0  0
    8.4769  -14.0864   28.9270 O   0  0  0  0  0  0  0  0  0  0  0  0
   11.9067  -18.6366   27.6700 O   0  0  0  0  0  0  0  0  0  0  0  0
  2  1  1  6
  2  9  1  0
  2  3  1  0
  4  3  1  0
  4  8  1  0
  5  6  1  0
  5  4  2  0
  6  7  1  0
  7  8  2  0
  9 11  1  0
 10  9  2  0
 11 12  1  0
 12 13  1  6
 13 14  1  0
 14 18  1  0
 15 14  2  0
 15 16  1  0
 16 17  1  0
 18 17  2  0
 19 21  1  0
 19 12  1  0
 20 19  2  0
 22 27  1  0
 22 23  1  1
 22 21  1  0
 24 23  1  0
 25 24  1  0
 26 25  2  0
 27 30  1  0
 28 27  2  0
 29 25  1  0
M  END
$$$$
