HHE.pdb
     RDKit          3D

 30 31  0  0  1  0  0  0  0  0999 V2000
   13.7043  -14.2258   16.9049 N   0  0  0  0  0  0  0  0  0  0  0  0
   12.8445  -15.2739   17.3930 C   0  0  1  0  0  0  0  0  0  0  0  0
   13.6184  -16.5679   17.3080 C   0  0  0  0  0  0  0  0  0  0  0  0
   13.7987  -16.8826   15.8615 C   0  0  0  0  0  0  0  0  0  0  0  0
   13.1369  -16.3084   14.7941 C   0  0  0  0  0  0  0  0  0  0  0  0
   13.6020  -16.8857   13.6707 N   0  0  0  0  0  0  0  0  0  0  0  0
   14.5245  -17.7959   13.9781 C   0  0  0  0  0  0  0  0  0  0  0  0
   14.6437  -17.7938   15.3059 N   0  0  0  0  0  0  0  0  0  0  0  0
   12.3806  -14.9726   18.7611 C   0  0  0  0  0  0  0  0  0  0  0  0
   13.2003  -14.4625   19.5913 O   0  0  0  0  0  0  0  0  0  0  0  0
   11.0175  -15.2537   19.1455 N   0  0  0  0  0  0  0  0  0  0  0  0
   10.6317  -14.9785   20.4869 C   0  0  1  0  0  0  0  0  0  0  0  0
    9.1555  -14.8200   20.6710 C   0  0  0  0  0  0  0  0  0  0  0  0
    8.4727  -13.8733   19.7883 C   0  0  0  0  0  0  0  0  0  0  0  0
    8.0829  -12.5750   19.9207 C   0  0  0  0  0  0  0  0  0  0  0  0
    7.5024  -12.1787   18.7755 N   0  0  0  0  0  0  0  0  0  0  0  0
    7.5252  -13.2120   17.9304 C   0  0  0  0  0  0  0  0  0  0  0  0
    8.1095  -14.2510   18.5243 N   0  0  0  0  0  0  0  0  0  0  0  0
   11.1023  -16.0165   21.4625 C   0  0  0  0  0  0  0  0  0  0  0  0
   10.9971  -17.2220   21.1398 O   0  0  0  0  0  0  0  0  0  0  0  0
   11.6545  -15.6995   22.7207 N   0  0  0  0  0  0  0  0  0  0  0  0
   12.6386  -16.4954   23.4151 C   0  0  1  0  0  0  0  0  0  0  0  0
   14.0167  -15.9279   23.3869 C   0  0  0  0  0  0  0  0  0  0  0  0
   15.0290  -16.7516   24.1533 C   0  0  0  0  0  0  0  0  0  0  0  0
   16.3469  -16.4914   23.5515 C   0  0  0  0  0  0  0  0  0  0  0  0
   16.8968  -15.3893   23.7275 O   0  0  0  0  0  0  0  0  0  0  0  0
   12.2057  -16.6028   24.8339 C   0  0  0  0  0  0  0  0  0  0  0  0
   12.5142  -17.5947   25.5640 O   0  0  0  0  0  0  0  0  0  0  0  0
   16.9708  -17.4579   22.7984 O   0  0  0  0  0  0  0  0  0  0  0  0
   11.4328  -15.6218   25.4540 O   0  0  0  0  0  0  0  0  0  0  0  0
  2  1  1  1
  2  9  1  0
  2  3  1  0
  4  3  1  0
  4  8  1  0
  5  6  1  0
  5  4  2  0
  6  7  1  0
  7  8  2  0
  9 11  1  0
 10  9  2  0
 11 12  1  0
 12 13  1  6
 13 14  1  0
 14 18  1  0
 15 14  2  0
 15 16  1  0
 16 17  1  0
 18 17  2  0
 19 21  1  0
 19 12  1  0
 20 19  2  0
 22 27  1  0
 22 23  1  1
 22 21  1  0
 24 23  1  0
 25 24  1  0
 26 25  2  0
 27 30  1  0
 28 27  2  0
 29 25  1  0
M  END
$$$$
