HHE.pdb
     RDKit          3D

 30 31  0  0  1  0  0  0  0  0999 V2000
   16.0616  -15.7126   13.2137 N   0  0  0  0  0  0  0  0  0  0  0  0
   16.4933  -17.0389   13.5747 C   0  0  1  0  0  0  0  0  0  0  0  0
   17.8899  -17.2222   13.0301 C   0  0  0  0  0  0  0  0  0  0  0  0
   17.7619  -17.5384   11.5785 C   0  0  0  0  0  0  0  0  0  0  0  0
   17.7180  -16.6409   10.5299 C   0  0  0  0  0  0  0  0  0  0  0  0
   17.5956  -17.3511    9.3932 N   0  0  0  0  0  0  0  0  0  0  0  0
   17.5601  -18.6526    9.6742 C   0  0  0  0  0  0  0  0  0  0  0  0
   17.6610  -18.7659   10.9987 N   0  0  0  0  0  0  0  0  0  0  0  0
   16.4183  -17.2316   15.0359 C   0  0  0  0  0  0  0  0  0  0  0  0
   16.6679  -16.2451   15.8011 O   0  0  0  0  0  0  0  0  0  0  0  0
   16.0662  -18.5210   15.5824 N   0  0  0  0  0  0  0  0  0  0  0  0
   15.9891  -18.6479   16.9973 C   0  0  1  0  0  0  0  0  0  0  0  0
   15.1795  -19.8194   17.4559 C   0  0  0  0  0  0  0  0  0  0  0  0
   14.9149  -19.9244   18.8914 C   0  0  0  0  0  0  0  0  0  0  0  0
   15.2908  -19.1894   19.9748 C   0  0  0  0  0  0  0  0  0  0  0  0
   14.7405  -19.7289   21.0755 N   0  0  0  0  0  0  0  0  0  0  0  0
   14.0262  -20.7900   20.6936 C   0  0  0  0  0  0  0  0  0  0  0  0
   14.1179  -20.9274   19.3720 N   0  0  0  0  0  0  0  0  0  0  0  0
   17.3334  -18.7384   17.6572 C   0  0  0  0  0  0  0  0  0  0  0  0
   18.2306  -19.3970   17.0832 O   0  0  0  0  0  0  0  0  0  0  0  0
   17.6322  -18.1198   18.8886 N   0  0  0  0  0  0  0  0  0  0  0  0
   18.9512  -18.0275   19.4681 C   0  0  1  0  0  0  0  0  0  0  0  0
   19.5441  -16.6604   19.4280 C   0  0  0  0  0  0  0  0  0  0  0  0
   20.9342  -16.5831   20.0214 C   0  0  0  0  0  0  0  0  0  0  0  0
   21.3840  -15.1873   19.8955 C   0  0  0  0  0  0  0  0  0  0  0  0
   20.8624  -14.4474   19.0420 O   0  0  0  0  0  0  0  0  0  0  0  0
   18.8448  -18.4498   20.8901 C   0  0  0  0  0  0  0  0  0  0  0  0
   17.7302  -18.5262   21.4935 O   0  0  0  0  0  0  0  0  0  0  0  0
   22.3745  -14.6990   20.7147 O   0  0  0  0  0  0  0  0  0  0  0  0
   19.9617  -18.7889   21.6530 O   0  0  0  0  0  0  0  0  0  0  0  0
  2  1  1  1
  2  9  1  0
  2  3  1  0
  4  3  1  0
  4  8  1  0
  5  6  1  0
  5  4  2  0
  6  7  1  0
  7  8  2  0
  9 11  1  0
 10  9  2  0
 11 12  1  0
 12 13  1  6
 13 14  1  0
 14 18  1  0
 15 14  2  0
 15 16  1  0
 16 17  1  0
 18 17  2  0
 19 21  1  0
 19 12  1  0
 20 19  2  0
 22 27  1  0
 22 23  1  1
 22 21  1  0
 24 23  1  0
 25 24  1  0
 26 25  2  0
 27 30  1  0
 28 27  2  0
 29 25  1  0
M  END
$$$$
