HHE.pdb
     RDKit          3D

 30 31  0  0  1  0  0  0  0  0999 V2000
    8.9689  -16.7304   20.4136 N   0  0  0  0  0  0  0  0  0  0  0  0
   10.2683  -16.1459   20.6271 C   0  0  1  0  0  0  0  0  0  0  0  0
   10.3697  -14.9334   19.7325 C   0  0  0  0  0  0  0  0  0  0  0  0
    9.0552  -14.2313   19.7867 C   0  0  0  0  0  0  0  0  0  0  0  0
    8.5054  -13.4143   18.8185 C   0  0  0  0  0  0  0  0  0  0  0  0
    7.3127  -12.9900   19.2757 N   0  0  0  0  0  0  0  0  0  0  0  0
    7.0840  -13.4996   20.4848 C   0  0  0  0  0  0  0  0  0  0  0  0
    8.1402  -14.2520   20.7943 N   0  0  0  0  0  0  0  0  0  0  0  0
   10.4668  -15.8237   22.0535 C   0  0  0  0  0  0  0  0  0  0  0  0
   11.5726  -15.3105   22.4212 O   0  0  0  0  0  0  0  0  0  0  0  0
    9.4194  -16.0882   23.0116 N   0  0  0  0  0  0  0  0  0  0  0  0
    9.7228  -15.9318   24.3927 C   0  0  1  0  0  0  0  0  0  0  0  0
    8.7903  -15.0123   25.1161 C   0  0  0  0  0  0  0  0  0  0  0  0
    9.1583  -14.6292   26.4797 C   0  0  0  0  0  0  0  0  0  0  0  0
   10.1882  -14.9625   27.3063 C   0  0  0  0  0  0  0  0  0  0  0  0
   10.0471  -14.2951   28.4640 N   0  0  0  0  0  0  0  0  0  0  0  0
    8.9434  -13.5499   28.3707 C   0  0  0  0  0  0  0  0  0  0  0  0
    8.3880  -13.7371   27.1748 N   0  0  0  0  0  0  0  0  0  0  0  0
    9.7525  -17.2308   25.1426 C   0  0  0  0  0  0  0  0  0  0  0  0
    9.3596  -18.2632   24.5527 O   0  0  0  0  0  0  0  0  0  0  0  0
   10.1997  -17.3428   26.4753 N   0  0  0  0  0  0  0  0  0  0  0  0
   10.7386  -18.5441   27.0675 C   0  0  1  0  0  0  0  0  0  0  0  0
   11.9919  -19.0345   26.4267 C   0  0  0  0  0  0  0  0  0  0  0  0
   11.7528  -19.9610   25.2541 C   0  0  0  0  0  0  0  0  0  0  0  0
   13.0682  -20.2759   24.6732 C   0  0  0  0  0  0  0  0  0  0  0  0
   13.8701  -19.3558   24.4314 O   0  0  0  0  0  0  0  0  0  0  0  0
   11.0285  -18.2466   28.4956 C   0  0  0  0  0  0  0  0  0  0  0  0
   11.1578  -17.0600   28.9286 O   0  0  0  0  0  0  0  0  0  0  0  0
   13.4133  -21.5780   24.3980 O   0  0  0  0  0  0  0  0  0  0  0  0
   11.1775  -19.2510   29.4512 O   0  0  0  0  0  0  0  0  0  0  0  0
  2  1  1  1
  2  9  1  0
  2  3  1  0
  4  3  1  0
  4  8  1  0
  5  6  1  0
  5  4  2  0
  6  7  1  0
  7  8  2  0
  9 11  1  0
 10  9  2  0
 11 12  1  0
 12 13  1  1
 13 14  1  0
 14 18  1  0
 15 14  2  0
 15 16  1  0
 16 17  1  0
 18 17  2  0
 19 21  1  0
 19 12  1  0
 20 19  2  0
 22 27  1  0
 22 23  1  6
 22 21  1  0
 24 23  1  0
 25 24  1  0
 26 25  2  0
 27 30  1  0
 28 27  2  0
 29 25  1  0
M  END
$$$$
