HHE.pdb
     RDKit          3D

 30 31  0  0  1  0  0  0  0  0999 V2000
   12.3566  -15.6618   15.2939 N   0  0  0  0  0  0  0  0  0  0  0  0
   12.0134  -16.5725   16.3563 C   0  0  1  0  0  0  0  0  0  0  0  0
   12.9819  -17.7292   16.2889 C   0  0  0  0  0  0  0  0  0  0  0  0
   12.5610  -18.5942   15.1494 C   0  0  0  0  0  0  0  0  0  0  0  0
   11.3567  -19.2541   15.0035 C   0  0  0  0  0  0  0  0  0  0  0  0
   11.3978  -19.9188   13.8338 N   0  0  0  0  0  0  0  0  0  0  0  0
   12.5692  -19.7100   13.2355 C   0  0  0  0  0  0  0  0  0  0  0  0
   13.2740  -18.9070   14.0329 N   0  0  0  0  0  0  0  0  0  0  0  0
   12.0345  -15.8829   17.6609 C   0  0  0  0  0  0  0  0  0  0  0  0
   12.9332  -15.0082   17.8810 O   0  0  0  0  0  0  0  0  0  0  0  0
   11.0484  -16.1995   18.6671 N   0  0  0  0  0  0  0  0  0  0  0  0
   11.1129  -15.5050   19.9070 C   0  0  1  0  0  0  0  0  0  0  0  0
    9.7792  -15.0686   20.4256 C   0  0  0  0  0  0  0  0  0  0  0  0
    9.0146  -14.1373   19.5951 C   0  0  0  0  0  0  0  0  0  0  0  0
    9.2795  -13.4733   18.4358 C   0  0  0  0  0  0  0  0  0  0  0  0
    8.1998  -12.7498   18.0952 N   0  0  0  0  0  0  0  0  0  0  0  0
    7.2648  -12.9536   19.0260 C   0  0  0  0  0  0  0  0  0  0  0  0
    7.7377  -13.7924   19.9460 N   0  0  0  0  0  0  0  0  0  0  0  0
   11.7866  -16.2925   20.9917 C   0  0  0  0  0  0  0  0  0  0  0  0
   11.5056  -17.5080   21.1015 O   0  0  0  0  0  0  0  0  0  0  0  0
   12.7168  -15.7302   21.8900 N   0  0  0  0  0  0  0  0  0  0  0  0
   13.4788  -16.4752   22.8640 C   0  0  1  0  0  0  0  0  0  0  0  0
   14.8360  -15.9213   23.1345 C   0  0  0  0  0  0  0  0  0  0  0  0
   15.6931  -15.7801   21.8951 C   0  0  0  0  0  0  0  0  0  0  0  0
   16.9858  -15.2199   22.3216 C   0  0  0  0  0  0  0  0  0  0  0  0
   17.0087  -14.2307   23.0759 O   0  0  0  0  0  0  0  0  0  0  0  0
   12.7078  -16.4665   24.1357 C   0  0  0  0  0  0  0  0  0  0  0  0
   13.0987  -17.0902   25.1703 O   0  0  0  0  0  0  0  0  0  0  0  0
   18.1639  -15.7835   21.8918 O   0  0  0  0  0  0  0  0  0  0  0  0
   11.5057  -15.7735   24.2744 O   0  0  0  0  0  0  0  0  0  0  0  0
  2  1  1  6
  2  9  1  0
  2  3  1  0
  4  3  1  0
  4  8  1  0
  5  6  1  0
  5  4  2  0
  6  7  1  0
  7  8  2  0
  9 11  1  0
 10  9  2  0
 11 12  1  0
 12 13  1  1
 13 14  1  0
 14 18  1  0
 15 14  2  0
 15 16  1  0
 16 17  1  0
 18 17  2  0
 19 21  1  0
 19 12  1  0
 20 19  2  0
 22 27  1  0
 22 23  1  1
 22 21  1  0
 24 23  1  0
 25 24  1  0
 26 25  2  0
 27 30  1  0
 28 27  2  0
 29 25  1  0
M  END
$$$$
