HHE.pdb
     RDKit          3D

 30 31  0  0  1  0  0  0  0  0999 V2000
   14.6789  -17.9386   14.5790 N   0  0  0  0  0  0  0  0  0  0  0  0
   14.1023  -19.1343   15.1391 C   0  0  1  0  0  0  0  0  0  0  0  0
   15.1110  -20.2448   14.9664 C   0  0  0  0  0  0  0  0  0  0  0  0
   15.1602  -20.5771   13.5135 C   0  0  0  0  0  0  0  0  0  0  0  0
   14.3052  -20.1294   12.5259 C   0  0  0  0  0  0  0  0  0  0  0  0
   14.7084  -20.6740   11.3630 N   0  0  0  0  0  0  0  0  0  0  0  0
   15.7759  -21.4433   11.5695 C   0  0  0  0  0  0  0  0  0  0  0  0
   16.0497  -21.3844   12.8729 N   0  0  0  0  0  0  0  0  0  0  0  0
   13.7231  -18.9189   16.5490 C   0  0  0  0  0  0  0  0  0  0  0  0
   14.4052  -18.1066   17.2533 O   0  0  0  0  0  0  0  0  0  0  0  0
   12.5950  -19.6210   17.1142 N   0  0  0  0  0  0  0  0  0  0  0  0
   12.3331  -19.4553   18.5027 C   0  0  1  0  0  0  0  0  0  0  0  0
   10.9499  -18.9711   18.8034 C   0  0  0  0  0  0  0  0  0  0  0  0
    9.8852  -19.3894   17.8906 C   0  0  0  0  0  0  0  0  0  0  0  0
    9.8641  -20.1120   16.7362 C   0  0  0  0  0  0  0  0  0  0  0  0
    8.5928  -20.2144   16.3132 N   0  0  0  0  0  0  0  0  0  0  0  0
    7.8207  -19.5660   17.1882 C   0  0  0  0  0  0  0  0  0  0  0  0
    8.5841  -19.0575   18.1537 N   0  0  0  0  0  0  0  0  0  0  0  0
   12.5603  -20.7051   19.3008 C   0  0  0  0  0  0  0  0  0  0  0  0
   12.5235  -21.8041   18.7016 O   0  0  0  0  0  0  0  0  0  0  0  0
   12.8117  -20.7001   20.6883 N   0  0  0  0  0  0  0  0  0  0  0  0
   12.9274  -21.8807   21.5111 C   0  0  1  0  0  0  0  0  0  0  0  0
   13.4537  -21.6236   22.8818 C   0  0  0  0  0  0  0  0  0  0  0  0
   12.6360  -20.6223   23.6690 C   0  0  0  0  0  0  0  0  0  0  0  0
   13.2896  -20.4599   24.9778 C   0  0  0  0  0  0  0  0  0  0  0  0
   12.8583  -19.6122   25.7799 O   0  0  0  0  0  0  0  0  0  0  0  0
   11.5690  -22.4735   21.6350 C   0  0  0  0  0  0  0  0  0  0  0  0
   11.3702  -23.6087   22.1679 O   0  0  0  0  0  0  0  0  0  0  0  0
   14.3707  -21.2387   25.3168 O   0  0  0  0  0  0  0  0  0  0  0  0
   10.4259  -21.8215   21.1739 O   0  0  0  0  0  0  0  0  0  0  0  0
  2  1  1  1
  2  9  1  0
  2  3  1  0
  4  3  1  0
  4  8  1  0
  5  6  1  0
  5  4  2  0
  6  7  1  0
  7  8  2  0
  9 11  1  0
 10  9  2  0
 11 12  1  0
 12 13  1  6
 13 14  1  0
 14 18  1  0
 15 14  2  0
 15 16  1  0
 16 17  1  0
 18 17  2  0
 19 21  1  0
 19 12  1  0
 20 19  2  0
 22 27  1  0
 22 23  1  1
 22 21  1  0
 24 23  1  0
 25 24  1  0
 26 25  2  0
 27 30  1  0
 28 27  2  0
 29 25  1  0
M  END
$$$$
