HHE.pdb
     RDKit          3D

 30 31  0  0  1  0  0  0  0  0999 V2000
   10.5924  -17.0452   13.4250 N   0  0  0  0  0  0  0  0  0  0  0  0
   11.8076  -17.4272   14.0983 C   0  0  1  0  0  0  0  0  0  0  0  0
   12.9509  -16.7429   13.3875 C   0  0  0  0  0  0  0  0  0  0  0  0
   13.1510  -17.4477   12.0886 C   0  0  0  0  0  0  0  0  0  0  0  0
   13.4438  -18.7841   11.9011 C   0  0  0  0  0  0  0  0  0  0  0  0
   13.5417  -18.9956   10.5755 N   0  0  0  0  0  0  0  0  0  0  0  0
   13.3250  -17.8575    9.9184 C   0  0  0  0  0  0  0  0  0  0  0  0
   13.0881  -16.9195   10.8356 N   0  0  0  0  0  0  0  0  0  0  0  0
   11.7381  -17.0861   15.5324 C   0  0  0  0  0  0  0  0  0  0  0  0
   10.7933  -16.3376   15.9426 O   0  0  0  0  0  0  0  0  0  0  0  0
   12.7288  -17.5969   16.4504 N   0  0  0  0  0  0  0  0  0  0  0  0
   12.2797  -18.1139   17.6974 C   0  0  1  0  0  0  0  0  0  0  0  0
   11.2173  -19.1596   17.5709 C   0  0  0  0  0  0  0  0  0  0  0  0
    9.8350  -18.6932   17.4556 C   0  0  0  0  0  0  0  0  0  0  0  0
    9.1657  -17.6044   17.9267 C   0  0  0  0  0  0  0  0  0  0  0  0
    7.8926  -17.6616   17.5009 N   0  0  0  0  0  0  0  0  0  0  0  0
    7.7586  -18.7708   16.7703 C   0  0  0  0  0  0  0  0  0  0  0  0
    8.9250  -19.4123   16.7295 N   0  0  0  0  0  0  0  0  0  0  0  0
   13.3858  -18.6887   18.5322 C   0  0  0  0  0  0  0  0  0  0  0  0
   13.8423  -19.8114   18.2167 O   0  0  0  0  0  0  0  0  0  0  0  0
   13.9324  -18.0271   19.6510 N   0  0  0  0  0  0  0  0  0  0  0  0
   15.1642  -18.3949   20.3078 C   0  0  1  0  0  0  0  0  0  0  0  0
   15.7348  -17.3304   21.1815 C   0  0  0  0  0  0  0  0  0  0  0  0
   17.0769  -17.6907   21.7812 C   0  0  0  0  0  0  0  0  0  0  0  0
   17.5144  -16.5417   22.5905 C   0  0  0  0  0  0  0  0  0  0  0  0
   18.6373  -16.5583   23.1260 O   0  0  0  0  0  0  0  0  0  0  0  0
   14.8828  -19.5892   21.1483 C   0  0  0  0  0  0  0  0  0  0  0  0
   15.8078  -20.2802   21.6765 O   0  0  0  0  0  0  0  0  0  0  0  0
   16.6903  -15.4537   22.7564 O   0  0  0  0  0  0  0  0  0  0  0  0
   13.5853  -20.0276   21.4105 O   0  0  0  0  0  0  0  0  0  0  0  0
  2  1  1  6
  2  9  1  0
  2  3  1  0
  4  3  1  0
  4  8  1  0
  5  6  1  0
  5  4  2  0
  6  7  1  0
  7  8  2  0
  9 11  1  0
 10  9  2  0
 11 12  1  0
 12 13  1  6
 13 14  1  0
 14 18  1  0
 15 14  2  0
 15 16  1  0
 16 17  1  0
 18 17  2  0
 19 21  1  0
 19 12  1  0
 20 19  2  0
 22 27  1  0
 22 23  1  1
 22 21  1  0
 24 23  1  0
 25 24  1  0
 26 25  2  0
 27 30  1  0
 28 27  2  0
 29 25  1  0
M  END
$$$$
