HHE.pdb
     RDKit          3D

 30 31  0  0  1  0  0  0  0  0999 V2000
   14.3902  -14.3181   16.1644 N   0  0  0  0  0  0  0  0  0  0  0  0
   13.0829  -14.9141   16.2721 C   0  0  1  0  0  0  0  0  0  0  0  0
   13.2610  -16.4109   16.1805 C   0  0  0  0  0  0  0  0  0  0  0  0
   13.5078  -16.7413   14.7474 C   0  0  0  0  0  0  0  0  0  0  0  0
   13.5699  -15.8592   13.6867 C   0  0  0  0  0  0  0  0  0  0  0  0
   13.8088  -16.5786   12.5746 N   0  0  0  0  0  0  0  0  0  0  0  0
   13.9002  -17.8712   12.8826 C   0  0  0  0  0  0  0  0  0  0  0  0
   13.7179  -17.9696   14.1995 N   0  0  0  0  0  0  0  0  0  0  0  0
   12.4187  -14.4916   17.5204 C   0  0  0  0  0  0  0  0  0  0  0  0
   13.1318  -14.2575   18.5490 O   0  0  0  0  0  0  0  0  0  0  0  0
   10.9828  -14.3472   17.5675 N   0  0  0  0  0  0  0  0  0  0  0  0
   10.3821  -14.0541   18.8234 C   0  0  1  0  0  0  0  0  0  0  0  0
    8.9373  -13.6775   18.7292 C   0  0  0  0  0  0  0  0  0  0  0  0
    8.2199  -13.4713   19.9880 C   0  0  0  0  0  0  0  0  0  0  0  0
    8.0212  -12.3907   20.7929 C   0  0  0  0  0  0  0  0  0  0  0  0
    7.2570  -12.7615   21.8341 N   0  0  0  0  0  0  0  0  0  0  0  0
    6.9759  -14.0585   21.6894 C   0  0  0  0  0  0  0  0  0  0  0  0
    7.5501  -14.5098   20.5756 N   0  0  0  0  0  0  0  0  0  0  0  0
   10.4949  -15.1787   19.8099 C   0  0  0  0  0  0  0  0  0  0  0  0
   10.2055  -16.3346   19.4245 O   0  0  0  0  0  0  0  0  0  0  0  0
   10.9093  -14.9956   21.1453 N   0  0  0  0  0  0  0  0  0  0  0  0
   10.9360  -16.0308   22.1512 C   0  0  1  0  0  0  0  0  0  0  0  0
   12.3022  -16.3825   22.6327 C   0  0  0  0  0  0  0  0  0  0  0  0
   13.3107  -15.2660   22.4686 C   0  0  0  0  0  0  0  0  0  0  0  0
   14.6243  -15.8944   22.2531 C   0  0  0  0  0  0  0  0  0  0  0  0
   14.7222  -17.1347   22.2650 O   0  0  0  0  0  0  0  0  0  0  0  0
   10.1412  -15.5468   23.3113 C   0  0  0  0  0  0  0  0  0  0  0  0
    9.6314  -14.3845   23.3467 O   0  0  0  0  0  0  0  0  0  0  0  0
   15.7395  -15.1193   22.0392 O   0  0  0  0  0  0  0  0  0  0  0  0
    9.9045  -16.3376   24.4351 O   0  0  0  0  0  0  0  0  0  0  0  0
  2  1  1  1
  2  9  1  0
  2  3  1  0
  4  3  1  0
  4  8  1  0
  5  6  1  0
  5  4  2  0
  6  7  1  0
  7  8  2  0
  9 11  1  0
 10  9  2  0
 11 12  1  0
 12 13  1  6
 13 14  1  0
 14 18  1  0
 15 14  2  0
 15 16  1  0
 16 17  1  0
 18 17  2  0
 19 21  1  0
 19 12  1  0
 20 19  2  0
 22 27  1  0
 22 23  1  1
 22 21  1  0
 24 23  1  0
 25 24  1  0
 26 25  2  0
 27 30  1  0
 28 27  2  0
 29 25  1  0
M  END
$$$$
