YHL.pdb
     RDKit          3D

 31 32  0  0  1  0  0  0  0  0999 V2000
   21.0185  -21.0673  -13.9103 O   0  0  0  0  0  0  0  0  0  0  0  0
   21.2838  -19.8302  -14.4493 C   0  0  0  0  0  0  0  0  0  0  0  0
   20.8754  -18.6803  -13.7929 C   0  0  0  0  0  0  0  0  0  0  0  0
   21.1349  -17.4283  -14.3221 C   0  0  0  0  0  0  0  0  0  0  0  0
   21.8093  -17.3186  -15.5196 C   0  0  0  0  0  0  0  0  0  0  0  0
   22.0865  -15.9534  -16.0839 C   0  0  0  0  0  0  0  0  0  0  0  0
   20.7800  -15.5227  -16.7485 C   0  0  2  0  0  0  0  0  0  0  0  0
   20.3437  -16.4185  -17.7681 N   0  0  0  0  0  0  0  0  0  0  0  0
   20.8251  -14.1050  -17.1762 C   0  0  0  0  0  0  0  0  0  0  0  0
   21.4586  -13.7579  -18.2040 O   0  0  0  0  0  0  0  0  0  0  0  0
   22.2103  -18.4787  -16.1624 C   0  0  0  0  0  0  0  0  0  0  0  0
   21.9544  -19.7159  -15.6405 C   0  0  0  0  0  0  0  0  0  0  0  0
   20.1656  -13.0794  -16.4592 N   0  0  0  0  0  0  0  0  0  0  0  0
   20.2343  -11.6808  -16.8195 C   0  0  1  0  0  0  0  0  0  0  0  0
   18.9049  -11.0807  -17.1055 C   0  0  0  0  0  0  0  0  0  0  0  0
   19.0048   -9.6824  -17.5853 C   0  0  0  0  0  0  0  0  0  0  0  0
   19.4330   -9.2457  -18.8375 C   0  0  0  0  0  0  0  0  0  0  0  0
   19.3872   -7.9056  -18.9026 N   0  0  0  0  0  0  0  0  0  0  0  0
   18.9377   -7.4853  -17.7143 C   0  0  0  0  0  0  0  0  0  0  0  0
   18.7067   -8.5421  -16.9207 N   0  0  0  0  0  0  0  0  0  0  0  0
   20.9960  -10.9005  -15.7838 C   0  0  0  0  0  0  0  0  0  0  0  0
   20.7977  -11.0843  -14.5600 O   0  0  0  0  0  0  0  0  0  0  0  0
   24.7735  -11.1516  -14.1727 C   0  0  0  0  0  0  0  0  0  0  0  0
   24.7874  -10.5481  -15.5373 C   0  0  2  0  0  0  0  0  0  0  0  0
   26.2240  -10.3825  -16.0494 C   0  0  0  0  0  0  0  0  0  0  0  0
   24.0950   -9.2429  -15.5967 C   0  0  0  0  0  0  0  0  0  0  0  0
   22.6705   -9.1644  -15.2236 C   0  0  2  0  0  0  0  0  0  0  0  0
   21.9362   -9.9599  -16.2610 N   0  0  0  0  0  0  0  0  0  0  0  0
   21.9670   -7.9443  -14.9833 C   0  0  0  0  0  0  0  0  0  0  0  0
   20.9417   -7.3565  -15.7112 O   0  0  0  0  0  0  0  0  0  0  0  0
   22.3037   -7.2387  -13.9495 O   0  0  0  0  0  0  0  0  0  0  0  0
  1  2  1  0
  2 12  2  0
  3  2  1  0
  3  4  2  0
  4  5  1  0
  5 11  2  0
  5  6  1  0
  7  6  1  0
  7  8  1  6
  9  7  1  0
 10  9  2  0
 12 11  1  0
 13  9  1  0
 14 13  1  0
 14 15  1  1
 16 15  1  0
 17 16  2  0
 18 17  1  0
 19 18  1  0
 19 20  2  0
 20 16  1  0
 21 14  1  0
 21 28  1  0
 22 21  2  0
 24 23  1  1
 24 26  1  0
 24 25  1  0
 27 26  1  6
 27 28  1  0
 27 29  1  0
 29 31  2  0
 29 30  1  0
M  END
$$$$
