YHL.pdb
     RDKit          3D

 31 32  0  0  1  0  0  0  0  0999 V2000
   29.0321  -25.7971  -26.8957 O   0  0  0  0  0  0  0  0  0  0  0  0
   29.0647  -26.5862  -25.7698 C   0  0  0  0  0  0  0  0  0  0  0  0
   28.0001  -26.5818  -24.8829 C   0  0  0  0  0  0  0  0  0  0  0  0
   28.0177  -27.3702  -23.7458 C   0  0  0  0  0  0  0  0  0  0  0  0
   29.1082  -28.1734  -23.4876 C   0  0  0  0  0  0  0  0  0  0  0  0
   29.1153  -29.0262  -22.2499 C   0  0  0  0  0  0  0  0  0  0  0  0
   29.4559  -28.0705  -21.1078 C   0  0  2  0  0  0  0  0  0  0  0  0
   30.8147  -27.6394  -21.1192 N   0  0  0  0  0  0  0  0  0  0  0  0
   29.0069  -28.6000  -19.7990 C   0  0  0  0  0  0  0  0  0  0  0  0
   29.7114  -29.4154  -19.1534 O   0  0  0  0  0  0  0  0  0  0  0  0
   30.1638  -28.1654  -24.3850 C   0  0  0  0  0  0  0  0  0  0  0  0
   30.1474  -27.3870  -25.5085 C   0  0  0  0  0  0  0  0  0  0  0  0
   27.7763  -28.2204  -19.2137 N   0  0  0  0  0  0  0  0  0  0  0  0
   27.3689  -28.6135  -17.8833 C   0  0  1  0  0  0  0  0  0  0  0  0
   27.0943  -27.4599  -16.9870 C   0  0  0  0  0  0  0  0  0  0  0  0
   28.2881  -26.6077  -16.7771 C   0  0  0  0  0  0  0  0  0  0  0  0
   29.3753  -26.8642  -15.9438 C   0  0  0  0  0  0  0  0  0  0  0  0
   30.2634  -25.8602  -16.0170 N   0  0  0  0  0  0  0  0  0  0  0  0
   29.7587  -24.9722  -16.8816 C   0  0  0  0  0  0  0  0  0  0  0  0
   28.5773  -25.4121  -17.3406 N   0  0  0  0  0  0  0  0  0  0  0  0
   26.2118  -29.5722  -17.9417 C   0  0  0  0  0  0  0  0  0  0  0  0
   25.3228  -29.4608  -18.8181 O   0  0  0  0  0  0  0  0  0  0  0  0
   25.0442  -34.8967  -15.1602 C   0  0  0  0  0  0  0  0  0  0  0  0
   24.7459  -34.0260  -16.3346 C   0  0  2  0  0  0  0  0  0  0  0  0
   24.9074  -34.8020  -17.6481 C   0  0  0  0  0  0  0  0  0  0  0  0
   25.5877  -32.8111  -16.3793 C   0  0  0  0  0  0  0  0  0  0  0  0
   25.1044  -31.6253  -17.1105 C   0  0  2  0  0  0  0  0  0  0  0  0
   26.1826  -30.5933  -16.9655 N   0  0  0  0  0  0  0  0  0  0  0  0
   23.8334  -31.0091  -16.8954 C   0  0  0  0  0  0  0  0  0  0  0  0
   22.6033  -31.2947  -17.4716 O   0  0  0  0  0  0  0  0  0  0  0  0
   23.7660  -30.0262  -16.0532 O   0  0  0  0  0  0  0  0  0  0  0  0
  1  2  1  0
  2 12  2  0
  3  2  1  0
  3  4  2  0
  4  5  1  0
  5 11  2  0
  5  6  1  0
  7  6  1  0
  7  8  1  1
  9  7  1  0
 10  9  2  0
 12 11  1  0
 13  9  1  0
 14 13  1  0
 14 15  1  1
 16 15  1  0
 17 16  2  0
 18 17  1  0
 19 18  1  0
 19 20  2  0
 20 16  1  0
 21 14  1  0
 21 28  1  0
 22 21  2  0
 24 23  1  1
 24 26  1  0
 24 25  1  0
 27 26  1  1
 27 28  1  0
 27 29  1  0
 29 31  2  0
 29 30  1  0
M  END
$$$$
