YHL.pdb
     RDKit          3D

 31 32  0  0  1  0  0  0  0  0999 V2000
   33.1486  -19.7840  -20.1875 O   0  0  0  0  0  0  0  0  0  0  0  0
   32.1298  -19.4016  -19.3466 C   0  0  0  0  0  0  0  0  0  0  0  0
   31.3528  -20.3570  -18.7113 C   0  0  0  0  0  0  0  0  0  0  0  0
   30.3242  -19.9882  -17.8622 C   0  0  0  0  0  0  0  0  0  0  0  0
   30.0651  -18.6521  -17.6422 C   0  0  0  0  0  0  0  0  0  0  0  0
   28.9460  -18.2638  -16.7170 C   0  0  0  0  0  0  0  0  0  0  0  0
   27.6641  -18.6031  -17.4757 C   0  0  2  0  0  0  0  0  0  0  0  0
   27.4984  -17.8442  -18.6711 N   0  0  0  0  0  0  0  0  0  0  0  0
   26.4800  -18.5837  -16.5854 C   0  0  0  0  0  0  0  0  0  0  0  0
   25.9966  -17.5000  -16.1732 O   0  0  0  0  0  0  0  0  0  0  0  0
   30.8517  -17.7103  -18.2856 C   0  0  0  0  0  0  0  0  0  0  0  0
   31.8681  -18.0734  -19.1245 C   0  0  0  0  0  0  0  0  0  0  0  0
   25.8386  -19.7696  -16.1573 N   0  0  0  0  0  0  0  0  0  0  0  0
   24.7434  -19.7901  -15.2136 C   0  0  1  0  0  0  0  0  0  0  0  0
   23.4524  -20.2091  -15.8194 C   0  0  0  0  0  0  0  0  0  0  0  0
   22.3530  -20.2684  -14.8277 C   0  0  0  0  0  0  0  0  0  0  0  0
   21.5474  -19.2175  -14.3933 C   0  0  0  0  0  0  0  0  0  0  0  0
   20.6596  -19.6569  -13.4873 N   0  0  0  0  0  0  0  0  0  0  0  0
   20.8881  -20.9672  -13.3398 C   0  0  0  0  0  0  0  0  0  0  0  0
   21.8995  -21.3406  -14.1382 N   0  0  0  0  0  0  0  0  0  0  0  0
   25.0956  -20.6147  -14.0062 C   0  0  0  0  0  0  0  0  0  0  0  0
   25.5477  -21.7774  -14.1263 O   0  0  0  0  0  0  0  0  0  0  0  0
   25.9426  -20.8844   -8.5708 C   0  0  0  0  0  0  0  0  0  0  0  0
   26.8006  -21.2517   -9.7350 C   0  0  2  0  0  0  0  0  0  0  0  0
   28.2714  -20.9120   -9.4615 C   0  0  0  0  0  0  0  0  0  0  0  0
   26.3751  -20.5999  -10.9922 C   0  0  0  0  0  0  0  0  0  0  0  0
   25.0433  -20.9038  -11.5475 C   0  0  2  0  0  0  0  0  0  0  0  0
   24.8910  -20.0133  -12.7442 N   0  0  0  0  0  0  0  0  0  0  0  0
   23.8316  -20.8839  -10.7907 C   0  0  0  0  0  0  0  0  0  0  0  0
   22.9359  -19.8441  -10.5825 O   0  0  0  0  0  0  0  0  0  0  0  0
   23.4746  -21.9703  -10.1806 O   0  0  0  0  0  0  0  0  0  0  0  0
  1  2  1  0
  2 12  2  0
  3  2  1  0
  3  4  2  0
  4  5  1  0
  5 11  2  0
  5  6  1  0
  7  6  1  0
  7  8  1  6
  9  7  1  0
 10  9  2  0
 12 11  1  0
 13  9  1  0
 14 13  1  0
 14 15  1  6
 16 15  1  0
 17 16  2  0
 18 17  1  0
 19 18  1  0
 19 20  2  0
 20 16  1  0
 21 14  1  0
 21 28  1  0
 22 21  2  0
 24 23  1  1
 24 26  1  0
 24 25  1  0
 27 26  1  1
 27 28  1  0
 27 29  1  0
 29 31  2  0
 29 30  1  0
M  END
$$$$
