YHL.pdb
     RDKit          3D

 31 32  0  0  1  0  0  0  0  0999 V2000
   33.3205  -17.1785  -18.7472 O   0  0  0  0  0  0  0  0  0  0  0  0
   32.0476  -17.1934  -18.2267 C   0  0  0  0  0  0  0  0  0  0  0  0
   31.3530  -16.0081  -18.0461 C   0  0  0  0  0  0  0  0  0  0  0  0
   30.0716  -16.0064  -17.5237 C   0  0  0  0  0  0  0  0  0  0  0  0
   29.4734  -17.1990  -17.1764 C   0  0  0  0  0  0  0  0  0  0  0  0
   28.0808  -17.1846  -16.6110 C   0  0  0  0  0  0  0  0  0  0  0  0
   27.1929  -17.7449  -17.7208 C   0  0  2  0  0  0  0  0  0  0  0  0
   27.2260  -16.9684  -18.9159 N   0  0  0  0  0  0  0  0  0  0  0  0
   25.8244  -18.0347  -17.2328 C   0  0  0  0  0  0  0  0  0  0  0  0
   25.0550  -17.1091  -16.8731 O   0  0  0  0  0  0  0  0  0  0  0  0
   30.1823  -18.3747  -17.3636 C   0  0  0  0  0  0  0  0  0  0  0  0
   31.4481  -18.3774  -17.8796 C   0  0  0  0  0  0  0  0  0  0  0  0
   25.3173  -19.3524  -17.1469 N   0  0  0  0  0  0  0  0  0  0  0  0
   24.0118  -19.6735  -16.6147 C   0  0  1  0  0  0  0  0  0  0  0  0
   23.1209  -20.3373  -17.6021 C   0  0  0  0  0  0  0  0  0  0  0  0
   21.7952  -20.6753  -17.0328 C   0  0  0  0  0  0  0  0  0  0  0  0
   21.3333  -21.9340  -16.6527 C   0  0  0  0  0  0  0  0  0  0  0  0
   20.0800  -21.8453  -16.1801 N   0  0  0  0  0  0  0  0  0  0  0  0
   19.7394  -20.5533  -16.2539 C   0  0  0  0  0  0  0  0  0  0  0  0
   20.7600  -19.8469  -16.7629 N   0  0  0  0  0  0  0  0  0  0  0  0
   24.1351  -20.4654  -15.3422 C   0  0  0  0  0  0  0  0  0  0  0  0
   24.9655  -21.3984  -15.2386 O   0  0  0  0  0  0  0  0  0  0  0  0
   23.9597  -20.7779  -10.0180 C   0  0  0  0  0  0  0  0  0  0  0  0
   25.0342  -20.9133  -11.0444 C   0  0  2  0  0  0  0  0  0  0  0  0
   26.3233  -20.2208  -10.5840 C   0  0  0  0  0  0  0  0  0  0  0  0
   24.6390  -20.3794  -12.3655 C   0  0  0  0  0  0  0  0  0  0  0  0
   23.4137  -20.8858  -13.0109 C   0  0  2  0  0  0  0  0  0  0  0  0
   23.2733  -20.1037  -14.2826 N   0  0  0  0  0  0  0  0  0  0  0  0
   22.1403  -20.9687  -12.3683 C   0  0  0  0  0  0  0  0  0  0  0  0
   21.2935  -19.9520  -11.9488 O   0  0  0  0  0  0  0  0  0  0  0  0
   21.6633  -22.1454  -12.1074 O   0  0  0  0  0  0  0  0  0  0  0  0
  1  2  1  0
  2 12  2  0
  3  2  1  0
  3  4  2  0
  4  5  1  0
  5 11  2  0
  5  6  1  0
  7  6  1  0
  7  8  1  6
  9  7  1  0
 10  9  2  0
 12 11  1  0
 13  9  1  0
 14 13  1  0
 14 15  1  6
 16 15  1  0
 17 16  2  0
 18 17  1  0
 19 18  1  0
 19 20  2  0
 20 16  1  0
 21 14  1  0
 21 28  1  0
 22 21  2  0
 24 23  1  1
 24 26  1  0
 24 25  1  0
 27 26  1  1
 27 28  1  0
 27 29  1  0
 29 31  2  0
 29 30  1  0
M  END
$$$$
