YHL.pdb
     RDKit          3D

 31 32  0  0  1  0  0  0  0  0999 V2000
   25.6840  -19.9189   -7.6445 O   0  0  0  0  0  0  0  0  0  0  0  0
   25.7151  -20.3551   -8.9484 C   0  0  0  0  0  0  0  0  0  0  0  0
   26.8320  -20.1248   -9.7354 C   0  0  0  0  0  0  0  0  0  0  0  0
   26.8786  -20.5575  -11.0490 C   0  0  0  0  0  0  0  0  0  0  0  0
   25.8005  -21.2278  -11.5867 C   0  0  0  0  0  0  0  0  0  0  0  0
   25.8633  -21.6940  -13.0143 C   0  0  0  0  0  0  0  0  0  0  0  0
   25.2957  -20.5388  -13.8373 C   0  0  2  0  0  0  0  0  0  0  0  0
   23.9354  -20.2425  -13.5307 N   0  0  0  0  0  0  0  0  0  0  0  0
   25.5580  -20.7175  -15.2845 C   0  0  0  0  0  0  0  0  0  0  0  0
   24.7362  -21.3150  -16.0233 O   0  0  0  0  0  0  0  0  0  0  0  0
   24.6919  -21.4494  -10.7856 C   0  0  0  0  0  0  0  0  0  0  0  0
   24.6448  -21.0224   -9.4879 C   0  0  0  0  0  0  0  0  0  0  0  0
   26.7329  -20.2309  -15.9040 N   0  0  0  0  0  0  0  0  0  0  0  0
   26.9635  -20.2800  -17.3305 C   0  0  1  0  0  0  0  0  0  0  0  0
   27.1248  -18.9371  -17.9470 C   0  0  0  0  0  0  0  0  0  0  0  0
   27.2561  -19.0017  -19.4215 C   0  0  0  0  0  0  0  0  0  0  0  0
   26.2395  -18.8862  -20.3677 C   0  0  0  0  0  0  0  0  0  0  0  0
   26.7437  -18.9972  -21.6069 N   0  0  0  0  0  0  0  0  0  0  0  0
   28.0614  -19.1810  -21.4630 C   0  0  0  0  0  0  0  0  0  0  0  0
   28.3758  -19.1850  -20.1587 N   0  0  0  0  0  0  0  0  0  0  0  0
   28.1146  -21.1924  -17.6532 C   0  0  0  0  0  0  0  0  0  0  0  0
   29.2050  -21.0994  -17.0422 O   0  0  0  0  0  0  0  0  0  0  0  0
   29.6597  -24.7104  -16.3897 C   0  0  0  0  0  0  0  0  0  0  0  0
   28.3865  -24.7507  -17.1669 C   0  0  2  0  0  0  0  0  0  0  0  0
   27.7152  -26.1250  -17.0493 C   0  0  0  0  0  0  0  0  0  0  0  0
   28.5736  -24.4200  -18.5959 C   0  0  0  0  0  0  0  0  0  0  0  0
   29.0439  -23.0731  -18.9690 C   0  0  2  0  0  0  0  0  0  0  0  0
   27.9015  -22.1487  -18.6713 N   0  0  0  0  0  0  0  0  0  0  0  0
   29.5990  -22.7379  -20.2421 C   0  0  0  0  0  0  0  0  0  0  0  0
   29.0150  -22.0805  -21.3161 O   0  0  0  0  0  0  0  0  0  0  0  0
   30.8242  -23.0846  -20.4846 O   0  0  0  0  0  0  0  0  0  0  0  0
  1  2  1  0
  2 12  2  0
  3  2  1  0
  3  4  2  0
  4  5  1  0
  5 11  2  0
  5  6  1  0
  7  6  1  0
  7  8  1  6
  9  7  1  0
 10  9  2  0
 12 11  1  0
 13  9  1  0
 14 13  1  0
 14 15  1  1
 16 15  1  0
 17 16  2  0
 18 17  1  0
 19 18  1  0
 19 20  2  0
 20 16  1  0
 21 14  1  0
 21 28  1  0
 22 21  2  0
 24 23  1  1
 24 26  1  0
 24 25  1  0
 27 26  1  6
 27 28  1  0
 27 29  1  0
 29 31  2  0
 29 30  1  0
M  END
$$$$
