YHL.pdb
     RDKit          3D

 31 32  0  0  1  0  0  0  0  0999 V2000
   17.9297  -18.9000  -18.5106 O   0  0  0  0  0  0  0  0  0  0  0  0
   18.3694  -17.6330  -18.2061 C   0  0  0  0  0  0  0  0  0  0  0  0
   19.6590  -17.4346  -17.7396 C   0  0  0  0  0  0  0  0  0  0  0  0
   20.1164  -16.1660  -17.4290 C   0  0  0  0  0  0  0  0  0  0  0  0
   19.2803  -15.0808  -17.5845 C   0  0  0  0  0  0  0  0  0  0  0  0
   19.7888  -13.7077  -17.2451 C   0  0  0  0  0  0  0  0  0  0  0  0
   20.0609  -13.0381  -18.5910 C   0  0  2  0  0  0  0  0  0  0  0  0
   21.0812  -13.6856  -19.3472 N   0  0  0  0  0  0  0  0  0  0  0  0
   20.2598  -11.5772  -18.4450 C   0  0  0  0  0  0  0  0  0  0  0  0
   21.4063  -11.0931  -18.2734 O   0  0  0  0  0  0  0  0  0  0  0  0
   17.9942  -15.2973  -18.0521 C   0  0  0  0  0  0  0  0  0  0  0  0
   17.5414  -16.5501  -18.3591 C   0  0  0  0  0  0  0  0  0  0  0  0
   19.1831  -10.6610  -18.4905 N   0  0  0  0  0  0  0  0  0  0  0  0
   19.3420   -9.2323  -18.3349 C   0  0  1  0  0  0  0  0  0  0  0  0
   18.3033   -8.4436  -19.0478 C   0  0  0  0  0  0  0  0  0  0  0  0
   18.2999   -8.6981  -20.5075 C   0  0  0  0  0  0  0  0  0  0  0  0
   17.1996   -8.9800  -21.3150 C   0  0  0  0  0  0  0  0  0  0  0  0
   17.5898   -9.1520  -22.5879 N   0  0  0  0  0  0  0  0  0  0  0  0
   18.9174   -8.9842  -22.6016 C   0  0  0  0  0  0  0  0  0  0  0  0
   19.3498   -8.7125  -21.3610 N   0  0  0  0  0  0  0  0  0  0  0  0
   19.4344   -8.8616  -16.8803 C   0  0  0  0  0  0  0  0  0  0  0  0
   18.9017   -9.5726  -15.9964 O   0  0  0  0  0  0  0  0  0  0  0  0
   23.0404   -9.8243  -13.3818 C   0  0  0  0  0  0  0  0  0  0  0  0
   21.9383   -8.8206  -13.4490 C   0  0  2  0  0  0  0  0  0  0  0  0
   20.8294   -9.1551  -12.4431 C   0  0  0  0  0  0  0  0  0  0  0  0
   21.3506   -8.7003  -14.8005 C   0  0  0  0  0  0  0  0  0  0  0  0
   20.5543   -7.5056  -15.1371 C   0  0  2  0  0  0  0  0  0  0  0  0
   20.1465   -7.6816  -16.5692 N   0  0  0  0  0  0  0  0  0  0  0  0
   20.9949   -6.1614  -14.9366 C   0  0  0  0  0  0  0  0  0  0  0  0
   20.8762   -5.3494  -13.8170 O   0  0  0  0  0  0  0  0  0  0  0  0
   21.5923   -5.5617  -15.9182 O   0  0  0  0  0  0  0  0  0  0  0  0
  1  2  1  0
  2 12  2  0
  3  2  1  0
  3  4  2  0
  4  5  1  0
  5 11  2  0
  5  6  1  0
  7  6  1  0
  7  8  1  1
  9  7  1  0
 10  9  2  0
 12 11  1  0
 13  9  1  0
 14 13  1  0
 14 15  1  1
 16 15  1  0
 17 16  2  0
 18 17  1  0
 19 18  1  0
 19 20  2  0
 20 16  1  0
 21 14  1  0
 21 28  1  0
 22 21  2  0
 24 23  1  6
 24 26  1  0
 24 25  1  0
 27 26  1  6
 27 28  1  0
 27 29  1  0
 29 31  2  0
 29 30  1  0
M  END
$$$$
