YHL.pdb
     RDKit          3D

 31 32  0  0  1  0  0  0  0  0999 V2000
   13.2504  -14.0996  -18.5618 O   0  0  0  0  0  0  0  0  0  0  0  0
   13.6617  -13.4160  -17.4416 C   0  0  0  0  0  0  0  0  0  0  0  0
   13.8564  -12.0451  -17.4922 C   0  0  0  0  0  0  0  0  0  0  0  0
   14.2698  -11.3431  -16.3736 C   0  0  0  0  0  0  0  0  0  0  0  0
   14.4925  -12.0133  -15.1895 C   0  0  0  0  0  0  0  0  0  0  0  0
   14.9403  -11.2398  -13.9810 C   0  0  0  0  0  0  0  0  0  0  0  0
   16.4543  -11.1028  -14.1325 C   0  0  2  0  0  0  0  0  0  0  0  0
   17.1358  -12.3549  -14.1436 N   0  0  0  0  0  0  0  0  0  0  0  0
   17.0142  -10.1251  -13.1703 C   0  0  0  0  0  0  0  0  0  0  0  0
   17.1717  -10.4239  -11.9603 O   0  0  0  0  0  0  0  0  0  0  0  0
   14.2931  -13.3839  -15.1568 C   0  0  0  0  0  0  0  0  0  0  0  0
   13.8847  -14.0784  -16.2611 C   0  0  0  0  0  0  0  0  0  0  0  0
   17.3965   -8.8195  -13.5578 N   0  0  0  0  0  0  0  0  0  0  0  0
   17.8972   -7.8260  -12.6343 C   0  0  1  0  0  0  0  0  0  0  0  0
   18.9116   -6.9216  -13.2362 C   0  0  0  0  0  0  0  0  0  0  0  0
   20.1048   -7.6521  -13.7244 C   0  0  0  0  0  0  0  0  0  0  0  0
   20.3708   -9.0148  -13.6042 C   0  0  0  0  0  0  0  0  0  0  0  0
   21.5525   -9.3088  -14.1692 N   0  0  0  0  0  0  0  0  0  0  0  0
   22.0400   -8.1570  -14.6452 C   0  0  0  0  0  0  0  0  0  0  0  0
   21.1799   -7.1613  -14.3831 N   0  0  0  0  0  0  0  0  0  0  0  0
   16.7636   -7.0647  -12.0042 C   0  0  0  0  0  0  0  0  0  0  0  0
   15.7900   -6.6705  -12.6879 O   0  0  0  0  0  0  0  0  0  0  0  0
   14.0582   -6.8852   -6.6921 C   0  0  0  0  0  0  0  0  0  0  0  0
   14.2004   -6.1955   -8.0076 C   0  0  2  0  0  0  0  0  0  0  0  0
   12.8915   -6.2598   -8.8051 C   0  0  0  0  0  0  0  0  0  0  0  0
   15.2999   -6.7447   -8.8297 C   0  0  0  0  0  0  0  0  0  0  0  0
   15.7645   -5.9910  -10.0090 C   0  0  2  0  0  0  0  0  0  0  0  0
   16.8560   -6.8213  -10.6155 N   0  0  0  0  0  0  0  0  0  0  0  0
   16.1769   -4.6234   -9.9796 C   0  0  0  0  0  0  0  0  0  0  0  0
   15.4103   -3.4673  -10.0302 O   0  0  0  0  0  0  0  0  0  0  0  0
   17.4457   -4.3695   -9.9040 O   0  0  0  0  0  0  0  0  0  0  0  0
  1  2  1  0
  2 12  2  0
  3  2  1  0
  3  4  2  0
  4  5  1  0
  5 11  2  0
  5  6  1  0
  7  6  1  0
  7  8  1  1
  9  7  1  0
 10  9  2  0
 12 11  1  0
 13  9  1  0
 14 13  1  0
 14 15  1  6
 16 15  1  0
 17 16  2  0
 18 17  1  0
 19 18  1  0
 19 20  2  0
 20 16  1  0
 21 14  1  0
 21 28  1  0
 22 21  2  0
 24 23  1  1
 24 26  1  0
 24 25  1  0
 27 26  1  1
 27 28  1  0
 27 29  1  0
 29 31  2  0
 29 30  1  0
M  END
$$$$
