YHL.pdb
     RDKit          3D

 31 32  0  0  1  0  0  0  0  0999 V2000
   15.3149  -18.5616  -14.2821 O   0  0  0  0  0  0  0  0  0  0  0  0
   16.5071  -19.2105  -14.0608 C   0  0  0  0  0  0  0  0  0  0  0  0
   16.5230  -20.5695  -13.7913 C   0  0  0  0  0  0  0  0  0  0  0  0
   17.7144  -21.2367  -13.5667 C   0  0  0  0  0  0  0  0  0  0  0  0
   18.9052  -20.5432  -13.6109 C   0  0  0  0  0  0  0  0  0  0  0  0
   20.1929  -21.2790  -13.3664 C   0  0  0  0  0  0  0  0  0  0  0  0
   20.9305  -21.2490  -14.7039 C   0  0  2  0  0  0  0  0  0  0  0  0
   20.3446  -22.0951  -15.6905 N   0  0  0  0  0  0  0  0  0  0  0  0
   22.3877  -21.4525  -14.5297 C   0  0  0  0  0  0  0  0  0  0  0  0
   22.9050  -22.5885  -14.6712 O   0  0  0  0  0  0  0  0  0  0  0  0
   18.8708  -19.1849  -13.8817 C   0  0  0  0  0  0  0  0  0  0  0  0
   17.6945  -18.5248  -14.1037 C   0  0  0  0  0  0  0  0  0  0  0  0
   23.2633  -20.3919  -14.1990 N   0  0  0  0  0  0  0  0  0  0  0  0
   24.6908  -20.5548  -14.0367 C   0  0  1  0  0  0  0  0  0  0  0  0
   25.4855  -19.5148  -14.7409 C   0  0  0  0  0  0  0  0  0  0  0  0
   26.9443  -19.6855  -14.5445 C   0  0  0  0  0  0  0  0  0  0  0  0
   27.8040  -18.8578  -13.8249 C   0  0  0  0  0  0  0  0  0  0  0  0
   29.0573  -19.3364  -13.8727 N   0  0  0  0  0  0  0  0  0  0  0  0
   29.0072  -20.4524  -14.6095 C   0  0  0  0  0  0  0  0  0  0  0  0
   27.7467  -20.6680  -15.0151 N   0  0  0  0  0  0  0  0  0  0  0  0
   25.0537  -20.6545  -12.5807 C   0  0  0  0  0  0  0  0  0  0  0  0
   24.4762  -19.9496  -11.7202 O   0  0  0  0  0  0  0  0  0  0  0  0
   28.3424  -20.3935   -8.6977 C   0  0  0  0  0  0  0  0  0  0  0  0
   28.8070  -21.4482   -9.6453 C   0  0  2  0  0  0  0  0  0  0  0  0
   30.2908  -21.2630   -9.9879 C   0  0  0  0  0  0  0  0  0  0  0  0
   28.0189  -21.4864  -10.8959 C   0  0  0  0  0  0  0  0  0  0  0  0
   26.5476  -21.5483  -10.8196 C   0  0  2  0  0  0  0  0  0  0  0  0
   26.0696  -21.5757  -12.2406 N   0  0  0  0  0  0  0  0  0  0  0  0
   25.7409  -20.6372  -10.0709 C   0  0  0  0  0  0  0  0  0  0  0  0
   24.9546  -20.8674   -8.9504 O   0  0  0  0  0  0  0  0  0  0  0  0
   25.6945  -19.4015  -10.4592 O   0  0  0  0  0  0  0  0  0  0  0  0
  1  2  1  0
  2 12  2  0
  3  2  1  0
  3  4  2  0
  4  5  1  0
  5 11  2  0
  5  6  1  0
  7  6  1  0
  7  8  1  6
  9  7  1  0
 10  9  2  0
 12 11  1  0
 13  9  1  0
 14 13  1  0
 14 15  1  1
 16 15  1  0
 17 16  2  0
 18 17  1  0
 19 18  1  0
 19 20  2  0
 20 16  1  0
 21 14  1  0
 21 28  1  0
 22 21  2  0
 24 23  1  1
 24 26  1  0
 24 25  1  0
 27 26  1  6
 27 28  1  0
 27 29  1  0
 29 31  2  0
 29 30  1  0
M  END
$$$$
