YHL.pdb
     RDKit          3D

 31 32  0  0  1  0  0  0  0  0999 V2000
   24.8616  -13.0696  -17.8714 O   0  0  0  0  0  0  0  0  0  0  0  0
   24.6882  -14.1497  -17.0379 C   0  0  0  0  0  0  0  0  0  0  0  0
   23.4131  -14.5914  -16.7233 C   0  0  0  0  0  0  0  0  0  0  0  0
   23.2221  -15.6768  -15.8863 C   0  0  0  0  0  0  0  0  0  0  0  0
   24.3135  -16.3311  -15.3555 C   0  0  0  0  0  0  0  0  0  0  0  0
   24.0935  -17.5095  -14.4487 C   0  0  0  0  0  0  0  0  0  0  0  0
   24.6937  -18.7025  -15.1905 C   0  0  2  0  0  0  0  0  0  0  0  0
   24.1559  -18.8822  -16.4985 N   0  0  0  0  0  0  0  0  0  0  0  0
   24.6726  -19.9297  -14.3608 C   0  0  0  0  0  0  0  0  0  0  0  0
   23.6116  -20.5813  -14.1941 O   0  0  0  0  0  0  0  0  0  0  0  0
   25.5811  -15.8761  -15.6806 C   0  0  0  0  0  0  0  0  0  0  0  0
   25.7708  -14.8040  -16.5073 C   0  0  0  0  0  0  0  0  0  0  0  0
   25.8315  -20.4270  -13.7199 N   0  0  0  0  0  0  0  0  0  0  0  0
   25.8612  -21.6607  -12.9665 C   0  0  1  0  0  0  0  0  0  0  0  0
   26.8326  -22.6519  -13.4985 C   0  0  0  0  0  0  0  0  0  0  0  0
   26.4885  -23.1059  -14.8664 C   0  0  0  0  0  0  0  0  0  0  0  0
   25.6080  -24.1254  -15.2234 C   0  0  0  0  0  0  0  0  0  0  0  0
   25.5552  -24.2467  -16.5593 N   0  0  0  0  0  0  0  0  0  0  0  0
   26.3864  -23.3224  -17.0552 C   0  0  0  0  0  0  0  0  0  0  0  0
   26.9485  -22.6360  -16.0489 N   0  0  0  0  0  0  0  0  0  0  0  0
   26.0766  -21.3867  -11.5035 C   0  0  0  0  0  0  0  0  0  0  0  0
   27.2175  -21.1255  -11.0554 O   0  0  0  0  0  0  0  0  0  0  0  0
   27.8201  -20.5745   -7.8835 C   0  0  0  0  0  0  0  0  0  0  0  0
   27.2966  -19.7902   -9.0399 C   0  0  2  0  0  0  0  0  0  0  0  0
   27.7387  -18.3238   -8.9534 C   0  0  0  0  0  0  0  0  0  0  0  0
   25.8237  -19.8494   -9.1561 C   0  0  0  0  0  0  0  0  0  0  0  0
   25.1570  -21.1634   -9.2152 C   0  0  2  0  0  0  0  0  0  0  0  0
   24.9353  -21.4395  -10.6723 N   0  0  0  0  0  0  0  0  0  0  0  0
   23.9736  -21.4994   -8.4888 C   0  0  0  0  0  0  0  0  0  0  0  0
   23.8075  -21.7420   -7.1321 O   0  0  0  0  0  0  0  0  0  0  0  0
   22.8643  -21.6164   -9.1489 O   0  0  0  0  0  0  0  0  0  0  0  0
  1  2  1  0
  2 12  2  0
  3  2  1  0
  3  4  2  0
  4  5  1  0
  5 11  2  0
  5  6  1  0
  7  6  1  0
  7  8  1  6
  9  7  1  0
 10  9  2  0
 12 11  1  0
 13  9  1  0
 14 13  1  0
 14 15  1  6
 16 15  1  0
 17 16  2  0
 18 17  1  0
 19 18  1  0
 19 20  2  0
 20 16  1  0
 21 14  1  0
 21 28  1  0
 22 21  2  0
 24 23  1  1
 24 26  1  0
 24 25  1  0
 27 26  1  6
 27 28  1  0
 27 29  1  0
 29 31  2  0
 29 30  1  0
M  END
$$$$
