CFR.pdb
     RDKit          3D

 29 29  0  0  1  0  0  0  0  0999 V2000
   28.6785  -21.8325  -14.1578 N   0  0  0  0  0  0  0  0  0  0  0  0
   29.0498  -20.7851  -13.2266 C   0  0  1  0  0  0  0  0  0  0  0  0
   28.5476  -19.4751  -13.8015 C   0  0  0  0  0  0  0  0  0  0  0  0
   28.2848  -19.7199  -15.5735 S   0  0  0  0  0  0  0  0  0  0  0  0
   28.4150  -21.0993  -11.9210 C   0  0  0  0  0  0  0  0  0  0  0  0
   27.3840  -21.8188  -11.9257 O   0  0  0  0  0  0  0  0  0  0  0  0
   28.9118  -20.6322  -10.6948 N   0  0  0  0  0  0  0  0  0  0  0  0
   28.1932  -20.8496   -9.4198 C   0  0  1  0  0  0  0  0  0  0  0  0
   29.0793  -20.4961   -8.2911 C   0  0  0  0  0  0  0  0  0  0  0  0
   28.4894  -20.4048   -6.9597 C   0  0  0  0  0  0  0  0  0  0  0  0
   28.4314  -21.4017   -6.0226 C   0  0  0  0  0  0  0  0  0  0  0  0
   27.8191  -21.1711   -4.8052 C   0  0  0  0  0  0  0  0  0  0  0  0
   27.2490  -19.9643   -4.4699 C   0  0  0  0  0  0  0  0  0  0  0  0
   27.2996  -18.9520   -5.4007 C   0  0  0  0  0  0  0  0  0  0  0  0
   27.9075  -19.1821   -6.6096 C   0  0  0  0  0  0  0  0  0  0  0  0
   26.9081  -20.1360   -9.4755 C   0  0  0  0  0  0  0  0  0  0  0  0
   26.8658  -18.9232   -9.9035 O   0  0  0  0  0  0  0  0  0  0  0  0
   24.2892  -24.0131  -13.4911 N   0  0  0  0  0  0  0  0  0  0  0  0
   22.9001  -23.6812  -13.5568 C   0  0  0  0  0  0  0  0  0  0  0  0
   22.0509  -24.6279  -13.7369 N   0  0  0  0  0  0  0  0  0  0  0  0
   22.5220  -22.3197  -13.4194 N   0  0  0  0  0  0  0  0  0  0  0  0
   23.5152  -21.3693  -12.9858 C   0  0  0  0  0  0  0  0  0  0  0  0
   23.4042  -21.1947  -11.4668 C   0  0  0  0  0  0  0  0  0  0  0  0
   24.3847  -20.1553  -11.0280 C   0  0  0  0  0  0  0  0  0  0  0  0
   24.4461  -20.1156   -9.5074 C   0  0  2  0  0  0  0  0  0  0  0  0
   25.7020  -20.7503   -9.0803 N   0  0  0  0  0  0  0  0  0  0  0  0
   23.2941  -20.8054   -8.9339 C   0  0  0  0  0  0  0  0  0  0  0  0
   22.0077  -20.3029   -8.8971 O   0  0  0  0  0  0  0  0  0  0  0  0
   23.4476  -21.9455   -8.4219 O   0  0  0  0  0  0  0  0  0  0  0  0
  2  3  1  0
  2  1  1  6
  4  3  1  0
  5  2  1  0
  6  5  2  0
  7  5  1  0
  8  7  1  0
  9 10  1  0
  8  9  1  1
 10 15  2  0
 11 12  2  0
 11 10  1  0
 12 13  1  0
 13 14  2  0
 15 14  1  0
 16  8  1  0
 16 17  2  0
 19 20  2  0
 19 18  1  0
 21 19  1  0
 22 21  1  0
 23 22  1  0
 24 23  1  0
 25 24  1  6
 25 26  1  0
 26 16  1  0
 27 25  1  0
 28 27  1  0
 29 27  2  0
M  END
$$$$
