CFR.pdb
     RDKit          3D

 29 29  0  0  1  0  0  0  0  0999 V2000
   29.0772  -21.1646  -14.5172 N   0  0  0  0  0  0  0  0  0  0  0  0
   28.4831  -20.0948  -13.7396 C   0  0  1  0  0  0  0  0  0  0  0  0
   28.2109  -18.9464  -14.6913 C   0  0  0  0  0  0  0  0  0  0  0  0
   27.5053  -17.5905  -13.7256 S   0  0  0  0  0  0  0  0  0  0  0  0
   27.2344  -20.6215  -13.1318 C   0  0  0  0  0  0  0  0  0  0  0  0
   26.5692  -21.4624  -13.7884 O   0  0  0  0  0  0  0  0  0  0  0  0
   26.7699  -20.2247  -11.8687 N   0  0  0  0  0  0  0  0  0  0  0  0
   25.5733  -20.8303  -11.2438 C   0  0  1  0  0  0  0  0  0  0  0  0
   25.5952  -20.5706   -9.7890 C   0  0  0  0  0  0  0  0  0  0  0  0
   26.8595  -20.7433   -9.0814 C   0  0  0  0  0  0  0  0  0  0  0  0
   27.9082  -21.5357   -9.4656 C   0  0  0  0  0  0  0  0  0  0  0  0
   29.0406  -21.6138   -8.6771 C   0  0  0  0  0  0  0  0  0  0  0  0
   29.1801  -20.9220   -7.4957 C   0  0  0  0  0  0  0  0  0  0  0  0
   28.1352  -20.1207   -7.0960 C   0  0  0  0  0  0  0  0  0  0  0  0
   27.0109  -20.0442   -7.8796 C   0  0  0  0  0  0  0  0  0  0  0  0
   24.3782  -20.3615  -11.9619 C   0  0  0  0  0  0  0  0  0  0  0  0
   24.4677  -19.3704  -12.7778 O   0  0  0  0  0  0  0  0  0  0  0  0
   24.3840  -26.2874  -15.1028 N   0  0  0  0  0  0  0  0  0  0  0  0
   22.9563  -26.3570  -15.0782 C   0  0  0  0  0  0  0  0  0  0  0  0
   22.3941  -27.4971  -15.2630 N   0  0  0  0  0  0  0  0  0  0  0  0
   22.2239  -25.1623  -14.8499 N   0  0  0  0  0  0  0  0  0  0  0  0
   22.9503  -23.9605  -14.5249 C   0  0  0  0  0  0  0  0  0  0  0  0
   21.9545  -22.8045  -14.3762 C   0  0  0  0  0  0  0  0  0  0  0  0
   22.7145  -21.5440  -14.1152 C   0  0  0  0  0  0  0  0  0  0  0  0
   22.1481  -20.8472  -12.8858 C   0  0  2  0  0  0  0  0  0  0  0  0
   23.1220  -20.9790  -11.7919 N   0  0  0  0  0  0  0  0  0  0  0  0
   20.8653  -21.4367  -12.5131 C   0  0  0  0  0  0  0  0  0  0  0  0
   20.7030  -22.4881  -11.6317 O   0  0  0  0  0  0  0  0  0  0  0  0
   19.8051  -20.9799  -13.0160 O   0  0  0  0  0  0  0  0  0  0  0  0
  2  3  1  0
  2  1  1  6
  4  3  1  0
  5  2  1  0
  6  5  2  0
  7  5  1  0
  8  7  1  0
  9 10  1  0
  8  9  1  1
 10 15  2  0
 11 12  2  0
 11 10  1  0
 12 13  1  0
 13 14  2  0
 15 14  1  0
 16  8  1  0
 16 17  2  0
 19 20  2  0
 19 18  1  0
 21 19  1  0
 22 21  1  0
 23 22  1  0
 24 23  1  0
 25 24  1  6
 25 26  1  0
 26 16  1  0
 27 25  1  0
 28 27  1  0
 29 27  2  0
M  END
$$$$
