CFR.pdb
     RDKit          3D

 29 29  0  0  1  0  0  0  0  0999 V2000
   22.1663  -19.3619  -15.0211 N   0  0  0  0  0  0  0  0  0  0  0  0
   21.7474  -18.4171  -16.0380 C   0  0  1  0  0  0  0  0  0  0  0  0
   20.2321  -18.4469  -16.0808 C   0  0  0  0  0  0  0  0  0  0  0  0
   19.7433  -19.6756  -17.3139 S   0  0  0  0  0  0  0  0  0  0  0  0
   22.2668  -17.0807  -15.6504 C   0  0  0  0  0  0  0  0  0  0  0  0
   22.2318  -16.7656  -14.4337 O   0  0  0  0  0  0  0  0  0  0  0  0
   22.7896  -16.1637  -16.5748 N   0  0  0  0  0  0  0  0  0  0  0  0
   23.4642  -14.9167  -16.1515 C   0  0  1  0  0  0  0  0  0  0  0  0
   24.9069  -15.0114  -16.4577 C   0  0  0  0  0  0  0  0  0  0  0  0
   25.6941  -16.0123  -15.7453 C   0  0  0  0  0  0  0  0  0  0  0  0
   26.0720  -15.9686  -14.4298 C   0  0  0  0  0  0  0  0  0  0  0  0
   26.8388  -16.9874  -13.8968 C   0  0  0  0  0  0  0  0  0  0  0  0
   27.2559  -18.0740  -14.6310 C   0  0  0  0  0  0  0  0  0  0  0  0
   26.8838  -18.1331  -15.9545 C   0  0  0  0  0  0  0  0  0  0  0  0
   26.1226  -17.1206  -16.4830 C   0  0  0  0  0  0  0  0  0  0  0  0
   22.7553  -13.7726  -16.7450 C   0  0  0  0  0  0  0  0  0  0  0  0
   22.2586  -13.8694  -17.9281 O   0  0  0  0  0  0  0  0  0  0  0  0
   20.6421   -7.0744  -12.3282 N   0  0  0  0  0  0  0  0  0  0  0  0
   21.4292   -6.9401  -13.5140 C   0  0  0  0  0  0  0  0  0  0  0  0
   22.0643   -5.8405  -13.7078 N   0  0  0  0  0  0  0  0  0  0  0  0
   21.4738   -8.0288  -14.4242 N   0  0  0  0  0  0  0  0  0  0  0  0
   20.2951   -8.3286  -15.1979 C   0  0  0  0  0  0  0  0  0  0  0  0
   20.6584   -9.3558  -16.2764 C   0  0  0  0  0  0  0  0  0  0  0  0
   21.4624  -10.4490  -15.6496 C   0  0  0  0  0  0  0  0  0  0  0  0
   21.7958  -11.5055  -16.6938 C   0  0  2  0  0  0  0  0  0  0  0  0
   22.5900  -12.5597  -16.0453 N   0  0  0  0  0  0  0  0  0  0  0  0
   22.5328  -10.9084  -17.8039 C   0  0  0  0  0  0  0  0  0  0  0  0
   22.0294  -10.7150  -19.0758 O   0  0  0  0  0  0  0  0  0  0  0  0
   23.7213  -10.5324  -17.6262 O   0  0  0  0  0  0  0  0  0  0  0  0
  2  3  1  0
  2  1  1  1
  4  3  1  0
  5  2  1  0
  6  5  2  0
  7  5  1  0
  8  7  1  0
  9 10  1  0
  8  9  1  6
 10 15  2  0
 11 12  2  0
 11 10  1  0
 12 13  1  0
 13 14  2  0
 15 14  1  0
 16  8  1  0
 16 17  2  0
 19 20  2  0
 19 18  1  0
 21 19  1  0
 22 21  1  0
 23 22  1  0
 24 23  1  0
 25 24  1  1
 25 26  1  0
 26 16  1  0
 27 25  1  0
 28 27  1  0
 29 27  2  0
M  END
$$$$
