CFR.pdb
     RDKit          3D

 29 29  0  0  1  0  0  0  0  0999 V2000
   28.8660  -22.9871  -17.6142 N   0  0  0  0  0  0  0  0  0  0  0  0
   28.4179  -21.6900  -17.1463 C   0  0  1  0  0  0  0  0  0  0  0  0
   27.5586  -21.0902  -18.2420 C   0  0  0  0  0  0  0  0  0  0  0  0
   28.6376  -20.7262  -19.6464 S   0  0  0  0  0  0  0  0  0  0  0  0
   27.6508  -21.9054  -15.8928 C   0  0  0  0  0  0  0  0  0  0  0  0
   26.9300  -22.9324  -15.8127 O   0  0  0  0  0  0  0  0  0  0  0  0
   27.6956  -21.0205  -14.8048 N   0  0  0  0  0  0  0  0  0  0  0  0
   26.9097  -21.2479  -13.5720 C   0  0  1  0  0  0  0  0  0  0  0  0
   27.5269  -20.5053  -12.4531 C   0  0  0  0  0  0  0  0  0  0  0  0
   26.8584  -20.5400  -11.1566 C   0  0  0  0  0  0  0  0  0  0  0  0
   26.8689  -21.5753  -10.2604 C   0  0  0  0  0  0  0  0  0  0  0  0
   26.1679  -21.4695   -9.0740 C   0  0  0  0  0  0  0  0  0  0  0  0
   25.4401  -20.3531   -8.7307 C   0  0  0  0  0  0  0  0  0  0  0  0
   25.4201  -19.3036   -9.6206 C   0  0  0  0  0  0  0  0  0  0  0  0
   26.1163  -19.4098  -10.7987 C   0  0  0  0  0  0  0  0  0  0  0  0
   25.4988  -20.9371  -13.8484 C   0  0  0  0  0  0  0  0  0  0  0  0
   25.1978  -19.9422  -14.6071 O   0  0  0  0  0  0  0  0  0  0  0  0
   19.0752  -25.9935  -15.4329 N   0  0  0  0  0  0  0  0  0  0  0  0
   19.2624  -25.5624  -14.0827 C   0  0  0  0  0  0  0  0  0  0  0  0
   18.7988  -26.2949  -13.1349 N   0  0  0  0  0  0  0  0  0  0  0  0
   19.9529  -24.3439  -13.8505 N   0  0  0  0  0  0  0  0  0  0  0  0
   20.2022  -23.4694  -14.9690 C   0  0  0  0  0  0  0  0  0  0  0  0
   20.9196  -22.2120  -14.4645 C   0  0  0  0  0  0  0  0  0  0  0  0
   22.3302  -22.5670  -14.1203 C   0  0  0  0  0  0  0  0  0  0  0  0
   23.0746  -21.3232  -13.6551 C   0  0  2  0  0  0  0  0  0  0  0  0
   24.4505  -21.7117  -13.3106 N   0  0  0  0  0  0  0  0  0  0  0  0
   22.3999  -20.7270  -12.5057 C   0  0  0  0  0  0  0  0  0  0  0  0
   22.6529  -21.0462  -11.1855 O   0  0  0  0  0  0  0  0  0  0  0  0
   21.5119  -19.8543  -12.6938 O   0  0  0  0  0  0  0  0  0  0  0  0
  2  3  1  0
  2  1  1  6
  4  3  1  0
  5  2  1  0
  6  5  2  0
  7  5  1  0
  8  7  1  0
  9 10  1  0
  8  9  1  1
 10 15  2  0
 11 12  2  0
 11 10  1  0
 12 13  1  0
 13 14  2  0
 15 14  1  0
 16  8  1  0
 16 17  2  0
 19 20  2  0
 19 18  1  0
 21 19  1  0
 22 21  1  0
 23 22  1  0
 24 23  1  0
 25 24  1  1
 25 26  1  0
 26 16  1  0
 27 25  1  0
 28 27  1  0
 29 27  2  0
M  END
$$$$
