CFR.pdb
     RDKit          3D

 29 29  0  0  1  0  0  0  0  0999 V2000
   14.1964  -13.8674    9.2692 N   0  0  0  0  0  0  0  0  0  0  0  0
   14.9204  -15.1127    9.1041 C   0  0  1  0  0  0  0  0  0  0  0  0
   14.0443  -16.2180    9.6604 C   0  0  0  0  0  0  0  0  0  0  0  0
   14.6029  -16.5639   11.3448 S   0  0  0  0  0  0  0  0  0  0  0  0
   15.1847  -15.2894    7.6532 C   0  0  0  0  0  0  0  0  0  0  0  0
   14.3099  -14.8914    6.8426 O   0  0  0  0  0  0  0  0  0  0  0  0
   16.3573  -15.8757    7.1533 N   0  0  0  0  0  0  0  0  0  0  0  0
   16.5740  -16.0927    5.7059 C   0  0  1  0  0  0  0  0  0  0  0  0
   17.9185  -15.6055    5.3329 C   0  0  0  0  0  0  0  0  0  0  0  0
   18.3058  -15.6722    3.9277 C   0  0  0  0  0  0  0  0  0  0  0  0
   18.8899  -16.7351    3.2917 C   0  0  0  0  0  0  0  0  0  0  0  0
   19.2199  -16.6429    1.9528 C   0  0  0  0  0  0  0  0  0  0  0  0
   18.9889  -15.5143    1.2001 C   0  0  0  0  0  0  0  0  0  0  0  0
   18.4019  -14.4376    1.8245 C   0  0  0  0  0  0  0  0  0  0  0  0
   18.0749  -14.5300    3.1543 C   0  0  0  0  0  0  0  0  0  0  0  0
   16.2920  -17.5021    5.3931 C   0  0  0  0  0  0  0  0  0  0  0  0
   16.6878  -18.4285    6.1937 O   0  0  0  0  0  0  0  0  0  0  0  0
   14.2106  -22.3472   -1.4756 N   0  0  0  0  0  0  0  0  0  0  0  0
   13.9578  -23.2264   -0.3771 C   0  0  0  0  0  0  0  0  0  0  0  0
   13.7064  -24.4615   -0.6248 N   0  0  0  0  0  0  0  0  0  0  0  0
   13.9964  -22.6945    0.9388 N   0  0  0  0  0  0  0  0  0  0  0  0
   14.4500  -21.3384    1.1205 C   0  0  0  0  0  0  0  0  0  0  0  0
   14.1642  -20.9097    2.5643 C   0  0  0  0  0  0  0  0  0  0  0  0
   14.5551  -19.4762    2.7279 C   0  0  0  0  0  0  0  0  0  0  0  0
   15.3993  -19.3135    3.9843 C   0  0  2  0  0  0  0  0  0  0  0  0
   15.5818  -17.8758    4.2337 N   0  0  0  0  0  0  0  0  0  0  0  0
   16.6880  -19.9802    3.8208 C   0  0  0  0  0  0  0  0  0  0  0  0
   17.6963  -19.5583    2.9757 O   0  0  0  0  0  0  0  0  0  0  0  0
   16.9330  -21.0236    4.4816 O   0  0  0  0  0  0  0  0  0  0  0  0
  2  3  1  0
  2  1  1  6
  4  3  1  0
  5  2  1  0
  6  5  2  0
  7  5  1  0
  8  7  1  0
  9 10  1  0
  8  9  1  1
 10 15  2  0
 11 12  2  0
 11 10  1  0
 12 13  1  0
 13 14  2  0
 15 14  1  0
 16  8  1  0
 16 17  2  0
 19 20  2  0
 19 18  1  0
 21 19  1  0
 22 21  1  0
 23 22  1  0
 24 23  1  0
 25 24  1  6
 25 26  1  0
 26 16  1  0
 27 25  1  0
 28 27  1  0
 29 27  2  0
M  END
$$$$
