CFR.pdb
     RDKit          3D

 29 29  0  0  1  0  0  0  0  0999 V2000
   29.4592  -22.9086  -17.2944 N   0  0  0  0  0  0  0  0  0  0  0  0
   28.9078  -21.6422  -16.8534 C   0  0  1  0  0  0  0  0  0  0  0  0
   28.2422  -21.0002  -18.0549 C   0  0  0  0  0  0  0  0  0  0  0  0
   26.8332  -22.0344  -18.5178 S   0  0  0  0  0  0  0  0  0  0  0  0
   27.9367  -21.9293  -15.7669 C   0  0  0  0  0  0  0  0  0  0  0  0
   27.5461  -23.1159  -15.6246 O   0  0  0  0  0  0  0  0  0  0  0  0
   27.4413  -20.9428  -14.9009 N   0  0  0  0  0  0  0  0  0  0  0  0
   26.4967  -21.2578  -13.8065 C   0  0  1  0  0  0  0  0  0  0  0  0
   26.7843  -20.3898  -12.6455 C   0  0  0  0  0  0  0  0  0  0  0  0
   25.8815  -20.4552  -11.5011 C   0  0  0  0  0  0  0  0  0  0  0  0
   26.1236  -21.0767  -10.3050 C   0  0  0  0  0  0  0  0  0  0  0  0
   25.1586  -21.0714   -9.3157 C   0  0  0  0  0  0  0  0  0  0  0  0
   23.9347  -20.4604   -9.4660 C   0  0  0  0  0  0  0  0  0  0  0  0
   23.6763  -19.8309  -10.6621 C   0  0  0  0  0  0  0  0  0  0  0  0
   24.6351  -19.8370  -11.6441 C   0  0  0  0  0  0  0  0  0  0  0  0
   25.1251  -21.1915  -14.3340 C   0  0  0  0  0  0  0  0  0  0  0  0
   24.8202  -20.3083  -15.2189 O   0  0  0  0  0  0  0  0  0  0  0  0
   22.2509  -27.5112  -17.6050 N   0  0  0  0  0  0  0  0  0  0  0  0
   21.4467  -27.0246  -16.5278 C   0  0  0  0  0  0  0  0  0  0  0  0
   20.3507  -27.6365  -16.2552 N   0  0  0  0  0  0  0  0  0  0  0  0
   21.8963  -25.8868  -15.8074 N   0  0  0  0  0  0  0  0  0  0  0  0
   23.1830  -25.3269  -16.1373 C   0  0  0  0  0  0  0  0  0  0  0  0
   23.4825  -24.1723  -15.1743 C   0  0  0  0  0  0  0  0  0  0  0  0
   22.5188  -23.0609  -15.4396 C   0  0  0  0  0  0  0  0  0  0  0  0
   22.7756  -21.9153  -14.4705 C   0  0  2  0  0  0  0  0  0  0  0  0
   24.1221  -22.0842  -13.9039 N   0  0  0  0  0  0  0  0  0  0  0  0
   21.7657  -21.9052  -13.4160 C   0  0  0  0  0  0  0  0  0  0  0  0
   20.6023  -21.1607  -13.4407 O   0  0  0  0  0  0  0  0  0  0  0  0
   21.9361  -22.6143  -12.3896 O   0  0  0  0  0  0  0  0  0  0  0  0
  2  3  1  0
  2  1  1  6
  4  3  1  0
  5  2  1  0
  6  5  2  0
  7  5  1  0
  8  7  1  0
  9 10  1  0
  8  9  1  1
 10 15  2  0
 11 12  2  0
 11 10  1  0
 12 13  1  0
 13 14  2  0
 15 14  1  0
 16  8  1  0
 16 17  2  0
 19 20  2  0
 19 18  1  0
 21 19  1  0
 22 21  1  0
 23 22  1  0
 24 23  1  0
 25 24  1  6
 25 26  1  0
 26 16  1  0
 27 25  1  0
 28 27  1  0
 29 27  2  0
M  END
$$$$
