FCN.pdb
     RDKit          3D

 26 26  0  0  1  0  0  0  0  0999 V2000
    5.9116  -17.7902   25.8991 N   0  0  0  0  0  0  0  0  0  0  0  0
    6.6297  -16.5788   25.6728 C   0  0  1  0  0  0  0  0  0  0  0  0
    7.3443  -16.0128   26.8545 C   0  0  0  0  0  0  0  0  0  0  0  0
    7.5490  -14.5597   26.6285 C   0  0  0  0  0  0  0  0  0  0  0  0
    8.8133  -14.0179   26.5096 C   0  0  0  0  0  0  0  0  0  0  0  0
    9.0276  -12.6748   26.3090 C   0  0  0  0  0  0  0  0  0  0  0  0
    7.9463  -11.8314   26.2232 C   0  0  0  0  0  0  0  0  0  0  0  0
    6.6553  -12.3350   26.3380 C   0  0  0  0  0  0  0  0  0  0  0  0
    6.4735  -13.7035   26.5401 C   0  0  0  0  0  0  0  0  0  0  0  0
    7.4776  -16.6720   24.4458 C   0  0  0  0  0  0  0  0  0  0  0  0
    8.2672  -17.6406   24.3613 O   0  0  0  0  0  0  0  0  0  0  0  0
    7.4247  -15.7357   23.4054 N   0  0  0  0  0  0  0  0  0  0  0  0
    8.2445  -15.7409   22.2403 C   0  0  1  0  0  0  0  0  0  0  0  0
    7.6859  -14.8885   21.1229 C   0  0  0  0  0  0  0  0  0  0  0  0
    6.1126  -15.6134   20.5303 S   0  0  0  0  0  0  0  0  0  0  0  0
    9.6060  -15.1998   22.5640 C   0  0  0  0  0  0  0  0  0  0  0  0
    9.7236  -14.2138   23.3270 O   0  0  0  0  0  0  0  0  0  0  0  0
   13.7612  -17.9887   25.0012 N   0  0  0  0  0  0  0  0  0  0  0  0
   13.2793  -16.7180   24.6015 C   0  0  0  0  0  0  0  0  0  0  0  0
   13.9568  -15.6950   24.8984 O   0  0  0  0  0  0  0  0  0  0  0  0
   12.0344  -16.5866   23.8632 C   0  0  0  0  0  0  0  0  0  0  0  0
   12.1009  -15.6931   22.6472 C   0  0  2  0  0  0  0  0  0  0  0  0
   10.7831  -15.7709   22.0293 N   0  0  0  0  0  0  0  0  0  0  0  0
   13.1241  -16.3238   21.7327 C   0  0  0  0  0  0  0  0  0  0  0  0
   14.2426  -15.7674   21.6084 O   0  0  0  0  0  0  0  0  0  0  0  0
   12.8646  -17.4781   21.0395 O   0  0  0  0  0  0  0  0  0  0  0  0
  2  1  1  1
  3  2  1  0
  4  9  2  0
  4  3  1  0
  5  4  1  0
  6  7  1  0
  6  5  2  0
  7  8  2  0
  8  9  1  0
 10  2  1  0
 10 11  2  0
 12 13  1  0
 12 10  1  0
 13 14  1  6
 15 14  1  0
 16 17  2  0
 16 13  1  0
 19 21  1  0
 19 18  1  0
 20 19  2  0
 22 21  1  1
 22 23  1  0
 23 16  1  0
 24 22  1  0
 24 26  1  0
 25 24  2  0
M  END
$$$$
