FCN.pdb
     RDKit          3D

 26 26  0  0  1  0  0  0  0  0999 V2000
    5.8081  -18.2287   25.3234 N   0  0  0  0  0  0  0  0  0  0  0  0
    6.4368  -16.9485   25.3452 C   0  0  1  0  0  0  0  0  0  0  0  0
    6.7785  -16.4118   26.6952 C   0  0  0  0  0  0  0  0  0  0  0  0
    6.9450  -14.9403   26.5878 C   0  0  0  0  0  0  0  0  0  0  0  0
    5.8570  -14.0924   26.5284 C   0  0  0  0  0  0  0  0  0  0  0  0
    5.9864  -12.7280   26.4200 C   0  0  0  0  0  0  0  0  0  0  0  0
    7.2447  -12.1786   26.3672 C   0  0  0  0  0  0  0  0  0  0  0  0
    8.3681  -12.9960   26.4234 C   0  0  0  0  0  0  0  0  0  0  0  0
    8.2009  -14.3768   26.5345 C   0  0  0  0  0  0  0  0  0  0  0  0
    7.5659  -16.8819   24.3686 C   0  0  0  0  0  0  0  0  0  0  0  0
    8.4005  -17.8157   24.3858 O   0  0  0  0  0  0  0  0  0  0  0  0
    7.7245  -15.8353   23.4514 N   0  0  0  0  0  0  0  0  0  0  0  0
    8.7342  -15.7541   22.4497 C   0  0  1  0  0  0  0  0  0  0  0  0
    8.4481  -14.6946   21.4092 C   0  0  0  0  0  0  0  0  0  0  0  0
    7.6135  -13.2706   22.2016 S   0  0  0  0  0  0  0  0  0  0  0  0
   10.0544  -15.4089   23.0735 C   0  0  0  0  0  0  0  0  0  0  0  0
   10.3067  -14.2242   23.3919 O   0  0  0  0  0  0  0  0  0  0  0  0
   11.5780  -16.9991   26.8329 N   0  0  0  0  0  0  0  0  0  0  0  0
   11.7987  -17.8080   25.6910 C   0  0  0  0  0  0  0  0  0  0  0  0
   11.1730  -18.9002   25.5951 O   0  0  0  0  0  0  0  0  0  0  0  0
   12.7217  -17.3952   24.6470 C   0  0  0  0  0  0  0  0  0  0  0  0
   12.3438  -16.1251   23.9220 C   0  0  2  0  0  0  0  0  0  0  0  0
   11.0433  -16.3884   23.3189 N   0  0  0  0  0  0  0  0  0  0  0  0
   13.3778  -15.9529   22.8346 C   0  0  0  0  0  0  0  0  0  0  0  0
   14.5340  -15.5857   23.1578 O   0  0  0  0  0  0  0  0  0  0  0  0
   13.0882  -16.1840   21.5144 O   0  0  0  0  0  0  0  0  0  0  0  0
  2  1  1  1
  3  2  1  0
  4  9  2  0
  4  3  1  0
  5  4  1  0
  6  7  1  0
  6  5  2  0
  7  8  2  0
  8  9  1  0
 10  2  1  0
 10 11  2  0
 12 13  1  0
 12 10  1  0
 13 14  1  6
 15 14  1  0
 16 17  2  0
 16 13  1  0
 19 21  1  0
 19 18  1  0
 20 19  2  0
 22 21  1  1
 22 23  1  0
 23 16  1  0
 24 22  1  0
 24 26  1  0
 25 24  2  0
M  END
$$$$
