FCN.pdb
     RDKit          3D

 26 26  0  0  1  0  0  0  0  0999 V2000
    6.2026  -16.6086   25.4489 N   0  0  0  0  0  0  0  0  0  0  0  0
    7.3368  -15.9088   24.9406 C   0  0  1  0  0  0  0  0  0  0  0  0
    8.0533  -15.0326   25.9133 C   0  0  0  0  0  0  0  0  0  0  0  0
    7.2864  -13.7700   26.0622 C   0  0  0  0  0  0  0  0  0  0  0  0
    7.3874  -12.7498   25.1374 C   0  0  0  0  0  0  0  0  0  0  0  0
    6.6941  -11.5689   25.2589 C   0  0  0  0  0  0  0  0  0  0  0  0
    5.8666  -11.3884   26.3409 C   0  0  0  0  0  0  0  0  0  0  0  0
    5.7357  -12.3900   27.2965 C   0  0  0  0  0  0  0  0  0  0  0  0
    6.4530  -13.5767   27.1420 C   0  0  0  0  0  0  0  0  0  0  0  0
    8.2395  -16.8218   24.1760 C   0  0  0  0  0  0  0  0  0  0  0  0
    8.3300  -18.0076   24.5695 O   0  0  0  0  0  0  0  0  0  0  0  0
    8.9749  -16.4111   23.0569 N   0  0  0  0  0  0  0  0  0  0  0  0
   10.0056  -17.1600   22.4193 C   0  0  1  0  0  0  0  0  0  0  0  0
   10.2654  -16.7131   20.9981 C   0  0  0  0  0  0  0  0  0  0  0  0
   10.2487  -14.8840   20.9207 S   0  0  0  0  0  0  0  0  0  0  0  0
   11.2959  -17.0054   23.1690 C   0  0  0  0  0  0  0  0  0  0  0  0
   11.6270  -15.8862   23.6233 O   0  0  0  0  0  0  0  0  0  0  0  0
   11.2848  -19.9606   26.3627 N   0  0  0  0  0  0  0  0  0  0  0  0
   12.4287  -19.1344   26.2368 C   0  0  0  0  0  0  0  0  0  0  0  0
   12.6629  -18.2860   27.1418 O   0  0  0  0  0  0  0  0  0  0  0  0
   13.3195  -19.2563   25.0950 C   0  0  0  0  0  0  0  0  0  0  0  0
   13.3796  -18.0442   24.1957 C   0  0  2  0  0  0  0  0  0  0  0  0
   12.1694  -18.0954   23.3850 N   0  0  0  0  0  0  0  0  0  0  0  0
   14.5869  -18.2509   23.3122 C   0  0  0  0  0  0  0  0  0  0  0  0
   15.7294  -18.1445   23.8216 O   0  0  0  0  0  0  0  0  0  0  0  0
   14.4683  -18.5481   21.9788 O   0  0  0  0  0  0  0  0  0  0  0  0
  2  1  1  1
  3  2  1  0
  4  9  2  0
  4  3  1  0
  5  4  1  0
  6  7  1  0
  6  5  2  0
  7  8  2  0
  8  9  1  0
 10  2  1  0
 10 11  2  0
 12 13  1  0
 12 10  1  0
 13 14  1  6
 15 14  1  0
 16 17  2  0
 16 13  1  0
 19 21  1  0
 19 18  1  0
 20 19  2  0
 22 21  1  1
 22 23  1  0
 23 16  1  0
 24 22  1  0
 24 26  1  0
 25 24  2  0
M  END
$$$$
