FCN.pdb
     RDKit          3D

 26 26  0  0  1  0  0  0  0  0999 V2000
    5.5733  -17.8412   25.5285 N   0  0  0  0  0  0  0  0  0  0  0  0
    6.2721  -16.5991   25.4694 C   0  0  1  0  0  0  0  0  0  0  0  0
    6.9228  -16.1550   26.7369 C   0  0  0  0  0  0  0  0  0  0  0  0
    6.9956  -14.6720   26.7335 C   0  0  0  0  0  0  0  0  0  0  0  0
    5.8686  -13.8929   26.9037 C   0  0  0  0  0  0  0  0  0  0  0  0
    5.9101  -12.5187   26.8955 C   0  0  0  0  0  0  0  0  0  0  0  0
    7.1168  -11.8881   26.7101 C   0  0  0  0  0  0  0  0  0  0  0  0
    8.2767  -12.6345   26.5343 C   0  0  0  0  0  0  0  0  0  0  0  0
    8.1990  -14.0275   26.5492 C   0  0  0  0  0  0  0  0  0  0  0  0
    7.1730  -16.5398   24.2786 C   0  0  0  0  0  0  0  0  0  0  0  0
    8.0409  -17.4359   24.1655 O   0  0  0  0  0  0  0  0  0  0  0  0
    7.0865  -15.5397   23.3018 N   0  0  0  0  0  0  0  0  0  0  0  0
    7.9479  -15.4014   22.1755 C   0  0  1  0  0  0  0  0  0  0  0  0
    7.6555  -14.1626   21.3588 C   0  0  0  0  0  0  0  0  0  0  0  0
    8.7243  -14.1452   19.8724 S   0  0  0  0  0  0  0  0  0  0  0  0
    9.3755  -15.3012   22.6260 C   0  0  0  0  0  0  0  0  0  0  0  0
    9.6846  -14.5300   23.5632 O   0  0  0  0  0  0  0  0  0  0  0  0
   11.5035  -16.2685   25.2076 N   0  0  0  0  0  0  0  0  0  0  0  0
   11.9054  -17.4126   24.4752 C   0  0  0  0  0  0  0  0  0  0  0  0
   12.0864  -18.4952   25.0987 O   0  0  0  0  0  0  0  0  0  0  0  0
   12.1045  -17.3502   23.0370 C   0  0  0  0  0  0  0  0  0  0  0  0
   11.8094  -16.0100   22.4059 C   0  0  2  0  0  0  0  0  0  0  0  0
   10.4046  -16.0574   22.0204 N   0  0  0  0  0  0  0  0  0  0  0  0
   12.6699  -15.9440   21.1665 C   0  0  0  0  0  0  0  0  0  0  0  0
   13.8061  -15.4168   21.2513 O   0  0  0  0  0  0  0  0  0  0  0  0
   12.2452  -16.4400   19.9607 O   0  0  0  0  0  0  0  0  0  0  0  0
  2  1  1  1
  3  2  1  0
  4  9  2  0
  4  3  1  0
  5  4  1  0
  6  7  1  0
  6  5  2  0
  7  8  2  0
  8  9  1  0
 10  2  1  0
 10 11  2  0
 12 13  1  0
 12 10  1  0
 13 14  1  1
 15 14  1  0
 16 17  2  0
 16 13  1  0
 19 21  1  0
 19 18  1  0
 20 19  2  0
 22 21  1  6
 22 23  1  0
 23 16  1  0
 24 22  1  0
 24 26  1  0
 25 24  2  0
M  END
$$$$
