FCN.pdb
     RDKit          3D

 26 26  0  0  1  0  0  0  0  0999 V2000
    5.9694  -17.8251   25.6490 N   0  0  0  0  0  0  0  0  0  0  0  0
    6.6754  -16.5945   25.5018 C   0  0  1  0  0  0  0  0  0  0  0  0
    7.2019  -15.9891   26.7602 C   0  0  0  0  0  0  0  0  0  0  0  0
    7.0997  -14.5120   26.6499 C   0  0  0  0  0  0  0  0  0  0  0  0
    8.2224  -13.7165   26.5356 C   0  0  0  0  0  0  0  0  0  0  0  0
    8.1530  -12.3467   26.4410 C   0  0  0  0  0  0  0  0  0  0  0  0
    6.9216  -11.7374   26.4613 C   0  0  0  0  0  0  0  0  0  0  0  0
    5.7649  -12.5006   26.5756 C   0  0  0  0  0  0  0  0  0  0  0  0
    5.8713  -13.8887   26.6685 C   0  0  0  0  0  0  0  0  0  0  0  0
    7.6877  -16.6777   24.4057 C   0  0  0  0  0  0  0  0  0  0  0  0
    8.5029  -17.6279   24.4429 O   0  0  0  0  0  0  0  0  0  0  0  0
    7.7592  -15.7516   23.3573 N   0  0  0  0  0  0  0  0  0  0  0  0
    8.6930  -15.7844   22.2818 C   0  0  1  0  0  0  0  0  0  0  0  0
    8.4008  -14.7518   21.2162 C   0  0  0  0  0  0  0  0  0  0  0  0
    6.6929  -14.9797   20.5973 S   0  0  0  0  0  0  0  0  0  0  0  0
   10.0771  -15.5079   22.7907 C   0  0  0  0  0  0  0  0  0  0  0  0
   10.3763  -14.3642   23.2040 O   0  0  0  0  0  0  0  0  0  0  0  0
   11.3527  -19.3419   24.9435 N   0  0  0  0  0  0  0  0  0  0  0  0
   12.1716  -18.1876   25.0060 C   0  0  0  0  0  0  0  0  0  0  0  0
   12.2957  -17.5950   26.1137 O   0  0  0  0  0  0  0  0  0  0  0  0
   12.8595  -17.6917   23.8257 C   0  0  0  0  0  0  0  0  0  0  0  0
   12.4199  -16.3260   23.3533 C   0  0  2  0  0  0  0  0  0  0  0  0
   11.0755  -16.5079   22.8206 N   0  0  0  0  0  0  0  0  0  0  0  0
   13.3614  -15.9599   22.2305 C   0  0  0  0  0  0  0  0  0  0  0  0
   14.5444  -15.6510   22.5151 O   0  0  0  0  0  0  0  0  0  0  0  0
   12.9602  -15.9550   20.9193 O   0  0  0  0  0  0  0  0  0  0  0  0
  2  1  1  1
  3  2  1  0
  4  9  2  0
  4  3  1  0
  5  4  1  0
  6  7  1  0
  6  5  2  0
  7  8  2  0
  8  9  1  0
 10  2  1  0
 10 11  2  0
 12 13  1  0
 12 10  1  0
 13 14  1  6
 15 14  1  0
 16 17  2  0
 16 13  1  0
 19 21  1  0
 19 18  1  0
 20 19  2  0
 22 21  1  6
 22 23  1  0
 23 16  1  0
 24 22  1  0
 24 26  1  0
 25 24  2  0
M  END
$$$$
