FCN.pdb
     RDKit          3D

 26 26  0  0  1  0  0  0  0  0999 V2000
    9.2067  -13.7091   24.3182 N   0  0  0  0  0  0  0  0  0  0  0  0
    8.5153  -14.9550   24.2540 C   0  0  1  0  0  0  0  0  0  0  0  0
    7.1817  -14.9969   24.9226 C   0  0  0  0  0  0  0  0  0  0  0  0
    7.1041  -13.8715   25.8880 C   0  0  0  0  0  0  0  0  0  0  0  0
    7.9054  -13.8268   27.0115 C   0  0  0  0  0  0  0  0  0  0  0  0
    7.8452  -12.7998   27.9236 C   0  0  0  0  0  0  0  0  0  0  0  0
    6.9544  -11.7743   27.7169 C   0  0  0  0  0  0  0  0  0  0  0  0
    6.1280  -11.7799   26.5987 C   0  0  0  0  0  0  0  0  0  0  0  0
    6.2158  -12.8370   25.6922 C   0  0  0  0  0  0  0  0  0  0  0  0
    8.5073  -15.4998   22.8626 C   0  0  0  0  0  0  0  0  0  0  0  0
    7.9728  -16.6183   22.6831 O   0  0  0  0  0  0  0  0  0  0  0  0
    9.0640  -14.8211   21.7711 N   0  0  0  0  0  0  0  0  0  0  0  0
    9.1162  -15.3033   20.4315 C   0  0  1  0  0  0  0  0  0  0  0  0
    8.8157  -14.2317   19.4076 C   0  0  0  0  0  0  0  0  0  0  0  0
    7.4691  -13.1565   20.0263 S   0  0  0  0  0  0  0  0  0  0  0  0
   10.4875  -15.8289   20.1246 C   0  0  0  0  0  0  0  0  0  0  0  0
   10.7134  -16.3885   19.0272 O   0  0  0  0  0  0  0  0  0  0  0  0
   12.8306  -15.6142   18.1244 N   0  0  0  0  0  0  0  0  0  0  0  0
   13.7495  -14.9450   18.9697 C   0  0  0  0  0  0  0  0  0  0  0  0
   14.5548  -14.1213   18.4533 O   0  0  0  0  0  0  0  0  0  0  0  0
   13.7693  -15.1938   20.4014 C   0  0  0  0  0  0  0  0  0  0  0  0
   12.8714  -16.3142   20.8704 C   0  0  2  0  0  0  0  0  0  0  0  0
   11.5540  -15.7156   21.0452 N   0  0  0  0  0  0  0  0  0  0  0  0
   13.4149  -16.7373   22.2146 C   0  0  0  0  0  0  0  0  0  0  0  0
   14.5357  -17.3010   22.2590 O   0  0  0  0  0  0  0  0  0  0  0  0
   12.7207  -16.5245   23.3778 O   0  0  0  0  0  0  0  0  0  0  0  0
  2  1  1  6
  3  2  1  0
  4  9  2  0
  4  3  1  0
  5  4  1  0
  6  7  1  0
  6  5  2  0
  7  8  2  0
  8  9  1  0
 10  2  1  0
 10 11  2  0
 12 13  1  0
 12 10  1  0
 13 14  1  6
 15 14  1  0
 16 17  2  0
 16 13  1  0
 19 21  1  0
 19 18  1  0
 20 19  2  0
 22 21  1  1
 22 23  1  0
 23 16  1  0
 24 22  1  0
 24 26  1  0
 25 24  2  0
M  END
$$$$
