FCN.pdb
     RDKit          3D

 26 26  0  0  1  0  0  0  0  0999 V2000
    5.6716  -16.2671   25.2285 N   0  0  0  0  0  0  0  0  0  0  0  0
    6.4877  -16.0100   24.0873 C   0  0  1  0  0  0  0  0  0  0  0  0
    6.7152  -14.5724   23.7577 C   0  0  0  0  0  0  0  0  0  0  0  0
    7.1243  -13.8648   24.9973 C   0  0  0  0  0  0  0  0  0  0  0  0
    6.2064  -13.2023   25.7876 C   0  0  0  0  0  0  0  0  0  0  0  0
    6.5630  -12.5331   26.9345 C   0  0  0  0  0  0  0  0  0  0  0  0
    7.8830  -12.5175   27.3156 C   0  0  0  0  0  0  0  0  0  0  0  0
    8.8407  -13.1716   26.5484 C   0  0  0  0  0  0  0  0  0  0  0  0
    8.4443  -13.8420   25.3908 C   0  0  0  0  0  0  0  0  0  0  0  0
    7.7404  -16.8241   24.1219 C   0  0  0  0  0  0  0  0  0  0  0  0
    7.8106  -17.7405   24.9729 O   0  0  0  0  0  0  0  0  0  0  0  0
    8.8193  -16.6066   23.2556 N   0  0  0  0  0  0  0  0  0  0  0  0
    9.8687  -17.5319   22.9867 C   0  0  1  0  0  0  0  0  0  0  0  0
   10.1461  -17.6948   21.5090 C   0  0  0  0  0  0  0  0  0  0  0  0
   10.1400  -16.0514   20.7019 S   0  0  0  0  0  0  0  0  0  0  0  0
   11.1450  -17.0647   23.6222 C   0  0  0  0  0  0  0  0  0  0  0  0
   11.5607  -15.9020   23.4130 O   0  0  0  0  0  0  0  0  0  0  0  0
   13.1526  -20.6494   26.6954 N   0  0  0  0  0  0  0  0  0  0  0  0
   12.4155  -19.4498   26.5392 C   0  0  0  0  0  0  0  0  0  0  0  0
   11.1595  -19.5225   26.4349 O   0  0  0  0  0  0  0  0  0  0  0  0
   13.0830  -18.1593   26.5016 C   0  0  0  0  0  0  0  0  0  0  0  0
   13.1383  -17.5050   25.1413 C   0  0  2  0  0  0  0  0  0  0  0  0
   11.9113  -17.9035   24.4629 N   0  0  0  0  0  0  0  0  0  0  0  0
   14.3250  -18.1218   24.4396 C   0  0  0  0  0  0  0  0  0  0  0  0
   14.1265  -18.7791   23.3886 O   0  0  0  0  0  0  0  0  0  0  0  0
   15.6028  -17.9847   24.9178 O   0  0  0  0  0  0  0  0  0  0  0  0
  2  1  1  1
  3  2  1  0
  4  9  2  0
  4  3  1  0
  5  4  1  0
  6  7  1  0
  6  5  2  0
  7  8  2  0
  8  9  1  0
 10  2  1  0
 10 11  2  0
 12 13  1  0
 12 10  1  0
 13 14  1  6
 15 14  1  0
 16 17  2  0
 16 13  1  0
 19 21  1  0
 19 18  1  0
 20 19  2  0
 22 21  1  1
 22 23  1  0
 23 16  1  0
 24 22  1  0
 24 26  1  0
 25 24  2  0
M  END
$$$$
