FCN.pdb
     RDKit          3D

 26 26  0  0  1  0  0  0  0  0999 V2000
    5.2375  -18.4447   21.2438 N   0  0  0  0  0  0  0  0  0  0  0  0
    5.1287  -17.8829   22.5503 C   0  0  1  0  0  0  0  0  0  0  0  0
    4.5326  -18.7676   23.5940 C   0  0  0  0  0  0  0  0  0  0  0  0
    3.2710  -19.3403   23.0601 C   0  0  0  0  0  0  0  0  0  0  0  0
    3.1892  -20.6586   22.6582 C   0  0  0  0  0  0  0  0  0  0  0  0
    2.0349  -21.2085   22.1528 C   0  0  0  0  0  0  0  0  0  0  0  0
    0.9144  -20.4215   22.0390 C   0  0  0  0  0  0  0  0  0  0  0  0
    0.9529  -19.0881   22.4316 C   0  0  0  0  0  0  0  0  0  0  0  0
    2.1404  -18.5623   22.9414 C   0  0  0  0  0  0  0  0  0  0  0  0
    6.4083  -17.2356   22.9707 C   0  0  0  0  0  0  0  0  0  0  0  0
    7.4587  -17.6061   22.3976 O   0  0  0  0  0  0  0  0  0  0  0  0
    6.4779  -16.2487   23.9622 N   0  0  0  0  0  0  0  0  0  0  0  0
    7.6682  -15.6152   24.4220 C   0  0  1  0  0  0  0  0  0  0  0  0
    7.4129  -14.2580   25.0384 C   0  0  0  0  0  0  0  0  0  0  0  0
    5.9253  -14.3410   26.1025 S   0  0  0  0  0  0  0  0  0  0  0  0
    8.3275  -16.4565   25.4750 C   0  0  0  0  0  0  0  0  0  0  0  0
    7.6785  -17.3561   26.0561 O   0  0  0  0  0  0  0  0  0  0  0  0
   12.4958  -19.4673   25.7449 N   0  0  0  0  0  0  0  0  0  0  0  0
   11.8571  -18.9870   24.5752 C   0  0  0  0  0  0  0  0  0  0  0  0
   12.1423  -19.5233   23.4685 O   0  0  0  0  0  0  0  0  0  0  0  0
   10.8914  -17.9029   24.6397 C   0  0  0  0  0  0  0  0  0  0  0  0
   10.6509  -17.3392   26.0202 C   0  0  2  0  0  0  0  0  0  0  0  0
    9.6788  -16.2676   25.8438 N   0  0  0  0  0  0  0  0  0  0  0  0
   11.9725  -16.7534   26.4578 C   0  0  0  0  0  0  0  0  0  0  0  0
   12.5728  -15.9753   25.6767 O   0  0  0  0  0  0  0  0  0  0  0  0
   12.5296  -17.0483   27.6756 O   0  0  0  0  0  0  0  0  0  0  0  0
  2  1  1  6
  3  2  1  0
  4  9  2  0
  4  3  1  0
  5  4  1  0
  6  7  1  0
  6  5  2  0
  7  8  2  0
  8  9  1  0
 10  2  1  0
 10 11  2  0
 12 13  1  0
 12 10  1  0
 13 14  1  1
 15 14  1  0
 16 17  2  0
 16 13  1  0
 19 21  1  0
 19 18  1  0
 20 19  2  0
 22 21  1  6
 22 23  1  0
 23 16  1  0
 24 22  1  0
 24 26  1  0
 25 24  2  0
M  END
$$$$
