FQI.pdb
     RDKit          3D

 29 29  0  0  1  0  0  0  0  0999 V2000
    7.6612  -18.0411   19.0495 N   0  0  0  0  0  0  0  0  0  0  0  0
    7.9706  -16.8364   19.7500 C   0  0  1  0  0  0  0  0  0  0  0  0
    6.9519  -15.7411   19.5123 C   0  0  0  0  0  0  0  0  0  0  0  0
    7.1805  -14.5627   20.3805 C   0  0  0  0  0  0  0  0  0  0  0  0
    7.9101  -13.4858   19.9161 C   0  0  0  0  0  0  0  0  0  0  0  0
    8.1494  -12.3671   20.6863 C   0  0  0  0  0  0  0  0  0  0  0  0
    7.6567  -12.2873   21.9723 C   0  0  0  0  0  0  0  0  0  0  0  0
    6.9278  -13.3625   22.4370 C   0  0  0  0  0  0  0  0  0  0  0  0
    6.6875  -14.4811   21.6694 C   0  0  0  0  0  0  0  0  0  0  0  0
    8.0855  -17.0195   21.2194 C   0  0  0  0  0  0  0  0  0  0  0  0
    7.1164  -17.5837   21.7859 O   0  0  0  0  0  0  0  0  0  0  0  0
   11.8223  -20.8450   23.5369 N   0  0  0  0  0  0  0  0  0  0  0  0
   11.7563  -19.8687   24.5850 C   0  0  0  0  0  0  0  0  0  0  0  0
   12.6413  -19.9149   25.4502 O   0  0  0  0  0  0  0  0  0  0  0  0
   10.6638  -18.8673   24.5991 C   0  0  0  0  0  0  0  0  0  0  0  0
   10.4029  -18.2204   23.2831 C   0  0  0  0  0  0  0  0  0  0  0  0
    9.3423  -17.1517   23.3369 C   0  0  2  0  0  0  0  0  0  0  0  0
    9.1826  -16.6081   21.9759 N   0  0  0  0  0  0  0  0  0  0  0  0
    9.6405  -16.0041   24.1899 C   0  0  0  0  0  0  0  0  0  0  0  0
   10.6005  -15.2129   23.8573 O   0  0  0  0  0  0  0  0  0  0  0  0
    6.3258  -12.3472   25.7683 C   0  0  0  0  0  0  0  0  0  0  0  0
    7.5473  -13.1188   25.3156 C   0  0  0  0  0  0  0  0  0  0  0  0
    8.2885  -13.5829   26.5505 C   0  0  2  0  0  0  0  0  0  0  0  0
    8.7708  -12.4468   27.3951 C   0  0  0  0  0  0  0  0  0  0  0  0
    9.4235  -14.5190   26.1983 C   0  0  2  0  0  0  0  0  0  0  0  0
    8.9880  -15.6224   25.3820 N   0  0  0  0  0  0  0  0  0  0  0  0
   10.0156  -15.0444   27.4451 C   0  0  0  0  0  0  0  0  0  0  0  0
    9.6215  -16.1434   27.8948 O   0  0  0  0  0  0  0  0  0  0  0  0
   11.0073  -14.3460   28.1392 O   0  0  0  0  0  0  0  0  0  0  0  0
  2  3  1  0
  2  1  1  6
  4  3  1  0
  4  9  2  0
  5  4  1  0
  6  5  2  0
  6  7  1  0
  7  8  2  0
  8  9  1  0
 10  2  1  0
 11 10  2  0
 12 13  1  0
 13 15  1  0
 14 13  2  0
 16 15  1  0
 17 16  1  6
 17 18  1  0
 18 10  1  0
 19 17  1  0
 19 20  2  0
 21 22  1  0
 22 23  1  0
 23 25  1  0
 23 24  1  6
 25 26  1  6
 26 19  1  0
 27 25  1  0
 28 27  2  0
 29 27  1  0
M  END
$$$$
