FQI.pdb
     RDKit          3D

 29 29  0  0  1  0  0  0  0  0999 V2000
    7.5619  -17.2665   19.9042 N   0  0  0  0  0  0  0  0  0  0  0  0
    7.8779  -16.2350   20.8390 C   0  0  1  0  0  0  0  0  0  0  0  0
    6.6517  -15.4987   21.3372 C   0  0  0  0  0  0  0  0  0  0  0  0
    7.0011  -14.2983   22.1321 C   0  0  0  0  0  0  0  0  0  0  0  0
    6.7570  -14.2670   23.4912 C   0  0  0  0  0  0  0  0  0  0  0  0
    7.0645  -13.1732   24.2729 C   0  0  0  0  0  0  0  0  0  0  0  0
    7.6379  -12.0522   23.7093 C   0  0  0  0  0  0  0  0  0  0  0  0
    7.8820  -12.0827   22.3518 C   0  0  0  0  0  0  0  0  0  0  0  0
    7.5756  -13.1742   21.5689 C   0  0  0  0  0  0  0  0  0  0  0  0
    8.6134  -16.7239   22.0331 C   0  0  0  0  0  0  0  0  0  0  0  0
    8.0216  -17.5793   22.7377 O   0  0  0  0  0  0  0  0  0  0  0  0
   13.0628  -20.0460   23.1775 N   0  0  0  0  0  0  0  0  0  0  0  0
   12.3879  -19.7675   21.9435 C   0  0  0  0  0  0  0  0  0  0  0  0
   12.3406  -20.6838   21.1115 O   0  0  0  0  0  0  0  0  0  0  0  0
   11.7880  -18.4325   21.7102 C   0  0  0  0  0  0  0  0  0  0  0  0
   11.9313  -17.4842   22.8498 C   0  0  0  0  0  0  0  0  0  0  0  0
   10.6153  -17.0445   23.4368 C   0  0  2  0  0  0  0  0  0  0  0  0
    9.8886  -16.2924   22.3977 N   0  0  0  0  0  0  0  0  0  0  0  0
   10.7013  -16.1490   24.5875 C   0  0  0  0  0  0  0  0  0  0  0  0
   11.5091  -15.1473   24.5389 O   0  0  0  0  0  0  0  0  0  0  0  0
    7.9654  -12.6525   26.9914 C   0  0  0  0  0  0  0  0  0  0  0  0
    9.1032  -13.5082   26.4763 C   0  0  0  0  0  0  0  0  0  0  0  0
    9.3862  -14.5771   27.5093 C   0  0  2  0  0  0  0  0  0  0  0  0
    9.7914  -14.0085   28.8319 C   0  0  0  0  0  0  0  0  0  0  0  0
   10.4075  -15.5755   27.0106 C   0  0  2  0  0  0  0  0  0  0  0  0
    9.9841  -16.2313   25.8006 N   0  0  0  0  0  0  0  0  0  0  0  0
   10.6345  -16.5922   28.0574 C   0  0  0  0  0  0  0  0  0  0  0  0
   11.3206  -16.2958   29.0607 O   0  0  0  0  0  0  0  0  0  0  0  0
   10.1025  -17.8807   27.9584 O   0  0  0  0  0  0  0  0  0  0  0  0
  2  3  1  0
  2  1  1  6
  4  3  1  0
  4  9  2  0
  5  4  1  0
  6  5  2  0
  6  7  1  0
  7  8  2  0
  8  9  1  0
 10  2  1  0
 11 10  2  0
 12 13  1  0
 13 15  1  0
 14 13  2  0
 16 15  1  0
 17 16  1  6
 17 18  1  0
 18 10  1  0
 19 17  1  0
 19 20  2  0
 21 22  1  0
 22 23  1  0
 23 25  1  0
 23 24  1  1
 25 26  1  6
 26 19  1  0
 27 25  1  0
 28 27  2  0
 29 27  1  0
M  END
$$$$
