FQI.pdb
     RDKit          3D

 29 29  0  0  1  0  0  0  0  0999 V2000
    5.5164  -17.0708   19.9862 N   0  0  0  0  0  0  0  0  0  0  0  0
    6.4036  -16.4397   20.9094 C   0  0  1  0  0  0  0  0  0  0  0  0
    6.2717  -14.9309   20.9121 C   0  0  0  0  0  0  0  0  0  0  0  0
    7.2508  -14.2794   20.0111 C   0  0  0  0  0  0  0  0  0  0  0  0
    8.5164  -13.9659   20.4670 C   0  0  0  0  0  0  0  0  0  0  0  0
    9.4618  -13.3596   19.6667 C   0  0  0  0  0  0  0  0  0  0  0  0
    9.1662  -13.0405   18.3575 C   0  0  0  0  0  0  0  0  0  0  0  0
    7.9023  -13.3532   17.9014 C   0  0  0  0  0  0  0  0  0  0  0  0
    6.9563  -13.9589   18.6991 C   0  0  0  0  0  0  0  0  0  0  0  0
    6.2249  -16.8998   22.3102 C   0  0  0  0  0  0  0  0  0  0  0  0
    5.0612  -16.8192   22.7767 O   0  0  0  0  0  0  0  0  0  0  0  0
    8.7713  -20.4156   28.0673 N   0  0  0  0  0  0  0  0  0  0  0  0
    7.8553  -20.3556   26.9657 C   0  0  0  0  0  0  0  0  0  0  0  0
    7.5244  -21.4333   26.4529 O   0  0  0  0  0  0  0  0  0  0  0  0
    7.3505  -19.0457   26.4904 C   0  0  0  0  0  0  0  0  0  0  0  0
    7.4003  -18.8647   25.0129 C   0  0  0  0  0  0  0  0  0  0  0  0
    7.0455  -17.4708   24.5644 C   0  0  2  0  0  0  0  0  0  0  0  0
    7.2543  -17.4009   23.1067 N   0  0  0  0  0  0  0  0  0  0  0  0
    7.8549  -16.3960   25.1329 C   0  0  0  0  0  0  0  0  0  0  0  0
    8.9864  -16.1122   24.5874 O   0  0  0  0  0  0  0  0  0  0  0  0
    5.8619  -11.7418   26.8006 C   0  0  0  0  0  0  0  0  0  0  0  0
    6.7589  -12.7755   26.1533 C   0  0  0  0  0  0  0  0  0  0  0  0
    7.6687  -13.3378   27.2237 C   0  0  2  0  0  0  0  0  0  0  0  0
    8.5999  -12.3119   27.7868 C   0  0  0  0  0  0  0  0  0  0  0  0
    8.4286  -14.5482   26.7277 C   0  0  2  0  0  0  0  0  0  0  0  0
    7.5515  -15.5843   26.2473 N   0  0  0  0  0  0  0  0  0  0  0  0
    9.2500  -15.0838   27.8319 C   0  0  0  0  0  0  0  0  0  0  0  0
    8.7846  -15.9904   28.5577 O   0  0  0  0  0  0  0  0  0  0  0  0
   10.5373  -14.6048   28.0899 O   0  0  0  0  0  0  0  0  0  0  0  0
  2  3  1  0
  2  1  1  6
  4  3  1  0
  4  9  2  0
  5  4  1  0
  6  5  2  0
  6  7  1  0
  7  8  2  0
  8  9  1  0
 10  2  1  0
 11 10  2  0
 12 13  1  0
 13 15  1  0
 14 13  2  0
 16 15  1  0
 17 16  1  1
 17 18  1  0
 18 10  1  0
 19 17  1  0
 19 20  2  0
 21 22  1  0
 22 23  1  0
 23 25  1  0
 23 24  1  6
 25 26  1  1
 26 19  1  0
 27 25  1  0
 28 27  2  0
 29 27  1  0
M  END
$$$$
