FQI.pdb
     RDKit          3D

 29 29  0  0  1  0  0  0  0  0999 V2000
    7.2211  -15.4988   20.4629 N   0  0  0  0  0  0  0  0  0  0  0  0
    7.4563  -14.9262   21.7491 C   0  0  1  0  0  0  0  0  0  0  0  0
    6.4879  -13.8097   22.0804 C   0  0  0  0  0  0  0  0  0  0  0  0
    6.6639  -13.3043   23.4619 C   0  0  0  0  0  0  0  0  0  0  0  0
    7.5896  -13.8877   24.3049 C   0  0  0  0  0  0  0  0  0  0  0  0
    7.7895  -13.4528   25.5982 C   0  0  0  0  0  0  0  0  0  0  0  0
    7.0552  -12.3987   26.1010 C   0  0  0  0  0  0  0  0  0  0  0  0
    6.1304  -11.8154   25.2596 C   0  0  0  0  0  0  0  0  0  0  0  0
    5.9289  -12.2482   23.9672 C   0  0  0  0  0  0  0  0  0  0  0  0
    7.3869  -15.9125   22.8574 C   0  0  0  0  0  0  0  0  0  0  0  0
    6.2485  -16.3759   23.1176 O   0  0  0  0  0  0  0  0  0  0  0  0
    5.9402  -20.5628   23.9830 N   0  0  0  0  0  0  0  0  0  0  0  0
    6.7897  -20.4248   25.1299 C   0  0  0  0  0  0  0  0  0  0  0  0
    6.3439  -20.8355   26.2100 O   0  0  0  0  0  0  0  0  0  0  0  0
    8.1323  -19.8128   24.9900 C   0  0  0  0  0  0  0  0  0  0  0  0
    8.1993  -18.6887   24.0152 C   0  0  0  0  0  0  0  0  0  0  0  0
    8.2808  -17.3319   24.6649 C   0  0  2  0  0  0  0  0  0  0  0  0
    8.4899  -16.3351   23.5991 N   0  0  0  0  0  0  0  0  0  0  0  0
    9.3823  -17.1438   25.6055 C   0  0  0  0  0  0  0  0  0  0  0  0
   10.5909  -17.1581   25.1611 O   0  0  0  0  0  0  0  0  0  0  0  0
   10.0711  -12.9610   28.4804 C   0  0  0  0  0  0  0  0  0  0  0  0
   10.2498  -14.2094   27.6428 C   0  0  0  0  0  0  0  0  0  0  0  0
   10.3578  -15.3896   28.5837 C   0  0  2  0  0  0  0  0  0  0  0  0
   11.4824  -15.2486   29.5594 C   0  0  0  0  0  0  0  0  0  0  0  0
   10.4544  -16.6963   27.8274 C   0  0  2  0  0  0  0  0  0  0  0  0
    9.3008  -16.9342   26.9991 N   0  0  0  0  0  0  0  0  0  0  0  0
   10.5896  -17.8020   28.7969 C   0  0  0  0  0  0  0  0  0  0  0  0
    9.5668  -18.4192   29.1688 O   0  0  0  0  0  0  0  0  0  0  0  0
   11.8324  -18.1798   29.3125 O   0  0  0  0  0  0  0  0  0  0  0  0
  2  3  1  0
  2  1  1  6
  4  3  1  0
  4  9  2  0
  5  4  1  0
  6  5  2  0
  6  7  1  0
  7  8  2  0
  8  9  1  0
 10  2  1  0
 11 10  2  0
 12 13  1  0
 13 15  1  0
 14 13  2  0
 16 15  1  0
 17 16  1  6
 17 18  1  0
 18 10  1  0
 19 17  1  0
 19 20  2  0
 21 22  1  0
 22 23  1  0
 23 25  1  0
 23 24  1  6
 25 26  1  1
 26 19  1  0
 27 25  1  0
 28 27  2  0
 29 27  1  0
M  END
$$$$
