FQI.pdb
     RDKit          3D

 29 29  0  0  1  0  0  0  0  0999 V2000
    5.4827  -16.9923   23.6846 N   0  0  0  0  0  0  0  0  0  0  0  0
    6.5845  -16.2327   24.1811 C   0  0  1  0  0  0  0  0  0  0  0  0
    6.2840  -15.5584   25.5036 C   0  0  0  0  0  0  0  0  0  0  0  0
    6.4158  -14.0848   25.4261 C   0  0  0  0  0  0  0  0  0  0  0  0
    7.2346  -13.5073   24.4754 C   0  0  0  0  0  0  0  0  0  0  0  0
    7.3896  -12.1415   24.3641 C   0  0  0  0  0  0  0  0  0  0  0  0
    6.7171  -11.2914   25.2173 C   0  0  0  0  0  0  0  0  0  0  0  0
    5.8991  -11.8674   26.1672 C   0  0  0  0  0  0  0  0  0  0  0  0
    5.7426  -13.2315   26.2803 C   0  0  0  0  0  0  0  0  0  0  0  0
    7.8204  -17.0352   24.3669 C   0  0  0  0  0  0  0  0  0  0  0  0
    7.7386  -18.0042   25.1624 O   0  0  0  0  0  0  0  0  0  0  0  0
   13.3904  -19.6081   21.1012 N   0  0  0  0  0  0  0  0  0  0  0  0
   13.2722  -18.4259   21.9040 C   0  0  0  0  0  0  0  0  0  0  0  0
   13.9630  -17.4526   21.5731 O   0  0  0  0  0  0  0  0  0  0  0  0
   12.3561  -18.4080   23.0689 C   0  0  0  0  0  0  0  0  0  0  0  0
   11.0865  -17.6625   22.8438 C   0  0  0  0  0  0  0  0  0  0  0  0
   10.2018  -17.5979   24.0616 C   0  0  2  0  0  0  0  0  0  0  0  0
    9.0284  -16.7727   23.7213 N   0  0  0  0  0  0  0  0  0  0  0  0
   10.7938  -16.9772   25.2438 C   0  0  0  0  0  0  0  0  0  0  0  0
   11.1380  -15.7374   25.1908 O   0  0  0  0  0  0  0  0  0  0  0  0
    9.3995  -13.7846   28.0196 C   0  0  0  0  0  0  0  0  0  0  0  0
   10.4217  -14.6761   27.3469 C   0  0  0  0  0  0  0  0  0  0  0  0
   10.6327  -15.8887   28.2272 C   0  0  2  0  0  0  0  0  0  0  0  0
   11.0378  -15.5268   29.6205 C   0  0  0  0  0  0  0  0  0  0  0  0
   11.6151  -16.8594   27.6098 C   0  0  2  0  0  0  0  0  0  0  0  0
   11.0485  -17.5758   26.4966 N   0  0  0  0  0  0  0  0  0  0  0  0
   12.0437  -17.8272   28.6397 C   0  0  0  0  0  0  0  0  0  0  0  0
   11.4676  -18.9352   28.7166 O   0  0  0  0  0  0  0  0  0  0  0  0
   13.0783  -17.5393   29.5339 O   0  0  0  0  0  0  0  0  0  0  0  0
  2  3  1  0
  2  1  1  1
  4  3  1  0
  4  9  2  0
  5  4  1  0
  6  5  2  0
  6  7  1  0
  7  8  2  0
  8  9  1  0
 10  2  1  0
 11 10  2  0
 12 13  1  0
 13 15  1  0
 14 13  2  0
 16 15  1  0
 17 16  1  6
 17 18  1  0
 18 10  1  0
 19 17  1  0
 19 20  2  0
 21 22  1  0
 22 23  1  0
 23 25  1  0
 23 24  1  1
 25 26  1  6
 26 19  1  0
 27 25  1  0
 28 27  2  0
 29 27  1  0
M  END
$$$$
