FQI.pdb
     RDKit          3D

 29 29  0  0  1  0  0  0  0  0999 V2000
    7.1537  -18.0223   19.7354 N   0  0  0  0  0  0  0  0  0  0  0  0
    7.6256  -16.8828   20.4541 C   0  0  1  0  0  0  0  0  0  0  0  0
    6.5774  -15.7978   20.5879 C   0  0  0  0  0  0  0  0  0  0  0  0
    7.1686  -14.4395   20.5693 C   0  0  0  0  0  0  0  0  0  0  0  0
    7.2895  -13.7158   21.7395 C   0  0  0  0  0  0  0  0  0  0  0  0
    7.8327  -12.4487   21.7728 C   0  0  0  0  0  0  0  0  0  0  0  0
    8.2821  -11.8518   20.6131 C   0  0  0  0  0  0  0  0  0  0  0  0
    8.1618  -12.5740   19.4438 C   0  0  0  0  0  0  0  0  0  0  0  0
    7.6194  -13.8400   19.4082 C   0  0  0  0  0  0  0  0  0  0  0  0
    8.1045  -17.2036   21.8230 C   0  0  0  0  0  0  0  0  0  0  0  0
    7.3046  -17.8361   22.5568 O   0  0  0  0  0  0  0  0  0  0  0  0
   12.5551  -20.8380   23.9304 N   0  0  0  0  0  0  0  0  0  0  0  0
   12.1081  -20.1616   22.7477 C   0  0  0  0  0  0  0  0  0  0  0  0
   12.7909  -20.3106   21.7251 O   0  0  0  0  0  0  0  0  0  0  0  0
   10.8816  -19.3305   22.7864 C   0  0  0  0  0  0  0  0  0  0  0  0
   11.0158  -18.0687   23.5664 C   0  0  0  0  0  0  0  0  0  0  0  0
    9.7322  -17.2872   23.6735 C   0  0  2  0  0  0  0  0  0  0  0  0
    9.3593  -16.8475   22.3166 N   0  0  0  0  0  0  0  0  0  0  0  0
    9.7948  -16.0718   24.4811 C   0  0  0  0  0  0  0  0  0  0  0  0
   10.5459  -15.1016   24.0903 O   0  0  0  0  0  0  0  0  0  0  0  0
    6.2305  -12.7274   26.2644 C   0  0  0  0  0  0  0  0  0  0  0  0
    7.4721  -13.4348   25.7642 C   0  0  0  0  0  0  0  0  0  0  0  0
    8.2667  -13.8882   26.9696 C   0  0  2  0  0  0  0  0  0  0  0  0
    8.6717  -12.7524   27.8542 C   0  0  0  0  0  0  0  0  0  0  0  0
    9.4660  -14.7168   26.5649 C   0  0  2  0  0  0  0  0  0  0  0  0
    9.1097  -15.7995   25.6850 N   0  0  0  0  0  0  0  0  0  0  0  0
   10.0983  -15.2695   27.7797 C   0  0  0  0  0  0  0  0  0  0  0  0
    9.7684  -16.4088   28.1779 O   0  0  0  0  0  0  0  0  0  0  0  0
   11.0583  -14.5532   28.4997 O   0  0  0  0  0  0  0  0  0  0  0  0
  2  3  1  0
  2  1  1  1
  4  3  1  0
  4  9  2  0
  5  4  1  0
  6  5  2  0
  6  7  1  0
  7  8  2  0
  8  9  1  0
 10  2  1  0
 11 10  2  0
 12 13  1  0
 13 15  1  0
 14 13  2  0
 16 15  1  0
 17 16  1  6
 17 18  1  0
 18 10  1  0
 19 17  1  0
 19 20  2  0
 21 22  1  0
 22 23  1  0
 23 25  1  0
 23 24  1  6
 25 26  1  6
 26 19  1  0
 27 25  1  0
 28 27  2  0
 29 27  1  0
M  END
$$$$
