FQI.pdb
     RDKit          3D

 29 29  0  0  1  0  0  0  0  0999 V2000
    5.7817  -17.8913   23.9909 N   0  0  0  0  0  0  0  0  0  0  0  0
    6.5874  -16.7213   24.1301 C   0  0  1  0  0  0  0  0  0  0  0  0
    6.3553  -16.0015   25.4423 C   0  0  0  0  0  0  0  0  0  0  0  0
    6.4212  -14.5288   25.2951 C   0  0  0  0  0  0  0  0  0  0  0  0
    5.4445  -13.7280   25.8542 C   0  0  0  0  0  0  0  0  0  0  0  0
    5.4627  -12.3534   25.7443 C   0  0  0  0  0  0  0  0  0  0  0  0
    6.4790  -11.7220   25.0576 C   0  0  0  0  0  0  0  0  0  0  0  0
    7.4550  -12.5211   24.4989 C   0  0  0  0  0  0  0  0  0  0  0  0
    7.4389  -13.8945   24.6074 C   0  0  0  0  0  0  0  0  0  0  0  0
    8.0444  -16.9908   24.0275 C   0  0  0  0  0  0  0  0  0  0  0  0
    8.4399  -18.0885   24.4933 O   0  0  0  0  0  0  0  0  0  0  0  0
   13.8877  -15.9967   19.7978 N   0  0  0  0  0  0  0  0  0  0  0  0
   12.9601  -15.3856   20.7045 C   0  0  0  0  0  0  0  0  0  0  0  0
   12.7226  -14.1818   20.5363 O   0  0  0  0  0  0  0  0  0  0  0  0
   12.3355  -16.1897   21.7815 C   0  0  0  0  0  0  0  0  0  0  0  0
   10.9434  -15.7861   22.1244 C   0  0  0  0  0  0  0  0  0  0  0  0
   10.3520  -16.5721   23.2656 C   0  0  2  0  0  0  0  0  0  0  0  0
    8.9647  -16.1116   23.4571 N   0  0  0  0  0  0  0  0  0  0  0  0
   11.0082  -16.4034   24.5596 C   0  0  0  0  0  0  0  0  0  0  0  0
   12.2358  -16.7700   24.6886 O   0  0  0  0  0  0  0  0  0  0  0  0
    9.1868  -12.9504   28.6139 C   0  0  0  0  0  0  0  0  0  0  0  0
   10.0060  -13.6100   27.5248 C   0  0  0  0  0  0  0  0  0  0  0  0
   10.4367  -14.9711   28.0263 C   0  0  2  0  0  0  0  0  0  0  0  0
   11.2124  -14.8969   29.3028 C   0  0  0  0  0  0  0  0  0  0  0  0
   11.2013  -15.7366   26.9689 C   0  0  2  0  0  0  0  0  0  0  0  0
   10.4577  -15.8642   25.7424 N   0  0  0  0  0  0  0  0  0  0  0  0
   11.5157  -17.0837   27.4859 C   0  0  0  0  0  0  0  0  0  0  0  0
   10.5955  -17.9222   27.6106 O   0  0  0  0  0  0  0  0  0  0  0  0
   12.8168  -17.4497   27.8411 O   0  0  0  0  0  0  0  0  0  0  0  0
  2  3  1  0
  2  1  1  1
  4  3  1  0
  4  9  2  0
  5  4  1  0
  6  5  2  0
  6  7  1  0
  7  8  2  0
  8  9  1  0
 10  2  1  0
 11 10  2  0
 12 13  1  0
 13 15  1  0
 14 13  2  0
 16 15  1  0
 17 16  1  6
 17 18  1  0
 18 10  1  0
 19 17  1  0
 19 20  2  0
 21 22  1  0
 22 23  1  0
 23 25  1  0
 23 24  1  1
 25 26  1  6
 26 19  1  0
 27 25  1  0
 28 27  2  0
 29 27  1  0
M  END
$$$$
