ESN.pdb
     RDKit          3D

 24 23  0  0  1  0  0  0  0  0999 V2000
    8.9014  -13.0128   17.5766 N   0  0  0  0  0  0  0  0  0  0  0  0
    9.1871  -14.2404   18.2472 C   0  0  1  0  0  0  0  0  0  0  0  0
   10.5771  -14.6791   17.9609 C   0  0  0  0  0  0  0  0  0  0  0  0
   11.6665  -13.7949   18.4560 C   0  0  0  0  0  0  0  0  0  0  0  0
   13.0234  -14.2783   18.1775 C   0  0  0  0  0  0  0  0  0  0  0  0
   13.9804  -13.9630   18.9124 O   0  0  0  0  0  0  0  0  0  0  0  0
    9.0023  -14.1281   19.7315 C   0  0  0  0  0  0  0  0  0  0  0  0
    9.3911  -13.0755   20.3007 O   0  0  0  0  0  0  0  0  0  0  0  0
   13.2853  -15.1037   17.0849 O   0  0  0  0  0  0  0  0  0  0  0  0
    6.5488  -16.6685   21.6578 O   0  0  0  0  0  0  0  0  0  0  0  0
    6.7764  -15.3831   22.1759 C   0  0  0  0  0  0  0  0  0  0  0  0
    8.2450  -15.0610   21.8657 C   0  0  2  0  0  0  0  0  0  0  0  0
    8.4026  -15.1927   20.4552 N   0  0  0  0  0  0  0  0  0  0  0  0
    9.0859  -15.9791   22.6534 C   0  0  0  0  0  0  0  0  0  0  0  0
    9.6140  -16.9732   22.0954 O   0  0  0  0  0  0  0  0  0  0  0  0
    8.6268  -14.6936   26.8017 N   0  0  0  0  0  0  0  0  0  0  0  0
    9.3769  -15.8724   27.0314 C   0  0  0  0  0  0  0  0  0  0  0  0
    9.0641  -16.6057   28.0003 O   0  0  0  0  0  0  0  0  0  0  0  0
   10.5166  -16.2766   26.1751 C   0  0  0  0  0  0  0  0  0  0  0  0
   10.0943  -16.7560   24.8287 C   0  0  2  0  0  0  0  0  0  0  0  0
    9.3541  -15.8152   24.0558 N   0  0  0  0  0  0  0  0  0  0  0  0
    9.3995  -18.0738   24.9517 C   0  0  0  0  0  0  0  0  0  0  0  0
   10.1088  -19.1082   25.5424 O   0  0  0  0  0  0  0  0  0  0  0  0
    8.2467  -18.2793   24.5597 O   0  0  0  0  0  0  0  0  0  0  0  0
  2  1  1  6
  3  2  1  0
  3  4  1  0
  4  5  1  0
  5  6  2  0
  5  9  1  0
  7  2  1  0
  7  8  2  0
 10 11  1  0
 12 11  1  6
 12 13  1  0
 13  7  1  0
 14 12  1  0
 15 14  2  0
 17 16  1  0
 17 18  2  0
 20 19  1  1
 19 17  1  0
 20 21  1  0
 21 14  1  0
 22 20  1  0
 23 22  1  0
 24 22  2  0
M  END
$$$$
