ESN.pdb
     RDKit          3D

 24 23  0  0  1  0  0  0  0  0999 V2000
    8.2890  -12.4878   18.1030 N   0  0  0  0  0  0  0  0  0  0  0  0
    9.1019  -13.6064   18.4579 C   0  0  1  0  0  0  0  0  0  0  0  0
   10.5319  -13.3224   18.1732 C   0  0  0  0  0  0  0  0  0  0  0  0
   11.4959  -14.4179   18.4635 C   0  0  0  0  0  0  0  0  0  0  0  0
   12.8743  -14.1512   18.0379 C   0  0  0  0  0  0  0  0  0  0  0  0
   13.7869  -14.0022   18.8747 O   0  0  0  0  0  0  0  0  0  0  0  0
    8.9520  -13.9760   19.9038 C   0  0  0  0  0  0  0  0  0  0  0  0
    9.1269  -13.0783   20.7678 O   0  0  0  0  0  0  0  0  0  0  0  0
   13.2069  -14.0559   16.6873 O   0  0  0  0  0  0  0  0  0  0  0  0
    7.5016  -17.6288   20.9141 O   0  0  0  0  0  0  0  0  0  0  0  0
    7.2649  -16.5442   21.7744 C   0  0  0  0  0  0  0  0  0  0  0  0
    8.4945  -15.6338   21.6478 C   0  0  2  0  0  0  0  0  0  0  0  0
    8.6212  -15.3088   20.2657 N   0  0  0  0  0  0  0  0  0  0  0  0
    9.6517  -16.3559   22.2046 C   0  0  0  0  0  0  0  0  0  0  0  0
   10.6735  -16.5351   21.4958 O   0  0  0  0  0  0  0  0  0  0  0  0
   13.8604  -18.7289   23.9490 N   0  0  0  0  0  0  0  0  0  0  0  0
   13.2510  -17.6091   24.5650 C   0  0  0  0  0  0  0  0  0  0  0  0
   13.6825  -17.2263   25.6794 O   0  0  0  0  0  0  0  0  0  0  0  0
   12.1245  -16.8698   23.9486 C   0  0  0  0  0  0  0  0  0  0  0  0
   10.8220  -17.5840   24.0685 C   0  0  2  0  0  0  0  0  0  0  0  0
    9.6980  -16.8860   23.5396 N   0  0  0  0  0  0  0  0  0  0  0  0
   10.6122  -18.0279   25.4804 C   0  0  0  0  0  0  0  0  0  0  0  0
    9.4431  -17.6189   26.1031 O   0  0  0  0  0  0  0  0  0  0  0  0
   11.4155  -18.7276   26.1047 O   0  0  0  0  0  0  0  0  0  0  0  0
  2  1  1  1
  3  2  1  0
  3  4  1  0
  4  5  1  0
  5  6  2  0
  5  9  1  0
  7  2  1  0
  7  8  2  0
 10 11  1  0
 12 11  1  6
 12 13  1  0
 13  7  1  0
 14 12  1  0
 15 14  2  0
 17 16  1  0
 17 18  2  0
 20 19  1  1
 19 17  1  0
 20 21  1  0
 21 14  1  0
 22 20  1  0
 23 22  1  0
 24 22  2  0
M  END
$$$$
