ESN.pdb
     RDKit          3D

 24 23  0  0  1  0  0  0  0  0999 V2000
   -6.8015  -26.1129   24.5386 N   0  0  0  0  0  0  0  0  0  0  0  0
   -5.8645  -25.4707   25.4034 C   0  0  1  0  0  0  0  0  0  0  0  0
   -4.7732  -24.8431   24.6149 C   0  0  0  0  0  0  0  0  0  0  0  0
   -4.7962  -25.0796   23.1462 C   0  0  0  0  0  0  0  0  0  0  0  0
   -3.7249  -24.4104   22.4000 C   0  0  0  0  0  0  0  0  0  0  0  0
   -3.5960  -23.1704   22.4354 O   0  0  0  0  0  0  0  0  0  0  0  0
   -6.5141  -24.4267   26.2625 C   0  0  0  0  0  0  0  0  0  0  0  0
   -5.7960  -23.8060   27.0885 O   0  0  0  0  0  0  0  0  0  0  0  0
   -2.8189  -25.1378   21.6294 O   0  0  0  0  0  0  0  0  0  0  0  0
  -10.4050  -21.8779   27.2598 O   0  0  0  0  0  0  0  0  0  0  0  0
   -9.8981  -22.9159   26.4610 C   0  0  0  0  0  0  0  0  0  0  0  0
   -8.5190  -23.2565   27.0433 C   0  0  2  0  0  0  0  0  0  0  0  0
   -7.9030  -24.1619   26.1309 N   0  0  0  0  0  0  0  0  0  0  0  0
   -8.7217  -23.8085   28.3941 C   0  0  0  0  0  0  0  0  0  0  0  0
   -8.3767  -24.9909   28.6417 O   0  0  0  0  0  0  0  0  0  0  0  0
   -7.5780  -25.2874   33.6107 N   0  0  0  0  0  0  0  0  0  0  0  0
   -8.5925  -24.7766   32.7653 C   0  0  0  0  0  0  0  0  0  0  0  0
   -9.7868  -24.8569   33.1420 O   0  0  0  0  0  0  0  0  0  0  0  0
   -8.3030  -24.1508   31.4538 C   0  0  0  0  0  0  0  0  0  0  0  0
   -9.5213  -23.6228   30.7770 C   0  0  2  0  0  0  0  0  0  0  0  0
   -9.3028  -23.0705   29.4818 N   0  0  0  0  0  0  0  0  0  0  0  0
  -10.2447  -22.6846   31.6887 C   0  0  0  0  0  0  0  0  0  0  0  0
  -11.1818  -23.2371   32.5480 O   0  0  0  0  0  0  0  0  0  0  0  0
  -10.0500  -21.4655   31.7113 O   0  0  0  0  0  0  0  0  0  0  0  0
  2  1  1  6
  3  2  1  0
  3  4  1  0
  4  5  1  0
  5  6  2  0
  5  9  1  0
  7  2  1  0
  7  8  2  0
 10 11  1  0
 12 11  1  6
 12 13  1  0
 13  7  1  0
 14 12  1  0
 15 14  2  0
 17 16  1  0
 17 18  2  0
 20 19  1  1
 19 17  1  0
 20 21  1  0
 21 14  1  0
 22 20  1  0
 23 22  1  0
 24 22  2  0
M  END
$$$$
