ESN.pdb
     RDKit          3D

 24 23  0  0  1  0  0  0  0  0999 V2000
   11.0781  -18.3417   16.0037 N   0  0  0  0  0  0  0  0  0  0  0  0
   11.7556  -18.8784   17.1400 C   0  0  1  0  0  0  0  0  0  0  0  0
   13.1467  -19.2598   16.7849 C   0  0  0  0  0  0  0  0  0  0  0  0
   13.9627  -19.8731   17.8673 C   0  0  0  0  0  0  0  0  0  0  0  0
   15.3145  -20.2754   17.4637 C   0  0  0  0  0  0  0  0  0  0  0  0
   16.3082  -19.9669   18.1514 O   0  0  0  0  0  0  0  0  0  0  0  0
   11.7878  -17.9112   18.2860 C   0  0  0  0  0  0  0  0  0  0  0  0
   12.7744  -17.1364   18.3819 O   0  0  0  0  0  0  0  0  0  0  0  0
   15.5308  -21.0137   16.3010 O   0  0  0  0  0  0  0  0  0  0  0  0
    9.1599  -18.2685   21.4043 O   0  0  0  0  0  0  0  0  0  0  0  0
    9.4024  -16.9563   20.9663 C   0  0  0  0  0  0  0  0  0  0  0  0
   10.7961  -16.9808   20.3230 C   0  0  2  0  0  0  0  0  0  0  0  0
   10.7232  -17.8874   19.2256 N   0  0  0  0  0  0  0  0  0  0  0  0
   11.7669  -17.3691   21.3609 C   0  0  0  0  0  0  0  0  0  0  0  0
   12.6251  -18.2521   21.1114 O   0  0  0  0  0  0  0  0  0  0  0  0
   15.7454  -17.4057   24.5196 N   0  0  0  0  0  0  0  0  0  0  0  0
   15.4014  -16.3091   23.6925 C   0  0  0  0  0  0  0  0  0  0  0  0
   16.1309  -15.2883   23.7120 O   0  0  0  0  0  0  0  0  0  0  0  0
   14.2153  -16.3163   22.8044 C   0  0  0  0  0  0  0  0  0  0  0  0
   12.9740  -16.7726   23.4914 C   0  0  2  0  0  0  0  0  0  0  0  0
   11.8047  -16.7940   22.6774 N   0  0  0  0  0  0  0  0  0  0  0  0
   12.7801  -16.0026   24.7580 C   0  0  0  0  0  0  0  0  0  0  0  0
   11.5607  -15.3656   24.9285 O   0  0  0  0  0  0  0  0  0  0  0  0
   13.6382  -15.9098   25.6411 O   0  0  0  0  0  0  0  0  0  0  0  0
  2  1  1  6
  3  2  1  0
  3  4  1  0
  4  5  1  0
  5  6  2  0
  5  9  1  0
  7  2  1  0
  7  8  2  0
 10 11  1  0
 12 11  1  1
 12 13  1  0
 13  7  1  0
 14 12  1  0
 15 14  2  0
 17 16  1  0
 17 18  2  0
 20 19  1  6
 19 17  1  0
 20 21  1  0
 21 14  1  0
 22 20  1  0
 23 22  1  0
 24 22  2  0
M  END
$$$$
