ESN.pdb
     RDKit          3D

 24 23  0  0  1  0  0  0  0  0999 V2000
   12.4464  -17.7920   16.5871 N   0  0  0  0  0  0  0  0  0  0  0  0
   11.4826  -18.1668   17.5714 C   0  0  1  0  0  0  0  0  0  0  0  0
   11.5465  -19.6276   17.8333 C   0  0  0  0  0  0  0  0  0  0  0  0
   12.8701  -20.2786   17.6385 C   0  0  0  0  0  0  0  0  0  0  0  0
   12.8842  -21.7252   17.8824 C   0  0  0  0  0  0  0  0  0  0  0  0
   13.6401  -22.2241   18.7398 O   0  0  0  0  0  0  0  0  0  0  0  0
   11.6771  -17.4266   18.8614 C   0  0  0  0  0  0  0  0  0  0  0  0
   12.8294  -17.0012   19.1344 O   0  0  0  0  0  0  0  0  0  0  0  0
   12.0548  -22.5861   17.1649 O   0  0  0  0  0  0  0  0  0  0  0  0
    8.6149  -17.0830   21.6072 O   0  0  0  0  0  0  0  0  0  0  0  0
    9.4125  -15.9516   21.3702 C   0  0  0  0  0  0  0  0  0  0  0  0
   10.7847  -16.4895   20.9410 C   0  0  2  0  0  0  0  0  0  0  0  0
   10.5772  -17.2224   19.7361 N   0  0  0  0  0  0  0  0  0  0  0  0
   11.3222  -17.2959   22.0507 C   0  0  0  0  0  0  0  0  0  0  0  0
   11.5272  -18.5243   21.8852 O   0  0  0  0  0  0  0  0  0  0  0  0
   14.7858  -19.3965   23.6370 N   0  0  0  0  0  0  0  0  0  0  0  0
   14.3360  -18.0548   23.6889 C   0  0  0  0  0  0  0  0  0  0  0  0
   14.6751  -17.2704   22.7701 O   0  0  0  0  0  0  0  0  0  0  0  0
   13.4810  -17.5380   24.7831 C   0  0  0  0  0  0  0  0  0  0  0  0
   12.0278  -17.5718   24.4544 C   0  0  2  0  0  0  0  0  0  0  0  0
   11.6386  -16.7634   23.3475 N   0  0  0  0  0  0  0  0  0  0  0  0
   11.2210  -17.2945   25.6820 C   0  0  0  0  0  0  0  0  0  0  0  0
   10.3625  -16.2068   25.6402 O   0  0  0  0  0  0  0  0  0  0  0  0
   11.2827  -17.9755   26.7102 O   0  0  0  0  0  0  0  0  0  0  0  0
  2  1  1  6
  3  2  1  0
  3  4  1  0
  4  5  1  0
  5  6  2  0
  5  9  1  0
  7  2  1  0
  7  8  2  0
 10 11  1  0
 12 11  1  1
 12 13  1  0
 13  7  1  0
 14 12  1  0
 15 14  2  0
 17 16  1  0
 17 18  2  0
 20 19  1  1
 19 17  1  0
 20 21  1  0
 21 14  1  0
 22 20  1  0
 23 22  1  0
 24 22  2  0
M  END
$$$$
