ESN.pdb
     RDKit          3D

 24 23  0  0  1  0  0  0  0  0999 V2000
    9.2642  -16.7788   20.5136 N   0  0  0  0  0  0  0  0  0  0  0  0
    9.8095  -17.4969   21.6205 C   0  0  1  0  0  0  0  0  0  0  0  0
   11.2900  -17.3770   21.6408 C   0  0  0  0  0  0  0  0  0  0  0  0
   11.9453  -17.0371   20.3490 C   0  0  0  0  0  0  0  0  0  0  0  0
   13.4117  -17.0692   20.3776 C   0  0  0  0  0  0  0  0  0  0  0  0
   14.0793  -16.8162   19.3550 O   0  0  0  0  0  0  0  0  0  0  0  0
    9.2589  -17.0167   22.9304 C   0  0  0  0  0  0  0  0  0  0  0  0
    9.0269  -15.7871   23.0625 O   0  0  0  0  0  0  0  0  0  0  0  0
   14.1039  -17.3831   21.5464 O   0  0  0  0  0  0  0  0  0  0  0  0
    8.4568  -19.7221   25.8449 O   0  0  0  0  0  0  0  0  0  0  0  0
    7.5704  -18.6385   25.7330 C   0  0  0  0  0  0  0  0  0  0  0  0
    8.4021  -17.4731   25.1791 C   0  0  2  0  0  0  0  0  0  0  0  0
    9.0133  -17.9417   23.9797 N   0  0  0  0  0  0  0  0  0  0  0  0
    9.3591  -17.0640   26.2219 C   0  0  0  0  0  0  0  0  0  0  0  0
   10.5807  -17.3216   26.0814 O   0  0  0  0  0  0  0  0  0  0  0  0
    8.0774  -12.9865   28.1420 N   0  0  0  0  0  0  0  0  0  0  0  0
    9.3481  -13.5866   28.3150 C   0  0  0  0  0  0  0  0  0  0  0  0
   10.3301  -13.1045   27.7003 O   0  0  0  0  0  0  0  0  0  0  0  0
    9.5672  -14.7608   29.1918 C   0  0  0  0  0  0  0  0  0  0  0  0
    9.9162  -15.9970   28.4362 C   0  0  2  0  0  0  0  0  0  0  0  0
    8.9855  -16.3710   27.4242 N   0  0  0  0  0  0  0  0  0  0  0  0
   10.2097  -17.1109   29.3889 C   0  0  0  0  0  0  0  0  0  0  0  0
    9.5520  -18.3126   29.1762 O   0  0  0  0  0  0  0  0  0  0  0  0
   10.9945  -17.0121   30.3371 O   0  0  0  0  0  0  0  0  0  0  0  0
  2  1  1  6
  3  2  1  0
  3  4  1  0
  4  5  1  0
  5  6  2  0
  5  9  1  0
  7  2  1  0
  7  8  2  0
 10 11  1  0
 12 11  1  1
 12 13  1  0
 13  7  1  0
 14 12  1  0
 15 14  2  0
 17 16  1  0
 17 18  2  0
 20 19  1  1
 19 17  1  0
 20 21  1  0
 21 14  1  0
 22 20  1  0
 23 22  1  0
 24 22  2  0
M  END
$$$$
