ESN.pdb
     RDKit          3D

 24 23  0  0  1  0  0  0  0  0999 V2000
    8.7782  -13.2445   17.1143 N   0  0  0  0  0  0  0  0  0  0  0  0
    8.8054  -14.4797   17.8297 C   0  0  1  0  0  0  0  0  0  0  0  0
   10.1027  -15.1730   17.6228 C   0  0  0  0  0  0  0  0  0  0  0  0
   11.3266  -14.3329   17.7231 C   0  0  0  0  0  0  0  0  0  0  0  0
   12.5861  -15.0566   17.5177 C   0  0  0  0  0  0  0  0  0  0  0  0
   12.9379  -15.4220   16.3783 O   0  0  0  0  0  0  0  0  0  0  0  0
    8.5804  -14.2848   19.2998 C   0  0  0  0  0  0  0  0  0  0  0  0
    9.3386  -13.4927   19.9170 O   0  0  0  0  0  0  0  0  0  0  0  0
   13.4279  -15.3580   18.5874 O   0  0  0  0  0  0  0  0  0  0  0  0
    5.3861  -16.0373   21.0874 O   0  0  0  0  0  0  0  0  0  0  0  0
    5.8502  -14.8255   21.6246 C   0  0  0  0  0  0  0  0  0  0  0  0
    7.3623  -14.8027   21.3606 C   0  0  2  0  0  0  0  0  0  0  0  0
    7.5345  -14.9849   19.9574 N   0  0  0  0  0  0  0  0  0  0  0  0
    7.9817  -15.8555   22.1844 C   0  0  0  0  0  0  0  0  0  0  0  0
    8.2619  -16.9660   21.6680 O   0  0  0  0  0  0  0  0  0  0  0  0
   11.2862  -16.4492   23.6543 N   0  0  0  0  0  0  0  0  0  0  0  0
   10.9486  -16.3286   25.0241 C   0  0  0  0  0  0  0  0  0  0  0  0
   11.8577  -16.0617   25.8468 O   0  0  0  0  0  0  0  0  0  0  0  0
    9.5660  -16.5042   25.5271 C   0  0  0  0  0  0  0  0  0  0  0  0
    8.5831  -16.7937   24.4449 C   0  0  2  0  0  0  0  0  0  0  0  0
    8.2980  -15.6997   23.5777 N   0  0  0  0  0  0  0  0  0  0  0  0
    7.3489  -17.4039   25.0272 C   0  0  0  0  0  0  0  0  0  0  0  0
    7.4898  -18.6281   25.6622 O   0  0  0  0  0  0  0  0  0  0  0  0
    6.2329  -16.8787   24.9699 O   0  0  0  0  0  0  0  0  0  0  0  0
  2  1  1  6
  3  2  1  0
  3  4  1  0
  4  5  1  0
  5  6  2  0
  5  9  1  0
  7  2  1  0
  7  8  2  0
 10 11  1  0
 12 11  1  6
 12 13  1  0
 13  7  1  0
 14 12  1  0
 15 14  2  0
 17 16  1  0
 17 18  2  0
 20 19  1  1
 19 17  1  0
 20 21  1  0
 21 14  1  0
 22 20  1  0
 23 22  1  0
 24 22  2  0
M  END
$$$$
