ESN.pdb
     RDKit          3D

 24 23  0  0  1  0  0  0  0  0999 V2000
   10.8047  -17.0023   15.4310 N   0  0  0  0  0  0  0  0  0  0  0  0
   11.2165  -18.0226   16.3407 C   0  0  1  0  0  0  0  0  0  0  0  0
   12.6151  -18.4370   16.0603 C   0  0  0  0  0  0  0  0  0  0  0  0
   12.8934  -18.9468   14.6905 C   0  0  0  0  0  0  0  0  0  0  0  0
   14.2690  -19.4092   14.4755 C   0  0  0  0  0  0  0  0  0  0  0  0
   15.0426  -18.7914   13.7170 O   0  0  0  0  0  0  0  0  0  0  0  0
   11.1116  -17.5796   17.7698 C   0  0  0  0  0  0  0  0  0  0  0  0
   11.8118  -16.6026   18.1419 O   0  0  0  0  0  0  0  0  0  0  0  0
   14.7541  -20.5513   15.1111 O   0  0  0  0  0  0  0  0  0  0  0  0
    8.2169  -18.9835   19.5627 O   0  0  0  0  0  0  0  0  0  0  0  0
    8.8615  -18.2845   20.5963 C   0  0  0  0  0  0  0  0  0  0  0  0
   10.2323  -17.8797   20.0360 C   0  0  2  0  0  0  0  0  0  0  0  0
   10.2396  -18.2582   18.6618 N   0  0  0  0  0  0  0  0  0  0  0  0
   11.2672  -18.5429   20.8483 C   0  0  0  0  0  0  0  0  0  0  0  0
   11.9998  -19.4206   20.3273 O   0  0  0  0  0  0  0  0  0  0  0  0
   15.0149  -15.0389   23.1568 N   0  0  0  0  0  0  0  0  0  0  0  0
   14.7063  -16.2897   22.5693 C   0  0  0  0  0  0  0  0  0  0  0  0
   15.6172  -17.1462   22.4635 O   0  0  0  0  0  0  0  0  0  0  0  0
   13.3519  -16.6300   22.0740 C   0  0  0  0  0  0  0  0  0  0  0  0
   12.7701  -17.8288   22.7412 C   0  0  2  0  0  0  0  0  0  0  0  0
   11.5066  -18.2500   22.2348 N   0  0  0  0  0  0  0  0  0  0  0  0
   12.7602  -17.6328   24.2232 C   0  0  0  0  0  0  0  0  0  0  0  0
   11.7389  -16.8574   24.7501 O   0  0  0  0  0  0  0  0  0  0  0  0
   13.6023  -18.1195   24.9839 O   0  0  0  0  0  0  0  0  0  0  0  0
  2  1  1  6
  3  2  1  0
  3  4  1  0
  4  5  1  0
  5  6  2  0
  5  9  1  0
  7  2  1  0
  7  8  2  0
 10 11  1  0
 12 11  1  1
 12 13  1  0
 13  7  1  0
 14 12  1  0
 15 14  2  0
 17 16  1  0
 17 18  2  0
 20 19  1  6
 19 17  1  0
 20 21  1  0
 21 14  1  0
 22 20  1  0
 23 22  1  0
 24 22  2  0
M  END
$$$$
