ESN.pdb
     RDKit          3D

 24 23  0  0  1  0  0  0  0  0999 V2000
    7.5079  -18.2015   18.8013 N   0  0  0  0  0  0  0  0  0  0  0  0
    8.8779  -17.8998   18.5362 C   0  0  1  0  0  0  0  0  0  0  0  0
    9.0405  -17.3918   17.1498 C   0  0  0  0  0  0  0  0  0  0  0  0
    7.8593  -16.7155   16.5488 C   0  0  0  0  0  0  0  0  0  0  0  0
    7.5728  -17.0985   15.1619 C   0  0  0  0  0  0  0  0  0  0  0  0
    8.0749  -16.4732   14.2067 O   0  0  0  0  0  0  0  0  0  0  0  0
    9.4291  -16.8896   19.4983 C   0  0  0  0  0  0  0  0  0  0  0  0
   10.6513  -16.6009   19.4212 O   0  0  0  0  0  0  0  0  0  0  0  0
    6.7320  -18.1711   14.8684 O   0  0  0  0  0  0  0  0  0  0  0  0
    7.0985  -15.6199   22.5876 O   0  0  0  0  0  0  0  0  0  0  0  0
    8.0050  -14.6648   22.0991 C   0  0  0  0  0  0  0  0  0  0  0  0
    9.1557  -15.4632   21.4704 C   0  0  2  0  0  0  0  0  0  0  0  0
    8.5771  -16.2876   20.4618 N   0  0  0  0  0  0  0  0  0  0  0  0
    9.8283  -16.2116   22.5465 C   0  0  0  0  0  0  0  0  0  0  0  0
    9.4761  -17.3909   22.7989 O   0  0  0  0  0  0  0  0  0  0  0  0
   13.8746  -17.4664   22.8416 N   0  0  0  0  0  0  0  0  0  0  0  0
   13.8134  -16.2379   23.5430 C   0  0  0  0  0  0  0  0  0  0  0  0
   14.5482  -15.2928   23.1668 O   0  0  0  0  0  0  0  0  0  0  0  0
   12.9176  -16.0212   24.7032 C   0  0  0  0  0  0  0  0  0  0  0  0
   11.5007  -16.3889   24.4237 C   0  0  2  0  0  0  0  0  0  0  0  0
   10.8900  -15.6745   23.3527 N   0  0  0  0  0  0  0  0  0  0  0  0
   10.7006  -16.3304   25.6851 C   0  0  0  0  0  0  0  0  0  0  0  0
   11.0991  -17.1577   26.7237 O   0  0  0  0  0  0  0  0  0  0  0  0
    9.7215  -15.5944   25.8415 O   0  0  0  0  0  0  0  0  0  0  0  0
  2  1  1  1
  3  2  1  0
  3  4  1  0
  4  5  1  0
  5  6  2  0
  5  9  1  0
  7  2  1  0
  7  8  2  0
 10 11  1  0
 12 11  1  1
 12 13  1  0
 13  7  1  0
 14 12  1  0
 15 14  2  0
 17 16  1  0
 17 18  2  0
 20 19  1  1
 19 17  1  0
 20 21  1  0
 21 14  1  0
 22 20  1  0
 23 22  1  0
 24 22  2  0
M  END
$$$$
