ESN.pdb
     RDKit          3D

 24 23  0  0  1  0  0  0  0  0999 V2000
    7.2974  -19.1335   17.2681 N   0  0  0  0  0  0  0  0  0  0  0  0
    8.6110  -18.6082   17.0769 C   0  0  1  0  0  0  0  0  0  0  0  0
    8.7734  -18.1036   15.6893 C   0  0  0  0  0  0  0  0  0  0  0  0
    7.5374  -18.0209   14.8652 C   0  0  0  0  0  0  0  0  0  0  0  0
    7.7405  -17.5138   13.5036 C   0  0  0  0  0  0  0  0  0  0  0  0
    6.9515  -16.6886   13.0017 O   0  0  0  0  0  0  0  0  0  0  0  0
    8.9223  -17.5030   18.0421 C   0  0  0  0  0  0  0  0  0  0  0  0
   10.0660  -16.9805   17.9983 O   0  0  0  0  0  0  0  0  0  0  0  0
    8.8198  -17.9374   12.7293 O   0  0  0  0  0  0  0  0  0  0  0  0
    6.3116  -16.6010   21.2220 O   0  0  0  0  0  0  0  0  0  0  0  0
    7.0899  -15.5953   20.6259 C   0  0  0  0  0  0  0  0  0  0  0  0
    8.3473  -16.2984   20.0957 C   0  0  2  0  0  0  0  0  0  0  0  0
    7.9383  -17.0736   18.9717 N   0  0  0  0  0  0  0  0  0  0  0  0
    8.9209  -17.0915   21.1969 C   0  0  0  0  0  0  0  0  0  0  0  0
    8.7405  -18.3344   21.2286 O   0  0  0  0  0  0  0  0  0  0  0  0
   13.4527  -19.4866   23.4052 N   0  0  0  0  0  0  0  0  0  0  0  0
   12.0965  -19.1199   23.5828 C   0  0  0  0  0  0  0  0  0  0  0  0
   11.5090  -19.4772   24.6324 O   0  0  0  0  0  0  0  0  0  0  0  0
   11.3417  -18.3316   22.5807 C   0  0  0  0  0  0  0  0  0  0  0  0
   10.4406  -17.3159   23.1949 C   0  0  2  0  0  0  0  0  0  0  0  0
    9.6950  -16.5297   22.2696 N   0  0  0  0  0  0  0  0  0  0  0  0
   11.2037  -16.4833   24.1743 C   0  0  0  0  0  0  0  0  0  0  0  0
   11.7563  -17.1388   25.2637 O   0  0  0  0  0  0  0  0  0  0  0  0
   11.3612  -15.2639   24.0600 O   0  0  0  0  0  0  0  0  0  0  0  0
  2  1  1  6
  3  2  1  0
  3  4  1  0
  4  5  1  0
  5  6  2  0
  5  9  1  0
  7  2  1  0
  7  8  2  0
 10 11  1  0
 12 11  1  1
 12 13  1  0
 13  7  1  0
 14 12  1  0
 15 14  2  0
 17 16  1  0
 17 18  2  0
 20 19  1  6
 19 17  1  0
 20 21  1  0
 21 14  1  0
 22 20  1  0
 23 22  1  0
 24 22  2  0
M  END
$$$$
