ESN.pdb
     RDKit          3D

 24 23  0  0  1  0  0  0  0  0999 V2000
   12.4482  -18.5077   17.4801 N   0  0  0  0  0  0  0  0  0  0  0  0
   13.0712  -19.3014   18.4902 C   0  0  1  0  0  0  0  0  0  0  0  0
   14.5350  -19.3904   18.2538 C   0  0  0  0  0  0  0  0  0  0  0  0
   14.9754  -19.4365   16.8334 C   0  0  0  0  0  0  0  0  0  0  0  0
   16.4209  -19.6009   16.6441 C   0  0  0  0  0  0  0  0  0  0  0  0
   17.1011  -18.7128   16.0928 O   0  0  0  0  0  0  0  0  0  0  0  0
   12.8271  -18.7560   19.8660 C   0  0  0  0  0  0  0  0  0  0  0  0
   13.0982  -17.5466   20.0824 O   0  0  0  0  0  0  0  0  0  0  0  0
   17.0785  -20.7528   17.0737 O   0  0  0  0  0  0  0  0  0  0  0  0
   10.0242  -20.1184   21.9655 O   0  0  0  0  0  0  0  0  0  0  0  0
   10.5913  -18.8994   22.3716 C   0  0  0  0  0  0  0  0  0  0  0  0
   12.1068  -19.0610   22.1870 C   0  0  2  0  0  0  0  0  0  0  0  0
   12.3039  -19.5992   20.8819 N   0  0  0  0  0  0  0  0  0  0  0  0
   12.6062  -19.9208   23.2741 C   0  0  0  0  0  0  0  0  0  0  0  0
   12.8593  -21.1300   23.0452 O   0  0  0  0  0  0  0  0  0  0  0  0
   15.8326  -20.5562   24.2710 N   0  0  0  0  0  0  0  0  0  0  0  0
   15.6594  -19.7355   25.4118 C   0  0  0  0  0  0  0  0  0  0  0  0
   16.5020  -18.8336   25.6380 O   0  0  0  0  0  0  0  0  0  0  0  0
   14.5242  -19.8970   26.3503 C   0  0  0  0  0  0  0  0  0  0  0  0
   13.2632  -20.3152   25.6751 C   0  0  2  0  0  0  0  0  0  0  0  0
   12.8315  -19.4633   24.6178 N   0  0  0  0  0  0  0  0  0  0  0  0
   12.1955  -20.5559   26.6933 C   0  0  0  0  0  0  0  0  0  0  0  0
   12.4163  -21.5713   27.6109 O   0  0  0  0  0  0  0  0  0  0  0  0
   11.1477  -19.9053   26.7535 O   0  0  0  0  0  0  0  0  0  0  0  0
  2  1  1  6
  3  2  1  0
  3  4  1  0
  4  5  1  0
  5  6  2  0
  5  9  1  0
  7  2  1  0
  7  8  2  0
 10 11  1  0
 12 11  1  1
 12 13  1  0
 13  7  1  0
 14 12  1  0
 15 14  2  0
 17 16  1  0
 17 18  2  0
 20 19  1  1
 19 17  1  0
 20 21  1  0
 21 14  1  0
 22 20  1  0
 23 22  1  0
 24 22  2  0
M  END
$$$$
