IVD.pdb
     RDKit          3D

 24 23  0  0  1  0  0  0  0  0999 V2000
    6.9826  -11.5966   27.7951 C   0  0  0  0  0  0  0  0  0  0  0  0
    6.2195  -12.6748   27.0747 C   0  0  0  0  0  0  0  0  0  0  0  0
    7.1138  -13.5610   26.2535 C   0  0  2  0  0  0  0  0  0  0  0  0
    7.9993  -12.7422   25.3580 C   0  0  0  0  0  0  0  0  0  0  0  0
    6.4010  -14.6588   25.5276 C   0  0  2  0  0  0  0  0  0  0  0  0
    5.8129  -15.5280   26.5288 N   0  0  0  0  0  0  0  0  0  0  0  0
    7.2572  -15.3913   24.5798 C   0  0  0  0  0  0  0  0  0  0  0  0
    7.7232  -16.5000   24.8889 O   0  0  0  0  0  0  0  0  0  0  0  0
    9.1239  -16.0016   19.9776 C   0  0  0  0  0  0  0  0  0  0  0  0
    8.2675  -15.1528   20.9059 C   0  0  1  0  0  0  0  0  0  0  0  0
    6.8995  -14.8986   20.3534 C   0  0  0  0  0  0  0  0  0  0  0  0
    8.2887  -15.6337   22.3101 C   0  0  2  0  0  0  0  0  0  0  0  0
    7.6073  -14.9194   23.2959 N   0  0  0  0  0  0  0  0  0  0  0  0
    9.7224  -15.7643   22.7207 C   0  0  0  0  0  0  0  0  0  0  0  0
   10.3953  -14.7444   23.0963 O   0  0  0  0  0  0  0  0  0  0  0  0
   10.4132  -17.0019   22.7199 N   0  0  0  0  0  0  0  0  0  0  0  0
   11.7360  -17.1049   23.3548 C   0  0  1  0  0  0  0  0  0  0  0  0
   11.7835  -18.3387   24.2380 C   0  0  0  0  0  0  0  0  0  0  0  0
   13.1553  -18.5276   24.7453 C   0  0  0  0  0  0  0  0  0  0  0  0
   13.7384  -17.5692   25.3005 O   0  0  0  0  0  0  0  0  0  0  0  0
   12.7431  -17.1200   22.2795 C   0  0  0  0  0  0  0  0  0  0  0  0
   12.3424  -17.3721   20.9775 O   0  0  0  0  0  0  0  0  0  0  0  0
   13.8323  -19.7286   24.6334 O   0  0  0  0  0  0  0  0  0  0  0  0
   13.9691  -16.9153   22.4664 O   0  0  0  0  0  0  0  0  0  0  0  0
  2  1  1  0
  3  5  1  0
  3  2  1  0
  3  4  1  6
  5  7  1  0
  5  6  1  1
  7  8  2  0
 10 12  1  0
 10  9  1  6
 11 10  1  0
 12 14  1  0
 13  7  1  0
 12 13  1  1
 14 15  2  0
 16 17  1  0
 16 14  1  0
 17 21  1  0
 17 18  1  6
 19 23  1  0
 19 18  1  0
 20 19  2  0
 21 24  2  0
 21 22  1  0
M  END
$$$$
