IVD.pdb
     RDKit          3D

 24 23  0  0  1  0  0  0  0  0999 V2000
    6.9435  -11.4598   27.6817 C   0  0  0  0  0  0  0  0  0  0  0  0
    6.2386  -12.6499   27.0895 C   0  0  0  0  0  0  0  0  0  0  0  0
    7.0790  -13.3669   26.0702 C   0  0  2  0  0  0  0  0  0  0  0  0
    7.5981  -12.4079   25.0371 C   0  0  0  0  0  0  0  0  0  0  0  0
    6.4309  -14.5768   25.4732 C   0  0  2  0  0  0  0  0  0  0  0  0
    6.1277  -15.4861   26.5618 N   0  0  0  0  0  0  0  0  0  0  0  0
    7.2333  -15.2136   24.4155 C   0  0  0  0  0  0  0  0  0  0  0  0
    8.0361  -16.1171   24.7004 O   0  0  0  0  0  0  0  0  0  0  0  0
    8.4092  -13.4375   20.7061 C   0  0  0  0  0  0  0  0  0  0  0  0
    7.8776  -14.8627   20.6621 C   0  0  1  0  0  0  0  0  0  0  0  0
    8.5315  -15.6872   19.5972 C   0  0  0  0  0  0  0  0  0  0  0  0
    7.8327  -15.5028   22.0006 C   0  0  2  0  0  0  0  0  0  0  0  0
    7.1637  -14.8689   23.0480 N   0  0  0  0  0  0  0  0  0  0  0  0
    9.2449  -15.7622   22.4244 C   0  0  0  0  0  0  0  0  0  0  0  0
   10.0401  -14.7975   22.6909 O   0  0  0  0  0  0  0  0  0  0  0  0
    9.7815  -17.0675   22.5552 N   0  0  0  0  0  0  0  0  0  0  0  0
   11.2328  -17.2531   22.7067 C   0  0  1  0  0  0  0  0  0  0  0  0
   11.9616  -16.4860   21.6181 C   0  0  0  0  0  0  0  0  0  0  0  0
   12.3294  -17.4093   20.5284 C   0  0  0  0  0  0  0  0  0  0  0  0
   11.8557  -18.5678   20.5237 O   0  0  0  0  0  0  0  0  0  0  0  0
   11.5950  -16.8183   24.0670 C   0  0  0  0  0  0  0  0  0  0  0  0
   12.6777  -15.9722   24.2436 O   0  0  0  0  0  0  0  0  0  0  0  0
   13.1829  -17.0477   19.5018 O   0  0  0  0  0  0  0  0  0  0  0  0
   10.9749  -17.1702   25.1022 O   0  0  0  0  0  0  0  0  0  0  0  0
  2  1  1  0
  3  5  1  0
  3  2  1  0
  3  4  1  6
  5  7  1  0
  5  6  1  1
  7  8  2  0
 10 12  1  0
 10  9  1  1
 11 10  1  0
 12 14  1  0
 13  7  1  0
 12 13  1  1
 14 15  2  0
 16 17  1  0
 16 14  1  0
 17 21  1  0
 17 18  1  6
 19 23  1  0
 19 18  1  0
 20 19  2  0
 21 24  2  0
 21 22  1  0
M  END
$$$$
