IVD.pdb
     RDKit          3D

 24 23  0  0  1  0  0  0  0  0999 V2000
    6.6392  -11.4455   27.8678 C   0  0  0  0  0  0  0  0  0  0  0  0
    5.9319  -12.5082   27.0715 C   0  0  0  0  0  0  0  0  0  0  0  0
    6.8876  -13.4318   26.3694 C   0  0  2  0  0  0  0  0  0  0  0  0
    7.9883  -12.6554   25.7045 C   0  0  0  0  0  0  0  0  0  0  0  0
    6.2347  -14.4216   25.4561 C   0  0  2  0  0  0  0  0  0  0  0  0
    5.4241  -15.2993   26.2786 N   0  0  0  0  0  0  0  0  0  0  0  0
    7.1873  -15.1626   24.6125 C   0  0  0  0  0  0  0  0  0  0  0  0
    7.7207  -16.2002   25.0378 O   0  0  0  0  0  0  0  0  0  0  0  0
    9.4571  -15.9283   20.2141 C   0  0  0  0  0  0  0  0  0  0  0  0
    8.5572  -15.0181   21.0372 C   0  0  1  0  0  0  0  0  0  0  0  0
    7.2978  -14.6505   20.3161 C   0  0  0  0  0  0  0  0  0  0  0  0
    8.3564  -15.5073   22.4242 C   0  0  2  0  0  0  0  0  0  0  0  0
    7.5607  -14.7764   23.3067 N   0  0  0  0  0  0  0  0  0  0  0  0
    9.7092  -15.6877   23.0394 C   0  0  0  0  0  0  0  0  0  0  0  0
   10.3691  -14.6872   23.4839 O   0  0  0  0  0  0  0  0  0  0  0  0
   10.3340  -16.9535   23.1667 N   0  0  0  0  0  0  0  0  0  0  0  0
   11.7251  -17.0420   23.6362 C   0  0  1  0  0  0  0  0  0  0  0  0
   11.9847  -18.4253   24.2052 C   0  0  0  0  0  0  0  0  0  0  0  0
   11.3454  -18.5399   25.5293 C   0  0  0  0  0  0  0  0  0  0  0  0
   11.4577  -17.5973   26.3452 O   0  0  0  0  0  0  0  0  0  0  0  0
   12.5986  -16.7079   22.4976 C   0  0  0  0  0  0  0  0  0  0  0  0
   12.2582  -17.1479   21.2288 O   0  0  0  0  0  0  0  0  0  0  0  0
   10.6204  -19.6537   25.9127 O   0  0  0  0  0  0  0  0  0  0  0  0
   13.6556  -16.0357   22.6006 O   0  0  0  0  0  0  0  0  0  0  0  0
  2  1  1  0
  3  5  1  0
  3  2  1  0
  3  4  1  6
  5  7  1  0
  5  6  1  1
  7  8  2  0
 10 12  1  0
 10  9  1  6
 11 10  1  0
 12 14  1  0
 13  7  1  0
 12 13  1  1
 14 15  2  0
 16 17  1  0
 16 14  1  0
 17 21  1  0
 17 18  1  6
 19 23  1  0
 19 18  1  0
 20 19  2  0
 21 24  2  0
 21 22  1  0
M  END
$$$$
