IVD.pdb
     RDKit          3D

 24 23  0  0  1  0  0  0  0  0999 V2000
    7.7776  -11.6098   19.6130 C   0  0  0  0  0  0  0  0  0  0  0  0
    7.5910  -12.6471   20.6868 C   0  0  0  0  0  0  0  0  0  0  0  0
    8.1214  -13.9943   20.2826 C   0  0  2  0  0  0  0  0  0  0  0  0
    7.5688  -14.4066   18.9480 C   0  0  0  0  0  0  0  0  0  0  0  0
    7.9792  -15.0554   21.3286 C   0  0  2  0  0  0  0  0  0  0  0  0
    6.5712  -15.3932   21.4128 N   0  0  0  0  0  0  0  0  0  0  0  0
    8.5456  -14.6758   22.6337 C   0  0  0  0  0  0  0  0  0  0  0  0
    9.7642  -14.4669   22.7476 O   0  0  0  0  0  0  0  0  0  0  0  0
    7.3154  -12.1352   25.8477 C   0  0  0  0  0  0  0  0  0  0  0  0
    7.4581  -13.6264   26.1152 C   0  0  1  0  0  0  0  0  0  0  0  0
    6.1453  -14.2874   26.3997 C   0  0  0  0  0  0  0  0  0  0  0  0
    8.2920  -14.3170   25.0998 C   0  0  2  0  0  0  0  0  0  0  0  0
    7.7878  -14.5231   23.8154 N   0  0  0  0  0  0  0  0  0  0  0  0
    8.6959  -15.6402   25.6716 C   0  0  0  0  0  0  0  0  0  0  0  0
    7.8815  -16.6253   25.6911 O   0  0  0  0  0  0  0  0  0  0  0  0
    9.9812  -15.8823   26.2177 N   0  0  0  0  0  0  0  0  0  0  0  0
   10.3852  -17.2533   26.5652 C   0  0  1  0  0  0  0  0  0  0  0  0
   11.6853  -17.5963   25.8604 C   0  0  0  0  0  0  0  0  0  0  0  0
   12.1707  -18.9057   26.3346 C   0  0  0  0  0  0  0  0  0  0  0  0
   11.4112  -19.8985   26.2699 O   0  0  0  0  0  0  0  0  0  0  0  0
   10.4821  -17.3274   28.0335 C   0  0  0  0  0  0  0  0  0  0  0  0
   10.6107  -18.5645   28.6438 O   0  0  0  0  0  0  0  0  0  0  0  0
   13.4405  -19.0865   26.8526 O   0  0  0  0  0  0  0  0  0  0  0  0
   10.4555  -16.3224   28.7878 O   0  0  0  0  0  0  0  0  0  0  0  0
  2  1  1  0
  3  5  1  0
  3  2  1  0
  3  4  1  6
  5  7  1  0
  5  6  1  1
  7  8  2  0
 10 12  1  0
 10  9  1  6
 11 10  1  0
 12 14  1  0
 13  7  1  0
 12 13  1  6
 14 15  2  0
 16 17  1  0
 16 14  1  0
 17 21  1  0
 17 18  1  6
 19 23  1  0
 19 18  1  0
 20 19  2  0
 21 24  2  0
 21 22  1  0
M  END
$$$$
