IVD.pdb
     RDKit          3D

 24 23  0  0  1  0  0  0  0  0999 V2000
    8.3201  -12.7094   19.1417 C   0  0  0  0  0  0  0  0  0  0  0  0
    7.6241  -12.9943   20.4448 C   0  0  0  0  0  0  0  0  0  0  0  0
    7.4899  -14.4669   20.7145 C   0  0  2  0  0  0  0  0  0  0  0  0
    6.8092  -15.1593   19.5683 C   0  0  0  0  0  0  0  0  0  0  0  0
    6.8861  -14.8011   22.0427 C   0  0  2  0  0  0  0  0  0  0  0  0
    5.4941  -14.3955   21.9988 N   0  0  0  0  0  0  0  0  0  0  0  0
    7.6078  -14.2120   23.1830 C   0  0  0  0  0  0  0  0  0  0  0  0
    7.9125  -13.0083   23.1734 O   0  0  0  0  0  0  0  0  0  0  0  0
    9.0595  -13.6828   27.7671 C   0  0  0  0  0  0  0  0  0  0  0  0
    8.0793  -14.0626   26.6667 C   0  0  1  0  0  0  0  0  0  0  0  0
    6.9726  -13.0661   26.5139 C   0  0  0  0  0  0  0  0  0  0  0  0
    8.7535  -14.4387   25.3989 C   0  0  2  0  0  0  0  0  0  0  0  0
    7.9985  -14.9307   24.3339 N   0  0  0  0  0  0  0  0  0  0  0  0
    9.8162  -15.4389   25.7324 C   0  0  0  0  0  0  0  0  0  0  0  0
    9.5122  -16.6264   26.0950 O   0  0  0  0  0  0  0  0  0  0  0  0
   11.2004  -15.1409   25.6692 N   0  0  0  0  0  0  0  0  0  0  0  0
   12.1915  -16.2113   25.8581 C   0  0  1  0  0  0  0  0  0  0  0  0
   13.5105  -15.8025   25.2275 C   0  0  0  0  0  0  0  0  0  0  0  0
   14.5125  -16.8606   25.4543 C   0  0  0  0  0  0  0  0  0  0  0  0
   14.1771  -18.0587   25.3174 O   0  0  0  0  0  0  0  0  0  0  0  0
   12.2936  -16.4697   27.3050 C   0  0  0  0  0  0  0  0  0  0  0  0
   12.5739  -17.7522   27.7475 O   0  0  0  0  0  0  0  0  0  0  0  0
   15.8190  -16.5845   25.8150 O   0  0  0  0  0  0  0  0  0  0  0  0
   12.1403  -15.5862   28.1858 O   0  0  0  0  0  0  0  0  0  0  0  0
  2  1  1  0
  3  5  1  0
  3  2  1  0
  3  4  1  6
  5  7  1  0
  5  6  1  6
  7  8  2  0
 10 12  1  0
 10  9  1  1
 11 10  1  0
 12 14  1  0
 13  7  1  0
 12 13  1  6
 14 15  2  0
 16 17  1  0
 16 14  1  0
 17 21  1  0
 17 18  1  1
 19 23  1  0
 19 18  1  0
 20 19  2  0
 21 24  2  0
 21 22  1  0
M  END
$$$$
