IVD.pdb
     RDKit          3D

 24 23  0  0  1  0  0  0  0  0999 V2000
    6.6669  -11.7000   27.7851 C   0  0  0  0  0  0  0  0  0  0  0  0
    5.9691  -12.8024   27.0357 C   0  0  0  0  0  0  0  0  0  0  0  0
    6.9223  -13.6477   26.2379 C   0  0  2  0  0  0  0  0  0  0  0  0
    7.7630  -12.7935   25.3324 C   0  0  0  0  0  0  0  0  0  0  0  0
    6.2835  -14.8007   25.5289 C   0  0  2  0  0  0  0  0  0  0  0  0
    5.8028  -15.7192   26.5434 N   0  0  0  0  0  0  0  0  0  0  0  0
    7.1693  -15.4555   24.5518 C   0  0  0  0  0  0  0  0  0  0  0  0
    7.7480  -16.5140   24.8460 O   0  0  0  0  0  0  0  0  0  0  0  0
    9.1141  -15.8172   19.9541 C   0  0  0  0  0  0  0  0  0  0  0  0
    8.1064  -15.1314   20.8650 C   0  0  1  0  0  0  0  0  0  0  0  0
    6.7167  -15.1596   20.3089 C   0  0  0  0  0  0  0  0  0  0  0  0
    8.2165  -15.5690   22.2792 C   0  0  2  0  0  0  0  0  0  0  0  0
    7.4267  -14.9602   23.2548 N   0  0  0  0  0  0  0  0  0  0  0  0
    9.6531  -15.4414   22.6805 C   0  0  0  0  0  0  0  0  0  0  0  0
   10.0114  -14.6213   23.5932 O   0  0  0  0  0  0  0  0  0  0  0  0
   10.6886  -16.2058   22.0870 N   0  0  0  0  0  0  0  0  0  0  0  0
   11.9548  -16.4112   22.8068 C   0  0  1  0  0  0  0  0  0  0  0  0
   11.6843  -17.1150   24.1244 C   0  0  0  0  0  0  0  0  0  0  0  0
   12.9636  -17.4039   24.7990 C   0  0  0  0  0  0  0  0  0  0  0  0
   14.0325  -17.0258   24.2688 O   0  0  0  0  0  0  0  0  0  0  0  0
   12.8524  -17.1678   21.9165 C   0  0  0  0  0  0  0  0  0  0  0  0
   14.1821  -16.7924   21.8146 O   0  0  0  0  0  0  0  0  0  0  0  0
   13.0346  -18.0807   26.0032 O   0  0  0  0  0  0  0  0  0  0  0  0
   12.4863  -18.1530   21.2272 O   0  0  0  0  0  0  0  0  0  0  0  0
  2  1  1  0
  3  5  1  0
  3  2  1  0
  3  4  1  6
  5  7  1  0
  5  6  1  1
  7  8  2  0
 10 12  1  0
 10  9  1  6
 11 10  1  0
 12 14  1  0
 13  7  1  0
 12 13  1  1
 14 15  2  0
 16 17  1  0
 16 14  1  0
 17 21  1  0
 17 18  1  1
 19 23  1  0
 19 18  1  0
 20 19  2  0
 21 24  2  0
 21 22  1  0
M  END
$$$$
