IVD.pdb
     RDKit          3D

 24 23  0  0  1  0  0  0  0  0999 V2000
    7.0510  -11.4729   27.7318 C   0  0  0  0  0  0  0  0  0  0  0  0
    6.2181  -12.4524   26.9504 C   0  0  0  0  0  0  0  0  0  0  0  0
    7.0565  -13.4468   26.1969 C   0  0  2  0  0  0  0  0  0  0  0  0
    8.1352  -12.7518   25.4159 C   0  0  0  0  0  0  0  0  0  0  0  0
    6.2726  -14.4208   25.3741 C   0  0  2  0  0  0  0  0  0  0  0  0
    5.4671  -15.2084   26.2878 N   0  0  0  0  0  0  0  0  0  0  0  0
    7.1082  -15.2576   24.4967 C   0  0  0  0  0  0  0  0  0  0  0  0
    7.5282  -16.3553   24.8971 O   0  0  0  0  0  0  0  0  0  0  0  0
    8.9409  -16.3409   19.9745 C   0  0  0  0  0  0  0  0  0  0  0  0
    8.2163  -15.3201   20.8396 C   0  0  1  0  0  0  0  0  0  0  0  0
    6.9020  -14.9026   20.2569 C   0  0  0  0  0  0  0  0  0  0  0  0
    8.1629  -15.7115   22.2705 C   0  0  2  0  0  0  0  0  0  0  0  0
    7.4877  -14.9016   23.1841 N   0  0  0  0  0  0  0  0  0  0  0  0
    9.5723  -15.8904   22.7423 C   0  0  0  0  0  0  0  0  0  0  0  0
   10.3005  -14.8823   23.0384 O   0  0  0  0  0  0  0  0  0  0  0  0
   10.1791  -17.1628   22.8885 N   0  0  0  0  0  0  0  0  0  0  0  0
   11.5773  -17.2629   23.3342 C   0  0  1  0  0  0  0  0  0  0  0  0
   11.8353  -18.6486   23.8980 C   0  0  0  0  0  0  0  0  0  0  0  0
   11.2132  -18.7607   25.2304 C   0  0  0  0  0  0  0  0  0  0  0  0
   11.3562  -17.8270   26.0517 O   0  0  0  0  0  0  0  0  0  0  0  0
   12.4339  -16.9351   22.1811 C   0  0  0  0  0  0  0  0  0  0  0  0
   13.5576  -16.1476   22.3722 O   0  0  0  0  0  0  0  0  0  0  0  0
   10.4715  -19.8628   25.6160 O   0  0  0  0  0  0  0  0  0  0  0  0
   12.2102  -17.3299   21.0090 O   0  0  0  0  0  0  0  0  0  0  0  0
  2  1  1  0
  3  5  1  0
  3  2  1  0
  3  4  1  6
  5  7  1  0
  5  6  1  1
  7  8  2  0
 10 12  1  0
 10  9  1  6
 11 10  1  0
 12 14  1  0
 13  7  1  0
 12 13  1  1
 14 15  2  0
 16 17  1  0
 16 14  1  0
 17 21  1  0
 17 18  1  6
 19 23  1  0
 19 18  1  0
 20 19  2  0
 21 24  2  0
 21 22  1  0
M  END
$$$$
