WEL.pdb
     RDKit          3D

 32 33  0  0  1  0  0  0  0  0999 V2000
    6.0510  -17.5808   24.6813 N   0  0  0  0  0  0  0  0  0  0  0  0
    7.1689  -16.6875   24.5253 C   0  0  1  0  0  0  0  0  0  0  0  0
    7.3414  -15.8900   25.7947 C   0  0  0  0  0  0  0  0  0  0  0  0
    6.6509  -14.5843   25.7378 C   0  0  0  0  0  0  0  0  0  0  0  0
    5.4619  -14.2805   26.4143 C   0  0  0  0  0  0  0  0  0  0  0  0
    5.1091  -13.0054   26.1782 N   0  0  0  0  0  0  0  0  0  0  0  0
    6.0220  -12.4550   25.3693 C   0  0  0  0  0  0  0  0  0  0  0  0
    6.0918  -11.1804   24.8450 C   0  0  0  0  0  0  0  0  0  0  0  0
    7.1498  -10.8651   24.0173 C   0  0  0  0  0  0  0  0  0  0  0  0
    8.1102  -11.8193   23.7298 C   0  0  0  0  0  0  0  0  0  0  0  0
    8.0130  -13.0883   24.2704 C   0  0  0  0  0  0  0  0  0  0  0  0
    6.9812  -13.4239   25.0896 C   0  0  0  0  0  0  0  0  0  0  0  0
    8.3779  -17.5176   24.2491 C   0  0  0  0  0  0  0  0  0  0  0  0
    8.4988  -18.6655   24.7416 O   0  0  0  0  0  0  0  0  0  0  0  0
    9.4480  -17.0339   23.4101 N   0  0  0  0  0  0  0  0  0  0  0  0
   10.7573  -17.6010   23.4795 C   0  0  1  0  0  0  0  0  0  0  0  0
   11.6257  -17.4521   22.2939 C   0  0  0  0  0  0  0  0  0  0  0  0
   12.9351  -18.1148   22.2436 C   0  0  0  0  0  0  0  0  0  0  0  0
   14.0870  -17.3697   21.7616 C   0  0  0  0  0  0  0  0  0  0  0  0
   14.1137  -16.8773   20.6058 O   0  0  0  0  0  0  0  0  0  0  0  0
   11.4519  -17.2335   24.7580 C   0  0  0  0  0  0  0  0  0  0  0  0
   12.3771  -16.3822   24.7837 O   0  0  0  0  0  0  0  0  0  0  0  0
   15.2383  -17.1497   22.5435 O   0  0  0  0  0  0  0  0  0  0  0  0
    8.7460  -15.0292   28.2856 C   0  0  0  0  0  0  0  0  0  0  0  0
    9.9663  -15.4783   27.5474 C   0  0  1  0  0  0  0  0  0  0  0  0
   10.9670  -14.3345   27.3888 C   0  0  0  0  0  0  0  0  0  0  0  0
   10.5849  -16.7275   28.0012 C   0  0  0  0  0  0  0  0  0  0  0  0
   11.7033  -17.3557   27.2819 C   0  0  2  0  0  0  0  0  0  0  0  0
   11.0931  -17.8321   25.9926 N   0  0  0  0  0  0  0  0  0  0  0  0
   12.4178  -18.4694   27.8535 C   0  0  0  0  0  0  0  0  0  0  0  0
   12.2135  -19.6643   27.4357 O   0  0  0  0  0  0  0  0  0  0  0  0
   13.3531  -18.3628   28.8558 O   0  0  0  0  0  0  0  0  0  0  0  0
  2  1  1  1
  2 13  1  0
  3  2  1  0
  4  3  1  0
  5  4  2  0
  6  5  1  0
  7  6  1  0
  7 12  2  0
  8  7  1  0
  9  8  2  0
  9 10  1  0
 10 11  2  0
 11 12  1  0
 12  4  1  0
 13 14  2  0
 15 13  1  0
 15 16  1  0
 16 17  1  6
 18 17  1  0
 19 23  1  0
 19 18  1  0
 20 19  2  0
 21 16  1  0
 21 22  2  0
 25 24  1  1
 25 27  1  0
 25 26  1  0
 28 27  1  1
 28 29  1  0
 29 21  1  0
 30 28  1  0
 31 30  2  0
 32 30  1  0
M  END
$$$$
