WEL.pdb
     RDKit          3D

 32 33  0  0  1  0  0  0  0  0999 V2000
    8.0004  -17.8954   21.8069 N   0  0  0  0  0  0  0  0  0  0  0  0
    9.0706  -16.9652   22.0551 C   0  0  1  0  0  0  0  0  0  0  0  0
    8.4945  -15.6967   22.6350 C   0  0  0  0  0  0  0  0  0  0  0  0
    7.7164  -14.9263   21.6421 C   0  0  0  0  0  0  0  0  0  0  0  0
    6.3181  -14.9260   21.5504 C   0  0  0  0  0  0  0  0  0  0  0  0
    5.9201  -14.1047   20.5640 N   0  0  0  0  0  0  0  0  0  0  0  0
    7.0052  -13.5620   19.9995 C   0  0  0  0  0  0  0  0  0  0  0  0
    7.1101  -12.6692   18.9525 C   0  0  0  0  0  0  0  0  0  0  0  0
    8.3679  -12.2672   18.5524 C   0  0  0  0  0  0  0  0  0  0  0  0
    9.4886  -12.7594   19.1984 C   0  0  0  0  0  0  0  0  0  0  0  0
    9.3513  -13.6531   20.2447 C   0  0  0  0  0  0  0  0  0  0  0  0
    8.1234  -14.0641   20.6589 C   0  0  0  0  0  0  0  0  0  0  0  0
   10.0168  -17.6076   23.0139 C   0  0  0  0  0  0  0  0  0  0  0  0
    9.5937  -18.2798   23.9855 O   0  0  0  0  0  0  0  0  0  0  0  0
   11.4462  -17.4803   22.8609 N   0  0  0  0  0  0  0  0  0  0  0  0
   12.3381  -17.8250   23.9222 C   0  0  1  0  0  0  0  0  0  0  0  0
   13.7717  -17.9534   23.5900 C   0  0  0  0  0  0  0  0  0  0  0  0
   14.1895  -18.3284   22.2331 C   0  0  0  0  0  0  0  0  0  0  0  0
   15.2790  -17.6010   21.6021 C   0  0  0  0  0  0  0  0  0  0  0  0
   15.1390  -17.0515   20.4807 O   0  0  0  0  0  0  0  0  0  0  0  0
   12.0977  -16.9840   25.1416 C   0  0  0  0  0  0  0  0  0  0  0  0
   12.4407  -15.7750   25.1860 O   0  0  0  0  0  0  0  0  0  0  0  0
   16.5504  -17.4622   22.1931 O   0  0  0  0  0  0  0  0  0  0  0  0
   10.8173  -13.6870   28.6642 C   0  0  0  0  0  0  0  0  0  0  0  0
    9.8481  -14.5315   27.9007 C   0  0  1  0  0  0  0  0  0  0  0  0
    8.7784  -13.6723   27.2281 C   0  0  0  0  0  0  0  0  0  0  0  0
   10.4210  -15.5435   27.0079 C   0  0  0  0  0  0  0  0  0  0  0  0
   11.2369  -16.6599   27.5085 C   0  0  2  0  0  0  0  0  0  0  0  0
   11.4723  -17.5188   26.2967 N   0  0  0  0  0  0  0  0  0  0  0  0
   10.7478  -17.5223   28.5549 C   0  0  0  0  0  0  0  0  0  0  0  0
   10.9729  -17.2511   29.7877 O   0  0  0  0  0  0  0  0  0  0  0  0
   10.0179  -18.6680   28.3421 O   0  0  0  0  0  0  0  0  0  0  0  0
  2  1  1  1
  2 13  1  0
  3  2  1  0
  4  3  1  0
  5  4  2  0
  6  5  1  0
  7  6  1  0
  7 12  2  0
  8  7  1  0
  9  8  2  0
  9 10  1  0
 10 11  2  0
 11 12  1  0
 12  4  1  0
 13 14  2  0
 15 13  1  0
 15 16  1  0
 16 17  1  6
 18 17  1  0
 19 23  1  0
 19 18  1  0
 20 19  2  0
 21 16  1  0
 21 22  2  0
 25 24  1  6
 25 27  1  0
 25 26  1  0
 28 27  1  6
 28 29  1  0
 29 21  1  0
 30 28  1  0
 31 30  2  0
 32 30  1  0
M  END
$$$$
