WEL.pdb
     RDKit          3D

 32 33  0  0  1  0  0  0  0  0999 V2000
    6.4161  -17.0286   24.4605 N   0  0  0  0  0  0  0  0  0  0  0  0
    7.6842  -16.4444   24.1107 C   0  0  1  0  0  0  0  0  0  0  0  0
    7.8587  -15.1549   24.8749 C   0  0  0  0  0  0  0  0  0  0  0  0
    7.1305  -14.0289   24.2533 C   0  0  0  0  0  0  0  0  0  0  0  0
    6.0994  -13.3079   24.8702 C   0  0  0  0  0  0  0  0  0  0  0  0
    5.6650  -12.3328   24.0537 N   0  0  0  0  0  0  0  0  0  0  0  0
    6.3716  -12.3834   22.9185 C   0  0  0  0  0  0  0  0  0  0  0  0
    6.2905  -11.5999   21.7854 C   0  0  0  0  0  0  0  0  0  0  0  0
    7.1423  -11.8706   20.7343 C   0  0  0  0  0  0  0  0  0  0  0  0
    8.0516  -12.9094   20.8319 C   0  0  0  0  0  0  0  0  0  0  0  0
    8.1093  -13.6771   21.9806 C   0  0  0  0  0  0  0  0  0  0  0  0
    7.2818  -13.4304   23.0307 C   0  0  0  0  0  0  0  0  0  0  0  0
    8.7502  -17.4252   24.4700 C   0  0  0  0  0  0  0  0  0  0  0  0
    8.6290  -18.1720   25.4713 O   0  0  0  0  0  0  0  0  0  0  0  0
    9.9540  -17.5507   23.6841 N   0  0  0  0  0  0  0  0  0  0  0  0
   11.1578  -18.0702   24.2514 C   0  0  1  0  0  0  0  0  0  0  0  0
   12.3099  -18.2572   23.3459 C   0  0  0  0  0  0  0  0  0  0  0  0
   12.2539  -17.7707   21.9616 C   0  0  0  0  0  0  0  0  0  0  0  0
   13.4123  -17.9501   21.1013 C   0  0  0  0  0  0  0  0  0  0  0  0
   14.0606  -16.9683   20.6597 O   0  0  0  0  0  0  0  0  0  0  0  0
   11.5252  -17.3554   25.5186 C   0  0  0  0  0  0  0  0  0  0  0  0
   12.3278  -16.3873   25.5198 O   0  0  0  0  0  0  0  0  0  0  0  0
   13.8841  -19.2178   20.7069 O   0  0  0  0  0  0  0  0  0  0  0  0
    9.1885  -13.8534   27.9681 C   0  0  0  0  0  0  0  0  0  0  0  0
   10.3547  -14.7390   27.6661 C   0  0  1  0  0  0  0  0  0  0  0  0
   11.6758  -13.9939   27.8520 C   0  0  0  0  0  0  0  0  0  0  0  0
   10.3486  -16.0667   28.2878 C   0  0  0  0  0  0  0  0  0  0  0  0
   11.4084  -17.0550   28.0375 C   0  0  2  0  0  0  0  0  0  0  0  0
   10.9815  -17.7426   26.7699 N   0  0  0  0  0  0  0  0  0  0  0  0
   11.7032  -18.0839   29.0030 C   0  0  0  0  0  0  0  0  0  0  0  0
   11.2515  -19.2744   28.8521 O   0  0  0  0  0  0  0  0  0  0  0  0
   12.4701  -17.8984   30.1291 O   0  0  0  0  0  0  0  0  0  0  0  0
  2  1  1  1
  2 13  1  0
  3  2  1  0
  4  3  1  0
  5  4  2  0
  6  5  1  0
  7  6  1  0
  7 12  2  0
  8  7  1  0
  9  8  2  0
  9 10  1  0
 10 11  2  0
 11 12  1  0
 12  4  1  0
 13 14  2  0
 15 13  1  0
 15 16  1  0
 16 17  1  6
 18 17  1  0
 19 23  1  0
 19 18  1  0
 20 19  2  0
 21 16  1  0
 21 22  2  0
 25 24  1  1
 25 27  1  0
 25 26  1  0
 28 27  1  1
 28 29  1  0
 29 21  1  0
 30 28  1  0
 31 30  2  0
 32 30  1  0
M  END
$$$$
