WEL.pdb
     RDKit          3D

 32 33  0  0  1  0  0  0  0  0999 V2000
    6.1205  -18.9770   23.2694 N   0  0  0  0  0  0  0  0  0  0  0  0
    6.9137  -17.9327   22.6760 C   0  0  1  0  0  0  0  0  0  0  0  0
    6.0918  -16.6689   22.6095 C   0  0  0  0  0  0  0  0  0  0  0  0
    6.4608  -15.8170   21.4593 C   0  0  0  0  0  0  0  0  0  0  0  0
    6.3253  -16.1891   20.1151 C   0  0  0  0  0  0  0  0  0  0  0  0
    6.7226  -15.1846   19.3156 N   0  0  0  0  0  0  0  0  0  0  0  0
    7.1164  -14.1615   20.0829 C   0  0  0  0  0  0  0  0  0  0  0  0
    7.6090  -12.9223   19.7278 C   0  0  0  0  0  0  0  0  0  0  0  0
    7.9548  -12.0386   20.7295 C   0  0  0  0  0  0  0  0  0  0  0  0
    7.8047  -12.4045   22.0558 C   0  0  0  0  0  0  0  0  0  0  0  0
    7.3083  -13.6536   22.3803 C   0  0  0  0  0  0  0  0  0  0  0  0
    6.9592  -14.5422   21.4124 C   0  0  0  0  0  0  0  0  0  0  0  0
    8.1212  -17.7386   23.5313 C   0  0  0  0  0  0  0  0  0  0  0  0
    8.0532  -17.8525   24.7792 O   0  0  0  0  0  0  0  0  0  0  0  0
    9.4055  -17.4139   22.9586 N   0  0  0  0  0  0  0  0  0  0  0  0
   10.5349  -17.1302   23.7862 C   0  0  1  0  0  0  0  0  0  0  0  0
   11.8220  -16.8652   23.1114 C   0  0  0  0  0  0  0  0  0  0  0  0
   13.0349  -16.6090   23.8984 C   0  0  0  0  0  0  0  0  0  0  0  0
   14.2902  -16.3686   23.2052 C   0  0  0  0  0  0  0  0  0  0  0  0
   14.3329  -16.2132   21.9590 O   0  0  0  0  0  0  0  0  0  0  0  0
   10.2085  -16.1088   24.8359 C   0  0  0  0  0  0  0  0  0  0  0  0
    9.9356  -14.9187   24.5347 O   0  0  0  0  0  0  0  0  0  0  0  0
   15.5300  -16.2938   23.8704 O   0  0  0  0  0  0  0  0  0  0  0  0
    6.6675  -13.3322   27.4142 C   0  0  0  0  0  0  0  0  0  0  0  0
    7.9430  -13.6888   26.7203 C   0  0  1  0  0  0  0  0  0  0  0  0
    9.0450  -12.6794   27.0389 C   0  0  0  0  0  0  0  0  0  0  0  0
    8.3854  -15.0818   26.8357 C   0  0  0  0  0  0  0  0  0  0  0  0
    9.7524  -15.4396   27.2427 C   0  0  2  0  0  0  0  0  0  0  0  0
   10.1940  -16.4438   26.2139 N   0  0  0  0  0  0  0  0  0  0  0  0
   10.0117  -16.0141   28.5391 C   0  0  0  0  0  0  0  0  0  0  0  0
   10.2230  -15.2654   29.5583 O   0  0  0  0  0  0  0  0  0  0  0  0
   10.0497  -17.3637   28.7992 O   0  0  0  0  0  0  0  0  0  0  0  0
  2  1  1  1
  2 13  1  0
  3  2  1  0
  4  3  1  0
  5  4  2  0
  6  5  1  0
  7  6  1  0
  7 12  2  0
  8  7  1  0
  9  8  2  0
  9 10  1  0
 10 11  2  0
 11 12  1  0
 12  4  1  0
 13 14  2  0
 15 13  1  0
 15 16  1  0
 16 17  1  6
 18 17  1  0
 19 23  1  0
 19 18  1  0
 20 19  2  0
 21 16  1  0
 21 22  2  0
 25 24  1  1
 25 27  1  0
 25 26  1  0
 28 27  1  1
 28 29  1  0
 29 21  1  0
 30 28  1  0
 31 30  2  0
 32 30  1  0
M  END
$$$$
