WEL.pdb
     RDKit          3D

 32 33  0  0  1  0  0  0  0  0999 V2000
    6.3980  -17.3286   25.0627 N   0  0  0  0  0  0  0  0  0  0  0  0
    7.4834  -16.5122   24.5858 C   0  0  1  0  0  0  0  0  0  0  0  0
    7.8857  -15.5458   25.6727 C   0  0  0  0  0  0  0  0  0  0  0  0
    6.9071  -14.4514   25.8438 C   0  0  0  0  0  0  0  0  0  0  0  0
    5.6552  -14.5895   26.4582 C   0  0  0  0  0  0  0  0  0  0  0  0
    5.0183  -13.4063   26.4798 N   0  0  0  0  0  0  0  0  0  0  0  0
    5.8040  -12.4906   25.9012 C   0  0  0  0  0  0  0  0  0  0  0  0
    5.5884  -11.1453   25.6819 C   0  0  0  0  0  0  0  0  0  0  0  0
    6.5714  -10.4150   25.0461 C   0  0  0  0  0  0  0  0  0  0  0  0
    7.7415  -11.0352   24.6437 C   0  0  0  0  0  0  0  0  0  0  0  0
    7.9286  -12.3851   24.8776 C   0  0  0  0  0  0  0  0  0  0  0  0
    6.9761  -13.1267   25.5029 C   0  0  0  0  0  0  0  0  0  0  0  0
    8.6143  -17.4207   24.2352 C   0  0  0  0  0  0  0  0  0  0  0  0
    8.8798  -18.4231   24.9420 O   0  0  0  0  0  0  0  0  0  0  0  0
    9.4409  -17.1817   23.0766 N   0  0  0  0  0  0  0  0  0  0  0  0
   10.8480  -17.4268   23.1076 C   0  0  1  0  0  0  0  0  0  0  0  0
   11.6299  -17.0482   21.9128 C   0  0  0  0  0  0  0  0  0  0  0  0
   13.0326  -17.4619   21.7807 C   0  0  0  0  0  0  0  0  0  0  0  0
   13.5451  -17.8155   20.4668 C   0  0  0  0  0  0  0  0  0  0  0  0
   14.5766  -17.2733   19.9965 O   0  0  0  0  0  0  0  0  0  0  0  0
   11.4662  -16.9387   24.3848 C   0  0  0  0  0  0  0  0  0  0  0  0
   11.9030  -15.7650   24.4987 O   0  0  0  0  0  0  0  0  0  0  0  0
   12.9315  -18.7764   19.6389 O   0  0  0  0  0  0  0  0  0  0  0  0
    9.3794  -15.3215   28.3914 C   0  0  0  0  0  0  0  0  0  0  0  0
   10.5203  -15.5982   27.4655 C   0  0  1  0  0  0  0  0  0  0  0  0
   11.4624  -14.3984   27.3772 C   0  0  0  0  0  0  0  0  0  0  0  0
   11.2230  -16.8712   27.6524 C   0  0  0  0  0  0  0  0  0  0  0  0
   12.3008  -17.3117   26.7540 C   0  0  2  0  0  0  0  0  0  0  0  0
   11.5836  -17.7824   25.5187 N   0  0  0  0  0  0  0  0  0  0  0  0
   13.2086  -18.3602   27.1466 C   0  0  0  0  0  0  0  0  0  0  0  0
   13.0836  -19.5467   26.6766 O   0  0  0  0  0  0  0  0  0  0  0  0
   14.2566  -18.1958   28.0214 O   0  0  0  0  0  0  0  0  0  0  0  0
  2  1  1  1
  2 13  1  0
  3  2  1  0
  4  3  1  0
  5  4  2  0
  6  5  1  0
  7  6  1  0
  7 12  2  0
  8  7  1  0
  9  8  2  0
  9 10  1  0
 10 11  2  0
 11 12  1  0
 12  4  1  0
 13 14  2  0
 15 13  1  0
 15 16  1  0
 16 17  1  6
 18 17  1  0
 19 23  1  0
 19 18  1  0
 20 19  2  0
 21 16  1  0
 21 22  2  0
 25 24  1  1
 25 27  1  0
 25 26  1  0
 28 27  1  1
 28 29  1  0
 29 21  1  0
 30 28  1  0
 31 30  2  0
 32 30  1  0
M  END
$$$$
