WEL.pdb
     RDKit          3D

 32 33  0  0  1  0  0  0  0  0999 V2000
    5.9883  -17.4723   24.0318 N   0  0  0  0  0  0  0  0  0  0  0  0
    7.3436  -16.9882   24.0574 C   0  0  1  0  0  0  0  0  0  0  0  0
    7.5127  -16.0632   25.2377 C   0  0  0  0  0  0  0  0  0  0  0  0
    6.7381  -14.8132   25.0890 C   0  0  0  0  0  0  0  0  0  0  0  0
    5.6401  -14.4558   25.8830 C   0  0  0  0  0  0  0  0  0  0  0  0
    5.1756  -13.2502   25.5131 N   0  0  0  0  0  0  0  0  0  0  0  0
    5.9268  -12.7975   24.5026 C   0  0  0  0  0  0  0  0  0  0  0  0
    5.8388  -11.6204   23.7876 C   0  0  0  0  0  0  0  0  0  0  0  0
    6.7458  -11.3965   22.7722 C   0  0  0  0  0  0  0  0  0  0  0  0
    7.7154  -12.3432   22.4907 C   0  0  0  0  0  0  0  0  0  0  0  0
    7.7783  -13.5133   23.2249 C   0  0  0  0  0  0  0  0  0  0  0  0
    6.8973  -13.7575   24.2311 C   0  0  0  0  0  0  0  0  0  0  0  0
    8.2459  -18.1712   24.1740 C   0  0  0  0  0  0  0  0  0  0  0  0
    8.1344  -19.1473   23.3931 O   0  0  0  0  0  0  0  0  0  0  0  0
    9.2746  -18.2371   25.1840 N   0  0  0  0  0  0  0  0  0  0  0  0
   10.6543  -18.3458   24.8296 C   0  0  1  0  0  0  0  0  0  0  0  0
   11.0956  -17.6582   23.5989 C   0  0  0  0  0  0  0  0  0  0  0  0
   12.5007  -17.7192   23.1766 C   0  0  0  0  0  0  0  0  0  0  0  0
   12.9637  -16.8240   22.1285 C   0  0  0  0  0  0  0  0  0  0  0  0
   12.6802  -17.0246   20.9209 O   0  0  0  0  0  0  0  0  0  0  0  0
   11.5497  -18.0700   26.0018 C   0  0  0  0  0  0  0  0  0  0  0  0
   12.7945  -18.2343   25.9328 O   0  0  0  0  0  0  0  0  0  0  0  0
   13.7516  -15.6850   22.3874 O   0  0  0  0  0  0  0  0  0  0  0  0
    9.5643  -14.3303   28.9741 C   0  0  0  0  0  0  0  0  0  0  0  0
   10.5807  -15.1261   28.2197 C   0  0  1  0  0  0  0  0  0  0  0  0
   11.4399  -14.2251   27.3338 C   0  0  0  0  0  0  0  0  0  0  0  0
   11.3660  -16.0910   28.9953 C   0  0  0  0  0  0  0  0  0  0  0  0
   11.9450  -17.2992   28.3889 C   0  0  2  0  0  0  0  0  0  0  0  0
   11.0281  -17.6117   27.2385 N   0  0  0  0  0  0  0  0  0  0  0  0
   12.0976  -18.5107   29.1548 C   0  0  0  0  0  0  0  0  0  0  0  0
   12.8333  -18.5352   30.2047 O   0  0  0  0  0  0  0  0  0  0  0  0
   11.4897  -19.7060   28.8507 O   0  0  0  0  0  0  0  0  0  0  0  0
  2  1  1  1
  2 13  1  0
  3  2  1  0
  4  3  1  0
  5  4  2  0
  6  5  1  0
  7  6  1  0
  7 12  2  0
  8  7  1  0
  9  8  2  0
  9 10  1  0
 10 11  2  0
 11 12  1  0
 12  4  1  0
 13 14  2  0
 15 13  1  0
 15 16  1  0
 16 17  1  6
 18 17  1  0
 19 23  1  0
 19 18  1  0
 20 19  2  0
 21 16  1  0
 21 22  2  0
 25 24  1  1
 25 27  1  0
 25 26  1  0
 28 27  1  1
 28 29  1  0
 29 21  1  0
 30 28  1  0
 31 30  2  0
 32 30  1  0
M  END
$$$$
