WEL.pdb
     RDKit          3D

 32 33  0  0  1  0  0  0  0  0999 V2000
    8.8298  -17.5037   20.8363 N   0  0  0  0  0  0  0  0  0  0  0  0
    9.4401  -16.5586   21.7341 C   0  0  1  0  0  0  0  0  0  0  0  0
    8.3648  -15.6875   22.3358 C   0  0  0  0  0  0  0  0  0  0  0  0
    7.7868  -14.7466   21.3532 C   0  0  0  0  0  0  0  0  0  0  0  0
    6.4248  -14.4322   21.2553 C   0  0  0  0  0  0  0  0  0  0  0  0
    6.2286  -13.5268   20.2818 N   0  0  0  0  0  0  0  0  0  0  0  0
    7.4122  -13.2314   19.7318 C   0  0  0  0  0  0  0  0  0  0  0  0
    7.7226  -12.3679   18.7012 C   0  0  0  0  0  0  0  0  0  0  0  0
    9.0418  -12.2509   18.3138 C   0  0  0  0  0  0  0  0  0  0  0  0
   10.0187  -12.9917   18.9561 C   0  0  0  0  0  0  0  0  0  0  0  0
    9.6765  -13.8488   19.9858 C   0  0  0  0  0  0  0  0  0  0  0  0
    8.3844  -13.9815   20.3872 C   0  0  0  0  0  0  0  0  0  0  0  0
   10.1527  -17.3330   22.7924 C   0  0  0  0  0  0  0  0  0  0  0  0
    9.5180  -18.0389   23.6132 O   0  0  0  0  0  0  0  0  0  0  0  0
   11.5906  -17.2990   22.9111 N   0  0  0  0  0  0  0  0  0  0  0  0
   12.2544  -17.8764   24.0367 C   0  0  1  0  0  0  0  0  0  0  0  0
   13.6580  -18.2991   23.8541 C   0  0  0  0  0  0  0  0  0  0  0  0
   14.6295  -17.3975   23.2219 C   0  0  0  0  0  0  0  0  0  0  0  0
   15.2739  -17.8074   21.9846 C   0  0  0  0  0  0  0  0  0  0  0  0
   15.0661  -17.2009   20.9038 O   0  0  0  0  0  0  0  0  0  0  0  0
   12.0510  -17.0583   25.2781 C   0  0  0  0  0  0  0  0  0  0  0  0
   12.4036  -15.8526   25.3375 O   0  0  0  0  0  0  0  0  0  0  0  0
   16.1638  -18.8972   21.9094 O   0  0  0  0  0  0  0  0  0  0  0  0
   10.4309  -13.7955   28.6241 C   0  0  0  0  0  0  0  0  0  0  0  0
    9.5141  -14.7567   27.9377 C   0  0  1  0  0  0  0  0  0  0  0  0
    8.3654  -14.0245   27.2452 C   0  0  0  0  0  0  0  0  0  0  0  0
   10.1445  -15.7734   27.0902 C   0  0  0  0  0  0  0  0  0  0  0  0
   11.1174  -16.7416   27.6183 C   0  0  2  0  0  0  0  0  0  0  0  0
   11.4515  -17.6118   26.4381 N   0  0  0  0  0  0  0  0  0  0  0  0
   10.7716  -17.6169   28.7101 C   0  0  0  0  0  0  0  0  0  0  0  0
   10.0443  -18.6546   28.5142 O   0  0  0  0  0  0  0  0  0  0  0  0
   11.1760  -17.4355   30.0117 O   0  0  0  0  0  0  0  0  0  0  0  0
  2  1  1  6
  2 13  1  0
  3  2  1  0
  4  3  1  0
  5  4  2  0
  6  5  1  0
  7  6  1  0
  7 12  2  0
  8  7  1  0
  9  8  2  0
  9 10  1  0
 10 11  2  0
 11 12  1  0
 12  4  1  0
 13 14  2  0
 15 13  1  0
 15 16  1  0
 16 17  1  6
 18 17  1  0
 19 23  1  0
 19 18  1  0
 20 19  2  0
 21 16  1  0
 21 22  2  0
 25 24  1  6
 25 27  1  0
 25 26  1  0
 28 27  1  6
 28 29  1  0
 29 21  1  0
 30 28  1  0
 31 30  2  0
 32 30  1  0
M  END
$$$$
