WEL.pdb
     RDKit          3D

 32 33  0  0  1  0  0  0  0  0999 V2000
    8.3896  -17.5798   20.7229 N   0  0  0  0  0  0  0  0  0  0  0  0
    8.8612  -16.5214   21.5768 C   0  0  1  0  0  0  0  0  0  0  0  0
    7.6959  -15.6417   21.9582 C   0  0  0  0  0  0  0  0  0  0  0  0
    7.2156  -14.8211   20.8266 C   0  0  0  0  0  0  0  0  0  0  0  0
    5.9874  -15.0001   20.1760 C   0  0  0  0  0  0  0  0  0  0  0  0
    5.8377  -14.0780   19.2100 N   0  0  0  0  0  0  0  0  0  0  0  0
    6.9232  -13.2956   19.1979 C   0  0  0  0  0  0  0  0  0  0  0  0
    7.2364  -12.2224   18.3888 C   0  0  0  0  0  0  0  0  0  0  0  0
    8.4438  -11.5826   18.5805 C   0  0  0  0  0  0  0  0  0  0  0  0
    9.3094  -12.0216   19.5671 C   0  0  0  0  0  0  0  0  0  0  0  0
    8.9674  -13.1000   20.3623 C   0  0  0  0  0  0  0  0  0  0  0  0
    7.7836  -13.7470   20.1946 C   0  0  0  0  0  0  0  0  0  0  0  0
    9.4715  -17.1506   22.7846 C   0  0  0  0  0  0  0  0  0  0  0  0
    8.7547  -17.6772   23.6699 O   0  0  0  0  0  0  0  0  0  0  0  0
   10.9013  -17.1768   22.9790 N   0  0  0  0  0  0  0  0  0  0  0  0
   11.4729  -17.6156   24.2126 C   0  0  1  0  0  0  0  0  0  0  0  0
   12.8763  -18.0760   24.1851 C   0  0  0  0  0  0  0  0  0  0  0  0
   13.5247  -18.5572   25.4116 C   0  0  0  0  0  0  0  0  0  0  0  0
   14.5779  -19.5546   25.3103 C   0  0  0  0  0  0  0  0  0  0  0  0
   14.9676  -19.9873   24.1967 O   0  0  0  0  0  0  0  0  0  0  0  0
   11.2020  -16.6442   25.3239 C   0  0  0  0  0  0  0  0  0  0  0  0
   11.8146  -15.5490   25.4053 O   0  0  0  0  0  0  0  0  0  0  0  0
   15.2270  -20.0996   26.4358 O   0  0  0  0  0  0  0  0  0  0  0  0
    7.3145  -13.5468   26.6143 C   0  0  0  0  0  0  0  0  0  0  0  0
    8.6981  -14.1062   26.7060 C   0  0  1  0  0  0  0  0  0  0  0  0
    9.6941  -13.0420   27.1646 C   0  0  0  0  0  0  0  0  0  0  0  0
    8.8452  -15.3793   27.4181 C   0  0  0  0  0  0  0  0  0  0  0  0
   10.1438  -16.0556   27.5559 C   0  0  2  0  0  0  0  0  0  0  0  0
   10.2420  -16.9215   26.3303 N   0  0  0  0  0  0  0  0  0  0  0  0
   10.4239  -16.8938   28.6946 C   0  0  0  0  0  0  0  0  0  0  0  0
   10.2171  -18.1583   28.6455 O   0  0  0  0  0  0  0  0  0  0  0  0
   10.9247  -16.4392   29.8918 O   0  0  0  0  0  0  0  0  0  0  0  0
  2  1  1  6
  2 13  1  0
  3  2  1  0
  4  3  1  0
  5  4  2  0
  6  5  1  0
  7  6  1  0
  7 12  2  0
  8  7  1  0
  9  8  2  0
  9 10  1  0
 10 11  2  0
 11 12  1  0
 12  4  1  0
 13 14  2  0
 15 13  1  0
 15 16  1  0
 16 17  1  6
 18 17  1  0
 19 23  1  0
 19 18  1  0
 20 19  2  0
 21 16  1  0
 21 22  2  0
 25 24  1  1
 25 27  1  0
 25 26  1  0
 28 27  1  1
 28 29  1  0
 29 21  1  0
 30 28  1  0
 31 30  2  0
 32 30  1  0
M  END
$$$$
