FTG.pdb
     RDKit          3D

 23 23  0  0  1  0  0  0  0  0999 V2000
   36.2355   -4.6000  -16.3749 N   0  0  0  0  0  0  0  0  0  0  0  0
   35.1167   -5.4901  -16.4796 C   0  0  1  0  0  0  0  0  0  0  0  0
   34.4880   -5.6193  -15.1164 C   0  0  0  0  0  0  0  0  0  0  0  0
   35.3367   -6.2776  -14.1354 C   0  0  0  0  0  0  0  0  0  0  0  0
   35.3740   -7.6560  -14.0674 C   0  0  0  0  0  0  0  0  0  0  0  0
   36.1617   -8.3395  -13.1555 C   0  0  0  0  0  0  0  0  0  0  0  0
   36.9532   -7.6240  -12.2649 C   0  0  0  0  0  0  0  0  0  0  0  0
   36.9371   -6.2444  -12.3087 C   0  0  0  0  0  0  0  0  0  0  0  0
   36.1424   -5.5942  -13.2280 C   0  0  0  0  0  0  0  0  0  0  0  0
   34.1471   -4.9885  -17.4608 C   0  0  0  0  0  0  0  0  0  0  0  0
   34.1389   -3.7617  -17.7910 O   0  0  0  0  0  0  0  0  0  0  0  0
   31.0730   -5.8727  -21.2515 C   0  0  0  0  0  0  0  0  0  0  0  0
   31.9802   -6.3715  -20.1568 C   0  0  1  0  0  0  0  0  0  0  0  0
   33.1785   -6.8418  -20.6782 O   0  0  0  0  0  0  0  0  0  0  0  0
   32.2828   -5.2908  -19.1397 C   0  0  2  0  0  0  0  0  0  0  0  0
   33.1731   -5.8082  -18.0981 N   0  0  0  0  0  0  0  0  0  0  0  0
   31.0649   -4.7578  -18.4848 C   0  0  0  0  0  0  0  0  0  0  0  0
   30.5107   -5.4660  -17.6000 O   0  0  0  0  0  0  0  0  0  0  0  0
   30.4850   -3.4982  -18.7928 N   0  0  0  0  0  0  0  0  0  0  0  0
   29.3301   -3.0548  -18.0433 C   0  0  0  0  0  0  0  0  0  0  0  0
   28.0698   -3.6070  -18.6411 C   0  0  0  0  0  0  0  0  0  0  0  0
   28.0617   -4.2364  -19.7147 O   0  0  0  0  0  0  0  0  0  0  0  0
   26.8656   -3.4148  -17.9815 O   0  0  0  0  0  0  0  0  0  0  0  0
  2  1  1  1
  2 10  1  0
  3  2  1  0
  4  5  2  0
  4  3  1  0
  6  5  1  0
  7  6  2  0
  8  7  1  0
  8  9  2  0
  9  4  1  0
 10 11  2  0
 10 16  1  0
 13 12  1  6
 13 14  1  0
 15 13  1  0
 15 16  1  1
 17 15  1  0
 17 18  2  0
 19 17  1  0
 20 19  1  0
 20 21  1  0
 21 23  1  0
 22 21  2  0
M  END
$$$$
