FTG.pdb
     RDKit          3D

 23 23  0  0  1  0  0  0  0  0999 V2000
   28.3103  -21.2342   -8.7308 N   0  0  0  0  0  0  0  0  0  0  0  0
   26.9370  -20.8264   -8.6780 C   0  0  1  0  0  0  0  0  0  0  0  0
   26.8428  -19.5993   -7.8089 C   0  0  0  0  0  0  0  0  0  0  0  0
   27.3822  -19.7816   -6.4703 C   0  0  0  0  0  0  0  0  0  0  0  0
   28.6144  -19.2518   -6.1432 C   0  0  0  0  0  0  0  0  0  0  0  0
   29.1800  -19.3921   -4.8864 C   0  0  0  0  0  0  0  0  0  0  0  0
   28.4924  -20.0921   -3.9020 C   0  0  0  0  0  0  0  0  0  0  0  0
   27.2579  -20.6336   -4.1991 C   0  0  0  0  0  0  0  0  0  0  0  0
   26.7226  -20.4762   -5.4594 C   0  0  0  0  0  0  0  0  0  0  0  0
   26.4258  -20.5563  -10.0271 C   0  0  0  0  0  0  0  0  0  0  0  0
   27.2186  -20.2265  -10.9636 O   0  0  0  0  0  0  0  0  0  0  0  0
   26.7982  -21.2239  -12.6299 C   0  0  0  0  0  0  0  0  0  0  0  0
   25.3025  -21.3946  -12.6927 C   0  0  1  0  0  0  0  0  0  0  0  0
   24.9354  -22.6953  -12.3728 O   0  0  0  0  0  0  0  0  0  0  0  0
   24.5870  -20.4427  -11.7567 C   0  0  2  0  0  0  0  0  0  0  0  0
   25.0494  -20.6394  -10.3809 N   0  0  0  0  0  0  0  0  0  0  0  0
   23.1147  -20.6101  -11.7786 C   0  0  0  0  0  0  0  0  0  0  0  0
   22.5177  -20.7420  -10.6749 O   0  0  0  0  0  0  0  0  0  0  0  0
   22.3358  -20.6303  -12.9663 N   0  0  0  0  0  0  0  0  0  0  0  0
   20.8968  -20.7302  -12.8607 C   0  0  0  0  0  0  0  0  0  0  0  0
   20.2330  -19.6517  -13.6650 C   0  0  0  0  0  0  0  0  0  0  0  0
   20.2095  -19.6672  -14.9091 O   0  0  0  0  0  0  0  0  0  0  0  0
   19.6207  -18.5954  -13.0079 O   0  0  0  0  0  0  0  0  0  0  0  0
  2  1  1  6
  2 10  1  0
  3  2  1  0
  4  5  2  0
  4  3  1  0
  6  5  1  0
  7  6  2  0
  8  7  1  0
  8  9  2  0
  9  4  1  0
 10 11  2  0
 10 16  1  0
 13 12  1  1
 13 14  1  0
 15 13  1  0
 15 16  1  1
 17 15  1  0
 17 18  2  0
 19 17  1  0
 20 19  1  0
 20 21  1  0
 21 23  1  0
 22 21  2  0
M  END
$$$$
