FTG.pdb
     RDKit          3D

 23 23  0  0  1  0  0  0  0  0999 V2000
   21.9060  -13.6703  -18.1814 N   0  0  0  0  0  0  0  0  0  0  0  0
   21.3247  -12.3965  -18.4890 C   0  0  1  0  0  0  0  0  0  0  0  0
   19.8308  -12.5093  -18.3290 C   0  0  0  0  0  0  0  0  0  0  0  0
   19.2017  -13.4108  -19.2816 C   0  0  0  0  0  0  0  0  0  0  0  0
   19.0735  -13.0386  -20.6050 C   0  0  0  0  0  0  0  0  0  0  0  0
   18.4842  -13.8532  -21.5580 C   0  0  0  0  0  0  0  0  0  0  0  0
   17.9965  -15.0998  -21.1841 C   0  0  0  0  0  0  0  0  0  0  0  0
   18.1104  -15.4999  -19.8679 C   0  0  0  0  0  0  0  0  0  0  0  0
   18.7020  -14.6660  -18.9438 C   0  0  0  0  0  0  0  0  0  0  0  0
   21.8707  -11.3538  -17.6121 C   0  0  0  0  0  0  0  0  0  0  0  0
   22.3640  -11.6551  -16.4807 O   0  0  0  0  0  0  0  0  0  0  0  0
   24.1392   -7.1257  -16.8531 C   0  0  0  0  0  0  0  0  0  0  0  0
   23.6011   -8.2394  -17.7136 C   0  0  1  0  0  0  0  0  0  0  0  0
   24.5937   -9.1648  -18.0092 O   0  0  0  0  0  0  0  0  0  0  0  0
   22.4474   -8.9593  -17.0468 C   0  0  2  0  0  0  0  0  0  0  0  0
   21.8903   -9.9705  -17.9481 N   0  0  0  0  0  0  0  0  0  0  0  0
   21.3528   -8.0453  -16.6436 C   0  0  0  0  0  0  0  0  0  0  0  0
   20.6477   -7.5289  -17.5535 O   0  0  0  0  0  0  0  0  0  0  0  0
   21.0496   -7.7165  -15.2954 N   0  0  0  0  0  0  0  0  0  0  0  0
   19.9952   -6.7640  -15.0250 C   0  0  0  0  0  0  0  0  0  0  0  0
   20.5364   -5.3648  -15.0234 C   0  0  0  0  0  0  0  0  0  0  0  0
   21.7513   -5.1202  -15.1365 O   0  0  0  0  0  0  0  0  0  0  0  0
   19.6596   -4.2988  -14.8919 O   0  0  0  0  0  0  0  0  0  0  0  0
  2  1  1  1
  2 10  1  0
  3  2  1  0
  4  5  2  0
  4  3  1  0
  6  5  1  0
  7  6  2  0
  8  7  1  0
  8  9  2  0
  9  4  1  0
 10 11  2  0
 10 16  1  0
 13 12  1  1
 13 14  1  0
 15 13  1  0
 15 16  1  6
 17 15  1  0
 17 18  2  0
 19 17  1  0
 20 19  1  0
 20 21  1  0
 21 23  1  0
 22 21  2  0
M  END
$$$$
