FTG.pdb
     RDKit          3D

 23 23  0  0  1  0  0  0  0  0999 V2000
   27.8653  -21.6947  -13.2448 N   0  0  0  0  0  0  0  0  0  0  0  0
   26.8616  -21.1598  -12.3722 C   0  0  1  0  0  0  0  0  0  0  0  0
   27.4888  -20.0663  -11.5469 C   0  0  0  0  0  0  0  0  0  0  0  0
   28.3513  -20.5524  -10.4812 C   0  0  0  0  0  0  0  0  0  0  0  0
   29.6719  -20.8569  -10.7450 C   0  0  0  0  0  0  0  0  0  0  0  0
   30.5413  -21.3233   -9.7725 C   0  0  0  0  0  0  0  0  0  0  0  0
   30.0822  -21.4977   -8.4724 C   0  0  0  0  0  0  0  0  0  0  0  0
   28.7664  -21.2016   -8.1778 C   0  0  0  0  0  0  0  0  0  0  0  0
   27.9267  -20.7394   -9.1681 C   0  0  0  0  0  0  0  0  0  0  0  0
   25.7235  -20.6487  -13.1453 C   0  0  0  0  0  0  0  0  0  0  0  0
   25.9140  -19.9740  -14.2048 O   0  0  0  0  0  0  0  0  0  0  0  0
   22.1256  -21.5061  -15.7622 C   0  0  0  0  0  0  0  0  0  0  0  0
   23.3584  -21.5626  -14.8978 C   0  0  1  0  0  0  0  0  0  0  0  0
   24.4955  -21.2465  -15.6301 O   0  0  0  0  0  0  0  0  0  0  0  0
   23.2621  -20.6192  -13.7168 C   0  0  2  0  0  0  0  0  0  0  0  0
   24.3635  -20.8611  -12.7820 N   0  0  0  0  0  0  0  0  0  0  0  0
   21.9868  -20.7531  -12.9741 C   0  0  0  0  0  0  0  0  0  0  0  0
   21.8877  -21.6874  -12.1321 O   0  0  0  0  0  0  0  0  0  0  0  0
   20.8705  -19.8930  -13.1526 N   0  0  0  0  0  0  0  0  0  0  0  0
   19.6758  -20.1215  -12.3699 C   0  0  0  0  0  0  0  0  0  0  0  0
   18.7461  -21.0553  -13.0871 C   0  0  0  0  0  0  0  0  0  0  0  0
   18.9947  -21.5015  -14.2219 O   0  0  0  0  0  0  0  0  0  0  0  0
   17.5650  -21.4411  -12.4720 O   0  0  0  0  0  0  0  0  0  0  0  0
  2  1  1  6
  2 10  1  0
  3  2  1  0
  4  5  2  0
  4  3  1  0
  6  5  1  0
  7  6  2  0
  8  7  1  0
  8  9  2  0
  9  4  1  0
 10 11  2  0
 10 16  1  0
 13 12  1  6
 13 14  1  0
 15 13  1  0
 15 16  1  1
 17 15  1  0
 17 18  2  0
 19 17  1  0
 20 19  1  0
 20 21  1  0
 21 23  1  0
 22 21  2  0
M  END
$$$$
