FTG.pdb
     RDKit          3D

 23 23  0  0  1  0  0  0  0  0999 V2000
   28.2452  -21.3991   -9.2369 N   0  0  0  0  0  0  0  0  0  0  0  0
   26.9489  -20.7925   -9.1566 C   0  0  1  0  0  0  0  0  0  0  0  0
   27.0782  -19.5046   -8.3855 C   0  0  0  0  0  0  0  0  0  0  0  0
   27.5066  -19.6828   -7.0069 C   0  0  0  0  0  0  0  0  0  0  0  0
   28.6928  -19.1247   -6.5737 C   0  0  0  0  0  0  0  0  0  0  0  0
   29.1531  -19.2597   -5.2741 C   0  0  0  0  0  0  0  0  0  0  0  0
   28.4027  -19.9836   -4.3551 C   0  0  0  0  0  0  0  0  0  0  0  0
   27.2120  -20.5536   -4.7587 C   0  0  0  0  0  0  0  0  0  0  0  0
   26.7816  -20.4008   -6.0590 C   0  0  0  0  0  0  0  0  0  0  0  0
   26.4076  -20.5499  -10.4992 C   0  0  0  0  0  0  0  0  0  0  0  0
   27.1328  -20.0290  -11.4030 O   0  0  0  0  0  0  0  0  0  0  0  0
   26.1022  -22.3351  -13.1978 C   0  0  0  0  0  0  0  0  0  0  0  0
   24.6779  -21.8575  -13.0825 C   0  0  1  0  0  0  0  0  0  0  0  0
   23.8649  -22.8418  -12.5355 O   0  0  0  0  0  0  0  0  0  0  0  0
   24.5695  -20.6087  -12.2323 C   0  0  2  0  0  0  0  0  0  0  0  0
   25.0738  -20.8680  -10.8818 N   0  0  0  0  0  0  0  0  0  0  0  0
   23.1797  -20.1070  -12.1189 C   0  0  0  0  0  0  0  0  0  0  0  0
   22.6274  -20.1451  -10.9852 O   0  0  0  0  0  0  0  0  0  0  0  0
   22.4329  -19.5856  -13.2090 N   0  0  0  0  0  0  0  0  0  0  0  0
   21.1305  -19.0093  -12.9561 C   0  0  0  0  0  0  0  0  0  0  0  0
   20.0532  -20.0349  -13.1513 C   0  0  0  0  0  0  0  0  0  0  0  0
   20.3036  -21.2126  -13.4662 O   0  0  0  0  0  0  0  0  0  0  0  0
   18.7277  -19.6676  -12.9768 O   0  0  0  0  0  0  0  0  0  0  0  0
  2  1  1  6
  2 10  1  0
  3  2  1  0
  4  5  2  0
  4  3  1  0
  6  5  1  0
  7  6  2  0
  8  7  1  0
  8  9  2  0
  9  4  1  0
 10 11  2  0
 10 16  1  0
 13 12  1  1
 13 14  1  0
 15 13  1  0
 15 16  1  1
 17 15  1  0
 17 18  2  0
 19 17  1  0
 20 19  1  0
 20 21  1  0
 21 23  1  0
 22 21  2  0
M  END
$$$$
