FTG.pdb
     RDKit          3D

 23 23  0  0  1  0  0  0  0  0999 V2000
   25.9782   -8.1814  -18.2486 N   0  0  0  0  0  0  0  0  0  0  0  0
   24.9267   -8.4980  -17.3273 C   0  0  1  0  0  0  0  0  0  0  0  0
   25.5352   -8.6757  -15.9605 C   0  0  0  0  0  0  0  0  0  0  0  0
   26.4072   -9.8346  -15.8490 C   0  0  0  0  0  0  0  0  0  0  0  0
   25.8776  -11.0710  -15.5374 C   0  0  0  0  0  0  0  0  0  0  0  0
   26.6564  -12.2104  -15.4174 C   0  0  0  0  0  0  0  0  0  0  0  0
   28.0294  -12.1235  -15.6156 C   0  0  0  0  0  0  0  0  0  0  0  0
   28.5882  -10.9007  -15.9284 C   0  0  0  0  0  0  0  0  0  0  0  0
   27.7857   -9.7858  -16.0404 C   0  0  0  0  0  0  0  0  0  0  0  0
   23.9114   -7.4381  -17.3176 C   0  0  0  0  0  0  0  0  0  0  0  0
   24.2499   -6.2214  -17.1789 O   0  0  0  0  0  0  0  0  0  0  0  0
   22.2981   -5.8540  -19.8447 C   0  0  0  0  0  0  0  0  0  0  0  0
   21.1532   -6.3886  -19.0240 C   0  0  1  0  0  0  0  0  0  0  0  0
   20.6950   -7.5961  -19.5348 O   0  0  0  0  0  0  0  0  0  0  0  0
   21.5448   -6.5904  -17.5749 C   0  0  2  0  0  0  0  0  0  0  0  0
   22.5156   -7.6808  -17.4578 N   0  0  0  0  0  0  0  0  0  0  0  0
   20.3882   -6.9049  -16.7033 C   0  0  0  0  0  0  0  0  0  0  0  0
   20.1308   -8.1191  -16.4770 O   0  0  0  0  0  0  0  0  0  0  0  0
   19.5532   -5.9224  -16.1075 N   0  0  0  0  0  0  0  0  0  0  0  0
   18.4410   -6.3497  -15.2875 C   0  0  0  0  0  0  0  0  0  0  0  0
   18.9190   -6.7746  -13.9305 C   0  0  0  0  0  0  0  0  0  0  0  0
   20.1264   -6.8126  -13.6311 O   0  0  0  0  0  0  0  0  0  0  0  0
   17.9903   -7.1399  -12.9680 O   0  0  0  0  0  0  0  0  0  0  0  0
  2  1  1  6
  2 10  1  0
  3  2  1  0
  4  5  2  0
  4  3  1  0
  6  5  1  0
  7  6  2  0
  8  7  1  0
  8  9  2  0
  9  4  1  0
 10 11  2  0
 10 16  1  0
 13 12  1  6
 13 14  1  0
 15 13  1  0
 15 16  1  6
 17 15  1  0
 17 18  2  0
 19 17  1  0
 20 19  1  0
 20 21  1  0
 21 23  1  0
 22 21  2  0
M  END
$$$$
