KYI.pdb
     RDKit          3D

 30 30  0  0  1  0  0  0  0  0999 V2000
    7.0092  -19.5017   20.9836 N   0  0  0  0  0  0  0  0  0  0  0  0
    6.6186  -18.4661   21.9411 C   0  0  1  0  0  0  0  0  0  0  0  0
    6.1833  -19.0826   23.2372 C   0  0  0  0  0  0  0  0  0  0  0  0
    6.1476  -20.5701   23.1872 C   0  0  0  0  0  0  0  0  0  0  0  0
    6.6362  -21.1478   24.5215 C   0  0  0  0  0  0  0  0  0  0  0  0
    6.6182  -22.6448   24.5404 C   0  0  0  0  0  0  0  0  0  0  0  0
    7.2072  -23.0893   25.7997 N   0  0  0  0  0  0  0  0  0  0  0  0
    7.7172  -17.4719   22.0870 C   0  0  0  0  0  0  0  0  0  0  0  0
    8.9159  -17.7015   21.7980 O   0  0  0  0  0  0  0  0  0  0  0  0
    7.9942  -13.7236   16.3572 O   0  0  0  0  0  0  0  0  0  0  0  0
    7.9821  -13.7426   17.7555 C   0  0  0  0  0  0  0  0  0  0  0  0
    7.0013  -13.1099   18.4804 C   0  0  0  0  0  0  0  0  0  0  0  0
    6.9725  -13.1178   19.8777 C   0  0  0  0  0  0  0  0  0  0  0  0
    7.9730  -13.7904   20.5402 C   0  0  0  0  0  0  0  0  0  0  0  0
    7.9940  -13.8335   21.9994 C   0  0  0  0  0  0  0  0  0  0  0  0
    8.4982  -15.1110   22.5975 C   0  0  2  0  0  0  0  0  0  0  0  0
    7.4568  -16.1488   22.5837 N   0  0  0  0  0  0  0  0  0  0  0  0
    9.0288  -15.0128   23.9517 C   0  0  0  0  0  0  0  0  0  0  0  0
   10.0067  -14.2653   24.2772 O   0  0  0  0  0  0  0  0  0  0  0  0
    8.9650  -14.4306   19.8187 C   0  0  0  0  0  0  0  0  0  0  0  0
    8.9755  -14.4107   18.4263 C   0  0  0  0  0  0  0  0  0  0  0  0
    6.2556  -12.6521   27.1156 C   0  0  0  0  0  0  0  0  0  0  0  0
    6.8076  -13.9055   26.5334 C   0  0  0  0  0  0  0  0  0  0  0  0
    8.2763  -14.1177   26.6803 C   0  0  2  0  0  0  0  0  0  0  0  0
    8.9648  -13.1015   25.7673 C   0  0  0  0  0  0  0  0  0  0  0  0
    8.7590  -15.5155   26.3910 C   0  0  2  0  0  0  0  0  0  0  0  0
    8.4476  -15.7774   24.9994 N   0  0  0  0  0  0  0  0  0  0  0  0
    8.2282  -16.5034   27.3210 C   0  0  0  0  0  0  0  0  0  0  0  0
    8.5470  -16.6412   28.6579 O   0  0  0  0  0  0  0  0  0  0  0  0
    7.3723  -17.3500   26.8876 O   0  0  0  0  0  0  0  0  0  0  0  0
  2  1  1  6
  3  4  1  0
  3  2  1  0
  5  6  1  0
  5  4  1  0
  6  7  1  0
  8  9  2  0
  8  2  1  0
 10 11  1  0
 11 12  2  0
 12 13  1  0
 14 13  2  0
 14 15  1  0
 16 15  1  1
 16 17  1  0
 17  8  1  0
 18 16  1  0
 18 19  2  0
 20 14  1  0
 21 11  1  0
 21 20  2  0
 23 22  1  0
 24 23  1  0
 24 26  1  0
 24 25  1  6
 26 27  1  6
 27 18  1  0
 28 29  1  0
 28 26  1  0
 30 28  2  0
M  END
$$$$
