KYI.pdb
     RDKit          3D

 30 30  0  0  1  0  0  0  0  0999 V2000
   11.6984  -16.8825   19.5434 N   0  0  0  0  0  0  0  0  0  0  0  0
   10.7005  -17.5217   20.4020 C   0  0  1  0  0  0  0  0  0  0  0  0
   11.0927  -18.9374   20.7039 C   0  0  0  0  0  0  0  0  0  0  0  0
   10.7878  -19.8730   19.5867 C   0  0  0  0  0  0  0  0  0  0  0  0
   11.2272  -21.2937   19.9628 C   0  0  0  0  0  0  0  0  0  0  0  0
   11.0184  -22.2732   18.8497 C   0  0  0  0  0  0  0  0  0  0  0  0
   11.5199  -23.5716   19.2886 N   0  0  0  0  0  0  0  0  0  0  0  0
   10.4699  -16.6898   21.6151 C   0  0  0  0  0  0  0  0  0  0  0  0
   11.3318  -15.9329   22.1225 O   0  0  0  0  0  0  0  0  0  0  0  0
    5.9163  -11.6224   27.2942 O   0  0  0  0  0  0  0  0  0  0  0  0
    6.3077  -12.5257   26.3010 C   0  0  0  0  0  0  0  0  0  0  0  0
    6.9583  -12.1144   25.1630 C   0  0  0  0  0  0  0  0  0  0  0  0
    7.3571  -13.0020   24.1597 C   0  0  0  0  0  0  0  0  0  0  0  0
    7.0801  -14.3382   24.3325 C   0  0  0  0  0  0  0  0  0  0  0  0
    7.4737  -15.3118   23.3183 C   0  0  0  0  0  0  0  0  0  0  0  0
    8.8993  -15.7671   23.3833 C   0  0  2  0  0  0  0  0  0  0  0  0
    9.2043  -16.7082   22.2954 N   0  0  0  0  0  0  0  0  0  0  0  0
    9.3165  -16.3720   24.6423 C   0  0  0  0  0  0  0  0  0  0  0  0
    9.3037  -17.6256   24.8648 O   0  0  0  0  0  0  0  0  0  0  0  0
    6.4252  -14.7619   25.4754 C   0  0  0  0  0  0  0  0  0  0  0  0
    6.0362  -13.8610   26.4635 C   0  0  0  0  0  0  0  0  0  0  0  0
   10.1556  -12.6289   28.6581 C   0  0  0  0  0  0  0  0  0  0  0  0
   10.4837  -13.7039   27.6828 C   0  0  0  0  0  0  0  0  0  0  0  0
   10.0038  -15.0757   28.0170 C   0  0  2  0  0  0  0  0  0  0  0  0
   10.6741  -15.4714   29.3340 C   0  0  0  0  0  0  0  0  0  0  0  0
   10.2418  -16.1194   26.9566 C   0  0  2  0  0  0  0  0  0  0  0  0
    9.7731  -15.5501   25.7081 N   0  0  0  0  0  0  0  0  0  0  0  0
    9.6515  -17.4097   27.2870 C   0  0  0  0  0  0  0  0  0  0  0  0
    8.3715  -17.8374   26.9922 O   0  0  0  0  0  0  0  0  0  0  0  0
   10.3664  -18.2633   27.9172 O   0  0  0  0  0  0  0  0  0  0  0  0
  2  1  1  1
  3  4  1  0
  3  2  1  0
  5  6  1  0
  5  4  1  0
  6  7  1  0
  8  9  2  0
  8  2  1  0
 10 11  1  0
 11 12  2  0
 12 13  1  0
 14 13  2  0
 14 15  1  0
 16 15  1  1
 16 17  1  0
 17  8  1  0
 18 16  1  0
 18 19  2  0
 20 14  1  0
 21 11  1  0
 21 20  2  0
 23 22  1  0
 24 23  1  0
 24 26  1  0
 24 25  1  1
 26 27  1  6
 27 18  1  0
 28 29  1  0
 28 26  1  0
 30 28  2  0
M  END
$$$$
