KYI.pdb
     RDKit          3D

 30 30  0  0  1  0  0  0  0  0999 V2000
   10.6484  -18.0494   19.9899 N   0  0  0  0  0  0  0  0  0  0  0  0
   10.0673  -18.4025   21.2857 C   0  0  1  0  0  0  0  0  0  0  0  0
   10.8428  -19.5148   21.9267 C   0  0  0  0  0  0  0  0  0  0  0  0
   11.1015  -20.6494   20.9983 C   0  0  0  0  0  0  0  0  0  0  0  0
   12.5920  -21.0110   21.0207 C   0  0  0  0  0  0  0  0  0  0  0  0
   12.8974  -22.2391   20.2204 C   0  0  0  0  0  0  0  0  0  0  0  0
   14.3340  -22.4848   20.2977 N   0  0  0  0  0  0  0  0  0  0  0  0
    9.9479  -17.1854   22.1350 C   0  0  0  0  0  0  0  0  0  0  0  0
   10.8234  -16.2901   22.2072 O   0  0  0  0  0  0  0  0  0  0  0  0
    5.9754  -10.8938   27.0391 O   0  0  0  0  0  0  0  0  0  0  0  0
    6.2511  -12.0437   26.2925 C   0  0  0  0  0  0  0  0  0  0  0  0
    5.8023  -13.2834   26.6789 C   0  0  0  0  0  0  0  0  0  0  0  0
    6.0677  -14.4436   25.9461 C   0  0  0  0  0  0  0  0  0  0  0  0
    6.8092  -14.3238   24.7938 C   0  0  0  0  0  0  0  0  0  0  0  0
    7.1169  -15.5011   23.9870 C   0  0  0  0  0  0  0  0  0  0  0  0
    8.5633  -15.6848   23.6434 C   0  0  2  0  0  0  0  0  0  0  0  0
    8.7837  -16.9608   22.9469 N   0  0  0  0  0  0  0  0  0  0  0  0
    9.4969  -15.6056   24.7602 C   0  0  0  0  0  0  0  0  0  0  0  0
   10.2179  -14.5864   25.0103 O   0  0  0  0  0  0  0  0  0  0  0  0
    7.2655  -13.0793   24.3966 C   0  0  0  0  0  0  0  0  0  0  0  0
    6.9901  -11.9353   25.1413 C   0  0  0  0  0  0  0  0  0  0  0  0
    9.0731  -13.2093   28.2227 C   0  0  0  0  0  0  0  0  0  0  0  0
    9.7375  -14.1995   27.3324 C   0  0  0  0  0  0  0  0  0  0  0  0
    9.6662  -15.6280   27.7546 C   0  0  2  0  0  0  0  0  0  0  0  0
   10.1837  -15.6919   29.1927 C   0  0  0  0  0  0  0  0  0  0  0  0
   10.4060  -16.5999   26.8722 C   0  0  2  0  0  0  0  0  0  0  0  0
    9.6388  -16.7074   25.6466 N   0  0  0  0  0  0  0  0  0  0  0  0
   10.6715  -17.8736   27.5278 C   0  0  0  0  0  0  0  0  0  0  0  0
    9.9852  -19.0588   27.3489 O   0  0  0  0  0  0  0  0  0  0  0  0
   11.6368  -17.9383   28.3652 O   0  0  0  0  0  0  0  0  0  0  0  0
  2  1  1  6
  3  4  1  0
  3  2  1  0
  5  6  1  0
  5  4  1  0
  6  7  1  0
  8  9  2  0
  8  2  1  0
 10 11  1  0
 11 12  2  0
 12 13  1  0
 14 13  2  0
 14 15  1  0
 16 15  1  1
 16 17  1  0
 17  8  1  0
 18 16  1  0
 18 19  2  0
 20 14  1  0
 21 11  1  0
 21 20  2  0
 23 22  1  0
 24 23  1  0
 24 26  1  0
 24 25  1  1
 26 27  1  6
 27 18  1  0
 28 29  1  0
 28 26  1  0
 30 28  2  0
M  END
$$$$
