KYI.pdb
     RDKit          3D

 30 30  0  0  1  0  0  0  0  0999 V2000
    6.9511  -18.0021   21.1644 N   0  0  0  0  0  0  0  0  0  0  0  0
    8.3919  -17.9293   20.9188 C   0  0  1  0  0  0  0  0  0  0  0  0
    8.7093  -18.3418   19.5123 C   0  0  0  0  0  0  0  0  0  0  0  0
    8.3166  -19.7476   19.2191 C   0  0  0  0  0  0  0  0  0  0  0  0
    6.9062  -19.7794   18.6169 C   0  0  0  0  0  0  0  0  0  0  0  0
    6.4893  -21.1564   18.2023 C   0  0  0  0  0  0  0  0  0  0  0  0
    5.1564  -21.0687   17.6143 N   0  0  0  0  0  0  0  0  0  0  0  0
    8.8983  -16.5759   21.2774 C   0  0  0  0  0  0  0  0  0  0  0  0
   10.1132  -16.2661   21.3110 O   0  0  0  0  0  0  0  0  0  0  0  0
    9.1629  -14.3052   15.5954 O   0  0  0  0  0  0  0  0  0  0  0  0
    8.8983  -14.0148   16.9375 C   0  0  0  0  0  0  0  0  0  0  0  0
    9.8927  -13.6356   17.8065 C   0  0  0  0  0  0  0  0  0  0  0  0
    9.6477  -13.3415   19.1507 C   0  0  0  0  0  0  0  0  0  0  0  0
    8.3541  -13.4400   19.6078 C   0  0  0  0  0  0  0  0  0  0  0  0
    8.0382  -13.1441   21.0021 C   0  0  0  0  0  0  0  0  0  0  0  0
    8.4777  -14.1771   21.9939 C   0  0  2  0  0  0  0  0  0  0  0  0
    7.9927  -15.5128   21.6165 N   0  0  0  0  0  0  0  0  0  0  0  0
    8.1011  -13.9280   23.3800 C   0  0  0  0  0  0  0  0  0  0  0  0
    7.3838  -12.9448   23.7538 O   0  0  0  0  0  0  0  0  0  0  0  0
    7.3460  -13.8212   18.7400 C   0  0  0  0  0  0  0  0  0  0  0  0
    7.6112  -14.1100   17.4038 C   0  0  0  0  0  0  0  0  0  0  0  0
    6.7775  -11.9049   27.9184 C   0  0  0  0  0  0  0  0  0  0  0  0
    7.8176  -12.9010   27.5437 C   0  0  0  0  0  0  0  0  0  0  0  0
    7.6652  -13.5543   26.2118 C   0  0  2  0  0  0  0  0  0  0  0  0
    6.4309  -14.4538   26.2977 C   0  0  0  0  0  0  0  0  0  0  0  0
    8.8646  -14.3298   25.7319 C   0  0  2  0  0  0  0  0  0  0  0  0
    8.5372  -14.8117   24.4042 N   0  0  0  0  0  0  0  0  0  0  0  0
    9.2775  -15.3712   26.6635 C   0  0  0  0  0  0  0  0  0  0  0  0
    9.1819  -16.7367   26.4784 O   0  0  0  0  0  0  0  0  0  0  0  0
    9.7880  -15.0199   27.7828 O   0  0  0  0  0  0  0  0  0  0  0  0
  2  1  1  6
  3  4  1  0
  3  2  1  0
  5  6  1  0
  5  4  1  0
  6  7  1  0
  8  9  2  0
  8  2  1  0
 10 11  1  0
 11 12  2  0
 12 13  1  0
 14 13  2  0
 14 15  1  0
 16 15  1  6
 16 17  1  0
 17  8  1  0
 18 16  1  0
 18 19  2  0
 20 14  1  0
 21 11  1  0
 21 20  2  0
 23 22  1  0
 24 23  1  0
 24 26  1  0
 24 25  1  1
 26 27  1  6
 27 18  1  0
 28 29  1  0
 28 26  1  0
 30 28  2  0
M  END
$$$$
