KYI.pdb
     RDKit          3D

 30 30  0  0  1  0  0  0  0  0999 V2000
    7.6449  -17.3482   20.0611 N   0  0  0  0  0  0  0  0  0  0  0  0
    8.7912  -18.2492   20.1869 C   0  0  1  0  0  0  0  0  0  0  0  0
    9.2776  -18.6768   18.8342 C   0  0  0  0  0  0  0  0  0  0  0  0
    8.1833  -19.1764   17.9571 C   0  0  0  0  0  0  0  0  0  0  0  0
    8.7582  -19.6092   16.6025 C   0  0  0  0  0  0  0  0  0  0  0  0
    7.6993  -20.0712   15.6500 C   0  0  0  0  0  0  0  0  0  0  0  0
    8.3567  -20.5411   14.4346 N   0  0  0  0  0  0  0  0  0  0  0  0
    9.8415  -17.6165   21.0314 C   0  0  0  0  0  0  0  0  0  0  0  0
   10.9715  -18.1186   21.2413 O   0  0  0  0  0  0  0  0  0  0  0  0
   12.2443  -13.9998   16.4398 O   0  0  0  0  0  0  0  0  0  0  0  0
   11.8994  -14.0665   17.7934 C   0  0  0  0  0  0  0  0  0  0  0  0
   10.6488  -13.7152   18.2407 C   0  0  0  0  0  0  0  0  0  0  0  0
   10.2857  -13.7752   19.5890 C   0  0  0  0  0  0  0  0  0  0  0  0
   11.2290  -14.2052   20.4931 C   0  0  0  0  0  0  0  0  0  0  0  0
   10.9063  -14.2892   21.9145 C   0  0  0  0  0  0  0  0  0  0  0  0
   10.6677  -15.6720   22.4388 C   0  0  2  0  0  0  0  0  0  0  0  0
    9.6115  -16.3524   21.6750 N   0  0  0  0  0  0  0  0  0  0  0  0
   10.3409  -15.7666   23.8563 C   0  0  0  0  0  0  0  0  0  0  0  0
   11.1948  -15.6309   24.7910 O   0  0  0  0  0  0  0  0  0  0  0  0
   12.4913  -14.5611   20.0520 C   0  0  0  0  0  0  0  0  0  0  0  0
   12.8331  -14.4941   18.7037 C   0  0  0  0  0  0  0  0  0  0  0  0
    6.7501  -12.6495   25.2877 C   0  0  0  0  0  0  0  0  0  0  0  0
    7.8624  -13.6377   25.3110 C   0  0  0  0  0  0  0  0  0  0  0  0
    7.5304  -15.0027   25.8116 C   0  0  2  0  0  0  0  0  0  0  0  0
    7.1222  -14.8502   27.2780 C   0  0  0  0  0  0  0  0  0  0  0  0
    8.6228  -16.0294   25.6604 C   0  0  2  0  0  0  0  0  0  0  0  0
    9.0026  -16.0214   24.2611 N   0  0  0  0  0  0  0  0  0  0  0  0
    8.2452  -17.3401   26.1724 C   0  0  0  0  0  0  0  0  0  0  0  0
    8.5071  -17.8476   27.4301 O   0  0  0  0  0  0  0  0  0  0  0  0
    7.6004  -18.1324   25.4020 O   0  0  0  0  0  0  0  0  0  0  0  0
  2  1  1  6
  3  4  1  0
  3  2  1  0
  5  6  1  0
  5  4  1  0
  6  7  1  0
  8  9  2  0
  8  2  1  0
 10 11  1  0
 11 12  2  0
 12 13  1  0
 14 13  2  0
 14 15  1  0
 16 15  1  6
 16 17  1  0
 17  8  1  0
 18 16  1  0
 18 19  2  0
 20 14  1  0
 21 11  1  0
 21 20  2  0
 23 22  1  0
 24 23  1  0
 24 26  1  0
 24 25  1  1
 26 27  1  6
 27 18  1  0
 28 29  1  0
 28 26  1  0
 30 28  2  0
M  END
$$$$
