KYI.pdb
     RDKit          3D

 30 30  0  0  1  0  0  0  0  0999 V2000
    9.2074  -19.1287   21.2690 N   0  0  0  0  0  0  0  0  0  0  0  0
   10.4516  -18.5007   20.8227 C   0  0  1  0  0  0  0  0  0  0  0  0
   10.4372  -18.2977   19.3368 C   0  0  0  0  0  0  0  0  0  0  0  0
   10.6024  -19.5677   18.5778 C   0  0  0  0  0  0  0  0  0  0  0  0
   10.7525  -19.2643   17.0817 C   0  0  0  0  0  0  0  0  0  0  0  0
   10.9334  -20.5026   16.2596 C   0  0  0  0  0  0  0  0  0  0  0  0
   11.1138  -20.1005   14.8682 N   0  0  0  0  0  0  0  0  0  0  0  0
   10.6945  -17.2529   21.5979 C   0  0  0  0  0  0  0  0  0  0  0  0
   11.7120  -16.5312   21.4673 O   0  0  0  0  0  0  0  0  0  0  0  0
    6.5068  -12.9521   18.3206 O   0  0  0  0  0  0  0  0  0  0  0  0
    6.9971  -13.4162   19.5453 C   0  0  0  0  0  0  0  0  0  0  0  0
    6.4492  -14.5049   20.1795 C   0  0  0  0  0  0  0  0  0  0  0  0
    6.9253  -14.9833   21.4034 C   0  0  0  0  0  0  0  0  0  0  0  0
    7.9858  -14.3275   21.9843 C   0  0  0  0  0  0  0  0  0  0  0  0
    8.5261  -14.7827   23.2620 C   0  0  0  0  0  0  0  0  0  0  0  0
    9.8597  -15.4612   23.1907 C   0  0  2  0  0  0  0  0  0  0  0  0
    9.7447  -16.7900   22.5719 N   0  0  0  0  0  0  0  0  0  0  0  0
   10.5678  -15.6055   24.4568 C   0  0  0  0  0  0  0  0  0  0  0  0
   11.6696  -15.0256   24.7226 O   0  0  0  0  0  0  0  0  0  0  0  0
    8.5441  -13.2301   21.3531 C   0  0  0  0  0  0  0  0  0  0  0  0
    8.0547  -12.7692   20.1335 C   0  0  0  0  0  0  0  0  0  0  0  0
   10.4032  -13.1091   29.0633 C   0  0  0  0  0  0  0  0  0  0  0  0
   10.6184  -14.5224   28.6500 C   0  0  0  0  0  0  0  0  0  0  0  0
   10.1789  -14.8879   27.2727 C   0  0  2  0  0  0  0  0  0  0  0  0
    8.6817  -14.5852   27.1898 C   0  0  0  0  0  0  0  0  0  0  0  0
   10.4650  -16.3084   26.8592 C   0  0  2  0  0  0  0  0  0  0  0  0
   10.0295  -16.4303   25.4815 N   0  0  0  0  0  0  0  0  0  0  0  0
    9.8813  -17.2913   27.7623 C   0  0  0  0  0  0  0  0  0  0  0  0
    8.8023  -18.1155   27.5079 O   0  0  0  0  0  0  0  0  0  0  0  0
   10.3980  -17.4338   28.9241 O   0  0  0  0  0  0  0  0  0  0  0  0
  2  1  1  1
  3  4  1  0
  3  2  1  0
  5  6  1  0
  5  4  1  0
  6  7  1  0
  8  9  2  0
  8  2  1  0
 10 11  1  0
 11 12  2  0
 12 13  1  0
 14 13  2  0
 14 15  1  0
 16 15  1  1
 16 17  1  0
 17  8  1  0
 18 16  1  0
 18 19  2  0
 20 14  1  0
 21 11  1  0
 21 20  2  0
 23 22  1  0
 24 23  1  0
 24 26  1  0
 24 25  1  1
 26 27  1  6
 27 18  1  0
 28 29  1  0
 28 26  1  0
 30 28  2  0
M  END
$$$$
