KYI.pdb
     RDKit          3D

 30 30  0  0  1  0  0  0  0  0999 V2000
    8.4792  -18.3101   19.5563 N   0  0  0  0  0  0  0  0  0  0  0  0
    9.5899  -18.3748   20.5070 C   0  0  1  0  0  0  0  0  0  0  0  0
   10.8970  -18.5069   19.7836 C   0  0  0  0  0  0  0  0  0  0  0  0
   10.7646  -18.3258   18.3118 C   0  0  0  0  0  0  0  0  0  0  0  0
   12.1196  -18.5649   17.6339 C   0  0  0  0  0  0  0  0  0  0  0  0
   12.0379  -18.4818   16.1411 C   0  0  0  0  0  0  0  0  0  0  0  0
   13.3676  -18.7428   15.5991 N   0  0  0  0  0  0  0  0  0  0  0  0
    9.5304  -17.2112   21.4340 C   0  0  0  0  0  0  0  0  0  0  0  0
   10.1590  -16.1401   21.2587 O   0  0  0  0  0  0  0  0  0  0  0  0
    6.3791  -11.4222   27.3408 O   0  0  0  0  0  0  0  0  0  0  0  0
    6.6072  -12.5401   26.5321 C   0  0  0  0  0  0  0  0  0  0  0  0
    7.2916  -12.4478   25.3444 C   0  0  0  0  0  0  0  0  0  0  0  0
    7.5293  -13.5534   24.5231 C   0  0  0  0  0  0  0  0  0  0  0  0
    7.0527  -14.7767   24.9335 C   0  0  0  0  0  0  0  0  0  0  0  0
    7.2717  -15.9671   24.1170 C   0  0  0  0  0  0  0  0  0  0  0  0
    8.6484  -16.1089   23.5438 C   0  0  2  0  0  0  0  0  0  0  0  0
    8.7223  -17.2517   22.6216 N   0  0  0  0  0  0  0  0  0  0  0  0
    9.7307  -16.2319   24.5128 C   0  0  0  0  0  0  0  0  0  0  0  0
   10.9641  -16.2581   24.1981 O   0  0  0  0  0  0  0  0  0  0  0  0
    6.3622  -14.8795   26.1282 C   0  0  0  0  0  0  0  0  0  0  0  0
    6.1360  -13.7653   26.9323 C   0  0  0  0  0  0  0  0  0  0  0  0
    9.3841  -13.8881   29.5347 C   0  0  0  0  0  0  0  0  0  0  0  0
    9.2956  -14.9933   28.5422 C   0  0  0  0  0  0  0  0  0  0  0  0
   10.5073  -15.2382   27.7081 C   0  0  2  0  0  0  0  0  0  0  0  0
   10.6866  -14.0094   26.8148 C   0  0  0  0  0  0  0  0  0  0  0  0
   10.4818  -16.5017   26.8874 C   0  0  2  0  0  0  0  0  0  0  0  0
    9.4347  -16.3282   25.8995 N   0  0  0  0  0  0  0  0  0  0  0  0
   10.3475  -17.7038   27.6995 C   0  0  0  0  0  0  0  0  0  0  0  0
    9.2459  -18.5333   27.7796 O   0  0  0  0  0  0  0  0  0  0  0  0
   11.3365  -18.0598   28.4290 O   0  0  0  0  0  0  0  0  0  0  0  0
  2  1  1  6
  3  4  1  0
  3  2  1  0
  5  6  1  0
  5  4  1  0
  6  7  1  0
  8  9  2  0
  8  2  1  0
 10 11  1  0
 11 12  2  0
 12 13  1  0
 14 13  2  0
 14 15  1  0
 16 15  1  1
 16 17  1  0
 17  8  1  0
 18 16  1  0
 18 19  2  0
 20 14  1  0
 21 11  1  0
 21 20  2  0
 23 22  1  0
 24 23  1  0
 24 26  1  0
 24 25  1  6
 26 27  1  6
 27 18  1  0
 28 29  1  0
 28 26  1  0
 30 28  2  0
M  END
$$$$
