KYI.pdb
     RDKit          3D

 30 30  0  0  1  0  0  0  0  0999 V2000
    5.6782  -17.5172   20.0286 N   0  0  0  0  0  0  0  0  0  0  0  0
    6.8305  -16.8731   20.6603 C   0  0  1  0  0  0  0  0  0  0  0  0
    6.9430  -15.4436   20.2206 C   0  0  0  0  0  0  0  0  0  0  0  0
    7.7290  -15.2842   18.9664 C   0  0  0  0  0  0  0  0  0  0  0  0
    7.7375  -13.8105   18.5410 C   0  0  0  0  0  0  0  0  0  0  0  0
    8.4295  -13.5946   17.2309 C   0  0  0  0  0  0  0  0  0  0  0  0
    8.2281  -12.2041   16.8357 N   0  0  0  0  0  0  0  0  0  0  0  0
    6.7585  -17.0441   22.1375 C   0  0  0  0  0  0  0  0  0  0  0  0
    5.6926  -17.0112   22.7978 O   0  0  0  0  0  0  0  0  0  0  0  0
    8.6607  -19.6287   30.3632 O   0  0  0  0  0  0  0  0  0  0  0  0
    8.6038  -19.4150   28.9823 C   0  0  0  0  0  0  0  0  0  0  0  0
    9.7268  -19.1208   28.2477 C   0  0  0  0  0  0  0  0  0  0  0  0
    9.6897  -18.9041   26.8674 C   0  0  0  0  0  0  0  0  0  0  0  0
    8.4726  -18.9923   26.2326 C   0  0  0  0  0  0  0  0  0  0  0  0
    8.3729  -18.7766   24.7921 C   0  0  0  0  0  0  0  0  0  0  0  0
    7.8936  -17.4194   24.3770 C   0  0  2  0  0  0  0  0  0  0  0  0
    7.9464  -17.2638   22.9158 N   0  0  0  0  0  0  0  0  0  0  0  0
    8.5852  -16.2883   24.9832 C   0  0  0  0  0  0  0  0  0  0  0  0
    9.7294  -15.8739   24.6087 O   0  0  0  0  0  0  0  0  0  0  0  0
    7.3360  -19.2881   26.9642 C   0  0  0  0  0  0  0  0  0  0  0  0
    7.3945  -19.5006   28.3392 C   0  0  0  0  0  0  0  0  0  0  0  0
    5.5036  -12.1935   26.4380 C   0  0  0  0  0  0  0  0  0  0  0  0
    6.6493  -13.0512   26.0303 C   0  0  0  0  0  0  0  0  0  0  0  0
    7.5634  -13.5032   27.1184 C   0  0  2  0  0  0  0  0  0  0  0  0
    8.1615  -12.2433   27.7471 C   0  0  0  0  0  0  0  0  0  0  0  0
    8.6472  -14.4607   26.6954 C   0  0  2  0  0  0  0  0  0  0  0  0
    7.9806  -15.5781   26.0555 N   0  0  0  0  0  0  0  0  0  0  0  0
    9.5320  -14.8366   27.7901 C   0  0  0  0  0  0  0  0  0  0  0  0
   10.7694  -14.2959   28.0810 O   0  0  0  0  0  0  0  0  0  0  0  0
    9.1548  -15.7631   28.5877 O   0  0  0  0  0  0  0  0  0  0  0  0
  2  1  1  6
  3  4  1  0
  3  2  1  0
  5  6  1  0
  5  4  1  0
  6  7  1  0
  8  9  2  0
  8  2  1  0
 10 11  1  0
 11 12  2  0
 12 13  1  0
 14 13  2  0
 14 15  1  0
 16 15  1  6
 16 17  1  0
 17  8  1  0
 18 16  1  0
 18 19  2  0
 20 14  1  0
 21 11  1  0
 21 20  2  0
 23 22  1  0
 24 23  1  0
 24 26  1  0
 24 25  1  6
 26 27  1  1
 27 18  1  0
 28 29  1  0
 28 26  1  0
 30 28  2  0
M  END
$$$$
