NTG.pdb
     RDKit          3D

 20 19  0  0  1  0  0  0  0  0999 V2000
    7.1863  -17.2350   13.7267 N   0  0  0  0  0  0  0  0  0  0  0  0
    7.4346  -15.8567   13.6122 C   0  0  0  0  0  0  0  0  0  0  0  0
    7.1627  -15.3154   12.4860 O   0  0  0  0  0  0  0  0  0  0  0  0
    7.9889  -15.0376   14.7348 C   0  0  0  0  0  0  0  0  0  0  0  0
    8.3435  -15.9727   15.8673 C   0  0  2  0  0  0  0  0  0  0  0  0
    7.2129  -16.7417   16.2864 N   0  0  0  0  0  0  0  0  0  0  0  0
    9.0149  -15.2768   16.9839 C   0  0  0  0  0  0  0  0  0  0  0  0
   10.0303  -14.5895   16.7711 O   0  0  0  0  0  0  0  0  0  0  0  0
    7.4949  -12.7524   19.3159 C   0  0  0  0  0  0  0  0  0  0  0  0
    8.2146  -13.7571   20.2017 C   0  0  1  0  0  0  0  0  0  0  0  0
    7.1920  -14.5869   20.7112 O   0  0  0  0  0  0  0  0  0  0  0  0
    9.1232  -14.6492   19.4301 C   0  0  2  0  0  0  0  0  0  0  0  0
    8.5734  -15.3348   18.3305 N   0  0  0  0  0  0  0  0  0  0  0  0
    9.6627  -15.6738   20.3942 C   0  0  0  0  0  0  0  0  0  0  0  0
    8.9812  -16.7213   20.5322 O   0  0  0  0  0  0  0  0  0  0  0  0
   10.8568  -15.4755   21.1004 N   0  0  0  0  0  0  0  0  0  0  0  0
   11.2983  -16.4646   22.0520 C   0  0  0  0  0  0  0  0  0  0  0  0
   12.5830  -16.1096   22.6747 C   0  0  0  0  0  0  0  0  0  0  0  0
   13.2307  -15.0919   22.3236 O   0  0  0  0  0  0  0  0  0  0  0  0
   13.1005  -16.9074   23.6715 O   0  0  0  0  0  0  0  0  0  0  0  0
  2  1  1  0
  3  2  2  0
  4  2  1  0
  5  4  1  0
  5  6  1  1
  7  5  1  0
  8  7  2  0
 10  9  1  6
 10 12  1  0
 11 10  1  0
 12 14  1  0
 12 13  1  6
 13  7  1  0
 14 16  1  0
 15 14  2  0
 16 17  1  0
 18 17  1  0
 18 20  1  0
 19 18  2  0
M  END
$$$$
