NTG.pdb
     RDKit          3D

 20 19  0  0  1  0  0  0  0  0999 V2000
    8.3494  -18.9950   13.6505 N   0  0  0  0  0  0  0  0  0  0  0  0
    8.4175  -17.5956   13.7578 C   0  0  0  0  0  0  0  0  0  0  0  0
    7.7781  -16.9201   12.8801 O   0  0  0  0  0  0  0  0  0  0  0  0
    9.1915  -16.9025   14.8342 C   0  0  0  0  0  0  0  0  0  0  0  0
    8.4272  -15.6634   15.2380 C   0  0  2  0  0  0  0  0  0  0  0  0
    8.2585  -14.7683   14.1354 N   0  0  0  0  0  0  0  0  0  0  0  0
    9.0033  -15.0090   16.4305 C   0  0  0  0  0  0  0  0  0  0  0  0
    9.9313  -14.1893   16.3059 O   0  0  0  0  0  0  0  0  0  0  0  0
    7.5211  -12.6984   18.9716 C   0  0  0  0  0  0  0  0  0  0  0  0
    8.1166  -13.8603   19.7510 C   0  0  1  0  0  0  0  0  0  0  0  0
    7.0213  -14.7062   20.0314 O   0  0  0  0  0  0  0  0  0  0  0  0
    9.0633  -14.6688   18.9345 C   0  0  2  0  0  0  0  0  0  0  0  0
    8.5622  -15.2535   17.7561 N   0  0  0  0  0  0  0  0  0  0  0  0
    9.5793  -15.7743   19.8188 C   0  0  0  0  0  0  0  0  0  0  0  0
    8.9503  -16.8620   19.7745 O   0  0  0  0  0  0  0  0  0  0  0  0
   10.6976  -15.6052   20.6464 N   0  0  0  0  0  0  0  0  0  0  0  0
   11.1002  -16.6693   21.5320 C   0  0  0  0  0  0  0  0  0  0  0  0
   12.2453  -16.2939   22.3756 C   0  0  0  0  0  0  0  0  0  0  0  0
   12.8248  -15.1860   22.2515 O   0  0  0  0  0  0  0  0  0  0  0  0
   12.7045  -17.1729   23.3318 O   0  0  0  0  0  0  0  0  0  0  0  0
  2  1  1  0
  3  2  2  0
  4  2  1  0
  5  4  1  0
  5  6  1  6
  7  5  1  0
  8  7  2  0
 10  9  1  6
 10 12  1  0
 11 10  1  0
 12 14  1  0
 12 13  1  6
 13  7  1  0
 14 16  1  0
 15 14  2  0
 16 17  1  0
 18 17  1  0
 18 20  1  0
 19 18  2  0
M  END
$$$$
