NTG.pdb
     RDKit          3D

 20 19  0  0  1  0  0  0  0  0999 V2000
    6.8664  -18.8532   15.6300 N   0  0  0  0  0  0  0  0  0  0  0  0
    6.5213  -19.0963   16.9702 C   0  0  0  0  0  0  0  0  0  0  0  0
    5.8039  -20.1296   17.2006 O   0  0  0  0  0  0  0  0  0  0  0  0
    6.9570  -18.2083   18.0926 C   0  0  0  0  0  0  0  0  0  0  0  0
    7.6271  -16.9926   17.4961 C   0  0  2  0  0  0  0  0  0  0  0  0
    8.3289  -17.3175   16.2931 N   0  0  0  0  0  0  0  0  0  0  0  0
    8.4643  -16.2720   18.4768 C   0  0  0  0  0  0  0  0  0  0  0  0
    9.7039  -16.2822   18.3667 O   0  0  0  0  0  0  0  0  0  0  0  0
    7.2991  -12.6969   20.2346 C   0  0  0  0  0  0  0  0  0  0  0  0
    7.9455  -13.6771   21.2005 C   0  0  1  0  0  0  0  0  0  0  0  0
    6.8642  -14.2911   21.8695 O   0  0  0  0  0  0  0  0  0  0  0  0
    8.6724  -14.7718   20.5006 C   0  0  2  0  0  0  0  0  0  0  0  0
    7.9428  -15.5420   19.5753 N   0  0  0  0  0  0  0  0  0  0  0  0
    9.2039  -15.7005   21.5615 C   0  0  0  0  0  0  0  0  0  0  0  0
    8.3990  -16.5590   22.0039 O   0  0  0  0  0  0  0  0  0  0  0  0
   10.5212  -15.6165   22.0325 N   0  0  0  0  0  0  0  0  0  0  0  0
   10.9902  -16.5582   23.0183 C   0  0  0  0  0  0  0  0  0  0  0  0
   12.4114  -16.3661   23.3459 C   0  0  0  0  0  0  0  0  0  0  0  0
   12.9746  -17.0180   24.2605 O   0  0  0  0  0  0  0  0  0  0  0  0
   13.1561  -15.4488   22.6374 O   0  0  0  0  0  0  0  0  0  0  0  0
  2  1  1  0
  3  2  2  0
  4  2  1  0
  5  4  1  0
  5  6  1  6
  7  5  1  0
  8  7  2  0
 10  9  1  6
 10 12  1  0
 11 10  1  0
 12 14  1  0
 12 13  1  6
 13  7  1  0
 14 16  1  0
 15 14  2  0
 16 17  1  0
 18 17  1  0
 18 20  1  0
 19 18  2  0
M  END
$$$$
