NTG.pdb
     RDKit          3D

 20 19  0  0  1  0  0  0  0  0999 V2000
   14.6040  -16.0734   14.9864 N   0  0  0  0  0  0  0  0  0  0  0  0
   13.2960  -15.5620   15.0298 C   0  0  0  0  0  0  0  0  0  0  0  0
   12.5282  -15.8637   14.0526 O   0  0  0  0  0  0  0  0  0  0  0  0
   12.7982  -14.7048   16.1504 C   0  0  0  0  0  0  0  0  0  0  0  0
   11.9692  -15.5702   17.0706 C   0  0  2  0  0  0  0  0  0  0  0  0
   10.8406  -16.1272   16.3915 N   0  0  0  0  0  0  0  0  0  0  0  0
   11.6054  -14.8752   18.3222 C   0  0  0  0  0  0  0  0  0  0  0  0
   12.4828  -14.3115   19.0013 O   0  0  0  0  0  0  0  0  0  0  0  0
    8.4083  -12.4404   18.9304 C   0  0  0  0  0  0  0  0  0  0  0  0
    8.5269  -13.5119   20.0026 C   0  0  1  0  0  0  0  0  0  0  0  0
    7.6083  -14.5124   19.6166 O   0  0  0  0  0  0  0  0  0  0  0  0
    9.8658  -14.1631   20.0122 C   0  0  2  0  0  0  0  0  0  0  0  0
   10.2823  -14.7990   18.8274 N   0  0  0  0  0  0  0  0  0  0  0  0
    9.8500  -15.1933   21.1117 C   0  0  0  0  0  0  0  0  0  0  0  0
    8.9045  -16.0215   21.0851 O   0  0  0  0  0  0  0  0  0  0  0  0
   10.8321  -15.2309   22.1109 N   0  0  0  0  0  0  0  0  0  0  0  0
   10.7202  -16.1815   23.1890 C   0  0  0  0  0  0  0  0  0  0  0  0
   11.9070  -16.1859   24.0583 C   0  0  0  0  0  0  0  0  0  0  0  0
   12.9013  -15.4540   23.8258 O   0  0  0  0  0  0  0  0  0  0  0  0
   11.9409  -17.0110   25.1610 O   0  0  0  0  0  0  0  0  0  0  0  0
  2  1  1  0
  3  2  2  0
  4  2  1  0
  5  4  1  0
  5  6  1  6
  7  5  1  0
  8  7  2  0
 10  9  1  6
 10 12  1  0
 11 10  1  0
 12 14  1  0
 12 13  1  6
 13  7  1  0
 14 16  1  0
 15 14  2  0
 16 17  1  0
 18 17  1  0
 18 20  1  0
 19 18  2  0
M  END
$$$$
