NTG.pdb
     RDKit          3D

 20 19  0  0  1  0  0  0  0  0999 V2000
    9.1693  -16.5548   13.2712 N   0  0  0  0  0  0  0  0  0  0  0  0
    8.2889  -15.4705   13.4247 C   0  0  0  0  0  0  0  0  0  0  0  0
    7.8027  -14.9688   12.3536 O   0  0  0  0  0  0  0  0  0  0  0  0
    7.9202  -14.9095   14.7618 C   0  0  0  0  0  0  0  0  0  0  0  0
    8.7199  -15.6413   15.8143 C   0  0  2  0  0  0  0  0  0  0  0  0
    7.9936  -16.7520   16.3473 N   0  0  0  0  0  0  0  0  0  0  0  0
    9.2390  -14.7354   16.8592 C   0  0  0  0  0  0  0  0  0  0  0  0
    9.9955  -13.7962   16.5519 O   0  0  0  0  0  0  0  0  0  0  0  0
    7.6702  -12.4214   19.3946 C   0  0  0  0  0  0  0  0  0  0  0  0
    8.5649  -13.3690   20.1778 C   0  0  1  0  0  0  0  0  0  0  0  0
    7.6833  -14.3221   20.7330 O   0  0  0  0  0  0  0  0  0  0  0  0
    9.4956  -14.1305   19.3000 C   0  0  2  0  0  0  0  0  0  0  0  0
    8.9290  -14.8596   18.2376 N   0  0  0  0  0  0  0  0  0  0  0  0
   10.2440  -15.0977   20.1803 C   0  0  0  0  0  0  0  0  0  0  0  0
    9.6084  -16.1156   20.5552 O   0  0  0  0  0  0  0  0  0  0  0  0
   11.5745  -14.8799   20.5630 N   0  0  0  0  0  0  0  0  0  0  0  0
   12.2242  -15.8085   21.4542 C   0  0  0  0  0  0  0  0  0  0  0  0
   13.6535  -15.5091   21.6315 C   0  0  0  0  0  0  0  0  0  0  0  0
   14.3673  -16.1443   22.4474 O   0  0  0  0  0  0  0  0  0  0  0  0
   14.2372  -14.5068   20.8882 O   0  0  0  0  0  0  0  0  0  0  0  0
  2  1  1  0
  3  2  2  0
  4  2  1  0
  5  4  1  0
  5  6  1  1
  7  5  1  0
  8  7  2  0
 10  9  1  6
 10 12  1  0
 11 10  1  0
 12 14  1  0
 12 13  1  6
 13  7  1  0
 14 16  1  0
 15 14  2  0
 16 17  1  0
 18 17  1  0
 18 20  1  0
 19 18  2  0
M  END
$$$$
