NTG.pdb
     RDKit          3D

 20 19  0  0  1  0  0  0  0  0999 V2000
    8.0087  -16.5779   13.5161 N   0  0  0  0  0  0  0  0  0  0  0  0
    7.8935  -15.1839   13.6497 C   0  0  0  0  0  0  0  0  0  0  0  0
    7.5005  -14.5382   12.6182 O   0  0  0  0  0  0  0  0  0  0  0  0
    8.2080  -14.4635   14.9227 C   0  0  0  0  0  0  0  0  0  0  0  0
    8.6371  -15.4874   15.9475 C   0  0  2  0  0  0  0  0  0  0  0  0
    7.6042  -16.4445   16.1974 N   0  0  0  0  0  0  0  0  0  0  0  0
    9.1595  -14.8656   17.1814 C   0  0  0  0  0  0  0  0  0  0  0  0
   10.1566  -14.1226   17.1324 O   0  0  0  0  0  0  0  0  0  0  0  0
    7.3202  -12.8258   19.9974 C   0  0  0  0  0  0  0  0  0  0  0  0
    8.1027  -13.9654   20.6306 C   0  0  1  0  0  0  0  0  0  0  0  0
    7.1392  -14.9643   20.8907 O   0  0  0  0  0  0  0  0  0  0  0  0
    9.0843  -14.5741   19.6911 C   0  0  2  0  0  0  0  0  0  0  0  0
    8.5893  -15.0586   18.4656 N   0  0  0  0  0  0  0  0  0  0  0  0
    9.7377  -15.7227   20.4151 C   0  0  0  0  0  0  0  0  0  0  0  0
    9.3595  -16.8756   20.0858 O   0  0  0  0  0  0  0  0  0  0  0  0
   10.7131  -15.5229   21.4014 N   0  0  0  0  0  0  0  0  0  0  0  0
   11.3040  -16.6588   22.0642 C   0  0  0  0  0  0  0  0  0  0  0  0
   12.3337  -16.2664   23.0387 C   0  0  0  0  0  0  0  0  0  0  0  0
   12.0857  -16.1838   24.2677 O   0  0  0  0  0  0  0  0  0  0  0  0
   13.6090  -15.9789   22.6042 O   0  0  0  0  0  0  0  0  0  0  0  0
  2  1  1  0
  3  2  2  0
  4  2  1  0
  5  4  1  0
  5  6  1  1
  7  5  1  0
  8  7  2  0
 10  9  1  6
 10 12  1  0
 11 10  1  0
 12 14  1  0
 12 13  1  6
 13  7  1  0
 14 16  1  0
 15 14  2  0
 16 17  1  0
 18 17  1  0
 18 20  1  0
 19 18  2  0
M  END
$$$$
