NTG.pdb
     RDKit          3D

 20 19  0  0  1  0  0  0  0  0999 V2000
    3.4530  -19.4926   20.1568 N   0  0  0  0  0  0  0  0  0  0  0  0
    3.8534  -18.9056   18.9446 C   0  0  0  0  0  0  0  0  0  0  0  0
    3.0209  -18.9630   17.9755 O   0  0  0  0  0  0  0  0  0  0  0  0
    5.1812  -18.2396   18.7669 C   0  0  0  0  0  0  0  0  0  0  0  0
    5.8930  -18.2491   20.0996 C   0  0  2  0  0  0  0  0  0  0  0  0
    4.9812  -18.0484   21.1829 N   0  0  0  0  0  0  0  0  0  0  0  0
    7.0419  -17.3213   20.1319 C   0  0  0  0  0  0  0  0  0  0  0  0
    7.8452  -17.2887   19.1819 O   0  0  0  0  0  0  0  0  0  0  0  0
    7.1112  -13.6155   20.2154 C   0  0  0  0  0  0  0  0  0  0  0  0
    7.9927  -14.0603   21.3716 C   0  0  1  0  0  0  0  0  0  0  0  0
    7.1774  -13.9324   22.5174 O   0  0  0  0  0  0  0  0  0  0  0  0
    8.3611  -15.5003   21.2865 C   0  0  2  0  0  0  0  0  0  0  0  0
    7.3088  -16.4316   21.2037 N   0  0  0  0  0  0  0  0  0  0  0  0
    9.1725  -15.8239   22.5143 C   0  0  0  0  0  0  0  0  0  0  0  0
    8.5227  -16.1282   23.5466 O   0  0  0  0  0  0  0  0  0  0  0  0
   10.5735  -15.7891   22.5113 N   0  0  0  0  0  0  0  0  0  0  0  0
   11.2999  -16.1044   23.7162 C   0  0  0  0  0  0  0  0  0  0  0  0
   12.7572  -16.0553   23.5216 C   0  0  0  0  0  0  0  0  0  0  0  0
   13.2681  -15.8155   22.3991 O   0  0  0  0  0  0  0  0  0  0  0  0
   13.5955  -16.2766   24.5922 O   0  0  0  0  0  0  0  0  0  0  0  0
  2  1  1  0
  3  2  2  0
  4  2  1  0
  5  4  1  0
  5  6  1  1
  7  5  1  0
  8  7  2  0
 10  9  1  6
 10 12  1  0
 11 10  1  0
 12 14  1  0
 12 13  1  1
 13  7  1  0
 14 16  1  0
 15 14  2  0
 16 17  1  0
 18 17  1  0
 18 20  1  0
 19 18  2  0
M  END
$$$$
