NTG.pdb
     RDKit          3D

 20 19  0  0  1  0  0  0  0  0999 V2000
    8.4174  -17.1155   13.2546 N   0  0  0  0  0  0  0  0  0  0  0  0
    9.2512  -17.8691   14.0978 C   0  0  0  0  0  0  0  0  0  0  0  0
    9.6265  -19.0118   13.6632 O   0  0  0  0  0  0  0  0  0  0  0  0
    9.6943  -17.3847   15.4422 C   0  0  0  0  0  0  0  0  0  0  0  0
    9.0073  -16.0672   15.7160 C   0  0  2  0  0  0  0  0  0  0  0  0
    9.0938  -15.1868   14.5923 N   0  0  0  0  0  0  0  0  0  0  0  0
    9.4642  -15.4439   16.9748 C   0  0  0  0  0  0  0  0  0  0  0  0
   10.5832  -14.9026   17.0334 O   0  0  0  0  0  0  0  0  0  0  0  0
    7.5763  -12.8217   19.1637 C   0  0  0  0  0  0  0  0  0  0  0  0
    8.0483  -13.9575   20.0577 C   0  0  1  0  0  0  0  0  0  0  0  0
    6.9056  -14.7645   20.2497 O   0  0  0  0  0  0  0  0  0  0  0  0
    9.0585  -14.8250   19.3919 C   0  0  2  0  0  0  0  0  0  0  0  0
    8.6952  -15.4145   18.1662 N   0  0  0  0  0  0  0  0  0  0  0  0
    9.3983  -15.9312   20.3569 C   0  0  0  0  0  0  0  0  0  0  0  0
    8.8212  -17.0320   20.1674 O   0  0  0  0  0  0  0  0  0  0  0  0
   10.3061  -15.7488   21.4089 N   0  0  0  0  0  0  0  0  0  0  0  0
   10.5278  -16.8132   22.3557 C   0  0  0  0  0  0  0  0  0  0  0  0
   11.4718  -16.4318   23.4176 C   0  0  0  0  0  0  0  0  0  0  0  0
   11.6776  -17.1659   24.4163 O   0  0  0  0  0  0  0  0  0  0  0  0
   12.1551  -15.2391   23.3258 O   0  0  0  0  0  0  0  0  0  0  0  0
  2  1  1  0
  3  2  2  0
  4  2  1  0
  5  4  1  0
  5  6  1  6
  7  5  1  0
  8  7  2  0
 10  9  1  6
 10 12  1  0
 11 10  1  0
 12 14  1  0
 12 13  1  6
 13  7  1  0
 14 16  1  0
 15 14  2  0
 16 17  1  0
 18 17  1  0
 18 20  1  0
 19 18  2  0
M  END
$$$$
