PCH.pdb
     RDKit          3D

 24 25  0  0  1  0  0  0  0  0999 V2000
   29.0063  -22.7635  -18.2080 N   0  0  0  0  0  0  0  0  0  0  0  0
   30.4092  -22.6353  -17.9550 C   0  0  0  0  0  0  0  0  0  0  0  0
   30.7528  -23.5173  -16.7955 C   0  0  0  0  0  0  0  0  0  0  0  0
   29.4792  -24.1834  -16.3776 C   0  0  0  0  0  0  0  0  0  0  0  0
   28.4107  -23.4192  -17.0801 C   0  0  1  0  0  0  0  0  0  0  0  0
   27.7962  -22.3576  -16.2187 C   0  0  0  0  0  0  0  0  0  0  0  0
   28.4658  -21.7228  -15.3564 O   0  0  0  0  0  0  0  0  0  0  0  0
   26.4211  -22.0126  -16.3321 N   0  0  0  0  0  0  0  0  0  0  0  0
   25.7894  -20.9610  -15.5743 C   0  0  1  0  0  0  0  0  0  0  0  0
   26.4528  -19.6505  -15.9816 C   0  0  0  0  0  0  0  0  0  0  0  0
   26.3442  -19.3693  -17.7588 S   0  0  0  0  0  0  0  0  0  0  0  0
   24.3291  -20.9263  -15.8178 C   0  0  0  0  0  0  0  0  0  0  0  0
   23.9098  -21.2169  -16.9669 O   0  0  0  0  0  0  0  0  0  0  0  0
   23.3787  -20.5866  -14.8378 N   0  0  0  0  0  0  0  0  0  0  0  0
   21.9541  -20.5056  -15.1103 C   0  0  1  0  0  0  0  0  0  0  0  0
   21.2708  -21.3377  -14.0489 C   0  0  0  0  0  0  0  0  0  0  0  0
   21.5072  -20.8694  -12.6800 C   0  0  0  0  0  0  0  0  0  0  0  0
   22.3620  -19.8666  -12.2986 C   0  0  0  0  0  0  0  0  0  0  0  0
   22.2986  -19.7387  -10.9701 N   0  0  0  0  0  0  0  0  0  0  0  0
   21.4167  -20.6467  -10.5149 C   0  0  0  0  0  0  0  0  0  0  0  0
   20.9355  -21.3348  -11.5589 N   0  0  0  0  0  0  0  0  0  0  0  0
   21.4741  -19.1217  -15.1506 C   0  0  0  0  0  0  0  0  0  0  0  0
   20.1704  -18.7605  -15.4651 O   0  0  0  0  0  0  0  0  0  0  0  0
   22.2711  -18.1949  -14.8890 O   0  0  0  0  0  0  0  0  0  0  0  0
  1  5  1  0
  1  2  1  0
  2  3  1  0
  4  3  1  0
  5  4  1  0
  6  8  1  0
  5  6  1  1
  7  6  2  0
  9  8  1  0
  9 12  1  0
  9 10  1  6
 11 10  1  0
 12 14  1  0
 13 12  2  0
 14 15  1  0
 15 16  1  1
 15 22  1  0
 17 16  1  0
 18 17  2  0
 19 20  1  0
 19 18  1  0
 20 21  2  0
 21 17  1  0
 22 23  1  0
 24 22  2  0
M  END
$$$$
