PCH.pdb
     RDKit          3D

 24 25  0  0  1  0  0  0  0  0999 V2000
   25.7013  -12.6644  -16.0250 N   0  0  0  0  0  0  0  0  0  0  0  0
   25.1433  -13.9821  -15.9928 C   0  0  0  0  0  0  0  0  0  0  0  0
   24.8602  -14.3993  -17.4020 C   0  0  0  0  0  0  0  0  0  0  0  0
   25.2877  -13.2611  -18.2750 C   0  0  0  0  0  0  0  0  0  0  0  0
   25.4822  -12.1223  -17.3346 C   0  0  1  0  0  0  0  0  0  0  0  0
   24.2830  -11.2269  -17.2533 C   0  0  0  0  0  0  0  0  0  0  0  0
   23.7972  -10.6624  -18.2732 O   0  0  0  0  0  0  0  0  0  0  0  0
   23.6309  -10.9688  -16.0159 N   0  0  0  0  0  0  0  0  0  0  0  0
   22.4825  -10.1084  -15.8749 C   0  0  1  0  0  0  0  0  0  0  0  0
   21.4953  -10.8207  -14.9576 C   0  0  0  0  0  0  0  0  0  0  0  0
   20.3208   -9.6712  -14.2168 S   0  0  0  0  0  0  0  0  0  0  0  0
   22.8664   -8.7850  -15.3325 C   0  0  0  0  0  0  0  0  0  0  0  0
   23.7246   -8.7436  -14.4146 O   0  0  0  0  0  0  0  0  0  0  0  0
   22.3271   -7.5664  -15.7835 N   0  0  0  0  0  0  0  0  0  0  0  0
   22.7081   -6.2784  -15.2301 C   0  0  1  0  0  0  0  0  0  0  0  0
   22.8206   -5.3294  -16.4017 C   0  0  0  0  0  0  0  0  0  0  0  0
   23.9922   -5.5661  -17.2504 C   0  0  0  0  0  0  0  0  0  0  0  0
   25.0370   -6.4126  -16.9788 C   0  0  0  0  0  0  0  0  0  0  0  0
   25.9070   -6.3498  -17.9909 N   0  0  0  0  0  0  0  0  0  0  0  0
   25.4218   -5.4765  -18.8916 C   0  0  0  0  0  0  0  0  0  0  0  0
   24.2547   -5.0000  -18.4383 N   0  0  0  0  0  0  0  0  0  0  0  0
   21.7693   -5.8146  -14.2051 C   0  0  0  0  0  0  0  0  0  0  0  0
   22.1018   -4.9230  -13.1934 O   0  0  0  0  0  0  0  0  0  0  0  0
   20.5923   -6.2353  -14.2250 O   0  0  0  0  0  0  0  0  0  0  0  0
  1  5  1  0
  1  2  1  0
  2  3  1  0
  4  3  1  0
  5  4  1  0
  6  8  1  0
  5  6  1  1
  7  6  2  0
  9  8  1  0
  9 12  1  0
  9 10  1  1
 11 10  1  0
 12 14  1  0
 13 12  2  0
 14 15  1  0
 15 16  1  6
 15 22  1  0
 17 16  1  0
 18 17  2  0
 19 20  1  0
 19 18  1  0
 20 21  2  0
 21 17  1  0
 22 23  1  0
 24 22  2  0
M  END
$$$$
