PCH.pdb
     RDKit          3D

 24 25  0  0  1  0  0  0  0  0999 V2000
   26.3749  -19.1935  -14.5834 N   0  0  0  0  0  0  0  0  0  0  0  0
   27.4915  -18.5162  -13.9976 C   0  0  0  0  0  0  0  0  0  0  0  0
   28.6834  -19.4159  -14.0988 C   0  0  0  0  0  0  0  0  0  0  0  0
   28.2168  -20.6621  -14.7840 C   0  0  0  0  0  0  0  0  0  0  0  0
   26.7302  -20.5731  -14.7485 C   0  0  1  0  0  0  0  0  0  0  0  0
   26.1320  -21.3295  -13.6010 C   0  0  0  0  0  0  0  0  0  0  0  0
   26.2288  -22.5848  -13.5021 O   0  0  0  0  0  0  0  0  0  0  0  0
   25.4224  -20.6654  -12.5626 N   0  0  0  0  0  0  0  0  0  0  0  0
   24.5141  -21.3255  -11.6580 C   0  0  1  0  0  0  0  0  0  0  0  0
   24.8061  -20.7953  -10.2591 C   0  0  0  0  0  0  0  0  0  0  0  0
   26.5762  -20.7261   -9.9253 S   0  0  0  0  0  0  0  0  0  0  0  0
   23.1043  -21.0868  -12.0433 C   0  0  0  0  0  0  0  0  0  0  0  0
   22.1984  -21.5469  -11.3027 O   0  0  0  0  0  0  0  0  0  0  0  0
   22.7154  -20.3739  -13.1921 N   0  0  0  0  0  0  0  0  0  0  0  0
   21.3263  -20.1315  -13.5415 C   0  0  1  0  0  0  0  0  0  0  0  0
   21.2355  -18.6746  -13.9352 C   0  0  0  0  0  0  0  0  0  0  0  0
   21.9649  -18.3419  -15.1625 C   0  0  0  0  0  0  0  0  0  0  0  0
   22.8196  -19.1654  -15.8505 C   0  0  0  0  0  0  0  0  0  0  0  0
   23.2859  -18.5003  -16.9114 N   0  0  0  0  0  0  0  0  0  0  0  0
   22.7356  -17.2730  -16.8971 C   0  0  0  0  0  0  0  0  0  0  0  0
   21.9307  -17.1786  -15.8303 N   0  0  0  0  0  0  0  0  0  0  0  0
   20.8506  -21.0389  -14.5891 C   0  0  0  0  0  0  0  0  0  0  0  0
   19.5312  -21.1072  -15.0174 O   0  0  0  0  0  0  0  0  0  0  0  0
   21.6666  -21.8066  -15.1437 O   0  0  0  0  0  0  0  0  0  0  0  0
  1  5  1  0
  1  2  1  0
  2  3  1  0
  4  3  1  0
  5  4  1  0
  6  8  1  0
  5  6  1  1
  7  6  2  0
  9  8  1  0
  9 12  1  0
  9 10  1  1
 11 10  1  0
 12 14  1  0
 13 12  2  0
 14 15  1  0
 15 16  1  6
 15 22  1  0
 17 16  1  0
 18 17  2  0
 19 20  1  0
 19 18  1  0
 20 21  2  0
 21 17  1  0
 22 23  1  0
 24 22  2  0
M  END
$$$$
