PCH.pdb
     RDKit          3D

 24 25  0  0  1  0  0  0  0  0999 V2000
   22.1067  -17.2985  -16.8536 N   0  0  0  0  0  0  0  0  0  0  0  0
   22.9484  -18.2562  -16.2032 C   0  0  0  0  0  0  0  0  0  0  0  0
   22.2513  -18.7172  -14.9616 C   0  0  0  0  0  0  0  0  0  0  0  0
   20.9453  -17.9876  -14.9130 C   0  0  0  0  0  0  0  0  0  0  0  0
   21.0844  -16.9058  -15.9276 C   0  0  1  0  0  0  0  0  0  0  0  0
   21.5037  -15.5984  -15.3264 C   0  0  0  0  0  0  0  0  0  0  0  0
   21.0196  -15.1739  -14.2398 O   0  0  0  0  0  0  0  0  0  0  0  0
   22.4727  -14.7683  -15.9548 N   0  0  0  0  0  0  0  0  0  0  0  0
   22.8560  -13.4667  -15.4671 C   0  0  1  0  0  0  0  0  0  0  0  0
   24.3108  -13.2463  -15.8651 C   0  0  0  0  0  0  0  0  0  0  0  0
   25.4341  -14.2567  -14.8817 S   0  0  0  0  0  0  0  0  0  0  0  0
   21.9789  -12.4076  -16.0166 C   0  0  0  0  0  0  0  0  0  0  0  0
   21.7611  -12.3975  -17.2549 O   0  0  0  0  0  0  0  0  0  0  0  0
   21.3720  -11.4081  -15.2344 N   0  0  0  0  0  0  0  0  0  0  0  0
   20.5658  -10.3400  -15.7999 C   0  0  1  0  0  0  0  0  0  0  0  0
   19.1348  -10.6382  -15.4138 C   0  0  0  0  0  0  0  0  0  0  0  0
   18.1677   -9.6491  -15.8991 C   0  0  0  0  0  0  0  0  0  0  0  0
   17.9098   -8.4216  -15.3436 C   0  0  0  0  0  0  0  0  0  0  0  0
   16.9657   -7.8176  -16.0710 N   0  0  0  0  0  0  0  0  0  0  0  0
   16.6293   -8.6491  -17.0734 C   0  0  0  0  0  0  0  0  0  0  0  0
   17.3632   -9.7649  -16.9667 N   0  0  0  0  0  0  0  0  0  0  0  0
   21.0132   -9.0151  -15.3623 C   0  0  0  0  0  0  0  0  0  0  0  0
   20.7653   -7.8412  -16.0619 O   0  0  0  0  0  0  0  0  0  0  0  0
   21.6591   -8.9138  -14.2967 O   0  0  0  0  0  0  0  0  0  0  0  0
  1  5  1  0
  1  2  1  0
  2  3  1  0
  4  3  1  0
  5  4  1  0
  6  8  1  0
  5  6  1  1
  7  6  2  0
  9  8  1  0
  9 12  1  0
  9 10  1  6
 11 10  1  0
 12 14  1  0
 13 12  2  0
 14 15  1  0
 15 16  1  1
 15 22  1  0
 17 16  1  0
 18 17  2  0
 19 20  1  0
 19 18  1  0
 20 21  2  0
 21 17  1  0
 22 23  1  0
 24 22  2  0
M  END
$$$$
