PCH.pdb
     RDKit          3D

 24 25  0  0  1  0  0  0  0  0999 V2000
   27.3152  -12.3818  -19.8304 N   0  0  0  0  0  0  0  0  0  0  0  0
   27.5770  -13.7738  -19.6248 C   0  0  0  0  0  0  0  0  0  0  0  0
   26.3366  -14.5346  -19.9752 C   0  0  0  0  0  0  0  0  0  0  0  0
   25.3251  -13.5199  -20.4083 C   0  0  0  0  0  0  0  0  0  0  0  0
   25.8985  -12.2142  -19.9774 C   0  0  1  0  0  0  0  0  0  0  0  0
   25.3628  -11.7546  -18.6551 C   0  0  0  0  0  0  0  0  0  0  0  0
   24.1740  -11.9852  -18.2964 O   0  0  0  0  0  0  0  0  0  0  0  0
   26.1728  -11.0324  -17.7358 N   0  0  0  0  0  0  0  0  0  0  0  0
   25.6950  -10.5091  -16.4800 C   0  0  1  0  0  0  0  0  0  0  0  0
   26.9066  -10.3434  -15.5702 C   0  0  0  0  0  0  0  0  0  0  0  0
   27.7973  -11.8954  -15.3522 S   0  0  0  0  0  0  0  0  0  0  0  0
   24.9818   -9.2252  -16.6698 C   0  0  0  0  0  0  0  0  0  0  0  0
   25.5477   -8.3225  -17.3375 O   0  0  0  0  0  0  0  0  0  0  0  0
   23.7047   -8.9529  -16.1464 N   0  0  0  0  0  0  0  0  0  0  0  0
   22.9702   -7.7351  -16.4428 C   0  0  1  0  0  0  0  0  0  0  0  0
   22.1432   -8.0271  -17.6743 C   0  0  0  0  0  0  0  0  0  0  0  0
   22.8475   -7.7847  -18.9369 C   0  0  0  0  0  0  0  0  0  0  0  0
   24.1484   -7.3730  -19.0777 C   0  0  0  0  0  0  0  0  0  0  0  0
   24.4194   -7.2643  -20.3816 N   0  0  0  0  0  0  0  0  0  0  0  0
   23.3071   -7.6020  -21.0585 C   0  0  0  0  0  0  0  0  0  0  0  0
   22.3502   -7.9189  -20.1759 N   0  0  0  0  0  0  0  0  0  0  0  0
   22.1647   -7.2816  -15.3059 C   0  0  0  0  0  0  0  0  0  0  0  0
   21.6362   -6.0025  -15.1894 O   0  0  0  0  0  0  0  0  0  0  0  0
   21.9274   -8.0796  -14.3734 O   0  0  0  0  0  0  0  0  0  0  0  0
  1  5  1  0
  1  2  1  0
  2  3  1  0
  4  3  1  0
  5  4  1  0
  6  8  1  0
  5  6  1  1
  7  6  2  0
  9  8  1  0
  9 12  1  0
  9 10  1  1
 11 10  1  0
 12 14  1  0
 13 12  2  0
 14 15  1  0
 15 16  1  6
 15 22  1  0
 17 16  1  0
 18 17  2  0
 19 20  1  0
 19 18  1  0
 20 21  2  0
 21 17  1  0
 22 23  1  0
 24 22  2  0
M  END
$$$$
