PCH.pdb
     RDKit          3D

 24 25  0  0  1  0  0  0  0  0999 V2000
   32.5770  -34.9349   -7.1735 N   0  0  0  0  0  0  0  0  0  0  0  0
   33.9571  -35.2196   -6.9226 C   0  0  0  0  0  0  0  0  0  0  0  0
   34.0295  -36.4608   -6.0893 C   0  0  0  0  0  0  0  0  0  0  0  0
   32.6175  -36.9035   -5.8648 C   0  0  0  0  0  0  0  0  0  0  0  0
   31.7900  -35.7375   -6.2828 C   0  0  1  0  0  0  0  0  0  0  0  0
   31.3919  -34.8668   -5.1296 C   0  0  0  0  0  0  0  0  0  0  0  0
   32.0162  -33.8072   -4.8425 O   0  0  0  0  0  0  0  0  0  0  0  0
   30.2851  -35.1944   -4.2986 N   0  0  0  0  0  0  0  0  0  0  0  0
   29.8149  -34.3629   -3.2186 C   0  0  1  0  0  0  0  0  0  0  0  0
   28.7110  -33.4747   -3.7808 C   0  0  0  0  0  0  0  0  0  0  0  0
   27.4254  -34.4399   -4.5963 S   0  0  0  0  0  0  0  0  0  0  0  0
   29.3260  -35.1806   -2.0848 C   0  0  0  0  0  0  0  0  0  0  0  0
   28.7854  -36.2871   -2.3381 O   0  0  0  0  0  0  0  0  0  0  0  0
   29.4300  -34.7932   -0.7364 N   0  0  0  0  0  0  0  0  0  0  0  0
   28.8729  -35.5711    0.3566 C   0  0  1  0  0  0  0  0  0  0  0  0
   29.6342  -35.1650    1.5981 C   0  0  0  0  0  0  0  0  0  0  0  0
   31.0037  -35.6851    1.6546 C   0  0  0  0  0  0  0  0  0  0  0  0
   31.6174  -36.4673    0.7095 C   0  0  0  0  0  0  0  0  0  0  0  0
   32.8591  -36.7359    1.1236 N   0  0  0  0  0  0  0  0  0  0  0  0
   33.0310  -36.1333    2.3138 C   0  0  0  0  0  0  0  0  0  0  0  0
   31.8989  -35.4933    2.6356 N   0  0  0  0  0  0  0  0  0  0  0  0
   27.4249  -35.3883    0.4869 C   0  0  0  0  0  0  0  0  0  0  0  0
   26.6266  -36.1105    1.3645 O   0  0  0  0  0  0  0  0  0  0  0  0
   26.8542  -34.5351   -0.2266 O   0  0  0  0  0  0  0  0  0  0  0  0
  1  5  1  0
  1  2  1  0
  2  3  1  0
  4  3  1  0
  5  4  1  0
  6  8  1  0
  5  6  1  1
  7  6  2  0
  9  8  1  0
  9 12  1  0
  9 10  1  6
 11 10  1  0
 12 14  1  0
 13 12  2  0
 14 15  1  0
 15 16  1  1
 15 22  1  0
 17 16  1  0
 18 17  2  0
 19 20  1  0
 19 18  1  0
 20 21  2  0
 21 17  1  0
 22 23  1  0
 24 22  2  0
M  END
$$$$
