GRQ.pdb
     RDKit          3D

 25 24  0  0  1  0  0  0  0  0999 V2000
   10.6456  -19.5812   16.9723 N   0  0  0  0  0  0  0  0  0  0  0  0
   10.1226  -19.8014   18.3186 C   0  0  0  0  0  0  0  0  0  0  0  0
   10.4405  -18.6388   19.1878 C   0  0  0  0  0  0  0  0  0  0  0  0
   11.5838  -18.1197   19.1402 O   0  0  0  0  0  0  0  0  0  0  0  0
    7.1086  -11.8176   20.4524 N   0  0  0  0  0  0  0  0  0  0  0  0
    7.2623  -13.1399   19.9164 C   0  0  0  0  0  0  0  0  0  0  0  0
    6.9477  -13.3791   18.6889 N   0  0  0  0  0  0  0  0  0  0  0  0
    7.7552  -14.2122   20.6969 N   0  0  0  0  0  0  0  0  0  0  0  0
    8.2268  -14.0068   22.0501 C   0  0  0  0  0  0  0  0  0  0  0  0
    8.7785  -15.3449   22.5187 C   0  0  0  0  0  0  0  0  0  0  0  0
    8.5477  -16.4336   21.5266 C   0  0  0  0  0  0  0  0  0  0  0  0
    9.8537  -16.9524   20.9787 C   0  0  2  0  0  0  0  0  0  0  0  0
    9.5039  -18.0741   20.0845 N   0  0  0  0  0  0  0  0  0  0  0  0
   10.7515  -17.4413   22.0619 C   0  0  0  0  0  0  0  0  0  0  0  0
   10.4946  -18.4808   22.7064 O   0  0  0  0  0  0  0  0  0  0  0  0
    7.0906  -14.3341   18.3051 N   0  0  0  0  0  0  0  0  0  0  0  0
   17.5507  -17.3158   24.8985 C   0  0  0  0  0  0  0  0  0  0  0  0
   16.5255  -16.7778   24.1126 O   0  0  0  0  0  0  0  0  0  0  0  0
   16.7208  -15.8393   23.3348 C   0  0  0  0  0  0  0  0  0  0  0  0
   15.1487  -17.3669   24.2257 C   0  0  0  0  0  0  0  0  0  0  0  0
   14.2127  -16.7534   23.2444 C   0  0  2  0  0  0  0  0  0  0  0  0
   12.8260  -17.3105   23.3922 N   0  0  0  0  0  0  0  0  0  0  0  0
   11.9345  -16.7303   22.3920 C   0  0  0  0  0  0  0  0  0  0  0  0
   12.3165  -17.0956   24.7509 O   0  0  0  0  0  0  0  0  0  0  0  0
   11.2273  -16.3432   25.1080 O   0  0  0  0  0  0  0  0  0  0  0  0
  1  2  1  0
  2  3  1  0
  3 13  1  0
  4  3  2  0
  5  6  1  0
  6  7  2  0
  6  8  1  0
  8  9  1  0
  9 10  1  0
 12 11  1  1
 11 10  1  0
 12 14  1  0
 13 12  1  0
 14 15  2  0
 16 17  1  0
 17 18  2  0
 17 19  1  0
 19 20  1  0
 21 20  1  6
 21 23  1  0
 22 21  1  0
 22 14  1  0
 23 25  2  0
 23 24  1  0
M  END
$$$$
