GRQ.pdb
     RDKit          3D

 25 24  0  0  1  0  0  0  0  0999 V2000
    6.9138  -20.0723   21.6355 N   0  0  0  0  0  0  0  0  0  0  0  0
    6.7462  -18.6484   21.9165 C   0  0  0  0  0  0  0  0  0  0  0  0
    7.9699  -17.9019   21.5250 C   0  0  0  0  0  0  0  0  0  0  0  0
    9.0252  -18.5306   21.2603 O   0  0  0  0  0  0  0  0  0  0  0  0
    8.8385  -14.7665   16.4930 N   0  0  0  0  0  0  0  0  0  0  0  0
    7.8494  -13.7313   16.3964 C   0  0  0  0  0  0  0  0  0  0  0  0
    7.6204  -13.1616   15.2623 N   0  0  0  0  0  0  0  0  0  0  0  0
    7.1010  -13.3030   17.5181 N   0  0  0  0  0  0  0  0  0  0  0  0
    7.7273  -13.0842   18.8048 C   0  0  0  0  0  0  0  0  0  0  0  0
    8.2458  -14.4385   19.2643 C   0  0  0  0  0  0  0  0  0  0  0  0
    8.8159  -14.3915   20.6412 C   0  0  0  0  0  0  0  0  0  0  0  0
    9.2491  -15.7631   21.0948 C   0  0  2  0  0  0  0  0  0  0  0  0
    8.0098  -16.4912   21.4329 N   0  0  0  0  0  0  0  0  0  0  0  0
   10.1291  -15.6955   22.2945 C   0  0  0  0  0  0  0  0  0  0  0  0
    9.7157  -15.2482   23.3858 O   0  0  0  0  0  0  0  0  0  0  0  0
    6.9007  -12.4142   15.2059 N   0  0  0  0  0  0  0  0  0  0  0  0
   12.0456  -19.7153   25.6099 C   0  0  0  0  0  0  0  0  0  0  0  0
   12.8841  -18.7256   26.1344 O   0  0  0  0  0  0  0  0  0  0  0  0
   13.5889  -18.9239   27.1283 C   0  0  0  0  0  0  0  0  0  0  0  0
   12.9209  -17.3837   25.4609 C   0  0  0  0  0  0  0  0  0  0  0  0
   12.0487  -17.3567   24.2551 C   0  0  1  0  0  0  0  0  0  0  0  0
   12.2702  -16.1084   23.4502 N   0  0  0  0  0  0  0  0  0  0  0  0
   11.4741  -16.1430   22.2268 C   0  0  0  0  0  0  0  0  0  0  0  0
   13.6949  -15.9204   23.1554 O   0  0  0  0  0  0  0  0  0  0  0  0
   14.6783  -15.5795   24.0479 O   0  0  0  0  0  0  0  0  0  0  0  0
  1  2  1  0
  2  3  1  0
  3 13  1  0
  4  3  2  0
  5  6  1  0
  6  7  2  0
  6  8  1  0
  8  9  1  0
  9 10  1  0
 12 11  1  1
 11 10  1  0
 12 14  1  0
 13 12  1  0
 14 15  2  0
 16 17  1  0
 17 18  2  0
 17 19  1  0
 19 20  1  0
 21 20  1  1
 21 23  1  0
 22 21  1  0
 22 14  1  0
 23 25  2  0
 23 24  1  0
M  END
$$$$
