GRQ.pdb
     RDKit          3D

 25 24  0  0  1  0  0  0  0  0999 V2000
    6.5111  -21.1009   23.6737 N   0  0  0  0  0  0  0  0  0  0  0  0
    5.8234  -19.8842   24.0996 C   0  0  0  0  0  0  0  0  0  0  0  0
    6.7347  -18.7157   23.9892 C   0  0  0  0  0  0  0  0  0  0  0  0
    7.9704  -18.8716   24.1554 O   0  0  0  0  0  0  0  0  0  0  0  0
    9.2406  -13.3889   18.3499 N   0  0  0  0  0  0  0  0  0  0  0  0
    8.4126  -13.1200   19.4907 C   0  0  0  0  0  0  0  0  0  0  0  0
    8.3622  -11.9301   19.9852 N   0  0  0  0  0  0  0  0  0  0  0  0
    7.6342  -14.1286   20.1059 N   0  0  0  0  0  0  0  0  0  0  0  0
    8.0690  -14.7813   21.3227 C   0  0  0  0  0  0  0  0  0  0  0  0
    7.2924  -14.1314   22.4580 C   0  0  0  0  0  0  0  0  0  0  0  0
    6.3874  -15.0927   23.1507 C   0  0  0  0  0  0  0  0  0  0  0  0
    7.1682  -16.2357   23.7496 C   0  0  2  0  0  0  0  0  0  0  0  0
    6.2744  -17.4100   23.7007 N   0  0  0  0  0  0  0  0  0  0  0  0
    7.5523  -15.9617   25.1623 C   0  0  0  0  0  0  0  0  0  0  0  0
    6.6932  -15.8136   26.0578 O   0  0  0  0  0  0  0  0  0  0  0  0
    7.7662  -11.7510   20.8173 N   0  0  0  0  0  0  0  0  0  0  0  0
   10.5772  -18.1114   30.9363 C   0  0  0  0  0  0  0  0  0  0  0  0
   10.8473  -17.8009   29.5990 O   0  0  0  0  0  0  0  0  0  0  0  0
   11.6161  -18.4796   28.9117 C   0  0  0  0  0  0  0  0  0  0  0  0
   10.1768  -16.6031   28.9897 C   0  0  0  0  0  0  0  0  0  0  0  0
    9.8447  -16.8359   27.5576 C   0  0  1  0  0  0  0  0  0  0  0  0
    9.2347  -15.6136   26.9339 N   0  0  0  0  0  0  0  0  0  0  0  0
    8.9193  -15.8613   25.5301 C   0  0  0  0  0  0  0  0  0  0  0  0
   10.1168  -14.4514   27.0863 O   0  0  0  0  0  0  0  0  0  0  0  0
   10.7472  -13.7640   26.0813 O   0  0  0  0  0  0  0  0  0  0  0  0
  1  2  1  0
  2  3  1  0
  3 13  1  0
  4  3  2  0
  5  6  1  0
  6  7  2  0
  6  8  1  0
  8  9  1  0
  9 10  1  0
 12 11  1  1
 11 10  1  0
 12 14  1  0
 13 12  1  0
 14 15  2  0
 16 17  1  0
 17 18  2  0
 17 19  1  0
 19 20  1  0
 21 20  1  1
 21 23  1  0
 22 21  1  0
 22 14  1  0
 23 25  2  0
 23 24  1  0
M  END
$$$$
