GRQ.pdb
     RDKit          3D

 25 24  0  0  1  0  0  0  0  0999 V2000
   11.1516  -19.8066   19.4685 N   0  0  0  0  0  0  0  0  0  0  0  0
    9.9335  -19.7372   20.2722 C   0  0  0  0  0  0  0  0  0  0  0  0
   10.1630  -18.9000   21.4783 C   0  0  0  0  0  0  0  0  0  0  0  0
   11.3268  -18.7693   21.9335 O   0  0  0  0  0  0  0  0  0  0  0  0
    9.0213  -15.4345   28.2314 N   0  0  0  0  0  0  0  0  0  0  0  0
    8.8007  -14.1701   27.5896 C   0  0  0  0  0  0  0  0  0  0  0  0
    9.0619  -13.0739   28.2166 N   0  0  0  0  0  0  0  0  0  0  0  0
    8.2982  -14.0772   26.2702 N   0  0  0  0  0  0  0  0  0  0  0  0
    7.9404  -15.2583   25.5135 C   0  0  0  0  0  0  0  0  0  0  0  0
    8.6628  -15.1469   24.1793 C   0  0  0  0  0  0  0  0  0  0  0  0
    8.3258  -16.2675   23.2553 C   0  0  0  0  0  0  0  0  0  0  0  0
    9.3726  -17.3517   23.3150 C   0  0  2  0  0  0  0  0  0  0  0  0
    9.1181  -18.2286   22.1546 N   0  0  0  0  0  0  0  0  0  0  0  0
    9.2729  -18.1469   24.5704 C   0  0  0  0  0  0  0  0  0  0  0  0
    8.2622  -18.8336   24.8324 O   0  0  0  0  0  0  0  0  0  0  0  0
    8.9817  -12.1690   27.7121 N   0  0  0  0  0  0  0  0  0  0  0  0
   12.8613  -20.2807   30.6220 C   0  0  0  0  0  0  0  0  0  0  0  0
   12.3328  -19.2429   29.8463 O   0  0  0  0  0  0  0  0  0  0  0  0
   12.7320  -18.0793   29.9502 C   0  0  0  0  0  0  0  0  0  0  0  0
   11.2469  -19.5641   28.8598 C   0  0  0  0  0  0  0  0  0  0  0  0
   11.2603  -18.6191   27.7099 C   0  0  2  0  0  0  0  0  0  0  0  0
   10.1885  -18.9576   26.7140 N   0  0  0  0  0  0  0  0  0  0  0  0
   10.3361  -18.1442   25.5105 C   0  0  0  0  0  0  0  0  0  0  0  0
    8.8550  -18.8004   27.3048 O   0  0  0  0  0  0  0  0  0  0  0  0
    8.0525  -17.6911   27.2329 O   0  0  0  0  0  0  0  0  0  0  0  0
  1  2  1  0
  2  3  1  0
  3 13  1  0
  4  3  2  0
  5  6  1  0
  6  7  2  0
  6  8  1  0
  8  9  1  0
  9 10  1  0
 12 11  1  1
 11 10  1  0
 12 14  1  0
 13 12  1  0
 14 15  2  0
 16 17  1  0
 17 18  2  0
 17 19  1  0
 19 20  1  0
 21 20  1  6
 21 23  1  0
 22 21  1  0
 22 14  1  0
 23 25  2  0
 23 24  1  0
M  END
$$$$
