GRQ.pdb
     RDKit          3D

 25 24  0  0  1  0  0  0  0  0999 V2000
    7.9015  -21.5733   18.6466 N   0  0  0  0  0  0  0  0  0  0  0  0
    7.2017  -20.9325   19.7575 C   0  0  0  0  0  0  0  0  0  0  0  0
    7.8770  -19.6600   20.1221 C   0  0  0  0  0  0  0  0  0  0  0  0
    9.0425  -19.4333   19.7110 O   0  0  0  0  0  0  0  0  0  0  0  0
    7.5173  -12.3298   20.4496 N   0  0  0  0  0  0  0  0  0  0  0  0
    8.0192  -13.2803   19.4989 C   0  0  0  0  0  0  0  0  0  0  0  0
    8.0353  -12.9894   18.2426 N   0  0  0  0  0  0  0  0  0  0  0  0
    8.5066  -14.5487   19.8934 N   0  0  0  0  0  0  0  0  0  0  0  0
    8.8637  -14.8260   21.2685 C   0  0  0  0  0  0  0  0  0  0  0  0
    7.5607  -15.1116   21.9999 C   0  0  0  0  0  0  0  0  0  0  0  0
    6.9403  -16.3988   21.5742 C   0  0  0  0  0  0  0  0  0  0  0  0
    7.9887  -17.4639   21.3712 C   0  0  2  0  0  0  0  0  0  0  0  0
    7.2635  -18.6700   20.9244 N   0  0  0  0  0  0  0  0  0  0  0  0
    8.7226  -17.7636   22.6321 C   0  0  0  0  0  0  0  0  0  0  0  0
    8.1690  -18.3449   23.5900 O   0  0  0  0  0  0  0  0  0  0  0  0
    8.4319  -13.6733   17.5682 N   0  0  0  0  0  0  0  0  0  0  0  0
   14.8832  -17.4707   23.0969 C   0  0  0  0  0  0  0  0  0  0  0  0
   14.1509  -18.3898   22.3373 O   0  0  0  0  0  0  0  0  0  0  0  0
   14.6567  -19.0155   21.4010 C   0  0  0  0  0  0  0  0  0  0  0  0
   12.7059  -18.6152   22.6789 C   0  0  0  0  0  0  0  0  0  0  0  0
   12.2675  -17.7339   23.7954 C   0  0  2  0  0  0  0  0  0  0  0  0
   10.7806  -17.8042   23.9935 N   0  0  0  0  0  0  0  0  0  0  0  0
   10.0845  -17.3923   22.7780 C   0  0  0  0  0  0  0  0  0  0  0  0
   10.3663  -16.9968   25.1461 O   0  0  0  0  0  0  0  0  0  0  0  0
   10.6569  -17.2400   26.4638 O   0  0  0  0  0  0  0  0  0  0  0  0
  1  2  1  0
  2  3  1  0
  3 13  1  0
  4  3  2  0
  5  6  1  0
  6  7  2  0
  6  8  1  0
  8  9  1  0
  9 10  1  0
 12 11  1  1
 11 10  1  0
 12 14  1  0
 13 12  1  0
 14 15  2  0
 16 17  1  0
 17 18  2  0
 17 19  1  0
 19 20  1  0
 21 20  1  6
 21 23  1  0
 22 21  1  0
 22 14  1  0
 23 25  2  0
 23 24  1  0
M  END
$$$$
