GRQ.pdb
     RDKit          3D

 25 24  0  0  1  0  0  0  0  0999 V2000
    2.8505  -20.3327   21.7326 N   0  0  0  0  0  0  0  0  0  0  0  0
    2.9870  -18.9562   22.2028 C   0  0  0  0  0  0  0  0  0  0  0  0
    4.3984  -18.5092   22.0752 C   0  0  0  0  0  0  0  0  0  0  0  0
    5.2976  -19.3497   21.8226 O   0  0  0  0  0  0  0  0  0  0  0  0
    7.9441  -12.9479   18.1832 N   0  0  0  0  0  0  0  0  0  0  0  0
    8.9219  -13.4643   19.0977 C   0  0  0  0  0  0  0  0  0  0  0  0
    9.8800  -14.2108   18.6642 N   0  0  0  0  0  0  0  0  0  0  0  0
    8.8754  -13.1811   20.4831 N   0  0  0  0  0  0  0  0  0  0  0  0
    7.6507  -13.3219   21.2419 C   0  0  0  0  0  0  0  0  0  0  0  0
    7.6056  -14.7661   21.7178 C   0  0  0  0  0  0  0  0  0  0  0  0
    6.2133  -15.2917   21.8077 C   0  0  0  0  0  0  0  0  0  0  0  0
    6.2087  -16.7477   22.2011 C   0  0  2  0  0  0  0  0  0  0  0  0
    4.7908  -17.1589   22.2264 N   0  0  0  0  0  0  0  0  0  0  0  0
    6.8114  -16.9579   23.5468 C   0  0  0  0  0  0  0  0  0  0  0  0
    6.2984  -16.4719   24.5776 O   0  0  0  0  0  0  0  0  0  0  0  0
   10.5761  -14.5859   19.3383 N   0  0  0  0  0  0  0  0  0  0  0  0
   10.6067  -21.1517   28.1221 C   0  0  0  0  0  0  0  0  0  0  0  0
   10.0201  -20.8430   26.8898 O   0  0  0  0  0  0  0  0  0  0  0  0
    9.8990  -21.6834   25.9936 C   0  0  0  0  0  0  0  0  0  0  0  0
    9.5256  -19.4437   26.6596 C   0  0  0  0  0  0  0  0  0  0  0  0
    9.0131  -19.2696   25.2731 C   0  0  2  0  0  0  0  0  0  0  0  0
    8.5670  -17.8563   25.0305 N   0  0  0  0  0  0  0  0  0  0  0  0
    7.9968  -17.7245   23.6929 C   0  0  0  0  0  0  0  0  0  0  0  0
    9.6732  -16.9147   25.2348 O   0  0  0  0  0  0  0  0  0  0  0  0
   10.2350  -16.0935   24.2915 O   0  0  0  0  0  0  0  0  0  0  0  0
  1  2  1  0
  2  3  1  0
  3 13  1  0
  4  3  2  0
  5  6  1  0
  6  7  2  0
  6  8  1  0
  8  9  1  0
  9 10  1  0
 12 11  1  1
 11 10  1  0
 12 14  1  0
 13 12  1  0
 14 15  2  0
 16 17  1  0
 17 18  2  0
 17 19  1  0
 19 20  1  0
 21 20  1  1
 21 23  1  0
 22 21  1  0
 22 14  1  0
 23 25  2  0
 23 24  1  0
M  END
$$$$
