GRQ.pdb
     RDKit          3D

 25 24  0  0  1  0  0  0  0  0999 V2000
   10.8193  -20.4128   17.6045 N   0  0  0  0  0  0  0  0  0  0  0  0
   10.1433  -20.1745   18.8777 C   0  0  0  0  0  0  0  0  0  0  0  0
   10.5978  -18.8878   19.4657 C   0  0  0  0  0  0  0  0  0  0  0  0
   11.8036  -18.7414   19.7874 O   0  0  0  0  0  0  0  0  0  0  0  0
    7.2653  -12.3986   18.0443 N   0  0  0  0  0  0  0  0  0  0  0  0
    7.1099  -13.7012   18.6260 C   0  0  0  0  0  0  0  0  0  0  0  0
    6.8951  -14.7238   17.8704 N   0  0  0  0  0  0  0  0  0  0  0  0
    7.1848  -13.9116   20.0232 N   0  0  0  0  0  0  0  0  0  0  0  0
    8.2166  -13.2901   20.8261 C   0  0  0  0  0  0  0  0  0  0  0  0
    9.3632  -14.2873   20.8963 C   0  0  0  0  0  0  0  0  0  0  0  0
    9.0215  -15.5918   20.2603 C   0  0  0  0  0  0  0  0  0  0  0  0
   10.1727  -16.5611   20.3611 C   0  0  2  0  0  0  0  0  0  0  0  0
    9.7259  -17.7964   19.6866 N   0  0  0  0  0  0  0  0  0  0  0  0
   10.5162  -16.8649   21.7782 C   0  0  0  0  0  0  0  0  0  0  0  0
    9.7341  -17.4958   22.5212 O   0  0  0  0  0  0  0  0  0  0  0  0
    6.8925  -15.6741   18.2908 N   0  0  0  0  0  0  0  0  0  0  0  0
   12.2881  -21.1005   25.9673 C   0  0  0  0  0  0  0  0  0  0  0  0
   13.0013  -20.3181   25.0523 O   0  0  0  0  0  0  0  0  0  0  0  0
   13.8155  -20.8098   24.2654 C   0  0  0  0  0  0  0  0  0  0  0  0
   12.7622  -18.8355   25.0346 C   0  0  0  0  0  0  0  0  0  0  0  0
   12.3177  -18.3726   23.6916 C   0  0  1  0  0  0  0  0  0  0  0  0
   12.0980  -16.8872   23.6724 N   0  0  0  0  0  0  0  0  0  0  0  0
   11.7549  -16.4403   22.3254 C   0  0  0  0  0  0  0  0  0  0  0  0
   13.2733  -16.1765   24.1878 O   0  0  0  0  0  0  0  0  0  0  0  0
   13.6475  -16.0569   25.5014 O   0  0  0  0  0  0  0  0  0  0  0  0
  1  2  1  0
  2  3  1  0
  3 13  1  0
  4  3  2  0
  5  6  1  0
  6  7  2  0
  6  8  1  0
  8  9  1  0
  9 10  1  0
 12 11  1  1
 11 10  1  0
 12 14  1  0
 13 12  1  0
 14 15  2  0
 16 17  1  0
 17 18  2  0
 17 19  1  0
 19 20  1  0
 21 20  1  1
 21 23  1  0
 22 21  1  0
 22 14  1  0
 23 25  2  0
 23 24  1  0
M  END
$$$$
