GRQ.pdb
     RDKit          3D

 25 24  0  0  1  0  0  0  0  0999 V2000
   13.5541  -18.5550   19.6580 N   0  0  0  0  0  0  0  0  0  0  0  0
   12.5556  -19.0216   20.6171 C   0  0  0  0  0  0  0  0  0  0  0  0
   12.0824  -17.8892   21.4550 C   0  0  0  0  0  0  0  0  0  0  0  0
   12.8799  -16.9702   21.7681 O   0  0  0  0  0  0  0  0  0  0  0  0
    7.9242  -13.9551   19.0683 N   0  0  0  0  0  0  0  0  0  0  0  0
    7.5093  -13.0285   20.0825 C   0  0  0  0  0  0  0  0  0  0  0  0
    7.5068  -11.7623   19.8376 N   0  0  0  0  0  0  0  0  0  0  0  0
    7.0946  -13.4578   21.3653 N   0  0  0  0  0  0  0  0  0  0  0  0
    7.1812  -14.8475   21.7611 C   0  0  0  0  0  0  0  0  0  0  0  0
    8.6335  -15.0948   22.1404 C   0  0  0  0  0  0  0  0  0  0  0  0
    8.8701  -16.4924   22.6028 C   0  0  0  0  0  0  0  0  0  0  0  0
   10.3346  -16.7332   22.8709 C   0  0  2  0  0  0  0  0  0  0  0  0
   10.7534  -17.7899   21.9284 N   0  0  0  0  0  0  0  0  0  0  0  0
   10.5722  -17.1907   24.2683 C   0  0  0  0  0  0  0  0  0  0  0  0
   10.5468  -18.4021   24.5743 O   0  0  0  0  0  0  0  0  0  0  0  0
    7.2446  -11.0995   20.5937 N   0  0  0  0  0  0  0  0  0  0  0  0
   11.0685  -14.6260   30.0420 C   0  0  0  0  0  0  0  0  0  0  0  0
   10.2633  -14.0946   29.0285 O   0  0  0  0  0  0  0  0  0  0  0  0
    9.4476  -13.1936   29.2451 C   0  0  0  0  0  0  0  0  0  0  0  0
   10.4026  -14.6437   27.6376 C   0  0  0  0  0  0  0  0  0  0  0  0
   11.5108  -15.6337   27.5526 C   0  0  1  0  0  0  0  0  0  0  0  0
   11.1627  -16.7631   26.6260 N   0  0  0  0  0  0  0  0  0  0  0  0
   10.8365  -16.2509   25.2983 C   0  0  0  0  0  0  0  0  0  0  0  0
   10.0657  -17.5700   27.1717 O   0  0  0  0  0  0  0  0  0  0  0  0
    8.7895  -17.6581   26.6783 O   0  0  0  0  0  0  0  0  0  0  0  0
  1  2  1  0
  2  3  1  0
  3 13  1  0
  4  3  2  0
  5  6  1  0
  6  7  2  0
  6  8  1  0
  8  9  1  0
  9 10  1  0
 12 11  1  1
 11 10  1  0
 12 14  1  0
 13 12  1  0
 14 15  2  0
 16 17  1  0
 17 18  2  0
 17 19  1  0
 19 20  1  0
 21 20  1  6
 21 23  1  0
 22 21  1  0
 22 14  1  0
 23 25  2  0
 23 24  1  0
M  END
$$$$
