GRQ.pdb
     RDKit          3D

 25 24  0  0  1  0  0  0  0  0999 V2000
    8.7383  -21.5633   25.4823 N   0  0  0  0  0  0  0  0  0  0  0  0
   10.1563  -21.8575   25.6756 C   0  0  0  0  0  0  0  0  0  0  0  0
   10.3929  -22.3517   27.0569 C   0  0  0  0  0  0  0  0  0  0  0  0
    9.8204  -21.7919   28.0253 O   0  0  0  0  0  0  0  0  0  0  0  0
   13.3422  -29.9887   27.8055 N   0  0  0  0  0  0  0  0  0  0  0  0
   12.8504  -29.2150   28.9095 C   0  0  0  0  0  0  0  0  0  0  0  0
   12.9082  -29.6902   30.1070 N   0  0  0  0  0  0  0  0  0  0  0  0
   12.2941  -27.9262   28.7324 N   0  0  0  0  0  0  0  0  0  0  0  0
   11.5650  -27.5770   27.5315 C   0  0  0  0  0  0  0  0  0  0  0  0
   11.0505  -26.1606   27.7399 C   0  0  0  0  0  0  0  0  0  0  0  0
   11.9625  -25.3442   28.5912 C   0  0  0  0  0  0  0  0  0  0  0  0
   11.4579  -23.9289   28.7224 C   0  0  2  0  0  0  0  0  0  0  0  0
   11.2466  -23.4419   27.3446 N   0  0  0  0  0  0  0  0  0  0  0  0
   12.4443  -23.0528   29.4136 C   0  0  0  0  0  0  0  0  0  0  0  0
   13.3927  -22.5209   28.7975 O   0  0  0  0  0  0  0  0  0  0  0  0
   12.5802  -29.1060   30.9013 N   0  0  0  0  0  0  0  0  0  0  0  0
   11.0797  -19.2384   33.9106 C   0  0  0  0  0  0  0  0  0  0  0  0
   10.8004  -19.1737   32.5411 O   0  0  0  0  0  0  0  0  0  0  0  0
   10.0005  -18.3577   32.0739 C   0  0  0  0  0  0  0  0  0  0  0  0
   11.4999  -20.1306   31.6189 C   0  0  0  0  0  0  0  0  0  0  0  0
   12.5348  -20.9214   32.3394 C   0  0  2  0  0  0  0  0  0  0  0  0
   13.2608  -21.8473   31.4061 N   0  0  0  0  0  0  0  0  0  0  0  0
   12.3298  -22.7977   30.8049 C   0  0  0  0  0  0  0  0  0  0  0  0
   14.3556  -22.5366   32.0978 O   0  0  0  0  0  0  0  0  0  0  0  0
   14.5437  -23.8917   32.1873 O   0  0  0  0  0  0  0  0  0  0  0  0
  1  2  1  0
  2  3  1  0
  3 13  1  0
  4  3  2  0
  5  6  1  0
  6  7  2  0
  6  8  1  0
  8  9  1  0
  9 10  1  0
 12 11  1  6
 11 10  1  0
 12 14  1  0
 13 12  1  0
 14 15  2  0
 16 17  1  0
 17 18  2  0
 17 19  1  0
 19 20  1  0
 21 20  1  6
 21 23  1  0
 22 21  1  0
 22 14  1  0
 23 25  2  0
 23 24  1  0
M  END
$$$$
