SYN.pdb
     RDKit          3D

 27 27  0  0  1  0  0  0  0  0999 V2000
    8.8678  -19.2424   18.3035 O   0  0  0  0  0  0  0  0  0  0  0  0
    8.7194  -18.5018   19.4716 C   0  0  0  0  0  0  0  0  0  0  0  0
    8.4441  -17.0474   19.1814 C   0  0  2  0  0  0  0  0  0  0  0  0
    9.0828  -16.6614   17.9615 N   0  0  0  0  0  0  0  0  0  0  0  0
    8.8053  -16.1726   20.3270 C   0  0  0  0  0  0  0  0  0  0  0  0
    9.9069  -15.5608   20.3526 O   0  0  0  0  0  0  0  0  0  0  0  0
    7.0261  -11.5488   27.9018 O   0  0  0  0  0  0  0  0  0  0  0  0
    7.0240  -12.3149   26.7354 C   0  0  0  0  0  0  0  0  0  0  0  0
    7.5115  -11.8174   25.5457 C   0  0  0  0  0  0  0  0  0  0  0  0
    7.5038  -12.5838   24.4013 C   0  0  0  0  0  0  0  0  0  0  0  0
    7.0078  -13.8942   24.3786 C   0  0  0  0  0  0  0  0  0  0  0  0
    6.9754  -14.6848   23.1359 C   0  0  0  0  0  0  0  0  0  0  0  0
    8.3069  -15.0521   22.5510 C   0  0  2  0  0  0  0  0  0  0  0  0
    7.9551  -15.9725   21.4412 N   0  0  0  0  0  0  0  0  0  0  0  0
    9.1705  -15.7765   23.4975 C   0  0  0  0  0  0  0  0  0  0  0  0
    9.7265  -15.1071   24.4436 O   0  0  0  0  0  0  0  0  0  0  0  0
    6.5269  -14.3701   25.5751 C   0  0  0  0  0  0  0  0  0  0  0  0
    6.5342  -13.6036   26.7211 C   0  0  0  0  0  0  0  0  0  0  0  0
   12.3028  -18.6387   26.0770 N   0  0  0  0  0  0  0  0  0  0  0  0
   12.6303  -17.4355   25.3887 C   0  0  0  0  0  0  0  0  0  0  0  0
   13.7529  -16.9286   25.5977 O   0  0  0  0  0  0  0  0  0  0  0  0
   11.6541  -16.8562   24.4828 C   0  0  0  0  0  0  0  0  0  0  0  0
   10.3946  -17.7145   24.4053 C   0  0  2  0  0  0  0  0  0  0  0  0
    9.4489  -17.1666   23.4734 N   0  0  0  0  0  0  0  0  0  0  0  0
    9.9063  -17.8312   25.7938 C   0  0  0  0  0  0  0  0  0  0  0  0
    8.8331  -17.3255   26.1594 O   0  0  0  0  0  0  0  0  0  0  0  0
   10.6603  -18.5240   26.7266 O   0  0  0  0  0  0  0  0  0  0  0  0
  2  1  1  0
  2  3  1  0
  3  5  1  0
  3  4  1  6
  5  6  2  0
  7  8  1  0
  8 18  2  0
  8  9  1  0
  9 10  2  0
 10 11  1  0
 11 12  1  0
 13 12  1  1
 14 13  1  0
 14  5  1  0
 15 16  2  0
 15 13  1  0
 17 11  2  0
 18 17  1  0
 19 20  1  0
 20 22  1  0
 20 21  2  0
 23 22  1  1
 23 25  1  0
 23 24  1  0
 24 15  1  0
 25 27  1  0
 26 25  2  0
M  END
$$$$
