SYN.pdb
     RDKit          3D

 27 27  0  0  1  0  0  0  0  0999 V2000
    8.9462  -19.3517   20.2440 O   0  0  0  0  0  0  0  0  0  0  0  0
    8.2875  -18.4580   19.4058 C   0  0  0  0  0  0  0  0  0  0  0  0
    9.0024  -17.1321   19.3282 C   0  0  2  0  0  0  0  0  0  0  0  0
   10.2179  -17.2728   18.5879 N   0  0  0  0  0  0  0  0  0  0  0  0
    9.2079  -16.5304   20.6713 C   0  0  0  0  0  0  0  0  0  0  0  0
   10.3385  -16.5590   21.2277 O   0  0  0  0  0  0  0  0  0  0  0  0
    6.8612  -11.5955   27.8462 O   0  0  0  0  0  0  0  0  0  0  0  0
    6.9459  -12.2536   26.6186 C   0  0  0  0  0  0  0  0  0  0  0  0
    6.2387  -13.4107   26.3710 C   0  0  0  0  0  0  0  0  0  0  0  0
    6.3311  -14.0508   25.1549 C   0  0  0  0  0  0  0  0  0  0  0  0
    7.1367  -13.5714   24.1134 C   0  0  0  0  0  0  0  0  0  0  0  0
    7.2497  -14.2906   22.8326 C   0  0  0  0  0  0  0  0  0  0  0  0
    8.4106  -15.2317   22.7030 C   0  0  2  0  0  0  0  0  0  0  0  0
    8.1707  -15.8990   21.3992 N   0  0  0  0  0  0  0  0  0  0  0  0
    8.4352  -16.2623   23.7534 C   0  0  0  0  0  0  0  0  0  0  0  0
    7.8143  -17.3660   23.5329 O   0  0  0  0  0  0  0  0  0  0  0  0
    7.8329  -12.4169   24.3816 C   0  0  0  0  0  0  0  0  0  0  0  0
    7.7410  -11.7756   25.5987 C   0  0  0  0  0  0  0  0  0  0  0  0
   12.8011  -19.0887   25.3485 N   0  0  0  0  0  0  0  0  0  0  0  0
   11.3864  -19.0889   25.1828 C   0  0  0  0  0  0  0  0  0  0  0  0
   10.7550  -20.1052   25.5422 O   0  0  0  0  0  0  0  0  0  0  0  0
   10.7462  -17.9186   24.6086 C   0  0  0  0  0  0  0  0  0  0  0  0
    9.7227  -17.3209   25.5700 C   0  0  2  0  0  0  0  0  0  0  0  0
    9.0946  -16.1596   25.0044 N   0  0  0  0  0  0  0  0  0  0  0  0
   10.4527  -17.0833   26.8314 C   0  0  0  0  0  0  0  0  0  0  0  0
   10.7686  -18.0102   27.5943 O   0  0  0  0  0  0  0  0  0  0  0  0
   10.8013  -15.7902   27.1850 O   0  0  0  0  0  0  0  0  0  0  0  0
  2  1  1  0
  2  3  1  0
  3  5  1  0
  3  4  1  1
  5  6  2  0
  7  8  1  0
  8 18  2  0
  8  9  1  0
  9 10  2  0
 10 11  1  0
 11 12  1  0
 13 12  1  1
 14 13  1  0
 14  5  1  0
 15 16  2  0
 15 13  1  0
 17 11  2  0
 18 17  1  0
 19 20  1  0
 20 22  1  0
 20 21  2  0
 23 22  1  6
 23 25  1  0
 23 24  1  0
 24 15  1  0
 25 27  1  0
 26 25  2  0
M  END
$$$$
