SYN.pdb
     RDKit          3D

 27 27  0  0  1  0  0  0  0  0999 V2000
    7.6655  -18.5401   19.9759 O   0  0  0  0  0  0  0  0  0  0  0  0
    8.4370  -18.0856   18.9113 C   0  0  0  0  0  0  0  0  0  0  0  0
    8.4434  -16.5797   18.8269 C   0  0  2  0  0  0  0  0  0  0  0  0
    9.2715  -16.1528   17.7419 N   0  0  0  0  0  0  0  0  0  0  0  0
    8.8137  -15.9506   20.1212 C   0  0  0  0  0  0  0  0  0  0  0  0
   10.0220  -15.8179   20.4546 O   0  0  0  0  0  0  0  0  0  0  0  0
    6.9406  -11.9215   28.0231 O   0  0  0  0  0  0  0  0  0  0  0  0
    6.9580  -12.4690   26.7396 C   0  0  0  0  0  0  0  0  0  0  0  0
    7.5408  -11.8055   25.6811 C   0  0  0  0  0  0  0  0  0  0  0  0
    7.5514  -12.3569   24.4189 C   0  0  0  0  0  0  0  0  0  0  0  0
    6.9794  -13.6053   24.1402 C   0  0  0  0  0  0  0  0  0  0  0  0
    6.9693  -14.1614   22.7759 C   0  0  0  0  0  0  0  0  0  0  0  0
    8.2433  -14.8053   22.3151 C   0  0  2  0  0  0  0  0  0  0  0  0
    7.8556  -15.4692   21.0456 N   0  0  0  0  0  0  0  0  0  0  0  0
    8.7362  -15.8347   23.2445 C   0  0  0  0  0  0  0  0  0  0  0  0
    8.1647  -16.9860   23.2308 O   0  0  0  0  0  0  0  0  0  0  0  0
    6.4040  -14.2493   25.2096 C   0  0  0  0  0  0  0  0  0  0  0  0
    6.3930  -13.6981   26.4734 C   0  0  0  0  0  0  0  0  0  0  0  0
   13.7687  -18.4424   25.0793 N   0  0  0  0  0  0  0  0  0  0  0  0
   12.3667  -18.1988   25.1413 C   0  0  0  0  0  0  0  0  0  0  0  0
   11.6490  -19.0509   25.7067 O   0  0  0  0  0  0  0  0  0  0  0  0
   11.8381  -16.9821   24.5502 C   0  0  0  0  0  0  0  0  0  0  0  0
   10.3430  -16.8404   24.8209 C   0  0  2  0  0  0  0  0  0  0  0  0
    9.8037  -15.6819   24.1651 N   0  0  0  0  0  0  0  0  0  0  0  0
   10.2021  -16.8473   26.2908 C   0  0  0  0  0  0  0  0  0  0  0  0
    9.9222  -15.8211   26.9306 O   0  0  0  0  0  0  0  0  0  0  0  0
   10.3858  -18.0298   26.9884 O   0  0  0  0  0  0  0  0  0  0  0  0
  2  1  1  0
  2  3  1  0
  3  5  1  0
  3  4  1  6
  5  6  2  0
  7  8  1  0
  8 18  2  0
  8  9  1  0
  9 10  2  0
 10 11  1  0
 11 12  1  0
 13 12  1  1
 14 13  1  0
 14  5  1  0
 15 16  2  0
 15 13  1  0
 17 11  2  0
 18 17  1  0
 19 20  1  0
 20 22  1  0
 20 21  2  0
 23 22  1  1
 23 25  1  0
 23 24  1  0
 24 15  1  0
 25 27  1  0
 26 25  2  0
M  END
$$$$
