SYN.pdb
     RDKit          3D

 27 27  0  0  1  0  0  0  0  0999 V2000
    8.7844  -19.7207   20.4650 O   0  0  0  0  0  0  0  0  0  0  0  0
    9.8742  -18.9084   20.7609 C   0  0  0  0  0  0  0  0  0  0  0  0
    9.6659  -17.4943   20.2791 C   0  0  2  0  0  0  0  0  0  0  0  0
   10.5772  -17.1987   19.2172 N   0  0  0  0  0  0  0  0  0  0  0  0
    9.7330  -16.5111   21.3913 C   0  0  0  0  0  0  0  0  0  0  0  0
   10.8369  -16.0328   21.7671 O   0  0  0  0  0  0  0  0  0  0  0  0
    6.3055  -11.1921   27.8255 O   0  0  0  0  0  0  0  0  0  0  0  0
    6.5325  -12.0168   26.7229 C   0  0  0  0  0  0  0  0  0  0  0  0
    6.0838  -13.3199   26.6931 C   0  0  0  0  0  0  0  0  0  0  0  0
    6.3144  -14.1236   25.5985 C   0  0  0  0  0  0  0  0  0  0  0  0
    7.0079  -13.6715   24.4679 C   0  0  0  0  0  0  0  0  0  0  0  0
    7.2755  -14.5580   23.3221 C   0  0  0  0  0  0  0  0  0  0  0  0
    8.6740  -15.0887   23.2093 C   0  0  2  0  0  0  0  0  0  0  0  0
    8.5871  -16.0562   22.0872 N   0  0  0  0  0  0  0  0  0  0  0  0
    9.1128  -15.8133   24.4129 C   0  0  0  0  0  0  0  0  0  0  0  0
    9.4539  -15.1244   25.4432 O   0  0  0  0  0  0  0  0  0  0  0  0
    7.4461  -12.3697   24.5188 C   0  0  0  0  0  0  0  0  0  0  0  0
    7.2157  -11.5645   25.6140 C   0  0  0  0  0  0  0  0  0  0  0  0
    6.9126  -17.9110   26.3708 N   0  0  0  0  0  0  0  0  0  0  0  0
    7.5678  -19.1703   26.2533 C   0  0  0  0  0  0  0  0  0  0  0  0
    6.8792  -20.2035   26.3912 O   0  0  0  0  0  0  0  0  0  0  0  0
    8.9941  -19.1975   25.9810 C   0  0  0  0  0  0  0  0  0  0  0  0
    9.5537  -17.7864   25.8238 C   0  0  2  0  0  0  0  0  0  0  0  0
    9.1908  -17.2219   24.5539 N   0  0  0  0  0  0  0  0  0  0  0  0
   11.0061  -17.9054   26.0615 C   0  0  0  0  0  0  0  0  0  0  0  0
   11.8407  -17.6661   25.1742 O   0  0  0  0  0  0  0  0  0  0  0  0
   11.4638  -18.2955   27.3093 O   0  0  0  0  0  0  0  0  0  0  0  0
  2  1  1  0
  2  3  1  0
  3  5  1  0
  3  4  1  6
  5  6  2  0
  7  8  1  0
  8 18  2  0
  8  9  1  0
  9 10  2  0
 10 11  1  0
 11 12  1  0
 13 12  1  1
 14 13  1  0
 14  5  1  0
 15 16  2  0
 15 13  1  0
 17 11  2  0
 18 17  1  0
 19 20  1  0
 20 22  1  0
 20 21  2  0
 23 22  1  6
 23 25  1  0
 23 24  1  0
 24 15  1  0
 25 27  1  0
 26 25  2  0
M  END
$$$$
