SYN.pdb
     RDKit          3D

 27 27  0  0  1  0  0  0  0  0999 V2000
    8.0582  -20.9583   19.9514 O   0  0  0  0  0  0  0  0  0  0  0  0
    8.9990  -19.9893   20.2843 C   0  0  0  0  0  0  0  0  0  0  0  0
    8.7310  -18.6829   19.5796 C   0  0  2  0  0  0  0  0  0  0  0  0
    8.7315  -18.8807   18.1632 N   0  0  0  0  0  0  0  0  0  0  0  0
    9.6648  -17.6125   20.0159 C   0  0  0  0  0  0  0  0  0  0  0  0
   10.7095  -17.3569   19.3587 O   0  0  0  0  0  0  0  0  0  0  0  0
    6.3837  -12.2050   18.0452 O   0  0  0  0  0  0  0  0  0  0  0  0
    7.1605  -12.8001   19.0401 C   0  0  0  0  0  0  0  0  0  0  0  0
    8.5289  -12.6384   19.0791 C   0  0  0  0  0  0  0  0  0  0  0  0
    9.2843  -13.2313   20.0666 C   0  0  0  0  0  0  0  0  0  0  0  0
    8.7157  -14.0217   21.0743 C   0  0  0  0  0  0  0  0  0  0  0  0
    9.5453  -14.6767   22.1006 C   0  0  0  0  0  0  0  0  0  0  0  0
   10.4195  -15.7995   21.6264 C   0  0  2  0  0  0  0  0  0  0  0  0
    9.4483  -16.8261   21.1730 N   0  0  0  0  0  0  0  0  0  0  0  0
   11.2412  -16.3813   22.7000 C   0  0  0  0  0  0  0  0  0  0  0  0
   12.2573  -15.7119   23.1145 O   0  0  0  0  0  0  0  0  0  0  0  0
    7.3504  -14.1697   21.0163 C   0  0  0  0  0  0  0  0  0  0  0  0
    6.5935  -13.5766   20.0283 C   0  0  0  0  0  0  0  0  0  0  0  0
   14.9401  -17.4475   24.1121 N   0  0  0  0  0  0  0  0  0  0  0  0
   13.8481  -16.8067   24.7646 C   0  0  0  0  0  0  0  0  0  0  0  0
   13.9424  -15.5832   24.9988 O   0  0  0  0  0  0  0  0  0  0  0  0
   12.6839  -17.5965   25.1255 C   0  0  0  0  0  0  0  0  0  0  0  0
   12.1217  -18.3372   23.9155 C   0  0  2  0  0  0  0  0  0  0  0  0
   11.0146  -17.6263   23.3394 N   0  0  0  0  0  0  0  0  0  0  0  0
   11.8085  -19.6990   24.3925 C   0  0  0  0  0  0  0  0  0  0  0  0
   12.6873  -20.4678   24.8140 O   0  0  0  0  0  0  0  0  0  0  0  0
   10.4968  -20.1438   24.3739 O   0  0  0  0  0  0  0  0  0  0  0  0
  2  1  1  0
  2  3  1  0
  3  5  1  0
  3  4  1  6
  5  6  2  0
  7  8  1  0
  8 18  2  0
  8  9  1  0
  9 10  2  0
 10 11  1  0
 11 12  1  0
 13 12  1  1
 14 13  1  0
 14  5  1  0
 15 16  2  0
 15 13  1  0
 17 11  2  0
 18 17  1  0
 19 20  1  0
 20 22  1  0
 20 21  2  0
 23 22  1  1
 23 25  1  0
 23 24  1  0
 24 15  1  0
 25 27  1  0
 26 25  2  0
M  END
$$$$
