SYN.pdb
     RDKit          3D

 27 27  0  0  1  0  0  0  0  0999 V2000
    7.0353  -15.3532   16.9677 O   0  0  0  0  0  0  0  0  0  0  0  0
    7.6287  -15.2475   18.2214 C   0  0  0  0  0  0  0  0  0  0  0  0
    7.3750  -13.8998   18.8494 C   0  0  2  0  0  0  0  0  0  0  0  0
    7.7627  -12.8585   17.9491 N   0  0  0  0  0  0  0  0  0  0  0  0
    8.0137  -13.7786   20.1856 C   0  0  0  0  0  0  0  0  0  0  0  0
    9.2236  -13.4433   20.2972 O   0  0  0  0  0  0  0  0  0  0  0  0
    8.1624  -13.8400   29.2041 O   0  0  0  0  0  0  0  0  0  0  0  0
    7.8275  -13.8012   27.8499 C   0  0  0  0  0  0  0  0  0  0  0  0
    7.4175  -14.9319   27.1764 C   0  0  0  0  0  0  0  0  0  0  0  0
    7.0898  -14.8802   25.8395 C   0  0  0  0  0  0  0  0  0  0  0  0
    7.1527  -13.6939   25.0964 C   0  0  0  0  0  0  0  0  0  0  0  0
    6.8326  -13.6670   23.6586 C   0  0  0  0  0  0  0  0  0  0  0  0
    7.9780  -13.9121   22.7216 C   0  0  2  0  0  0  0  0  0  0  0  0
    7.3214  -14.0262   21.3954 N   0  0  0  0  0  0  0  0  0  0  0  0
    8.6870  -15.1720   22.9974 C   0  0  0  0  0  0  0  0  0  0  0  0
    8.1482  -16.2692   22.5997 O   0  0  0  0  0  0  0  0  0  0  0  0
    7.5638  -12.5791   25.7874 C   0  0  0  0  0  0  0  0  0  0  0  0
    7.8920  -12.6299   27.1256 C   0  0  0  0  0  0  0  0  0  0  0  0
   12.4288  -18.8740   22.3981 N   0  0  0  0  0  0  0  0  0  0  0  0
   12.5862  -17.8975   23.4230 C   0  0  0  0  0  0  0  0  0  0  0  0
   13.2595  -18.2076   24.4286 O   0  0  0  0  0  0  0  0  0  0  0  0
   11.9627  -16.5965   23.2556 C   0  0  0  0  0  0  0  0  0  0  0  0
   10.5358  -16.5937   23.7968 C   0  0  2  0  0  0  0  0  0  0  0  0
    9.9322  -15.2972   23.6639 N   0  0  0  0  0  0  0  0  0  0  0  0
   10.6342  -17.0971   25.1814 C   0  0  0  0  0  0  0  0  0  0  0  0
   10.6572  -16.3336   26.1599 O   0  0  0  0  0  0  0  0  0  0  0  0
   10.7036  -18.4618   25.4081 O   0  0  0  0  0  0  0  0  0  0  0  0
  2  1  1  0
  2  3  1  0
  3  5  1  0
  3  4  1  6
  5  6  2  0
  7  8  1  0
  8 18  2  0
  8  9  1  0
  9 10  2  0
 10 11  1  0
 11 12  1  0
 13 12  1  1
 14 13  1  0
 14  5  1  0
 15 16  2  0
 15 13  1  0
 17 11  2  0
 18 17  1  0
 19 20  1  0
 20 22  1  0
 20 21  2  0
 23 22  1  1
 23 25  1  0
 23 24  1  0
 24 15  1  0
 25 27  1  0
 26 25  2  0
M  END
$$$$
