SYN.pdb
     RDKit          3D

 27 27  0  0  1  0  0  0  0  0999 V2000
    9.7955  -19.1371   20.2113 O   0  0  0  0  0  0  0  0  0  0  0  0
    8.7194  -18.6361   19.4860 C   0  0  0  0  0  0  0  0  0  0  0  0
    8.9405  -17.2020   19.0743 C   0  0  2  0  0  0  0  0  0  0  0  0
    9.9864  -17.1266   18.1019 N   0  0  0  0  0  0  0  0  0  0  0  0
    9.1717  -16.3157   20.2444 C   0  0  0  0  0  0  0  0  0  0  0  0
   10.2548  -15.6843   20.3746 O   0  0  0  0  0  0  0  0  0  0  0  0
    6.7224  -11.6681   27.5796 O   0  0  0  0  0  0  0  0  0  0  0  0
    6.7910  -12.4809   26.4473 C   0  0  0  0  0  0  0  0  0  0  0  0
    6.4668  -13.8197   26.5006 C   0  0  0  0  0  0  0  0  0  0  0  0
    6.5386  -14.6113   25.3757 C   0  0  0  0  0  0  0  0  0  0  0  0
    6.9392  -14.1106   24.1297 C   0  0  0  0  0  0  0  0  0  0  0  0
    7.0440  -14.9818   22.9463 C   0  0  0  0  0  0  0  0  0  0  0  0
    8.4212  -15.1664   22.3813 C   0  0  2  0  0  0  0  0  0  0  0  0
    8.2125  -16.1256   21.2681 N   0  0  0  0  0  0  0  0  0  0  0  0
    9.3608  -15.7680   23.3413 C   0  0  0  0  0  0  0  0  0  0  0  0
    9.7830  -15.0394   24.3124 O   0  0  0  0  0  0  0  0  0  0  0  0
    7.2577  -12.7738   24.0992 C   0  0  0  0  0  0  0  0  0  0  0  0
    7.1861  -11.9808   25.2248 C   0  0  0  0  0  0  0  0  0  0  0  0
   12.7633  -18.3680   25.9396 N   0  0  0  0  0  0  0  0  0  0  0  0
   12.9806  -17.1083   25.3111 C   0  0  0  0  0  0  0  0  0  0  0  0
   14.0552  -16.5155   25.5444 O   0  0  0  0  0  0  0  0  0  0  0  0
   11.9530  -16.5737   24.4352 C   0  0  0  0  0  0  0  0  0  0  0  0
   10.7775  -17.5387   24.3087 C   0  0  2  0  0  0  0  0  0  0  0  0
    9.8494  -17.0985   23.3048 N   0  0  0  0  0  0  0  0  0  0  0  0
   10.2145  -17.6606   25.6683 C   0  0  0  0  0  0  0  0  0  0  0  0
   10.5433  -18.5775   26.4377 O   0  0  0  0  0  0  0  0  0  0  0  0
    9.2898  -16.7287   26.1102 O   0  0  0  0  0  0  0  0  0  0  0  0
  2  1  1  0
  2  3  1  0
  3  5  1  0
  3  4  1  6
  5  6  2  0
  7  8  1  0
  8 18  2  0
  8  9  1  0
  9 10  2  0
 10 11  1  0
 11 12  1  0
 13 12  1  1
 14 13  1  0
 14  5  1  0
 15 16  2  0
 15 13  1  0
 17 11  2  0
 18 17  1  0
 19 20  1  0
 20 22  1  0
 20 21  2  0
 23 22  1  1
 23 25  1  0
 23 24  1  0
 24 15  1  0
 25 27  1  0
 26 25  2  0
M  END
$$$$
