SYN.pdb
     RDKit          3D

 27 27  0  0  1  0  0  0  0  0999 V2000
    8.9367  -16.9203   19.1364 O   0  0  0  0  0  0  0  0  0  0  0  0
    7.6164  -16.4888   19.2121 C   0  0  0  0  0  0  0  0  0  0  0  0
    7.5119  -15.1084   19.8110 C   0  0  2  0  0  0  0  0  0  0  0  0
    7.9415  -14.1283   18.8622 N   0  0  0  0  0  0  0  0  0  0  0  0
    8.2257  -15.0092   21.1105 C   0  0  0  0  0  0  0  0  0  0  0  0
    9.3052  -14.3661   21.2091 O   0  0  0  0  0  0  0  0  0  0  0  0
    6.5013  -10.6199   27.4518 O   0  0  0  0  0  0  0  0  0  0  0  0
    6.7171  -11.8052   26.7476 C   0  0  0  0  0  0  0  0  0  0  0  0
    6.1081  -12.0435   25.5341 C   0  0  0  0  0  0  0  0  0  0  0  0
    6.3295  -13.2177   24.8490 C   0  0  0  0  0  0  0  0  0  0  0  0
    7.1737  -14.2240   25.3370 C   0  0  0  0  0  0  0  0  0  0  0  0
    7.3690  -15.4881   24.6060 C   0  0  0  0  0  0  0  0  0  0  0  0
    8.4725  -15.5005   23.5900 C   0  0  2  0  0  0  0  0  0  0  0  0
    7.7516  -15.6170   22.2980 N   0  0  0  0  0  0  0  0  0  0  0  0
    9.3676  -16.6608   23.7274 C   0  0  0  0  0  0  0  0  0  0  0  0
    8.8590  -17.8351   23.6057 O   0  0  0  0  0  0  0  0  0  0  0  0
    7.7704  -13.9658   26.5480 C   0  0  0  0  0  0  0  0  0  0  0  0
    7.5493  -12.7907   27.2346 C   0  0  0  0  0  0  0  0  0  0  0  0
   15.1464  -18.8230   24.1372 N   0  0  0  0  0  0  0  0  0  0  0  0
   13.7296  -18.8565   23.9949 C   0  0  0  0  0  0  0  0  0  0  0  0
   13.1768  -19.9730   23.9024 O   0  0  0  0  0  0  0  0  0  0  0  0
   12.9968  -17.6030   23.9640 C   0  0  0  0  0  0  0  0  0  0  0  0
   11.4976  -17.8350   24.1304 C   0  0  2  0  0  0  0  0  0  0  0  0
   10.7622  -16.6107   23.9778 N   0  0  0  0  0  0  0  0  0  0  0  0
   11.3403  -18.4981   25.4403 C   0  0  0  0  0  0  0  0  0  0  0  0
   11.2504  -17.8544   26.4979 O   0  0  0  0  0  0  0  0  0  0  0  0
   11.2902  -19.8809   25.5036 O   0  0  0  0  0  0  0  0  0  0  0  0
  2  1  1  0
  2  3  1  0
  3  5  1  0
  3  4  1  6
  5  6  2  0
  7  8  1  0
  8 18  2  0
  8  9  1  0
  9 10  2  0
 10 11  1  0
 11 12  1  0
 13 12  1  1
 14 13  1  0
 14  5  1  0
 15 16  2  0
 15 13  1  0
 17 11  2  0
 18 17  1  0
 19 20  1  0
 20 22  1  0
 20 21  2  0
 23 22  1  1
 23 25  1  0
 23 24  1  0
 24 15  1  0
 25 27  1  0
 26 25  2  0
M  END
$$$$
