SYN.pdb
     RDKit          3D

 27 27  0  0  1  0  0  0  0  0999 V2000
    9.5535  -19.0715   20.0340 O   0  0  0  0  0  0  0  0  0  0  0  0
    8.5037  -18.3440   19.4827 C   0  0  0  0  0  0  0  0  0  0  0  0
    8.8958  -16.9131   19.2108 C   0  0  2  0  0  0  0  0  0  0  0  0
    9.9981  -16.8712   18.3006 N   0  0  0  0  0  0  0  0  0  0  0  0
    9.1502  -16.1572   20.4646 C   0  0  0  0  0  0  0  0  0  0  0  0
   10.3258  -15.8933   20.8345 O   0  0  0  0  0  0  0  0  0  0  0  0
    6.7961  -11.9588   28.0988 O   0  0  0  0  0  0  0  0  0  0  0  0
    6.8481  -12.5561   26.8387 C   0  0  0  0  0  0  0  0  0  0  0  0
    6.3056  -13.8024   26.6090 C   0  0  0  0  0  0  0  0  0  0  0  0
    6.3636  -14.3810   25.3604 C   0  0  0  0  0  0  0  0  0  0  0  0
    6.9680  -13.7472   24.2666 C   0  0  0  0  0  0  0  0  0  0  0  0
    7.0515  -14.3985   22.9478 C   0  0  0  0  0  0  0  0  0  0  0  0
    8.3848  -14.9792   22.5804 C   0  0  2  0  0  0  0  0  0  0  0  0
    8.1122  -15.6934   21.3083 N   0  0  0  0  0  0  0  0  0  0  0  0
    8.8770  -15.9569   23.5644 C   0  0  0  0  0  0  0  0  0  0  0  0
    8.2519  -17.0751   23.6711 O   0  0  0  0  0  0  0  0  0  0  0  0
    7.5023  -12.5059   24.5177 C   0  0  0  0  0  0  0  0  0  0  0  0
    7.4447  -11.9260   25.7673 C   0  0  0  0  0  0  0  0  0  0  0  0
   11.9215  -18.3010   23.1954 N   0  0  0  0  0  0  0  0  0  0  0  0
   12.3474  -17.2116   24.0082 C   0  0  0  0  0  0  0  0  0  0  0  0
   13.1532  -16.3938   23.5156 O   0  0  0  0  0  0  0  0  0  0  0  0
   11.8311  -17.1005   25.3611 C   0  0  0  0  0  0  0  0  0  0  0  0
   10.3312  -16.8191   25.3589 C   0  0  2  0  0  0  0  0  0  0  0  0
    9.9973  -15.7877   24.4167 N   0  0  0  0  0  0  0  0  0  0  0  0
    9.9801  -16.5201   26.7616 C   0  0  0  0  0  0  0  0  0  0  0  0
   10.1121  -17.3591   27.6669 O   0  0  0  0  0  0  0  0  0  0  0  0
    9.4873  -15.2679   27.0898 O   0  0  0  0  0  0  0  0  0  0  0  0
  2  1  1  0
  2  3  1  0
  3  5  1  0
  3  4  1  6
  5  6  2  0
  7  8  1  0
  8 18  2  0
  8  9  1  0
  9 10  2  0
 10 11  1  0
 11 12  1  0
 13 12  1  1
 14 13  1  0
 14  5  1  0
 15 16  2  0
 15 13  1  0
 17 11  2  0
 18 17  1  0
 19 20  1  0
 20 22  1  0
 20 21  2  0
 23 22  1  1
 23 25  1  0
 23 24  1  0
 24 15  1  0
 25 27  1  0
 26 25  2  0
M  END
$$$$
