SYN.pdb
     RDKit          3D

 27 27  0  0  1  0  0  0  0  0999 V2000
    8.7659  -19.0382   18.3300 O   0  0  0  0  0  0  0  0  0  0  0  0
    8.6143  -18.3108   19.5061 C   0  0  0  0  0  0  0  0  0  0  0  0
    8.7613  -16.8282   19.2705 C   0  0  2  0  0  0  0  0  0  0  0  0
    9.7041  -16.5895   18.2219 N   0  0  0  0  0  0  0  0  0  0  0  0
    9.0870  -16.0949   20.5211 C   0  0  0  0  0  0  0  0  0  0  0  0
   10.2825  -15.9441   20.8908 O   0  0  0  0  0  0  0  0  0  0  0  0
    6.9512  -11.7601   28.1897 O   0  0  0  0  0  0  0  0  0  0  0  0
    7.0104  -12.3522   26.9274 C   0  0  0  0  0  0  0  0  0  0  0  0
    7.6700  -11.7482   25.8784 C   0  0  0  0  0  0  0  0  0  0  0  0
    7.7211  -12.3432   24.6372 C   0  0  0  0  0  0  0  0  0  0  0  0
    7.1151  -13.5783   24.3712 C   0  0  0  0  0  0  0  0  0  0  0  0
    7.1505  -14.1808   23.0272 C   0  0  0  0  0  0  0  0  0  0  0  0
    8.4381  -14.8413   22.6324 C   0  0  2  0  0  0  0  0  0  0  0  0
    8.0984  -15.5294   21.3620 N   0  0  0  0  0  0  0  0  0  0  0  0
    8.8859  -15.8538   23.6023 C   0  0  0  0  0  0  0  0  0  0  0  0
    8.1813  -16.9211   23.7317 O   0  0  0  0  0  0  0  0  0  0  0  0
    6.4632  -14.1627   25.4308 C   0  0  0  0  0  0  0  0  0  0  0  0
    6.4116  -13.5678   26.6736 C   0  0  0  0  0  0  0  0  0  0  0  0
   11.6288  -18.6344   23.2366 N   0  0  0  0  0  0  0  0  0  0  0  0
   12.2043  -17.5187   23.9095 C   0  0  0  0  0  0  0  0  0  0  0  0
   13.0380  -16.8265   23.2877 O   0  0  0  0  0  0  0  0  0  0  0  0
   11.8005  -17.2376   25.2759 C   0  0  0  0  0  0  0  0  0  0  0  0
   10.3319  -16.8285   25.3451 C   0  0  2  0  0  0  0  0  0  0  0  0
   10.0428  -15.7705   24.4177 N   0  0  0  0  0  0  0  0  0  0  0  0
   10.0756  -16.5030   26.7624 C   0  0  0  0  0  0  0  0  0  0  0  0
    9.7108  -15.3727   27.1232 O   0  0  0  0  0  0  0  0  0  0  0  0
   10.2441  -17.4812   27.7285 O   0  0  0  0  0  0  0  0  0  0  0  0
  2  1  1  0
  2  3  1  0
  3  5  1  0
  3  4  1  6
  5  6  2  0
  7  8  1  0
  8 18  2  0
  8  9  1  0
  9 10  2  0
 10 11  1  0
 11 12  1  0
 13 12  1  1
 14 13  1  0
 14  5  1  0
 15 16  2  0
 15 13  1  0
 17 11  2  0
 18 17  1  0
 19 20  1  0
 20 22  1  0
 20 21  2  0
 23 22  1  1
 23 25  1  0
 23 24  1  0
 24 15  1  0
 25 27  1  0
 26 25  2  0
M  END
$$$$
