SYN.pdb
     RDKit          3D

 27 27  0  0  1  0  0  0  0  0999 V2000
    8.9225  -18.9112   20.1047 O   0  0  0  0  0  0  0  0  0  0  0  0
    8.3383  -17.9069   19.3397 C   0  0  0  0  0  0  0  0  0  0  0  0
    9.1497  -16.6358   19.3704 C   0  0  2  0  0  0  0  0  0  0  0  0
   10.4074  -16.8410   18.7213 N   0  0  0  0  0  0  0  0  0  0  0  0
    9.2893  -16.0969   20.7482 C   0  0  0  0  0  0  0  0  0  0  0  0
   10.3813  -16.1871   21.3713 O   0  0  0  0  0  0  0  0  0  0  0  0
    6.7153  -11.6474   28.1483 O   0  0  0  0  0  0  0  0  0  0  0  0
    6.8378  -12.2161   26.8798 C   0  0  0  0  0  0  0  0  0  0  0  0
    6.1621  -13.3681   26.5383 C   0  0  0  0  0  0  0  0  0  0  0  0
    6.2915  -13.9194   25.2827 C   0  0  0  0  0  0  0  0  0  0  0  0
    7.1050  -13.3509   24.2934 C   0  0  0  0  0  0  0  0  0  0  0  0
    7.2581  -13.9761   22.9682 C   0  0  0  0  0  0  0  0  0  0  0  0
    8.3703  -14.9733   22.8321 C   0  0  2  0  0  0  0  0  0  0  0  0
    8.2290  -15.4607   21.4375 N   0  0  0  0  0  0  0  0  0  0  0  0
    8.2271  -16.1220   23.7412 C   0  0  0  0  0  0  0  0  0  0  0  0
    7.7062  -17.2009   23.2754 O   0  0  0  0  0  0  0  0  0  0  0  0
    7.7693  -12.2032   24.6551 C   0  0  0  0  0  0  0  0  0  0  0  0
    7.6403  -11.6507   25.9117 C   0  0  0  0  0  0  0  0  0  0  0  0
   10.9727  -19.3698   26.2225 N   0  0  0  0  0  0  0  0  0  0  0  0
   11.1946  -18.8437   24.9175 C   0  0  0  0  0  0  0  0  0  0  0  0
   12.0872  -19.3689   24.2187 O   0  0  0  0  0  0  0  0  0  0  0  0
   10.3813  -17.7305   24.4611 C   0  0  0  0  0  0  0  0  0  0  0  0
    9.4564  -17.2315   25.5676 C   0  0  2  0  0  0  0  0  0  0  0  0
    8.6209  -16.1597   25.1027 N   0  0  0  0  0  0  0  0  0  0  0  0
   10.3396  -16.8879   26.7000 C   0  0  0  0  0  0  0  0  0  0  0  0
   11.3371  -16.1623   26.5608 O   0  0  0  0  0  0  0  0  0  0  0  0
   10.0564  -17.3848   27.9615 O   0  0  0  0  0  0  0  0  0  0  0  0
  2  1  1  0
  2  3  1  0
  3  5  1  0
  3  4  1  1
  5  6  2  0
  7  8  1  0
  8 18  2  0
  8  9  1  0
  9 10  2  0
 10 11  1  0
 11 12  1  0
 13 12  1  1
 14 13  1  0
 14  5  1  0
 15 16  2  0
 15 13  1  0
 17 11  2  0
 18 17  1  0
 19 20  1  0
 20 22  1  0
 20 21  2  0
 23 22  1  6
 23 25  1  0
 23 24  1  0
 24 15  1  0
 25 27  1  0
 26 25  2  0
M  END
$$$$
