QTW.pdb
     RDKit          3D

 31 32  0  0  1  0  0  0  0  0999 V2000
   28.4875  -23.8326  -18.5099 N   0  0  0  0  0  0  0  0  0  0  0  0
   28.4501  -23.4026  -17.1456 C   0  0  0  0  0  0  0  0  0  0  0  0
   27.4465  -23.7935  -16.4961 O   0  0  0  0  0  0  0  0  0  0  0  0
   29.5189  -22.5750  -16.6147 C   0  0  0  0  0  0  0  0  0  0  0  0
   29.1339  -21.4286  -15.7359 C   0  0  0  0  0  0  0  0  0  0  0  0
   28.3511  -20.4088  -16.4813 C   0  0  2  0  0  0  0  0  0  0  0  0
   29.2313  -19.4536  -17.0926 N   0  0  0  0  0  0  0  0  0  0  0  0
   27.3590  -19.7081  -15.5959 C   0  0  0  0  0  0  0  0  0  0  0  0
   27.7641  -18.7501  -14.9055 O   0  0  0  0  0  0  0  0  0  0  0  0
   22.8903  -18.2083  -14.6444 C   0  0  0  0  0  0  0  0  0  0  0  0
   23.9840  -18.7744  -15.4967 C   0  0  1  0  0  0  0  0  0  0  0  0
   24.5792  -17.7155  -16.1835 O   0  0  0  0  0  0  0  0  0  0  0  0
   25.0215  -19.5196  -14.6470 C   0  0  2  0  0  0  0  0  0  0  0  0
   26.0040  -20.0874  -15.5179 N   0  0  0  0  0  0  0  0  0  0  0  0
   24.3224  -20.5216  -13.8173 C   0  0  0  0  0  0  0  0  0  0  0  0
   23.7777  -21.5435  -14.3078 O   0  0  0  0  0  0  0  0  0  0  0  0
   24.2125  -20.4103  -12.4032 N   0  0  0  0  0  0  0  0  0  0  0  0
   23.4824  -21.3145  -11.5609 C   0  0  1  0  0  0  0  0  0  0  0  0
   24.1714  -21.7356  -10.3322 C   0  0  0  0  0  0  0  0  0  0  0  0
   25.5649  -21.2422  -10.3400 C   0  0  0  0  0  0  0  0  0  0  0  0
   26.5288  -21.2496  -11.3245 C   0  0  0  0  0  0  0  0  0  0  0  0
   27.6779  -20.7055  -10.8874 N   0  0  0  0  0  0  0  0  0  0  0  0
   27.5144  -20.3241   -9.6133 C   0  0  0  0  0  0  0  0  0  0  0  0
   28.3928  -19.7194   -8.7230 C   0  0  0  0  0  0  0  0  0  0  0  0
   27.9491  -19.4388   -7.4557 C   0  0  0  0  0  0  0  0  0  0  0  0
   26.6633  -19.7533   -7.0870 C   0  0  0  0  0  0  0  0  0  0  0  0
   25.7904  -20.3582   -7.9835 C   0  0  0  0  0  0  0  0  0  0  0  0
   26.2223  -20.6435   -9.2528 C   0  0  0  0  0  0  0  0  0  0  0  0
   22.1888  -20.6843  -11.2072 C   0  0  0  0  0  0  0  0  0  0  0  0
   21.2226  -21.4484  -10.5800 O   0  0  0  0  0  0  0  0  0  0  0  0
   21.9761  -19.4986  -11.4665 O   0  0  0  0  0  0  0  0  0  0  0  0
  2  1  1  0
  3  2  2  0
  4  2  1  0
  5  6  1  0
  5  4  1  0
  6  8  1  0
  6  7  1  1
  8  9  2  0
 11 13  1  0
 11 10  1  1
 12 11  1  0
 13 15  1  0
 14  8  1  0
 13 14  1  6
 15 16  2  0
 17 18  1  0
 17 15  1  0
 18 29  1  0
 18 19  1  1
 20 19  1  0
 20 21  2  0
 22 21  1  0
 23 22  1  0
 24 23  2  0
 25 24  1  0
 26 25  2  0
 26 27  1  0
 27 28  2  0
 28 23  1  0
 28 20  1  0
 29 30  1  0
 31 29  2  0
M  END
$$$$
