QTW.pdb
     RDKit          3D

 31 32  0  0  1  0  0  0  0  0999 V2000
   29.4155  -16.5676  -19.4755 N   0  0  0  0  0  0  0  0  0  0  0  0
   30.2478  -17.7263  -19.3645 C   0  0  0  0  0  0  0  0  0  0  0  0
   30.9961  -17.9355  -20.3534 O   0  0  0  0  0  0  0  0  0  0  0  0
   30.1813  -18.5578  -18.1757 C   0  0  0  0  0  0  0  0  0  0  0  0
   29.2432  -18.1379  -17.0901 C   0  0  0  0  0  0  0  0  0  0  0  0
   28.7457  -19.3056  -16.3172 C   0  0  2  0  0  0  0  0  0  0  0  0
   27.8026  -20.0550  -17.0981 N   0  0  0  0  0  0  0  0  0  0  0  0
   28.1253  -18.8898  -15.0128 C   0  0  0  0  0  0  0  0  0  0  0  0
   28.0661  -17.6698  -14.7548 O   0  0  0  0  0  0  0  0  0  0  0  0
   25.3994  -17.9875  -14.3405 C   0  0  0  0  0  0  0  0  0  0  0  0
   25.3947  -19.1594  -13.4080 C   0  0  1  0  0  0  0  0  0  0  0  0
   24.8277  -20.2396  -14.0854 O   0  0  0  0  0  0  0  0  0  0  0  0
   26.8145  -19.5008  -12.9373 C   0  0  2  0  0  0  0  0  0  0  0  0
   27.6131  -19.8151  -14.0815 N   0  0  0  0  0  0  0  0  0  0  0  0
   26.7359  -20.6012  -11.9553 C   0  0  0  0  0  0  0  0  0  0  0  0
   26.9054  -21.8056  -12.2753 O   0  0  0  0  0  0  0  0  0  0  0  0
   26.4651  -20.3853  -10.5754 N   0  0  0  0  0  0  0  0  0  0  0  0
   26.2892  -21.4227   -9.5992 C   0  0  1  0  0  0  0  0  0  0  0  0
   27.3865  -21.5793   -8.6331 C   0  0  0  0  0  0  0  0  0  0  0  0
   27.4799  -20.3786   -7.7758 C   0  0  0  0  0  0  0  0  0  0  0  0
   26.9633  -19.1100   -7.9247 C   0  0  0  0  0  0  0  0  0  0  0  0
   27.3151  -18.3156   -6.8987 N   0  0  0  0  0  0  0  0  0  0  0  0
   28.0679  -19.0242   -6.0462 C   0  0  0  0  0  0  0  0  0  0  0  0
   28.6720  -18.6645   -4.8481 C   0  0  0  0  0  0  0  0  0  0  0  0
   29.4002  -19.6110   -4.1731 C   0  0  0  0  0  0  0  0  0  0  0  0
   29.5220  -20.8822   -4.6804 C   0  0  0  0  0  0  0  0  0  0  0  0
   28.9144  -21.2344   -5.8797 C   0  0  0  0  0  0  0  0  0  0  0  0
   28.1841  -20.2972   -6.5633 C   0  0  0  0  0  0  0  0  0  0  0  0
   25.0247  -21.1700   -8.8694 C   0  0  0  0  0  0  0  0  0  0  0  0
   24.6512  -22.0370   -7.8596 O   0  0  0  0  0  0  0  0  0  0  0  0
   24.3166  -20.2032   -9.1560 O   0  0  0  0  0  0  0  0  0  0  0  0
  2  1  1  0
  3  2  2  0
  4  2  1  0
  5  6  1  0
  5  4  1  0
  6  8  1  0
  6  7  1  6
  8  9  2  0
 11 13  1  0
 11 10  1  6
 12 11  1  0
 13 15  1  0
 14  8  1  0
 13 14  1  6
 15 16  2  0
 17 18  1  0
 17 15  1  0
 18 29  1  0
 18 19  1  1
 20 19  1  0
 20 21  2  0
 22 21  1  0
 23 22  1  0
 24 23  2  0
 25 24  1  0
 26 25  2  0
 26 27  1  0
 27 28  2  0
 28 23  1  0
 28 20  1  0
 29 30  1  0
 31 29  2  0
M  END
$$$$
