QTW.pdb
     RDKit          3D

 31 32  0  0  1  0  0  0  0  0999 V2000
   24.5071  -20.5613   -9.7606 N   0  0  0  0  0  0  0  0  0  0  0  0
   25.7283  -20.4074   -9.0308 C   0  0  0  0  0  0  0  0  0  0  0  0
   25.6274  -20.5832   -7.7896 O   0  0  0  0  0  0  0  0  0  0  0  0
   26.9552  -20.0686   -9.7301 C   0  0  0  0  0  0  0  0  0  0  0  0
   26.8713  -19.8491  -11.2065 C   0  0  0  0  0  0  0  0  0  0  0  0
   26.5050  -21.0981  -11.9236 C   0  0  2  0  0  0  0  0  0  0  0  0
   27.6283  -21.9904  -11.9761 N   0  0  0  0  0  0  0  0  0  0  0  0
   25.9988  -20.8185  -13.3110 C   0  0  0  0  0  0  0  0  0  0  0  0
   26.8381  -20.6914  -14.2264 O   0  0  0  0  0  0  0  0  0  0  0  0
   24.2343  -22.9556  -15.4096 C   0  0  0  0  0  0  0  0  0  0  0  0
   23.3103  -21.7808  -15.3148 C   0  0  1  0  0  0  0  0  0  0  0  0
   22.3301  -22.0859  -14.3696 O   0  0  0  0  0  0  0  0  0  0  0  0
   24.0686  -20.5080  -14.9164 C   0  0  2  0  0  0  0  0  0  0  0  0
   24.6278  -20.6970  -13.6136 N   0  0  0  0  0  0  0  0  0  0  0  0
   23.1427  -19.3602  -14.9976 C   0  0  0  0  0  0  0  0  0  0  0  0
   22.4346  -18.9934  -14.0252 O   0  0  0  0  0  0  0  0  0  0  0  0
   22.9812  -18.5818  -16.1774 N   0  0  0  0  0  0  0  0  0  0  0  0
   22.0498  -17.5003  -16.3286 C   0  0  1  0  0  0  0  0  0  0  0  0
   22.5265  -16.3565  -17.1201 C   0  0  0  0  0  0  0  0  0  0  0  0
   23.6405  -15.6851  -16.4173 C   0  0  0  0  0  0  0  0  0  0  0  0
   23.6568  -14.6194  -15.5442 C   0  0  0  0  0  0  0  0  0  0  0  0
   24.9097  -14.3258  -15.1549 N   0  0  0  0  0  0  0  0  0  0  0  0
   25.7548  -15.1780  -15.7508 C   0  0  0  0  0  0  0  0  0  0  0  0
   27.1376  -15.2896  -15.6796 C   0  0  0  0  0  0  0  0  0  0  0  0
   27.7527  -16.2726  -16.4125 C   0  0  0  0  0  0  0  0  0  0  0  0
   27.0076  -17.1212  -17.1953 C   0  0  0  0  0  0  0  0  0  0  0  0
   25.6244  -17.0032  -17.2610 C   0  0  0  0  0  0  0  0  0  0  0  0
   24.9983  -16.0249  -16.5332 C   0  0  0  0  0  0  0  0  0  0  0  0
   20.8073  -18.0332  -16.9351 C   0  0  0  0  0  0  0  0  0  0  0  0
   20.8643  -19.2200  -17.6416 O   0  0  0  0  0  0  0  0  0  0  0  0
   19.7398  -17.4302  -16.8124 O   0  0  0  0  0  0  0  0  0  0  0  0
  2  1  1  0
  3  2  2  0
  4  2  1  0
  5  6  1  0
  5  4  1  0
  6  8  1  0
  6  7  1  6
  8  9  2  0
 11 13  1  0
 11 10  1  1
 12 11  1  0
 13 15  1  0
 14  8  1  0
 13 14  1  1
 15 16  2  0
 17 18  1  0
 17 15  1  0
 18 29  1  0
 18 19  1  6
 20 19  1  0
 20 21  2  0
 22 21  1  0
 23 22  1  0
 24 23  2  0
 25 24  1  0
 26 25  2  0
 26 27  1  0
 27 28  2  0
 28 23  1  0
 28 20  1  0
 29 30  1  0
 31 29  2  0
M  END
$$$$
