QTW.pdb
     RDKit          3D

 31 32  0  0  1  0  0  0  0  0999 V2000
   31.8593  -25.0414  -15.4783 N   0  0  0  0  0  0  0  0  0  0  0  0
   32.1379  -25.0671  -16.8816 C   0  0  0  0  0  0  0  0  0  0  0  0
   32.4950  -26.1871  -17.3285 O   0  0  0  0  0  0  0  0  0  0  0  0
   32.0036  -23.8559  -17.6716 C   0  0  0  0  0  0  0  0  0  0  0  0
   31.4349  -22.6497  -16.9961 C   0  0  0  0  0  0  0  0  0  0  0  0
   30.0041  -22.4524  -17.3460 C   0  0  2  0  0  0  0  0  0  0  0  0
   29.8821  -21.9718  -18.6933 N   0  0  0  0  0  0  0  0  0  0  0  0
   29.3205  -21.5104  -16.3949 C   0  0  0  0  0  0  0  0  0  0  0  0
   29.7783  -20.3542  -16.2851 O   0  0  0  0  0  0  0  0  0  0  0  0
   27.0878  -19.3370  -16.5475 C   0  0  0  0  0  0  0  0  0  0  0  0
   26.4282  -20.2424  -15.5534 C   0  0  1  0  0  0  0  0  0  0  0  0
   25.5941  -21.1115  -16.2578 O   0  0  0  0  0  0  0  0  0  0  0  0
   27.4669  -21.0279  -14.7423 C   0  0  2  0  0  0  0  0  0  0  0  0
   28.1944  -21.8793  -15.6322 N   0  0  0  0  0  0  0  0  0  0  0  0
   26.7711  -21.7610  -13.6654 C   0  0  0  0  0  0  0  0  0  0  0  0
   26.5566  -22.9989  -13.7203 O   0  0  0  0  0  0  0  0  0  0  0  0
   26.2922  -21.1264  -12.4856 N   0  0  0  0  0  0  0  0  0  0  0  0
   25.7122  -21.8069  -11.3628 C   0  0  1  0  0  0  0  0  0  0  0  0
   26.5767  -21.9340  -10.1803 C   0  0  0  0  0  0  0  0  0  0  0  0
   26.4348  -20.7399   -9.3202 C   0  0  0  0  0  0  0  0  0  0  0  0
   25.4725  -19.7547   -9.2802 C   0  0  0  0  0  0  0  0  0  0  0  0
   25.7522  -18.8364   -8.3389 N   0  0  0  0  0  0  0  0  0  0  0  0
   26.8962  -19.1796   -7.7315 C   0  0  0  0  0  0  0  0  0  0  0  0
   27.6031  -18.5655   -6.7053 C   0  0  0  0  0  0  0  0  0  0  0  0
   28.7680  -19.1479   -6.2743 C   0  0  0  0  0  0  0  0  0  0  0  0
   29.2150  -20.3118   -6.8519 C   0  0  0  0  0  0  0  0  0  0  0  0
   28.5019  -20.9202   -7.8780 C   0  0  0  0  0  0  0  0  0  0  0  0
   27.3365  -20.3477   -8.3173 C   0  0  0  0  0  0  0  0  0  0  0  0
   24.4626  -21.1062  -10.9846 C   0  0  0  0  0  0  0  0  0  0  0  0
   24.1579  -19.9054  -11.5979 O   0  0  0  0  0  0  0  0  0  0  0  0
   23.7059  -21.5844  -10.1378 O   0  0  0  0  0  0  0  0  0  0  0  0
  2  1  1  0
  3  2  2  0
  4  2  1  0
  5  6  1  0
  5  4  1  0
  6  8  1  0
  6  7  1  6
  8  9  2  0
 11 13  1  0
 11 10  1  6
 12 11  1  0
 13 15  1  0
 14  8  1  0
 13 14  1  6
 15 16  2  0
 17 18  1  0
 17 15  1  0
 18 29  1  0
 18 19  1  1
 20 19  1  0
 20 21  2  0
 22 21  1  0
 23 22  1  0
 24 23  2  0
 25 24  1  0
 26 25  2  0
 26 27  1  0
 27 28  2  0
 28 23  1  0
 28 20  1  0
 29 30  1  0
 31 29  2  0
M  END
$$$$
