QTW.pdb
     RDKit          3D

 31 32  0  0  1  0  0  0  0  0999 V2000
   27.9618  -25.3865  -16.4031 N   0  0  0  0  0  0  0  0  0  0  0  0
   28.2643  -25.0439  -17.7590 C   0  0  0  0  0  0  0  0  0  0  0  0
   28.0582  -25.9615  -18.5940 O   0  0  0  0  0  0  0  0  0  0  0  0
   28.7724  -23.7214  -18.0786 C   0  0  0  0  0  0  0  0  0  0  0  0
   28.9552  -22.7597  -16.9488 C   0  0  0  0  0  0  0  0  0  0  0  0
   27.7397  -21.9319  -16.7349 C   0  0  2  0  0  0  0  0  0  0  0  0
   27.4907  -21.1063  -17.8826 N   0  0  0  0  0  0  0  0  0  0  0  0
   27.8510  -21.0834  -15.4993 C   0  0  0  0  0  0  0  0  0  0  0  0
   28.4548  -19.9944  -15.5889 O   0  0  0  0  0  0  0  0  0  0  0  0
   26.6773  -18.7093  -14.7482 C   0  0  0  0  0  0  0  0  0  0  0  0
   26.0942  -19.4872  -13.6089 C   0  0  1  0  0  0  0  0  0  0  0  0
   24.8800  -20.0246  -14.0382 O   0  0  0  0  0  0  0  0  0  0  0  0
   27.0463  -20.5994  -13.1503 C   0  0  2  0  0  0  0  0  0  0  0  0
   27.3047  -21.4666  -14.2581 N   0  0  0  0  0  0  0  0  0  0  0  0
   26.4447  -21.2897  -11.9915 C   0  0  0  0  0  0  0  0  0  0  0  0
   25.7858  -22.3546  -12.1070 O   0  0  0  0  0  0  0  0  0  0  0  0
   26.5647  -20.8065  -10.6588 N   0  0  0  0  0  0  0  0  0  0  0  0
   26.0366  -21.4610   -9.4956 C   0  0  1  0  0  0  0  0  0  0  0  0
   27.0123  -21.7627   -8.4378 C   0  0  0  0  0  0  0  0  0  0  0  0
   27.2954  -20.5446   -7.6494 C   0  0  0  0  0  0  0  0  0  0  0  0
   26.9150  -19.2329   -7.8306 C   0  0  0  0  0  0  0  0  0  0  0  0
   27.4201  -18.4404   -6.8691 N   0  0  0  0  0  0  0  0  0  0  0  0
   28.1434  -19.1931   -6.0290 C   0  0  0  0  0  0  0  0  0  0  0  0
   28.8615  -18.8535   -4.8893 C   0  0  0  0  0  0  0  0  0  0  0  0
   29.5223  -19.8472   -4.2127 C   0  0  0  0  0  0  0  0  0  0  0  0
   29.4677  -21.1447   -4.6617 C   0  0  0  0  0  0  0  0  0  0  0  0
   28.7470  -21.4764   -5.8027 C   0  0  0  0  0  0  0  0  0  0  0  0
   28.0825  -20.4922   -6.4873 C   0  0  0  0  0  0  0  0  0  0  0  0
   24.9513  -20.6208   -8.9374 C   0  0  0  0  0  0  0  0  0  0  0  0
   24.1645  -21.1328   -7.9226 O   0  0  0  0  0  0  0  0  0  0  0  0
   24.7519  -19.4840   -9.3689 O   0  0  0  0  0  0  0  0  0  0  0  0
  2  1  1  0
  3  2  2  0
  4  2  1  0
  5  6  1  0
  5  4  1  0
  6  8  1  0
  6  7  1  6
  8  9  2  0
 11 13  1  0
 11 10  1  6
 12 11  1  0
 13 15  1  0
 14  8  1  0
 13 14  1  6
 15 16  2  0
 17 18  1  0
 17 15  1  0
 18 29  1  0
 18 19  1  1
 20 19  1  0
 20 21  2  0
 22 21  1  0
 23 22  1  0
 24 23  2  0
 25 24  1  0
 26 25  2  0
 26 27  1  0
 27 28  2  0
 28 23  1  0
 28 20  1  0
 29 30  1  0
 31 29  2  0
M  END
$$$$
