QTW.pdb
     RDKit          3D

 31 32  0  0  1  0  0  0  0  0999 V2000
   24.7753  -16.0200  -22.1806 N   0  0  0  0  0  0  0  0  0  0  0  0
   25.1253  -15.2136  -21.0515 C   0  0  0  0  0  0  0  0  0  0  0  0
   25.2988  -13.9944  -21.3070 O   0  0  0  0  0  0  0  0  0  0  0  0
   25.2588  -15.8199  -19.7386 C   0  0  0  0  0  0  0  0  0  0  0  0
   25.0611  -17.2982  -19.6367 C   0  0  0  0  0  0  0  0  0  0  0  0
   26.3063  -17.9868  -19.2080 C   0  0  2  0  0  0  0  0  0  0  0  0
   27.0301  -18.4655  -20.3516 N   0  0  0  0  0  0  0  0  0  0  0  0
   26.0217  -19.1198  -18.2622 C   0  0  0  0  0  0  0  0  0  0  0  0
   25.0404  -19.8526  -18.5042 O   0  0  0  0  0  0  0  0  0  0  0  0
   28.8966  -21.4937  -16.9337 C   0  0  0  0  0  0  0  0  0  0  0  0
   27.4142  -21.7062  -16.9106 C   0  0  1  0  0  0  0  0  0  0  0  0
   27.1641  -22.8806  -16.1996 O   0  0  0  0  0  0  0  0  0  0  0  0
   26.6923  -20.5174  -16.2630 C   0  0  2  0  0  0  0  0  0  0  0  0
   26.8129  -19.3832  -17.1261 N   0  0  0  0  0  0  0  0  0  0  0  0
   27.2594  -20.2949  -14.9176 C   0  0  0  0  0  0  0  0  0  0  0  0
   28.2050  -19.4930  -14.7072 O   0  0  0  0  0  0  0  0  0  0  0  0
   26.7808  -20.9667  -13.7585 N   0  0  0  0  0  0  0  0  0  0  0  0
   27.2982  -20.7884  -12.4316 C   0  0  1  0  0  0  0  0  0  0  0  0
   26.7958  -19.6124  -11.7059 C   0  0  0  0  0  0  0  0  0  0  0  0
   25.3949  -19.8359  -11.2900 C   0  0  0  0  0  0  0  0  0  0  0  0
   24.8579  -20.3022  -10.1100 C   0  0  0  0  0  0  0  0  0  0  0  0
   23.5163  -20.3635  -10.1742 N   0  0  0  0  0  0  0  0  0  0  0  0
   23.1254  -19.9443  -11.3854 C   0  0  0  0  0  0  0  0  0  0  0  0
   21.8587  -19.8222  -11.9426 C   0  0  0  0  0  0  0  0  0  0  0  0
   21.7525  -19.3595  -13.2296 C   0  0  0  0  0  0  0  0  0  0  0  0
   22.8802  -19.0277  -13.9411 C   0  0  0  0  0  0  0  0  0  0  0  0
   24.1440  -19.1526  -13.3766 C   0  0  0  0  0  0  0  0  0  0  0  0
   24.2629  -19.6138  -12.0912 C   0  0  0  0  0  0  0  0  0  0  0  0
   27.0068  -22.0110  -11.6468 C   0  0  0  0  0  0  0  0  0  0  0  0
   27.5795  -22.1551  -10.3969 O   0  0  0  0  0  0  0  0  0  0  0  0
   26.2662  -22.8859  -12.0989 O   0  0  0  0  0  0  0  0  0  0  0  0
  2  1  1  0
  3  2  2  0
  4  2  1  0
  5  6  1  0
  5  4  1  0
  6  8  1  0
  6  7  1  6
  8  9  2  0
 11 13  1  0
 11 10  1  1
 12 11  1  0
 13 15  1  0
 14  8  1  0
 13 14  1  6
 15 16  2  0
 17 18  1  0
 17 15  1  0
 18 29  1  0
 18 19  1  1
 20 19  1  0
 20 21  2  0
 22 21  1  0
 23 22  1  0
 24 23  2  0
 25 24  1  0
 26 25  2  0
 26 27  1  0
 27 28  2  0
 28 23  1  0
 28 20  1  0
 29 30  1  0
 31 29  2  0
M  END
$$$$
