QTW.pdb
     RDKit          3D

 31 32  0  0  1  0  0  0  0  0999 V2000
   26.0642  -18.7842   -7.4534 N   0  0  0  0  0  0  0  0  0  0  0  0
   26.7693  -20.0177   -7.2836 C   0  0  0  0  0  0  0  0  0  0  0  0
   27.1055  -20.2749   -6.0993 O   0  0  0  0  0  0  0  0  0  0  0  0
   27.0477  -20.8601   -8.4333 C   0  0  0  0  0  0  0  0  0  0  0  0
   26.5450  -20.4012   -9.7643 C   0  0  0  0  0  0  0  0  0  0  0  0
   26.7507  -21.4356  -10.8113 C   0  0  2  0  0  0  0  0  0  0  0  0
   28.1527  -21.6708  -11.0109 N   0  0  0  0  0  0  0  0  0  0  0  0
   26.0981  -21.0540  -12.1104 C   0  0  0  0  0  0  0  0  0  0  0  0
   26.6165  -20.1360  -12.7790 O   0  0  0  0  0  0  0  0  0  0  0  0
   23.1293  -23.5582  -13.7710 C   0  0  0  0  0  0  0  0  0  0  0  0
   23.8594  -22.5306  -14.5797 C   0  0  1  0  0  0  0  0  0  0  0  0
   23.0544  -22.1966  -15.6695 O   0  0  0  0  0  0  0  0  0  0  0  0
   24.1776  -21.2863  -13.7406 C   0  0  2  0  0  0  0  0  0  0  0  0
   24.9370  -21.6874  -12.5967 N   0  0  0  0  0  0  0  0  0  0  0  0
   22.9104  -20.6101  -13.3970 C   0  0  0  0  0  0  0  0  0  0  0  0
   22.3428  -20.7632  -12.2852 O   0  0  0  0  0  0  0  0  0  0  0  0
   22.2361  -19.7346  -14.2930 N   0  0  0  0  0  0  0  0  0  0  0  0
   21.0590  -18.9776  -13.9741 C   0  0  1  0  0  0  0  0  0  0  0  0
   21.1929  -17.5175  -14.0840 C   0  0  0  0  0  0  0  0  0  0  0  0
   19.9649  -16.8591  -13.5899 C   0  0  0  0  0  0  0  0  0  0  0  0
   19.5204  -16.6012  -12.3116 C   0  0  0  0  0  0  0  0  0  0  0  0
   18.3233  -15.9892  -12.3247 N   0  0  0  0  0  0  0  0  0  0  0  0
   17.9402  -15.8236  -13.5980 C   0  0  0  0  0  0  0  0  0  0  0  0
   16.7948  -15.2527  -14.1383 C   0  0  0  0  0  0  0  0  0  0  0  0
   16.6622  -15.2198  -15.5032 C   0  0  0  0  0  0  0  0  0  0  0  0
   17.6463  -15.7426  -16.3071 C   0  0  0  0  0  0  0  0  0  0  0  0
   18.7894  -16.3121  -15.7589 C   0  0  0  0  0  0  0  0  0  0  0  0
   18.9334  -16.3507  -14.3963 C   0  0  0  0  0  0  0  0  0  0  0  0
   19.9552  -19.4368  -14.8495 C   0  0  0  0  0  0  0  0  0  0  0  0
   18.7082  -19.6544  -14.2941 O   0  0  0  0  0  0  0  0  0  0  0  0
   20.1436  -19.6217  -16.0531 O   0  0  0  0  0  0  0  0  0  0  0  0
  2  1  1  0
  3  2  2  0
  4  2  1  0
  5  6  1  0
  5  4  1  0
  6  8  1  0
  6  7  1  6
  8  9  2  0
 11 13  1  0
 11 10  1  1
 12 11  1  0
 13 15  1  0
 14  8  1  0
 13 14  1  1
 15 16  2  0
 17 18  1  0
 17 15  1  0
 18 29  1  0
 18 19  1  6
 20 19  1  0
 20 21  2  0
 22 21  1  0
 23 22  1  0
 24 23  2  0
 25 24  1  0
 26 25  2  0
 26 27  1  0
 27 28  2  0
 28 23  1  0
 28 20  1  0
 29 30  1  0
 31 29  2  0
M  END
$$$$
