QTW.pdb
     RDKit          3D

 31 32  0  0  1  0  0  0  0  0999 V2000
   28.3013  -20.1807  -19.4768 N   0  0  0  0  0  0  0  0  0  0  0  0
   28.5405  -18.7839  -19.2788 C   0  0  0  0  0  0  0  0  0  0  0  0
   29.5100  -18.3168  -19.9297 O   0  0  0  0  0  0  0  0  0  0  0  0
   27.6942  -18.0221  -18.3773 C   0  0  0  0  0  0  0  0  0  0  0  0
   26.5447  -18.7349  -17.7407 C   0  0  0  0  0  0  0  0  0  0  0  0
   26.7089  -18.8269  -16.2665 C   0  0  2  0  0  0  0  0  0  0  0  0
   28.0568  -19.1951  -15.9372 N   0  0  0  0  0  0  0  0  0  0  0  0
   25.7406  -19.8008  -15.6556 C   0  0  0  0  0  0  0  0  0  0  0  0
   25.1653  -20.6087  -16.4139 O   0  0  0  0  0  0  0  0  0  0  0  0
   24.2816  -22.0752  -11.5213 C   0  0  0  0  0  0  0  0  0  0  0  0
   25.2002  -21.1752  -12.2889 C   0  0  1  0  0  0  0  0  0  0  0  0
   26.3903  -21.8699  -12.5088 O   0  0  0  0  0  0  0  0  0  0  0  0
   24.5714  -20.7440  -13.6203 C   0  0  2  0  0  0  0  0  0  0  0  0
   25.4622  -19.8362  -14.2747 N   0  0  0  0  0  0  0  0  0  0  0  0
   23.2389  -20.1673  -13.3498 C   0  0  0  0  0  0  0  0  0  0  0  0
   23.0835  -19.0981  -12.7062 O   0  0  0  0  0  0  0  0  0  0  0  0
   22.0315  -20.7732  -13.7960 N   0  0  0  0  0  0  0  0  0  0  0  0
   20.7145  -20.2520  -13.5637 C   0  0  1  0  0  0  0  0  0  0  0  0
   20.4530  -18.9151  -14.1169 C   0  0  0  0  0  0  0  0  0  0  0  0
   20.7498  -18.9007  -15.5651 C   0  0  0  0  0  0  0  0  0  0  0  0
   20.4183  -19.7807  -16.5721 C   0  0  0  0  0  0  0  0  0  0  0  0
   20.9174  -19.3806  -17.7546 N   0  0  0  0  0  0  0  0  0  0  0  0
   21.5884  -18.2352  -17.5715 C   0  0  0  0  0  0  0  0  0  0  0  0
   22.2798  -17.4306  -18.4683 C   0  0  0  0  0  0  0  0  0  0  0  0
   22.8858  -16.2947  -17.9946 C   0  0  0  0  0  0  0  0  0  0  0  0
   22.8037  -15.9708  -16.6617 C   0  0  0  0  0  0  0  0  0  0  0  0
   22.1099  -16.7810  -15.7708 C   0  0  0  0  0  0  0  0  0  0  0  0
   21.5002  -17.9186  -16.2323 C   0  0  0  0  0  0  0  0  0  0  0  0
   19.7274  -21.2118  -14.1115 C   0  0  0  0  0  0  0  0  0  0  0  0
   18.3840  -21.0062  -13.8584 O   0  0  0  0  0  0  0  0  0  0  0  0
   20.0958  -22.1776  -14.7821 O   0  0  0  0  0  0  0  0  0  0  0  0
  2  1  1  0
  3  2  2  0
  4  2  1  0
  5  6  1  0
  5  4  1  0
  6  8  1  0
  6  7  1  6
  8  9  2  0
 11 13  1  0
 11 10  1  6
 12 11  1  0
 13 15  1  0
 14  8  1  0
 13 14  1  1
 15 16  2  0
 17 18  1  0
 17 15  1  0
 18 29  1  0
 18 19  1  6
 20 19  1  0
 20 21  2  0
 22 21  1  0
 23 22  1  0
 24 23  2  0
 25 24  1  0
 26 25  2  0
 26 27  1  0
 27 28  2  0
 28 23  1  0
 28 20  1  0
 29 30  1  0
 31 29  2  0
M  END
$$$$
