QTW.pdb
     RDKit          3D

 31 32  0  0  1  0  0  0  0  0999 V2000
   31.1622  -23.6169  -15.6502 N   0  0  0  0  0  0  0  0  0  0  0  0
   31.1521  -23.5845  -17.0807 C   0  0  0  0  0  0  0  0  0  0  0  0
   31.7281  -24.5556  -17.6348 O   0  0  0  0  0  0  0  0  0  0  0  0
   30.5126  -22.4829  -17.7783 C   0  0  0  0  0  0  0  0  0  0  0  0
   29.8584  -21.4258  -16.9482 C   0  0  0  0  0  0  0  0  0  0  0  0
   28.5567  -21.8896  -16.4012 C   0  0  2  0  0  0  0  0  0  0  0  0
   27.6224  -22.1206  -17.4664 N   0  0  0  0  0  0  0  0  0  0  0  0
   27.9854  -20.9122  -15.4124 C   0  0  0  0  0  0  0  0  0  0  0  0
   27.9557  -19.7057  -15.7315 O   0  0  0  0  0  0  0  0  0  0  0  0
   24.6712  -20.6296  -14.1655 C   0  0  0  0  0  0  0  0  0  0  0  0
   25.7523  -19.6806  -13.7486 C   0  0  1  0  0  0  0  0  0  0  0  0
   25.2082  -18.8014  -12.8114 O   0  0  0  0  0  0  0  0  0  0  0  0
   26.9515  -20.4306  -13.1544 C   0  0  2  0  0  0  0  0  0  0  0  0
   27.4868  -21.3030  -14.1536 N   0  0  0  0  0  0  0  0  0  0  0  0
   26.5115  -21.1356  -11.9335 C   0  0  0  0  0  0  0  0  0  0  0  0
   26.0499  -22.3052  -11.9580 O   0  0  0  0  0  0  0  0  0  0  0  0
   26.5766  -20.5494  -10.6389 N   0  0  0  0  0  0  0  0  0  0  0  0
   26.2196  -21.2119   -9.4167 C   0  0  1  0  0  0  0  0  0  0  0  0
   27.3358  -21.5185   -8.5101 C   0  0  0  0  0  0  0  0  0  0  0  0
   27.6400  -20.3424   -7.6676 C   0  0  0  0  0  0  0  0  0  0  0  0
   27.3315  -19.0082   -7.8196 C   0  0  0  0  0  0  0  0  0  0  0  0
   27.8288  -18.2735   -6.8094 N   0  0  0  0  0  0  0  0  0  0  0  0
   28.4758  -19.0881   -5.9647 C   0  0  0  0  0  0  0  0  0  0  0  0
   29.1558  -18.8219   -4.7829 C   0  0  0  0  0  0  0  0  0  0  0  0
   29.7363  -19.8686   -4.1128 C   0  0  0  0  0  0  0  0  0  0  0  0
   29.6406  -21.1465   -4.6089 C   0  0  0  0  0  0  0  0  0  0  0  0
   28.9585  -21.4046   -5.7919 C   0  0  0  0  0  0  0  0  0  0  0  0
   28.3742  -20.3669   -6.4705 C   0  0  0  0  0  0  0  0  0  0  0  0
   25.2238  -20.3770   -8.7046 C   0  0  0  0  0  0  0  0  0  0  0  0
   24.5227  -20.9281   -7.6484 O   0  0  0  0  0  0  0  0  0  0  0  0
   25.0228  -19.2104   -9.0465 O   0  0  0  0  0  0  0  0  0  0  0  0
  2  1  1  0
  3  2  2  0
  4  2  1  0
  5  6  1  0
  5  4  1  0
  6  8  1  0
  6  7  1  6
  8  9  2  0
 11 13  1  0
 11 10  1  1
 12 11  1  0
 13 15  1  0
 14  8  1  0
 13 14  1  6
 15 16  2  0
 17 18  1  0
 17 15  1  0
 18 29  1  0
 18 19  1  1
 20 19  1  0
 20 21  2  0
 22 21  1  0
 23 22  1  0
 24 23  2  0
 25 24  1  0
 26 25  2  0
 26 27  1  0
 27 28  2  0
 28 23  1  0
 28 20  1  0
 29 30  1  0
 31 29  2  0
M  END
$$$$
