QTW.pdb
     RDKit          3D

 31 32  0  0  1  0  0  0  0  0999 V2000
   26.9172  -24.2092  -18.2272 N   0  0  0  0  0  0  0  0  0  0  0  0
   26.9044  -23.4257  -19.4245 C   0  0  0  0  0  0  0  0  0  0  0  0
   26.3047  -23.9547  -20.3952 O   0  0  0  0  0  0  0  0  0  0  0  0
   27.5573  -22.1287  -19.4515 C   0  0  0  0  0  0  0  0  0  0  0  0
   28.1763  -21.6400  -18.1816 C   0  0  0  0  0  0  0  0  0  0  0  0
   27.1439  -21.2687  -17.1792 C   0  0  2  0  0  0  0  0  0  0  0  0
   26.3555  -20.1693  -17.6595 N   0  0  0  0  0  0  0  0  0  0  0  0
   27.7535  -20.9279  -15.8482 C   0  0  0  0  0  0  0  0  0  0  0  0
   28.9507  -20.5745  -15.8254 O   0  0  0  0  0  0  0  0  0  0  0  0
   28.0535  -18.2843  -14.5360 C   0  0  0  0  0  0  0  0  0  0  0  0
   27.2240  -18.9027  -13.4530 C   0  0  1  0  0  0  0  0  0  0  0  0
   25.8873  -18.6012  -13.7166 O   0  0  0  0  0  0  0  0  0  0  0  0
   27.4341  -20.4211  -13.3905 C   0  0  2  0  0  0  0  0  0  0  0  0
   27.0321  -20.9908  -14.6394 N   0  0  0  0  0  0  0  0  0  0  0  0
   26.6875  -20.9552  -12.2335 C   0  0  0  0  0  0  0  0  0  0  0  0
   25.4945  -21.3434  -12.3202 O   0  0  0  0  0  0  0  0  0  0  0  0
   27.2580  -21.0732  -10.9356 N   0  0  0  0  0  0  0  0  0  0  0  0
   26.5833  -21.6038   -9.7852 C   0  0  1  0  0  0  0  0  0  0  0  0
   27.4282  -21.8405   -8.6054 C   0  0  0  0  0  0  0  0  0  0  0  0
   27.4225  -20.6475   -7.7324 C   0  0  0  0  0  0  0  0  0  0  0  0
   26.7709  -19.4388   -7.8452 C   0  0  0  0  0  0  0  0  0  0  0  0
   27.0701  -18.6247   -6.8179 N   0  0  0  0  0  0  0  0  0  0  0  0
   27.9202  -19.2605   -6.0003 C   0  0  0  0  0  0  0  0  0  0  0  0
   28.5215  -18.8542   -4.8157 C   0  0  0  0  0  0  0  0  0  0  0  0
   29.3666  -19.7270   -4.1786 C   0  0  0  0  0  0  0  0  0  0  0  0
   29.6049  -20.9717   -4.7096 C   0  0  0  0  0  0  0  0  0  0  0  0
   28.9994  -21.3709   -5.8951 C   0  0  0  0  0  0  0  0  0  0  0  0
   28.1529  -20.5076   -6.5409 C   0  0  0  0  0  0  0  0  0  0  0  0
   25.4805  -20.6829   -9.4226 C   0  0  0  0  0  0  0  0  0  0  0  0
   24.4136  -21.1727   -8.6929 O   0  0  0  0  0  0  0  0  0  0  0  0
   25.5124  -19.4996   -9.7645 O   0  0  0  0  0  0  0  0  0  0  0  0
  2  1  1  0
  3  2  2  0
  4  2  1  0
  5  6  1  0
  5  4  1  0
  6  8  1  0
  6  7  1  6
  8  9  2  0
 11 13  1  0
 11 10  1  6
 12 11  1  0
 13 15  1  0
 14  8  1  0
 13 14  1  6
 15 16  2  0
 17 18  1  0
 17 15  1  0
 18 29  1  0
 18 19  1  1
 20 19  1  0
 20 21  2  0
 22 21  1  0
 23 22  1  0
 24 23  2  0
 25 24  1  0
 26 25  2  0
 26 27  1  0
 27 28  2  0
 28 23  1  0
 28 20  1  0
 29 30  1  0
 31 29  2  0
M  END
$$$$
