QTW.pdb
     RDKit          3D

 31 32  0  0  1  0  0  0  0  0999 V2000
   28.4469  -24.7692  -17.4169 N   0  0  0  0  0  0  0  0  0  0  0  0
   29.5208  -24.8432  -18.3598 C   0  0  0  0  0  0  0  0  0  0  0  0
   29.5295  -25.8813  -19.0696 O   0  0  0  0  0  0  0  0  0  0  0  0
   30.4957  -23.7695  -18.4368 C   0  0  0  0  0  0  0  0  0  0  0  0
   30.3146  -22.6042  -17.5180 C   0  0  0  0  0  0  0  0  0  0  0  0
   29.1298  -21.7906  -17.8961 C   0  0  2  0  0  0  0  0  0  0  0  0
   29.4700  -20.8730  -18.9465 N   0  0  0  0  0  0  0  0  0  0  0  0
   28.5640  -21.0460  -16.7194 C   0  0  0  0  0  0  0  0  0  0  0  0
   29.3286  -20.2960  -16.0780 O   0  0  0  0  0  0  0  0  0  0  0  0
   26.6151  -18.3764  -16.6978 C   0  0  0  0  0  0  0  0  0  0  0  0
   25.7589  -19.2944  -15.8809 C   0  0  1  0  0  0  0  0  0  0  0  0
   24.7690  -19.8102  -16.7184 O   0  0  0  0  0  0  0  0  0  0  0  0
   26.5898  -20.4270  -15.2639 C   0  0  2  0  0  0  0  0  0  0  0  0
   27.2179  -21.1611  -16.3186 N   0  0  0  0  0  0  0  0  0  0  0  0
   25.7071  -21.2544  -14.4167 C   0  0  0  0  0  0  0  0  0  0  0  0
   25.5083  -22.4760  -14.6394 O   0  0  0  0  0  0  0  0  0  0  0  0
   25.0167  -20.7362  -13.2859 N   0  0  0  0  0  0  0  0  0  0  0  0
   24.2712  -21.5233  -12.3452 C   0  0  1  0  0  0  0  0  0  0  0  0
   25.0688  -22.2165  -11.3229 C   0  0  0  0  0  0  0  0  0  0  0  0
   25.7008  -21.2305  -10.4208 C   0  0  0  0  0  0  0  0  0  0  0  0
   25.1562  -20.3046   -9.5580 C   0  0  0  0  0  0  0  0  0  0  0  0
   26.1133  -19.5921   -8.9383 N   0  0  0  0  0  0  0  0  0  0  0  0
   27.3097  -20.0182   -9.3657 C   0  0  0  0  0  0  0  0  0  0  0  0
   28.5949  -19.6076   -9.0348 C   0  0  0  0  0  0  0  0  0  0  0  0
   29.6564  -20.2306   -9.6406 C   0  0  0  0  0  0  0  0  0  0  0  0
   29.4408  -21.2362  -10.5519 C   0  0  0  0  0  0  0  0  0  0  0  0
   28.1519  -21.6412  -10.8775 C   0  0  0  0  0  0  0  0  0  0  0  0
   27.0831  -21.0263  -10.2788 C   0  0  0  0  0  0  0  0  0  0  0  0
   23.2790  -20.6452  -11.6819 C   0  0  0  0  0  0  0  0  0  0  0  0
   22.2820  -21.2217  -10.9172 O   0  0  0  0  0  0  0  0  0  0  0  0
   23.3400  -19.4211  -11.8080 O   0  0  0  0  0  0  0  0  0  0  0  0
  2  1  1  0
  3  2  2  0
  4  2  1  0
  5  6  1  0
  5  4  1  0
  6  8  1  0
  6  7  1  6
  8  9  2  0
 11 13  1  0
 11 10  1  6
 12 11  1  0
 13 15  1  0
 14  8  1  0
 13 14  1  6
 15 16  2  0
 17 18  1  0
 17 15  1  0
 18 29  1  0
 18 19  1  1
 20 19  1  0
 20 21  2  0
 22 21  1  0
 23 22  1  0
 24 23  2  0
 25 24  1  0
 26 25  2  0
 26 27  1  0
 27 28  2  0
 28 23  1  0
 28 20  1  0
 29 30  1  0
 31 29  2  0
M  END
$$$$
