FRR.pdb
     RDKit          3D

 34 34  0  0  1  0  0  0  0  0999 V2000
    6.6812  -17.9100   21.4572 N   0  0  0  0  0  0  0  0  0  0  0  0
    7.8653  -17.0768   21.4669 C   0  0  1  0  0  0  0  0  0  0  0  0
    7.6521  -15.9679   22.4648 C   0  0  0  0  0  0  0  0  0  0  0  0
    7.5798  -14.6966   21.7163 C   0  0  0  0  0  0  0  0  0  0  0  0
    7.4585  -13.4962   22.4148 C   0  0  0  0  0  0  0  0  0  0  0  0
    7.3945  -12.3254   21.6858 C   0  0  0  0  0  0  0  0  0  0  0  0
    7.4470  -12.3266   20.3166 C   0  0  0  0  0  0  0  0  0  0  0  0
    7.5665  -13.5023   19.6172 C   0  0  0  0  0  0  0  0  0  0  0  0
    7.6298  -14.6651   20.3503 C   0  0  0  0  0  0  0  0  0  0  0  0
    9.0890  -17.8572   21.8263 C   0  0  0  0  0  0  0  0  0  0  0  0
    9.0600  -18.7609   22.6947 O   0  0  0  0  0  0  0  0  0  0  0  0
   14.8166  -21.5034   19.2376 N   0  0  0  0  0  0  0  0  0  0  0  0
   16.0000  -20.7579   19.4874 C   0  0  0  0  0  0  0  0  0  0  0  0
   17.1395  -21.3757   19.6768 N   0  0  0  0  0  0  0  0  0  0  0  0
   16.0190  -19.3402   19.5461 N   0  0  0  0  0  0  0  0  0  0  0  0
   14.7942  -18.5505   19.4311 C   0  0  0  0  0  0  0  0  0  0  0  0
   13.8218  -18.9116   20.5136 C   0  0  0  0  0  0  0  0  0  0  0  0
   12.5806  -18.0576   20.4129 C   0  0  0  0  0  0  0  0  0  0  0  0
   11.5154  -18.4483   21.4083 C   0  0  2  0  0  0  0  0  0  0  0  0
   10.3335  -17.6036   21.1954 N   0  0  0  0  0  0  0  0  0  0  0  0
   12.0323  -18.0771   22.7658 C   0  0  0  0  0  0  0  0  0  0  0  0
   12.3358  -16.8724   22.9470 O   0  0  0  0  0  0  0  0  0  0  0  0
   17.9981  -20.7939   19.8881 N   0  0  0  0  0  0  0  0  0  0  0  0
   13.6927  -19.7207   30.9482 C   0  0  0  0  0  0  0  0  0  0  0  0
   12.5147  -20.2174   30.2909 N   0  0  0  0  0  0  0  0  0  0  0  0
   12.1479  -21.4486   30.4130 N   0  0  0  0  0  0  0  0  0  0  0  0
   11.7409  -19.3407   29.4938 C   0  0  0  0  0  0  0  0  0  0  0  0
   11.6187  -19.5753   28.0829 C   0  0  0  0  0  0  0  0  0  0  0  0
   12.9396  -19.3207   27.4294 C   0  0  0  0  0  0  0  0  0  0  0  0
   13.0076  -19.7195   26.0020 C   0  0  2  0  0  0  0  0  0  0  0  0
   12.8926  -18.5887   25.0180 N   0  0  0  0  0  0  0  0  0  0  0  0
   12.1934  -18.9855   23.8252 C   0  0  0  0  0  0  0  0  0  0  0  0
   14.1883  -18.0211   24.6245 O   0  0  0  0  0  0  0  0  0  0  0  0
   14.5789  -16.7987   25.1219 O   0  0  0  0  0  0  0  0  0  0  0  0
  2  1  1  1
  2 10  1  0
  2  3  1  0
  4  3  1  0
  5  4  2  0
  6  5  1  0
  7  8  1  0
  7  6  2  0
  8  9  2  0
  9  4  1  0
 10 20  1  0
 11 10  2  0
 13 15  1  0
 13 12  1  0
 14 13  2  0
 16 17  1  0
 16 15  1  0
 18 17  1  0
 19 18  1  6
 20 19  1  0
 21 31  1  0
 21 19  1  0
 22 21  2  0
 23 24  1  0
 24 25  2  0
 26 24  1  0
 26 27  1  0
 27 28  1  0
 28 29  1  0
 30 29  1  1
 30 32  1  0
 30 31  1  0
 32 33  1  0
 34 32  2  0
M  END
$$$$
