FRR.pdb
     RDKit          3D

 34 34  0  0  1  0  0  0  0  0999 V2000
    6.0037  -16.5232   25.9257 N   0  0  0  0  0  0  0  0  0  0  0  0
    7.0905  -15.8911   25.2075 C   0  0  1  0  0  0  0  0  0  0  0  0
    7.7447  -14.8931   26.1277 C   0  0  0  0  0  0  0  0  0  0  0  0
    7.1350  -13.5732   25.8667 C   0  0  0  0  0  0  0  0  0  0  0  0
    6.9304  -12.6915   26.9269 C   0  0  0  0  0  0  0  0  0  0  0  0
    6.3593  -11.4653   26.6495 C   0  0  0  0  0  0  0  0  0  0  0  0
    5.9990  -11.1111   25.3759 C   0  0  0  0  0  0  0  0  0  0  0  0
    6.1956  -11.9708   24.3233 C   0  0  0  0  0  0  0  0  0  0  0  0
    6.7652  -13.1909   24.6072 C   0  0  0  0  0  0  0  0  0  0  0  0
    8.0997  -16.8897   24.7388 C   0  0  0  0  0  0  0  0  0  0  0  0
    8.2542  -17.9897   25.3201 O   0  0  0  0  0  0  0  0  0  0  0  0
   12.5722  -20.4235   20.1428 N   0  0  0  0  0  0  0  0  0  0  0  0
   13.0500  -19.5266   19.1497 C   0  0  0  0  0  0  0  0  0  0  0  0
   14.0300  -19.8835   18.3572 N   0  0  0  0  0  0  0  0  0  0  0  0
   12.5110  -18.2273   18.9621 N   0  0  0  0  0  0  0  0  0  0  0  0
   11.1829  -17.8682   19.4562 C   0  0  0  0  0  0  0  0  0  0  0  0
   11.0383  -18.2220   20.9059 C   0  0  0  0  0  0  0  0  0  0  0  0
   10.0977  -17.2600   21.5915 C   0  0  0  0  0  0  0  0  0  0  0  0
    9.7946  -17.6496   23.0178 C   0  0  2  0  0  0  0  0  0  0  0  0
    8.9233  -16.6293   23.6140 N   0  0  0  0  0  0  0  0  0  0  0  0
   11.0857  -17.5644   23.7752 C   0  0  0  0  0  0  0  0  0  0  0  0
   11.4973  -16.4146   24.0663 O   0  0  0  0  0  0  0  0  0  0  0  0
   14.3651  -19.1923   17.6290 N   0  0  0  0  0  0  0  0  0  0  0  0
   13.0527  -19.4101   30.7283 C   0  0  0  0  0  0  0  0  0  0  0  0
   12.0699  -20.3467   30.2558 N   0  0  0  0  0  0  0  0  0  0  0  0
   11.0540  -20.6749   30.9808 N   0  0  0  0  0  0  0  0  0  0  0  0
   12.2178  -20.9213   28.9711 C   0  0  0  0  0  0  0  0  0  0  0  0
   13.3604  -20.5926   28.1668 C   0  0  0  0  0  0  0  0  0  0  0  0
   13.0135  -19.4465   27.2710 C   0  0  0  0  0  0  0  0  0  0  0  0
   13.3195  -19.6712   25.8367 C   0  0  2  0  0  0  0  0  0  0  0  0
   13.0490  -18.4984   24.9359 N   0  0  0  0  0  0  0  0  0  0  0  0
   11.8457  -18.6784   24.1686 C   0  0  0  0  0  0  0  0  0  0  0  0
   14.1482  -18.2084   24.0065 O   0  0  0  0  0  0  0  0  0  0  0  0
   15.1197  -17.2994   24.3585 O   0  0  0  0  0  0  0  0  0  0  0  0
  2  1  1  1
  2 10  1  0
  2  3  1  0
  4  3  1  0
  5  4  2  0
  6  5  1  0
  7  8  1  0
  7  6  2  0
  8  9  2  0
  9  4  1  0
 10 20  1  0
 11 10  2  0
 13 15  1  0
 13 12  1  0
 14 13  2  0
 16 17  1  0
 16 15  1  0
 18 17  1  0
 19 18  1  6
 20 19  1  0
 21 31  1  0
 21 19  1  0
 22 21  2  0
 23 24  1  0
 24 25  2  0
 26 24  1  0
 26 27  1  0
 27 28  1  0
 28 29  1  0
 30 29  1  1
 30 32  1  0
 30 31  1  0
 32 33  1  0
 34 32  2  0
M  END
$$$$
