FRR.pdb
     RDKit          3D

 34 34  0  0  1  0  0  0  0  0999 V2000
    7.3219  -16.5070   26.5162 N   0  0  0  0  0  0  0  0  0  0  0  0
    6.6042  -16.5910   25.2616 C   0  0  1  0  0  0  0  0  0  0  0  0
    5.6779  -15.4060   25.1693 C   0  0  0  0  0  0  0  0  0  0  0  0
    6.4163  -14.2192   25.6466 C   0  0  0  0  0  0  0  0  0  0  0  0
    6.3321  -13.8542   26.9894 C   0  0  0  0  0  0  0  0  0  0  0  0
    7.0351  -12.7405   27.4041 C   0  0  0  0  0  0  0  0  0  0  0  0
    7.7969  -12.0055   26.5341 C   0  0  0  0  0  0  0  0  0  0  0  0
    7.8880  -12.3549   25.2092 C   0  0  0  0  0  0  0  0  0  0  0  0
    7.1848  -13.4659   24.8032 C   0  0  0  0  0  0  0  0  0  0  0  0
    7.5343  -16.6029   24.0910 C   0  0  0  0  0  0  0  0  0  0  0  0
    8.4869  -17.4146   24.0173 O   0  0  0  0  0  0  0  0  0  0  0  0
    9.5476  -12.9005   18.3947 N   0  0  0  0  0  0  0  0  0  0  0  0
    9.0653  -13.5084   17.2045 C   0  0  0  0  0  0  0  0  0  0  0  0
    9.8201  -13.5513   16.1348 N   0  0  0  0  0  0  0  0  0  0  0  0
    7.7739  -14.0882   17.1047 N   0  0  0  0  0  0  0  0  0  0  0  0
    7.0151  -14.4816   18.2906 C   0  0  0  0  0  0  0  0  0  0  0  0
    7.9109  -15.1149   19.3125 C   0  0  0  0  0  0  0  0  0  0  0  0
    7.2733  -15.0569   20.6801 C   0  0  0  0  0  0  0  0  0  0  0  0
    7.9943  -15.9023   21.7016 C   0  0  2  0  0  0  0  0  0  0  0  0
    7.3730  -15.6929   23.0153 N   0  0  0  0  0  0  0  0  0  0  0  0
    9.3819  -15.3476   21.8231 C   0  0  0  0  0  0  0  0  0  0  0  0
   10.1172  -15.4326   20.8090 O   0  0  0  0  0  0  0  0  0  0  0  0
    9.4122  -13.9594   15.2474 N   0  0  0  0  0  0  0  0  0  0  0  0
   12.1648  -16.9218   29.5032 C   0  0  0  0  0  0  0  0  0  0  0  0
   11.1110  -16.1738   28.8735 N   0  0  0  0  0  0  0  0  0  0  0  0
   10.7158  -15.0416   29.3500 N   0  0  0  0  0  0  0  0  0  0  0  0
   10.4937  -16.6877   27.7084 C   0  0  0  0  0  0  0  0  0  0  0  0
   11.2293  -17.5531   26.8305 C   0  0  0  0  0  0  0  0  0  0  0  0
   11.6778  -16.7711   25.6372 C   0  0  0  0  0  0  0  0  0  0  0  0
   10.5757  -16.1883   24.8330 C   0  0  2  0  0  0  0  0  0  0  0  0
   11.0137  -15.3421   23.6701 N   0  0  0  0  0  0  0  0  0  0  0  0
    9.8949  -14.7505   22.9865 C   0  0  0  0  0  0  0  0  0  0  0  0
   11.8202  -16.0736   22.6849 O   0  0  0  0  0  0  0  0  0  0  0  0
   11.2166  -16.9830   21.8466 O   0  0  0  0  0  0  0  0  0  0  0  0
  2  1  1  1
  2 10  1  0
  2  3  1  0
  4  3  1  0
  5  4  2  0
  6  5  1  0
  7  8  1  0
  7  6  2  0
  8  9  2  0
  9  4  1  0
 10 20  1  0
 11 10  2  0
 13 15  1  0
 13 12  1  0
 14 13  2  0
 16 17  1  0
 16 15  1  0
 18 17  1  0
 19 18  1  6
 20 19  1  0
 21 31  1  0
 21 19  1  0
 22 21  2  0
 23 24  1  0
 24 25  2  0
 26 24  1  0
 26 27  1  0
 27 28  1  0
 28 29  1  0
 30 29  1  1
 30 32  1  0
 30 31  1  0
 32 33  1  0
 34 32  2  0
M  END
$$$$
