FRR.pdb
     RDKit          3D

 34 34  0  0  1  0  0  0  0  0999 V2000
    5.5712  -16.5210   25.5684 N   0  0  0  0  0  0  0  0  0  0  0  0
    6.7558  -15.7986   25.1547 C   0  0  1  0  0  0  0  0  0  0  0  0
    7.2935  -15.0534   26.3490 C   0  0  0  0  0  0  0  0  0  0  0  0
    6.9451  -13.6275   26.1840 C   0  0  0  0  0  0  0  0  0  0  0  0
    5.8705  -13.0979   26.8969 C   0  0  0  0  0  0  0  0  0  0  0  0
    5.5714  -11.7615   26.7212 C   0  0  0  0  0  0  0  0  0  0  0  0
    6.2991  -10.9665   25.8751 C   0  0  0  0  0  0  0  0  0  0  0  0
    7.3598  -11.4764   25.1675 C   0  0  0  0  0  0  0  0  0  0  0  0
    7.6521  -12.8089   25.3477 C   0  0  0  0  0  0  0  0  0  0  0  0
    7.8040  -16.7171   24.6132 C   0  0  0  0  0  0  0  0  0  0  0  0
    8.0281  -17.8362   25.1319 O   0  0  0  0  0  0  0  0  0  0  0  0
   11.1610  -19.8592   18.1777 N   0  0  0  0  0  0  0  0  0  0  0  0
   12.3581  -19.1024   18.2917 C   0  0  0  0  0  0  0  0  0  0  0  0
   13.4930  -19.5976   17.8640 N   0  0  0  0  0  0  0  0  0  0  0  0
   12.3964  -17.8027   18.8600 N   0  0  0  0  0  0  0  0  0  0  0  0
   11.2060  -17.1825   19.4391 C   0  0  0  0  0  0  0  0  0  0  0  0
   11.0463  -17.5726   20.8778 C   0  0  0  0  0  0  0  0  0  0  0  0
    9.9330  -16.7786   21.5183 C   0  0  0  0  0  0  0  0  0  0  0  0
    9.6115  -17.2405   22.9188 C   0  0  2  0  0  0  0  0  0  0  0  0
    8.5870  -16.3556   23.4874 N   0  0  0  0  0  0  0  0  0  0  0  0
   10.8412  -17.0105   23.7451 C   0  0  0  0  0  0  0  0  0  0  0  0
   10.8515  -15.9881   24.4737 O   0  0  0  0  0  0  0  0  0  0  0  0
   14.3669  -19.0081   17.9600 N   0  0  0  0  0  0  0  0  0  0  0  0
   14.1132  -19.9194   30.3467 C   0  0  0  0  0  0  0  0  0  0  0  0
   12.6825  -20.0042   30.4571 N   0  0  0  0  0  0  0  0  0  0  0  0
   12.1208  -20.5565   31.4792 N   0  0  0  0  0  0  0  0  0  0  0  0
   11.8725  -19.4723   29.4258 C   0  0  0  0  0  0  0  0  0  0  0  0
   11.8452  -20.1058   28.1379 C   0  0  0  0  0  0  0  0  0  0  0  0
   12.6435  -19.2870   27.1741 C   0  0  0  0  0  0  0  0  0  0  0  0
   11.8864  -18.8227   25.9857 C   0  0  1  0  0  0  0  0  0  0  0  0
   12.6989  -18.0776   24.9635 N   0  0  0  0  0  0  0  0  0  0  0  0
   11.9608  -17.8589   23.7484 C   0  0  0  0  0  0  0  0  0  0  0  0
   13.9619  -18.7434   24.6210 O   0  0  0  0  0  0  0  0  0  0  0  0
   14.0234  -19.5699   23.5223 O   0  0  0  0  0  0  0  0  0  0  0  0
  2  1  1  1
  2 10  1  0
  2  3  1  0
  4  3  1  0
  5  4  2  0
  6  5  1  0
  7  8  1  0
  7  6  2  0
  8  9  2  0
  9  4  1  0
 10 20  1  0
 11 10  2  0
 13 15  1  0
 13 12  1  0
 14 13  2  0
 16 17  1  0
 16 15  1  0
 18 17  1  0
 19 18  1  6
 20 19  1  0
 21 31  1  0
 21 19  1  0
 22 21  2  0
 23 24  1  0
 24 25  2  0
 26 24  1  0
 26 27  1  0
 27 28  1  0
 28 29  1  0
 30 29  1  1
 30 32  1  0
 30 31  1  0
 32 33  1  0
 34 32  2  0
M  END
$$$$
