FRR.pdb
     RDKit          3D

 34 34  0  0  1  0  0  0  0  0999 V2000
    7.5510  -15.3688   26.1811 N   0  0  0  0  0  0  0  0  0  0  0  0
    6.4578  -15.8550   25.3658 C   0  0  1  0  0  0  0  0  0  0  0  0
    5.3607  -14.8221   25.3854 C   0  0  0  0  0  0  0  0  0  0  0  0
    5.9391  -13.5609   25.8922 C   0  0  0  0  0  0  0  0  0  0  0  0
    5.6902  -13.1732   27.2080 C   0  0  0  0  0  0  0  0  0  0  0  0
    6.2461  -11.9896   27.6514 C   0  0  0  0  0  0  0  0  0  0  0  0
    7.0211  -11.2084   26.8349 C   0  0  0  0  0  0  0  0  0  0  0  0
    7.2736  -11.5796   25.5371 C   0  0  0  0  0  0  0  0  0  0  0  0
    6.7164  -12.7603   25.1022 C   0  0  0  0  0  0  0  0  0  0  0  0
    6.8891  -16.1135   23.9577 C   0  0  0  0  0  0  0  0  0  0  0  0
    6.2470  -16.8834   23.2050 O   0  0  0  0  0  0  0  0  0  0  0  0
    6.9862  -13.1377   16.4036 N   0  0  0  0  0  0  0  0  0  0  0  0
    8.2077  -13.8594   16.4790 C   0  0  0  0  0  0  0  0  0  0  0  0
    8.5664  -14.6506   15.4984 N   0  0  0  0  0  0  0  0  0  0  0  0
    9.0874  -13.7707   17.5890 N   0  0  0  0  0  0  0  0  0  0  0  0
    8.5894  -13.5791   18.9499 C   0  0  0  0  0  0  0  0  0  0  0  0
    8.9372  -14.7521   19.8164 C   0  0  0  0  0  0  0  0  0  0  0  0
    8.3049  -14.6055   21.1799 C   0  0  0  0  0  0  0  0  0  0  0  0
    8.5506  -15.7969   22.0733 C   0  0  2  0  0  0  0  0  0  0  0  0
    8.0453  -15.4943   23.4183 N   0  0  0  0  0  0  0  0  0  0  0  0
   10.0366  -15.9272   22.2249 C   0  0  0  0  0  0  0  0  0  0  0  0
   10.6297  -14.9937   22.8191 O   0  0  0  0  0  0  0  0  0  0  0  0
    9.4736  -15.1878   15.5918 N   0  0  0  0  0  0  0  0  0  0  0  0
   13.2689  -19.7572   27.2458 C   0  0  0  0  0  0  0  0  0  0  0  0
   13.5047  -21.0313   26.6231 N   0  0  0  0  0  0  0  0  0  0  0  0
   13.5055  -22.1233   27.3107 N   0  0  0  0  0  0  0  0  0  0  0  0
   13.7410  -21.0910   25.2291 C   0  0  0  0  0  0  0  0  0  0  0  0
   12.6819  -20.7855   24.3095 C   0  0  0  0  0  0  0  0  0  0  0  0
   12.9094  -19.4221   23.7385 C   0  0  0  0  0  0  0  0  0  0  0  0
   11.7120  -18.8089   23.1128 C   0  0  1  0  0  0  0  0  0  0  0  0
   11.9435  -17.4687   22.4719 N   0  0  0  0  0  0  0  0  0  0  0  0
   10.7870  -17.0144   21.7473 C   0  0  0  0  0  0  0  0  0  0  0  0
   13.0950  -17.4466   21.5610 O   0  0  0  0  0  0  0  0  0  0  0  0
   14.3465  -17.1453   22.0479 O   0  0  0  0  0  0  0  0  0  0  0  0
  2  1  1  1
  2 10  1  0
  2  3  1  0
  4  3  1  0
  5  4  2  0
  6  5  1  0
  7  8  1  0
  7  6  2  0
  8  9  2  0
  9  4  1  0
 10 20  1  0
 11 10  2  0
 13 15  1  0
 13 12  1  0
 14 13  2  0
 16 17  1  0
 16 15  1  0
 18 17  1  0
 19 18  1  6
 20 19  1  0
 21 31  1  0
 21 19  1  0
 22 21  2  0
 23 24  1  0
 24 25  2  0
 26 24  1  0
 26 27  1  0
 27 28  1  0
 28 29  1  0
 30 29  1  1
 30 32  1  0
 30 31  1  0
 32 33  1  0
 34 32  2  0
M  END
$$$$
