FRR.pdb
     RDKit          3D

 34 34  0  0  1  0  0  0  0  0999 V2000
    5.4499  -17.6703   25.3838 N   0  0  0  0  0  0  0  0  0  0  0  0
    5.9374  -16.3156   25.2311 C   0  0  1  0  0  0  0  0  0  0  0  0
    6.5840  -15.8994   26.5271 C   0  0  0  0  0  0  0  0  0  0  0  0
    6.7333  -14.4301   26.5041 C   0  0  0  0  0  0  0  0  0  0  0  0
    5.5965  -13.6271   26.4243 C   0  0  0  0  0  0  0  0  0  0  0  0
    5.7701  -12.2575   26.4058 C   0  0  0  0  0  0  0  0  0  0  0  0
    7.0156  -11.6892   26.4632 C   0  0  0  0  0  0  0  0  0  0  0  0
    8.1429  -12.4694   26.5422 C   0  0  0  0  0  0  0  0  0  0  0  0
    7.9622  -13.8335   26.5603 C   0  0  0  0  0  0  0  0  0  0  0  0
    6.9221  -16.2040   24.1116 C   0  0  0  0  0  0  0  0  0  0  0  0
    7.8200  -17.0617   23.9388 O   0  0  0  0  0  0  0  0  0  0  0  0
    8.4063  -15.7449   17.7434 N   0  0  0  0  0  0  0  0  0  0  0  0
    8.4960  -14.4683   17.1262 C   0  0  0  0  0  0  0  0  0  0  0  0
    9.1118  -14.3342   15.9778 N   0  0  0  0  0  0  0  0  0  0  0  0
    7.9411  -13.2949   17.6999 N   0  0  0  0  0  0  0  0  0  0  0  0
    7.2936  -13.3132   19.0104 C   0  0  0  0  0  0  0  0  0  0  0  0
    8.3010  -13.5184   20.1015 C   0  0  0  0  0  0  0  0  0  0  0  0
    7.6124  -13.6237   21.4412 C   0  0  0  0  0  0  0  0  0  0  0  0
    7.8717  -14.9392   22.1340 C   0  0  2  0  0  0  0  0  0  0  0  0
    6.8771  -15.1194   23.1990 N   0  0  0  0  0  0  0  0  0  0  0  0
    9.1897  -14.8080   22.8365 C   0  0  0  0  0  0  0  0  0  0  0  0
    9.2934  -13.8827   23.6788 O   0  0  0  0  0  0  0  0  0  0  0  0
    9.1682  -13.3690   15.5471 N   0  0  0  0  0  0  0  0  0  0  0  0
   14.3819  -18.7943   27.1774 C   0  0  0  0  0  0  0  0  0  0  0  0
   13.4170  -18.3870   28.1621 N   0  0  0  0  0  0  0  0  0  0  0  0
   13.1313  -19.1386   29.1714 N   0  0  0  0  0  0  0  0  0  0  0  0
   12.7666  -17.1378   28.0235 C   0  0  0  0  0  0  0  0  0  0  0  0
   11.6222  -17.0176   27.1652 C   0  0  0  0  0  0  0  0  0  0  0  0
   12.0425  -16.3855   25.8767 C   0  0  0  0  0  0  0  0  0  0  0  0
   10.9574  -16.2507   24.8740 C   0  0  1  0  0  0  0  0  0  0  0  0
   11.3814  -15.6818   23.5485 N   0  0  0  0  0  0  0  0  0  0  0  0
   10.2935  -15.6462   22.6081 C   0  0  0  0  0  0  0  0  0  0  0  0
   12.4995  -16.4062   22.9313 O   0  0  0  0  0  0  0  0  0  0  0  0
   12.2470  -17.4693   22.0945 O   0  0  0  0  0  0  0  0  0  0  0  0
  2  1  1  1
  2 10  1  0
  2  3  1  0
  4  3  1  0
  5  4  2  0
  6  5  1  0
  7  8  1  0
  7  6  2  0
  8  9  2  0
  9  4  1  0
 10 20  1  0
 11 10  2  0
 13 15  1  0
 13 12  1  0
 14 13  2  0
 16 17  1  0
 16 15  1  0
 18 17  1  0
 19 18  1  1
 20 19  1  0
 21 31  1  0
 21 19  1  0
 22 21  2  0
 23 24  1  0
 24 25  2  0
 26 24  1  0
 26 27  1  0
 27 28  1  0
 28 29  1  0
 30 29  1  1
 30 32  1  0
 30 31  1  0
 32 33  1  0
 34 32  2  0
M  END
$$$$
