FRR.pdb
     RDKit          3D

 34 34  0  0  1  0  0  0  0  0999 V2000
    6.8417  -17.3227   19.1167 N   0  0  0  0  0  0  0  0  0  0  0  0
    7.4185  -16.3631   20.0347 C   0  0  1  0  0  0  0  0  0  0  0  0
    6.2955  -15.5767   20.6602 C   0  0  0  0  0  0  0  0  0  0  0  0
    6.8978  -14.4933   21.4635 C   0  0  0  0  0  0  0  0  0  0  0  0
    7.5952  -13.4710   20.8216 C   0  0  0  0  0  0  0  0  0  0  0  0
    8.1453  -12.4727   21.6009 C   0  0  0  0  0  0  0  0  0  0  0  0
    8.0185  -12.4727   22.9652 C   0  0  0  0  0  0  0  0  0  0  0  0
    7.3338  -13.4740   23.6091 C   0  0  0  0  0  0  0  0  0  0  0  0
    6.7883  -14.4654   22.8261 C   0  0  0  0  0  0  0  0  0  0  0  0
    8.2269  -17.0321   21.0998 C   0  0  0  0  0  0  0  0  0  0  0  0
    7.6998  -17.7978   21.9409 O   0  0  0  0  0  0  0  0  0  0  0  0
   14.9687  -18.2432   19.7052 N   0  0  0  0  0  0  0  0  0  0  0  0
   15.4810  -19.1596   20.6626 C   0  0  0  0  0  0  0  0  0  0  0  0
   16.7652  -19.4140   20.7087 N   0  0  0  0  0  0  0  0  0  0  0  0
   14.6567  -19.8362   21.5988 N   0  0  0  0  0  0  0  0  0  0  0  0
   13.2135  -19.6106   21.6551 C   0  0  0  0  0  0  0  0  0  0  0  0
   12.9002  -18.3293   22.3678 C   0  0  0  0  0  0  0  0  0  0  0  0
   11.9223  -17.5054   21.5648 C   0  0  0  0  0  0  0  0  0  0  0  0
   10.4951  -17.6710   22.0268 C   0  0  2  0  0  0  0  0  0  0  0  0
    9.6265  -16.8251   21.1987 N   0  0  0  0  0  0  0  0  0  0  0  0
   10.4158  -17.0934   23.4081 C   0  0  0  0  0  0  0  0  0  0  0  0
   10.6705  -15.8697   23.5263 O   0  0  0  0  0  0  0  0  0  0  0  0
   17.1138  -20.1150   21.4211 N   0  0  0  0  0  0  0  0  0  0  0  0
    8.1053  -11.6202   25.9425 C   0  0  0  0  0  0  0  0  0  0  0  0
    6.8686  -12.3518   25.9849 N   0  0  0  0  0  0  0  0  0  0  0  0
    5.7410  -11.7518   26.1689 N   0  0  0  0  0  0  0  0  0  0  0  0
    6.8860  -13.7574   25.8221 C   0  0  0  0  0  0  0  0  0  0  0  0
    7.5468  -14.5827   26.7932 C   0  0  0  0  0  0  0  0  0  0  0  0
    8.7744  -15.1741   26.1770 C   0  0  0  0  0  0  0  0  0  0  0  0
    8.8868  -16.6466   26.3194 C   0  0  2  0  0  0  0  0  0  0  0  0
   10.1917  -17.2338   25.8585 N   0  0  0  0  0  0  0  0  0  0  0  0
   10.0796  -17.8316   24.5550 C   0  0  0  0  0  0  0  0  0  0  0  0
   10.7397  -18.2377   26.7794 O   0  0  0  0  0  0  0  0  0  0  0  0
   11.1192  -17.8662   28.0490 O   0  0  0  0  0  0  0  0  0  0  0  0
  2  1  1  6
  2 10  1  0
  2  3  1  0
  4  3  1  0
  5  4  2  0
  6  5  1  0
  7  8  1  0
  7  6  2  0
  8  9  2  0
  9  4  1  0
 10 20  1  0
 11 10  2  0
 13 15  1  0
 13 12  1  0
 14 13  2  0
 16 17  1  0
 16 15  1  0
 18 17  1  0
 19 18  1  6
 20 19  1  0
 21 31  1  0
 21 19  1  0
 22 21  2  0
 23 24  1  0
 24 25  2  0
 26 24  1  0
 26 27  1  0
 27 28  1  0
 28 29  1  0
 30 29  1  6
 30 32  1  0
 30 31  1  0
 32 33  1  0
 34 32  2  0
M  END
$$$$
