FRR.pdb
     RDKit          3D

 34 34  0  0  1  0  0  0  0  0999 V2000
    6.0285  -17.7260   26.2249 N   0  0  0  0  0  0  0  0  0  0  0  0
    6.3715  -16.4033   25.7465 C   0  0  1  0  0  0  0  0  0  0  0  0
    7.1279  -15.6900   26.8373 C   0  0  0  0  0  0  0  0  0  0  0  0
    6.8783  -14.2421   26.6854 C   0  0  0  0  0  0  0  0  0  0  0  0
    5.5659  -13.7758   26.6252 C   0  0  0  0  0  0  0  0  0  0  0  0
    5.3665  -12.4169   26.4839 C   0  0  0  0  0  0  0  0  0  0  0  0
    6.4163  -11.5401   26.4037 C   0  0  0  0  0  0  0  0  0  0  0  0
    7.7135  -11.9871   26.4619 C   0  0  0  0  0  0  0  0  0  0  0  0
    7.9046  -13.3425   26.6028 C   0  0  0  0  0  0  0  0  0  0  0  0
    7.2023  -16.4614   24.5047 C   0  0  0  0  0  0  0  0  0  0  0  0
    8.0774  -17.3441   24.3408 O   0  0  0  0  0  0  0  0  0  0  0  0
    8.6430  -12.5265   16.6158 N   0  0  0  0  0  0  0  0  0  0  0  0
    8.6747  -13.9334   16.8114 C   0  0  0  0  0  0  0  0  0  0  0  0
    9.5496  -14.6677   16.1699 N   0  0  0  0  0  0  0  0  0  0  0  0
    7.7858  -14.6093   17.6871 N   0  0  0  0  0  0  0  0  0  0  0  0
    7.3052  -13.9904   18.9211 C   0  0  0  0  0  0  0  0  0  0  0  0
    8.2124  -14.3141   20.0700 C   0  0  0  0  0  0  0  0  0  0  0  0
    7.4274  -14.3819   21.3581 C   0  0  0  0  0  0  0  0  0  0  0  0
    7.7927  -15.5748   22.2075 C   0  0  2  0  0  0  0  0  0  0  0  0
    7.0306  -15.5166   23.4611 N   0  0  0  0  0  0  0  0  0  0  0  0
    9.2282  -15.4022   22.6044 C   0  0  0  0  0  0  0  0  0  0  0  0
    9.5252  -14.3440   23.2112 O   0  0  0  0  0  0  0  0  0  0  0  0
    9.5546  -15.7116   16.3445 N   0  0  0  0  0  0  0  0  0  0  0  0
   13.5075  -17.1254   28.2977 C   0  0  0  0  0  0  0  0  0  0  0  0
   12.0989  -17.2533   28.5548 N   0  0  0  0  0  0  0  0  0  0  0  0
   11.6097  -17.0367   29.7290 N   0  0  0  0  0  0  0  0  0  0  0  0
   11.2304  -17.6242   27.5009 C   0  0  0  0  0  0  0  0  0  0  0  0
   11.7710  -17.9881   26.2218 C   0  0  0  0  0  0  0  0  0  0  0  0
   11.4874  -16.8938   25.2427 C   0  0  0  0  0  0  0  0  0  0  0  0
   11.9543  -17.1671   23.8612 C   0  0  2  0  0  0  0  0  0  0  0  0
   11.5706  -16.1307   22.8420 N   0  0  0  0  0  0  0  0  0  0  0  0
   10.2394  -16.3406   22.3393 C   0  0  0  0  0  0  0  0  0  0  0  0
   12.4894  -16.0661   21.6984 O   0  0  0  0  0  0  0  0  0  0  0  0
   12.2221  -16.7983   20.5642 O   0  0  0  0  0  0  0  0  0  0  0  0
  2  1  1  1
  2 10  1  0
  2  3  1  0
  4  3  1  0
  5  4  2  0
  6  5  1  0
  7  8  1  0
  7  6  2  0
  8  9  2  0
  9  4  1  0
 10 20  1  0
 11 10  2  0
 13 15  1  0
 13 12  1  0
 14 13  2  0
 16 17  1  0
 16 15  1  0
 18 17  1  0
 19 18  1  6
 20 19  1  0
 21 31  1  0
 21 19  1  0
 22 21  2  0
 23 24  1  0
 24 25  2  0
 26 24  1  0
 26 27  1  0
 27 28  1  0
 28 29  1  0
 30 29  1  1
 30 32  1  0
 30 31  1  0
 32 33  1  0
 34 32  2  0
M  END
$$$$
