FRR.pdb
     RDKit          3D

 34 34  0  0  1  0  0  0  0  0999 V2000
    5.9864  -16.5139   25.6648 N   0  0  0  0  0  0  0  0  0  0  0  0
    7.0012  -15.7229   25.0010 C   0  0  1  0  0  0  0  0  0  0  0  0
    7.7457  -14.9371   26.0494 C   0  0  0  0  0  0  0  0  0  0  0  0
    7.1718  -13.5766   26.0842 C   0  0  0  0  0  0  0  0  0  0  0  0
    6.1725  -13.2780   27.0092 C   0  0  0  0  0  0  0  0  0  0  0  0
    5.6576  -11.9969   27.0168 C   0  0  0  0  0  0  0  0  0  0  0  0
    6.1046  -11.0367   26.1476 C   0  0  0  0  0  0  0  0  0  0  0  0
    7.0886  -11.3184   25.2319 C   0  0  0  0  0  0  0  0  0  0  0  0
    7.5970  -12.5971   25.2302 C   0  0  0  0  0  0  0  0  0  0  0  0
    7.9560  -16.5789   24.2322 C   0  0  0  0  0  0  0  0  0  0  0  0
    8.1557  -17.7781   24.5383 O   0  0  0  0  0  0  0  0  0  0  0  0
    7.5124  -15.0115   17.6927 N   0  0  0  0  0  0  0  0  0  0  0  0
    8.1038  -13.7876   18.1062 C   0  0  0  0  0  0  0  0  0  0  0  0
    7.5862  -12.6454   17.7275 N   0  0  0  0  0  0  0  0  0  0  0  0
    9.2582  -13.7296   18.9296 N   0  0  0  0  0  0  0  0  0  0  0  0
    9.8515  -14.9349   19.5059 C   0  0  0  0  0  0  0  0  0  0  0  0
    8.8928  -15.6075   20.4419 C   0  0  0  0  0  0  0  0  0  0  0  0
    9.4983  -16.8758   20.9944 C   0  0  0  0  0  0  0  0  0  0  0  0
    9.7681  -16.8013   22.4775 C   0  0  2  0  0  0  0  0  0  0  0  0
    8.6743  -16.0644   23.1228 N   0  0  0  0  0  0  0  0  0  0  0  0
   10.9859  -15.9450   22.6551 C   0  0  0  0  0  0  0  0  0  0  0  0
   11.5119  -15.4842   21.6123 O   0  0  0  0  0  0  0  0  0  0  0  0
    7.9961  -11.7523   18.1209 N   0  0  0  0  0  0  0  0  0  0  0  0
   12.0988  -20.1545   29.9340 C   0  0  0  0  0  0  0  0  0  0  0  0
   12.2986  -20.9292   28.7397 N   0  0  0  0  0  0  0  0  0  0  0  0
   12.9634  -22.0350   28.7616 N   0  0  0  0  0  0  0  0  0  0  0  0
   11.7565  -20.4718   27.5151 C   0  0  0  0  0  0  0  0  0  0  0  0
   11.7519  -19.0682   27.2138 C   0  0  0  0  0  0  0  0  0  0  0  0
   12.0865  -18.8779   25.7687 C   0  0  0  0  0  0  0  0  0  0  0  0
   11.3906  -17.7394   25.1202 C   0  0  1  0  0  0  0  0  0  0  0  0
   12.2899  -16.6397   24.6277 N   0  0  0  0  0  0  0  0  0  0  0  0
   11.5601  -15.6366   23.8995 C   0  0  0  0  0  0  0  0  0  0  0  0
   13.3877  -17.1178   23.7778 O   0  0  0  0  0  0  0  0  0  0  0  0
   14.6919  -16.9295   24.1749 O   0  0  0  0  0  0  0  0  0  0  0  0
  2  1  1  1
  2 10  1  0
  2  3  1  0
  4  3  1  0
  5  4  2  0
  6  5  1  0
  7  8  1  0
  7  6  2  0
  8  9  2  0
  9  4  1  0
 10 20  1  0
 11 10  2  0
 13 15  1  0
 13 12  1  0
 14 13  2  0
 16 17  1  0
 16 15  1  0
 18 17  1  0
 19 18  1  6
 20 19  1  0
 21 31  1  0
 21 19  1  0
 22 21  2  0
 23 24  1  0
 24 25  2  0
 26 24  1  0
 26 27  1  0
 27 28  1  0
 28 29  1  0
 30 29  1  1
 30 32  1  0
 30 31  1  0
 32 33  1  0
 34 32  2  0
M  END
$$$$
