FRR.pdb
     RDKit          3D

 34 34  0  0  1  0  0  0  0  0999 V2000
    7.7742  -16.9991   21.7941 N   0  0  0  0  0  0  0  0  0  0  0  0
    9.1387  -16.5176   21.8461 C   0  0  1  0  0  0  0  0  0  0  0  0
    9.1506  -15.2195   22.6115 C   0  0  0  0  0  0  0  0  0  0  0  0
    8.5445  -14.1837   21.7504 C   0  0  0  0  0  0  0  0  0  0  0  0
    7.2258  -13.7913   21.9754 C   0  0  0  0  0  0  0  0  0  0  0  0
    6.6891  -12.8201   21.1537 C   0  0  0  0  0  0  0  0  0  0  0  0
    7.4175  -12.2497   20.1430 C   0  0  0  0  0  0  0  0  0  0  0  0
    8.7173  -12.6277   19.9115 C   0  0  0  0  0  0  0  0  0  0  0  0
    9.2455  -13.5959   20.7344 C   0  0  0  0  0  0  0  0  0  0  0  0
   10.0499  -17.5045   22.5028 C   0  0  0  0  0  0  0  0  0  0  0  0
    9.7377  -18.0744   23.5749 O   0  0  0  0  0  0  0  0  0  0  0  0
   11.2078  -23.6727   21.5606 N   0  0  0  0  0  0  0  0  0  0  0  0
   12.1214  -23.6799   20.4725 C   0  0  0  0  0  0  0  0  0  0  0  0
   12.3284  -24.7812   19.7941 N   0  0  0  0  0  0  0  0  0  0  0  0
   12.8448  -22.5284   20.0668 N   0  0  0  0  0  0  0  0  0  0  0  0
   12.1664  -21.3176   19.6078 C   0  0  0  0  0  0  0  0  0  0  0  0
   11.6186  -20.5400   20.7666 C   0  0  0  0  0  0  0  0  0  0  0  0
   12.7146  -19.7400   21.4293 C   0  0  0  0  0  0  0  0  0  0  0  0
   12.2032  -18.8367   22.5250 C   0  0  2  0  0  0  0  0  0  0  0  0
   11.3068  -17.8347   21.9349 N   0  0  0  0  0  0  0  0  0  0  0  0
   13.3821  -18.0653   23.0378 C   0  0  0  0  0  0  0  0  0  0  0  0
   14.4550  -18.1762   22.3952 O   0  0  0  0  0  0  0  0  0  0  0  0
   13.0386  -24.7626   19.0095 N   0  0  0  0  0  0  0  0  0  0  0  0
   11.6697  -19.7465   31.0253 C   0  0  0  0  0  0  0  0  0  0  0  0
   13.0381  -20.1338   30.8158 N   0  0  0  0  0  0  0  0  0  0  0  0
   13.7860  -20.5099   31.7980 N   0  0  0  0  0  0  0  0  0  0  0  0
   13.5774  -20.1026   29.5079 C   0  0  0  0  0  0  0  0  0  0  0  0
   12.8557  -19.4523   28.4510 C   0  0  0  0  0  0  0  0  0  0  0  0
   13.6936  -19.4577   27.2123 C   0  0  0  0  0  0  0  0  0  0  0  0
   13.0753  -18.7781   26.0475 C   0  0  1  0  0  0  0  0  0  0  0  0
   13.9160  -17.7033   25.4164 N   0  0  0  0  0  0  0  0  0  0  0  0
   13.3531  -17.2420   24.1756 C   0  0  0  0  0  0  0  0  0  0  0  0
   15.3030  -18.1157   25.1672 O   0  0  0  0  0  0  0  0  0  0  0  0
   15.5609  -19.1781   24.3312 O   0  0  0  0  0  0  0  0  0  0  0  0
  2  1  1  1
  2 10  1  0
  2  3  1  0
  4  3  1  0
  5  4  2  0
  6  5  1  0
  7  8  1  0
  7  6  2  0
  8  9  2  0
  9  4  1  0
 10 20  1  0
 11 10  2  0
 13 15  1  0
 13 12  1  0
 14 13  2  0
 16 17  1  0
 16 15  1  0
 18 17  1  0
 19 18  1  6
 20 19  1  0
 21 31  1  0
 21 19  1  0
 22 21  2  0
 23 24  1  0
 24 25  2  0
 26 24  1  0
 26 27  1  0
 27 28  1  0
 28 29  1  0
 30 29  1  1
 30 32  1  0
 30 31  1  0
 32 33  1  0
 34 32  2  0
M  END
$$$$
