FRR.pdb
     RDKit          3D

 34 34  0  0  1  0  0  0  0  0999 V2000
    8.2212  -15.9651   17.4938 N   0  0  0  0  0  0  0  0  0  0  0  0
    8.4415  -15.0813   18.6193 C   0  0  1  0  0  0  0  0  0  0  0  0
    7.3117  -14.0850   18.6632 C   0  0  0  0  0  0  0  0  0  0  0  0
    7.5521  -13.1821   19.8072 C   0  0  0  0  0  0  0  0  0  0  0  0
    6.8690  -13.3953   21.0036 C   0  0  0  0  0  0  0  0  0  0  0  0
    7.1168  -12.5344   22.0541 C   0  0  0  0  0  0  0  0  0  0  0  0
    8.0044  -11.4968   21.9400 C   0  0  0  0  0  0  0  0  0  0  0  0
    8.6835  -11.2765   20.7669 C   0  0  0  0  0  0  0  0  0  0  0  0
    8.4315  -12.1385   19.7243 C   0  0  0  0  0  0  0  0  0  0  0  0
    8.5078  -15.8335   19.9097 C   0  0  0  0  0  0  0  0  0  0  0  0
    8.8204  -15.2682   20.9841 O   0  0  0  0  0  0  0  0  0  0  0  0
   10.9547  -24.3111   22.5708 N   0  0  0  0  0  0  0  0  0  0  0  0
   10.0564  -23.4703   21.8602 C   0  0  0  0  0  0  0  0  0  0  0  0
   10.0277  -23.4955   20.5507 N   0  0  0  0  0  0  0  0  0  0  0  0
    9.1627  -22.5775   22.5066 N   0  0  0  0  0  0  0  0  0  0  0  0
    8.2005  -21.7750   21.7535 C   0  0  0  0  0  0  0  0  0  0  0  0
    8.3010  -20.3274   22.1303 C   0  0  0  0  0  0  0  0  0  0  0  0
    8.1939  -19.4550   20.9024 C   0  0  0  0  0  0  0  0  0  0  0  0
    8.2316  -17.9807   21.2233 C   0  0  2  0  0  0  0  0  0  0  0  0
    8.2179  -17.2206   19.9672 N   0  0  0  0  0  0  0  0  0  0  0  0
    9.5690  -17.7049   21.8424 C   0  0  0  0  0  0  0  0  0  0  0  0
   10.2018  -16.7122   21.4060 O   0  0  0  0  0  0  0  0  0  0  0  0
    9.4503  -22.7658   20.0462 N   0  0  0  0  0  0  0  0  0  0  0  0
   10.3166  -15.1233   29.9873 C   0  0  0  0  0  0  0  0  0  0  0  0
    9.9107  -14.7155   28.6699 N   0  0  0  0  0  0  0  0  0  0  0  0
    9.9189  -13.4733   28.3206 N   0  0  0  0  0  0  0  0  0  0  0  0
    9.4936  -15.6941   27.7365 C   0  0  0  0  0  0  0  0  0  0  0  0
   10.4565  -16.5870   27.1567 C   0  0  0  0  0  0  0  0  0  0  0  0
   10.7621  -16.1375   25.7634 C   0  0  0  0  0  0  0  0  0  0  0  0
   10.0431  -16.8859   24.7032 C   0  0  2  0  0  0  0  0  0  0  0  0
   10.8884  -17.8507   23.9190 N   0  0  0  0  0  0  0  0  0  0  0  0
   10.1421  -18.4813   22.8633 C   0  0  0  0  0  0  0  0  0  0  0  0
   11.4954  -18.9022   24.7448 O   0  0  0  0  0  0  0  0  0  0  0  0
   12.7409  -18.7052   25.2961 O   0  0  0  0  0  0  0  0  0  0  0  0
  2  1  1  6
  2 10  1  0
  2  3  1  0
  4  3  1  0
  5  4  2  0
  6  5  1  0
  7  8  1  0
  7  6  2  0
  8  9  2  0
  9  4  1  0
 10 20  1  0
 11 10  2  0
 13 15  1  0
 13 12  1  0
 14 13  2  0
 16 17  1  0
 16 15  1  0
 18 17  1  0
 19 18  1  6
 20 19  1  0
 21 31  1  0
 21 19  1  0
 22 21  2  0
 23 24  1  0
 24 25  2  0
 26 24  1  0
 26 27  1  0
 27 28  1  0
 28 29  1  0
 30 29  1  6
 30 32  1  0
 30 31  1  0
 32 33  1  0
 34 32  2  0
M  END
$$$$
