FRR.pdb
     RDKit          3D

 34 34  0  0  1  0  0  0  0  0999 V2000
    6.0714  -17.1549   25.8303 N   0  0  0  0  0  0  0  0  0  0  0  0
    6.5028  -15.9100   25.2300 C   0  0  1  0  0  0  0  0  0  0  0  0
    7.4369  -15.2226   26.1922 C   0  0  0  0  0  0  0  0  0  0  0  0
    6.9523  -13.8399   26.3797 C   0  0  0  0  0  0  0  0  0  0  0  0
    5.6639  -13.5037   25.9670 C   0  0  0  0  0  0  0  0  0  0  0  0
    5.2407  -12.2032   26.1572 C   0  0  0  0  0  0  0  0  0  0  0  0
    6.0509  -11.2599   26.7326 C   0  0  0  0  0  0  0  0  0  0  0  0
    7.3219  -11.5788   27.1434 C   0  0  0  0  0  0  0  0  0  0  0  0
    7.7367  -12.8766   26.9507 C   0  0  0  0  0  0  0  0  0  0  0  0
    7.1931  -16.1352   23.9229 C   0  0  0  0  0  0  0  0  0  0  0  0
    7.7710  -17.2170   23.6632 O   0  0  0  0  0  0  0  0  0  0  0  0
    7.0181  -14.3406   15.6961 N   0  0  0  0  0  0  0  0  0  0  0  0
    8.3963  -14.5031   16.0012 C   0  0  0  0  0  0  0  0  0  0  0  0
    9.2479  -14.8120   15.0550 N   0  0  0  0  0  0  0  0  0  0  0  0
    8.9186  -14.3465   17.3114 N   0  0  0  0  0  0  0  0  0  0  0  0
    8.0457  -14.1522   18.4678 C   0  0  0  0  0  0  0  0  0  0  0  0
    8.8502  -13.9560   19.7176 C   0  0  0  0  0  0  0  0  0  0  0  0
    7.9499  -13.9631   20.9299 C   0  0  0  0  0  0  0  0  0  0  0  0
    7.9724  -15.2774   21.6715 C   0  0  2  0  0  0  0  0  0  0  0  0
    7.2197  -15.1294   22.9235 N   0  0  0  0  0  0  0  0  0  0  0  0
    9.3931  -15.5183   22.0857 C   0  0  0  0  0  0  0  0  0  0  0  0
    9.9001  -14.6894   22.8808 O   0  0  0  0  0  0  0  0  0  0  0  0
   10.2727  -14.8928   15.3075 N   0  0  0  0  0  0  0  0  0  0  0  0
    8.8748  -20.2992   25.9714 C   0  0  0  0  0  0  0  0  0  0  0  0
   10.0466  -19.6367   26.4759 N   0  0  0  0  0  0  0  0  0  0  0  0
   10.0418  -19.0493   27.6250 N   0  0  0  0  0  0  0  0  0  0  0  0
   11.2292  -19.6273   25.6988 C   0  0  0  0  0  0  0  0  0  0  0  0
   11.1456  -19.5361   24.2686 C   0  0  0  0  0  0  0  0  0  0  0  0
   12.0528  -18.4455   23.7951 C   0  0  0  0  0  0  0  0  0  0  0  0
   11.9330  -18.1284   22.3507 C   0  0  2  0  0  0  0  0  0  0  0  0
   11.5510  -16.7081   22.0395 N   0  0  0  0  0  0  0  0  0  0  0  0
   10.1731  -16.5988   21.6413 C   0  0  0  0  0  0  0  0  0  0  0  0
   12.3815  -16.0938   20.9960 O   0  0  0  0  0  0  0  0  0  0  0  0
   12.4652  -16.6814   19.7543 O   0  0  0  0  0  0  0  0  0  0  0  0
  2  1  1  1
  2 10  1  0
  2  3  1  0
  4  3  1  0
  5  4  2  0
  6  5  1  0
  7  8  1  0
  7  6  2  0
  8  9  2  0
  9  4  1  0
 10 20  1  0
 11 10  2  0
 13 15  1  0
 13 12  1  0
 14 13  2  0
 16 17  1  0
 16 15  1  0
 18 17  1  0
 19 18  1  6
 20 19  1  0
 21 31  1  0
 21 19  1  0
 22 21  2  0
 23 24  1  0
 24 25  2  0
 26 24  1  0
 26 27  1  0
 27 28  1  0
 28 29  1  0
 30 29  1  1
 30 32  1  0
 30 31  1  0
 32 33  1  0
 34 32  2  0
M  END
$$$$
