YIC.pdb
     RDKit          3D

 27 27  0  0  1  0  0  0  0  0999 V2000
   22.1684  -17.9026  -17.2664 O   0  0  0  0  0  0  0  0  0  0  0  0
   22.5195  -18.4879  -16.0776 C   0  0  0  0  0  0  0  0  0  0  0  0
   22.3528  -19.8352  -15.9009 C   0  0  0  0  0  0  0  0  0  0  0  0
   22.7002  -20.4489  -14.7089 C   0  0  0  0  0  0  0  0  0  0  0  0
   23.2222  -19.6979  -13.6808 C   0  0  0  0  0  0  0  0  0  0  0  0
   23.5815  -20.3875  -12.4228 C   0  0  0  0  0  0  0  0  0  0  0  0
   25.0742  -20.5024  -12.2425 C   0  0  2  0  0  0  0  0  0  0  0  0
   25.6743  -21.2619  -13.2929 N   0  0  0  0  0  0  0  0  0  0  0  0
   25.2782  -21.1699  -10.9001 C   0  0  0  0  0  0  0  0  0  0  0  0
   25.1520  -22.3949  -10.8129 O   0  0  0  0  0  0  0  0  0  0  0  0
   23.4022  -18.3339  -13.8300 C   0  0  0  0  0  0  0  0  0  0  0  0
   23.0475  -17.7563  -15.0246 C   0  0  0  0  0  0  0  0  0  0  0  0
   28.1301  -19.5015   -5.6564 C   0  0  0  0  0  0  0  0  0  0  0  0
   27.0775  -20.3643   -6.3102 C   0  0  0  0  0  0  0  0  0  0  0  0
   26.8107  -19.8856   -7.7474 C   0  0  2  0  0  0  0  0  0  0  0  0
   26.1365  -18.5429   -7.5457 C   0  0  0  0  0  0  0  0  0  0  0  0
   25.8294  -20.8046   -8.4277 C   0  0  2  0  0  0  0  0  0  0  0  0
   25.6008  -20.3823   -9.8099 N   0  0  0  0  0  0  0  0  0  0  0  0
   24.5797  -20.9270   -7.7059 C   0  0  0  0  0  0  0  0  0  0  0  0
   23.6583  -20.0036   -7.8524 O   0  0  0  0  0  0  0  0  0  0  0  0
   24.1991  -21.9466   -6.8391 N   0  0  0  0  0  0  0  0  0  0  0  0
   22.8515  -22.0935   -6.3050 C   0  0  1  0  0  0  0  0  0  0  0  0
   22.5204  -23.5411   -6.0253 C   0  0  0  0  0  0  0  0  0  0  0  0
   20.8679  -23.5713   -5.2653 S   0  0  0  0  0  0  0  0  0  0  0  0
   22.7753  -21.3828   -5.0209 C   0  0  0  0  0  0  0  0  0  0  0  0
   23.7723  -21.2984   -4.2756 O   0  0  0  0  0  0  0  0  0  0  0  0
   21.6024  -20.8001   -4.6228 O   0  0  0  0  0  0  0  0  0  0  0  0
  2  1  1  0
  3  2  2  0
  4  3  1  0
  5 11  1  0
  5  4  2  0
  6  7  1  0
  6  5  1  0
  7  8  1  6
  9 10  2  0
  9  7  1  0
 11 12  2  0
 12  2  1  0
 14 13  1  0
 14 15  1  0
 15 17  1  0
 15 16  1  1
 17 18  1  6
 18  9  1  0
 19 17  1  0
 20 19  2  0
 21 19  1  0
 22 21  1  0
 22 23  1  1
 23 24  1  0
 25 27  1  0
 25 22  1  0
 26 25  2  0
M  END
$$$$
