YIC.pdb
     RDKit          3D

 27 27  0  0  1  0  0  0  0  0999 V2000
   18.9224  -17.1343  -17.2104 O   0  0  0  0  0  0  0  0  0  0  0  0
   19.7175  -17.9283  -16.4255 C   0  0  0  0  0  0  0  0  0  0  0  0
   20.5915  -17.3600  -15.5381 C   0  0  0  0  0  0  0  0  0  0  0  0
   21.4049  -18.1417  -14.7346 C   0  0  0  0  0  0  0  0  0  0  0  0
   21.3388  -19.5131  -14.8246 C   0  0  0  0  0  0  0  0  0  0  0  0
   22.2223  -20.3152  -13.9511 C   0  0  0  0  0  0  0  0  0  0  0  0
   23.5758  -20.5516  -14.5725 C   0  0  2  0  0  0  0  0  0  0  0  0
   23.4794  -21.3405  -15.7594 N   0  0  0  0  0  0  0  0  0  0  0  0
   24.3992  -21.2536  -13.5151 C   0  0  0  0  0  0  0  0  0  0  0  0
   24.0089  -22.3373  -13.0708 O   0  0  0  0  0  0  0  0  0  0  0  0
   20.4651  -20.1164  -15.7124 C   0  0  0  0  0  0  0  0  0  0  0  0
   19.6724  -19.3126  -16.4947 C   0  0  0  0  0  0  0  0  0  0  0  0
   30.2487  -20.8134  -11.5019 C   0  0  0  0  0  0  0  0  0  0  0  0
   28.8118  -21.1325  -11.1652 C   0  0  0  0  0  0  0  0  0  0  0  0
   27.8951  -20.7863  -12.3509 C   0  0  2  0  0  0  0  0  0  0  0  0
   28.0364  -19.2817  -12.4702 C   0  0  0  0  0  0  0  0  0  0  0  0
   26.4612  -21.0961  -12.0072 C   0  0  2  0  0  0  0  0  0  0  0  0
   25.5676  -20.6555  -13.0789 N   0  0  0  0  0  0  0  0  0  0  0  0
   26.0568  -20.5441  -10.7305 C   0  0  0  0  0  0  0  0  0  0  0  0
   25.6386  -19.3014  -10.6696 O   0  0  0  0  0  0  0  0  0  0  0  0
   26.0429  -21.1868   -9.4966 N   0  0  0  0  0  0  0  0  0  0  0  0
   25.6364  -20.5439   -8.2540 C   0  0  1  0  0  0  0  0  0  0  0  0
   24.8190  -21.4752   -7.3892 C   0  0  0  0  0  0  0  0  0  0  0  0
   24.6275  -20.6667   -5.7708 S   0  0  0  0  0  0  0  0  0  0  0  0
   26.8419  -20.1983   -7.4878 C   0  0  0  0  0  0  0  0  0  0  0  0
   27.8270  -20.9635   -7.4647 O   0  0  0  0  0  0  0  0  0  0  0  0
   26.9007  -19.0252   -6.7850 O   0  0  0  0  0  0  0  0  0  0  0  0
  2  1  1  0
  3  2  2  0
  4  3  1  0
  5 11  1  0
  5  4  2  0
  6  7  1  0
  6  5  1  0
  7  8  1  6
  9 10  2  0
  9  7  1  0
 11 12  2  0
 12  2  1  0
 14 13  1  0
 14 15  1  0
 15 17  1  0
 15 16  1  1
 17 18  1  6
 18  9  1  0
 19 17  1  0
 20 19  2  0
 21 19  1  0
 22 21  1  0
 22 23  1  1
 23 24  1  0
 25 27  1  0
 25 22  1  0
 26 25  2  0
M  END
$$$$
