YIC.pdb
     RDKit          3D

 27 27  0  0  1  0  0  0  0  0999 V2000
   22.9884  -21.4719   -7.4740 O   0  0  0  0  0  0  0  0  0  0  0  0
   23.6087  -21.1321   -8.6482 C   0  0  0  0  0  0  0  0  0  0  0  0
   24.9703  -20.9958   -8.6901 C   0  0  0  0  0  0  0  0  0  0  0  0
   25.6194  -20.6532   -9.8647 C   0  0  0  0  0  0  0  0  0  0  0  0
   24.8897  -20.4449  -11.0125 C   0  0  0  0  0  0  0  0  0  0  0  0
   25.6168  -20.0805  -12.2476 C   0  0  0  0  0  0  0  0  0  0  0  0
   25.2960  -21.0083  -13.3923 C   0  0  2  0  0  0  0  0  0  0  0  0
   25.9132  -22.2854  -13.2235 N   0  0  0  0  0  0  0  0  0  0  0  0
   25.8025  -20.3169  -14.6391 C   0  0  0  0  0  0  0  0  0  0  0  0
   27.0135  -20.3217  -14.8789 O   0  0  0  0  0  0  0  0  0  0  0  0
   23.5119  -20.5754  -11.0010 C   0  0  0  0  0  0  0  0  0  0  0  0
   22.8992  -20.9161   -9.8199 C   0  0  0  0  0  0  0  0  0  0  0  0
   26.1050  -19.1813  -19.8919 C   0  0  0  0  0  0  0  0  0  0  0  0
   24.8124  -18.8705  -19.1761 C   0  0  0  0  0  0  0  0  0  0  0  0
   24.6842  -19.7296  -17.9066 C   0  0  2  0  0  0  0  0  0  0  0  0
   23.1883  -19.9406  -17.7809 C   0  0  0  0  0  0  0  0  0  0  0  0
   25.1501  -18.9517  -16.7033 C   0  0  2  0  0  0  0  0  0  0  0  0
   24.8880  -19.6995  -15.4731 N   0  0  0  0  0  0  0  0  0  0  0  0
   24.5794  -17.6221  -16.6373 C   0  0  0  0  0  0  0  0  0  0  0  0
   23.2959  -17.4832  -16.3996 O   0  0  0  0  0  0  0  0  0  0  0  0
   25.2413  -16.4082  -16.7920 N   0  0  0  0  0  0  0  0  0  0  0  0
   24.6011  -15.1103  -16.6231 C   0  0  1  0  0  0  0  0  0  0  0  0
   25.6178  -14.0157  -16.3960 C   0  0  0  0  0  0  0  0  0  0  0  0
   26.3889  -14.3333  -14.7792 S   0  0  0  0  0  0  0  0  0  0  0  0
   23.8837  -14.7759  -17.8613 C   0  0  0  0  0  0  0  0  0  0  0  0
   24.3247  -15.1317  -18.9728 O   0  0  0  0  0  0  0  0  0  0  0  0
   22.7148  -14.0654  -17.8116 O   0  0  0  0  0  0  0  0  0  0  0  0
  2  1  1  0
  3  2  2  0
  4  3  1  0
  5 11  1  0
  5  4  2  0
  6  7  1  0
  6  5  1  0
  7  8  1  1
  9 10  2  0
  9  7  1  0
 11 12  2  0
 12  2  1  0
 14 13  1  0
 14 15  1  0
 15 17  1  0
 15 16  1  1
 17 18  1  1
 18  9  1  0
 19 17  1  0
 20 19  2  0
 21 19  1  0
 22 21  1  0
 22 23  1  6
 23 24  1  0
 25 27  1  0
 25 22  1  0
 26 25  2  0
M  END
$$$$
