YIC.pdb
     RDKit          3D

 27 27  0  0  1  0  0  0  0  0999 V2000
   16.6010  -24.4489  -14.6394 O   0  0  0  0  0  0  0  0  0  0  0  0
   17.7313  -23.6802  -14.5377 C   0  0  0  0  0  0  0  0  0  0  0  0
   17.6285  -22.3180  -14.4479 C   0  0  0  0  0  0  0  0  0  0  0  0
   18.7561  -21.5205  -14.3443 C   0  0  0  0  0  0  0  0  0  0  0  0
   20.0039  -22.1004  -14.3308 C   0  0  0  0  0  0  0  0  0  0  0  0
   21.1849  -21.2174  -14.2190 C   0  0  0  0  0  0  0  0  0  0  0  0
   21.8627  -21.3396  -12.8775 C   0  0  2  0  0  0  0  0  0  0  0  0
   21.0103  -20.9075  -11.8158 N   0  0  0  0  0  0  0  0  0  0  0  0
   23.1064  -20.4825  -12.9631 C   0  0  0  0  0  0  0  0  0  0  0  0
   23.0224  -19.2755  -12.7172 O   0  0  0  0  0  0  0  0  0  0  0  0
   20.1394  -23.4749  -14.4200 C   0  0  0  0  0  0  0  0  0  0  0  0
   19.0012  -24.2369  -14.5216 C   0  0  0  0  0  0  0  0  0  0  0  0
   27.0437  -21.6253  -10.0529 C   0  0  0  0  0  0  0  0  0  0  0  0
   26.0996  -20.9415  -11.0126 C   0  0  0  0  0  0  0  0  0  0  0  0
   26.5892  -21.1165  -12.4603 C   0  0  2  0  0  0  0  0  0  0  0  0
   27.8835  -20.3278  -12.4858 C   0  0  0  0  0  0  0  0  0  0  0  0
   25.6250  -20.4649  -13.4175 C   0  0  2  0  0  0  0  0  0  0  0  0
   24.3020  -21.0817  -13.3158 N   0  0  0  0  0  0  0  0  0  0  0  0
   26.0999  -20.4711  -14.7858 C   0  0  0  0  0  0  0  0  0  0  0  0
   26.3806  -21.6151  -15.3650 O   0  0  0  0  0  0  0  0  0  0  0  0
   26.3027  -19.3734  -15.6164 N   0  0  0  0  0  0  0  0  0  0  0  0
   26.7451  -19.4771  -17.0007 C   0  0  1  0  0  0  0  0  0  0  0  0
   25.8594  -18.6771  -17.9275 C   0  0  0  0  0  0  0  0  0  0  0  0
   24.1476  -19.2089  -17.6176 S   0  0  0  0  0  0  0  0  0  0  0  0
   28.0962  -18.9088  -17.1057 C   0  0  0  0  0  0  0  0  0  0  0  0
   28.5707  -18.2114  -16.1865 O   0  0  0  0  0  0  0  0  0  0  0  0
   28.8571  -19.1382  -18.2202 O   0  0  0  0  0  0  0  0  0  0  0  0
  2  1  1  0
  3  2  2  0
  4  3  1  0
  5 11  1  0
  5  4  2  0
  6  7  1  0
  6  5  1  0
  7  8  1  1
  9 10  2  0
  9  7  1  0
 11 12  2  0
 12  2  1  0
 14 13  1  0
 14 15  1  0
 15 17  1  0
 15 16  1  1
 17 18  1  6
 18  9  1  0
 19 17  1  0
 20 19  2  0
 21 19  1  0
 22 21  1  0
 22 23  1  6
 23 24  1  0
 25 27  1  0
 25 22  1  0
 26 25  2  0
M  END
$$$$
