YIC.pdb
     RDKit          3D

 27 27  0  0  1  0  0  0  0  0999 V2000
   17.7617  -15.1319  -17.8209 O   0  0  0  0  0  0  0  0  0  0  0  0
   18.6886  -16.0086  -17.3198 C   0  0  0  0  0  0  0  0  0  0  0  0
   19.9052  -15.5497  -16.8913 C   0  0  0  0  0  0  0  0  0  0  0  0
   20.8577  -16.4162  -16.3813 C   0  0  0  0  0  0  0  0  0  0  0  0
   20.5833  -17.7621  -16.3009 C   0  0  0  0  0  0  0  0  0  0  0  0
   21.6243  -18.6570  -15.7509 C   0  0  0  0  0  0  0  0  0  0  0  0
   22.6368  -19.0612  -16.7927 C   0  0  2  0  0  0  0  0  0  0  0  0
   22.0460  -19.8608  -17.8184 N   0  0  0  0  0  0  0  0  0  0  0  0
   23.7093  -19.8284  -16.0510 C   0  0  0  0  0  0  0  0  0  0  0  0
   23.5932  -21.0508  -15.9221 O   0  0  0  0  0  0  0  0  0  0  0  0
   19.3622  -18.2555  -16.7263 C   0  0  0  0  0  0  0  0  0  0  0  0
   18.4398  -17.3696  -17.2269 C   0  0  0  0  0  0  0  0  0  0  0  0
   28.7415  -18.6337  -17.1942 C   0  0  0  0  0  0  0  0  0  0  0  0
   27.5537  -19.4158  -16.6868 C   0  0  0  0  0  0  0  0  0  0  0  0
   27.2101  -18.9933  -15.2482 C   0  0  2  0  0  0  0  0  0  0  0  0
   28.3539  -19.5679  -14.4361 C   0  0  0  0  0  0  0  0  0  0  0  0
   25.9360  -19.6614  -14.8004 C   0  0  2  0  0  0  0  0  0  0  0  0
   24.7893  -19.1322  -15.5395 N   0  0  0  0  0  0  0  0  0  0  0  0
   25.7238  -19.5675  -13.3708 C   0  0  0  0  0  0  0  0  0  0  0  0
   25.2919  -18.4397  -12.8565 O   0  0  0  0  0  0  0  0  0  0  0  0
   25.9180  -20.5636  -12.4189 N   0  0  0  0  0  0  0  0  0  0  0  0
   25.4282  -20.4803  -11.0493 C   0  0  1  0  0  0  0  0  0  0  0  0
   23.9488  -20.7781  -10.9701 C   0  0  0  0  0  0  0  0  0  0  0  0
   23.4903  -20.7297   -9.2103 S   0  0  0  0  0  0  0  0  0  0  0  0
   26.1125  -21.5009  -10.2431 C   0  0  0  0  0  0  0  0  0  0  0  0
   26.4086  -22.6101  -10.7314 O   0  0  0  0  0  0  0  0  0  0  0  0
   26.4362  -21.2468   -8.9376 O   0  0  0  0  0  0  0  0  0  0  0  0
  2  1  1  0
  3  2  2  0
  4  3  1  0
  5 11  1  0
  5  4  2  0
  6  7  1  0
  6  5  1  0
  7  8  1  6
  9 10  2  0
  9  7  1  0
 11 12  2  0
 12  2  1  0
 14 13  1  0
 14 15  1  0
 15 17  1  0
 15 16  1  1
 17 18  1  6
 18  9  1  0
 19 17  1  0
 20 19  2  0
 21 19  1  0
 22 21  1  0
 22 23  1  6
 23 24  1  0
 25 27  1  0
 25 22  1  0
 26 25  2  0
M  END
$$$$
