YIC.pdb
     RDKit          3D

 27 27  0  0  1  0  0  0  0  0999 V2000
   27.0779  -12.0721  -17.4737 O   0  0  0  0  0  0  0  0  0  0  0  0
   26.6626  -13.3126  -17.0646 C   0  0  0  0  0  0  0  0  0  0  0  0
   26.9523  -13.7505  -15.8002 C   0  0  0  0  0  0  0  0  0  0  0  0
   26.5433  -14.9998  -15.3643 C   0  0  0  0  0  0  0  0  0  0  0  0
   25.8334  -15.8200  -16.2110 C   0  0  0  0  0  0  0  0  0  0  0  0
   25.4134  -17.1469  -15.7110 C   0  0  0  0  0  0  0  0  0  0  0  0
   26.5742  -18.1007  -15.5822 C   0  0  2  0  0  0  0  0  0  0  0  0
   27.2251  -18.3100  -16.8364 N   0  0  0  0  0  0  0  0  0  0  0  0
   25.9919  -19.3904  -15.0468 C   0  0  0  0  0  0  0  0  0  0  0  0
   25.5377  -20.2198  -15.8405 O   0  0  0  0  0  0  0  0  0  0  0  0
   25.5256  -15.4047  -17.4949 C   0  0  0  0  0  0  0  0  0  0  0  0
   25.9460  -14.1602  -17.8959 C   0  0  0  0  0  0  0  0  0  0  0  0
   28.4238  -21.5228  -10.7615 C   0  0  0  0  0  0  0  0  0  0  0  0
   27.5896  -21.4287  -12.0165 C   0  0  0  0  0  0  0  0  0  0  0  0
   26.1576  -20.9830  -11.6746 C   0  0  2  0  0  0  0  0  0  0  0  0
   25.5607  -22.2110  -11.0160 C   0  0  0  0  0  0  0  0  0  0  0  0
   25.3838  -20.7062  -12.9375 C   0  0  2  0  0  0  0  0  0  0  0  0
   25.9876  -19.5989  -13.6795 N   0  0  0  0  0  0  0  0  0  0  0  0
   23.9765  -20.4651  -12.6937 C   0  0  0  0  0  0  0  0  0  0  0  0
   23.6215  -19.5686  -11.8031 O   0  0  0  0  0  0  0  0  0  0  0  0
   22.8927  -21.0806  -13.3121 N   0  0  0  0  0  0  0  0  0  0  0  0
   21.5037  -20.7293  -13.0476 C   0  0  1  0  0  0  0  0  0  0  0  0
   20.7057  -20.6211  -14.3262 C   0  0  0  0  0  0  0  0  0  0  0  0
   21.4315  -19.2612  -15.2923 S   0  0  0  0  0  0  0  0  0  0  0  0
   20.8913  -21.8026  -12.2522 C   0  0  0  0  0  0  0  0  0  0  0  0
   21.4442  -22.9159  -12.1458 O   0  0  0  0  0  0  0  0  0  0  0  0
   19.6988  -21.5941  -11.6134 O   0  0  0  0  0  0  0  0  0  0  0  0
  2  1  1  0
  3  2  2  0
  4  3  1  0
  5 11  1  0
  5  4  2  0
  6  7  1  0
  6  5  1  0
  7  8  1  6
  9 10  2  0
  9  7  1  0
 11 12  2  0
 12  2  1  0
 14 13  1  0
 14 15  1  0
 15 17  1  0
 15 16  1  6
 17 18  1  1
 18  9  1  0
 19 17  1  0
 20 19  2  0
 21 19  1  0
 22 21  1  0
 22 23  1  6
 23 24  1  0
 25 27  1  0
 25 22  1  0
 26 25  2  0
M  END
$$$$
