YIC.pdb
     RDKit          3D

 27 27  0  0  1  0  0  0  0  0999 V2000
   17.6891  -18.2986  -16.0571 O   0  0  0  0  0  0  0  0  0  0  0  0
   18.7323  -18.8513  -15.3607 C   0  0  0  0  0  0  0  0  0  0  0  0
   18.8082  -20.2090  -15.2020 C   0  0  0  0  0  0  0  0  0  0  0  0
   19.8526  -20.7904  -14.5026 C   0  0  0  0  0  0  0  0  0  0  0  0
   20.8340  -19.9961  -13.9553 C   0  0  0  0  0  0  0  0  0  0  0  0
   21.9336  -20.6521  -13.2153 C   0  0  0  0  0  0  0  0  0  0  0  0
   23.0954  -20.9998  -14.1114 C   0  0  2  0  0  0  0  0  0  0  0  0
   22.7367  -21.9877  -15.0788 N   0  0  0  0  0  0  0  0  0  0  0  0
   24.1882  -21.5041  -13.1945 C   0  0  0  0  0  0  0  0  0  0  0  0
   24.1185  -22.6549  -12.7530 O   0  0  0  0  0  0  0  0  0  0  0  0
   20.7841  -18.6206  -14.0991 C   0  0  0  0  0  0  0  0  0  0  0  0
   19.7350  -18.0758  -14.7985 C   0  0  0  0  0  0  0  0  0  0  0  0
   28.3996  -19.9514  -14.9672 C   0  0  0  0  0  0  0  0  0  0  0  0
   27.9580  -20.9902  -13.9642 C   0  0  0  0  0  0  0  0  0  0  0  0
   27.6393  -20.3276  -12.6131 C   0  0  2  0  0  0  0  0  0  0  0  0
   28.8122  -20.7340  -11.7429 C   0  0  0  0  0  0  0  0  0  0  0  0
   26.3888  -20.9260  -12.0228 C   0  0  2  0  0  0  0  0  0  0  0  0
   25.2340  -20.6555  -12.8797 N   0  0  0  0  0  0  0  0  0  0  0  0
   26.1437  -20.4896  -10.6636 C   0  0  0  0  0  0  0  0  0  0  0  0
   25.6516  -19.2915  -10.4507 O   0  0  0  0  0  0  0  0  0  0  0  0
   26.3628  -21.2069   -9.4917 N   0  0  0  0  0  0  0  0  0  0  0  0
   26.1399  -20.6650   -8.1578 C   0  0  1  0  0  0  0  0  0  0  0  0
   25.4816  -21.6782   -7.2503 C   0  0  0  0  0  0  0  0  0  0  0  0
   25.4897  -20.9739   -5.5730 S   0  0  0  0  0  0  0  0  0  0  0  0
   27.4422  -20.3392   -7.5597 C   0  0  0  0  0  0  0  0  0  0  0  0
   28.4373  -21.0651   -7.7579 O   0  0  0  0  0  0  0  0  0  0  0  0
   27.5818  -19.2283   -6.7723 O   0  0  0  0  0  0  0  0  0  0  0  0
  2  1  1  0
  3  2  2  0
  4  3  1  0
  5 11  1  0
  5  4  2  0
  6  7  1  0
  6  5  1  0
  7  8  1  6
  9 10  2  0
  9  7  1  0
 11 12  2  0
 12  2  1  0
 14 13  1  0
 14 15  1  0
 15 17  1  0
 15 16  1  1
 17 18  1  6
 18  9  1  0
 19 17  1  0
 20 19  2  0
 21 19  1  0
 22 21  1  0
 22 23  1  1
 23 24  1  0
 25 27  1  0
 25 22  1  0
 26 25  2  0
M  END
$$$$
