YIC.pdb
     RDKit          3D

 27 27  0  0  1  0  0  0  0  0999 V2000
   17.1256  -12.8454  -23.2055 O   0  0  0  0  0  0  0  0  0  0  0  0
   17.6578  -12.4214  -22.0156 C   0  0  0  0  0  0  0  0  0  0  0  0
   18.8877  -11.8205  -21.9897 C   0  0  0  0  0  0  0  0  0  0  0  0
   19.4458  -11.3839  -20.7997 C   0  0  0  0  0  0  0  0  0  0  0  0
   18.7583  -11.5536  -19.6200 C   0  0  0  0  0  0  0  0  0  0  0  0
   19.3855  -11.0750  -18.3692 C   0  0  0  0  0  0  0  0  0  0  0  0
   20.2948  -12.1096  -17.7556 C   0  0  2  0  0  0  0  0  0  0  0  0
   19.5749  -13.2828  -17.3737 N   0  0  0  0  0  0  0  0  0  0  0  0
   20.9291  -11.4425  -16.5549 C   0  0  0  0  0  0  0  0  0  0  0  0
   20.5428  -11.7494  -15.4232 O   0  0  0  0  0  0  0  0  0  0  0  0
   17.5130  -12.1576  -19.6147 C   0  0  0  0  0  0  0  0  0  0  0  0
   16.9879  -12.5792  -20.8117 C   0  0  0  0  0  0  0  0  0  0  0  0
   26.2819  -10.0902  -14.4717 C   0  0  0  0  0  0  0  0  0  0  0  0
   24.8960   -9.5091  -14.6185 C   0  0  0  0  0  0  0  0  0  0  0  0
   24.1129  -10.2622  -15.7074 C   0  0  2  0  0  0  0  0  0  0  0  0
   24.8103   -9.8445  -16.9869 C   0  0  0  0  0  0  0  0  0  0  0  0
   22.6921   -9.7640  -15.7645 C   0  0  2  0  0  0  0  0  0  0  0  0
   21.9254  -10.5066  -16.7655 N   0  0  0  0  0  0  0  0  0  0  0  0
   22.6051   -8.3366  -15.9939 C   0  0  0  0  0  0  0  0  0  0  0  0
   23.0997   -7.8307  -17.0996 O   0  0  0  0  0  0  0  0  0  0  0  0
   22.0323   -7.3789  -15.1628 N   0  0  0  0  0  0  0  0  0  0  0  0
   21.9602   -5.9614  -15.4915 C   0  0  1  0  0  0  0  0  0  0  0  0
   20.5425   -5.4445  -15.4104 C   0  0  0  0  0  0  0  0  0  0  0  0
   20.6057   -3.6613  -15.7642 S   0  0  0  0  0  0  0  0  0  0  0  0
   22.7455   -5.2095  -14.5027 C   0  0  0  0  0  0  0  0  0  0  0  0
   23.3762   -4.1845  -14.8315 O   0  0  0  0  0  0  0  0  0  0  0  0
   22.7960   -5.6261  -13.1998 O   0  0  0  0  0  0  0  0  0  0  0  0
  2  1  1  0
  3  2  2  0
  4  3  1  0
  5 11  1  0
  5  4  2  0
  6  7  1  0
  6  5  1  0
  7  8  1  1
  9 10  2  0
  9  7  1  0
 11 12  2  0
 12  2  1  0
 14 13  1  0
 14 15  1  0
 15 17  1  0
 15 16  1  6
 17 18  1  6
 18  9  1  0
 19 17  1  0
 20 19  2  0
 21 19  1  0
 22 21  1  0
 22 23  1  1
 23 24  1  0
 25 27  1  0
 25 22  1  0
 26 25  2  0
M  END
$$$$
