YIC.pdb
     RDKit          3D

 27 27  0  0  1  0  0  0  0  0999 V2000
   21.8255  -17.0793  -18.5077 O   0  0  0  0  0  0  0  0  0  0  0  0
   21.9971  -17.8629  -17.3962 C   0  0  0  0  0  0  0  0  0  0  0  0
   22.1675  -19.2148  -17.5298 C   0  0  0  0  0  0  0  0  0  0  0  0
   22.3426  -20.0269  -16.4216 C   0  0  0  0  0  0  0  0  0  0  0  0
   22.3466  -19.4724  -15.1623 C   0  0  0  0  0  0  0  0  0  0  0  0
   22.5363  -20.3704  -14.0027 C   0  0  0  0  0  0  0  0  0  0  0  0
   23.8645  -20.1509  -13.3234 C   0  0  2  0  0  0  0  0  0  0  0  0
   24.9567  -20.4114  -14.2064 N   0  0  0  0  0  0  0  0  0  0  0  0
   23.8833  -21.0917  -12.1386 C   0  0  0  0  0  0  0  0  0  0  0  0
   24.1194  -22.2889  -12.3257 O   0  0  0  0  0  0  0  0  0  0  0  0
   22.1767  -18.1090  -14.9958 C   0  0  0  0  0  0  0  0  0  0  0  0
   22.0055  -17.3319  -16.1153 C   0  0  0  0  0  0  0  0  0  0  0  0
   25.7361  -20.8813   -6.4173 C   0  0  0  0  0  0  0  0  0  0  0  0
   24.6363  -21.4050   -7.3096 C   0  0  0  0  0  0  0  0  0  0  0  0
   24.6351  -20.6554   -8.6529 C   0  0  2  0  0  0  0  0  0  0  0  0
   24.1232  -19.2781   -8.2804 C   0  0  0  0  0  0  0  0  0  0  0  0
   23.6437  -21.2836   -9.5978 C   0  0  2  0  0  0  0  0  0  0  0  0
   23.6342  -20.5772  -10.8792 N   0  0  0  0  0  0  0  0  0  0  0  0
   22.3102  -21.3691   -9.0390 C   0  0  0  0  0  0  0  0  0  0  0  0
   21.5285  -20.3151   -9.0739 O   0  0  0  0  0  0  0  0  0  0  0  0
   21.7101  -22.4755   -8.4462 N   0  0  0  0  0  0  0  0  0  0  0  0
   20.3168  -22.5097   -8.0215 C   0  0  1  0  0  0  0  0  0  0  0  0
   19.5053  -23.4716   -8.8578 C   0  0  0  0  0  0  0  0  0  0  0  0
   17.8296  -23.5078   -8.1508 S   0  0  0  0  0  0  0  0  0  0  0  0
   20.2601  -22.9964   -6.6360 C   0  0  0  0  0  0  0  0  0  0  0  0
   21.2057  -23.6466   -6.1465 O   0  0  0  0  0  0  0  0  0  0  0  0
   19.1624  -22.7414   -5.8590 O   0  0  0  0  0  0  0  0  0  0  0  0
  2  1  1  0
  3  2  2  0
  4  3  1  0
  5 11  1  0
  5  4  2  0
  6  7  1  0
  6  5  1  0
  7  8  1  6
  9 10  2  0
  9  7  1  0
 11 12  2  0
 12  2  1  0
 14 13  1  0
 14 15  1  0
 15 17  1  0
 15 16  1  1
 17 18  1  6
 18  9  1  0
 19 17  1  0
 20 19  2  0
 21 19  1  0
 22 21  1  0
 22 23  1  6
 23 24  1  0
 25 27  1  0
 25 22  1  0
 26 25  2  0
M  END
$$$$
