YIC.pdb
     RDKit          3D

 27 27  0  0  1  0  0  0  0  0999 V2000
   20.0401  -21.2029   -9.6094 O   0  0  0  0  0  0  0  0  0  0  0  0
   21.1838  -21.0030  -10.3378 C   0  0  0  0  0  0  0  0  0  0  0  0
   21.2451  -21.4096  -11.6437 C   0  0  0  0  0  0  0  0  0  0  0  0
   22.3897  -21.2185  -12.3997 C   0  0  0  0  0  0  0  0  0  0  0  0
   23.4874  -20.6103  -11.8352 C   0  0  0  0  0  0  0  0  0  0  0  0
   24.6917  -20.4230  -12.6729 C   0  0  0  0  0  0  0  0  0  0  0  0
   25.4959  -21.6916  -12.8062 C   0  0  2  0  0  0  0  0  0  0  0  0
   26.1115  -22.0569  -11.5700 N   0  0  0  0  0  0  0  0  0  0  0  0
   26.5331  -21.4135  -13.8720 C   0  0  0  0  0  0  0  0  0  0  0  0
   27.6159  -20.9205  -13.5425 O   0  0  0  0  0  0  0  0  0  0  0  0
   23.4552  -20.1886  -10.5175 C   0  0  0  0  0  0  0  0  0  0  0  0
   22.3049  -20.3931   -9.7955 C   0  0  0  0  0  0  0  0  0  0  0  0
   27.7054  -25.5575  -16.4991 C   0  0  0  0  0  0  0  0  0  0  0  0
   27.7609  -24.1585  -15.9338 C   0  0  0  0  0  0  0  0  0  0  0  0
   27.1619  -23.1539  -16.9329 C   0  0  2  0  0  0  0  0  0  0  0  0
   28.1637  -23.1580  -18.0707 C   0  0  0  0  0  0  0  0  0  0  0  0
   27.1417  -21.7723  -16.3319 C   0  0  2  0  0  0  0  0  0  0  0  0
   26.2326  -21.7219  -15.1864 N   0  0  0  0  0  0  0  0  0  0  0  0
   26.8205  -20.7428  -17.2987 C   0  0  0  0  0  0  0  0  0  0  0  0
   25.5882  -20.6330  -17.7373 O   0  0  0  0  0  0  0  0  0  0  0  0
   27.6828  -19.7999  -17.8493 N   0  0  0  0  0  0  0  0  0  0  0  0
   27.2903  -18.8500  -18.8820 C   0  0  1  0  0  0  0  0  0  0  0  0
   28.2963  -17.7307  -19.0175 C   0  0  0  0  0  0  0  0  0  0  0  0
   27.6542  -16.5886  -20.2795 S   0  0  0  0  0  0  0  0  0  0  0  0
   27.2537  -19.5494  -20.1740 C   0  0  0  0  0  0  0  0  0  0  0  0
   26.2423  -19.4962  -20.9024 O   0  0  0  0  0  0  0  0  0  0  0  0
   28.3353  -20.2731  -20.5982 O   0  0  0  0  0  0  0  0  0  0  0  0
  2  1  1  0
  3  2  2  0
  4  3  1  0
  5 11  1  0
  5  4  2  0
  6  7  1  0
  6  5  1  0
  7  8  1  1
  9 10  2  0
  9  7  1  0
 11 12  2  0
 12  2  1  0
 14 13  1  0
 14 15  1  0
 15 17  1  0
 15 16  1  6
 17 18  1  1
 18  9  1  0
 19 17  1  0
 20 19  2  0
 21 19  1  0
 22 21  1  0
 22 23  1  6
 23 24  1  0
 25 27  1  0
 25 22  1  0
 26 25  2  0
M  END
$$$$
