YIC.pdb
     RDKit          3D

 27 27  0  0  1  0  0  0  0  0999 V2000
   25.8448  -16.8934  -20.4172 O   0  0  0  0  0  0  0  0  0  0  0  0
   25.5787  -17.6868  -19.3316 C   0  0  0  0  0  0  0  0  0  0  0  0
   25.3912  -19.0330  -19.4955 C   0  0  0  0  0  0  0  0  0  0  0  0
   25.1213  -19.8548  -18.4138 C   0  0  0  0  0  0  0  0  0  0  0  0
   25.0388  -19.3159  -17.1504 C   0  0  0  0  0  0  0  0  0  0  0  0
   24.7491  -20.2240  -16.0197 C   0  0  0  0  0  0  0  0  0  0  0  0
   25.9777  -20.5193  -15.1969 C   0  0  2  0  0  0  0  0  0  0  0  0
   26.9708  -21.2048  -15.9613 N   0  0  0  0  0  0  0  0  0  0  0  0
   25.5036  -21.3637  -14.0344 C   0  0  0  0  0  0  0  0  0  0  0  0
   25.5731  -22.5935  -14.1174 O   0  0  0  0  0  0  0  0  0  0  0  0
   25.2238  -17.9585  -16.9536 C   0  0  0  0  0  0  0  0  0  0  0  0
   25.4899  -17.1715  -18.0473 C   0  0  0  0  0  0  0  0  0  0  0  0
   25.4153  -20.8973   -7.9879 C   0  0  0  0  0  0  0  0  0  0  0  0
   24.6494  -21.3962   -9.1897 C   0  0  0  0  0  0  0  0  0  0  0  0
   25.2202  -20.7830  -10.4798 C   0  0  2  0  0  0  0  0  0  0  0  0
   24.8673  -19.3144  -10.3507 C   0  0  0  0  0  0  0  0  0  0  0  0
   24.4973  -21.3343  -11.6814 C   0  0  2  0  0  0  0  0  0  0  0  0
   25.0057  -20.7272  -12.9120 N   0  0  0  0  0  0  0  0  0  0  0  0
   23.0589  -21.1941  -11.5860 C   0  0  0  0  0  0  0  0  0  0  0  0
   22.5157  -20.0089  -11.7392 O   0  0  0  0  0  0  0  0  0  0  0  0
   22.1244  -22.1973  -11.3494 N   0  0  0  0  0  0  0  0  0  0  0  0
   20.6838  -21.9799  -11.3596 C   0  0  1  0  0  0  0  0  0  0  0  0
   19.9830  -22.9493  -12.2829 C   0  0  0  0  0  0  0  0  0  0  0  0
   18.1955  -22.6787  -12.0803 S   0  0  0  0  0  0  0  0  0  0  0  0
   20.1623  -22.2257  -10.0078 C   0  0  0  0  0  0  0  0  0  0  0  0
   20.8330  -22.8594   -9.1681 O   0  0  0  0  0  0  0  0  0  0  0  0
   18.9261  -21.7598   -9.6493 O   0  0  0  0  0  0  0  0  0  0  0  0
  2  1  1  0
  3  2  2  0
  4  3  1  0
  5 11  1  0
  5  4  2  0
  6  7  1  0
  6  5  1  0
  7  8  1  6
  9 10  2  0
  9  7  1  0
 11 12  2  0
 12  2  1  0
 14 13  1  0
 14 15  1  0
 15 17  1  0
 15 16  1  1
 17 18  1  6
 18  9  1  0
 19 17  1  0
 20 19  2  0
 21 19  1  0
 22 21  1  0
 22 23  1  6
 23 24  1  0
 25 27  1  0
 25 22  1  0
 26 25  2  0
M  END
$$$$
