VSY.pdb
     RDKit          3D

 26 26  0  0  1  0  0  0  0  0999 V2000
    6.7013  -14.4112   19.1377 C   0  0  0  0  0  0  0  0  0  0  0  0
    7.6601  -13.3357   19.6117 C   0  0  2  0  0  0  0  0  0  0  0  0
    8.1012  -12.4613   18.4750 C   0  0  0  0  0  0  0  0  0  0  0  0
    8.8119  -13.9053   20.4038 C   0  0  2  0  0  0  0  0  0  0  0  0
    9.6283  -14.6696   19.4831 N   0  0  0  0  0  0  0  0  0  0  0  0
    8.3844  -14.7516   21.5173 C   0  0  0  0  0  0  0  0  0  0  0  0
    7.6409  -14.3690   22.4588 O   0  0  0  0  0  0  0  0  0  0  0  0
   10.2150  -18.4579   22.0555 O   0  0  0  0  0  0  0  0  0  0  0  0
    8.8985  -18.3881   22.4707 C   0  0  0  0  0  0  0  0  0  0  0  0
    8.5260  -16.9515   22.7146 C   0  0  2  0  0  0  0  0  0  0  0  0
    8.8135  -16.1031   21.5806 N   0  0  0  0  0  0  0  0  0  0  0  0
    9.1902  -16.5004   23.9489 C   0  0  0  0  0  0  0  0  0  0  0  0
   10.2650  -15.8488   23.9765 O   0  0  0  0  0  0  0  0  0  0  0  0
    6.4055  -10.8192   26.0105 O   0  0  0  0  0  0  0  0  0  0  0  0
    6.8609  -12.0676   26.3543 C   0  0  0  0  0  0  0  0  0  0  0  0
    8.1983  -12.2535   26.6515 C   0  0  0  0  0  0  0  0  0  0  0  0
    8.6844  -13.4966   27.0001 C   0  0  0  0  0  0  0  0  0  0  0  0
    7.8371  -14.5638   27.0542 C   0  0  0  0  0  0  0  0  0  0  0  0
    8.2926  -15.9192   27.4112 C   0  0  0  0  0  0  0  0  0  0  0  0
    9.2978  -16.4857   26.4366 C   0  0  2  0  0  0  0  0  0  0  0  0
    8.5823  -16.8185   25.1922 N   0  0  0  0  0  0  0  0  0  0  0  0
    9.8972  -17.7068   27.0216 C   0  0  0  0  0  0  0  0  0  0  0  0
   10.7209  -17.5700   28.1408 O   0  0  0  0  0  0  0  0  0  0  0  0
    6.5006  -14.3823   26.7582 C   0  0  0  0  0  0  0  0  0  0  0  0
    5.9961  -13.1344   26.4051 C   0  0  0  0  0  0  0  0  0  0  0  0
    9.7081  -18.8564   26.5704 O   0  0  0  0  0  0  0  0  0  0  0  0
  2  1  1  6
  2  3  1  0
  4  6  1  0
  4  2  1  0
  4  5  1  6
  6  7  2  0
  9  8  1  0
 10  9  1  6
 11  6  1  0
 11 10  1  0
 12 21  1  0
 12 10  1  0
 13 12  2  0
 15 14  1  0
 16 15  2  0
 17 16  1  0
 18 17  2  0
 18 24  1  0
 19 18  1  0
 20 22  1  0
 20 19  1  1
 20 21  1  0
 22 23  1  0
 24 25  2  0
 25 15  1  0
 26 22  2  0
M  END
$$$$
