VSY.pdb
     RDKit          3D

 26 26  0  0  1  0  0  0  0  0999 V2000
    9.4666  -15.3011   15.9413 C   0  0  0  0  0  0  0  0  0  0  0  0
    9.5130  -15.0611   17.4382 C   0  0  2  0  0  0  0  0  0  0  0  0
   10.0764  -16.2486   18.1620 C   0  0  0  0  0  0  0  0  0  0  0  0
    8.1812  -14.6091   17.9864 C   0  0  2  0  0  0  0  0  0  0  0  0
    7.8148  -13.3998   17.2781 N   0  0  0  0  0  0  0  0  0  0  0  0
    8.2045  -14.3595   19.4272 C   0  0  0  0  0  0  0  0  0  0  0  0
    8.7784  -13.3796   19.9716 O   0  0  0  0  0  0  0  0  0  0  0  0
    6.3123  -17.0322   22.1708 O   0  0  0  0  0  0  0  0  0  0  0  0
    6.3749  -15.6746   22.4232 C   0  0  0  0  0  0  0  0  0  0  0  0
    7.5853  -15.0944   21.7444 C   0  0  2  0  0  0  0  0  0  0  0  0
    7.5483  -15.2576   20.3090 N   0  0  0  0  0  0  0  0  0  0  0  0
    8.7892  -15.6817   22.3556 C   0  0  0  0  0  0  0  0  0  0  0  0
    9.0583  -16.9097   22.3504 O   0  0  0  0  0  0  0  0  0  0  0  0
   10.1913  -15.6314   30.7123 O   0  0  0  0  0  0  0  0  0  0  0  0
    9.8863  -15.4583   29.3853 C   0  0  0  0  0  0  0  0  0  0  0  0
    9.6764  -16.5615   28.5788 C   0  0  0  0  0  0  0  0  0  0  0  0
    9.3684  -16.4183   27.2417 C   0  0  0  0  0  0  0  0  0  0  0  0
    9.2681  -15.1706   26.7003 C   0  0  0  0  0  0  0  0  0  0  0  0
    8.9506  -14.9476   25.2784 C   0  0  0  0  0  0  0  0  0  0  0  0
   10.1435  -15.1184   24.3680 C   0  0  2  0  0  0  0  0  0  0  0  0
    9.7107  -14.8097   22.9937 N   0  0  0  0  0  0  0  0  0  0  0  0
   10.6133  -16.5202   24.4513 C   0  0  0  0  0  0  0  0  0  0  0  0
    9.7161  -17.5403   24.1283 O   0  0  0  0  0  0  0  0  0  0  0  0
    9.4769  -14.0661   27.5025 C   0  0  0  0  0  0  0  0  0  0  0  0
    9.7880  -14.1953   28.8526 C   0  0  0  0  0  0  0  0  0  0  0  0
   11.7699  -16.8443   24.7949 O   0  0  0  0  0  0  0  0  0  0  0  0
  2  1  1  6
  2  3  1  0
  4  6  1  0
  4  2  1  0
  4  5  1  6
  6  7  2  0
  9  8  1  0
 10  9  1  1
 11  6  1  0
 11 10  1  0
 12 21  1  0
 12 10  1  0
 13 12  2  0
 15 14  1  0
 16 15  2  0
 17 16  1  0
 18 17  2  0
 18 24  1  0
 19 18  1  0
 20 22  1  0
 20 19  1  1
 20 21  1  0
 22 23  1  0
 24 25  2  0
 25 15  1  0
 26 22  2  0
M  END
$$$$
