VSY.pdb
     RDKit          3D

 26 26  0  0  1  0  0  0  0  0999 V2000
    7.0847  -12.7765   20.5561 C   0  0  0  0  0  0  0  0  0  0  0  0
    8.4114  -13.0995   19.8957 C   0  0  2  0  0  0  0  0  0  0  0  0
    8.7107  -12.1418   18.7800 C   0  0  0  0  0  0  0  0  0  0  0  0
    8.5042  -14.5466   19.4765 C   0  0  2  0  0  0  0  0  0  0  0  0
    7.6167  -14.7224   18.3453 N   0  0  0  0  0  0  0  0  0  0  0  0
    8.1484  -15.4809   20.5439 C   0  0  0  0  0  0  0  0  0  0  0  0
    6.9759  -15.8689   20.7899 O   0  0  0  0  0  0  0  0  0  0  0  0
   10.7393  -18.2380   21.9152 O   0  0  0  0  0  0  0  0  0  0  0  0
    9.3941  -18.3040   22.2259 C   0  0  0  0  0  0  0  0  0  0  0  0
    8.8682  -16.9164   22.4711 C   0  0  2  0  0  0  0  0  0  0  0  0
    9.1624  -16.0110   21.3838 N   0  0  0  0  0  0  0  0  0  0  0  0
    9.3867  -16.4429   23.7653 C   0  0  0  0  0  0  0  0  0  0  0  0
   10.3444  -15.6384   23.8923 O   0  0  0  0  0  0  0  0  0  0  0  0
    6.2439  -11.0110   26.0666 O   0  0  0  0  0  0  0  0  0  0  0  0
    6.7327  -12.2651   26.3359 C   0  0  0  0  0  0  0  0  0  0  0  0
    5.9464  -13.3760   26.0929 C   0  0  0  0  0  0  0  0  0  0  0  0
    6.4110  -14.6485   26.3538 C   0  0  0  0  0  0  0  0  0  0  0  0
    7.6656  -14.8203   26.8602 C   0  0  0  0  0  0  0  0  0  0  0  0
    8.2196  -16.1507   27.1689 C   0  0  0  0  0  0  0  0  0  0  0  0
    9.3514  -16.5517   26.2528 C   0  0  2  0  0  0  0  0  0  0  0  0
    8.7692  -16.9221   24.9509 N   0  0  0  0  0  0  0  0  0  0  0  0
   10.0582  -17.7112   26.8432 C   0  0  0  0  0  0  0  0  0  0  0  0
   10.8430  -17.5010   27.9789 O   0  0  0  0  0  0  0  0  0  0  0  0
    8.4542  -13.7133   27.1042 C   0  0  0  0  0  0  0  0  0  0  0  0
    7.9990  -12.4240   26.8458 C   0  0  0  0  0  0  0  0  0  0  0  0
    9.9929  -18.8706   26.3825 O   0  0  0  0  0  0  0  0  0  0  0  0
  2  1  1  6
  2  3  1  0
  4  6  1  0
  4  2  1  0
  4  5  1  6
  6  7  2  0
  9  8  1  0
 10  9  1  6
 11  6  1  0
 11 10  1  0
 12 21  1  0
 12 10  1  0
 13 12  2  0
 15 14  1  0
 16 15  2  0
 17 16  1  0
 18 17  2  0
 18 24  1  0
 19 18  1  0
 20 22  1  0
 20 19  1  1
 20 21  1  0
 22 23  1  0
 24 25  2  0
 25 15  1  0
 26 22  2  0
M  END
$$$$
