VSY.pdb
     RDKit          3D

 26 26  0  0  1  0  0  0  0  0999 V2000
    6.8897  -14.4061   19.3279 C   0  0  0  0  0  0  0  0  0  0  0  0
    7.6747  -13.2370   19.8914 C   0  0  2  0  0  0  0  0  0  0  0  0
    8.0571  -12.2680   18.8115 C   0  0  0  0  0  0  0  0  0  0  0  0
    8.8479  -13.6863   20.7282 C   0  0  2  0  0  0  0  0  0  0  0  0
    9.8309  -14.2447   19.8225 N   0  0  0  0  0  0  0  0  0  0  0  0
    8.4870  -14.6715   21.7470 C   0  0  0  0  0  0  0  0  0  0  0  0
    7.6037  -14.4957   22.6271 O   0  0  0  0  0  0  0  0  0  0  0  0
   10.8160  -18.1029   22.0878 O   0  0  0  0  0  0  0  0  0  0  0  0
    9.5161  -18.2300   22.5403 C   0  0  0  0  0  0  0  0  0  0  0  0
    8.9619  -16.8688   22.8601 C   0  0  2  0  0  0  0  0  0  0  0  0
    9.1524  -15.9247   21.7827 N   0  0  0  0  0  0  0  0  0  0  0  0
    9.5497  -16.4125   24.1306 C   0  0  0  0  0  0  0  0  0  0  0  0
   10.5559  -15.6636   24.2162 O   0  0  0  0  0  0  0  0  0  0  0  0
    6.0352  -11.2472   26.1207 O   0  0  0  0  0  0  0  0  0  0  0  0
    6.6382  -12.4270   26.4791 C   0  0  0  0  0  0  0  0  0  0  0  0
    7.9352  -12.4181   26.9579 C   0  0  0  0  0  0  0  0  0  0  0  0
    8.5668  -13.5881   27.3258 C   0  0  0  0  0  0  0  0  0  0  0  0
    7.9066  -14.7765   27.2174 C   0  0  0  0  0  0  0  0  0  0  0  0
    8.5256  -16.0626   27.5850 C   0  0  0  0  0  0  0  0  0  0  0  0
    9.5987  -16.5047   26.6185 C   0  0  2  0  0  0  0  0  0  0  0  0
    8.9454  -16.8423   25.3417 N   0  0  0  0  0  0  0  0  0  0  0  0
   10.2812  -17.6965   27.1723 C   0  0  0  0  0  0  0  0  0  0  0  0
   11.0481  -17.5433   28.3292 O   0  0  0  0  0  0  0  0  0  0  0  0
    6.6110  -14.7897   26.7397 C   0  0  0  0  0  0  0  0  0  0  0  0
    5.9613  -13.6176   26.3651 C   0  0  0  0  0  0  0  0  0  0  0  0
   10.2103  -18.8350   26.6628 O   0  0  0  0  0  0  0  0  0  0  0  0
  2  1  1  6
  2  3  1  0
  4  6  1  0
  4  2  1  0
  4  5  1  6
  6  7  2  0
  9  8  1  0
 10  9  1  6
 11  6  1  0
 11 10  1  0
 12 21  1  0
 12 10  1  0
 13 12  2  0
 15 14  1  0
 16 15  2  0
 17 16  1  0
 18 17  2  0
 18 24  1  0
 19 18  1  0
 20 22  1  0
 20 19  1  1
 20 21  1  0
 22 23  1  0
 24 25  2  0
 25 15  1  0
 26 22  2  0
M  END
$$$$
