VSY.pdb
     RDKit          3D

 26 26  0  0  1  0  0  0  0  0999 V2000
    7.9700  -12.4883   18.6965 C   0  0  0  0  0  0  0  0  0  0  0  0
    7.9453  -13.4711   19.8515 C   0  0  2  0  0  0  0  0  0  0  0  0
    8.6122  -12.8980   21.0673 C   0  0  0  0  0  0  0  0  0  0  0  0
    8.4855  -14.8255   19.4614 C   0  0  2  0  0  0  0  0  0  0  0  0
    7.6767  -15.3083   18.3609 N   0  0  0  0  0  0  0  0  0  0  0  0
    8.4682  -15.7920   20.5589 C   0  0  0  0  0  0  0  0  0  0  0  0
    7.8589  -16.8936   20.5290 O   0  0  0  0  0  0  0  0  0  0  0  0
   11.0484  -18.4512   22.8187 O   0  0  0  0  0  0  0  0  0  0  0  0
   10.6922  -17.4253   21.9637 C   0  0  0  0  0  0  0  0  0  0  0  0
    9.6630  -16.5534   22.6291 C   0  0  2  0  0  0  0  0  0  0  0  0
    9.1729  -15.5094   21.7582 N   0  0  0  0  0  0  0  0  0  0  0  0
   10.2336  -16.0314   23.8821 C   0  0  0  0  0  0  0  0  0  0  0  0
   10.6262  -14.8478   24.0418 O   0  0  0  0  0  0  0  0  0  0  0  0
    6.5362  -11.0746   26.3209 O   0  0  0  0  0  0  0  0  0  0  0  0
    6.9804  -12.3731   26.2930 C   0  0  0  0  0  0  0  0  0  0  0  0
    6.3641  -13.2926   25.4647 C   0  0  0  0  0  0  0  0  0  0  0  0
    6.7888  -14.6042   25.4156 C   0  0  0  0  0  0  0  0  0  0  0  0
    7.8332  -15.0069   26.1947 C   0  0  0  0  0  0  0  0  0  0  0  0
    8.3311  -16.3941   26.1964 C   0  0  0  0  0  0  0  0  0  0  0  0
    9.8352  -16.4869   26.2976 C   0  0  2  0  0  0  0  0  0  0  0  0
   10.3504  -16.9172   24.9859 N   0  0  0  0  0  0  0  0  0  0  0  0
   10.1853  -17.4842   27.3345 C   0  0  0  0  0  0  0  0  0  0  0  0
   10.3136  -17.0499   28.6554 O   0  0  0  0  0  0  0  0  0  0  0  0
    8.4516  -14.0915   27.0233 C   0  0  0  0  0  0  0  0  0  0  0  0
    8.0342  -12.7654   27.0831 C   0  0  0  0  0  0  0  0  0  0  0  0
   10.3733  -18.6959   27.0953 O   0  0  0  0  0  0  0  0  0  0  0  0
  2  1  1  6
  2  3  1  0
  4  6  1  0
  4  2  1  0
  4  5  1  6
  6  7  2  0
  9  8  1  0
 10  9  1  6
 11  6  1  0
 11 10  1  0
 12 21  1  0
 12 10  1  0
 13 12  2  0
 15 14  1  0
 16 15  2  0
 17 16  1  0
 18 17  2  0
 18 24  1  0
 19 18  1  0
 20 22  1  0
 20 19  1  6
 20 21  1  0
 22 23  1  0
 24 25  2  0
 25 15  1  0
 26 22  2  0
M  END
$$$$
