VSY.pdb
     RDKit          3D

 26 26  0  0  1  0  0  0  0  0999 V2000
    6.9617  -12.9346   20.7001 C   0  0  0  0  0  0  0  0  0  0  0  0
    8.3161  -13.1546   20.0538 C   0  0  2  0  0  0  0  0  0  0  0  0
    8.5592  -12.1663   18.9512 C   0  0  0  0  0  0  0  0  0  0  0  0
    8.5178  -14.5868   19.6221 C   0  0  2  0  0  0  0  0  0  0  0  0
    7.6360  -14.8233   18.4974 N   0  0  0  0  0  0  0  0  0  0  0  0
    8.2464  -15.5540   20.6849 C   0  0  0  0  0  0  0  0  0  0  0  0
    7.1310  -16.1053   20.8790 O   0  0  0  0  0  0  0  0  0  0  0  0
   11.0416  -18.0201   22.0704 O   0  0  0  0  0  0  0  0  0  0  0  0
    9.7090  -18.2027   22.3890 C   0  0  0  0  0  0  0  0  0  0  0  0
    9.0707  -16.8674   22.6568 C   0  0  2  0  0  0  0  0  0  0  0  0
    9.2821  -15.9253   21.5815 N   0  0  0  0  0  0  0  0  0  0  0  0
    9.5554  -16.3708   23.9554 C   0  0  0  0  0  0  0  0  0  0  0  0
   10.4558  -15.5038   24.0901 O   0  0  0  0  0  0  0  0  0  0  0  0
    6.0828  -11.2141   26.0451 O   0  0  0  0  0  0  0  0  0  0  0  0
    6.6490  -12.4227   26.3658 C   0  0  0  0  0  0  0  0  0  0  0  0
    7.8547  -12.4591   27.0415 C   0  0  0  0  0  0  0  0  0  0  0  0
    8.4473  -13.6588   27.3771 C   0  0  0  0  0  0  0  0  0  0  0  0
    7.8391  -14.8319   27.0394 C   0  0  0  0  0  0  0  0  0  0  0  0
    8.4220  -16.1470   27.3603 C   0  0  0  0  0  0  0  0  0  0  0  0
    9.5542  -16.5371   26.4400 C   0  0  2  0  0  0  0  0  0  0  0  0
    8.9718  -16.9012   25.1364 N   0  0  0  0  0  0  0  0  0  0  0  0
   10.2666  -17.6976   27.0216 C   0  0  0  0  0  0  0  0  0  0  0  0
   11.0634  -17.4891   28.1492 O   0  0  0  0  0  0  0  0  0  0  0  0
    6.6347  -14.7998   26.3647 C   0  0  0  0  0  0  0  0  0  0  0  0
    6.0252  -13.5974   26.0198 C   0  0  0  0  0  0  0  0  0  0  0  0
   10.1959  -18.8566   26.5604 O   0  0  0  0  0  0  0  0  0  0  0  0
  2  1  1  6
  2  3  1  0
  4  6  1  0
  4  2  1  0
  4  5  1  6
  6  7  2  0
  9  8  1  0
 10  9  1  6
 11  6  1  0
 11 10  1  0
 12 21  1  0
 12 10  1  0
 13 12  2  0
 15 14  1  0
 16 15  2  0
 17 16  1  0
 18 17  2  0
 18 24  1  0
 19 18  1  0
 20 22  1  0
 20 19  1  1
 20 21  1  0
 22 23  1  0
 24 25  2  0
 25 15  1  0
 26 22  2  0
M  END
$$$$
