VSY.pdb
     RDKit          3D

 26 26  0  0  1  0  0  0  0  0999 V2000
    7.7305  -19.0026   19.0223 C   0  0  0  0  0  0  0  0  0  0  0  0
    8.5189  -20.0248   19.8186 C   0  0  2  0  0  0  0  0  0  0  0  0
    7.9020  -21.3886   19.7141 C   0  0  0  0  0  0  0  0  0  0  0  0
    8.7489  -19.5853   21.2443 C   0  0  2  0  0  0  0  0  0  0  0  0
    7.4707  -19.6475   21.9230 N   0  0  0  0  0  0  0  0  0  0  0  0
    9.3086  -18.2383   21.3501 C   0  0  0  0  0  0  0  0  0  0  0  0
   10.4616  -17.9131   20.9622 O   0  0  0  0  0  0  0  0  0  0  0  0
    6.8275  -15.1260   22.3808 O   0  0  0  0  0  0  0  0  0  0  0  0
    8.0301  -14.7986   21.7833 C   0  0  0  0  0  0  0  0  0  0  0  0
    9.0504  -15.8579   22.0982 C   0  0  2  0  0  0  0  0  0  0  0  0
    8.5337  -17.1960   21.9226 N   0  0  0  0  0  0  0  0  0  0  0  0
    9.5676  -15.6185   23.4558 C   0  0  0  0  0  0  0  0  0  0  0  0
   10.2111  -14.5939   23.7974 O   0  0  0  0  0  0  0  0  0  0  0  0
    5.6982  -11.4430   25.8733 O   0  0  0  0  0  0  0  0  0  0  0  0
    6.3876  -12.6129   26.0737 C   0  0  0  0  0  0  0  0  0  0  0  0
    7.6365  -12.5817   26.6661 C   0  0  0  0  0  0  0  0  0  0  0  0
    8.3526  -13.7413   26.8801 C   0  0  0  0  0  0  0  0  0  0  0  0
    7.8257  -14.9414   26.5031 C   0  0  0  0  0  0  0  0  0  0  0  0
    8.5409  -16.2156   26.6952 C   0  0  0  0  0  0  0  0  0  0  0  0
    9.7715  -16.3442   25.8291 C   0  0  2  0  0  0  0  0  0  0  0  0
    9.3271  -16.6049   24.4486 N   0  0  0  0  0  0  0  0  0  0  0  0
   10.5894  -17.4754   26.3231 C   0  0  0  0  0  0  0  0  0  0  0  0
   10.8100  -18.5571   25.4680 O   0  0  0  0  0  0  0  0  0  0  0  0
    6.5786  -14.9768   25.9112 C   0  0  0  0  0  0  0  0  0  0  0  0
    5.8449  -13.8155   25.6892 C   0  0  0  0  0  0  0  0  0  0  0  0
   11.0954  -17.5183   27.4646 O   0  0  0  0  0  0  0  0  0  0  0  0
  2  1  1  1
  2  3  1  0
  4  6  1  0
  4  2  1  0
  4  5  1  1
  6  7  2  0
  9  8  1  0
 10  9  1  1
 11  6  1  0
 11 10  1  0
 12 21  1  0
 12 10  1  0
 13 12  2  0
 15 14  1  0
 16 15  2  0
 17 16  1  0
 18 17  2  0
 18 24  1  0
 19 18  1  0
 20 22  1  0
 20 19  1  1
 20 21  1  0
 22 23  1  0
 24 25  2  0
 25 15  1  0
 26 22  2  0
M  END
$$$$
