VSY.pdb
     RDKit          3D

 26 26  0  0  1  0  0  0  0  0999 V2000
    7.1405  -13.2439   20.5002 C   0  0  0  0  0  0  0  0  0  0  0  0
    8.4535  -13.4415   19.7671 C   0  0  2  0  0  0  0  0  0  0  0  0
    8.6417  -12.4039   18.6997 C   0  0  0  0  0  0  0  0  0  0  0  0
    8.6174  -14.8531   19.2580 C   0  0  2  0  0  0  0  0  0  0  0  0
    7.6437  -15.0433   18.2026 N   0  0  0  0  0  0  0  0  0  0  0  0
    8.4362  -15.8663   20.2969 C   0  0  0  0  0  0  0  0  0  0  0  0
    7.5845  -16.7926   20.2482 O   0  0  0  0  0  0  0  0  0  0  0  0
   10.7469  -18.2377   21.3326 O   0  0  0  0  0  0  0  0  0  0  0  0
    9.4926  -18.2404   21.9134 C   0  0  0  0  0  0  0  0  0  0  0  0
    9.1937  -16.8737   22.4658 C   0  0  2  0  0  0  0  0  0  0  0  0
    9.2546  -15.8414   21.4563 N   0  0  0  0  0  0  0  0  0  0  0  0
   10.0999  -16.6199   23.5983 C   0  0  0  0  0  0  0  0  0  0  0  0
   11.3101  -16.3011   23.4785 O   0  0  0  0  0  0  0  0  0  0  0  0
    5.3079  -12.3596   26.7096 O   0  0  0  0  0  0  0  0  0  0  0  0
    6.5443  -12.9245   26.5194 C   0  0  0  0  0  0  0  0  0  0  0  0
    6.7272  -13.8551   25.5134 C   0  0  0  0  0  0  0  0  0  0  0  0
    7.9584  -14.4395   25.2987 C   0  0  0  0  0  0  0  0  0  0  0  0
    9.0164  -14.0980   26.0886 C   0  0  0  0  0  0  0  0  0  0  0  0
   10.3553  -14.6901   25.9182 C   0  0  0  0  0  0  0  0  0  0  0  0
   10.3602  -16.1957   26.0381 C   0  0  2  0  0  0  0  0  0  0  0  0
    9.5792  -16.7409   24.9139 N   0  0  0  0  0  0  0  0  0  0  0  0
    9.7344  -16.5762   27.3251 C   0  0  0  0  0  0  0  0  0  0  0  0
    8.5771  -17.3569   27.2942 O   0  0  0  0  0  0  0  0  0  0  0  0
    8.8379  -13.1688   27.0944 C   0  0  0  0  0  0  0  0  0  0  0  0
    7.6021  -12.5712   27.3224 C   0  0  0  0  0  0  0  0  0  0  0  0
   10.1834  -16.2380   28.4408 O   0  0  0  0  0  0  0  0  0  0  0  0
  2  1  1  6
  2  3  1  0
  4  6  1  0
  4  2  1  0
  4  5  1  6
  6  7  2  0
  9  8  1  0
 10  9  1  6
 11  6  1  0
 11 10  1  0
 12 21  1  0
 12 10  1  0
 13 12  2  0
 15 14  1  0
 16 15  2  0
 17 16  1  0
 18 17  2  0
 18 24  1  0
 19 18  1  0
 20 22  1  0
 20 19  1  6
 20 21  1  0
 22 23  1  0
 24 25  2  0
 25 15  1  0
 26 22  2  0
M  END
$$$$
