LGP.pdb
     RDKit          3D

 20 20  0  0  1  0  0  0  0  0999 V2000
   28.5820  -20.5840   -4.5836 C   0  0  0  0  0  0  0  0  0  0  0  0
   27.6291  -19.9416   -5.5418 C   0  0  1  0  0  0  0  0  0  0  0  0
   27.9932  -18.4941   -5.7325 C   0  0  0  0  0  0  0  0  0  0  0  0
   27.4880  -20.6733   -6.8350 C   0  0  0  0  0  0  0  0  0  0  0  0
   26.4129  -20.0976   -7.7251 C   0  0  2  0  0  0  0  0  0  0  0  0
   25.1129  -20.5363   -7.2564 N   0  0  0  0  0  0  0  0  0  0  0  0
   26.5664  -20.5581   -9.1268 C   0  0  0  0  0  0  0  0  0  0  0  0
   25.9829  -21.6267   -9.5130 O   0  0  0  0  0  0  0  0  0  0  0  0
   27.3362  -19.8843  -10.1091 N   0  0  0  0  0  0  0  0  0  0  0  0
   27.4615  -20.3648  -11.4718 C   0  0  0  0  0  0  0  0  0  0  0  0
   26.4430  -19.7399  -12.3622 C   0  0  0  0  0  0  0  0  0  0  0  0
   25.3942  -19.2281  -11.9117 O   0  0  0  0  0  0  0  0  0  0  0  0
   26.7029  -19.7432  -13.7561 N   0  0  0  0  0  0  0  0  0  0  0  0
   27.8466  -20.3894  -14.3622 C   0  0  0  0  0  0  0  0  0  0  0  0
   28.0843  -19.6572  -15.6755 C   0  0  0  0  0  0  0  0  0  0  0  0
   27.0419  -18.5483  -15.6986 C   0  0  0  0  0  0  0  0  0  0  0  0
   25.9543  -19.1521  -14.8313 C   0  0  1  0  0  0  0  0  0  0  0  0
   25.1226  -20.1188  -15.5630 C   0  0  0  0  0  0  0  0  0  0  0  0
   25.2666  -21.3555  -15.5085 O   0  0  0  0  0  0  0  0  0  0  0  0
   24.1086  -19.6258  -16.3691 O   0  0  0  0  0  0  0  0  0  0  0  0
  2  1  1  1
  3  2  1  0
  4  2  1  0
  5  4  1  0
  5  6  1  1
  7  5  1  0
  7  8  2  0
  9  7  1  0
 10  9  1  0
 10 11  1  0
 11 13  1  0
 12 11  2  0
 13 14  1  0
 13 17  1  0
 14 15  1  0
 16 15  1  0
 17 16  1  0
 18 20  1  0
 17 18  1  6
 19 18  2  0
M  END
$$$$
