LGP.pdb
     RDKit          3D

 20 20  0  0  1  0  0  0  0  0999 V2000
   23.7037  -18.8453  -17.7542 C   0  0  0  0  0  0  0  0  0  0  0  0
   24.8705  -18.0893  -18.3072 C   0  0  1  0  0  0  0  0  0  0  0  0
   24.5753  -17.6514  -19.7162 C   0  0  0  0  0  0  0  0  0  0  0  0
   25.3265  -16.9635  -17.4398 C   0  0  0  0  0  0  0  0  0  0  0  0
   26.6622  -17.2251  -16.7862 C   0  0  2  0  0  0  0  0  0  0  0  0
   27.3120  -18.3401  -17.4468 N   0  0  0  0  0  0  0  0  0  0  0  0
   26.5043  -17.5785  -15.3542 C   0  0  0  0  0  0  0  0  0  0  0  0
   25.8684  -16.7944  -14.5717 O   0  0  0  0  0  0  0  0  0  0  0  0
   27.0206  -18.7588  -14.7612 N   0  0  0  0  0  0  0  0  0  0  0  0
   26.7940  -19.1005  -13.3700 C   0  0  0  0  0  0  0  0  0  0  0  0
   25.6228  -20.0094  -13.2193 C   0  0  0  0  0  0  0  0  0  0  0  0
   25.1155  -20.6034  -14.1964 O   0  0  0  0  0  0  0  0  0  0  0  0
   25.0934  -20.1830  -11.9155 N   0  0  0  0  0  0  0  0  0  0  0  0
   25.5731  -19.4747  -10.7487 C   0  0  0  0  0  0  0  0  0  0  0  0
   25.2228  -20.3575   -9.5591 C   0  0  0  0  0  0  0  0  0  0  0  0
   24.5884  -21.5998  -10.1679 C   0  0  0  0  0  0  0  0  0  0  0  0
   24.0313  -21.0386  -11.4619 C   0  0  1  0  0  0  0  0  0  0  0  0
   22.7567  -20.3322  -11.2665 C   0  0  0  0  0  0  0  0  0  0  0  0
   21.6646  -20.8943  -11.0560 O   0  0  0  0  0  0  0  0  0  0  0  0
   22.7658  -18.9472  -11.3191 O   0  0  0  0  0  0  0  0  0  0  0  0
  2  1  1  1
  3  2  1  0
  4  2  1  0
  5  4  1  0
  5  6  1  6
  7  5  1  0
  7  8  2  0
  9  7  1  0
 10  9  1  0
 10 11  1  0
 11 13  1  0
 12 11  2  0
 13 14  1  0
 13 17  1  0
 14 15  1  0
 16 15  1  0
 17 16  1  0
 18 20  1  0
 17 18  1  1
 19 18  2  0
M  END
$$$$
