LGP.pdb
     RDKit          3D

 20 20  0  0  1  0  0  0  0  0999 V2000
   17.9832  -15.9731  -15.6714 C   0  0  0  0  0  0  0  0  0  0  0  0
   17.5894  -14.6317  -16.2046 C   0  0  1  0  0  0  0  0  0  0  0  0
   16.4174  -14.0960  -15.4278 C   0  0  0  0  0  0  0  0  0  0  0  0
   18.7183  -13.6586  -16.2846 C   0  0  0  0  0  0  0  0  0  0  0  0
   18.2982  -12.3089  -16.8152 C   0  0  2  0  0  0  0  0  0  0  0  0
   18.0008  -12.4184  -18.2299 N   0  0  0  0  0  0  0  0  0  0  0  0
   19.3787  -11.3048  -16.6574 C   0  0  0  0  0  0  0  0  0  0  0  0
   20.1367  -11.0250  -17.6467 O   0  0  0  0  0  0  0  0  0  0  0  0
   19.6489  -10.6046  -15.4540 N   0  0  0  0  0  0  0  0  0  0  0  0
   20.5971   -9.5097  -15.3805 C   0  0  0  0  0  0  0  0  0  0  0  0
   19.9450   -8.2599  -14.8975 C   0  0  0  0  0  0  0  0  0  0  0  0
   18.7352   -8.2237  -14.5814 O   0  0  0  0  0  0  0  0  0  0  0  0
   20.7495   -7.0959  -14.8058 N   0  0  0  0  0  0  0  0  0  0  0  0
   22.1253   -7.0289  -15.2483 C   0  0  0  0  0  0  0  0  0  0  0  0
   22.7642   -5.9109  -14.4365 C   0  0  0  0  0  0  0  0  0  0  0  0
   21.6662   -5.4341  -13.4964 C   0  0  0  0  0  0  0  0  0  0  0  0
   20.4255   -5.7937  -14.2908 C   0  0  1  0  0  0  0  0  0  0  0  0
   20.1248   -4.8098  -15.3411 C   0  0  0  0  0  0  0  0  0  0  0  0
   20.5106   -4.9002  -16.5226 O   0  0  0  0  0  0  0  0  0  0  0  0
   19.3607   -3.7054  -14.9984 O   0  0  0  0  0  0  0  0  0  0  0  0
  2  1  1  1
  3  2  1  0
  4  2  1  0
  5  4  1  0
  5  6  1  6
  7  5  1  0
  7  8  2  0
  9  7  1  0
 10  9  1  0
 10 11  1  0
 11 13  1  0
 12 11  2  0
 13 14  1  0
 13 17  1  0
 14 15  1  0
 16 15  1  0
 17 16  1  0
 18 20  1  0
 17 18  1  6
 19 18  2  0
M  END
$$$$
