LGP.pdb
     RDKit          3D

 20 20  0  0  1  0  0  0  0  0999 V2000
   29.0238  -20.6226   -6.7650 C   0  0  0  0  0  0  0  0  0  0  0  0
   27.6471  -20.2195   -7.1903 C   0  0  1  0  0  0  0  0  0  0  0  0
   27.3553  -18.8202   -6.7203 C   0  0  0  0  0  0  0  0  0  0  0  0
   27.3883  -20.4009   -8.6490 C   0  0  0  0  0  0  0  0  0  0  0  0
   26.0039  -19.9625   -9.0623 C   0  0  2  0  0  0  0  0  0  0  0  0
   25.0241  -20.8804   -8.5151 N   0  0  0  0  0  0  0  0  0  0  0  0
   25.8524  -19.9673  -10.5379 C   0  0  0  0  0  0  0  0  0  0  0  0
   25.2298  -20.9245  -11.1104 O   0  0  0  0  0  0  0  0  0  0  0  0
   26.3609  -18.9594  -11.3964 N   0  0  0  0  0  0  0  0  0  0  0  0
   26.1647  -18.9817  -12.8332 C   0  0  0  0  0  0  0  0  0  0  0  0
   26.6265  -20.2699  -13.4230 C   0  0  0  0  0  0  0  0  0  0  0  0
   26.5811  -21.3446  -12.7844 O   0  0  0  0  0  0  0  0  0  0  0  0
   27.1261  -20.2398  -14.7496 N   0  0  0  0  0  0  0  0  0  0  0  0
   27.5400  -19.0314  -15.4289 C   0  0  0  0  0  0  0  0  0  0  0  0
   27.3930  -19.3245  -16.9154 C   0  0  0  0  0  0  0  0  0  0  0  0
   26.8187  -20.7325  -16.9810 C   0  0  0  0  0  0  0  0  0  0  0  0
   27.3303  -21.3173  -15.6788 C   0  0  1  0  0  0  0  0  0  0  0  0
   28.7322  -21.7514  -15.7690 C   0  0  0  0  0  0  0  0  0  0  0  0
   29.7028  -21.0901  -15.3520 O   0  0  0  0  0  0  0  0  0  0  0  0
   28.9968  -22.9784  -16.3567 O   0  0  0  0  0  0  0  0  0  0  0  0
  2  1  1  6
  3  2  1  0
  4  2  1  0
  5  4  1  0
  5  6  1  1
  7  5  1  0
  7  8  2  0
  9  7  1  0
 10  9  1  0
 10 11  1  0
 11 13  1  0
 12 11  2  0
 13 14  1  0
 13 17  1  0
 14 15  1  0
 16 15  1  0
 17 16  1  0
 18 20  1  0
 17 18  1  6
 19 18  2  0
M  END
$$$$
