LGP.pdb
     RDKit          3D

 20 20  0  0  1  0  0  0  0  0999 V2000
   18.8388  -12.6178  -20.2065 C   0  0  0  0  0  0  0  0  0  0  0  0
   20.0566  -13.3357  -19.7163 C   0  0  1  0  0  0  0  0  0  0  0  0
   20.2859  -14.5749  -20.5384 C   0  0  0  0  0  0  0  0  0  0  0  0
   21.2713  -12.4729  -19.6273 C   0  0  0  0  0  0  0  0  0  0  0  0
   22.0935  -12.7365  -18.3887 C   0  0  2  0  0  0  0  0  0  0  0  0
   21.3401  -13.5784  -17.4801 N   0  0  0  0  0  0  0  0  0  0  0  0
   22.4160  -11.4770  -17.6746 C   0  0  0  0  0  0  0  0  0  0  0  0
   23.0593  -10.5516  -18.2758 O   0  0  0  0  0  0  0  0  0  0  0  0
   22.0554  -11.2063  -16.3299 N   0  0  0  0  0  0  0  0  0  0  0  0
   22.3805   -9.9575  -15.6677 C   0  0  0  0  0  0  0  0  0  0  0  0
   21.2482   -8.9920  -15.7465 C   0  0  0  0  0  0  0  0  0  0  0  0
   20.1403   -9.3088  -16.2334 O   0  0  0  0  0  0  0  0  0  0  0  0
   21.4682   -7.6840  -15.2453 N   0  0  0  0  0  0  0  0  0  0  0  0
   22.7405   -7.2173  -14.7387 C   0  0  0  0  0  0  0  0  0  0  0  0
   22.4093   -6.0857  -13.7758 C   0  0  0  0  0  0  0  0  0  0  0  0
   20.8887   -6.0233  -13.7545 C   0  0  0  0  0  0  0  0  0  0  0  0
   20.5546   -6.5810  -15.1245 C   0  0  1  0  0  0  0  0  0  0  0  0
   20.7044   -5.5805  -16.1914 C   0  0  0  0  0  0  0  0  0  0  0  0
   21.7225   -5.4513  -16.8984 O   0  0  0  0  0  0  0  0  0  0  0  0
   19.6439   -4.7206  -16.4305 O   0  0  0  0  0  0  0  0  0  0  0  0
  2  1  1  6
  3  2  1  0
  4  2  1  0
  5  4  1  0
  5  6  1  1
  7  5  1  0
  7  8  2  0
  9  7  1  0
 10  9  1  0
 10 11  1  0
 11 13  1  0
 12 11  2  0
 13 14  1  0
 13 17  1  0
 14 15  1  0
 16 15  1  0
 17 16  1  0
 18 20  1  0
 17 18  1  6
 19 18  2  0
M  END
$$$$
