WDF.pdb
     RDKit          3D

 34 36  0  0  1  0  0  0  0  0999 V2000
   27.6590  -21.1885  -15.8082 N   0  0  0  0  0  0  0  0  0  0  0  0
   26.9902  -21.5632  -14.6075 C   0  0  1  0  0  0  0  0  0  0  0  0
   26.8658  -20.3785  -13.6749 C   0  0  0  0  0  0  0  0  0  0  0  0
   28.1962  -19.9803  -13.2094 C   0  0  0  0  0  0  0  0  0  0  0  0
   28.9737  -18.9254  -13.6309 C   0  0  0  0  0  0  0  0  0  0  0  0
   30.1141  -18.9412  -12.9302 N   0  0  0  0  0  0  0  0  0  0  0  0
   30.1044  -19.9652  -12.0718 C   0  0  0  0  0  0  0  0  0  0  0  0
   31.0168  -20.4351  -11.1247 C   0  0  0  0  0  0  0  0  0  0  0  0
   30.7507  -21.5428  -10.3501 C   0  0  0  0  0  0  0  0  0  0  0  0
   29.5594  -22.1918  -10.5206 C   0  0  0  0  0  0  0  0  0  0  0  0
   28.6253  -21.7475  -11.4590 C   0  0  0  0  0  0  0  0  0  0  0  0
   28.9199  -20.6249  -12.2291 C   0  0  0  0  0  0  0  0  0  0  0  0
   25.6450  -22.0933  -14.9326 C   0  0  0  0  0  0  0  0  0  0  0  0
   25.1916  -21.8732  -16.0900 O   0  0  0  0  0  0  0  0  0  0  0  0
   24.8776  -22.8263  -13.9862 N   0  0  0  0  0  0  0  0  0  0  0  0
   23.6186  -23.4673  -14.3137 C   0  0  1  0  0  0  0  0  0  0  0  0
   23.8111  -24.8906  -14.7357 C   0  0  0  0  0  0  0  0  0  0  0  0
   22.5600  -25.5581  -15.1233 C   0  0  0  0  0  0  0  0  0  0  0  0
   22.2393  -26.6413  -14.5836 O   0  0  0  0  0  0  0  0  0  0  0  0
   22.6136  -23.2711  -13.2378 C   0  0  0  0  0  0  0  0  0  0  0  0
   21.5101  -23.8567  -13.3705 O   0  0  0  0  0  0  0  0  0  0  0  0
   21.7543  -24.9746  -16.0829 O   0  0  0  0  0  0  0  0  0  0  0  0
   22.8829  -22.4573  -12.1045 N   0  0  0  0  0  0  0  0  0  0  0  0
   22.3618  -21.1268  -11.9335 C   0  0  1  0  0  0  0  0  0  0  0  0
   23.4558  -20.1130  -11.8523 C   0  0  0  0  0  0  0  0  0  0  0  0
   24.4047  -20.2760  -10.7539 C   0  0  0  0  0  0  0  0  0  0  0  0
   25.2548  -21.3579  -10.6652 C   0  0  0  0  0  0  0  0  0  0  0  0
   26.1143  -21.4185   -9.5924 C   0  0  0  0  0  0  0  0  0  0  0  0
   26.1507  -20.4458   -8.6188 C   0  0  0  0  0  0  0  0  0  0  0  0
   25.3011  -19.3666   -8.7092 C   0  0  0  0  0  0  0  0  0  0  0  0
   24.4318  -19.2823   -9.7725 C   0  0  0  0  0  0  0  0  0  0  0  0
   21.3403  -20.8174  -12.9593 C   0  0  0  0  0  0  0  0  0  0  0  0
   20.1352  -21.0501  -12.7067 O   0  0  0  0  0  0  0  0  0  0  0  0
   21.6319  -20.2832  -14.1959 O   0  0  0  0  0  0  0  0  0  0  0  0
  2  1  1  6
  2  3  1  0
  4  3  1  0
  4  5  2  0
  6  5  1  0
  7  6  1  0
  8  7  2  0
  9  8  1  0
 10  9  2  0
 10 11  1  0
 11 12  2  0
 12  7  1  0
 12  4  1  0
 13  2  1  0
 14 13  2  0
 15 13  1  0
 16 15  1  0
 17 18  1  0
 16 17  1  1
 18 19  2  0
 20 16  1  0
 20 23  1  0
 21 20  2  0
 22 18  1  0
 24 23  1  0
 24 25  1  6
 24 32  1  0
 26 31  1  0
 26 25  1  0
 27 26  2  0
 28 29  2  0
 28 27  1  0
 29 30  1  0
 30 31  2  0
 32 34  1  0
 33 32  2  0
M  END
$$$$
