WDF.pdb
     RDKit          3D

 34 36  0  0  1  0  0  0  0  0999 V2000
   23.3237  -21.0711  -16.5219 N   0  0  0  0  0  0  0  0  0  0  0  0
   23.8926  -22.0869  -15.7011 C   0  0  1  0  0  0  0  0  0  0  0  0
   24.0682  -21.5899  -14.2831 C   0  0  0  0  0  0  0  0  0  0  0  0
   24.9578  -20.4264  -14.2788 C   0  0  0  0  0  0  0  0  0  0  0  0
   24.6612  -19.1192  -13.9650 C   0  0  0  0  0  0  0  0  0  0  0  0
   25.7787  -18.3944  -14.0964 N   0  0  0  0  0  0  0  0  0  0  0  0
   26.7867  -19.1819  -14.4829 C   0  0  0  0  0  0  0  0  0  0  0  0
   28.1357  -18.9509  -14.7609 C   0  0  0  0  0  0  0  0  0  0  0  0
   28.9792  -19.9679  -15.1507 C   0  0  0  0  0  0  0  0  0  0  0  0
   28.4728  -21.2327  -15.2654 C   0  0  0  0  0  0  0  0  0  0  0  0
   27.1284  -21.4972  -14.9947 C   0  0  0  0  0  0  0  0  0  0  0  0
   26.2976  -20.4505  -14.6024 C   0  0  0  0  0  0  0  0  0  0  0  0
   23.0176  -23.2829  -15.7123 C   0  0  0  0  0  0  0  0  0  0  0  0
   21.7862  -23.1069  -15.9274 O   0  0  0  0  0  0  0  0  0  0  0  0
   23.5299  -24.5906  -15.4904 N   0  0  0  0  0  0  0  0  0  0  0  0
   22.6942  -25.7756  -15.4692 C   0  0  1  0  0  0  0  0  0  0  0  0
   23.4837  -27.0190  -15.7369 C   0  0  0  0  0  0  0  0  0  0  0  0
   24.2539  -26.9626  -16.9877 C   0  0  0  0  0  0  0  0  0  0  0  0
   25.4434  -27.3528  -17.0045 O   0  0  0  0  0  0  0  0  0  0  0  0
   21.8554  -25.8264  -14.2446 C   0  0  0  0  0  0  0  0  0  0  0  0
   22.4470  -25.7333  -13.1403 O   0  0  0  0  0  0  0  0  0  0  0  0
   23.6477  -26.4767  -18.1309 O   0  0  0  0  0  0  0  0  0  0  0  0
   20.4437  -25.9739  -14.3127 N   0  0  0  0  0  0  0  0  0  0  0  0
   19.5786  -25.9279  -13.1636 C   0  0  1  0  0  0  0  0  0  0  0  0
   19.7746  -24.6738  -12.3763 C   0  0  0  0  0  0  0  0  0  0  0  0
   18.8361  -24.4482  -11.2800 C   0  0  0  0  0  0  0  0  0  0  0  0
   17.7488  -23.6086  -11.3981 C   0  0  0  0  0  0  0  0  0  0  0  0
   16.9215  -23.4650  -10.3079 C   0  0  0  0  0  0  0  0  0  0  0  0
   17.1434  -24.1245   -9.1200 C   0  0  0  0  0  0  0  0  0  0  0  0
   18.2296  -24.9621   -9.0043 C   0  0  0  0  0  0  0  0  0  0  0  0
   19.0723  -25.1231  -10.0800 C   0  0  0  0  0  0  0  0  0  0  0  0
   18.1699  -26.1754  -13.5454 C   0  0  0  0  0  0  0  0  0  0  0  0
   17.7688  -25.7941  -14.6697 O   0  0  0  0  0  0  0  0  0  0  0  0
   17.2538  -26.8063  -12.7315 O   0  0  0  0  0  0  0  0  0  0  0  0
  2  1  1  6
  2  3  1  0
  4  3  1  0
  4  5  2  0
  6  5  1  0
  7  6  1  0
  8  7  2  0
  9  8  1  0
 10  9  2  0
 10 11  1  0
 11 12  2  0
 12  7  1  0
 12  4  1  0
 13  2  1  0
 14 13  2  0
 15 13  1  0
 16 15  1  0
 17 18  1  0
 16 17  1  1
 18 19  2  0
 20 16  1  0
 20 23  1  0
 21 20  2  0
 22 18  1  0
 24 23  1  0
 24 25  1  6
 24 32  1  0
 26 31  1  0
 26 25  1  0
 27 26  2  0
 28 29  2  0
 28 27  1  0
 29 30  1  0
 30 31  2  0
 32 34  1  0
 33 32  2  0
M  END
$$$$
