WDF.pdb
     RDKit          3D

 34 36  0  0  1  0  0  0  0  0999 V2000
   26.0106  -18.2266  -15.7493 N   0  0  0  0  0  0  0  0  0  0  0  0
   26.7099  -18.2382  -14.5083 C   0  0  1  0  0  0  0  0  0  0  0  0
   27.1294  -16.8376  -14.1199 C   0  0  0  0  0  0  0  0  0  0  0  0
   27.6899  -16.1531  -15.2872 C   0  0  0  0  0  0  0  0  0  0  0  0
   27.3580  -14.9200  -15.8015 C   0  0  0  0  0  0  0  0  0  0  0  0
   28.1253  -14.6952  -16.8750 N   0  0  0  0  0  0  0  0  0  0  0  0
   28.9407  -15.7348  -17.0750 C   0  0  0  0  0  0  0  0  0  0  0  0
   29.9221  -16.0183  -18.0272 C   0  0  0  0  0  0  0  0  0  0  0  0
   30.6351  -17.1968  -18.0036 C   0  0  0  0  0  0  0  0  0  0  0  0
   30.3674  -18.1060  -17.0181 C   0  0  0  0  0  0  0  0  0  0  0  0
   29.3923  -17.8530  -16.0508 C   0  0  0  0  0  0  0  0  0  0  0  0
   28.6862  -16.6534  -16.0981 C   0  0  0  0  0  0  0  0  0  0  0  0
   25.8426  -18.8160  -13.4546 C   0  0  0  0  0  0  0  0  0  0  0  0
   24.8805  -18.1139  -13.0364 O   0  0  0  0  0  0  0  0  0  0  0  0
   26.0715  -20.1143  -12.9217 N   0  0  0  0  0  0  0  0  0  0  0  0
   25.2293  -20.7123  -11.9037 C   0  0  1  0  0  0  0  0  0  0  0  0
   24.4431  -21.8681  -12.4393 C   0  0  0  0  0  0  0  0  0  0  0  0
   23.1334  -22.0321  -11.7921 C   0  0  0  0  0  0  0  0  0  0  0  0
   22.7772  -21.2333  -10.8964 O   0  0  0  0  0  0  0  0  0  0  0  0
   25.9979  -21.0062  -10.6672 C   0  0  0  0  0  0  0  0  0  0  0  0
   26.8789  -21.8990  -10.7385 O   0  0  0  0  0  0  0  0  0  0  0  0
   22.3126  -23.0720  -12.1863 O   0  0  0  0  0  0  0  0  0  0  0  0
   25.7520  -20.3108   -9.4527 N   0  0  0  0  0  0  0  0  0  0  0  0
   26.4037  -20.6208   -8.2076 C   0  0  1  0  0  0  0  0  0  0  0  0
   27.2066  -19.4664   -7.7038 C   0  0  0  0  0  0  0  0  0  0  0  0
   27.7896  -19.6193   -6.3733 C   0  0  0  0  0  0  0  0  0  0  0  0
   27.2910  -18.9638   -5.2674 C   0  0  0  0  0  0  0  0  0  0  0  0
   27.9092  -19.1763   -4.0566 C   0  0  0  0  0  0  0  0  0  0  0  0
   28.9949  -20.0114   -3.9178 C   0  0  0  0  0  0  0  0  0  0  0  0
   29.4911  -20.6648   -5.0231 C   0  0  0  0  0  0  0  0  0  0  0  0
   28.8908  -20.4693   -6.2456 C   0  0  0  0  0  0  0  0  0  0  0  0
   25.4393  -21.1507   -7.2175 C   0  0  0  0  0  0  0  0  0  0  0  0
   24.2299  -20.8392   -7.3199 O   0  0  0  0  0  0  0  0  0  0  0  0
   25.7896  -21.9765   -6.1710 O   0  0  0  0  0  0  0  0  0  0  0  0
  2  1  1  6
  2  3  1  0
  4  3  1  0
  4  5  2  0
  6  5  1  0
  7  6  1  0
  8  7  2  0
  9  8  1  0
 10  9  2  0
 10 11  1  0
 11 12  2  0
 12  7  1  0
 12  4  1  0
 13  2  1  0
 14 13  2  0
 15 13  1  0
 16 15  1  0
 17 18  1  0
 16 17  1  6
 18 19  2  0
 20 16  1  0
 20 23  1  0
 21 20  2  0
 22 18  1  0
 24 23  1  0
 24 25  1  1
 24 32  1  0
 26 31  1  0
 26 25  1  0
 27 26  2  0
 28 29  2  0
 28 27  1  0
 29 30  1  0
 30 31  2  0
 32 34  1  0
 33 32  2  0
M  END
$$$$
